Info: SIMULATION PARAMETERS:
Info: TIMESTEP               2
Info: NUMBER OF STEPS        0
Info: STEPS PER CYCLE        10
Info: PERIODIC CELL BASIS 1  32.333 0 0
Info: PERIODIC CELL BASIS 2  0 31.6147 0
Info: PERIODIC CELL BASIS 3  0 0 29.9331
Info: PERIODIC CELL CENTER   0 0 0
Info: WRAPPING WATERS AROUND PERIODIC BOUNDARIES ON OUTPUT.
Info: WRAPPING ALL CLUSTERS AROUND PERIODIC BOUNDARIES ON OUTPUT.
Info: FIRST LDB TIMESTEP     50
Info: LAST LDB TIMESTEP     -1
Info: HOM BACKGROUND SCALING 1
Info: PME BACKGROUND SCALING 1
Info: MIN ATOMS PER PATCH    40
Info: EMPTY PATCH LOAD       40 ATOMS
Info: VELOCITY FILE          mobley_352111_equil.vel
Info: CENTER OF MASS MOVING INITIALLY? NO
Info: DIELECTRIC             1
Info: EXCLUDE                SCALED ONE-FOUR
Info: 1-4 ELECTROSTATICS SCALED BY 0.833333
Info: MODIFIED 1-4 VDW PARAMETERS WILL BE USED
Info: DCD FILENAME           mobley_352111_prod.dcd
Info: DCD FREQUENCY          100000
Info: DCD FIRST STEP         100000
Info: DCD FILE WILL CONTAIN UNIT CELL DATA
Info: XST FILENAME           mobley_352111_prod.xst
Info: XST FREQUENCY          100000
Info: NO VELOCITY DCD OUTPUT
Info: NO FORCE DCD OUTPUT
Info: OUTPUT FILENAME        mobley_352111_prod
Info: BINARY OUTPUT FILES WILL BE USED
Info: RESTART FILENAME       mobley_352111_prod.restart
Info: RESTART FREQUENCY      100000
Info: BINARY RESTART FILES WILL BE USED
Info: CUTOFF                 9
Info: PAIRLIST DISTANCE      11
Info: PAIRLIST SHRINK RATE   0.01
Info: PAIRLIST GROW RATE     0.01
Info: PAIRLIST TRIGGER       0.3
Info: PAIRLISTS PER CYCLE    2
Info: PAIRLISTS ENABLED
Info: MARGIN                 2
Info: HYDROGEN GROUP CUTOFF  2.5
Info: PATCH DIMENSION        15.5
Info: ENERGY OUTPUT STEPS    100000
Info: ENERGY EVALUATION STEPS    100000
Info: OUTPUT ENERGY PRECISION 4
Info: CROSSTERM ENERGY INCLUDED IN DIHEDRAL
Info: TIMING OUTPUT STEPS    1000000
Info: PRESSURE OUTPUT STEPS  100000
Info: ALCHEMICAL FEP ON
Info: FEP CURRENT LAMBDA VALUE     0
Info: FEP COMPARISON LAMBDA VALUE  0.05
Info: FEP INTRA-ALCHEMICAL NON-BONDED INTERACTIONS WILL BE RETAINED
Info: FEP INTRA-ALCHEMICAL BONDED INTERACTIONS WILL BE RETAINED
Info: FEP VDW SHIFTING COEFFICIENT 5
Info: FEP ELEC. ACTIVE FOR ANNIHILATED PARTICLES BETWEEN LAMBDA = 0 AND LAMBDA = 0.5
Info: FEP ELEC. ACTIVE FOR EXNIHILATED PARTICLES BETWEEN LAMBDA = 0.5 AND LAMBDA = 1
Info: FEP VDW ACTIVE FOR ANNIHILATED PARTICLES BETWEEN LAMBDA = 0 AND LAMBDA = 1
Info: FEP VDW ACTIVE FOR EXNIHILATED PARTICLES BETWEEN LAMBDA = 0 AND LAMBDA = 1
Info: FEP BOND ACTIVE FOR ANNIHILATED PARTICLES BETWEEN LAMBDA = 1 AND LAMBDA = 1
Info: FEP BOND ACTIVE FOR EXNIHILATED PARTICLES BETWEEN LAMBDA = 0 AND LAMBDA = 0
Info: LANGEVIN DYNAMICS ACTIVE
Info: LANGEVIN TEMPERATURE   300
Info: LANGEVIN USING BBK INTEGRATOR
Info: LANGEVIN DAMPING COEFFICIENT IS 1 INVERSE PS
Info: LANGEVIN DYNAMICS APPLIED TO HYDROGENS
Info: LANGEVIN PISTON PRESSURE CONTROL ACTIVE
Info:        TARGET PRESSURE IS 1.01325 BAR
Info:     OSCILLATION PERIOD IS 50 FS
Info:             DECAY TIME IS 25 FS
Info:     PISTON TEMPERATURE IS 300 K
Info:       PRESSURE CONTROL IS GROUP-BASED
Info:    INITIAL STRAIN RATE IS -9.39742e-05 -9.39742e-05 -9.39742e-05
Info:       CELL FLUCTUATION IS ISOTROPIC
Info: PARTICLE MESH EWALD (PME) ACTIVE
Info: PME TOLERANCE               1e-06
Info: PME EWALD COEFFICIENT       0.348832
Info: PME INTERPOLATION ORDER     4
Info: PME GRID DIMENSIONS         36 32 32
Info: PME MAXIMUM GRID SPACING    1
Info: PME CALCULATION WILL BE PERFORMED ON GPU
Info: FULL ELECTROSTATIC EVALUATION FREQUENCY      2
Info: USING VERLET I (r-RESPA) MTS SCHEME.
Info: C1 SPLITTING OF LONG RANGE ELECTROSTATICS
Info: PLACING ATOMS IN PATCHES BY HYDROGEN GROUPS
Info: RIGID BONDS TO HYDROGEN : ALL
Info:         ERROR TOLERANCE : 1e-08
Info:          MAX ITERATIONS : 100
Info: RIGID WATER USING SETTLE ALGORITHM
Info: RANDOM NUMBER SEED     1743934357
Info: USE HYDROGEN BONDS?    NO
Info: Using AMBER format force field!
Info: AMBER PARM FILE        mobley_352111.prmtop
Info: COORDINATE PDB         mobley_352111.pdb
Info: Exclusions will be read from PARM file!
Info: SCNB (VDW SCALING)     2
Info: USING ARITHMETIC MEAN TO COMBINE L-J SIGMA PARAMETERS
Info: BINARY COORDINATES     mobley_352111_equil.coor
Info: SUMMARY OF PARAMETERS:
Info: 9 BONDS
Info: 10 ANGLES
Info:   10 HARMONIC
Info:   0 COSINE-BASED
Info: 17 DIHEDRAL
Info: 0 IMPROPER
Info: 0 CROSSTERM
Info: 0 VDW
Info: 36 VDW_PAIRS
Info: 0 NBTHOLE_PAIRS
Info: To read alchdata from file: mobley_352111.pdb
Info: To read alchflag data from column: 5
Info: STRUCTURE SUMMARY:
Info: 2924 ATOMS
Info: 2923 BONDS
Info: 32 ANGLES
Info: 58 DIHEDRALS
Info: 0 IMPROPERS
Info: 0 CROSSTERMS
Info: 2986 EXCLUSIONS
Info: 2914 RIGID BONDS
Info: ALCH: 0 ATOMS TO DISAPPEAR IN FINAL STATE
Info: ALCH: 20 ATOMS TO APPEAR IN FINAL STATE
Info: 5858 DEGREES OF FREEDOM
Info: 978 HYDROGEN GROUPS
Info: 4 ATOMS IN LARGEST HYDROGEN GROUP
Info: 978 MIGRATION GROUPS
Info: 4 ATOMS IN LARGEST MIGRATION GROUP
Info: TOTAL MASS = 17585.6 amu
Info: TOTAL CHARGE = 0.00029996 e
Info: MASS DENSITY = 0.954399 g/cm^3
Info: ATOM DENSITY = 0.0955631 atoms/A^3
Info: ADDED 0 IMPLICIT EXCLUSIONS
Info: NONBONDED TABLE R-SQUARED SPACING: 0.0625
Info: NONBONDED TABLE SIZE: 705 POINTS
Info: REDUCING NUMBER OF PATCHES TO IMPROVE LOAD BALANCE
Info: REMOVING COM VELOCITY 0.156774 0.00125845 -0.329568
Info: Use 3D box decompostion in PME FFT.
Info: Updated CUDA force table with 4096 elements.
Info: Updated CUDA LJ table with 8 x 8 elements.
Info: Found 22 unique exclusion lists needing 56 bytes
TCL: Running for 1500000 steps
ETITLE: TS BOND ANGLE DIHED IMPRP ELECT VDW BOUNDARY MISC KINETIC TOTAL TEMP POTENTIAL TOTALAVG TEMPAVG PRESSURE GPRESSURE VOLUME PRESSAVG GPRESSAVG
ENERGY: 0 3.4834 7.9749 9.2761 0.0000 -10732.0179 1453.2629 0.0000 0.0000 1726.3175 -7531.7031 296.5935 -9258.0206 -7531.7031 296.5935 -425.2091 -369.8433 30597.5793 -425.2091 -369.8433
ENERGY: 300000 3.0326 8.3871 10.1257 0.0000 -10626.6308 1443.2668 0.0000 0.0000 1767.4606 -7394.3580 303.6622 -9161.8186 -7424.0799 304.0436 186.9619 285.7353 30092.7016 -146.2855 -77.7878
ENERGY: 600000 2.0136 9.8097 11.2877 0.0000 -10796.3036 1506.3610 0.0000 0.0000 1794.6672 -7472.1644 308.3365 -9266.8315 -7446.8638 302.3685 477.5470 644.8001 29582.2160 -166.8293 -89.8382
ENERGY: 900000 1.2163 10.4727 11.7354 0.0000 -10703.4327 1471.9658 0.0000 0.0000 1744.0117 -7464.0308 299.6335 -9208.0425 -7448.5138 301.8848 280.1825 300.2496 29586.6013 -100.9356 -31.6167
ENERGY: 1200000 2.6443 6.4952 9.5383 0.0000 -10443.2938 1232.4992 0.0000 0.0000 1657.2489 -7534.8678 284.7271 -9192.1168 -7445.8351 301.2506 -1852.1484 -1848.5977 30497.4046 -253.3027 -189.3530
ENERGY: 1500000 1.5402 10.2102 10.8553 0.0000 -10448.3998 1335.1082 0.0000 0.0000 1832.1209 -7258.5650 314.7713 -9090.6859 -7427.4183 302.3052 -529.8153 -458.5137 30273.4937 -250.1577 -186.5410
TCL: Running FEP window   2: Lambda1 0.05   Lambda2 0.1    [dLambda 0.05  ]
TCL: Setting parameter firsttimestep to 0
TCL: Setting parameter alchLambda to 0.05
Info: NONBONDED TABLE R-SQUARED SPACING: 0.0625
Info: NONBONDED TABLE SIZE: 705 POINTS
TCL: Setting parameter alchLambda2 to 0.1
Info: NONBONDED TABLE R-SQUARED SPACING: 0.0625
Info: NONBONDED TABLE SIZE: 705 POINTS
TCL: Running for 1500000 steps
ETITLE: TS BOND ANGLE DIHED IMPRP ELECT VDW BOUNDARY MISC KINETIC TOTAL TEMP POTENTIAL TOTALAVG TEMPAVG PRESSURE GPRESSURE VOLUME PRESSAVG GPRESSAVG
ENERGY: 0 1.5402 10.2102 10.8553 0.0000 -10448.3993 1337.8346 0.0000 0.0000 1831.2349 -7256.7241 314.6191 -9087.9590 -7256.7241 314.6191 -522.6421 -450.1782 30273.4937 -522.6421 -450.1782
ENERGY: 300000 3.3313 8.3183 8.5761 0.0000 -10636.1272 1453.7964 0.0000 0.0000 1726.1264 -7435.9788 296.5607 -9162.1052 -7402.1009 302.7712 -138.5942 -37.0226 30312.5863 -332.9937 -227.8762
ENERGY: 600000 2.6163 10.3293 13.9173 0.0000 -10773.9835 1488.4722 0.0000 0.0000 1737.7089 -7520.9394 298.5507 -9258.6484 -7411.8848 302.0258 263.3688 261.5321 29923.2485 -332.6550 -238.2479
ENERGY: 900000 1.1901 6.2941 9.3914 0.0000 -10690.2630 1464.0892 0.0000 0.0000 1739.5221 -7469.7760 298.8622 -9209.2982 -7415.7355 300.8921 332.2219 392.5138 29643.1882 -294.9600 -215.5297
ENERGY: 1200000 2.0146 8.5006 9.2152 0.0000 -10544.1896 1379.4597 0.0000 0.0000 1732.9672 -7412.0322 297.7360 -9144.9994 -7420.3291 300.5524 -146.6098 -84.3716 29708.9407 -226.2769 -151.0731
ENERGY: 1500000 4.9667 9.5453 9.3054 0.0000 -10734.7151 1456.3821 0.0000 0.0000 1735.3433 -7519.1723 298.1442 -9254.5156 -7429.4888 299.7051 -91.6097 14.9156 29858.9297 -165.6636 -87.2369
TCL: Running FEP window   3: Lambda1 0.1    Lambda2 0.15000000000000002 [dLambda 0.05000000000000002]
TCL: Setting parameter firsttimestep to 0
TCL: Setting parameter alchLambda to 0.1
Info: NONBONDED TABLE R-SQUARED SPACING: 0.0625
Info: NONBONDED TABLE SIZE: 705 POINTS
TCL: Setting parameter alchLambda2 to 0.15000000000000002
Info: NONBONDED TABLE R-SQUARED SPACING: 0.0625
Info: NONBONDED TABLE SIZE: 705 POINTS
TCL: Running for 1500000 steps
ETITLE: TS BOND ANGLE DIHED IMPRP ELECT VDW BOUNDARY MISC KINETIC TOTAL TEMP POTENTIAL TOTALAVG TEMPAVG PRESSURE GPRESSURE VOLUME PRESSAVG GPRESSAVG
ENERGY: 0 4.9668 9.5453 9.3054 0.0000 -10734.7148 1459.4100 0.0000 0.0000 1734.4454 -7517.0420 297.9900 -9251.4874 -7517.0420 297.9900 -62.3271 29.4603 29858.9297 -62.3271 29.4603
ENERGY: 300000 4.6504 9.2902 11.0350 0.0000 -10611.5168 1407.6284 0.0000 0.0000 1810.0626 -7368.8501 310.9815 -9178.9128 -7413.6244 301.6753 -203.3601 -101.4773 30039.1468 -267.2617 -175.2994
ENERGY: 600000 6.3429 7.2220 8.8828 0.0000 -10493.4835 1370.0054 0.0000 0.0000 1786.3130 -7314.7174 306.9012 -9101.0304 -7387.6119 303.9210 -606.7390 -503.7333 30388.0259 -269.4612 -191.5194
ENERGY: 900000 0.5895 9.0434 12.3440 0.0000 -10710.5417 1426.6328 0.0000 0.0000 1779.9202 -7482.0116 305.8029 -9261.9319 -7410.9184 303.7389 -309.7418 -229.9654 30096.6943 -190.3741 -122.2309
ENERGY: 1200000 3.9271 8.5782 9.4788 0.0000 -10597.6122 1430.6100 0.0000 0.0000 1709.2341 -7435.7841 293.6585 -9145.0181 -7421.6887 302.8860 78.7377 112.5426 29871.9558 -135.0260 -71.1246
ENERGY: 1500000 1.0605 5.5794 11.3713 0.0000 -10743.6029 1447.3275 0.0000 0.0000 1769.7119 -7508.5523 304.0490 -9278.2643 -7440.2285 302.0530 -168.0658 -53.2607 29790.9277 -113.1781 -49.4956
TCL: Running FEP window   4: Lambda1 0.15000000000000002 Lambda2 0.2    [dLambda 0.04999999999999999]
TCL: Setting parameter firsttimestep to 0
TCL: Setting parameter alchLambda to 0.15000000000000002
Info: NONBONDED TABLE R-SQUARED SPACING: 0.0625
Info: NONBONDED TABLE SIZE: 705 POINTS
TCL: Setting parameter alchLambda2 to 0.2
Info: NONBONDED TABLE R-SQUARED SPACING: 0.0625
Info: NONBONDED TABLE SIZE: 705 POINTS
TCL: Running for 1500000 steps
ETITLE: TS BOND ANGLE DIHED IMPRP ELECT VDW BOUNDARY MISC KINETIC TOTAL TEMP POTENTIAL TOTALAVG TEMPAVG PRESSURE GPRESSURE VOLUME PRESSAVG GPRESSAVG
ENERGY: 0 1.0605 5.5794 11.3713 0.0000 -10743.6028 1448.1815 0.0000 0.0000 1768.8145 -7508.5956 303.8948 -9277.4101 -7508.5956 303.8948 -129.9280 -46.5436 29790.9277 -129.9280 -46.5436
ENERGY: 300000 4.4943 6.6834 10.1440 0.0000 -10537.5415 1315.5867 0.0000 0.0000 1765.9806 -7434.6526 303.4079 -9200.6332 -7423.7954 307.0469 -980.6179 -866.6505 29868.4256 -358.1973 -284.5262
ENERGY: 600000 3.9449 6.6140 9.6268 0.0000 -10674.7136 1430.5226 0.0000 0.0000 1797.0405 -7426.9647 308.7443 -9224.0052 -7427.3878 306.5380 -265.7521 -232.1800 30278.9384 -335.6551 -272.0028
ENERGY: 900000 3.4121 5.6129 12.9080 0.0000 -10429.6445 1375.9680 0.0000 0.0000 1706.5452 -7325.1983 293.1965 -9031.7434 -7410.5617 302.1015 -65.2273 -6.1514 30049.5249 -299.3869 -239.8757
ENERGY: 1200000 2.3132 8.3354 8.5603 0.0000 -10485.7263 1329.1594 0.0000 0.0000 1770.6115 -7366.7466 304.2036 -9137.3581 -7415.4446 302.1697 -691.5609 -560.6640 29914.1576 -332.6452 -277.0856
ENERGY: 1500000 2.3419 11.0145 10.1723 0.0000 -10654.2912 1434.6396 0.0000 0.0000 1758.8690 -7437.2538 302.1861 -9196.1228 -7417.4399 302.5829 -52.0935 5.0150 30010.5675 -288.7422 -238.8787
TCL: Running FEP window   5: Lambda1 0.2    Lambda2 0.25   [dLambda 0.04999999999999999]
TCL: Setting parameter firsttimestep to 0
TCL: Setting parameter alchLambda to 0.2
Info: NONBONDED TABLE R-SQUARED SPACING: 0.0625
Info: NONBONDED TABLE SIZE: 705 POINTS
TCL: Setting parameter alchLambda2 to 0.25
Info: NONBONDED TABLE R-SQUARED SPACING: 0.0625
Info: NONBONDED TABLE SIZE: 705 POINTS
TCL: Running for 1500000 steps
ETITLE: TS BOND ANGLE DIHED IMPRP ELECT VDW BOUNDARY MISC KINETIC TOTAL TEMP POTENTIAL TOTALAVG TEMPAVG PRESSURE GPRESSURE VOLUME PRESSAVG GPRESSAVG
ENERGY: 0 2.3419 11.0145 10.1723 0.0000 -10654.2899 1434.9809 0.0000 0.0000 1758.0237 -7437.7565 302.0409 -9195.7802 -7437.7565 302.0409 -75.7414 7.6487 30010.5675 -75.7414 7.6487
ENERGY: 300000 2.0637 6.6415 11.3203 0.0000 -10558.6081 1367.9783 0.0000 0.0000 1695.5641 -7475.0401 291.3099 -9170.6042 -7432.7149 299.9867 -527.7540 -448.0681 30123.1296 -394.4374 -308.8862
ENERGY: 600000 4.2741 10.5880 9.4274 0.0000 -10642.7118 1427.2360 0.0000 0.0000 1755.3653 -7435.8211 301.5842 -9191.1864 -7435.0618 301.0276 -335.9584 -254.4929 30497.1993 -392.2521 -305.4447
ENERGY: 900000 5.8107 11.2875 10.1898 0.0000 -10537.9396 1361.2394 0.0000 0.0000 1765.4780 -7383.9342 303.3216 -9149.4122 -7414.0840 301.2653 -455.5190 -389.6746 29792.0623 -405.6914 -335.8702
ENERGY: 1200000 4.2103 5.6881 8.9653 0.0000 -10562.0317 1354.0547 0.0000 0.0000 1763.5348 -7425.5785 302.9877 -9189.1134 -7422.0183 301.3331 -792.3943 -758.1161 30256.5548 -404.7660 -337.6785
ENERGY: 1500000 4.3582 11.1418 8.5512 0.0000 -10589.3731 1375.8721 0.0000 0.0000 1746.8550 -7442.5948 300.1220 -9189.4498 -7424.0269 300.8972 -455.5883 -384.0999 29782.2895 -331.5343 -266.8799
TCL: Running FEP window   6: Lambda1 0.25   Lambda2 0.3    [dLambda 0.04999999999999999]
TCL: Setting parameter firsttimestep to 0
TCL: Setting parameter alchLambda to 0.25
Info: NONBONDED TABLE R-SQUARED SPACING: 0.0625
Info: NONBONDED TABLE SIZE: 705 POINTS
TCL: Setting parameter alchLambda2 to 0.3
Info: NONBONDED TABLE R-SQUARED SPACING: 0.0625
Info: NONBONDED TABLE SIZE: 705 POINTS
TCL: Running for 1500000 steps
ETITLE: TS BOND ANGLE DIHED IMPRP ELECT VDW BOUNDARY MISC KINETIC TOTAL TEMP POTENTIAL TOTALAVG TEMPAVG PRESSURE GPRESSURE VOLUME PRESSAVG GPRESSAVG
ENERGY: 0 4.3582 11.1418 8.5512 0.0000 -10589.3733 1375.9914 0.0000 0.0000 1746.0158 -7443.3149 299.9778 -9189.3307 -7443.3149 299.9778 -470.0195 -378.7653 29782.2895 -470.0195 -378.7653
ENERGY: 300000 3.3600 6.3595 9.2074 0.0000 -10510.9331 1397.0798 0.0000 0.0000 1790.4414 -7304.4851 307.6105 -9094.9265 -7459.7364 298.4741 -299.5091 -254.0591 30527.0916 -221.8604 -152.6021
ENERGY: 600000 7.6616 8.6485 11.3618 0.0000 -10523.0382 1359.4068 0.0000 0.0000 1754.8645 -7381.0949 301.4981 -9135.9594 -7437.0529 299.6058 -703.0809 -635.7074 30121.2887 -107.7159 -49.9985
ENERGY: 900000 3.3850 7.8701 11.2244 0.0000 -10486.2853 1354.4097 0.0000 0.0000 1783.8072 -7325.5889 306.4707 -9109.3962 -7435.1096 299.6941 -482.8606 -394.1308 30232.1405 -172.2196 -114.4148
ENERGY: 1200000 4.5891 7.2883 13.7472 0.0000 -10668.4185 1417.7015 0.0000 0.0000 1734.4971 -7490.5953 297.9989 -9225.0924 -7444.8987 299.0445 -259.2171 -186.7999 29564.4720 -160.4627 -106.4097
ENERGY: 1500000 2.4339 13.4959 9.2663 0.0000 -10634.0437 1451.1434 0.0000 0.0000 1735.3847 -7422.3196 298.1513 -9157.7042 -7435.2353 299.6314 141.4352 219.3907 30288.1941 -191.0396 -132.1695
TCL: Running FEP window   7: Lambda1 0.3    Lambda2 0.35   [dLambda 0.04999999999999999]
TCL: Setting parameter firsttimestep to 0
TCL: Setting parameter alchLambda to 0.3
Info: NONBONDED TABLE R-SQUARED SPACING: 0.0625
Info: NONBONDED TABLE SIZE: 705 POINTS
TCL: Setting parameter alchLambda2 to 0.35
Info: NONBONDED TABLE R-SQUARED SPACING: 0.0625
Info: NONBONDED TABLE SIZE: 705 POINTS
TCL: Running for 1500000 steps
ETITLE: TS BOND ANGLE DIHED IMPRP ELECT VDW BOUNDARY MISC KINETIC TOTAL TEMP POTENTIAL TOTALAVG TEMPAVG PRESSURE GPRESSURE VOLUME PRESSAVG GPRESSAVG
ENERGY: 0 2.4339 13.4959 9.2663 0.0000 -10634.0457 1451.7917 0.0000 0.0000 1734.5331 -7422.5248 298.0050 -9157.0579 -7422.5248 298.0050 149.0079 229.6245 30288.1941 149.0079 229.6245
ENERGY: 300000 2.6915 9.3901 12.1905 0.0000 -10625.4623 1412.0120 0.0000 0.0000 1712.2635 -7476.9146 294.1790 -9189.1781 -7438.3046 300.1309 -212.6214 -103.2974 29826.7779 -76.4588 3.7396
ENERGY: 600000 4.2746 8.9270 10.0474 0.0000 -10602.4550 1388.3189 0.0000 0.0000 1773.2344 -7417.6528 304.6542 -9190.8872 -7442.6193 298.7678 -470.0626 -345.8195 30009.0535 -158.8643 -83.3822
ENERGY: 900000 3.5162 7.7351 10.7633 0.0000 -10778.5758 1475.0751 0.0000 0.0000 1843.3038 -7438.1824 316.6926 -9281.4862 -7437.5993 301.2016 367.5029 411.2887 29604.7748 -196.1267 -130.0478
ENERGY: 1200000 3.1833 10.3940 9.8922 0.0000 -10607.1947 1462.6079 0.0000 0.0000 1726.3991 -7394.7182 296.6076 -9121.1173 -7427.7619 300.8907 511.5813 544.9218 30002.7113 -126.2677 -64.1106
ENERGY: 1500000 5.6641 8.7735 12.0881 0.0000 -10719.7560 1488.9805 0.0000 0.0000 1745.9770 -7458.2729 299.9712 -9204.2499 -7429.6262 301.2255 360.5462 472.9760 29874.8805 -84.9565 -15.5181
TCL: Running FEP window   8: Lambda1 0.35   Lambda2 0.39999999999999997 [dLambda 0.04999999999999999]
TCL: Setting parameter firsttimestep to 0
TCL: Setting parameter alchLambda to 0.35
Info: NONBONDED TABLE R-SQUARED SPACING: 0.0625
Info: NONBONDED TABLE SIZE: 705 POINTS
TCL: Setting parameter alchLambda2 to 0.39999999999999997
Info: NONBONDED TABLE R-SQUARED SPACING: 0.0625
Info: NONBONDED TABLE SIZE: 705 POINTS
TCL: Running for 1500000 steps
ETITLE: TS BOND ANGLE DIHED IMPRP ELECT VDW BOUNDARY MISC KINETIC TOTAL TEMP POTENTIAL TOTALAVG TEMPAVG PRESSURE GPRESSURE VOLUME PRESSAVG GPRESSAVG
ENERGY: 0 5.6641 8.7735 12.0881 0.0000 -10719.7550 1488.6212 0.0000 0.0000 1745.1093 -7459.4988 299.8221 -9204.6082 -7459.4988 299.8221 386.9543 477.2653 29874.8805 386.9543 477.2653
ENERGY: 300000 2.4648 7.6849 13.9879 0.0000 -10542.6150 1371.8405 0.0000 0.0000 1774.5185 -7372.1185 304.8748 -9146.6370 -7426.5572 301.6299 -89.5435 -44.6041 29853.8799 -239.1624 -159.9713
ENERGY: 600000 3.3810 6.5630 9.3774 0.0000 -10634.5699 1451.9226 0.0000 0.0000 1795.7080 -7367.6179 308.5153 -9163.3259 -7437.1732 300.1890 48.1659 135.4036 30235.1402 -173.3704 -108.6892
ENERGY: 900000 2.2209 9.1959 10.1296 0.0000 -10510.9836 1335.2470 0.0000 0.0000 1756.6470 -7397.5431 301.8044 -9154.1901 -7426.9122 302.3637 -729.8838 -723.6348 30384.4877 -301.9519 -240.1208
ENERGY: 1200000 2.4363 7.3563 12.2176 0.0000 -10519.1062 1386.7348 0.0000 0.0000 1781.1217 -7329.2394 306.0093 -9110.3612 -7422.7239 302.1527 16.0842 33.8309 29743.4199 -190.5741 -132.1002
ENERGY: 1500000 5.0846 12.0208 10.1015 0.0000 -10676.5318 1463.5145 0.0000 0.0000 1777.4820 -7408.3284 305.3840 -9185.8104 -7423.3966 301.9948 277.7013 323.7836 29853.6136 -116.6088 -60.7650
TCL: Running FEP window   9: Lambda1 0.39999999999999997 Lambda2 0.44999999999999996 [dLambda 0.04999999999999999]
TCL: Setting parameter firsttimestep to 0
TCL: Setting parameter alchLambda to 0.39999999999999997
Info: NONBONDED TABLE R-SQUARED SPACING: 0.0625
Info: NONBONDED TABLE SIZE: 705 POINTS
TCL: Setting parameter alchLambda2 to 0.44999999999999996
Info: NONBONDED TABLE R-SQUARED SPACING: 0.0625
Info: NONBONDED TABLE SIZE: 705 POINTS
TCL: Running for 1500000 steps
ETITLE: TS BOND ANGLE DIHED IMPRP ELECT VDW BOUNDARY MISC KINETIC TOTAL TEMP POTENTIAL TOTALAVG TEMPAVG PRESSURE GPRESSURE VOLUME PRESSAVG GPRESSAVG
ENERGY: 0 5.0846 12.0208 10.1015 0.0000 -10676.5310 1463.0661 0.0000 0.0000 1776.6275 -7409.6305 305.2372 -9186.2580 -7409.6305 305.2372 247.4251 326.1327 29853.6136 247.4251 326.1327
ENERGY: 300000 1.2243 9.8154 10.9527 0.0000 -10639.5961 1427.4321 0.0000 0.0000 1742.1391 -7448.0325 299.3118 -9190.1716 -7454.0202 298.4542 12.1204 76.5697 29864.1588 348.3907 404.0048
ENERGY: 600000 3.6562 8.8778 9.0531 0.0000 -10635.2503 1421.4160 0.0000 0.0000 1793.5967 -7398.6504 308.1526 -9192.2472 -7452.9038 299.5717 -202.5116 -132.7460 30405.6922 86.4621 145.2459
ENERGY: 900000 6.1587 9.2044 8.7607 0.0000 -10629.3294 1389.3180 0.0000 0.0000 1721.6550 -7494.2327 295.7925 -9215.8877 -7448.8830 300.6598 -212.8613 -231.9977 29555.2341 15.0492 58.6455
ENERGY: 1200000 2.0651 11.1416 9.8778 0.0000 -10893.1020 1600.8378 0.0000 0.0000 1738.3724 -7530.8073 298.6647 -9269.1797 -7449.5197 301.4289 1249.9887 1250.9632 29780.4662 60.4543 102.3364
ENERGY: 1500000 3.1977 9.6988 9.2044 0.0000 -10378.2916 1318.2939 0.0000 0.0000 1700.0862 -7337.8106 292.0868 -9037.8968 -7446.2287 300.3914 -432.6391 -448.1140 30458.5151 33.9914 72.2654
TCL: Running FEP window  10: Lambda1 0.44999999999999996 Lambda2 0.49999999999999994 [dLambda 0.04999999999999999]
TCL: Setting parameter firsttimestep to 0
TCL: Setting parameter alchLambda to 0.44999999999999996
Info: NONBONDED TABLE R-SQUARED SPACING: 0.0625
Info: NONBONDED TABLE SIZE: 705 POINTS
TCL: Setting parameter alchLambda2 to 0.49999999999999994
Info: NONBONDED TABLE R-SQUARED SPACING: 0.0625
Info: NONBONDED TABLE SIZE: 705 POINTS
TCL: Running for 1500000 steps
ETITLE: TS BOND ANGLE DIHED IMPRP ELECT VDW BOUNDARY MISC KINETIC TOTAL TEMP POTENTIAL TOTALAVG TEMPAVG PRESSURE GPRESSURE VOLUME PRESSAVG GPRESSAVG
ENERGY: 0 3.1977 9.6988 9.2044 0.0000 -10378.2929 1319.1404 0.0000 0.0000 1699.2437 -7337.8078 291.9421 -9037.0515 -7337.8078 291.9421 -508.3809 -435.5417 30458.5151 -508.3809 -435.5417
ENERGY: 300000 4.6548 9.7984 11.9221 0.0000 -10601.1387 1430.0982 0.0000 0.0000 1746.1474 -7398.5179 300.0005 -9144.6653 -7388.1489 301.3335 273.0136 342.3848 29837.3890 58.1742 126.7863
ENERGY: 600000 3.9548 9.0147 12.1906 0.0000 -10493.7614 1359.7230 0.0000 0.0000 1759.2944 -7349.5840 302.2592 -9108.8784 -7410.7591 299.8466 -511.0854 -475.1238 30625.2028 -93.3845 -36.8782
ENERGY: 900000 3.0091 8.9892 10.2196 0.0000 -10639.0591 1449.5510 0.0000 0.0000 1696.0904 -7471.1998 291.4003 -9167.2902 -7417.4118 299.1406 297.8427 327.8506 30033.4900 17.4905 71.9265
ENERGY: 1200000 1.9079 7.0659 10.5246 0.0000 -10525.6455 1362.9553 0.0000 0.0000 1775.0211 -7368.1708 304.9612 -9143.1918 -7415.8786 300.3513 -286.6228 -236.8737 30179.1251 92.6228 137.8226
ENERGY: 1500000 4.0254 12.8742 9.5952 0.0000 -10718.7210 1482.7729 0.0000 0.0000 1826.7600 -7382.6933 313.8503 -9209.4533 -7406.0361 301.7324 586.0312 585.3816 29964.3083 115.8319 162.7087
TCL: Running FEP window  11: Lambda1 0.49999999999999994 Lambda2 0.5499999999999999 [dLambda 0.04999999999999999]
TCL: Setting parameter firsttimestep to 0
TCL: Setting parameter alchLambda to 0.49999999999999994
Info: NONBONDED TABLE R-SQUARED SPACING: 0.0625
Info: NONBONDED TABLE SIZE: 705 POINTS
TCL: Setting parameter alchLambda2 to 0.5499999999999999
Info: NONBONDED TABLE R-SQUARED SPACING: 0.0625
Info: NONBONDED TABLE SIZE: 705 POINTS
TCL: Running for 1500000 steps
ETITLE: TS BOND ANGLE DIHED IMPRP ELECT VDW BOUNDARY MISC KINETIC TOTAL TEMP POTENTIAL TOTALAVG TEMPAVG PRESSURE GPRESSURE VOLUME PRESSAVG GPRESSAVG
ENERGY: 0 4.0254 12.8742 9.5952 0.0000 -10718.7205 1482.3652 0.0000 0.0000 1825.9045 -7383.9560 313.7033 -9209.8605 -7383.9560 313.7033 513.5921 593.8489 29964.3083 513.5921 593.8489
ENERGY: 300000 3.1032 9.4403 11.1235 0.0000 -10588.6511 1353.9541 0.0000 0.0000 1705.7927 -7505.2374 293.0672 -9211.0300 -7464.6952 300.2514 -774.7121 -746.3167 30192.6068 153.1722 207.0105
ENERGY: 600000 2.4247 8.0710 10.9944 0.0000 -10722.2053 1467.0947 0.0000 0.0000 1776.8211 -7456.7994 305.2704 -9233.6205 -7433.9813 302.9382 157.3182 240.9593 30192.2730 39.7564 103.1234
ENERGY: 900000 3.6283 6.9722 8.6922 0.0000 -10449.5986 1333.4429 0.0000 0.0000 1716.1932 -7380.6698 294.8541 -9096.8630 -7438.0905 299.6315 -658.0319 -614.9913 30598.8218 -148.1829 -86.5836
ENERGY: 1200000 3.3406 13.1005 10.9640 0.0000 -10590.1915 1367.4908 0.0000 0.0000 1801.4583 -7393.8372 309.5033 -9195.2955 -7436.7323 299.9690 -330.5869 -297.9914 29861.9523 -213.6799 -148.5559
ENERGY: 1500000 2.9770 9.1598 10.8185 0.0000 -10635.9485 1425.3017 0.0000 0.0000 1715.0349 -7472.6566 294.6551 -9187.6915 -7440.4846 298.6937 -27.1836 20.0089 30004.9317 -166.5250 -101.3383
TCL: Running FEP window  12: Lambda1 0.5499999999999999 Lambda2 0.6    [dLambda 0.050000000000000044]
TCL: Setting parameter firsttimestep to 0
TCL: Setting parameter alchLambda to 0.5499999999999999
Info: NONBONDED TABLE R-SQUARED SPACING: 0.0625
Info: NONBONDED TABLE SIZE: 705 POINTS
TCL: Setting parameter alchLambda2 to 0.6
Info: NONBONDED TABLE R-SQUARED SPACING: 0.0625
Info: NONBONDED TABLE SIZE: 705 POINTS
TCL: Running for 1500000 steps
ETITLE: TS BOND ANGLE DIHED IMPRP ELECT VDW BOUNDARY MISC KINETIC TOTAL TEMP POTENTIAL TOTALAVG TEMPAVG PRESSURE GPRESSURE VOLUME PRESSAVG GPRESSAVG
ENERGY: 0 2.9770 9.1598 10.8185 0.0000 -10635.5848 1425.6183 0.0000 0.0000 1714.1907 -7472.8206 294.5101 -9187.0113 -7472.8206 294.5101 -55.2689 32.1028 30004.9317 -55.2689 32.1028
ENERGY: 300000 2.9863 11.7714 9.2383 0.0000 -10544.2581 1418.1857 0.0000 0.0000 1748.9061 -7353.1703 300.4744 -9102.0765 -7434.8487 299.3814 231.8995 262.0863 30110.2359 -138.9526 -84.4492
ENERGY: 600000 4.5307 6.7577 10.5920 0.0000 -10673.2129 1435.0997 0.0000 0.0000 1724.7346 -7491.4983 296.3216 -9216.2329 -7466.1115 297.4595 50.1224 187.1132 29804.0522 -84.7970 -14.1297
ENERGY: 900000 2.3238 10.7893 9.2467 0.0000 -10710.7450 1391.6523 0.0000 0.0000 1787.9963 -7508.7367 307.1904 -9296.7329 -7449.7782 300.8290 -639.2522 -599.2271 30074.3786 -269.8038 -200.3505
ENERGY: 1200000 3.2496 8.4775 12.7060 0.0000 -10704.1757 1464.6030 0.0000 0.0000 1808.3419 -7406.7977 310.6859 -9215.1396 -7450.9244 301.2293 412.1538 419.2662 30138.7859 -90.0044 -37.8450
ENERGY: 1500000 3.7736 7.9349 8.7742 0.0000 -10634.2309 1417.6899 0.0000 0.0000 1765.0023 -7431.0559 303.2399 -9196.0583 -7437.7658 300.8943 -49.3149 -29.3550 29863.9054 -92.1108 -41.6503
TCL: Running FEP window  13: Lambda1 0.6    Lambda2 0.65   [dLambda 0.050000000000000044]
TCL: Setting parameter firsttimestep to 0
TCL: Setting parameter alchLambda to 0.6
Info: NONBONDED TABLE R-SQUARED SPACING: 0.0625
Info: NONBONDED TABLE SIZE: 705 POINTS
TCL: Setting parameter alchLambda2 to 0.65
Info: NONBONDED TABLE R-SQUARED SPACING: 0.0625
Info: NONBONDED TABLE SIZE: 705 POINTS
TCL: Running for 1500000 steps
ETITLE: TS BOND ANGLE DIHED IMPRP ELECT VDW BOUNDARY MISC KINETIC TOTAL TEMP POTENTIAL TOTALAVG TEMPAVG PRESSURE GPRESSURE VOLUME PRESSAVG GPRESSAVG
ENERGY: 0 3.7736 7.9349 8.7742 0.0000 -10634.5907 1417.3755 0.0000 0.0000 1764.1086 -7432.6240 303.0863 -9196.7325 -7432.6240 303.0863 -106.6577 -21.4333 29863.9054 -106.6577 -21.4333
ENERGY: 300000 1.8246 7.3439 10.2119 0.0000 -10550.6558 1326.8224 0.0000 0.0000 1705.0737 -7499.3792 292.9437 -9204.4529 -7424.8876 300.3537 -710.9049 -711.9058 30020.2842 152.3945 224.3430
ENERGY: 600000 2.7220 11.6349 10.8982 0.0000 -10699.9523 1486.7467 0.0000 0.0000 1733.3882 -7454.5623 297.8083 -9187.9505 -7441.4518 298.1190 466.1323 555.8662 30028.6235 50.3529 119.5407
ENERGY: 900000 2.7222 10.7109 8.9102 0.0000 -10577.4279 1393.8939 0.0000 0.0000 1721.3845 -7439.8062 295.7460 -9161.1907 -7438.7261 299.0634 -369.5213 -234.9818 30346.4226 117.5212 188.1052
ENERGY: 1200000 2.9911 11.1873 13.1297 0.0000 -10507.7970 1260.4402 0.0000 0.0000 1753.4012 -7466.6476 301.2467 -9220.0487 -7434.4533 299.4193 -1408.5691 -1354.6299 29971.2929 -69.7633 -3.0035
ENERGY: 1500000 5.3787 9.9383 8.6784 0.0000 -10719.5076 1458.7354 0.0000 0.0000 1750.5811 -7486.1956 300.7622 -9236.7768 -7446.5696 299.5195 480.2313 553.4662 29722.8599 -57.5393 4.4947
TCL: Running FEP window  14: Lambda1 0.65   Lambda2 0.7000000000000001 [dLambda 0.050000000000000044]
TCL: Setting parameter firsttimestep to 0
TCL: Setting parameter alchLambda to 0.65
Info: NONBONDED TABLE R-SQUARED SPACING: 0.0625
Info: NONBONDED TABLE SIZE: 705 POINTS
TCL: Setting parameter alchLambda2 to 0.7000000000000001
Info: NONBONDED TABLE R-SQUARED SPACING: 0.0625
Info: NONBONDED TABLE SIZE: 705 POINTS
TCL: Running for 1500000 steps
ETITLE: TS BOND ANGLE DIHED IMPRP ELECT VDW BOUNDARY MISC KINETIC TOTAL TEMP POTENTIAL TOTALAVG TEMPAVG PRESSURE GPRESSURE VOLUME PRESSAVG GPRESSAVG
ENERGY: 0 5.3787 9.9383 8.6784 0.0000 -10720.4953 1459.2237 0.0000 0.0000 1749.6914 -7487.5846 300.6094 -9237.2761 -7487.5846 300.6094 474.3060 566.8460 29722.8599 474.3060 566.8460
ENERGY: 300000 1.5949 10.7773 8.9266 0.0000 -10596.6606 1412.5068 0.0000 0.0000 1744.4079 -7418.4471 299.7016 -9162.8550 -7452.9147 299.3792 -303.0920 -237.8402 30794.7266 -197.0406 -111.3400
ENERGY: 600000 2.5897 5.4021 9.6950 0.0000 -10668.9238 1465.0003 0.0000 0.0000 1789.8507 -7396.3859 307.5090 -9186.2366 -7452.1291 299.6916 385.4155 383.7967 30249.9124 -37.7053 37.4117
ENERGY: 900000 4.0632 11.2520 13.0709 0.0000 -10736.6471 1455.8295 0.0000 0.0000 1634.9136 -7617.5180 280.8897 -9252.4315 -7465.5808 297.9521 124.8318 107.4062 29932.4498 73.9063 142.0071
ENERGY: 1200000 7.0526 5.8964 10.7048 0.0000 -10805.6613 1540.8323 0.0000 0.0000 1734.9867 -7506.1885 298.0830 -9241.1752 -7458.5730 298.2348 1174.4140 1228.0460 29465.6846 76.3973 144.1197
ENERGY: 1500000 4.0512 3.6793 13.7326 0.0000 -10728.3913 1416.8979 0.0000 0.0000 1722.8690 -7567.1612 296.0011 -9290.0302 -7456.3733 298.0095 -114.9279 -76.5185 29732.4316 77.0497 138.1267
TCL: Running FEP window  15: Lambda1 0.7000000000000001 Lambda2 0.7500000000000001 [dLambda 0.050000000000000044]
TCL: Setting parameter firsttimestep to 0
TCL: Setting parameter alchLambda to 0.7000000000000001
Info: NONBONDED TABLE R-SQUARED SPACING: 0.0625
Info: NONBONDED TABLE SIZE: 705 POINTS
TCL: Setting parameter alchLambda2 to 0.7500000000000001
Info: NONBONDED TABLE R-SQUARED SPACING: 0.0625
Info: NONBONDED TABLE SIZE: 705 POINTS
TCL: Running for 1500000 steps
ETITLE: TS BOND ANGLE DIHED IMPRP ELECT VDW BOUNDARY MISC KINETIC TOTAL TEMP POTENTIAL TOTALAVG TEMPAVG PRESSURE GPRESSURE VOLUME PRESSAVG GPRESSAVG
ENERGY: 0 4.0512 3.6793 13.7326 0.0000 -10729.0422 1418.0328 0.0000 0.0000 1721.9931 -7567.5531 295.8506 -9289.5462 -7567.5531 295.8506 -134.6224 -51.5362 29732.4316 -134.6224 -51.5362
ENERGY: 300000 3.0565 12.0197 10.1401 0.0000 -10700.8012 1485.4187 0.0000 0.0000 1776.2827 -7413.8834 305.1779 -9190.1661 -7438.0843 302.2086 566.9067 652.0731 29770.5284 332.6002 406.0319
ENERGY: 600000 1.7450 10.0805 9.9227 0.0000 -10558.7393 1336.4905 0.0000 0.0000 1701.4422 -7499.0583 292.3198 -9200.5006 -7440.8640 301.1834 -674.6952 -638.2711 30034.9378 103.8939 161.1367
ENERGY: 900000 5.1496 12.8977 10.2676 0.0000 -10636.7051 1465.8359 0.0000 0.0000 1740.9547 -7401.5997 299.1083 -9142.5544 -7441.6136 300.1476 421.1085 566.6186 30064.6085 142.2409 210.6879
ENERGY: 1200000 2.1092 5.7629 10.0039 0.0000 -10627.6417 1409.1770 0.0000 0.0000 1787.3052 -7413.2837 307.0717 -9200.5888 -7449.7722 298.9478 -159.3002 -75.5859 30132.1664 85.6349 159.2418
ENERGY: 1500000 2.3391 5.4910 12.2272 0.0000 -10575.3017 1373.4105 0.0000 0.0000 1763.5467 -7418.2871 302.9898 -9181.8338 -7448.9789 299.4510 -578.2061 -492.5111 30297.6267 -8.8896 60.3484
TCL: Running FEP window  16: Lambda1 0.7500000000000001 Lambda2 0.8000000000000002 [dLambda 0.050000000000000044]
TCL: Setting parameter firsttimestep to 0
TCL: Setting parameter alchLambda to 0.7500000000000001
Info: NONBONDED TABLE R-SQUARED SPACING: 0.0625
Info: NONBONDED TABLE SIZE: 705 POINTS
TCL: Setting parameter alchLambda2 to 0.8000000000000002
Info: NONBONDED TABLE R-SQUARED SPACING: 0.0625
Info: NONBONDED TABLE SIZE: 705 POINTS
TCL: Running for 1500000 steps
ETITLE: TS BOND ANGLE DIHED IMPRP ELECT VDW BOUNDARY MISC KINETIC TOTAL TEMP POTENTIAL TOTALAVG TEMPAVG PRESSURE GPRESSURE VOLUME PRESSAVG GPRESSAVG
ENERGY: 0 2.3391 5.4910 12.2272 0.0000 -10575.9685 1373.7740 0.0000 0.0000 1762.6623 -7419.4748 302.8378 -9182.1372 -7419.4748 302.8378 -557.2296 -478.1977 30297.6267 -557.2296 -478.1977
ENERGY: 300000 2.6970 9.5942 8.9588 0.0000 -10555.8711 1331.9541 0.0000 0.0000 1753.5981 -7449.0688 301.2805 -9202.6669 -7433.5387 302.6385 -637.5678 -632.2338 30100.1763 -301.5197 -265.0216
ENERGY: 600000 1.6364 8.1761 8.8134 0.0000 -10562.9878 1350.5569 0.0000 0.0000 1792.4673 -7401.3377 307.9585 -9193.8050 -7438.6814 302.2044 -524.9857 -510.6556 30071.3689 -208.4266 -175.6330
ENERGY: 900000 3.7881 8.2706 11.4318 0.0000 -10658.6655 1396.6650 0.0000 0.0000 1728.7430 -7509.7670 297.0103 -9238.5100 -7446.9969 302.0780 -265.0384 -225.4323 30009.1929 -229.1638 -192.4337
ENERGY: 1200000 2.0081 6.1832 11.3799 0.0000 -10689.6896 1461.9935 0.0000 0.0000 1740.2284 -7467.8965 298.9835 -9208.1249 -7449.4690 301.2683 334.7193 433.9621 30024.0983 -225.7534 -183.9207
ENERGY: 1500000 4.6054 8.0624 10.5084 0.0000 -10685.9920 1430.0476 0.0000 0.0000 1719.0754 -7513.6927 295.3493 -9232.7681 -7434.3097 302.1703 -145.1545 -113.8014 30109.8868 -233.4239 -184.8508
TCL: Running FEP window  17: Lambda1 0.8000000000000002 Lambda2 0.8500000000000002 [dLambda 0.050000000000000044]
TCL: Setting parameter firsttimestep to 0
TCL: Setting parameter alchLambda to 0.8000000000000002
Info: NONBONDED TABLE R-SQUARED SPACING: 0.0625
Info: NONBONDED TABLE SIZE: 705 POINTS
TCL: Setting parameter alchLambda2 to 0.8500000000000002
Info: NONBONDED TABLE R-SQUARED SPACING: 0.0625
Info: NONBONDED TABLE SIZE: 705 POINTS
TCL: Running for 1500000 steps
ETITLE: TS BOND ANGLE DIHED IMPRP ELECT VDW BOUNDARY MISC KINETIC TOTAL TEMP POTENTIAL TOTALAVG TEMPAVG PRESSURE GPRESSURE VOLUME PRESSAVG GPRESSAVG
ENERGY: 0 4.6054 8.0624 10.5084 0.0000 -10687.7723 1431.1240 0.0000 0.0000 1718.1790 -7515.2930 295.1953 -9233.4721 -7515.2930 295.1953 -160.9798 -92.7707 30109.8868 -160.9798 -92.7707
ENERGY: 300000 2.8992 11.3496 13.7951 0.0000 -10638.0931 1417.8136 0.0000 0.0000 1723.5904 -7468.6453 296.1250 -9192.2356 -7471.0602 295.1342 -225.5717 -176.9617 30105.7377 -345.3723 -270.0639
ENERGY: 600000 1.1125 6.4765 9.2253 0.0000 -10566.2155 1379.9371 0.0000 0.0000 1782.8917 -7386.5723 306.3134 -9169.4640 -7466.4176 298.8235 -472.3761 -389.5955 30349.8740 -115.9404 -40.3308
ENERGY: 900000 5.4475 6.6352 11.8878 0.0000 -10711.1575 1438.4857 0.0000 0.0000 1750.0248 -7498.6767 300.6666 -9248.7014 -7465.9713 299.0037 -172.6741 -170.4189 30367.3725 -81.6208 -28.9208
ENERGY: 1200000 2.1796 11.0244 9.8705 0.0000 -10655.4382 1392.8025 0.0000 0.0000 1773.8990 -7465.6622 304.7684 -9239.5612 -7458.3025 299.9958 -331.3701 -217.8252 29971.0689 -110.9170 -49.0592
ENERGY: 1500000 3.4571 14.8974 10.0125 0.0000 -10648.6937 1424.1906 0.0000 0.0000 1740.7668 -7455.3693 299.0760 -9196.1361 -7454.1122 300.8026 -4.8957 111.5220 29837.2055 -76.1132 -9.5054
TCL: Running FEP window  18: Lambda1 0.8500000000000002 Lambda2 0.9000000000000002 [dLambda 0.050000000000000044]
TCL: Setting parameter firsttimestep to 0
TCL: Setting parameter alchLambda to 0.8500000000000002
Info: NONBONDED TABLE R-SQUARED SPACING: 0.0625
Info: NONBONDED TABLE SIZE: 705 POINTS
TCL: Setting parameter alchLambda2 to 0.9000000000000002
Info: NONBONDED TABLE R-SQUARED SPACING: 0.0625
Info: NONBONDED TABLE SIZE: 705 POINTS
TCL: Running for 1500000 steps
ETITLE: TS BOND ANGLE DIHED IMPRP ELECT VDW BOUNDARY MISC KINETIC TOTAL TEMP POTENTIAL TOTALAVG TEMPAVG PRESSURE GPRESSURE VOLUME PRESSAVG GPRESSAVG
ENERGY: 0 3.4571 14.8974 10.0125 0.0000 -10650.4486 1424.4404 0.0000 0.0000 1739.8376 -7457.8036 298.9164 -9197.6412 -7457.8036 298.9164 30.1194 125.6807 29837.2055 30.1194 125.6807
ENERGY: 300000 1.9611 4.0839 14.3785 0.0000 -10596.8446 1440.8132 0.0000 0.0000 1808.3211 -7327.2868 310.6823 -9135.6079 -7434.6731 301.7498 302.3500 398.2698 30323.5659 -60.1604 28.5058
ENERGY: 600000 3.1208 11.7308 10.6328 0.0000 -10515.4746 1358.7215 0.0000 0.0000 1787.6793 -7343.5893 307.1359 -9131.2686 -7428.3837 299.2888 -504.1834 -452.4373 30506.0750 -70.9157 8.1888
ENERGY: 900000 3.5831 11.8870 12.8962 0.0000 -10797.2840 1525.7208 0.0000 0.0000 1710.6110 -7532.5859 293.8951 -9243.1969 -7450.7008 297.9182 616.3060 699.1008 29752.6128 -6.7607 69.1545
ENERGY: 1200000 1.9500 8.9739 9.2347 0.0000 -10587.2156 1426.1241 0.0000 0.0000 1712.2409 -7428.6920 294.1751 -9140.9328 -7439.7600 298.2204 379.5269 361.0369 30114.2760 5.3541 65.0581
ENERGY: 1500000 6.1404 7.5649 9.6880 0.0000 -10671.0992 1467.2436 0.0000 0.0000 1691.4049 -7489.0574 290.5953 -9180.4622 -7439.2361 298.1499 615.0842 594.2899 29586.0413 -24.6042 27.4654
TCL: Running FEP window  19: Lambda1 0.9000000000000002 Lambda2 0.9500000000000003 [dLambda 0.050000000000000044]
TCL: Setting parameter firsttimestep to 0
TCL: Setting parameter alchLambda to 0.9000000000000002
Info: NONBONDED TABLE R-SQUARED SPACING: 0.0625
Info: NONBONDED TABLE SIZE: 705 POINTS
TCL: Setting parameter alchLambda2 to 0.9500000000000003
Info: NONBONDED TABLE R-SQUARED SPACING: 0.0625
Info: NONBONDED TABLE SIZE: 705 POINTS
TCL: Running for 1500000 steps
ETITLE: TS BOND ANGLE DIHED IMPRP ELECT VDW BOUNDARY MISC KINETIC TOTAL TEMP POTENTIAL TOTALAVG TEMPAVG PRESSURE GPRESSURE VOLUME PRESSAVG GPRESSAVG
ENERGY: 0 6.1404 7.5649 9.6880 0.0000 -10674.7243 1469.9621 0.0000 0.0000 1690.5430 -7490.8258 290.4472 -9181.3688 -7490.8258 290.4472 556.7288 635.4330 29586.0413 556.7288 635.4330
ENERGY: 300000 3.4197 8.8952 12.6383 0.0000 -10663.8135 1450.0739 0.0000 0.0000 1739.7494 -7449.0370 298.9012 -9188.7864 -7469.0892 295.6328 137.4004 159.9740 30357.2821 -31.9168 37.5794
ENERGY: 600000 2.5806 5.1443 11.4796 0.0000 -10686.3650 1459.7330 0.0000 0.0000 1706.1163 -7501.3113 293.1228 -9207.4276 -7468.5243 295.7765 259.0739 291.1344 30279.3944 -8.2152 44.9680
ENERGY: 900000 2.9989 8.2852 9.8157 0.0000 -10539.7447 1339.4141 0.0000 0.0000 1741.8424 -7437.3884 299.2608 -9179.2308 -7448.7597 297.8795 -452.3337 -489.2623 30003.6420 -29.5847 18.4980
ENERGY: 1200000 1.9253 6.7679 11.0523 0.0000 -10694.5752 1440.0321 0.0000 0.0000 1779.7965 -7455.0012 305.7816 -9234.7977 -7442.4152 298.8856 144.5144 180.8837 29961.2928 -91.8898 -45.2369
ENERGY: 1500000 4.4604 7.0563 10.9218 0.0000 -10625.5013 1384.6010 0.0000 0.0000 1806.6708 -7411.7910 310.3988 -9218.4618 -7435.9819 299.4829 -302.7625 -241.6951 30054.5433 -167.8720 -118.4270
TCL: Running FEP window  20: Lambda1 0.9500000000000003 Lambda2 1.0    [dLambda 0.04999999999999971]
TCL: Setting parameter firsttimestep to 0
TCL: Setting parameter alchLambda to 0.9500000000000003
Info: NONBONDED TABLE R-SQUARED SPACING: 0.0625
Info: NONBONDED TABLE SIZE: 705 POINTS
TCL: Setting parameter alchLambda2 to 1.0
Info: NONBONDED TABLE R-SQUARED SPACING: 0.0625
Info: NONBONDED TABLE SIZE: 705 POINTS
TCL: Running for 1500000 steps
ETITLE: TS BOND ANGLE DIHED IMPRP ELECT VDW BOUNDARY MISC KINETIC TOTAL TEMP POTENTIAL TOTALAVG TEMPAVG PRESSURE GPRESSURE VOLUME PRESSAVG GPRESSAVG
ENERGY: 0 4.4604 7.0563 10.9218 0.0000 -10627.3794 1385.1399 0.0000 0.0000 1805.8012 -7413.9998 310.2494 -9219.8010 -7413.9998 310.2494 -309.0606 -224.9799 30054.5433 -309.0606 -224.9799
ENERGY: 300000 2.4951 9.9760 10.9605 0.0000 -10456.6717 1257.4449 0.0000 0.0000 1717.5025 -7458.2927 295.0791 -9175.7952 -7431.3065 301.4964 -1008.9077 -960.0146 29589.3406 -623.5371 -554.9511
ENERGY: 600000 1.3805 7.6863 9.2047 0.0000 -10673.4562 1382.3591 0.0000 0.0000 1770.4187 -7502.4069 304.1704 -9272.8256 -7456.9272 301.2885 -278.3639 -232.3013 29760.5371 -355.0791 -296.2180
ENERGY: 900000 2.5618 9.6974 10.2728 0.0000 -10630.6171 1453.2137 0.0000 0.0000 1763.7795 -7391.0919 303.0298 -9154.8714 -7449.8899 300.4548 716.8090 759.4023 29850.0843 -312.6800 -253.7265
ENERGY: 1200000 1.8020 7.9366 10.6050 0.0000 -10549.7975 1293.0057 0.0000 0.0000 1755.2012 -7481.2470 301.5560 -9236.4482 -7453.2601 299.7266 -1136.5678 -1104.7608 30289.5460 -278.1003 -228.2236
ENERGY: 1500000 2.1210 9.1730 12.3980 0.0000 -10638.7286 1435.3644 0.0000 0.0000 1733.6689 -7446.0033 297.8566 -9179.6722 -7446.5842 299.8923 59.6394 113.6121 30201.6052 -278.0426 -225.4956
TCL: Exiting due to exit command.
