Info: SIMULATION PARAMETERS:
Info: TIMESTEP               2
Info: NUMBER OF STEPS        0
Info: STEPS PER CYCLE        10
Info: PERIODIC CELL BASIS 1  32.2266 0 0
Info: PERIODIC CELL BASIS 2  0 31.0596 0
Info: PERIODIC CELL BASIS 3  0 0 30.5427
Info: PERIODIC CELL CENTER   0 0 0
Info: WRAPPING WATERS AROUND PERIODIC BOUNDARIES ON OUTPUT.
Info: WRAPPING ALL CLUSTERS AROUND PERIODIC BOUNDARIES ON OUTPUT.
Info: FIRST LDB TIMESTEP     50
Info: LAST LDB TIMESTEP     -1
Info: HOM BACKGROUND SCALING 1
Info: PME BACKGROUND SCALING 1
Info: MIN ATOMS PER PATCH    40
Info: EMPTY PATCH LOAD       40 ATOMS
Info: VELOCITY FILE          mobley_8320545_equil.vel
Info: CENTER OF MASS MOVING INITIALLY? NO
Info: DIELECTRIC             1
Info: EXCLUDE                SCALED ONE-FOUR
Info: 1-4 ELECTROSTATICS SCALED BY 0.833333
Info: MODIFIED 1-4 VDW PARAMETERS WILL BE USED
Info: DCD FILENAME           mobley_8320545_prod.dcd
Info: DCD FREQUENCY          100000
Info: DCD FIRST STEP         100000
Info: DCD FILE WILL CONTAIN UNIT CELL DATA
Info: XST FILENAME           mobley_8320545_prod.xst
Info: XST FREQUENCY          100000
Info: NO VELOCITY DCD OUTPUT
Info: NO FORCE DCD OUTPUT
Info: OUTPUT FILENAME        mobley_8320545_prod
Info: BINARY OUTPUT FILES WILL BE USED
Info: RESTART FILENAME       mobley_8320545_prod.restart
Info: RESTART FREQUENCY      100000
Info: BINARY RESTART FILES WILL BE USED
Info: CUTOFF                 9
Info: PAIRLIST DISTANCE      11
Info: PAIRLIST SHRINK RATE   0.01
Info: PAIRLIST GROW RATE     0.01
Info: PAIRLIST TRIGGER       0.3
Info: PAIRLISTS PER CYCLE    2
Info: PAIRLISTS ENABLED
Info: MARGIN                 2
Info: HYDROGEN GROUP CUTOFF  2.5
Info: PATCH DIMENSION        15.5
Info: ENERGY OUTPUT STEPS    100000
Info: ENERGY EVALUATION STEPS    100000
Info: OUTPUT ENERGY PRECISION 4
Info: CROSSTERM ENERGY INCLUDED IN DIHEDRAL
Info: TIMING OUTPUT STEPS    1000000
Info: PRESSURE OUTPUT STEPS  100000
Info: ALCHEMICAL FEP ON
Info: FEP CURRENT LAMBDA VALUE     1
Info: FEP COMPARISON LAMBDA VALUE  0.95
Info: FEP INTRA-ALCHEMICAL NON-BONDED INTERACTIONS WILL BE RETAINED
Info: FEP INTRA-ALCHEMICAL BONDED INTERACTIONS WILL BE RETAINED
Info: FEP VDW SHIFTING COEFFICIENT 5
Info: FEP ELEC. ACTIVE FOR ANNIHILATED PARTICLES BETWEEN LAMBDA = 0 AND LAMBDA = 0.5
Info: FEP ELEC. ACTIVE FOR EXNIHILATED PARTICLES BETWEEN LAMBDA = 0.5 AND LAMBDA = 1
Info: FEP VDW ACTIVE FOR ANNIHILATED PARTICLES BETWEEN LAMBDA = 0 AND LAMBDA = 1
Info: FEP VDW ACTIVE FOR EXNIHILATED PARTICLES BETWEEN LAMBDA = 0 AND LAMBDA = 1
Info: FEP BOND ACTIVE FOR ANNIHILATED PARTICLES BETWEEN LAMBDA = 1 AND LAMBDA = 1
Info: FEP BOND ACTIVE FOR EXNIHILATED PARTICLES BETWEEN LAMBDA = 0 AND LAMBDA = 0
Info: LANGEVIN DYNAMICS ACTIVE
Info: LANGEVIN TEMPERATURE   300
Info: LANGEVIN USING BBK INTEGRATOR
Info: LANGEVIN DAMPING COEFFICIENT IS 1 INVERSE PS
Info: LANGEVIN DYNAMICS APPLIED TO HYDROGENS
Info: LANGEVIN PISTON PRESSURE CONTROL ACTIVE
Info:        TARGET PRESSURE IS 1.01325 BAR
Info:     OSCILLATION PERIOD IS 50 FS
Info:             DECAY TIME IS 25 FS
Info:     PISTON TEMPERATURE IS 300 K
Info:       PRESSURE CONTROL IS GROUP-BASED
Info:    INITIAL STRAIN RATE IS 0.000182891 0.000182891 0.000182891
Info:       CELL FLUCTUATION IS ISOTROPIC
Info: PARTICLE MESH EWALD (PME) ACTIVE
Info: PME TOLERANCE               1e-06
Info: PME EWALD COEFFICIENT       0.348832
Info: PME INTERPOLATION ORDER     4
Info: PME GRID DIMENSIONS         36 32 32
Info: PME MAXIMUM GRID SPACING    1
Info: PME CALCULATION WILL BE PERFORMED ON GPU
Info: FULL ELECTROSTATIC EVALUATION FREQUENCY      2
Info: USING VERLET I (r-RESPA) MTS SCHEME.
Info: C1 SPLITTING OF LONG RANGE ELECTROSTATICS
Info: PLACING ATOMS IN PATCHES BY HYDROGEN GROUPS
Info: RIGID BONDS TO HYDROGEN : ALL
Info:         ERROR TOLERANCE : 1e-08
Info:          MAX ITERATIONS : 100
Info: RIGID WATER USING SETTLE ALGORITHM
Info: RANDOM NUMBER SEED     1743680473
Info: USE HYDROGEN BONDS?    NO
Info: Using AMBER format force field!
Info: AMBER PARM FILE        mobley_8320545.prmtop
Info: COORDINATE PDB         mobley_8320545.pdb
Info: Exclusions will be read from PARM file!
Info: SCNB (VDW SCALING)     2
Info: USING ARITHMETIC MEAN TO COMBINE L-J SIGMA PARAMETERS
Info: BINARY COORDINATES     mobley_8320545_equil.coor
Info: SUMMARY OF PARAMETERS:
Info: 7 BONDS
Info: 8 ANGLES
Info:   8 HARMONIC
Info:   0 COSINE-BASED
Info: 2 DIHEDRAL
Info: 0 IMPROPER
Info: 0 CROSSTERM
Info: 0 VDW
Info: 28 VDW_PAIRS
Info: 0 NBTHOLE_PAIRS
Info: To read alchdata from file: mobley_8320545.pdb
Info: To read alchflag data from column: 5
Info: STRUCTURE SUMMARY:
Info: 2965 ATOMS
Info: 2964 BONDS
Info: 15 ANGLES
Info: 15 DIHEDRALS
Info: 0 IMPROPERS
Info: 0 CROSSTERMS
Info: 2994 EXCLUSIONS
Info: 2960 RIGID BONDS
Info: ALCH: 0 ATOMS TO DISAPPEAR IN FINAL STATE
Info: ALCH: 10 ATOMS TO APPEAR IN FINAL STATE
Info: 5935 DEGREES OF FREEDOM
Info: 990 HYDROGEN GROUPS
Info: 4 ATOMS IN LARGEST HYDROGEN GROUP
Info: 990 MIGRATION GROUPS
Info: 4 ATOMS IN LARGEST MIGRATION GROUP
Info: TOTAL MASS = 17820.8 amu
Info: TOTAL CHARGE = 7.45058e-09 e
Info: MASS DENSITY = 0.967988 g/cm^3
Info: ATOM DENSITY = 0.0969857 atoms/A^3
Info: ADDED 0 IMPLICIT EXCLUSIONS
Info: NONBONDED TABLE R-SQUARED SPACING: 0.0625
Info: NONBONDED TABLE SIZE: 705 POINTS
Info: REDUCING NUMBER OF PATCHES TO IMPROVE LOAD BALANCE
Info: REMOVING COM VELOCITY 0.0665221 0.00040307 -0.0229535
Info: Use 3D box decompostion in PME FFT.
Info: Updated CUDA force table with 4096 elements.
Info: Updated CUDA LJ table with 7 x 7 elements.
Info: Found 13 unique exclusion lists needing 20 bytes
TCL: Running for 1500000 steps
ETITLE: TS BOND ANGLE DIHED IMPRP ELECT VDW BOUNDARY MISC KINETIC TOTAL TEMP POTENTIAL TOTALAVG TEMPAVG PRESSURE GPRESSURE VOLUME PRESSAVG GPRESSAVG
ENERGY: 0 1.5716 4.1248 0.5846 0.0000 -10723.3361 1405.3514 0.0000 0.0000 1812.5563 -7499.1474 307.3698 -9311.7037 -7499.1474 307.3698 -104.0342 -27.2752 30571.5319 -104.0342 -27.2752
ENERGY: 300000 1.2754 4.9067 0.1349 0.0000 -10659.4581 1367.5036 0.0000 0.0000 1777.1281 -7508.5095 301.3619 -9285.6376 -7512.0616 300.0665 -516.1988 -460.7974 30792.3563 -268.1683 -209.8329
ENERGY: 600000 0.9607 3.4654 0.0724 0.0000 -10850.4658 1504.5972 0.0000 0.0000 1754.2150 -7587.1550 297.4764 -9341.3701 -7541.3154 299.6717 608.3926 660.5127 30216.5447 19.5410 84.3589
ENERGY: 900000 0.5348 8.0848 0.2854 0.0000 -10864.7637 1525.2035 0.0000 0.0000 1835.3921 -7495.2631 311.2422 -9330.6551 -7540.3942 299.1137 631.4611 704.5854 30376.2299 -3.6346 55.1142
ENERGY: 1200000 1.6233 3.4797 0.1257 0.0000 -10628.5696 1335.0019 0.0000 0.0000 1764.2298 -7524.1091 299.1747 -9288.3389 -7538.6891 299.3550 -949.0045 -951.4142 31044.8458 -181.4714 -126.4614
ENERGY: 1500000 1.9963 5.4136 0.0812 0.0000 -10916.4745 1555.8746 0.0000 0.0000 1772.4704 -7580.6382 300.5721 -9353.1086 -7541.1806 299.2845 937.6917 1046.5441 30166.5581 -109.8404 -55.6817
TCL: Running FEP window   2: Lambda1 0.95   Lambda2 0.8999999999999999 [dLambda -0.050000000000000044]
TCL: Setting parameter firsttimestep to 0
TCL: Setting parameter alchLambda to 0.95
Info: NONBONDED TABLE R-SQUARED SPACING: 0.0625
Info: NONBONDED TABLE SIZE: 705 POINTS
TCL: Setting parameter alchLambda2 to 0.8999999999999999
Info: NONBONDED TABLE R-SQUARED SPACING: 0.0625
Info: NONBONDED TABLE SIZE: 705 POINTS
TCL: Running for 1500000 steps
ETITLE: TS BOND ANGLE DIHED IMPRP ELECT VDW BOUNDARY MISC KINETIC TOTAL TEMP POTENTIAL TOTALAVG TEMPAVG PRESSURE GPRESSURE VOLUME PRESSAVG GPRESSAVG
ENERGY: 0 1.9963 5.4136 0.0812 0.0000 -10915.9142 1555.9681 0.0000 0.0000 1771.6156 -7580.8393 300.4271 -9352.4549 -7580.8393 300.4271 954.2685 1039.4213 30166.5581 954.2685 1039.4213
ENERGY: 300000 0.3642 5.2064 0.7965 0.0000 -10935.5773 1501.3676 0.0000 0.0000 1788.8475 -7638.9951 303.3493 -9427.8426 -7583.1899 298.0192 462.8241 497.3034 29984.9927 89.0123 153.5452
ENERGY: 600000 0.8203 4.2015 0.0448 0.0000 -10609.6045 1428.5975 0.0000 0.0000 1774.8016 -7401.1389 300.9674 -9175.9405 -7556.1253 298.4529 100.4735 161.3291 31000.0505 -0.6051 67.0735
ENERGY: 900000 0.4131 4.7380 0.0939 0.0000 -10770.5352 1473.6956 0.0000 0.0000 1741.8795 -7549.7152 295.3845 -9291.5947 -7557.1499 298.1436 541.3458 593.8790 30092.9488 18.5255 80.4506
ENERGY: 1200000 1.7473 1.6207 0.4641 0.0000 -10725.0180 1382.2091 0.0000 0.0000 1804.4033 -7534.5734 305.9872 -9338.9767 -7553.9997 299.1618 -651.2092 -576.2565 30736.3502 -140.7984 -73.5365
ENERGY: 1500000 0.1932 2.7995 0.2856 0.0000 -10666.1987 1317.7548 0.0000 0.0000 1718.8360 -7626.3296 291.4769 -9345.1656 -7563.6041 298.3225 -1192.1893 -1108.1387 30595.4049 -243.9681 -174.4344
TCL: Running FEP window   3: Lambda1 0.8999999999999999 Lambda2 0.8499999999999999 [dLambda -0.050000000000000044]
TCL: Setting parameter firsttimestep to 0
TCL: Setting parameter alchLambda to 0.8999999999999999
Info: NONBONDED TABLE R-SQUARED SPACING: 0.0625
Info: NONBONDED TABLE SIZE: 705 POINTS
TCL: Setting parameter alchLambda2 to 0.8499999999999999
Info: NONBONDED TABLE R-SQUARED SPACING: 0.0625
Info: NONBONDED TABLE SIZE: 705 POINTS
TCL: Running for 1500000 steps
ETITLE: TS BOND ANGLE DIHED IMPRP ELECT VDW BOUNDARY MISC KINETIC TOTAL TEMP POTENTIAL TOTALAVG TEMPAVG PRESSURE GPRESSURE VOLUME PRESSAVG GPRESSAVG
ENERGY: 0 0.1932 2.7995 0.2856 0.0000 -10665.7661 1317.9577 0.0000 0.0000 1717.9754 -7626.5547 291.3309 -9344.5301 -7626.5547 291.3309 -1179.8682 -1115.5089 30595.4049 -1179.8682 -1115.5089
ENERGY: 300000 2.9604 2.9565 0.0214 0.0000 -10834.4935 1468.6961 0.0000 0.0000 1789.2154 -7570.6436 303.4117 -9359.8590 -7564.2707 300.2821 180.3610 222.4358 30204.2164 -183.4113 -135.9549
ENERGY: 600000 0.7032 4.8288 0.0938 0.0000 -10811.2259 1463.8473 0.0000 0.0000 1783.8054 -7557.9474 302.4943 -9341.7527 -7561.0294 301.2557 -101.6251 10.0965 30586.0444 -260.2136 -181.9576
ENERGY: 900000 0.7403 3.9229 0.1771 0.0000 -10707.5017 1410.1275 0.0000 0.0000 1724.6050 -7567.9290 292.4552 -9292.5340 -7557.7294 299.5334 -315.2774 -254.4055 30777.3115 -226.7575 -157.1705
ENERGY: 1200000 0.9642 3.3016 0.0330 0.0000 -10620.7858 1338.2821 0.0000 0.0000 1768.4727 -7509.7323 299.8942 -9278.2050 -7553.2269 298.9537 -777.0758 -719.2341 30616.5641 -192.1843 -131.3725
ENERGY: 1500000 1.0100 3.2162 0.1879 0.0000 -10713.1683 1426.6179 0.0000 0.0000 1741.5750 -7540.5612 295.3329 -9282.1363 -7559.2415 298.0443 -136.8843 -107.5716 30790.8612 -184.1863 -125.7774
TCL: Running FEP window   4: Lambda1 0.8499999999999999 Lambda2 0.7999999999999998 [dLambda -0.050000000000000044]
TCL: Setting parameter firsttimestep to 0
TCL: Setting parameter alchLambda to 0.8499999999999999
Info: NONBONDED TABLE R-SQUARED SPACING: 0.0625
Info: NONBONDED TABLE SIZE: 705 POINTS
TCL: Setting parameter alchLambda2 to 0.7999999999999998
Info: NONBONDED TABLE R-SQUARED SPACING: 0.0625
Info: NONBONDED TABLE SIZE: 705 POINTS
TCL: Running for 1500000 steps
ETITLE: TS BOND ANGLE DIHED IMPRP ELECT VDW BOUNDARY MISC KINETIC TOTAL TEMP POTENTIAL TOTALAVG TEMPAVG PRESSURE GPRESSURE VOLUME PRESSAVG GPRESSAVG
ENERGY: 0 1.0100 3.2162 0.1879 0.0000 -10712.5711 1426.7609 0.0000 0.0000 1740.7042 -7540.6919 295.1852 -9281.3961 -7540.6919 295.1852 -199.8196 -111.5685 30790.8612 -199.8196 -111.5685
ENERGY: 300000 2.8395 4.5049 1.1930 0.0000 -10832.4976 1437.6887 0.0000 0.0000 1838.6010 -7547.6705 311.7864 -9386.2715 -7566.1536 298.9148 -226.7447 -191.6951 30391.5346 -272.8103 -203.0255
ENERGY: 600000 0.7694 4.1240 0.3665 0.0000 -10785.3438 1461.7335 0.0000 0.0000 1794.7307 -7523.6197 304.3470 -9318.3504 -7541.9249 300.5578 95.2940 77.8389 30699.3091 -86.0862 -32.6379
ENERGY: 900000 1.0177 8.3589 0.2000 0.0000 -10836.1955 1525.2122 0.0000 0.0000 1780.8973 -7520.5094 302.0011 -9301.4067 -7531.8116 300.5571 645.0225 752.4988 30721.8734 20.6501 81.6702
ENERGY: 1200000 0.5529 5.3696 0.1514 0.0000 -10910.7134 1498.9297 0.0000 0.0000 1776.7345 -7628.9753 301.2952 -9405.7098 -7539.9883 301.0060 171.6181 245.7670 30445.3890 -24.5857 40.0979
ENERGY: 1500000 1.6470 3.9319 0.0403 0.0000 -10813.3139 1453.9097 0.0000 0.0000 1769.9699 -7583.8152 300.1481 -9353.7851 -7539.0921 301.1541 -96.3901 30.0690 30484.9649 16.8573 93.7009
TCL: Running FEP window   5: Lambda1 0.7999999999999998 Lambda2 0.7499999999999998 [dLambda -0.050000000000000044]
TCL: Setting parameter firsttimestep to 0
TCL: Setting parameter alchLambda to 0.7999999999999998
Info: NONBONDED TABLE R-SQUARED SPACING: 0.0625
Info: NONBONDED TABLE SIZE: 705 POINTS
TCL: Setting parameter alchLambda2 to 0.7499999999999998
Info: NONBONDED TABLE R-SQUARED SPACING: 0.0625
Info: NONBONDED TABLE SIZE: 705 POINTS
TCL: Running for 1500000 steps
ETITLE: TS BOND ANGLE DIHED IMPRP ELECT VDW BOUNDARY MISC KINETIC TOTAL TEMP POTENTIAL TOTALAVG TEMPAVG PRESSURE GPRESSURE VOLUME PRESSAVG GPRESSAVG
ENERGY: 0 1.6469 3.9319 0.0403 0.0000 -10812.9178 1453.8332 0.0000 0.0000 1769.1079 -7584.3576 300.0019 -9353.4655 -7584.3576 300.0019 -54.9419 20.4495 30484.9649 -54.9419 20.4495
ENERGY: 300000 1.0841 3.5207 0.0420 0.0000 -10957.7023 1531.6645 0.0000 0.0000 1754.5693 -7666.8217 297.5365 -9421.3910 -7591.2645 298.6202 635.6455 695.6126 29966.2076 47.8315 106.9269
ENERGY: 600000 1.8506 4.3484 2.3477 0.0000 -10844.2936 1496.0193 0.0000 0.0000 1767.4629 -7572.2647 299.7229 -9339.7276 -7558.1963 299.4763 344.6749 384.9026 30555.7779 160.7605 218.0589
ENERGY: 900000 0.7960 3.8697 0.0722 0.0000 -10793.8230 1460.2034 0.0000 0.0000 1747.0039 -7581.8778 296.2535 -9328.8817 -7560.9608 299.8487 -150.8481 -59.3020 30699.2494 130.9850 192.8899
ENERGY: 1200000 0.6740 4.5629 0.1675 0.0000 -10740.3081 1405.5682 0.0000 0.0000 1773.4979 -7555.8377 300.7463 -9329.3357 -7553.8344 300.0550 -216.1875 -170.7907 30355.4779 41.7024 94.8073
ENERGY: 1500000 1.2197 3.0154 0.1459 0.0000 -10640.0482 1410.0764 0.0000 0.0000 1805.7702 -7419.8206 306.2190 -9225.5908 -7540.7306 300.9727 -367.6922 -312.5972 31387.8978 18.5224 66.1408
TCL: Running FEP window   6: Lambda1 0.7499999999999998 Lambda2 0.6999999999999997 [dLambda -0.050000000000000044]
TCL: Setting parameter firsttimestep to 0
TCL: Setting parameter alchLambda to 0.7499999999999998
Info: NONBONDED TABLE R-SQUARED SPACING: 0.0625
Info: NONBONDED TABLE SIZE: 705 POINTS
TCL: Setting parameter alchLambda2 to 0.6999999999999997
Info: NONBONDED TABLE R-SQUARED SPACING: 0.0625
Info: NONBONDED TABLE SIZE: 705 POINTS
TCL: Running for 1500000 steps
ETITLE: TS BOND ANGLE DIHED IMPRP ELECT VDW BOUNDARY MISC KINETIC TOTAL TEMP POTENTIAL TOTALAVG TEMPAVG PRESSURE GPRESSURE VOLUME PRESSAVG GPRESSAVG
ENERGY: 0 1.2197 3.0154 0.1459 0.0000 -10639.6115 1410.5276 0.0000 0.0000 1804.9415 -7419.7615 306.0785 -9224.7029 -7419.7615 306.0785 -412.6741 -315.7554 31387.8978 -412.6741 -315.7554
ENERGY: 300000 1.1800 3.6084 0.2553 0.0000 -10801.1991 1451.3520 0.0000 0.0000 1772.8662 -7571.9371 300.6392 -9344.8033 -7547.3916 300.2987 109.2609 210.4258 30203.3671 -10.4407 66.7771
ENERGY: 600000 2.5325 2.2880 1.7389 0.0000 -10826.0775 1462.5993 0.0000 0.0000 1816.3089 -7540.6098 308.0061 -9356.9187 -7537.8621 304.8082 -111.6251 11.0722 30513.9756 137.8673 220.6702
ENERGY: 900000 0.7138 3.5298 0.0489 0.0000 -10809.2461 1392.8762 0.0000 0.0000 1780.3268 -7631.7506 301.9044 -9412.0773 -7543.6608 304.9462 -834.5650 -662.3162 30455.5061 3.8121 91.6247
ENERGY: 1200000 1.0794 4.2442 0.2286 0.0000 -10726.6794 1430.2935 0.0000 0.0000 1789.5786 -7501.2551 303.4733 -9290.8337 -7548.3554 303.1452 127.2745 165.6230 30430.8279 -89.8162 -6.3218
ENERGY: 1500000 1.7312 2.0205 0.4737 0.0000 -10739.1034 1425.7310 0.0000 0.0000 1825.4756 -7483.6715 309.5606 -9309.1470 -7542.0154 303.9773 -117.8705 -128.8048 30541.1145 -78.9693 -7.4309
TCL: Running FEP window   7: Lambda1 0.6999999999999997 Lambda2 0.6499999999999997 [dLambda -0.050000000000000044]
TCL: Setting parameter firsttimestep to 0
TCL: Setting parameter alchLambda to 0.6999999999999997
Info: NONBONDED TABLE R-SQUARED SPACING: 0.0625
Info: NONBONDED TABLE SIZE: 705 POINTS
TCL: Setting parameter alchLambda2 to 0.6499999999999997
Info: NONBONDED TABLE R-SQUARED SPACING: 0.0625
Info: NONBONDED TABLE SIZE: 705 POINTS
TCL: Running for 1500000 steps
ETITLE: TS BOND ANGLE DIHED IMPRP ELECT VDW BOUNDARY MISC KINETIC TOTAL TEMP POTENTIAL TOTALAVG TEMPAVG PRESSURE GPRESSURE VOLUME PRESSAVG GPRESSAVG
ENERGY: 0 1.7312 2.0205 0.4737 0.0000 -10738.4814 1426.0093 0.0000 0.0000 1824.6136 -7483.6331 309.4144 -9308.2467 -7483.6331 309.4144 -219.5215 -129.7449 30541.1145 -219.5215 -129.7449
ENERGY: 300000 0.9252 4.6922 0.0966 0.0000 -10750.5803 1415.3812 0.0000 0.0000 1802.0686 -7527.4164 305.5913 -9329.4850 -7508.9630 303.6698 -176.6981 -123.6754 30295.7625 -288.0068 -210.1552
ENERGY: 600000 0.6099 3.6138 0.1283 0.0000 -10764.5205 1412.8562 0.0000 0.0000 1774.2616 -7573.0508 300.8758 -9347.3124 -7521.3642 301.7584 -347.9085 -285.5406 30546.6027 -222.1890 -166.3695
ENERGY: 900000 1.0273 3.4054 0.8326 0.0000 -10872.0849 1533.9066 0.0000 0.0000 1768.2584 -7564.6546 299.8578 -9332.9130 -7526.1549 301.3725 760.9591 786.2812 30198.1307 -40.9205 20.6521
ENERGY: 1200000 1.9573 3.7757 0.0904 0.0000 -10707.6199 1430.3944 0.0000 0.0000 1758.3486 -7513.0535 298.1773 -9271.4022 -7531.4826 301.1909 -271.8922 -207.7490 30979.3310 -117.0332 -52.3914
ENERGY: 1500000 0.8075 1.9324 0.4172 0.0000 -10788.0228 1428.9960 0.0000 0.0000 1858.6414 -7497.2282 315.1848 -9355.8697 -7527.9133 303.4684 -29.3635 19.3094 30027.5473 -88.9043 -26.9745
TCL: Running FEP window   8: Lambda1 0.6499999999999997 Lambda2 0.5999999999999996 [dLambda -0.050000000000000044]
TCL: Setting parameter firsttimestep to 0
TCL: Setting parameter alchLambda to 0.6499999999999997
Info: NONBONDED TABLE R-SQUARED SPACING: 0.0625
Info: NONBONDED TABLE SIZE: 705 POINTS
TCL: Setting parameter alchLambda2 to 0.5999999999999996
Info: NONBONDED TABLE R-SQUARED SPACING: 0.0625
Info: NONBONDED TABLE SIZE: 705 POINTS
TCL: Running for 1500000 steps
ETITLE: TS BOND ANGLE DIHED IMPRP ELECT VDW BOUNDARY MISC KINETIC TOTAL TEMP POTENTIAL TOTALAVG TEMPAVG PRESSURE GPRESSURE VOLUME PRESSAVG GPRESSAVG
ENERGY: 0 0.8075 1.9324 0.4172 0.0000 -10788.0225 1429.1358 0.0000 0.0000 1857.7562 -7497.9734 315.0347 -9355.7296 -7497.9734 315.0347 -61.9883 13.5495 30027.5473 -61.9883 13.5495
ENERGY: 300000 0.6432 5.4825 0.1640 0.0000 -10682.1097 1408.0823 0.0000 0.0000 1743.2773 -7524.4604 295.6216 -9267.7376 -7563.9163 300.2735 -199.7385 -167.2705 30501.3646 80.8396 130.0288
ENERGY: 600000 0.7213 3.2767 1.7748 0.0000 -10716.6893 1383.0188 0.0000 0.0000 1738.2484 -7589.6494 294.7688 -9327.8977 -7578.3806 300.6580 -450.5728 -412.3276 30164.9765 -76.3926 -32.5110
ENERGY: 900000 1.4999 5.3740 0.3413 0.0000 -10819.6744 1445.9623 0.0000 0.0000 1801.5327 -7564.9642 305.5004 -9366.4969 -7582.8867 299.4004 -169.7681 -101.7275 30512.3850 -106.1105 -51.3133
ENERGY: 1200000 1.7182 6.0174 0.1098 0.0000 -10767.9570 1399.7753 0.0000 0.0000 1733.3778 -7626.9585 293.9428 -9360.3362 -7583.4442 298.0256 -738.6471 -603.5969 30746.2639 -130.4467 -71.1634
ENERGY: 1500000 1.3179 3.3681 0.3013 0.0000 -10785.2007 1434.9551 0.0000 0.0000 1768.2033 -7577.0549 299.8485 -9345.2582 -7580.7100 298.3406 -112.5029 -15.9444 30440.6884 -188.7007 -133.2246
TCL: Running FEP window   9: Lambda1 0.5999999999999996 Lambda2 0.5499999999999996 [dLambda -0.050000000000000044]
TCL: Setting parameter firsttimestep to 0
TCL: Setting parameter alchLambda to 0.5999999999999996
Info: NONBONDED TABLE R-SQUARED SPACING: 0.0625
Info: NONBONDED TABLE SIZE: 705 POINTS
TCL: Setting parameter alchLambda2 to 0.5499999999999996
Info: NONBONDED TABLE R-SQUARED SPACING: 0.0625
Info: NONBONDED TABLE SIZE: 705 POINTS
TCL: Running for 1500000 steps
ETITLE: TS BOND ANGLE DIHED IMPRP ELECT VDW BOUNDARY MISC KINETIC TOTAL TEMP POTENTIAL TOTALAVG TEMPAVG PRESSURE GPRESSURE VOLUME PRESSAVG GPRESSAVG
ENERGY: 0 1.3179 3.3681 0.3013 0.0000 -10785.1645 1435.3137 0.0000 0.0000 1767.3388 -7577.5247 299.7019 -9344.8635 -7577.5247 299.7019 -98.2339 -15.7146 30440.6884 -98.2339 -15.7146
ENERGY: 300000 2.5854 3.8653 1.1406 0.0000 -10786.8961 1522.5730 0.0000 0.0000 1754.4372 -7502.2945 297.5141 -9256.7317 -7526.5558 299.0084 955.6494 1056.1985 29867.9139 215.5367 299.9687
ENERGY: 600000 0.3095 5.5555 0.1811 0.0000 -10739.3329 1461.6620 0.0000 0.0000 1807.6492 -7463.9756 306.5377 -9271.6249 -7518.7155 299.4639 239.1930 277.4140 30730.1060 248.3108 329.2403
ENERGY: 900000 1.6247 7.3666 0.1296 0.0000 -10753.0305 1400.1672 0.0000 0.0000 1759.2934 -7584.4490 298.3376 -9343.7424 -7526.2612 300.3771 -615.0931 -570.7259 30888.3608 19.1245 106.9591
ENERGY: 1200000 2.3679 3.6832 0.3533 0.0000 -10782.0446 1445.9387 0.0000 0.0000 1762.4912 -7567.2104 298.8798 -9329.7016 -7522.3764 299.9736 -44.4684 103.1234 30159.9670 -29.7826 52.7885
ENERGY: 1500000 0.3611 4.4693 0.1449 0.0000 -10730.9272 1395.2543 0.0000 0.0000 1772.1989 -7558.4986 300.5261 -9330.6976 -7531.2134 299.6361 -235.9544 -258.3258 30388.9815 -109.7806 -38.8670
TCL: Running FEP window  10: Lambda1 0.5499999999999996 Lambda2 0.4999999999999996 [dLambda -0.04999999999999999]
TCL: Setting parameter firsttimestep to 0
TCL: Setting parameter alchLambda to 0.5499999999999996
Info: NONBONDED TABLE R-SQUARED SPACING: 0.0625
Info: NONBONDED TABLE SIZE: 705 POINTS
TCL: Setting parameter alchLambda2 to 0.4999999999999996
Info: NONBONDED TABLE R-SQUARED SPACING: 0.0625
Info: NONBONDED TABLE SIZE: 705 POINTS
TCL: Running for 1500000 steps
ETITLE: TS BOND ANGLE DIHED IMPRP ELECT VDW BOUNDARY MISC KINETIC TOTAL TEMP POTENTIAL TOTALAVG TEMPAVG PRESSURE GPRESSURE VOLUME PRESSAVG GPRESSAVG
ENERGY: 0 0.3611 4.4693 0.1449 0.0000 -10730.3114 1395.1260 0.0000 0.0000 1771.2911 -7558.9190 300.3721 -9330.2101 -7558.9190 300.3721 -338.6377 -261.5975 30388.9815 -338.6377 -261.5975
ENERGY: 300000 0.9963 1.9452 0.0376 0.0000 -10959.4301 1503.4280 0.0000 0.0000 1823.5893 -7629.4338 309.2407 -9453.0230 -7583.9064 300.3477 169.0415 184.8757 30063.2004 -98.6119 -41.6119
ENERGY: 600000 1.7365 3.1591 0.0339 0.0000 -10710.2355 1385.7896 0.0000 0.0000 1770.1747 -7549.3417 300.1828 -9319.5164 -7565.7537 298.9029 -630.9954 -520.4442 30590.8306 -64.9297 0.9134
ENERGY: 900000 1.6019 3.8695 0.2566 0.0000 -10702.5023 1424.2143 0.0000 0.0000 1753.2659 -7519.2942 297.3154 -9272.5601 -7550.8679 298.9202 -265.0965 -111.9515 30680.3920 -0.1555 79.9755
ENERGY: 1200000 0.8945 2.7291 0.5382 0.0000 -10640.4494 1383.8385 0.0000 0.0000 1827.8215 -7424.6276 309.9584 -9252.4491 -7540.0184 299.6628 -373.9907 -287.1294 30896.2565 31.1550 105.8949
ENERGY: 1500000 1.3015 7.6375 0.2344 0.0000 -10724.4601 1444.5025 0.0000 0.0000 1790.4129 -7480.3713 303.6147 -9270.7841 -7537.8254 299.3949 8.0698 43.9484 30559.9758 9.6163 79.9267
TCL: Running FEP window  11: Lambda1 0.4999999999999996 Lambda2 0.4499999999999996 [dLambda -0.04999999999999999]
TCL: Setting parameter firsttimestep to 0
TCL: Setting parameter alchLambda to 0.4999999999999996
Info: NONBONDED TABLE R-SQUARED SPACING: 0.0625
Info: NONBONDED TABLE SIZE: 705 POINTS
TCL: Setting parameter alchLambda2 to 0.4499999999999996
Info: NONBONDED TABLE R-SQUARED SPACING: 0.0625
Info: NONBONDED TABLE SIZE: 705 POINTS
TCL: Running for 1500000 steps
ETITLE: TS BOND ANGLE DIHED IMPRP ELECT VDW BOUNDARY MISC KINETIC TOTAL TEMP POTENTIAL TOTALAVG TEMPAVG PRESSURE GPRESSURE VOLUME PRESSAVG GPRESSAVG
ENERGY: 0 1.3015 7.6375 0.2344 0.0000 -10724.6224 1444.3457 0.0000 0.0000 1789.5307 -7481.5725 303.4651 -9271.1032 -7481.5725 303.4651 -55.7776 36.3731 30559.9758 -55.7776 36.3731
ENERGY: 300000 0.3298 5.5047 0.0539 0.0000 -10663.4121 1375.5186 0.0000 0.0000 1793.3980 -7488.6070 304.1210 -9282.0051 -7525.2448 301.5566 -725.0555 -621.6407 30938.9968 -112.4588 -18.4265
ENERGY: 600000 0.6616 2.7243 0.0744 0.0000 -10757.8704 1424.0451 0.0000 0.0000 1802.3799 -7527.9851 305.6441 -9330.3650 -7524.6981 301.8016 -62.6032 -41.9063 30442.8573 -76.4182 4.4366
ENERGY: 900000 1.1911 3.6988 0.5283 0.0000 -10718.1096 1372.0905 0.0000 0.0000 1727.0729 -7613.5279 292.8737 -9340.6009 -7532.8239 300.6032 -738.0911 -680.2635 30537.9022 -149.6159 -68.8485
ENERGY: 1200000 0.2607 5.4905 0.1228 0.0000 -10928.9118 1524.6975 0.0000 0.0000 1810.9145 -7587.4257 307.0914 -9398.3403 -7530.5647 301.8657 378.9433 447.7470 30285.0976 -26.4805 46.1462
ENERGY: 1500000 0.6370 3.8580 0.0657 0.0000 -10815.3853 1484.4686 0.0000 0.0000 1753.3583 -7572.9977 297.3311 -9326.3559 -7532.8119 301.3564 84.7007 147.3739 30779.2930 -67.4293 8.6447
TCL: Running FEP window  12: Lambda1 0.4499999999999996 Lambda2 0.39999999999999963 [dLambda -0.04999999999999999]
TCL: Setting parameter firsttimestep to 0
TCL: Setting parameter alchLambda to 0.4499999999999996
Info: NONBONDED TABLE R-SQUARED SPACING: 0.0625
Info: NONBONDED TABLE SIZE: 705 POINTS
TCL: Setting parameter alchLambda2 to 0.39999999999999963
Info: NONBONDED TABLE R-SQUARED SPACING: 0.0625
Info: NONBONDED TABLE SIZE: 705 POINTS
TCL: Running for 1500000 steps
ETITLE: TS BOND ANGLE DIHED IMPRP ELECT VDW BOUNDARY MISC KINETIC TOTAL TEMP POTENTIAL TOTALAVG TEMPAVG PRESSURE GPRESSURE VOLUME PRESSAVG GPRESSAVG
ENERGY: 0 0.6370 3.8580 0.0657 0.0000 -10815.3843 1484.7787 0.0000 0.0000 1752.4822 -7573.5627 297.1825 -9326.0449 -7573.5627 297.1825 53.4799 144.5460 30779.2930 53.4799 144.5460
ENERGY: 300000 0.7193 1.9745 0.2026 0.0000 -10699.3122 1401.6855 0.0000 0.0000 1788.3117 -7506.4186 303.2584 -9294.7303 -7517.7078 304.4098 -410.5433 -374.9899 30729.9168 -266.7327 -212.3301
ENERGY: 600000 0.4299 4.7387 0.0192 0.0000 -10587.6618 1332.2253 0.0000 0.0000 1746.8746 -7503.3741 296.2316 -9250.2487 -7509.7942 303.8266 -836.3037 -849.3722 30948.5485 -309.3124 -257.0967
ENERGY: 900000 0.3204 4.2350 0.0224 0.0000 -10891.1989 1597.3956 0.0000 0.0000 1762.9678 -7526.2577 298.9607 -9289.2255 -7522.1312 303.2334 1465.3540 1516.8104 29936.3547 -54.4873 1.8966
ENERGY: 1200000 0.6846 3.6907 0.1839 0.0000 -10892.0023 1513.5804 0.0000 0.0000 1777.6355 -7596.2271 301.4480 -9373.8626 -7528.9874 303.0303 361.2933 442.1435 30508.2537 -71.9873 -12.4779
ENERGY: 1500000 3.6106 2.7960 0.3688 0.0000 -10815.7723 1466.3958 0.0000 0.0000 1738.6554 -7603.9457 294.8378 -9342.6011 -7531.3128 302.5255 -99.6266 31.6891 30332.9883 -33.7533 29.1062
TCL: Running FEP window  13: Lambda1 0.39999999999999963 Lambda2 0.34999999999999964 [dLambda -0.04999999999999999]
TCL: Setting parameter firsttimestep to 0
TCL: Setting parameter alchLambda to 0.39999999999999963
Info: NONBONDED TABLE R-SQUARED SPACING: 0.0625
Info: NONBONDED TABLE SIZE: 705 POINTS
TCL: Setting parameter alchLambda2 to 0.34999999999999964
Info: NONBONDED TABLE R-SQUARED SPACING: 0.0625
Info: NONBONDED TABLE SIZE: 705 POINTS
TCL: Running for 1500000 steps
ETITLE: TS BOND ANGLE DIHED IMPRP ELECT VDW BOUNDARY MISC KINETIC TOTAL TEMP POTENTIAL TOTALAVG TEMPAVG PRESSURE GPRESSURE VOLUME PRESSAVG GPRESSAVG
ENERGY: 0 3.6107 2.7960 0.3688 0.0000 -10815.7709 1466.4601 0.0000 0.0000 1737.8036 -7604.7316 294.6934 -9342.5353 -7604.7316 294.6934 -59.4307 28.3395 30332.9883 -59.4307 28.3395
ENERGY: 300000 1.2602 5.6011 1.3214 0.0000 -10719.9748 1466.2858 0.0000 0.0000 1765.6938 -7479.8125 299.4229 -9245.5063 -7520.3031 300.1777 448.5025 509.6662 30276.2071 -76.6377 -5.0542
ENERGY: 600000 0.1842 3.2603 1.3008 0.0000 -10815.7567 1463.8973 0.0000 0.0000 1779.6195 -7567.4947 301.7844 -9347.1142 -7524.1074 302.1455 -12.7627 82.4166 30441.5360 -135.7188 -62.6451
ENERGY: 900000 1.5090 7.1688 0.7263 0.0000 -10834.3100 1499.6965 0.0000 0.0000 1794.2000 -7531.0093 304.2570 -9325.2094 -7527.9007 301.1631 248.2401 246.9977 30857.2180 -75.6282 -10.4880
ENERGY: 1200000 1.5987 4.8485 0.2006 0.0000 -10625.4770 1417.7364 0.0000 0.0000 1744.8997 -7456.1930 295.8967 -9201.0928 -7525.5703 300.5935 -278.6499 -231.0208 31048.2510 -74.5922 -17.6588
ENERGY: 1500000 0.3236 7.1966 0.0631 0.0000 -10707.6193 1436.8401 0.0000 0.0000 1781.1266 -7482.0692 302.0400 -9263.1958 -7523.1760 300.4780 -59.8320 72.6217 30529.1920 -45.4303 14.4115
TCL: Running FEP window  14: Lambda1 0.34999999999999964 Lambda2 0.29999999999999966 [dLambda -0.04999999999999999]
TCL: Setting parameter firsttimestep to 0
TCL: Setting parameter alchLambda to 0.34999999999999964
Info: NONBONDED TABLE R-SQUARED SPACING: 0.0625
Info: NONBONDED TABLE SIZE: 705 POINTS
TCL: Setting parameter alchLambda2 to 0.29999999999999966
Info: NONBONDED TABLE R-SQUARED SPACING: 0.0625
Info: NONBONDED TABLE SIZE: 705 POINTS
TCL: Running for 1500000 steps
ETITLE: TS BOND ANGLE DIHED IMPRP ELECT VDW BOUNDARY MISC KINETIC TOTAL TEMP POTENTIAL TOTALAVG TEMPAVG PRESSURE GPRESSURE VOLUME PRESSAVG GPRESSAVG
ENERGY: 0 0.3236 7.1966 0.0631 0.0000 -10707.6184 1437.1074 0.0000 0.0000 1780.2397 -7482.6878 301.8896 -9262.9275 -7482.6878 301.8896 -26.5622 70.4895 30529.1920 -26.5622 70.4895
ENERGY: 300000 0.8097 1.9576 0.0298 0.0000 -10781.1772 1450.6845 0.0000 0.0000 1717.9990 -7609.6966 291.3349 -9327.6957 -7560.9685 297.1154 -223.4113 -184.1334 30668.6758 234.3295 273.0122
ENERGY: 600000 0.4953 6.2834 0.8117 0.0000 -10738.5698 1482.4570 0.0000 0.0000 1795.1350 -7453.3874 304.4155 -9248.5224 -7555.1433 297.9053 260.3132 323.4395 30853.8211 256.2515 308.1395
ENERGY: 900000 2.8397 8.6533 0.2576 0.0000 -10701.9576 1372.1485 0.0000 0.0000 1727.6127 -7590.4459 292.9652 -9318.0586 -7544.3451 298.2379 -828.3455 -746.6377 30382.7637 46.0061 109.0886
ENERGY: 1200000 1.5632 1.7098 0.3523 0.0000 -10780.1511 1456.7389 0.0000 0.0000 1729.2829 -7590.5041 293.2484 -9319.7870 -7547.6634 297.2239 -21.3347 99.8213 30404.2305 -21.2518 50.2421
ENERGY: 1500000 1.4933 5.6939 0.6188 0.0000 -10732.1849 1379.1237 0.0000 0.0000 1755.2200 -7590.0352 297.6468 -9345.2552 -7545.5778 297.6599 -694.7059 -582.4920 30407.3184 -96.0151 -16.7609
TCL: Running FEP window  15: Lambda1 0.29999999999999966 Lambda2 0.24999999999999967 [dLambda -0.04999999999999999]
TCL: Setting parameter firsttimestep to 0
TCL: Setting parameter alchLambda to 0.29999999999999966
Info: NONBONDED TABLE R-SQUARED SPACING: 0.0625
Info: NONBONDED TABLE SIZE: 705 POINTS
TCL: Setting parameter alchLambda2 to 0.24999999999999967
Info: NONBONDED TABLE R-SQUARED SPACING: 0.0625
Info: NONBONDED TABLE SIZE: 705 POINTS
TCL: Running for 1500000 steps
ETITLE: TS BOND ANGLE DIHED IMPRP ELECT VDW BOUNDARY MISC KINETIC TOTAL TEMP POTENTIAL TOTALAVG TEMPAVG PRESSURE GPRESSURE VOLUME PRESSAVG GPRESSAVG
ENERGY: 0 1.4933 5.6939 0.6188 0.0000 -10732.1858 1379.4310 0.0000 0.0000 1754.3338 -7590.6151 297.4965 -9344.9488 -7590.6151 297.4965 -668.2272 -585.0804 30407.3184 -668.2272 -585.0804
ENERGY: 300000 0.3731 2.7055 0.0606 0.0000 -10778.9241 1476.0445 0.0000 0.0000 1747.5069 -7552.2335 296.3388 -9299.7404 -7570.1662 294.7284 257.7843 343.3317 30302.1328 -444.5231 -372.8061
ENERGY: 600000 0.1046 2.6222 0.0975 0.0000 -10829.3105 1537.8122 0.0000 0.0000 1674.2835 -7614.3905 283.9217 -9288.6740 -7563.0898 293.9598 640.6060 683.6690 30501.1919 -139.0194 -61.6092
ENERGY: 900000 0.4064 6.0005 0.8051 0.0000 -10826.2454 1458.3352 0.0000 0.0000 1782.6103 -7578.0878 302.2916 -9360.6982 -7561.4964 295.5153 28.9904 95.9798 30091.3688 -121.7255 -51.1598
ENERGY: 1200000 0.9428 2.9159 0.0799 0.0000 -10708.2345 1437.6039 0.0000 0.0000 1774.9638 -7491.7281 300.9949 -9266.6919 -7552.3464 296.7238 -169.9909 -54.5337 30756.0303 -99.8119 -18.0911
ENERGY: 1500000 0.1724 6.0661 0.3355 0.0000 -10941.1685 1549.0231 0.0000 0.0000 1782.0471 -7603.5242 302.1961 -9385.5713 -7538.7759 298.0420 574.4721 545.1362 30623.1852 -45.4547 33.3974
TCL: Running FEP window  16: Lambda1 0.24999999999999967 Lambda2 0.19999999999999968 [dLambda -0.04999999999999999]
TCL: Setting parameter firsttimestep to 0
TCL: Setting parameter alchLambda to 0.24999999999999967
Info: NONBONDED TABLE R-SQUARED SPACING: 0.0625
Info: NONBONDED TABLE SIZE: 705 POINTS
TCL: Setting parameter alchLambda2 to 0.19999999999999968
Info: NONBONDED TABLE R-SQUARED SPACING: 0.0625
Info: NONBONDED TABLE SIZE: 705 POINTS
TCL: Running for 1500000 steps
ETITLE: TS BOND ANGLE DIHED IMPRP ELECT VDW BOUNDARY MISC KINETIC TOTAL TEMP POTENTIAL TOTALAVG TEMPAVG PRESSURE GPRESSURE VOLUME PRESSAVG GPRESSAVG
ENERGY: 0 0.1724 6.0661 0.3355 0.0000 -10941.1705 1549.3615 0.0000 0.0000 1781.1799 -7604.0549 302.0490 -9385.2349 -7604.0549 302.0490 467.9295 547.5367 30623.1852 467.9295 547.5367
ENERGY: 300000 1.6248 5.4461 0.5375 0.0000 -10699.2012 1369.7943 0.0000 0.0000 1833.9003 -7487.8982 310.9893 -9321.7985 -7563.2700 299.1004 -668.3480 -623.2526 30409.9624 20.2572 72.9825
ENERGY: 600000 1.5585 5.5009 0.4282 0.0000 -10806.4852 1500.2954 0.0000 0.0000 1726.6660 -7572.0362 292.8047 -9298.7022 -7567.8410 295.0428 51.2056 149.6836 30720.5751 96.2016 161.1293
ENERGY: 900000 0.2840 3.1733 0.3461 0.0000 -10858.5631 1514.4858 0.0000 0.0000 1786.5470 -7553.7270 302.9592 -9340.2740 -7565.2882 295.8445 350.8613 447.1469 30764.9470 63.1378 132.3971
ENERGY: 1200000 3.3245 2.3742 0.0180 0.0000 -10708.3188 1488.3607 0.0000 0.0000 1796.6477 -7417.5937 304.6720 -9214.2414 -7559.1537 296.0582 398.2791 437.5898 30332.5612 133.3217 189.1326
ENERGY: 1500000 4.5768 4.8228 0.0813 0.0000 -10887.8999 1509.0024 0.0000 0.0000 1742.0270 -7627.3895 295.4096 -9369.4165 -7557.4277 296.1123 233.1393 270.3994 30046.2557 164.1617 220.1199
TCL: Running FEP window  17: Lambda1 0.19999999999999968 Lambda2 0.1499999999999997 [dLambda -0.04999999999999999]
TCL: Setting parameter firsttimestep to 0
TCL: Setting parameter alchLambda to 0.19999999999999968
Info: NONBONDED TABLE R-SQUARED SPACING: 0.0625
Info: NONBONDED TABLE SIZE: 705 POINTS
TCL: Setting parameter alchLambda2 to 0.1499999999999997
Info: NONBONDED TABLE R-SQUARED SPACING: 0.0625
Info: NONBONDED TABLE SIZE: 705 POINTS
TCL: Running for 1500000 steps
ETITLE: TS BOND ANGLE DIHED IMPRP ELECT VDW BOUNDARY MISC KINETIC TOTAL TEMP POTENTIAL TOTALAVG TEMPAVG PRESSURE GPRESSURE VOLUME PRESSAVG GPRESSAVG
ENERGY: 0 4.5768 4.8228 0.0813 0.0000 -10887.8983 1509.1747 0.0000 0.0000 1741.1484 -7628.0943 295.2606 -9369.2426 -7628.0943 295.2606 185.7614 268.7419 30046.2557 185.7614 268.7419
ENERGY: 300000 0.6055 2.6513 0.3188 0.0000 -10909.6676 1527.9898 0.0000 0.0000 1773.0324 -7605.0699 300.6674 -9378.1023 -7576.0407 298.0270 480.8428 576.1916 29958.6423 164.1749 255.0800
ENERGY: 600000 1.2830 2.3352 0.0750 0.0000 -10880.8804 1504.9042 0.0000 0.0000 1691.9893 -7680.2937 286.9243 -9372.2830 -7582.8786 297.1237 -72.6614 -87.5817 30854.1180 153.5300 220.8773
ENERGY: 900000 2.6636 4.6081 0.1292 0.0000 -10838.6471 1480.9388 0.0000 0.0000 1755.6532 -7594.6543 297.7203 -9350.3075 -7571.4866 297.1849 134.9073 210.7721 30035.5994 72.1873 139.6269
ENERGY: 1200000 0.6717 5.1038 0.4157 0.0000 -10716.8977 1378.0196 0.0000 0.0000 1800.1627 -7532.5241 305.2681 -9332.6868 -7565.6583 298.4766 -429.6920 -354.4634 30197.8034 -37.8151 24.3436
ENERGY: 1500000 0.2712 4.1423 0.0605 0.0000 -10594.6950 1306.4794 0.0000 0.0000 1751.8141 -7531.9275 297.0692 -9283.7416 -7565.2581 297.6089 -1181.3742 -1116.9354 30870.9417 -138.2365 -76.7197
TCL: Running FEP window  18: Lambda1 0.1499999999999997 Lambda2 0.09999999999999969 [dLambda -0.05 ]
TCL: Setting parameter firsttimestep to 0
TCL: Setting parameter alchLambda to 0.1499999999999997
Info: NONBONDED TABLE R-SQUARED SPACING: 0.0625
Info: NONBONDED TABLE SIZE: 705 POINTS
TCL: Setting parameter alchLambda2 to 0.09999999999999969
Info: NONBONDED TABLE R-SQUARED SPACING: 0.0625
Info: NONBONDED TABLE SIZE: 705 POINTS
TCL: Running for 1500000 steps
ETITLE: TS BOND ANGLE DIHED IMPRP ELECT VDW BOUNDARY MISC KINETIC TOTAL TEMP POTENTIAL TOTALAVG TEMPAVG PRESSURE GPRESSURE VOLUME PRESSAVG GPRESSAVG
ENERGY: 0 0.2712 4.1423 0.0605 0.0000 -10594.6950 1305.7904 0.0000 0.0000 1750.9521 -7533.4785 296.9231 -9284.4306 -7533.4785 296.9231 -1210.5403 -1121.1464 30870.9417 -1210.5403 -1121.1464
ENERGY: 300000 0.4457 4.5144 0.1120 0.0000 -10721.6949 1374.6415 0.0000 0.0000 1798.6344 -7543.3469 305.0089 -9341.9813 -7552.6405 297.7367 -650.8413 -571.6985 30364.8127 -681.2102 -597.8120
ENERGY: 600000 1.2400 3.1088 0.0645 0.0000 -10741.0927 1428.2403 0.0000 0.0000 1772.3089 -7536.1303 300.5447 -9308.4391 -7550.8452 299.3322 -10.7222 -2.2008 30639.6407 -564.2769 -494.4135
ENERGY: 900000 0.2459 5.4186 0.2967 0.0000 -10721.6284 1485.8638 0.0000 0.0000 1732.0696 -7497.7338 293.7210 -9229.8034 -7545.9510 297.6373 525.1860 585.6905 30514.6510 -467.2732 -394.9268
ENERGY: 1200000 0.6550 2.1369 0.8215 0.0000 -10731.6270 1409.9205 0.0000 0.0000 1791.5917 -7526.5013 303.8146 -9318.0931 -7530.0468 299.1421 -523.1202 -502.1083 30890.1294 -373.7215 -303.0884
ENERGY: 1500000 0.5819 5.1587 0.1235 0.0000 -10743.2068 1482.8361 0.0000 0.0000 1793.5683 -7460.9383 304.1498 -9254.5066 -7528.7832 299.1328 366.5994 370.3712 30555.9233 -207.8422 -147.1344
TCL: Running FEP window  19: Lambda1 0.09999999999999969 Lambda2 0.049999999999999684 [dLambda -0.05 ]
TCL: Setting parameter firsttimestep to 0
TCL: Setting parameter alchLambda to 0.09999999999999969
Info: NONBONDED TABLE R-SQUARED SPACING: 0.0625
Info: NONBONDED TABLE SIZE: 705 POINTS
TCL: Setting parameter alchLambda2 to 0.049999999999999684
Info: NONBONDED TABLE R-SQUARED SPACING: 0.0625
Info: NONBONDED TABLE SIZE: 705 POINTS
TCL: Running for 1500000 steps
ETITLE: TS BOND ANGLE DIHED IMPRP ELECT VDW BOUNDARY MISC KINETIC TOTAL TEMP POTENTIAL TOTALAVG TEMPAVG PRESSURE GPRESSURE VOLUME PRESSAVG GPRESSAVG
ENERGY: 0 0.5819 5.1587 0.1235 0.0000 -10743.2081 1483.1834 0.0000 0.0000 1792.7018 -7461.4588 304.0029 -9254.1606 -7461.4588 304.0029 279.4272 368.5335 30555.9233 279.4272 368.5335
ENERGY: 300000 1.2691 2.9523 0.0368 0.0000 -10619.8020 1381.6562 0.0000 0.0000 1734.2842 -7499.6035 294.0965 -9233.8876 -7461.6473 300.7153 -349.6463 -320.1046 30362.4806 -227.6232 -155.6091
ENERGY: 600000 5.7814 6.0775 0.2686 0.0000 -10653.7797 1388.6693 0.0000 0.0000 1836.3775 -7416.6054 311.4093 -9252.9829 -7475.7179 300.6671 -556.3467 -464.3703 30771.3677 -191.2309 -119.6850
ENERGY: 900000 1.9045 1.9994 0.1322 0.0000 -10760.2352 1389.1356 0.0000 0.0000 1748.3982 -7618.6653 296.4900 -9367.0635 -7504.7290 300.1199 -614.1594 -535.9334 30337.3456 -113.4019 -39.8779
ENERGY: 1200000 0.4712 4.2326 0.3635 0.0000 -10609.7701 1322.7264 0.0000 0.0000 1756.6833 -7525.2931 297.8949 -9281.9763 -7508.5505 299.4965 -1099.5530 -1005.8447 30680.0405 -179.0250 -104.7706
ENERGY: 1500000 0.8111 3.1384 0.2298 0.0000 -10641.0411 1415.3314 0.0000 0.0000 1817.6194 -7403.9109 308.2284 -9221.5303 -7501.5025 300.2187 -5.5117 82.9665 30712.4830 -123.4680 -51.0432
TCL: Running FEP window  20: Lambda1 0.049999999999999684 Lambda2 0.0    [dLambda -0.049999999999999684]
TCL: Setting parameter firsttimestep to 0
TCL: Setting parameter alchLambda to 0.049999999999999684
Info: NONBONDED TABLE R-SQUARED SPACING: 0.0625
Info: NONBONDED TABLE SIZE: 705 POINTS
TCL: Setting parameter alchLambda2 to 0.0
Info: NONBONDED TABLE R-SQUARED SPACING: 0.0625
Info: NONBONDED TABLE SIZE: 705 POINTS
TCL: Running for 1500000 steps
ETITLE: TS BOND ANGLE DIHED IMPRP ELECT VDW BOUNDARY MISC KINETIC TOTAL TEMP POTENTIAL TOTALAVG TEMPAVG PRESSURE GPRESSURE VOLUME PRESSAVG GPRESSAVG
ENERGY: 0 0.8111 3.1384 0.2298 0.0000 -10641.0394 1415.5899 0.0000 0.0000 1816.7633 -7404.5069 308.0832 -9221.2702 -7404.5069 308.0832 1.9877 83.4666 30712.4830 1.9877 83.4666
ENERGY: 300000 1.4073 4.3508 0.9371 0.0000 -10625.0890 1347.6122 0.0000 0.0000 1776.9722 -7493.8095 301.3355 -9270.7817 -7483.3953 304.3556 -708.6629 -639.4256 30373.6447 -382.0301 -309.3137
ENERGY: 600000 3.4964 4.6711 0.2476 0.0000 -10655.7886 1365.4163 0.0000 0.0000 1750.7698 -7531.1874 296.8922 -9281.9572 -7500.2127 300.6686 -1003.2896 -839.0117 31180.9039 -385.2037 -300.9191
ENERGY: 900000 0.9177 2.7775 0.3402 0.0000 -10766.6913 1512.1795 0.0000 0.0000 1782.0270 -7468.4493 302.1927 -9250.4763 -7518.3805 300.1589 582.4613 643.9242 30663.2839 -292.8312 -218.4284
ENERGY: 1200000 1.3842 3.8059 0.2477 0.0000 -10846.9674 1515.0428 0.0000 0.0000 1753.4443 -7573.0426 297.3457 -9326.4869 -7534.4638 299.4373 315.1662 416.9049 30470.6458 -246.1926 -173.5055
ENERGY: 1500000 0.8998 3.2022 1.2200 0.0000 -10730.6183 1375.8188 0.0000 0.0000 1784.9173 -7564.5601 302.6828 -9349.4774 -7533.3156 300.1704 -748.2730 -638.5251 30758.6951 -211.4383 -137.5205
TCL: Exiting due to exit command.
