Info: SIMULATION PARAMETERS:
Info: TIMESTEP               2
Info: NUMBER OF STEPS        0
Info: STEPS PER CYCLE        10
Info: PERIODIC CELL BASIS 1  32.2951 0 0
Info: PERIODIC CELL BASIS 2  0 30.6217 0
Info: PERIODIC CELL BASIS 3  0 0 30.6076
Info: PERIODIC CELL CENTER   0 0 0
Info: WRAPPING WATERS AROUND PERIODIC BOUNDARIES ON OUTPUT.
Info: WRAPPING ALL CLUSTERS AROUND PERIODIC BOUNDARIES ON OUTPUT.
Info: FIRST LDB TIMESTEP     50
Info: LAST LDB TIMESTEP     -1
Info: HOM BACKGROUND SCALING 1
Info: PME BACKGROUND SCALING 1
Info: MIN ATOMS PER PATCH    40
Info: EMPTY PATCH LOAD       40 ATOMS
Info: VELOCITY FILE          mobley_9201263_equil.vel
Info: CENTER OF MASS MOVING INITIALLY? NO
Info: DIELECTRIC             1
Info: EXCLUDE                SCALED ONE-FOUR
Info: 1-4 ELECTROSTATICS SCALED BY 0.833333
Info: MODIFIED 1-4 VDW PARAMETERS WILL BE USED
Info: DCD FILENAME           mobley_9201263_prod.dcd
Info: DCD FREQUENCY          100000
Info: DCD FIRST STEP         100000
Info: DCD FILE WILL CONTAIN UNIT CELL DATA
Info: XST FILENAME           mobley_9201263_prod.xst
Info: XST FREQUENCY          100000
Info: NO VELOCITY DCD OUTPUT
Info: NO FORCE DCD OUTPUT
Info: OUTPUT FILENAME        mobley_9201263_prod
Info: BINARY OUTPUT FILES WILL BE USED
Info: RESTART FILENAME       mobley_9201263_prod.restart
Info: RESTART FREQUENCY      100000
Info: BINARY RESTART FILES WILL BE USED
Info: CUTOFF                 9
Info: PAIRLIST DISTANCE      11
Info: PAIRLIST SHRINK RATE   0.01
Info: PAIRLIST GROW RATE     0.01
Info: PAIRLIST TRIGGER       0.3
Info: PAIRLISTS PER CYCLE    2
Info: PAIRLISTS ENABLED
Info: MARGIN                 2
Info: HYDROGEN GROUP CUTOFF  2.5
Info: PATCH DIMENSION        15.5
Info: ENERGY OUTPUT STEPS    100000
Info: ENERGY EVALUATION STEPS    100000
Info: OUTPUT ENERGY PRECISION 4
Info: CROSSTERM ENERGY INCLUDED IN DIHEDRAL
Info: TIMING OUTPUT STEPS    1000000
Info: PRESSURE OUTPUT STEPS  100000
Info: ALCHEMICAL FEP ON
Info: FEP CURRENT LAMBDA VALUE     0
Info: FEP COMPARISON LAMBDA VALUE  0.05
Info: FEP INTRA-ALCHEMICAL NON-BONDED INTERACTIONS WILL BE RETAINED
Info: FEP INTRA-ALCHEMICAL BONDED INTERACTIONS WILL BE RETAINED
Info: FEP VDW SHIFTING COEFFICIENT 5
Info: FEP ELEC. ACTIVE FOR ANNIHILATED PARTICLES BETWEEN LAMBDA = 0 AND LAMBDA = 0.5
Info: FEP ELEC. ACTIVE FOR EXNIHILATED PARTICLES BETWEEN LAMBDA = 0.5 AND LAMBDA = 1
Info: FEP VDW ACTIVE FOR ANNIHILATED PARTICLES BETWEEN LAMBDA = 0 AND LAMBDA = 1
Info: FEP VDW ACTIVE FOR EXNIHILATED PARTICLES BETWEEN LAMBDA = 0 AND LAMBDA = 1
Info: FEP BOND ACTIVE FOR ANNIHILATED PARTICLES BETWEEN LAMBDA = 1 AND LAMBDA = 1
Info: FEP BOND ACTIVE FOR EXNIHILATED PARTICLES BETWEEN LAMBDA = 0 AND LAMBDA = 0
Info: LANGEVIN DYNAMICS ACTIVE
Info: LANGEVIN TEMPERATURE   300
Info: LANGEVIN USING BBK INTEGRATOR
Info: LANGEVIN DAMPING COEFFICIENT IS 1 INVERSE PS
Info: LANGEVIN DYNAMICS APPLIED TO HYDROGENS
Info: LANGEVIN PISTON PRESSURE CONTROL ACTIVE
Info:        TARGET PRESSURE IS 1.01325 BAR
Info:     OSCILLATION PERIOD IS 50 FS
Info:             DECAY TIME IS 25 FS
Info:     PISTON TEMPERATURE IS 300 K
Info:       PRESSURE CONTROL IS GROUP-BASED
Info:    INITIAL STRAIN RATE IS -0.000661766 -0.000661766 -0.000661766
Info:       CELL FLUCTUATION IS ISOTROPIC
Info: PARTICLE MESH EWALD (PME) ACTIVE
Info: PME TOLERANCE               1e-06
Info: PME EWALD COEFFICIENT       0.348832
Info: PME INTERPOLATION ORDER     4
Info: PME GRID DIMENSIONS         36 32 32
Info: PME MAXIMUM GRID SPACING    1
Info: PME CALCULATION WILL BE PERFORMED ON GPU
Info: FULL ELECTROSTATIC EVALUATION FREQUENCY      2
Info: USING VERLET I (r-RESPA) MTS SCHEME.
Info: C1 SPLITTING OF LONG RANGE ELECTROSTATICS
Info: PLACING ATOMS IN PATCHES BY HYDROGEN GROUPS
Info: RIGID BONDS TO HYDROGEN : ALL
Info:         ERROR TOLERANCE : 1e-08
Info:          MAX ITERATIONS : 100
Info: RIGID WATER USING SETTLE ALGORITHM
Info: RANDOM NUMBER SEED     1743726030
Info: USE HYDROGEN BONDS?    NO
Info: Using AMBER format force field!
Info: AMBER PARM FILE        mobley_9201263.prmtop
Info: COORDINATE PDB         mobley_9201263.pdb
Info: Exclusions will be read from PARM file!
Info: SCNB (VDW SCALING)     2
Info: USING ARITHMETIC MEAN TO COMBINE L-J SIGMA PARAMETERS
Info: BINARY COORDINATES     mobley_9201263_equil.coor
Info: SUMMARY OF PARAMETERS:
Info: 7 BONDS
Info: 8 ANGLES
Info:   8 HARMONIC
Info:   0 COSINE-BASED
Info: 3 DIHEDRAL
Info: 0 IMPROPER
Info: 0 CROSSTERM
Info: 0 VDW
Info: 28 VDW_PAIRS
Info: 0 NBTHOLE_PAIRS
Info: To read alchdata from file: mobley_9201263.pdb
Info: To read alchflag data from column: 5
Info: STRUCTURE SUMMARY:
Info: 2970 ATOMS
Info: 2969 BONDS
Info: 19 ANGLES
Info: 15 DIHEDRALS
Info: 0 IMPROPERS
Info: 0 CROSSTERMS
Info: 3003 EXCLUSIONS
Info: 2964 RIGID BONDS
Info: ALCH: 0 ATOMS TO DISAPPEAR IN FINAL STATE
Info: ALCH: 12 ATOMS TO APPEAR IN FINAL STATE
Info: 5946 DEGREES OF FREEDOM
Info: 992 HYDROGEN GROUPS
Info: 4 ATOMS IN LARGEST HYDROGEN GROUP
Info: 992 MIGRATION GROUPS
Info: 4 ATOMS IN LARGEST MIGRATION GROUP
Info: TOTAL MASS = 17873.9 amu
Info: TOTAL CHARGE = 0.000399966 e
Info: MASS DENSITY = 0.980581 g/cm^3
Info: ATOM DENSITY = 0.0981208 atoms/A^3
Info: ADDED 0 IMPLICIT EXCLUSIONS
Info: NONBONDED TABLE R-SQUARED SPACING: 0.0625
Info: NONBONDED TABLE SIZE: 705 POINTS
Info: REMOVING COM VELOCITY 0.0885681 -0.0387476 0.000491395
Info: Use 3D box decompostion in PME FFT.
Info: Updated CUDA force table with 4096 elements.
Info: Updated CUDA LJ table with 7 x 7 elements.
Info: Found 15 unique exclusion lists needing 24 bytes
TCL: Running for 1500000 steps
ETITLE: TS BOND ANGLE DIHED IMPRP ELECT VDW BOUNDARY MISC KINETIC TOTAL TEMP POTENTIAL TOTALAVG TEMPAVG PRESSURE GPRESSURE VOLUME PRESSAVG GPRESSAVG
ENERGY: 0 2.0944 6.4787 4.2015 0.0000 -10847.9283 1436.5785 0.0000 0.0000 1796.7639 -7601.8113 304.1281 -9398.5752 -7601.8113 304.1281 -67.1602 35.1503 30268.8145 -67.1602 35.1503
ENERGY: 300000 2.6604 5.3284 4.6693 0.0000 -10852.8051 1461.3456 0.0000 0.0000 1782.6252 -7596.1761 301.7349 -9378.8013 -7622.8657 302.9128 28.4756 144.9637 30700.9620 -104.4599 -19.4342
ENERGY: 600000 1.9532 2.8842 4.2426 0.0000 -10994.4878 1511.9205 0.0000 0.0000 1775.5248 -7697.9624 300.5330 -9473.4872 -7659.2644 297.9997 145.1640 297.8852 30205.6343 -192.0230 -115.5270
ENERGY: 900000 3.1209 4.4690 3.4746 0.0000 -10790.7406 1451.2213 0.0000 0.0000 1776.9036 -7551.5512 300.7664 -9328.4548 -7639.2167 298.6293 326.4969 296.8263 30421.1554 -140.8760 -81.3385
ENERGY: 1200000 3.9857 2.4507 3.6557 0.0000 -10952.7764 1534.1797 0.0000 0.0000 1764.9981 -7643.5066 298.7512 -9408.5047 -7644.6210 298.3226 437.2263 535.4681 30694.1259 -30.9088 31.5190
ENERGY: 1500000 3.3620 6.5812 4.7545 0.0000 -11022.9806 1591.1804 0.0000 0.0000 1811.4028 -7605.6996 306.6059 -9417.1024 -7637.3087 299.0451 1436.5931 1470.5978 29707.5997 24.4186 83.0620
TCL: Running FEP window   2: Lambda1 0.05   Lambda2 0.1    [dLambda 0.05  ]
TCL: Setting parameter firsttimestep to 0
TCL: Setting parameter alchLambda to 0.05
Info: NONBONDED TABLE R-SQUARED SPACING: 0.0625
Info: NONBONDED TABLE SIZE: 705 POINTS
TCL: Setting parameter alchLambda2 to 0.1
Info: NONBONDED TABLE R-SQUARED SPACING: 0.0625
Info: NONBONDED TABLE SIZE: 705 POINTS
TCL: Running for 1500000 steps
ETITLE: TS BOND ANGLE DIHED IMPRP ELECT VDW BOUNDARY MISC KINETIC TOTAL TEMP POTENTIAL TOTALAVG TEMPAVG PRESSURE GPRESSURE VOLUME PRESSAVG GPRESSAVG
ENERGY: 0 3.3620 6.5812 4.7545 0.0000 -11022.9807 1594.5876 0.0000 0.0000 1810.5035 -7603.1919 306.4537 -9413.6954 -7603.1919 306.4537 1384.4210 1479.1288 29707.5997 1384.4210 1479.1288
ENERGY: 300000 3.3736 2.6963 5.3036 0.0000 -10826.8954 1420.9344 0.0000 0.0000 1837.9681 -7556.6194 311.1025 -9394.5875 -7584.1001 304.3558 55.7004 113.5865 30083.1894 286.4723 347.7893
ENERGY: 600000 1.0542 7.4529 3.0530 0.0000 -10718.2545 1389.7934 0.0000 0.0000 1788.8301 -7528.0709 302.7851 -9316.9010 -7586.8817 301.9188 -408.0079 -338.7022 30766.8876 23.8076 99.3105
ENERGY: 900000 1.2243 3.5560 5.1599 0.0000 -10819.4446 1465.4702 0.0000 0.0000 1778.3963 -7565.6378 301.0191 -9344.0341 -7579.5330 302.5470 82.7361 180.7804 30472.0977 -50.5334 15.1353
ENERGY: 1200000 2.8128 4.5880 4.4848 0.0000 -10797.8559 1462.9703 0.0000 0.0000 1741.1737 -7581.8263 294.7186 -9323.0000 -7583.6335 302.1344 273.6515 311.1705 30722.0260 16.5760 77.3484
ENERGY: 1500000 2.2973 4.4426 3.8466 0.0000 -10759.2926 1361.0290 0.0000 0.0000 1799.4466 -7588.2304 304.5821 -9387.6770 -7592.1878 303.0258 -799.1613 -728.1846 30733.9845 -7.6267 50.1116
TCL: Running FEP window   3: Lambda1 0.1    Lambda2 0.15000000000000002 [dLambda 0.05000000000000002]
TCL: Setting parameter firsttimestep to 0
TCL: Setting parameter alchLambda to 0.1
Info: NONBONDED TABLE R-SQUARED SPACING: 0.0625
Info: NONBONDED TABLE SIZE: 705 POINTS
TCL: Setting parameter alchLambda2 to 0.15000000000000002
Info: NONBONDED TABLE R-SQUARED SPACING: 0.0625
Info: NONBONDED TABLE SIZE: 705 POINTS
TCL: Running for 1500000 steps
ETITLE: TS BOND ANGLE DIHED IMPRP ELECT VDW BOUNDARY MISC KINETIC TOTAL TEMP POTENTIAL TOTALAVG TEMPAVG PRESSURE GPRESSURE VOLUME PRESSAVG GPRESSAVG
ENERGY: 0 2.2973 4.4426 3.8466 0.0000 -10759.2933 1361.0825 0.0000 0.0000 1798.5841 -7589.0402 304.4362 -9387.6243 -7589.0402 304.4362 -811.4781 -727.5272 30733.9845 -811.4781 -727.5272
ENERGY: 300000 1.7793 4.0773 6.6400 0.0000 -10739.5921 1415.3796 0.0000 0.0000 1776.9960 -7534.7199 300.7821 -9311.7159 -7655.7644 298.6498 -80.6658 -47.9822 30458.0048 -226.5255 -196.5582
ENERGY: 600000 1.4388 8.1314 3.5931 0.0000 -10759.2305 1424.6223 0.0000 0.0000 1751.8181 -7569.6269 296.5203 -9321.4450 -7633.2323 297.8910 -64.4408 44.1598 30563.1448 -95.5992 -43.9634
ENERGY: 900000 1.4329 4.2076 4.8459 0.0000 -10739.9303 1344.2198 0.0000 0.0000 1753.7923 -7631.4319 296.8545 -9385.2242 -7633.4574 299.0708 -748.6879 -640.0028 30110.3243 -176.6507 -120.8968
ENERGY: 1200000 2.1597 2.8499 4.0520 0.0000 -10889.9944 1454.5592 0.0000 0.0000 1844.3924 -7581.9811 312.1899 -9426.3735 -7618.9194 301.4263 27.7004 132.8666 30512.9323 -105.2834 -48.6174
ENERGY: 1500000 1.2961 6.8872 3.8546 0.0000 -10868.8519 1409.1159 0.0000 0.0000 1770.3476 -7677.3505 299.6567 -9447.6981 -7617.2020 301.9362 -572.4078 -488.6083 30803.5668 -52.7356 6.5135
TCL: Running FEP window   4: Lambda1 0.15000000000000002 Lambda2 0.2    [dLambda 0.04999999999999999]
TCL: Setting parameter firsttimestep to 0
TCL: Setting parameter alchLambda to 0.15000000000000002
Info: NONBONDED TABLE R-SQUARED SPACING: 0.0625
Info: NONBONDED TABLE SIZE: 705 POINTS
TCL: Setting parameter alchLambda2 to 0.2
Info: NONBONDED TABLE R-SQUARED SPACING: 0.0625
Info: NONBONDED TABLE SIZE: 705 POINTS
TCL: Running for 1500000 steps
ETITLE: TS BOND ANGLE DIHED IMPRP ELECT VDW BOUNDARY MISC KINETIC TOTAL TEMP POTENTIAL TOTALAVG TEMPAVG PRESSURE GPRESSURE VOLUME PRESSAVG GPRESSAVG
ENERGY: 0 1.2961 6.8872 3.8546 0.0000 -10868.8520 1409.2032 0.0000 0.0000 1769.4442 -7678.1668 299.5038 -9447.6110 -7678.1668 299.5038 -561.9969 -483.6893 30803.5668 -561.9969 -483.6893
ENERGY: 300000 1.2506 6.3389 4.1002 0.0000 -10933.2897 1461.4619 0.0000 0.0000 1782.7762 -7677.3619 301.7604 -9460.1381 -7650.9079 298.7069 -208.6047 -208.9680 30378.8952 -234.4675 -183.1959
ENERGY: 600000 1.0643 7.4069 4.9272 0.0000 -10865.8380 1478.8402 0.0000 0.0000 1701.9709 -7671.6285 288.0830 -9373.5995 -7628.5886 296.2735 387.2005 458.6154 30285.3551 78.5067 140.0492
ENERGY: 900000 1.5548 6.4252 4.2698 0.0000 -10927.0487 1453.4918 0.0000 0.0000 1808.6544 -7652.6528 306.1407 -9461.3072 -7643.0840 297.5510 204.8820 245.6276 29804.2274 198.5343 253.5006
ENERGY: 1200000 1.6873 6.0442 4.7203 0.0000 -10829.7062 1440.0791 0.0000 0.0000 1769.1035 -7608.0718 299.4461 -9377.1753 -7635.3946 298.8706 -211.4945 -124.7879 30633.9103 170.8098 226.2619
ENERGY: 1500000 1.4042 4.2091 4.2283 0.0000 -10708.6952 1392.0179 0.0000 0.0000 1740.2797 -7566.5560 294.5673 -9306.8356 -7627.5181 298.5100 -14.3980 -41.9042 30536.7315 188.1859 244.2995
TCL: Running FEP window   5: Lambda1 0.2    Lambda2 0.25   [dLambda 0.04999999999999999]
TCL: Setting parameter firsttimestep to 0
TCL: Setting parameter alchLambda to 0.2
Info: NONBONDED TABLE R-SQUARED SPACING: 0.0625
Info: NONBONDED TABLE SIZE: 705 POINTS
TCL: Setting parameter alchLambda2 to 0.25
Info: NONBONDED TABLE R-SQUARED SPACING: 0.0625
Info: NONBONDED TABLE SIZE: 705 POINTS
TCL: Running for 1500000 steps
ETITLE: TS BOND ANGLE DIHED IMPRP ELECT VDW BOUNDARY MISC KINETIC TOTAL TEMP POTENTIAL TOTALAVG TEMPAVG PRESSURE GPRESSURE VOLUME PRESSAVG GPRESSAVG
ENERGY: 0 1.4042 4.2091 4.2283 0.0000 -10708.6961 1392.1904 0.0000 0.0000 1739.3763 -7567.2878 294.4144 -9306.6641 -7567.2878 294.4144 -122.6223 -37.4911 30536.7315 -122.6223 -37.4911
ENERGY: 300000 3.1013 4.7687 3.7204 0.0000 -10978.5457 1508.6263 0.0000 0.0000 1819.2316 -7639.0974 307.9310 -9458.3290 -7652.6239 299.0548 447.7027 510.6193 30060.9409 156.8878 218.3400
ENERGY: 600000 4.5456 11.2587 3.2642 0.0000 -10893.5080 1514.7973 0.0000 0.0000 1768.4058 -7591.2365 299.3280 -9359.6423 -7647.4117 299.0276 420.3260 461.8021 30863.7234 13.4117 83.6475
ENERGY: 900000 0.3888 4.0291 4.4477 0.0000 -10892.5134 1402.9296 0.0000 0.0000 1822.6286 -7658.0896 308.5060 -9480.7182 -7649.3615 299.9687 -763.2996 -672.7900 30566.7343 -91.7502 -26.0269
ENERGY: 1200000 1.5826 3.9033 4.1606 0.0000 -10873.6900 1461.6425 0.0000 0.0000 1834.1697 -7568.2313 310.4595 -9402.4010 -7636.5971 301.6139 246.5695 323.5175 30081.9075 9.9664 73.5578
ENERGY: 1500000 4.0783 4.0958 3.9419 0.0000 -10758.6728 1399.3741 0.0000 0.0000 1825.6009 -7521.5818 309.0091 -9347.1827 -7633.0353 302.2743 -200.2970 -114.4837 30421.5514 -72.0361 -11.0969
TCL: Running FEP window   6: Lambda1 0.25   Lambda2 0.3    [dLambda 0.04999999999999999]
TCL: Setting parameter firsttimestep to 0
TCL: Setting parameter alchLambda to 0.25
Info: NONBONDED TABLE R-SQUARED SPACING: 0.0625
Info: NONBONDED TABLE SIZE: 705 POINTS
TCL: Setting parameter alchLambda2 to 0.3
Info: NONBONDED TABLE R-SQUARED SPACING: 0.0625
Info: NONBONDED TABLE SIZE: 705 POINTS
TCL: Running for 1500000 steps
ETITLE: TS BOND ANGLE DIHED IMPRP ELECT VDW BOUNDARY MISC KINETIC TOTAL TEMP POTENTIAL TOTALAVG TEMPAVG PRESSURE GPRESSURE VOLUME PRESSAVG GPRESSAVG
ENERGY: 0 4.0783 4.0958 3.9419 0.0000 -10758.6722 1399.2655 0.0000 0.0000 1824.7659 -7522.5247 308.8678 -9347.2907 -7522.5247 308.8678 -189.5006 -114.5198 30421.5514 -189.5006 -114.5198
ENERGY: 300000 1.0396 6.8277 3.9150 0.0000 -10804.1825 1404.7645 0.0000 0.0000 1764.9577 -7622.6779 298.7444 -9387.6356 -7598.1731 303.3391 -698.4726 -672.1909 31317.6893 -179.9257 -144.3053
ENERGY: 600000 1.4147 4.0910 3.4282 0.0000 -10850.5248 1458.3010 0.0000 0.0000 1743.6569 -7639.6330 295.1389 -9383.2899 -7620.9075 299.7888 14.8597 83.8006 30673.6249 -103.2136 -53.2893
ENERGY: 900000 1.2156 3.1672 4.2879 0.0000 -10860.4839 1479.2463 0.0000 0.0000 1812.9979 -7559.5689 306.8759 -9372.5668 -7613.0512 299.9501 54.4973 136.1363 30744.5933 -64.0176 -5.7920
ENERGY: 1200000 1.7593 4.4765 4.3760 0.0000 -10975.1087 1522.6948 0.0000 0.0000 1766.7145 -7675.0877 299.0418 -9441.8022 -7620.4901 300.0235 266.5143 349.9300 30807.0611 87.8471 139.0922
ENERGY: 1500000 1.7743 3.7557 4.2107 0.0000 -10872.7768 1481.9415 0.0000 0.0000 1750.6782 -7630.4163 296.3274 -9381.0945 -7618.2254 299.1243 159.5458 243.9365 30687.2065 131.3274 178.6338
TCL: Running FEP window   7: Lambda1 0.3    Lambda2 0.35   [dLambda 0.04999999999999999]
TCL: Setting parameter firsttimestep to 0
TCL: Setting parameter alchLambda to 0.3
Info: NONBONDED TABLE R-SQUARED SPACING: 0.0625
Info: NONBONDED TABLE SIZE: 705 POINTS
TCL: Setting parameter alchLambda2 to 0.35
Info: NONBONDED TABLE R-SQUARED SPACING: 0.0625
Info: NONBONDED TABLE SIZE: 705 POINTS
TCL: Running for 1500000 steps
ETITLE: TS BOND ANGLE DIHED IMPRP ELECT VDW BOUNDARY MISC KINETIC TOTAL TEMP POTENTIAL TOTALAVG TEMPAVG PRESSURE GPRESSURE VOLUME PRESSAVG GPRESSAVG
ENERGY: 0 1.7743 3.7557 4.2107 0.0000 -10872.7770 1481.7767 0.0000 0.0000 1749.7899 -7631.4696 296.1770 -9381.2594 -7631.4696 296.1770 163.0548 246.1763 30687.2065 163.0548 246.1763
ENERGY: 300000 1.5219 6.5408 3.7199 0.0000 -10883.2430 1440.3971 0.0000 0.0000 1788.7618 -7642.3016 302.7736 -9431.0633 -7657.4390 297.7055 -219.5304 -204.0786 30423.0137 71.8122 134.6433
ENERGY: 600000 1.8752 6.4085 3.7988 0.0000 -10918.2931 1539.1977 0.0000 0.0000 1738.5474 -7628.4654 294.2741 -9367.0129 -7638.3246 297.2829 915.8938 897.3652 30381.2532 297.9207 353.8593
ENERGY: 900000 4.6009 9.2089 3.7381 0.0000 -10926.7713 1443.7139 0.0000 0.0000 1779.8588 -7685.6507 301.2666 -9465.5095 -7645.5344 298.0426 -0.9874 45.5121 30234.3211 168.8223 221.6611
ENERGY: 1200000 1.4310 7.1157 4.0852 0.0000 -10926.8675 1511.6864 0.0000 0.0000 1800.4756 -7602.0735 304.7563 -9402.5491 -7636.8093 299.3735 453.1968 552.6242 30285.3568 102.7782 159.3597
ENERGY: 1500000 2.6768 6.4419 4.0335 0.0000 -10787.3807 1384.0105 0.0000 0.0000 1782.7870 -7607.4311 301.7623 -9390.2181 -7628.8663 300.1649 -473.8858 -385.0336 30730.4651 84.4803 147.4712
TCL: Running FEP window   8: Lambda1 0.35   Lambda2 0.39999999999999997 [dLambda 0.04999999999999999]
TCL: Setting parameter firsttimestep to 0
TCL: Setting parameter alchLambda to 0.35
Info: NONBONDED TABLE R-SQUARED SPACING: 0.0625
Info: NONBONDED TABLE SIZE: 705 POINTS
TCL: Setting parameter alchLambda2 to 0.39999999999999997
Info: NONBONDED TABLE R-SQUARED SPACING: 0.0625
Info: NONBONDED TABLE SIZE: 705 POINTS
TCL: Running for 1500000 steps
ETITLE: TS BOND ANGLE DIHED IMPRP ELECT VDW BOUNDARY MISC KINETIC TOTAL TEMP POTENTIAL TOTALAVG TEMPAVG PRESSURE GPRESSURE VOLUME PRESSAVG GPRESSAVG
ENERGY: 0 2.6768 6.4419 4.0335 0.0000 -10787.3797 1383.7442 0.0000 0.0000 1781.8826 -7608.6008 301.6092 -9390.4834 -7608.6008 301.6092 -450.5334 -380.7692 30730.4651 -450.5334 -380.7692
ENERGY: 300000 0.8566 5.8985 4.2050 0.0000 -10936.1418 1478.7564 0.0000 0.0000 1808.9359 -7637.4894 306.1883 -9446.4253 -7599.8483 305.4637 90.7726 108.1489 30330.7708 -221.0849 -179.5457
ENERGY: 600000 1.0585 9.6022 3.3096 0.0000 -10882.5346 1445.4709 0.0000 0.0000 1747.7622 -7675.3312 295.8338 -9423.0934 -7623.6563 301.3183 -104.7458 -80.8300 30268.8444 -176.7636 -124.0113
ENERGY: 900000 3.3283 3.4853 6.8573 0.0000 -10910.3032 1504.0156 0.0000 0.0000 1783.4047 -7609.2120 301.8668 -9392.6167 -7603.0895 301.5020 595.2385 623.5228 30453.2927 -110.1751 -46.8397
ENERGY: 1200000 3.9466 4.1761 5.4123 0.0000 -10723.1826 1400.1179 0.0000 0.0000 1792.2451 -7517.2846 303.3632 -9309.5298 -7597.0515 300.6574 -91.8678 -44.8387 30205.2192 -204.4560 -148.9708
ENERGY: 1500000 2.5432 4.9281 3.5706 0.0000 -10747.1679 1384.3275 0.0000 0.0000 1768.0538 -7583.7448 299.2685 -9351.7986 -7604.8245 300.9681 -344.2003 -269.3991 30701.5800 -198.4491 -141.6502
TCL: Running FEP window   9: Lambda1 0.39999999999999997 Lambda2 0.44999999999999996 [dLambda 0.04999999999999999]
TCL: Setting parameter firsttimestep to 0
TCL: Setting parameter alchLambda to 0.39999999999999997
Info: NONBONDED TABLE R-SQUARED SPACING: 0.0625
Info: NONBONDED TABLE SIZE: 705 POINTS
TCL: Setting parameter alchLambda2 to 0.44999999999999996
Info: NONBONDED TABLE R-SQUARED SPACING: 0.0625
Info: NONBONDED TABLE SIZE: 705 POINTS
TCL: Running for 1500000 steps
ETITLE: TS BOND ANGLE DIHED IMPRP ELECT VDW BOUNDARY MISC KINETIC TOTAL TEMP POTENTIAL TOTALAVG TEMPAVG PRESSURE GPRESSURE VOLUME PRESSAVG GPRESSAVG
ENERGY: 0 2.5432 4.9281 3.5706 0.0000 -10747.1680 1384.1388 0.0000 0.0000 1767.1662 -7584.8211 299.1182 -9351.9873 -7584.8211 299.1182 -352.6222 -269.9485 30701.5800 -352.6222 -269.9485
ENERGY: 300000 2.0686 4.6968 4.4215 0.0000 -10880.2657 1460.9256 0.0000 0.0000 1772.8106 -7635.3426 300.0736 -9408.1533 -7625.3617 301.8184 224.1921 224.5804 30290.1370 -201.8499 -142.0373
ENERGY: 600000 3.1703 5.8526 4.5884 0.0000 -10846.7431 1433.9195 0.0000 0.0000 1733.0097 -7666.2025 293.3368 -9399.2122 -7639.5134 298.6440 -37.2973 19.8570 30467.1281 -101.0449 -42.0859
ENERGY: 900000 0.8986 5.3586 6.5824 0.0000 -10698.1074 1348.4429 0.0000 0.0000 1762.5432 -7574.2817 298.3357 -9336.8249 -7635.2405 298.2943 -709.2452 -712.2182 30867.5386 -162.7136 -102.5773
ENERGY: 1200000 2.3966 4.2919 4.6934 0.0000 -10793.6197 1425.1069 0.0000 0.0000 1777.6154 -7579.5155 300.8869 -9357.1309 -7637.0343 298.9322 -114.6291 -71.8526 30624.5897 -61.6614 -5.6388
ENERGY: 1500000 0.9765 4.0904 4.4385 0.0000 -10918.7653 1478.9765 0.0000 0.0000 1848.5102 -7581.7733 312.8869 -9430.2835 -7632.6228 299.5166 255.6391 290.5271 30357.9118 -14.0345 43.1301
TCL: Running FEP window  10: Lambda1 0.44999999999999996 Lambda2 0.49999999999999994 [dLambda 0.04999999999999999]
TCL: Setting parameter firsttimestep to 0
TCL: Setting parameter alchLambda to 0.44999999999999996
Info: NONBONDED TABLE R-SQUARED SPACING: 0.0625
Info: NONBONDED TABLE SIZE: 705 POINTS
TCL: Setting parameter alchLambda2 to 0.49999999999999994
Info: NONBONDED TABLE R-SQUARED SPACING: 0.0625
Info: NONBONDED TABLE SIZE: 705 POINTS
TCL: Running for 1500000 steps
ETITLE: TS BOND ANGLE DIHED IMPRP ELECT VDW BOUNDARY MISC KINETIC TOTAL TEMP POTENTIAL TOTALAVG TEMPAVG PRESSURE GPRESSURE VOLUME PRESSAVG GPRESSAVG
ENERGY: 0 0.9765 4.0904 4.4385 0.0000 -10918.7673 1478.5801 0.0000 0.0000 1847.6315 -7583.0503 312.7381 -9430.6819 -7583.0503 312.7381 201.5552 286.9038 30357.9118 201.5552 286.9038
ENERGY: 300000 0.5961 5.9132 4.2586 0.0000 -10782.5185 1373.5777 0.0000 0.0000 1790.1967 -7607.9761 303.0165 -9398.1727 -7577.6637 305.4051 -820.1251 -679.3532 30824.5633 -234.2930 -160.1784
ENERGY: 600000 1.9931 7.8177 5.2171 0.0000 -11169.7594 1669.0866 0.0000 0.0000 1763.2341 -7722.4108 298.4527 -9485.6448 -7617.0683 301.0848 1651.0553 1645.9113 30042.7267 55.4200 102.5776
ENERGY: 900000 1.1669 5.1286 5.2259 0.0000 -10813.6391 1386.4701 0.0000 0.0000 1765.6102 -7650.0374 298.8549 -9415.6477 -7620.3015 301.2233 -396.2847 -332.9887 30346.2470 1.4008 49.3011
ENERGY: 1200000 1.7469 3.6685 3.2435 0.0000 -10801.9789 1417.1667 0.0000 0.0000 1694.8032 -7681.3501 286.8697 -9376.1533 -7620.5963 300.1164 -349.4212 -241.1407 30789.0699 -65.2966 -12.6785
ENERGY: 1500000 0.8440 5.6708 3.4922 0.0000 -10758.4758 1372.8047 0.0000 0.0000 1793.4718 -7582.1923 303.5708 -9375.6641 -7616.5104 300.0012 -417.4287 -375.1008 30475.0607 -22.9600 29.3306
TCL: Running FEP window  11: Lambda1 0.49999999999999994 Lambda2 0.5499999999999999 [dLambda 0.04999999999999999]
TCL: Setting parameter firsttimestep to 0
TCL: Setting parameter alchLambda to 0.49999999999999994
Info: NONBONDED TABLE R-SQUARED SPACING: 0.0625
Info: NONBONDED TABLE SIZE: 705 POINTS
TCL: Setting parameter alchLambda2 to 0.5499999999999999
Info: NONBONDED TABLE R-SQUARED SPACING: 0.0625
Info: NONBONDED TABLE SIZE: 705 POINTS
TCL: Running for 1500000 steps
ETITLE: TS BOND ANGLE DIHED IMPRP ELECT VDW BOUNDARY MISC KINETIC TOTAL TEMP POTENTIAL TOTALAVG TEMPAVG PRESSURE GPRESSURE VOLUME PRESSAVG GPRESSAVG
ENERGY: 0 0.8440 5.6708 3.4922 0.0000 -10758.4750 1373.1842 0.0000 0.0000 1792.5599 -7582.7241 303.4165 -9375.2840 -7582.7241 303.4165 -447.8997 -368.3539 30475.0607 -447.8997 -368.3539
ENERGY: 300000 0.8843 3.0704 4.9403 0.0000 -10785.0961 1428.0042 0.0000 0.0000 1833.2456 -7514.9513 310.3031 -9348.1969 -7519.5538 305.5538 -65.7719 -70.1337 30686.0947 65.6556 124.5925
ENERGY: 600000 2.2899 4.1647 5.1248 0.0000 -10934.8173 1494.1538 0.0000 0.0000 1794.9380 -7634.1462 303.8190 -9429.0841 -7576.3300 304.1073 193.5449 256.8666 30527.1881 93.2303 148.6299
ENERGY: 900000 3.1414 5.1417 4.0094 0.0000 -10923.3949 1506.5663 0.0000 0.0000 1751.3360 -7653.2000 296.4387 -9404.5361 -7584.1821 303.2875 596.4689 548.1814 30681.6307 128.3127 181.3881
ENERGY: 1200000 0.6808 2.7049 3.9273 0.0000 -10962.7709 1510.0803 0.0000 0.0000 1827.6251 -7617.7526 309.3518 -9445.3777 -7595.2888 303.3405 611.2938 667.9561 29896.6285 119.1433 178.4411
ENERGY: 1500000 0.2532 7.1998 4.6681 0.0000 -10755.4933 1425.8079 0.0000 0.0000 1812.8897 -7504.6747 306.8576 -9317.5643 -7593.9976 302.6318 -118.4303 -99.1616 30928.5496 81.9957 141.2468
TCL: Running FEP window  12: Lambda1 0.5499999999999999 Lambda2 0.6    [dLambda 0.050000000000000044]
TCL: Setting parameter firsttimestep to 0
TCL: Setting parameter alchLambda to 0.5499999999999999
Info: NONBONDED TABLE R-SQUARED SPACING: 0.0625
Info: NONBONDED TABLE SIZE: 705 POINTS
TCL: Setting parameter alchLambda2 to 0.6
Info: NONBONDED TABLE R-SQUARED SPACING: 0.0625
Info: NONBONDED TABLE SIZE: 705 POINTS
TCL: Running for 1500000 steps
ETITLE: TS BOND ANGLE DIHED IMPRP ELECT VDW BOUNDARY MISC KINETIC TOTAL TEMP POTENTIAL TOTALAVG TEMPAVG PRESSURE GPRESSURE VOLUME PRESSAVG GPRESSAVG
ENERGY: 0 0.2532 7.1998 4.6681 0.0000 -10755.7172 1426.3081 0.0000 0.0000 1811.9723 -7505.3157 306.7023 -9317.2880 -7505.3157 306.7023 -165.6730 -85.2200 30928.5496 -165.6730 -85.2200
ENERGY: 300000 1.2966 6.0612 3.9676 0.0000 -10833.9459 1413.3959 0.0000 0.0000 1829.6642 -7579.5605 309.6969 -9409.2247 -7575.9680 307.7767 -24.0086 65.8928 30122.8251 -126.3356 -57.8362
ENERGY: 600000 2.2689 5.7393 4.2019 0.0000 -10845.5853 1398.7486 0.0000 0.0000 1830.8565 -7603.7701 309.8987 -9434.6266 -7597.9772 305.6724 -429.5122 -398.8589 30539.0851 -167.1825 -115.2413
ENERGY: 900000 1.0212 2.9207 5.7101 0.0000 -10829.8295 1387.3523 0.0000 0.0000 1783.5402 -7649.2851 301.8898 -9432.8253 -7617.4406 303.7300 -310.9343 -241.5901 30284.8347 -251.1511 -192.0083
ENERGY: 1200000 1.4645 3.1258 4.2380 0.0000 -10754.6075 1373.8436 0.0000 0.0000 1783.2038 -7588.7317 301.8328 -9371.9355 -7616.1566 302.8756 -745.8273 -620.1558 30857.3885 -277.6296 -206.5843
ENERGY: 1500000 2.2908 7.6675 5.4998 0.0000 -10884.2094 1449.1589 0.0000 0.0000 1731.2885 -7688.3039 293.0454 -9419.5923 -7616.5691 301.9413 -230.6220 -228.5527 30620.9762 -203.1548 -137.4836
TCL: Running FEP window  13: Lambda1 0.6    Lambda2 0.65   [dLambda 0.050000000000000044]
TCL: Setting parameter firsttimestep to 0
TCL: Setting parameter alchLambda to 0.6
Info: NONBONDED TABLE R-SQUARED SPACING: 0.0625
Info: NONBONDED TABLE SIZE: 705 POINTS
TCL: Setting parameter alchLambda2 to 0.65
Info: NONBONDED TABLE R-SQUARED SPACING: 0.0625
Info: NONBONDED TABLE SIZE: 705 POINTS
TCL: Running for 1500000 steps
ETITLE: TS BOND ANGLE DIHED IMPRP ELECT VDW BOUNDARY MISC KINETIC TOTAL TEMP POTENTIAL TOTALAVG TEMPAVG PRESSURE GPRESSURE VOLUME PRESSAVG GPRESSAVG
ENERGY: 0 2.2908 7.6675 5.4998 0.0000 -10884.7621 1448.9665 0.0000 0.0000 1730.3845 -7689.9530 292.8924 -9420.3374 -7689.9530 292.8924 -298.0698 -228.2392 30620.9762 -298.0698 -228.2392
ENERGY: 300000 0.1994 4.6343 3.8669 0.0000 -11050.0044 1552.2875 0.0000 0.0000 1731.1441 -7757.8722 293.0210 -9489.0163 -7693.6245 296.8679 567.8309 619.3578 30213.5825 66.7389 137.4372
ENERGY: 600000 1.6075 4.7598 4.2469 0.0000 -10642.3106 1335.9294 0.0000 0.0000 1776.5247 -7519.2424 300.7023 -9295.7671 -7640.7190 297.9641 -581.7528 -519.9062 30515.5616 -52.6570 22.0241
ENERGY: 900000 2.2502 6.1773 3.8589 0.0000 -11021.8605 1533.1363 0.0000 0.0000 1816.7454 -7659.6925 307.5102 -9476.4378 -7630.4720 299.6569 701.7775 772.5939 30149.0559 -28.5115 43.0771
ENERGY: 1200000 2.0930 3.6900 4.9997 0.0000 -10862.4468 1490.4053 0.0000 0.0000 1784.8259 -7576.4329 302.1074 -9361.2588 -7629.6511 300.2214 569.0947 624.7145 30326.0063 72.3722 141.9120
ENERGY: 1500000 2.0597 4.5889 4.0463 0.0000 -10788.7720 1428.5273 0.0000 0.0000 1763.5895 -7585.9604 298.5128 -9349.5499 -7619.9674 300.2530 3.1639 42.5388 30583.1690 73.3708 141.1432
TCL: Running FEP window  14: Lambda1 0.65   Lambda2 0.7000000000000001 [dLambda 0.050000000000000044]
TCL: Setting parameter firsttimestep to 0
TCL: Setting parameter alchLambda to 0.65
Info: NONBONDED TABLE R-SQUARED SPACING: 0.0625
Info: NONBONDED TABLE SIZE: 705 POINTS
TCL: Setting parameter alchLambda2 to 0.7000000000000001
Info: NONBONDED TABLE R-SQUARED SPACING: 0.0625
Info: NONBONDED TABLE SIZE: 705 POINTS
TCL: Running for 1500000 steps
ETITLE: TS BOND ANGLE DIHED IMPRP ELECT VDW BOUNDARY MISC KINETIC TOTAL TEMP POTENTIAL TOTALAVG TEMPAVG PRESSURE GPRESSURE VOLUME PRESSAVG GPRESSAVG
ENERGY: 0 2.0597 4.5889 4.0463 0.0000 -10789.4261 1428.1221 0.0000 0.0000 1762.6963 -7587.9128 298.3616 -9350.6091 -7587.9128 298.3616 -27.6411 44.8351 30583.1690 -27.6411 44.8351
ENERGY: 300000 2.8803 3.9575 4.1360 0.0000 -10803.8590 1394.9115 0.0000 0.0000 1791.3311 -7606.6426 303.2085 -9397.9737 -7659.7932 298.1681 -381.5314 -378.7922 30822.1210 50.7635 88.7636
ENERGY: 600000 2.5422 3.4107 4.4736 0.0000 -10743.0512 1358.6219 0.0000 0.0000 1777.9917 -7596.0110 300.9506 -9374.0027 -7649.0278 299.5981 -959.1749 -890.8787 30906.0224 -224.0968 -165.9949
ENERGY: 900000 0.3987 6.1500 3.4889 0.0000 -10660.9728 1336.0839 0.0000 0.0000 1765.9199 -7548.9313 298.9073 -9314.8512 -7617.9060 299.2382 -1032.1215 -972.1267 31149.9799 -328.5657 -271.2040
ENERGY: 1200000 1.6047 9.7770 4.5833 0.0000 -10819.4098 1373.1957 0.0000 0.0000 1729.7642 -7700.4849 292.7874 -9430.2491 -7614.4281 299.3609 -802.6960 -682.1762 30608.2439 -317.0809 -250.9862
ENERGY: 1500000 1.2257 7.4408 2.9101 0.0000 -10963.7257 1476.7215 0.0000 0.0000 1769.4032 -7706.0243 299.4969 -9475.4275 -7623.8699 299.3702 90.4508 106.4006 30455.2474 -261.7298 -197.4976
TCL: Running FEP window  15: Lambda1 0.7000000000000001 Lambda2 0.7500000000000001 [dLambda 0.050000000000000044]
TCL: Setting parameter firsttimestep to 0
TCL: Setting parameter alchLambda to 0.7000000000000001
Info: NONBONDED TABLE R-SQUARED SPACING: 0.0625
Info: NONBONDED TABLE SIZE: 705 POINTS
TCL: Setting parameter alchLambda2 to 0.7500000000000001
Info: NONBONDED TABLE R-SQUARED SPACING: 0.0625
Info: NONBONDED TABLE SIZE: 705 POINTS
TCL: Running for 1500000 steps
ETITLE: TS BOND ANGLE DIHED IMPRP ELECT VDW BOUNDARY MISC KINETIC TOTAL TEMP POTENTIAL TOTALAVG TEMPAVG PRESSURE GPRESSURE VOLUME PRESSAVG GPRESSAVG
ENERGY: 0 1.2257 7.4408 2.9101 0.0000 -10965.6228 1476.7701 0.0000 0.0000 1768.5385 -7708.7375 299.3505 -9477.2760 -7708.7375 299.3505 26.6945 110.6468 30455.2474 26.6945 110.6468
ENERGY: 300000 2.1515 4.2441 3.3958 0.0000 -10902.7527 1449.5767 0.0000 0.0000 1812.3673 -7631.0173 306.7692 -9443.3846 -7677.3404 299.1816 -231.4785 -230.8886 30957.0101 182.0479 263.3455
ENERGY: 600000 4.2290 6.1050 4.1534 0.0000 -10913.8442 1495.5371 0.0000 0.0000 1811.0661 -7592.7535 306.5489 -9403.8196 -7655.0435 298.5225 412.3072 455.5742 30535.9315 130.6380 208.4565
ENERGY: 900000 0.5625 6.7874 6.7237 0.0000 -10712.6791 1355.8017 0.0000 0.0000 1806.8050 -7535.9987 305.8277 -9342.8037 -7636.0449 299.3588 -720.8462 -636.3892 30910.6213 -57.6765 15.9795
ENERGY: 1200000 0.8670 3.0377 4.6434 0.0000 -10788.4708 1351.2197 0.0000 0.0000 1791.1259 -7637.5772 303.1737 -9428.7031 -7635.4400 299.2528 -494.4050 -465.8828 30173.0901 -82.8025 -8.8463
ENERGY: 1500000 1.0308 6.2646 4.7727 0.0000 -10941.0232 1535.0073 0.0000 0.0000 1827.9604 -7565.9874 309.4085 -9393.9478 -7639.0832 299.3055 784.4319 849.5767 30327.9388 13.4683 87.3368
TCL: Running FEP window  16: Lambda1 0.7500000000000001 Lambda2 0.8000000000000002 [dLambda 0.050000000000000044]
TCL: Setting parameter firsttimestep to 0
TCL: Setting parameter alchLambda to 0.7500000000000001
Info: NONBONDED TABLE R-SQUARED SPACING: 0.0625
Info: NONBONDED TABLE SIZE: 705 POINTS
TCL: Setting parameter alchLambda2 to 0.8000000000000002
Info: NONBONDED TABLE R-SQUARED SPACING: 0.0625
Info: NONBONDED TABLE SIZE: 705 POINTS
TCL: Running for 1500000 steps
ETITLE: TS BOND ANGLE DIHED IMPRP ELECT VDW BOUNDARY MISC KINETIC TOTAL TEMP POTENTIAL TOTALAVG TEMPAVG PRESSURE GPRESSURE VOLUME PRESSAVG GPRESSAVG
ENERGY: 0 1.0308 6.2646 4.7727 0.0000 -10943.5029 1536.2147 0.0000 0.0000 1827.0319 -7568.1882 309.2514 -9395.2201 -7568.1882 309.2514 798.0004 865.6350 30327.9388 798.0004 865.6350
ENERGY: 300000 2.4050 3.2030 4.2658 0.0000 -10935.3941 1528.3257 0.0000 0.0000 1763.0614 -7634.1333 298.4234 -9397.1947 -7605.2433 303.2137 418.5427 484.8797 30794.0568 409.2738 483.2224
ENERGY: 600000 1.6732 5.3078 3.7143 0.0000 -10835.1555 1438.7629 0.0000 0.0000 1761.4343 -7624.2629 298.1480 -9385.6972 -7609.7283 301.5061 17.4614 56.9438 30469.2937 169.9408 236.7150
ENERGY: 900000 1.6626 7.8187 5.4562 0.0000 -10942.6602 1457.2460 0.0000 0.0000 1830.6257 -7639.8509 309.8597 -9470.4766 -7607.5467 303.5656 -340.5158 -301.5457 30890.4287 152.7962 218.7754
ENERGY: 1200000 0.7844 12.4705 4.7899 0.0000 -10919.8823 1443.0031 0.0000 0.0000 1782.6088 -7676.2256 301.7321 -9458.8344 -7617.4837 302.5240 -234.6806 -121.1254 30459.2571 106.6086 180.5798
ENERGY: 1500000 2.3323 5.1106 3.9000 0.0000 -10877.4383 1460.7953 0.0000 0.0000 1786.5787 -7618.7213 302.4041 -9405.3001 -7620.8796 302.3863 375.6836 397.4262 30072.0595 66.9251 136.2055
TCL: Running FEP window  17: Lambda1 0.8000000000000002 Lambda2 0.8500000000000002 [dLambda 0.050000000000000044]
TCL: Setting parameter firsttimestep to 0
TCL: Setting parameter alchLambda to 0.8000000000000002
Info: NONBONDED TABLE R-SQUARED SPACING: 0.0625
Info: NONBONDED TABLE SIZE: 705 POINTS
TCL: Setting parameter alchLambda2 to 0.8500000000000002
Info: NONBONDED TABLE R-SQUARED SPACING: 0.0625
Info: NONBONDED TABLE SIZE: 705 POINTS
TCL: Running for 1500000 steps
ETITLE: TS BOND ANGLE DIHED IMPRP ELECT VDW BOUNDARY MISC KINETIC TOTAL TEMP POTENTIAL TOTALAVG TEMPAVG PRESSURE GPRESSURE VOLUME PRESSAVG GPRESSAVG
ENERGY: 0 2.3323 5.1106 3.9000 0.0000 -10879.0786 1461.7122 0.0000 0.0000 1785.6987 -7620.3247 302.2551 -9406.0234 -7620.3247 302.2551 329.7386 410.9771 30072.0595 329.7386 410.9771
ENERGY: 300000 0.4574 3.9524 5.6384 0.0000 -10921.7009 1503.7508 0.0000 0.0000 1760.3093 -7647.5927 297.9576 -9407.9020 -7645.9581 297.5308 470.2344 488.2940 30506.0557 -230.7225 -173.6450
ENERGY: 600000 2.2131 6.7019 6.1134 0.0000 -10702.9795 1345.5181 0.0000 0.0000 1773.1761 -7569.2568 300.1355 -9342.4330 -7635.7793 298.0838 -838.1362 -731.8903 30800.9009 -376.6734 -308.0484
ENERGY: 900000 1.8231 6.7189 4.2909 0.0000 -10826.1175 1378.2669 0.0000 0.0000 1807.7885 -7627.2292 305.9941 -9435.0177 -7640.2159 299.1582 -584.3682 -570.2055 30465.7159 -301.8641 -250.3081
ENERGY: 1200000 3.9452 5.6456 4.8700 0.0000 -10821.7619 1398.2577 0.0000 0.0000 1761.3247 -7647.7188 298.1295 -9409.0434 -7637.3738 298.6035 -726.3363 -687.6202 31026.0619 -359.9780 -309.9027
ENERGY: 1500000 2.3332 6.5967 3.1239 0.0000 -11131.6756 1613.2611 0.0000 0.0000 1779.3585 -7727.0024 301.1819 -9506.3608 -7640.2146 298.3547 975.7681 1054.8321 30333.3173 -300.6732 -243.3112
TCL: Running FEP window  18: Lambda1 0.8500000000000002 Lambda2 0.9000000000000002 [dLambda 0.050000000000000044]
TCL: Setting parameter firsttimestep to 0
TCL: Setting parameter alchLambda to 0.8500000000000002
Info: NONBONDED TABLE R-SQUARED SPACING: 0.0625
Info: NONBONDED TABLE SIZE: 705 POINTS
TCL: Setting parameter alchLambda2 to 0.9000000000000002
Info: NONBONDED TABLE R-SQUARED SPACING: 0.0625
Info: NONBONDED TABLE SIZE: 705 POINTS
TCL: Running for 1500000 steps
ETITLE: TS BOND ANGLE DIHED IMPRP ELECT VDW BOUNDARY MISC KINETIC TOTAL TEMP POTENTIAL TOTALAVG TEMPAVG PRESSURE GPRESSURE VOLUME PRESSAVG GPRESSAVG
ENERGY: 0 2.3332 6.5967 3.1239 0.0000 -11133.4754 1613.2289 0.0000 0.0000 1778.4739 -7729.7189 301.0322 -9508.1928 -7729.7189 301.0322 971.5643 1064.6054 30333.3173 971.5643 1064.6054
ENERGY: 300000 1.2920 4.3929 3.8140 0.0000 -10958.7201 1514.7142 0.0000 0.0000 1771.4956 -7663.0115 299.8510 -9434.5071 -7634.2309 301.6723 568.0369 631.8291 30333.3667 251.9131 316.9869
ENERGY: 600000 2.6707 4.3021 5.5788 0.0000 -11097.2187 1612.9406 0.0000 0.0000 1755.9173 -7715.8092 297.2142 -9471.7264 -7652.6303 301.1946 1428.0032 1460.6509 30002.8882 358.7940 414.5388
ENERGY: 900000 0.8118 7.4756 4.0524 0.0000 -10840.1251 1481.8079 0.0000 0.0000 1721.5184 -7624.4589 291.3917 -9345.9774 -7648.5257 299.6780 228.2825 287.0659 30861.1691 166.5399 227.8992
ENERGY: 1200000 1.6822 3.5179 4.3821 0.0000 -10818.7962 1444.8764 0.0000 0.0000 1801.2148 -7563.1228 304.8814 -9364.3376 -7651.1674 299.4141 9.0652 135.8841 30493.6065 74.3639 137.0392
ENERGY: 1500000 2.2641 4.6668 3.7523 0.0000 -10675.8881 1351.4822 0.0000 0.0000 1810.3544 -7503.3682 306.4284 -9313.7226 -7629.2709 299.6345 -732.4857 -685.5127 31126.0180 108.7799 165.2820
TCL: Running FEP window  19: Lambda1 0.9000000000000002 Lambda2 0.9500000000000003 [dLambda 0.050000000000000044]
TCL: Setting parameter firsttimestep to 0
TCL: Setting parameter alchLambda to 0.9000000000000002
Info: NONBONDED TABLE R-SQUARED SPACING: 0.0625
Info: NONBONDED TABLE SIZE: 705 POINTS
TCL: Setting parameter alchLambda2 to 0.9500000000000003
Info: NONBONDED TABLE R-SQUARED SPACING: 0.0625
Info: NONBONDED TABLE SIZE: 705 POINTS
TCL: Running for 1500000 steps
ETITLE: TS BOND ANGLE DIHED IMPRP ELECT VDW BOUNDARY MISC KINETIC TOTAL TEMP POTENTIAL TOTALAVG TEMPAVG PRESSURE GPRESSURE VOLUME PRESSAVG GPRESSAVG
ENERGY: 0 2.2641 4.6668 3.7523 0.0000 -10678.0887 1351.6990 0.0000 0.0000 1809.4983 -7506.2082 306.2835 -9315.7065 -7506.2082 306.2835 -761.7226 -676.9284 31126.0180 -761.7226 -676.9284
ENERGY: 300000 1.2474 6.6783 4.2689 0.0000 -10851.2953 1435.9678 0.0000 0.0000 1767.4847 -7635.6482 299.1721 -9403.1329 -7567.7291 300.1697 -56.0159 -10.5160 30501.4851 -409.6886 -340.6203
ENERGY: 600000 2.7574 5.3322 5.3514 0.0000 -10851.9059 1393.3417 0.0000 0.0000 1733.7388 -7711.3844 293.4602 -9445.1231 -7621.4891 298.2645 -410.6939 -325.9791 30374.9241 -372.2628 -299.0869
ENERGY: 900000 1.1484 8.5619 4.4062 0.0000 -10799.7983 1420.8836 0.0000 0.0000 1756.2604 -7608.5378 297.2723 -9364.7982 -7620.1063 299.1853 -142.3169 -38.5403 30417.6306 -454.1537 -379.0186
ENERGY: 1200000 3.5135 6.0441 4.4047 0.0000 -10896.9926 1459.9529 0.0000 0.0000 1779.2144 -7643.8630 301.1576 -9423.0774 -7632.5250 298.3316 -56.8480 27.8365 30669.2388 -409.5035 -334.4639
ENERGY: 1500000 0.1158 3.6147 5.0146 0.0000 -10946.5129 1488.7738 0.0000 0.0000 1781.8152 -7667.1789 301.5978 -9448.9941 -7638.8027 299.0589 79.8174 108.4690 30708.0044 -298.5274 -227.2928
TCL: Running FEP window  20: Lambda1 0.9500000000000003 Lambda2 1.0    [dLambda 0.04999999999999971]
TCL: Setting parameter firsttimestep to 0
TCL: Setting parameter alchLambda to 0.9500000000000003
Info: NONBONDED TABLE R-SQUARED SPACING: 0.0625
Info: NONBONDED TABLE SIZE: 705 POINTS
TCL: Setting parameter alchLambda2 to 1.0
Info: NONBONDED TABLE R-SQUARED SPACING: 0.0625
Info: NONBONDED TABLE SIZE: 705 POINTS
TCL: Running for 1500000 steps
ETITLE: TS BOND ANGLE DIHED IMPRP ELECT VDW BOUNDARY MISC KINETIC TOTAL TEMP POTENTIAL TOTALAVG TEMPAVG PRESSURE GPRESSURE VOLUME PRESSAVG GPRESSAVG
ENERGY: 0 0.1158 3.6147 5.0146 0.0000 -10948.9679 1489.9822 0.0000 0.0000 1780.9500 -7669.2906 301.4513 -9450.2406 -7669.2906 301.4513 40.4644 127.6274 30708.0044 40.4644 127.6274
ENERGY: 300000 0.8435 5.1340 4.9465 0.0000 -10833.8593 1466.4562 0.0000 0.0000 1716.1121 -7640.3670 290.4766 -9356.4791 -7641.3365 296.4323 610.9497 648.3202 30190.5981 40.3467 79.1985
ENERGY: 600000 1.5934 4.5314 4.2244 0.0000 -10980.4820 1497.3477 0.0000 0.0000 1774.0988 -7698.6863 300.2917 -9472.7851 -7651.4803 297.5718 172.5570 235.1146 30566.5843 -0.4440 41.9134
ENERGY: 900000 0.7805 3.7089 3.2285 0.0000 -10883.6549 1373.6276 0.0000 0.0000 1741.1244 -7761.1850 294.7103 -9502.3094 -7664.8964 297.9912 -628.4632 -548.8789 30149.4665 7.0415 47.6501
ENERGY: 1200000 2.9258 4.3834 4.0011 0.0000 -10809.8466 1400.1414 0.0000 0.0000 1743.1867 -7655.2082 295.0594 -9398.3950 -7671.2425 297.9432 -396.9522 -393.8154 30824.8545 -59.6037 -18.9784
ENERGY: 1500000 1.9416 7.4854 4.2444 0.0000 -10871.3600 1480.1421 0.0000 0.0000 1762.6480 -7614.8985 298.3535 -9377.5465 -7658.8288 298.1237 186.0031 247.2195 30847.2500 -35.9954 4.5380
TCL: Exiting due to exit command.
