Info: SIMULATION PARAMETERS:
Info: TIMESTEP               2
Info: NUMBER OF STEPS        0
Info: STEPS PER CYCLE        10
Info: PERIODIC CELL BASIS 1  30.9514 0 0
Info: PERIODIC CELL BASIS 2  0 29.5518 0
Info: PERIODIC CELL BASIS 3  0 0 32.9056
Info: PERIODIC CELL CENTER   0 0 0
Info: WRAPPING WATERS AROUND PERIODIC BOUNDARIES ON OUTPUT.
Info: WRAPPING ALL CLUSTERS AROUND PERIODIC BOUNDARIES ON OUTPUT.
Info: FIRST LDB TIMESTEP     50
Info: LAST LDB TIMESTEP     -1
Info: HOM BACKGROUND SCALING 1
Info: PME BACKGROUND SCALING 1
Info: MIN ATOMS PER PATCH    40
Info: EMPTY PATCH LOAD       40 ATOMS
Info: VELOCITY FILE          mobley_755351_equil.vel
Info: CENTER OF MASS MOVING INITIALLY? NO
Info: DIELECTRIC             1
Info: EXCLUDE                SCALED ONE-FOUR
Info: 1-4 ELECTROSTATICS SCALED BY 0.833333
Info: MODIFIED 1-4 VDW PARAMETERS WILL BE USED
Info: DCD FILENAME           mobley_755351_prod.dcd
Info: DCD FREQUENCY          100000
Info: DCD FIRST STEP         100000
Info: DCD FILE WILL CONTAIN UNIT CELL DATA
Info: XST FILENAME           mobley_755351_prod.xst
Info: XST FREQUENCY          100000
Info: NO VELOCITY DCD OUTPUT
Info: NO FORCE DCD OUTPUT
Info: OUTPUT FILENAME        mobley_755351_prod
Info: BINARY OUTPUT FILES WILL BE USED
Info: RESTART FILENAME       mobley_755351_prod.restart
Info: RESTART FREQUENCY      100000
Info: BINARY RESTART FILES WILL BE USED
Info: CUTOFF                 9
Info: PAIRLIST DISTANCE      11
Info: PAIRLIST SHRINK RATE   0.01
Info: PAIRLIST GROW RATE     0.01
Info: PAIRLIST TRIGGER       0.3
Info: PAIRLISTS PER CYCLE    2
Info: PAIRLISTS ENABLED
Info: MARGIN                 2
Info: HYDROGEN GROUP CUTOFF  2.5
Info: PATCH DIMENSION        15.5
Info: ENERGY OUTPUT STEPS    100000
Info: ENERGY EVALUATION STEPS    100000
Info: OUTPUT ENERGY PRECISION 4
Info: CROSSTERM ENERGY INCLUDED IN DIHEDRAL
Info: TIMING OUTPUT STEPS    1000000
Info: PRESSURE OUTPUT STEPS  100000
Info: ALCHEMICAL FEP ON
Info: FEP CURRENT LAMBDA VALUE     0
Info: FEP COMPARISON LAMBDA VALUE  0.05
Info: FEP INTRA-ALCHEMICAL NON-BONDED INTERACTIONS WILL BE RETAINED
Info: FEP INTRA-ALCHEMICAL BONDED INTERACTIONS WILL BE RETAINED
Info: FEP VDW SHIFTING COEFFICIENT 5
Info: FEP ELEC. ACTIVE FOR ANNIHILATED PARTICLES BETWEEN LAMBDA = 0 AND LAMBDA = 0.5
Info: FEP ELEC. ACTIVE FOR EXNIHILATED PARTICLES BETWEEN LAMBDA = 0.5 AND LAMBDA = 1
Info: FEP VDW ACTIVE FOR ANNIHILATED PARTICLES BETWEEN LAMBDA = 0 AND LAMBDA = 1
Info: FEP VDW ACTIVE FOR EXNIHILATED PARTICLES BETWEEN LAMBDA = 0 AND LAMBDA = 1
Info: FEP BOND ACTIVE FOR ANNIHILATED PARTICLES BETWEEN LAMBDA = 1 AND LAMBDA = 1
Info: FEP BOND ACTIVE FOR EXNIHILATED PARTICLES BETWEEN LAMBDA = 0 AND LAMBDA = 0
Info: LANGEVIN DYNAMICS ACTIVE
Info: LANGEVIN TEMPERATURE   300
Info: LANGEVIN USING BBK INTEGRATOR
Info: LANGEVIN DAMPING COEFFICIENT IS 1 INVERSE PS
Info: LANGEVIN DYNAMICS APPLIED TO HYDROGENS
Info: LANGEVIN PISTON PRESSURE CONTROL ACTIVE
Info:        TARGET PRESSURE IS 1.01325 BAR
Info:     OSCILLATION PERIOD IS 50 FS
Info:             DECAY TIME IS 25 FS
Info:     PISTON TEMPERATURE IS 300 K
Info:       PRESSURE CONTROL IS GROUP-BASED
Info:    INITIAL STRAIN RATE IS -0.000537576 -0.000537576 -0.000537576
Info:       CELL FLUCTUATION IS ISOTROPIC
Info: PARTICLE MESH EWALD (PME) ACTIVE
Info: PME TOLERANCE               1e-06
Info: PME EWALD COEFFICIENT       0.348832
Info: PME INTERPOLATION ORDER     4
Info: PME GRID DIMENSIONS         32 32 36
Info: PME MAXIMUM GRID SPACING    1
Info: PME CALCULATION WILL BE PERFORMED ON GPU
Info: FULL ELECTROSTATIC EVALUATION FREQUENCY      2
Info: USING VERLET I (r-RESPA) MTS SCHEME.
Info: C1 SPLITTING OF LONG RANGE ELECTROSTATICS
Info: PLACING ATOMS IN PATCHES BY HYDROGEN GROUPS
Info: RIGID BONDS TO HYDROGEN : ALL
Info:         ERROR TOLERANCE : 1e-08
Info:          MAX ITERATIONS : 100
Info: RIGID WATER USING SETTLE ALGORITHM
Info: RANDOM NUMBER SEED     1743776734
Info: USE HYDROGEN BONDS?    NO
Info: Using AMBER format force field!
Info: AMBER PARM FILE        mobley_755351.prmtop
Info: COORDINATE PDB         mobley_755351.pdb
Info: Exclusions will be read from PARM file!
Info: SCNB (VDW SCALING)     2
Info: USING ARITHMETIC MEAN TO COMBINE L-J SIGMA PARAMETERS
Info: BINARY COORDINATES     mobley_755351_equil.coor
Info: SUMMARY OF PARAMETERS:
Info: 9 BONDS
Info: 9 ANGLES
Info:   9 HARMONIC
Info:   0 COSINE-BASED
Info: 5 DIHEDRAL
Info: 0 IMPROPER
Info: 0 CROSSTERM
Info: 0 VDW
Info: 45 VDW_PAIRS
Info: 0 NBTHOLE_PAIRS
Info: To read alchdata from file: mobley_755351.pdb
Info: To read alchflag data from column: 5
Info: STRUCTURE SUMMARY:
Info: 2937 ATOMS
Info: 2937 BONDS
Info: 28 ANGLES
Info: 40 DIHEDRALS
Info: 0 IMPROPERS
Info: 0 CROSSTERMS
Info: 2995 EXCLUSIONS
Info: 2928 RIGID BONDS
Info: ALCH: 0 ATOMS TO DISAPPEAR IN FINAL STATE
Info: ALCH: 18 ATOMS TO APPEAR IN FINAL STATE
Info: 5883 DEGREES OF FREEDOM
Info: 982 HYDROGEN GROUPS
Info: 4 ATOMS IN LARGEST HYDROGEN GROUP
Info: 982 MIGRATION GROUPS
Info: 4 ATOMS IN LARGEST MIGRATION GROUP
Info: TOTAL MASS = 17652.7 amu
Info: TOTAL CHARGE = -0.000100024 e
Info: MASS DENSITY = 0.973949 g/cm^3
Info: ATOM DENSITY = 0.0975819 atoms/A^3
Info: ADDED 0 IMPLICIT EXCLUSIONS
Info: NONBONDED TABLE R-SQUARED SPACING: 0.0625
Info: NONBONDED TABLE SIZE: 705 POINTS
Info: REMOVING COM VELOCITY 0.0444896 0.0278752 -0.00146711
Info: Use 3D box decompostion in PME FFT.
Info: Updated CUDA force table with 4096 elements.
Info: Updated CUDA LJ table with 9 x 9 elements.
Info: Found 19 unique exclusion lists needing 48 bytes
TCL: Running for 1500000 steps
ETITLE: TS BOND ANGLE DIHED IMPRP ELECT VDW BOUNDARY MISC KINETIC TOTAL TEMP POTENTIAL TOTALAVG TEMPAVG PRESSURE GPRESSURE VOLUME PRESSAVG GPRESSAVG
ENERGY: 0 1.7548 9.3900 4.2689 0.0000 -10656.9072 1509.4286 0.0000 0.0000 1736.2712 -7395.7937 297.0360 -9132.0649 -7395.7937 297.0360 916.5349 1007.9496 30097.7957 916.5349 1007.9496
ENERGY: 300000 1.4244 8.5510 4.6660 0.0000 -10685.2384 1360.0501 0.0000 0.0000 1746.7447 -7563.8022 298.8278 -9310.5470 -7465.7666 299.7861 -842.8583 -797.6389 30074.7721 -83.7923 -14.3878
ENERGY: 600000 1.8787 11.4540 3.2738 0.0000 -10824.9833 1506.4655 0.0000 0.0000 1780.2208 -7521.6905 304.5548 -9301.9113 -7460.9595 303.0980 348.3741 402.0533 30076.1559 54.5927 113.2538
ENERGY: 900000 1.6857 5.2213 7.9928 0.0000 -10652.5609 1431.8468 0.0000 0.0000 1755.1042 -7450.7102 300.2579 -9205.8143 -7475.2155 301.9249 -65.1914 -27.6923 30406.0959 155.9956 199.2195
ENERGY: 1200000 4.4636 8.3162 4.6170 0.0000 -10632.6561 1404.0036 0.0000 0.0000 1746.2078 -7465.0479 298.7359 -9211.2557 -7467.4221 300.8157 -293.3811 -287.2201 30218.4440 225.7669 270.9176
ENERGY: 1500000 0.9667 3.7776 6.4402 0.0000 -10677.6723 1417.6978 0.0000 0.0000 1746.7969 -7501.9932 298.8367 -9248.7901 -7475.8953 300.2540 -115.1749 -62.5171 29809.9975 146.9132 193.8204
TCL: Running FEP window   2: Lambda1 0.05   Lambda2 0.1    [dLambda 0.05  ]
TCL: Setting parameter firsttimestep to 0
TCL: Setting parameter alchLambda to 0.05
Info: NONBONDED TABLE R-SQUARED SPACING: 0.0625
Info: NONBONDED TABLE SIZE: 705 POINTS
TCL: Setting parameter alchLambda2 to 0.1
Info: NONBONDED TABLE R-SQUARED SPACING: 0.0625
Info: NONBONDED TABLE SIZE: 705 POINTS
TCL: Running for 1500000 steps
ETITLE: TS BOND ANGLE DIHED IMPRP ELECT VDW BOUNDARY MISC KINETIC TOTAL TEMP POTENTIAL TOTALAVG TEMPAVG PRESSURE GPRESSURE VOLUME PRESSAVG GPRESSAVG
ENERGY: 0 0.9667 3.7776 6.4402 0.0000 -10677.6700 1418.3554 0.0000 0.0000 1745.9200 -7502.2101 298.6867 -9248.1301 -7502.2101 298.6867 -141.4860 -61.1257 29809.9975 -141.4860 -61.1257
ENERGY: 300000 1.6795 7.0796 3.1281 0.0000 -10816.5898 1484.3612 0.0000 0.0000 1727.6054 -7592.7359 295.5535 -9320.3414 -7540.9284 296.1344 -165.4414 -111.1077 30207.1402 37.8600 104.7736
ENERGY: 600000 2.8500 9.4559 7.1920 0.0000 -10650.2959 1393.5946 0.0000 0.0000 1791.7694 -7445.4340 306.5305 -9237.2034 -7498.5117 300.1919 -416.9905 -340.6679 30073.4174 -133.0550 -75.8668
ENERGY: 900000 2.0009 7.1413 9.6835 0.0000 -10554.4600 1401.6213 0.0000 0.0000 1828.2753 -7305.7376 312.7758 -9134.0129 -7476.1858 302.4232 -31.9249 41.8364 30171.0926 -5.9369 50.2488
ENERGY: 1200000 1.2178 5.0280 6.6157 0.0000 -10568.8586 1385.7154 0.0000 0.0000 1741.7486 -7428.5330 297.9731 -9170.2817 -7470.1003 300.9727 -660.3887 -560.7588 30774.7145 24.4877 85.6852
ENERGY: 1500000 4.8865 5.8017 3.6280 0.0000 -10631.7501 1406.3901 0.0000 0.0000 1747.0247 -7464.0190 298.8757 -9211.0437 -7474.8446 300.7181 -127.9979 -132.1065 29834.5375 61.9770 118.5560
TCL: Running FEP window   3: Lambda1 0.1    Lambda2 0.15000000000000002 [dLambda 0.05000000000000002]
TCL: Setting parameter firsttimestep to 0
TCL: Setting parameter alchLambda to 0.1
Info: NONBONDED TABLE R-SQUARED SPACING: 0.0625
Info: NONBONDED TABLE SIZE: 705 POINTS
TCL: Setting parameter alchLambda2 to 0.15000000000000002
Info: NONBONDED TABLE R-SQUARED SPACING: 0.0625
Info: NONBONDED TABLE SIZE: 705 POINTS
TCL: Running for 1500000 steps
ETITLE: TS BOND ANGLE DIHED IMPRP ELECT VDW BOUNDARY MISC KINETIC TOTAL TEMP POTENTIAL TOTALAVG TEMPAVG PRESSURE GPRESSURE VOLUME PRESSAVG GPRESSAVG
ENERGY: 0 4.8865 5.8017 3.6280 0.0000 -10631.7497 1409.5674 0.0000 0.0000 1746.1274 -7461.7387 298.7222 -9207.8660 -7461.7387 298.7222 -211.7882 -119.4311 29834.5375 -211.7882 -119.4311
ENERGY: 300000 2.3998 4.5824 7.8990 0.0000 -10645.3814 1402.1341 0.0000 0.0000 1699.9377 -7528.4284 290.8202 -9228.3661 -7478.7325 296.9526 -451.9526 -335.4868 30257.3152 55.4214 134.8649
ENERGY: 600000 2.5629 4.5878 9.0852 0.0000 -10583.0986 1346.5050 0.0000 0.0000 1778.1300 -7442.2277 304.1971 -9220.3578 -7464.9020 298.8515 -840.1377 -725.6811 30288.2388 -309.7674 -231.5974
ENERGY: 900000 2.4771 10.2461 2.3741 0.0000 -10589.4942 1346.9536 0.0000 0.0000 1703.2667 -7524.1766 291.3897 -9227.4433 -7472.8970 297.7492 -689.0304 -590.1727 29952.8488 -236.0067 -155.6833
ENERGY: 1200000 2.1885 6.6758 5.7680 0.0000 -10494.2026 1322.7971 0.0000 0.0000 1764.4032 -7392.3700 301.8487 -9156.7732 -7466.3208 298.3599 -927.4888 -894.8148 30484.0597 -264.1801 -187.1684
ENERGY: 1500000 2.7949 4.9352 5.6763 0.0000 -10607.4227 1389.0843 0.0000 0.0000 1767.2674 -7437.6645 302.3387 -9204.9319 -7462.4422 299.1797 -288.9450 -278.3543 30218.1757 -188.3894 -116.7233
TCL: Running FEP window   4: Lambda1 0.15000000000000002 Lambda2 0.2    [dLambda 0.04999999999999999]
TCL: Setting parameter firsttimestep to 0
TCL: Setting parameter alchLambda to 0.15000000000000002
Info: NONBONDED TABLE R-SQUARED SPACING: 0.0625
Info: NONBONDED TABLE SIZE: 705 POINTS
TCL: Setting parameter alchLambda2 to 0.2
Info: NONBONDED TABLE R-SQUARED SPACING: 0.0625
Info: NONBONDED TABLE SIZE: 705 POINTS
TCL: Running for 1500000 steps
ETITLE: TS BOND ANGLE DIHED IMPRP ELECT VDW BOUNDARY MISC KINETIC TOTAL TEMP POTENTIAL TOTALAVG TEMPAVG PRESSURE GPRESSURE VOLUME PRESSAVG GPRESSAVG
ENERGY: 0 2.7949 4.9352 5.6763 0.0000 -10607.4236 1391.2565 0.0000 0.0000 1766.3630 -7436.3977 302.1840 -9202.7607 -7436.3977 302.1840 -351.5143 -265.0030 30218.1757 -351.5143 -265.0030
ENERGY: 300000 4.5269 8.0243 8.8884 0.0000 -10662.4686 1455.4777 0.0000 0.0000 1720.0133 -7465.5380 294.2547 -9185.5513 -7466.4896 302.4316 388.9425 441.8650 30133.7431 -91.5034 -6.2537
ENERGY: 600000 1.5433 6.8276 2.4095 0.0000 -10731.7172 1466.6744 0.0000 0.0000 1715.0737 -7539.1888 293.4096 -9254.2625 -7469.7856 301.9097 190.3018 240.9934 29929.7764 -13.4967 61.5999
ENERGY: 900000 1.6584 7.4322 6.2673 0.0000 -10581.2761 1405.5691 0.0000 0.0000 1738.9039 -7421.4451 297.4864 -9160.3490 -7466.5234 301.0859 -94.8969 -3.8911 30318.7965 3.9501 70.8052
ENERGY: 1200000 2.3349 4.9769 7.4537 0.0000 -10581.1042 1390.4517 0.0000 0.0000 1775.4401 -7400.4470 303.7369 -9175.8871 -7460.0779 301.6357 -269.7585 -237.0279 30125.3167 -62.9051 -1.7057
ENERGY: 1500000 2.2430 6.3376 10.8914 0.0000 -10713.9817 1464.4139 0.0000 0.0000 1778.1017 -7451.9941 304.1922 -9230.0958 -7464.0288 301.4791 506.7048 483.2327 29581.8222 -70.3461 -17.6945
TCL: Running FEP window   5: Lambda1 0.2    Lambda2 0.25   [dLambda 0.04999999999999999]
TCL: Setting parameter firsttimestep to 0
TCL: Setting parameter alchLambda to 0.2
Info: NONBONDED TABLE R-SQUARED SPACING: 0.0625
Info: NONBONDED TABLE SIZE: 705 POINTS
TCL: Setting parameter alchLambda2 to 0.25
Info: NONBONDED TABLE R-SQUARED SPACING: 0.0625
Info: NONBONDED TABLE SIZE: 705 POINTS
TCL: Running for 1500000 steps
ETITLE: TS BOND ANGLE DIHED IMPRP ELECT VDW BOUNDARY MISC KINETIC TOTAL TEMP POTENTIAL TOTALAVG TEMPAVG PRESSURE GPRESSURE VOLUME PRESSAVG GPRESSAVG
ENERGY: 0 2.2430 6.3376 10.8914 0.0000 -10713.9813 1465.5114 0.0000 0.0000 1777.2148 -7451.7830 304.0405 -9228.9978 -7451.7830 304.0405 411.4858 491.8834 29581.8222 411.4858 491.8834
ENERGY: 300000 2.4235 7.0038 2.2075 0.0000 -10767.5369 1409.9983 0.0000 0.0000 1764.8951 -7581.0087 301.9329 -9345.9039 -7467.0442 304.2357 -738.1712 -670.7241 30575.9376 -68.7415 -2.1864
ENERGY: 600000 5.6741 5.1063 4.9591 0.0000 -10640.8747 1426.3268 0.0000 0.0000 1776.5028 -7422.3055 303.9187 -9198.8083 -7434.9693 305.9639 7.5174 133.0954 29870.1478 -117.2874 -52.7827
ENERGY: 900000 6.6654 2.6783 6.3605 0.0000 -10776.0176 1479.9027 0.0000 0.0000 1732.1119 -7548.2989 296.3244 -9280.4108 -7450.1466 304.3267 -21.8448 114.0398 30073.1262 -106.6303 -35.1172
ENERGY: 1200000 3.8834 3.9632 3.6873 0.0000 -10657.4143 1424.8235 0.0000 0.0000 1709.6174 -7511.4396 292.4762 -9221.0570 -7470.2929 301.7848 -2.6063 50.8708 29983.4379 -210.7888 -141.0593
ENERGY: 1500000 4.1595 3.3090 9.1554 0.0000 -10624.0646 1404.4604 0.0000 0.0000 1759.5436 -7443.4368 301.0174 -9202.9804 -7478.9417 300.3242 -369.7396 -291.6519 30198.6640 -201.0437 -134.2872
TCL: Running FEP window   6: Lambda1 0.25   Lambda2 0.3    [dLambda 0.04999999999999999]
TCL: Setting parameter firsttimestep to 0
TCL: Setting parameter alchLambda to 0.25
Info: NONBONDED TABLE R-SQUARED SPACING: 0.0625
Info: NONBONDED TABLE SIZE: 705 POINTS
TCL: Setting parameter alchLambda2 to 0.3
Info: NONBONDED TABLE R-SQUARED SPACING: 0.0625
Info: NONBONDED TABLE SIZE: 705 POINTS
TCL: Running for 1500000 steps
ETITLE: TS BOND ANGLE DIHED IMPRP ELECT VDW BOUNDARY MISC KINETIC TOTAL TEMP POTENTIAL TOTALAVG TEMPAVG PRESSURE GPRESSURE VOLUME PRESSAVG GPRESSAVG
ENERGY: 0 4.1595 3.3090 9.1554 0.0000 -10624.0666 1404.9811 0.0000 0.0000 1758.6524 -7443.8093 300.8649 -9202.4617 -7443.8093 300.8649 -376.7576 -284.3518 30198.6640 -376.7576 -284.3518
ENERGY: 300000 3.2484 7.4878 3.4874 0.0000 -10683.9892 1429.9461 0.0000 0.0000 1760.7037 -7479.1157 301.2158 -9239.8194 -7470.8538 302.0690 -273.6719 -246.6376 30635.0979 -312.2280 -239.5345
ENERGY: 600000 3.3180 5.5408 5.9346 0.0000 -10522.0848 1367.8433 0.0000 0.0000 1716.4328 -7423.0153 293.6421 -9139.4482 -7458.7743 301.4498 -253.6203 -163.9435 30157.1378 -327.5660 -246.5199
ENERGY: 900000 3.2227 6.6315 6.9018 0.0000 -10608.6527 1392.0595 0.0000 0.0000 1757.2583 -7442.5789 300.6264 -9199.8372 -7459.4283 300.8697 -362.5451 -313.2655 30201.1624 -272.2399 -197.5065
ENERGY: 1200000 2.8781 3.3028 11.8761 0.0000 -10742.6721 1456.5355 0.0000 0.0000 1753.9111 -7514.1685 300.0538 -9268.0796 -7466.0307 301.6202 288.4502 354.8986 29697.6425 -144.7157 -69.8902
ENERGY: 1500000 4.0023 4.3972 2.8983 0.0000 -10539.6505 1349.7361 0.0000 0.0000 1818.6434 -7359.9731 311.1280 -9178.6166 -7458.9117 302.0842 -623.5483 -563.1498 30501.1790 -177.8455 -99.5522
TCL: Running FEP window   7: Lambda1 0.3    Lambda2 0.35   [dLambda 0.04999999999999999]
TCL: Setting parameter firsttimestep to 0
TCL: Setting parameter alchLambda to 0.3
Info: NONBONDED TABLE R-SQUARED SPACING: 0.0625
Info: NONBONDED TABLE SIZE: 705 POINTS
TCL: Setting parameter alchLambda2 to 0.35
Info: NONBONDED TABLE R-SQUARED SPACING: 0.0625
Info: NONBONDED TABLE SIZE: 705 POINTS
TCL: Running for 1500000 steps
ETITLE: TS BOND ANGLE DIHED IMPRP ELECT VDW BOUNDARY MISC KINETIC TOTAL TEMP POTENTIAL TOTALAVG TEMPAVG PRESSURE GPRESSURE VOLUME PRESSAVG GPRESSAVG
ENERGY: 0 4.0023 4.3972 2.8983 0.0000 -10539.6498 1350.2400 0.0000 0.0000 1817.7957 -7360.3163 310.9830 -9178.1120 -7360.3163 310.9830 -639.7433 -553.5370 30501.1790 -639.7433 -553.5370
ENERGY: 300000 2.1897 7.3749 5.7215 0.0000 -10656.5209 1427.2169 0.0000 0.0000 1745.1751 -7468.8428 298.5593 -9214.0179 -7452.1574 302.6445 -170.7859 -82.2357 30563.0659 -271.9368 -217.2117
ENERGY: 600000 2.4866 5.7996 2.5102 0.0000 -10720.7695 1470.4714 0.0000 0.0000 1771.5179 -7467.9837 303.0659 -9239.5016 -7450.6043 301.5828 46.4162 109.7526 30500.2226 -160.1928 -101.1576
ENERGY: 900000 3.3000 9.0297 3.9614 0.0000 -10797.3983 1441.6464 0.0000 0.0000 1752.8713 -7586.5894 299.8759 -9339.4608 -7459.7926 301.1324 130.6107 162.9934 29715.4150 -178.0563 -113.1217
ENERGY: 1200000 2.6287 6.8326 5.9940 0.0000 -10484.1147 1341.8392 0.0000 0.0000 1697.9321 -7428.8881 290.4771 -9126.8202 -7447.8772 300.7965 -690.2893 -694.7000 30596.7416 -209.6174 -148.7019
ENERGY: 1500000 1.7644 6.6078 3.0288 0.0000 -10476.5656 1319.3311 0.0000 0.0000 1733.8330 -7412.0005 296.6189 -9145.8335 -7452.8688 299.7822 -961.5308 -895.6350 30852.6769 -191.9385 -134.0229
TCL: Running FEP window   8: Lambda1 0.35   Lambda2 0.39999999999999997 [dLambda 0.04999999999999999]
TCL: Setting parameter firsttimestep to 0
TCL: Setting parameter alchLambda to 0.35
Info: NONBONDED TABLE R-SQUARED SPACING: 0.0625
Info: NONBONDED TABLE SIZE: 705 POINTS
TCL: Setting parameter alchLambda2 to 0.39999999999999997
Info: NONBONDED TABLE R-SQUARED SPACING: 0.0625
Info: NONBONDED TABLE SIZE: 705 POINTS
TCL: Running for 1500000 steps
ETITLE: TS BOND ANGLE DIHED IMPRP ELECT VDW BOUNDARY MISC KINETIC TOTAL TEMP POTENTIAL TOTALAVG TEMPAVG PRESSURE GPRESSURE VOLUME PRESSAVG GPRESSAVG
ENERGY: 0 1.7644 6.6078 3.0288 0.0000 -10476.5656 1319.5988 0.0000 0.0000 1732.9820 -7412.5838 296.4733 -9145.5658 -7412.5838 296.4733 -989.1465 -887.9103 30852.6769 -989.1465 -887.9103
ENERGY: 300000 3.0052 6.7549 5.2476 0.0000 -10603.8975 1382.4722 0.0000 0.0000 1796.8404 -7409.5772 307.3980 -9206.4176 -7429.9258 303.8005 -254.1865 -228.9747 30341.8967 -414.1612 -354.8796
ENERGY: 600000 4.9074 5.6713 4.8382 0.0000 -10603.8974 1371.0409 0.0000 0.0000 1807.4210 -7410.0184 309.2081 -9217.4395 -7446.6664 303.8216 -261.6120 -223.9681 30212.5127 -162.6916 -116.8344
ENERGY: 900000 3.9521 5.6650 5.1215 0.0000 -10866.6303 1570.2288 0.0000 0.0000 1737.2804 -7544.3825 297.2087 -9281.6629 -7446.9521 301.8897 697.2485 776.8883 30613.7330 -122.3811 -71.8195
ENERGY: 1200000 4.6484 10.2614 5.7767 0.0000 -10671.0254 1445.6070 0.0000 0.0000 1700.9874 -7503.7445 290.9998 -9204.7319 -7450.8731 301.2569 185.4200 203.1491 30177.2747 -157.0599 -101.3215
ENERGY: 1500000 1.6320 7.6389 4.2275 0.0000 -10582.2987 1394.3028 0.0000 0.0000 1715.4007 -7459.0969 293.4655 -9174.4975 -7452.6440 301.1821 -230.8585 -194.1202 30269.8262 -134.6173 -77.4589
TCL: Running FEP window   9: Lambda1 0.39999999999999997 Lambda2 0.44999999999999996 [dLambda 0.04999999999999999]
TCL: Setting parameter firsttimestep to 0
TCL: Setting parameter alchLambda to 0.39999999999999997
Info: NONBONDED TABLE R-SQUARED SPACING: 0.0625
Info: NONBONDED TABLE SIZE: 705 POINTS
TCL: Setting parameter alchLambda2 to 0.44999999999999996
Info: NONBONDED TABLE R-SQUARED SPACING: 0.0625
Info: NONBONDED TABLE SIZE: 705 POINTS
TCL: Running for 1500000 steps
ETITLE: TS BOND ANGLE DIHED IMPRP ELECT VDW BOUNDARY MISC KINETIC TOTAL TEMP POTENTIAL TOTALAVG TEMPAVG PRESSURE GPRESSURE VOLUME PRESSAVG GPRESSAVG
ENERGY: 0 1.6320 7.6389 4.2275 0.0000 -10582.3009 1394.9262 0.0000 0.0000 1714.5510 -7459.3254 293.3202 -9173.8764 -7459.3254 293.3202 -279.3697 -183.5052 30269.8262 -279.3697 -183.5052
ENERGY: 300000 3.6585 3.9300 1.8415 0.0000 -10707.2815 1444.3557 0.0000 0.0000 1752.6018 -7500.8940 299.8298 -9253.4958 -7428.9264 302.7870 -189.1176 -82.4377 30178.3184 -109.6576 -36.3565
ENERGY: 600000 3.7401 7.7266 3.3555 0.0000 -10713.6818 1468.8304 0.0000 0.0000 1761.3195 -7468.7098 301.3212 -9230.0293 -7439.6334 302.4695 27.9774 76.6535 30268.9307 73.6241 135.5243
ENERGY: 900000 3.3913 5.8984 3.5446 0.0000 -10607.7920 1416.3403 0.0000 0.0000 1763.6754 -7414.9420 301.7242 -9178.6173 -7447.8506 300.8847 -187.4110 -132.7541 30220.3884 -39.3282 21.7223
ENERGY: 1200000 3.0988 7.6265 4.6903 0.0000 -10711.0451 1492.3377 0.0000 0.0000 1782.7052 -7420.5867 304.9798 -9203.2919 -7453.2744 301.2530 171.1808 292.3768 30617.5050 -94.4281 -27.0767
ENERGY: 1500000 2.1986 6.1930 6.9086 0.0000 -10758.5825 1401.4836 0.0000 0.0000 1744.2929 -7597.5058 298.4083 -9341.7987 -7453.0021 302.0134 -414.2925 -372.9216 29930.9569 -104.8862 -40.5215
TCL: Running FEP window  10: Lambda1 0.44999999999999996 Lambda2 0.49999999999999994 [dLambda 0.04999999999999999]
TCL: Setting parameter firsttimestep to 0
TCL: Setting parameter alchLambda to 0.44999999999999996
Info: NONBONDED TABLE R-SQUARED SPACING: 0.0625
Info: NONBONDED TABLE SIZE: 705 POINTS
TCL: Setting parameter alchLambda2 to 0.49999999999999994
Info: NONBONDED TABLE R-SQUARED SPACING: 0.0625
Info: NONBONDED TABLE SIZE: 705 POINTS
TCL: Running for 1500000 steps
ETITLE: TS BOND ANGLE DIHED IMPRP ELECT VDW BOUNDARY MISC KINETIC TOTAL TEMP POTENTIAL TOTALAVG TEMPAVG PRESSURE GPRESSURE VOLUME PRESSAVG GPRESSAVG
ENERGY: 0 2.1986 6.1930 6.9086 0.0000 -10758.5831 1401.1989 0.0000 0.0000 1743.4152 -7598.6689 298.2582 -9342.0841 -7598.6689 298.2582 -478.6487 -368.9690 29930.9569 -478.6487 -368.9690
ENERGY: 300000 7.6423 9.8117 7.2004 0.0000 -10670.1866 1457.7765 0.0000 0.0000 1716.0253 -7471.7304 293.5724 -9187.7557 -7470.9251 299.4778 -7.3776 92.0833 30403.2602 -210.6566 -155.6224
ENERGY: 600000 2.0549 7.9712 3.8299 0.0000 -10646.7397 1446.7968 0.0000 0.0000 1784.1599 -7401.9269 305.2287 -9186.0868 -7456.6435 300.3618 126.0916 192.1252 30414.4325 -217.3441 -174.3820
ENERGY: 900000 5.1487 7.2031 6.1391 0.0000 -10775.0736 1590.0501 0.0000 0.0000 1789.0108 -7377.5218 306.0585 -9166.5326 -7445.6074 301.6174 1845.2890 1880.1383 29957.2358 -74.6749 -36.8704
ENERGY: 1200000 1.6295 6.8306 6.9720 0.0000 -10626.3537 1341.8044 0.0000 0.0000 1777.9914 -7491.1258 304.1734 -9269.1172 -7449.2726 301.6720 -951.7693 -794.7958 30365.5494 -113.2257 -63.7909
ENERGY: 1500000 0.7654 6.0646 6.2853 0.0000 -10636.5305 1431.1643 0.0000 0.0000 1716.2055 -7476.0454 293.6032 -9192.2509 -7465.6244 299.9439 366.3550 418.0306 29973.0110 -1.0664 47.5561
TCL: Running FEP window  11: Lambda1 0.49999999999999994 Lambda2 0.5499999999999999 [dLambda 0.04999999999999999]
TCL: Setting parameter firsttimestep to 0
TCL: Setting parameter alchLambda to 0.49999999999999994
Info: NONBONDED TABLE R-SQUARED SPACING: 0.0625
Info: NONBONDED TABLE SIZE: 705 POINTS
TCL: Setting parameter alchLambda2 to 0.5499999999999999
Info: NONBONDED TABLE R-SQUARED SPACING: 0.0625
Info: NONBONDED TABLE SIZE: 705 POINTS
TCL: Running for 1500000 steps
ETITLE: TS BOND ANGLE DIHED IMPRP ELECT VDW BOUNDARY MISC KINETIC TOTAL TEMP POTENTIAL TOTALAVG TEMPAVG PRESSURE GPRESSURE VOLUME PRESSAVG GPRESSAVG
ENERGY: 0 0.7654 6.0646 6.2853 0.0000 -10636.5315 1431.3547 0.0000 0.0000 1715.3237 -7476.7377 293.4524 -9192.0614 -7476.7377 293.4524 339.5388 427.0716 29973.0110 339.5388 427.0716
ENERGY: 300000 2.2456 5.6500 7.7057 0.0000 -10673.8200 1388.3982 0.0000 0.0000 1700.3585 -7569.4619 290.8922 -9269.8205 -7523.0058 296.5224 -546.7015 -507.6373 29991.7851 -12.4040 44.9899
ENERGY: 600000 3.6330 3.3191 6.8347 0.0000 -10662.8143 1439.1540 0.0000 0.0000 1734.6121 -7475.2614 296.7522 -9209.8735 -7503.8463 296.6305 -86.1714 -35.5569 30609.8275 -49.5537 6.8231
ENERGY: 900000 2.3330 3.8694 4.4352 0.0000 -10874.5648 1505.0034 0.0000 0.0000 1756.2858 -7602.6380 300.4600 -9358.9238 -7501.2557 298.2637 174.2816 278.2924 29618.2775 18.8425 72.7661
ENERGY: 1200000 2.2957 6.7323 3.3780 0.0000 -10678.0282 1383.5600 0.0000 0.0000 1790.3796 -7491.6826 306.2927 -9282.0622 -7490.7251 299.9833 -496.1709 -479.6385 30112.4284 -35.7163 24.2205
ENERGY: 1500000 1.2773 5.2313 3.9254 0.0000 -10754.3473 1442.5619 0.0000 0.0000 1781.5855 -7519.7658 304.7882 -9301.3513 -7486.4477 300.7559 81.9102 133.9292 29787.9425 -14.6302 47.3733
TCL: Running FEP window  12: Lambda1 0.5499999999999999 Lambda2 0.6    [dLambda 0.050000000000000044]
TCL: Setting parameter firsttimestep to 0
TCL: Setting parameter alchLambda to 0.5499999999999999
Info: NONBONDED TABLE R-SQUARED SPACING: 0.0625
Info: NONBONDED TABLE SIZE: 705 POINTS
TCL: Setting parameter alchLambda2 to 0.6
Info: NONBONDED TABLE R-SQUARED SPACING: 0.0625
Info: NONBONDED TABLE SIZE: 705 POINTS
TCL: Running for 1500000 steps
ETITLE: TS BOND ANGLE DIHED IMPRP ELECT VDW BOUNDARY MISC KINETIC TOTAL TEMP POTENTIAL TOTALAVG TEMPAVG PRESSURE GPRESSURE VOLUME PRESSAVG GPRESSAVG
ENERGY: 0 1.2773 5.2313 3.9254 0.0000 -10754.4891 1442.5007 0.0000 0.0000 1780.7130 -7520.8413 304.6390 -9301.5543 -7520.8413 304.6390 67.0016 141.2691 29787.9425 67.0016 141.2691
ENERGY: 300000 3.2910 5.4167 8.8192 0.0000 -10553.6753 1345.9769 0.0000 0.0000 1744.6123 -7445.5592 298.4630 -9190.1715 -7467.4546 302.8691 -727.2489 -597.4026 30162.1431 -56.5597 25.2947
ENERGY: 600000 2.0757 5.2003 4.4902 0.0000 -10740.0347 1507.0405 0.0000 0.0000 1730.5499 -7490.6781 296.0572 -9221.2280 -7465.5600 302.7781 510.0295 540.8205 30087.8379 -98.3645 -33.6086
ENERGY: 900000 1.6026 4.6682 4.7029 0.0000 -10584.3313 1380.3998 0.0000 0.0000 1794.3625 -7398.5954 306.9741 -9192.9579 -7484.7960 301.4041 -277.6150 -206.2050 30346.8553 -178.9372 -106.7915
ENERGY: 1200000 2.5081 6.0123 5.5581 0.0000 -10632.8422 1425.0931 0.0000 0.0000 1776.1924 -7417.4782 303.8656 -9193.6706 -7464.8402 302.1957 313.6484 366.8460 29984.5654 -190.9526 -117.5733
ENERGY: 1500000 2.2835 5.8694 4.0686 0.0000 -10595.9223 1355.6810 0.0000 0.0000 1799.1499 -7428.8700 307.7931 -9228.0199 -7463.9391 301.8855 -619.2658 -635.6476 30389.0458 -227.4605 -155.9898
TCL: Running FEP window  13: Lambda1 0.6    Lambda2 0.65   [dLambda 0.050000000000000044]
TCL: Setting parameter firsttimestep to 0
TCL: Setting parameter alchLambda to 0.6
Info: NONBONDED TABLE R-SQUARED SPACING: 0.0625
Info: NONBONDED TABLE SIZE: 705 POINTS
TCL: Setting parameter alchLambda2 to 0.65
Info: NONBONDED TABLE R-SQUARED SPACING: 0.0625
Info: NONBONDED TABLE SIZE: 705 POINTS
TCL: Running for 1500000 steps
ETITLE: TS BOND ANGLE DIHED IMPRP ELECT VDW BOUNDARY MISC KINETIC TOTAL TEMP POTENTIAL TOTALAVG TEMPAVG PRESSURE GPRESSURE VOLUME PRESSAVG GPRESSAVG
ENERGY: 0 2.2835 5.8694 4.0686 0.0000 -10595.8666 1355.3644 0.0000 0.0000 1798.2726 -7430.0082 307.6430 -9228.2807 -7430.0082 307.6430 -719.6264 -631.5002 30389.0458 -719.6264 -631.5002
ENERGY: 300000 2.9045 5.8506 2.4876 0.0000 -10631.5594 1367.3382 0.0000 0.0000 1775.8866 -7477.0919 303.8133 -9252.9785 -7455.5303 303.8994 -507.4840 -467.0984 30176.1294 -284.3743 -222.7277
ENERGY: 600000 2.1148 3.9370 8.7077 0.0000 -10905.2924 1569.6113 0.0000 0.0000 1791.4339 -7529.4876 306.4731 -9320.9215 -7461.5043 303.0883 947.6048 1057.7772 29758.7948 63.0849 121.4790
ENERGY: 900000 3.2651 5.3833 3.1322 0.0000 -10614.3158 1319.7104 0.0000 0.0000 1768.9730 -7513.8517 302.6305 -9282.8247 -7463.0702 303.2397 -1058.1575 -999.7786 30328.9737 -72.6084 -29.4059
ENERGY: 1200000 3.3819 7.4603 7.7085 0.0000 -10669.9092 1389.9276 0.0000 0.0000 1819.5157 -7441.9152 311.2772 -9261.4309 -7455.7805 304.3035 -287.2559 -250.9602 30098.2550 -85.0928 -37.4411
ENERGY: 1500000 4.3035 3.7556 3.2024 0.0000 -10694.8752 1452.4699 0.0000 0.0000 1731.0194 -7500.1244 296.1375 -9231.1438 -7456.1280 303.7081 103.3492 87.9257 30185.2884 -112.8975 -62.6389
TCL: Running FEP window  14: Lambda1 0.65   Lambda2 0.7000000000000001 [dLambda 0.050000000000000044]
TCL: Setting parameter firsttimestep to 0
TCL: Setting parameter alchLambda to 0.65
Info: NONBONDED TABLE R-SQUARED SPACING: 0.0625
Info: NONBONDED TABLE SIZE: 705 POINTS
TCL: Setting parameter alchLambda2 to 0.7000000000000001
Info: NONBONDED TABLE R-SQUARED SPACING: 0.0625
Info: NONBONDED TABLE SIZE: 705 POINTS
TCL: Running for 1500000 steps
ETITLE: TS BOND ANGLE DIHED IMPRP ELECT VDW BOUNDARY MISC KINETIC TOTAL TEMP POTENTIAL TOTALAVG TEMPAVG PRESSURE GPRESSURE VOLUME PRESSAVG GPRESSAVG
ENERGY: 0 4.3035 3.7556 3.2024 0.0000 -10695.4005 1451.9881 0.0000 0.0000 1730.1815 -7501.9694 295.9942 -9232.1510 -7501.9694 295.9942 -6.3397 89.2473 30185.2884 -6.3397 89.2473
ENERGY: 300000 3.3128 6.5158 6.9316 0.0000 -10746.8435 1488.4220 0.0000 0.0000 1778.7421 -7462.9191 304.3018 -9241.6612 -7470.0004 302.5985 423.7142 464.0609 30137.6019 -194.5736 -141.0715
ENERGY: 600000 3.4197 5.0862 9.4816 0.0000 -10563.4451 1356.5590 0.0000 0.0000 1752.7801 -7436.1184 299.8603 -9188.8985 -7494.8386 300.2999 -604.5580 -574.8387 30249.4682 -114.3290 -52.9871
ENERGY: 900000 5.7388 5.0853 3.9171 0.0000 -10705.5314 1403.4421 0.0000 0.0000 1702.6422 -7584.7059 291.2829 -9287.3481 -7502.6610 298.4476 -125.8049 -83.9665 30179.0619 -75.8717 -26.7399
ENERGY: 1200000 2.0080 4.8593 5.3329 0.0000 -10704.0378 1409.5051 0.0000 0.0000 1770.5717 -7511.7607 302.9040 -9282.3324 -7498.0681 299.2707 -430.1739 -332.9841 30019.5608 -106.2273 -49.8828
ENERGY: 1500000 2.2487 7.8911 3.5087 0.0000 -10607.1434 1344.3122 0.0000 0.0000 1738.6692 -7510.5135 297.4463 -9249.1827 -7488.2626 299.6013 -747.5176 -649.6548 29938.5868 -162.6939 -105.8229
TCL: Running FEP window  15: Lambda1 0.7000000000000001 Lambda2 0.7500000000000001 [dLambda 0.050000000000000044]
TCL: Setting parameter firsttimestep to 0
TCL: Setting parameter alchLambda to 0.7000000000000001
Info: NONBONDED TABLE R-SQUARED SPACING: 0.0625
Info: NONBONDED TABLE SIZE: 705 POINTS
TCL: Setting parameter alchLambda2 to 0.7500000000000001
Info: NONBONDED TABLE R-SQUARED SPACING: 0.0625
Info: NONBONDED TABLE SIZE: 705 POINTS
TCL: Running for 1500000 steps
ETITLE: TS BOND ANGLE DIHED IMPRP ELECT VDW BOUNDARY MISC KINETIC TOTAL TEMP POTENTIAL TOTALAVG TEMPAVG PRESSURE GPRESSURE VOLUME PRESSAVG GPRESSAVG
ENERGY: 0 2.2487 7.8911 3.5087 0.0000 -10607.6369 1344.1070 0.0000 0.0000 1737.8024 -7512.0791 297.2980 -9249.8814 -7512.0791 297.2980 -739.2291 -644.4153 29938.5868 -739.2291 -644.4153
ENERGY: 300000 3.0495 3.8999 3.2389 0.0000 -10601.5400 1433.1838 0.0000 0.0000 1743.0521 -7415.1157 298.1961 -9158.1679 -7466.6882 300.9925 -129.5254 -25.8937 30806.6361 46.7257 119.1122
ENERGY: 600000 4.1631 9.2927 4.9680 0.0000 -10649.1250 1385.9236 0.0000 0.0000 1811.0872 -7433.6904 309.8353 -9244.7776 -7462.4703 300.9178 -524.0416 -421.8985 30282.8066 15.6806 82.1374
ENERGY: 900000 1.9718 2.5919 5.8745 0.0000 -10730.6185 1422.0529 0.0000 0.0000 1729.5515 -7568.5759 295.8864 -9298.1274 -7470.1462 301.8364 -54.1018 -39.4891 29967.3455 -58.5017 6.7548
ENERGY: 1200000 2.4008 5.9934 4.7408 0.0000 -10571.8722 1331.9022 0.0000 0.0000 1790.6613 -7436.1738 306.3409 -9226.8350 -7459.6071 301.5822 -634.7854 -592.0137 30168.1302 -49.4975 12.1555
ENERGY: 1500000 3.6139 6.4565 4.8885 0.0000 -10624.4115 1418.3341 0.0000 0.0000 1767.3891 -7423.7294 302.3596 -9191.1186 -7459.5462 301.5707 369.8152 399.2129 29759.9803 15.5370 71.5361
TCL: Running FEP window  16: Lambda1 0.7500000000000001 Lambda2 0.8000000000000002 [dLambda 0.050000000000000044]
TCL: Setting parameter firsttimestep to 0
TCL: Setting parameter alchLambda to 0.7500000000000001
Info: NONBONDED TABLE R-SQUARED SPACING: 0.0625
Info: NONBONDED TABLE SIZE: 705 POINTS
TCL: Setting parameter alchLambda2 to 0.8000000000000002
Info: NONBONDED TABLE R-SQUARED SPACING: 0.0625
Info: NONBONDED TABLE SIZE: 705 POINTS
TCL: Running for 1500000 steps
ETITLE: TS BOND ANGLE DIHED IMPRP ELECT VDW BOUNDARY MISC KINETIC TOTAL TEMP POTENTIAL TOTALAVG TEMPAVG PRESSURE GPRESSURE VOLUME PRESSAVG GPRESSAVG
ENERGY: 0 3.6139 6.4565 4.8885 0.0000 -10626.6287 1418.9375 0.0000 0.0000 1766.5445 -7426.1878 302.2151 -9192.7323 -7426.1878 302.2151 327.5356 414.8292 29759.9803 327.5356 414.8292
ENERGY: 300000 2.6026 11.4616 5.7374 0.0000 -10563.0356 1376.1981 0.0000 0.0000 1758.2272 -7408.8087 300.7922 -9167.0358 -7461.6341 296.6461 -261.8913 -199.6667 30415.1577 117.6537 176.7589
ENERGY: 600000 4.6596 3.4535 7.8593 0.0000 -10698.9178 1418.3837 0.0000 0.0000 1806.3017 -7458.2600 309.0166 -9264.5617 -7452.3379 300.3453 -219.7642 -134.8797 30156.3518 87.5475 159.7250
ENERGY: 900000 2.2858 5.9941 8.0153 0.0000 -10758.1176 1428.7529 0.0000 0.0000 1730.8357 -7582.2337 296.1061 -9313.0694 -7474.1547 300.8356 10.4564 41.0675 29716.2899 62.3512 124.2243
ENERGY: 1200000 1.3460 8.6616 4.5018 0.0000 -10598.5550 1382.9381 0.0000 0.0000 1757.3011 -7443.8065 300.6337 -9201.1076 -7463.5037 300.9711 -8.7304 44.6024 29798.7331 -23.6549 43.5687
ENERGY: 1500000 3.8652 6.1290 2.7183 0.0000 -10735.3925 1485.2559 0.0000 0.0000 1788.7997 -7448.6243 306.0224 -9237.4241 -7458.8587 301.5144 451.5879 481.6189 29845.5296 -23.2782 37.6574
TCL: Running FEP window  17: Lambda1 0.8000000000000002 Lambda2 0.8500000000000002 [dLambda 0.050000000000000044]
TCL: Setting parameter firsttimestep to 0
TCL: Setting parameter alchLambda to 0.8000000000000002
Info: NONBONDED TABLE R-SQUARED SPACING: 0.0625
Info: NONBONDED TABLE SIZE: 705 POINTS
TCL: Setting parameter alchLambda2 to 0.8500000000000002
Info: NONBONDED TABLE R-SQUARED SPACING: 0.0625
Info: NONBONDED TABLE SIZE: 705 POINTS
TCL: Running for 1500000 steps
ETITLE: TS BOND ANGLE DIHED IMPRP ELECT VDW BOUNDARY MISC KINETIC TOTAL TEMP POTENTIAL TOTALAVG TEMPAVG PRESSURE GPRESSURE VOLUME PRESSAVG GPRESSAVG
ENERGY: 0 3.8652 6.1290 2.7183 0.0000 -10736.8180 1485.2396 0.0000 0.0000 1787.9532 -7450.9127 305.8776 -9238.8659 -7450.9127 305.8776 404.6981 489.8414 29845.5296 404.6981 489.8414
ENERGY: 300000 5.8611 8.0186 5.5437 0.0000 -10707.0874 1441.9577 0.0000 0.0000 1728.0156 -7517.6908 295.6237 -9245.7063 -7510.9279 300.3480 333.6957 338.6142 29983.9468 -358.9881 -300.2569
ENERGY: 600000 1.8489 3.7036 4.8099 0.0000 -10767.7944 1436.6023 0.0000 0.0000 1762.3936 -7558.4360 301.5050 -9320.8296 -7504.6638 300.7375 38.8399 31.8461 29907.1288 -331.3666 -288.1307
ENERGY: 900000 1.6299 7.1530 3.8645 0.0000 -10646.4342 1421.7834 0.0000 0.0000 1792.1549 -7419.8485 306.5964 -9212.0035 -7492.8243 301.5015 93.3229 102.2814 29977.8344 -218.1252 -184.1617
ENERGY: 1200000 1.7866 4.1467 5.2660 0.0000 -10680.3551 1463.2621 0.0000 0.0000 1748.2556 -7457.6382 299.0863 -9205.8938 -7483.3069 301.4002 247.2772 279.0502 30231.5419 -177.0077 -131.4829
ENERGY: 1500000 3.3726 4.7411 5.4091 0.0000 -10700.4582 1442.7623 0.0000 0.0000 1752.0319 -7492.1414 299.7323 -9244.1732 -7491.0734 300.7696 273.3105 299.5819 30016.6422 -104.8136 -62.5902
TCL: Running FEP window  18: Lambda1 0.8500000000000002 Lambda2 0.9000000000000002 [dLambda 0.050000000000000044]
TCL: Setting parameter firsttimestep to 0
TCL: Setting parameter alchLambda to 0.8500000000000002
Info: NONBONDED TABLE R-SQUARED SPACING: 0.0625
Info: NONBONDED TABLE SIZE: 705 POINTS
TCL: Setting parameter alchLambda2 to 0.9000000000000002
Info: NONBONDED TABLE R-SQUARED SPACING: 0.0625
Info: NONBONDED TABLE SIZE: 705 POINTS
TCL: Running for 1500000 steps
ETITLE: TS BOND ANGLE DIHED IMPRP ELECT VDW BOUNDARY MISC KINETIC TOTAL TEMP POTENTIAL TOTALAVG TEMPAVG PRESSURE GPRESSURE VOLUME PRESSAVG GPRESSAVG
ENERGY: 0 3.3726 4.7411 5.4091 0.0000 -10702.8661 1443.7160 0.0000 0.0000 1751.1369 -7494.4906 299.5792 -9245.6275 -7494.4906 299.5792 239.7535 315.2871 30016.6422 239.7535 315.2871
ENERGY: 300000 1.4283 7.5593 4.2905 0.0000 -10753.9430 1499.3762 0.0000 0.0000 1801.7916 -7439.4971 308.2450 -9241.2887 -7419.0095 302.9897 335.7244 392.4655 30417.3683 -112.7406 -39.8563
ENERGY: 600000 1.0576 5.3017 7.2552 0.0000 -10646.9746 1408.1678 0.0000 0.0000 1714.3531 -7510.8391 293.2863 -9225.1922 -7475.1156 301.3343 -76.7308 -8.8776 30159.3049 -72.8593 -5.2646
ENERGY: 900000 2.6027 4.7607 5.8982 0.0000 -10583.2592 1332.4295 0.0000 0.0000 1750.5240 -7487.0441 299.4743 -9237.5682 -7474.7028 300.9946 -686.1862 -662.2098 30522.9137 -10.2318 55.4639
ENERGY: 1200000 2.0696 9.0559 3.5717 0.0000 -10615.0517 1382.4860 0.0000 0.0000 1725.1995 -7492.6691 295.1419 -9217.8686 -7477.9981 300.3541 -421.1655 -334.6338 30510.9724 6.6275 70.2566
ENERGY: 1500000 2.5048 7.4268 7.3730 0.0000 -10625.6117 1342.7690 0.0000 0.0000 1711.1524 -7554.3856 292.7388 -9265.5381 -7483.2697 299.8890 -962.1881 -875.3043 30622.0106 -129.7274 -65.6682
TCL: Running FEP window  19: Lambda1 0.9000000000000002 Lambda2 0.9500000000000003 [dLambda 0.050000000000000044]
TCL: Setting parameter firsttimestep to 0
TCL: Setting parameter alchLambda to 0.9000000000000002
Info: NONBONDED TABLE R-SQUARED SPACING: 0.0625
Info: NONBONDED TABLE SIZE: 705 POINTS
TCL: Setting parameter alchLambda2 to 0.9500000000000003
Info: NONBONDED TABLE R-SQUARED SPACING: 0.0625
Info: NONBONDED TABLE SIZE: 705 POINTS
TCL: Running for 1500000 steps
ETITLE: TS BOND ANGLE DIHED IMPRP ELECT VDW BOUNDARY MISC KINETIC TOTAL TEMP POTENTIAL TOTALAVG TEMPAVG PRESSURE GPRESSURE VOLUME PRESSAVG GPRESSAVG
ENERGY: 0 2.5048 7.4268 7.3730 0.0000 -10628.0073 1342.9621 0.0000 0.0000 1710.2740 -7557.4665 292.5885 -9267.7406 -7557.4665 292.5885 -950.5328 -864.9571 30622.0106 -950.5328 -864.9571
ENERGY: 300000 1.2481 5.7700 10.1100 0.0000 -10685.4526 1403.6000 0.0000 0.0000 1809.6454 -7455.0791 309.5886 -9264.7244 -7490.2248 303.0185 -513.8742 -446.1026 30675.7920 -378.4678 -329.8510
ENERGY: 600000 2.6323 6.0979 2.4340 0.0000 -10752.6709 1524.0317 0.0000 0.0000 1731.6137 -7485.8612 296.2392 -9217.4749 -7475.3962 301.1271 772.7046 834.0672 30278.1945 -247.5719 -198.4729
ENERGY: 900000 0.7093 5.9727 6.0988 0.0000 -10693.3761 1447.5295 0.0000 0.0000 1673.7532 -7559.3125 286.3406 -9233.0657 -7478.1074 299.5000 235.5319 279.6314 29970.5667 -135.0588 -74.6818
ENERGY: 1200000 5.5535 5.3521 5.6599 0.0000 -10546.1694 1401.4235 0.0000 0.0000 1756.2601 -7371.9202 300.4556 -9128.1803 -7472.0777 299.1600 198.7250 309.6499 30206.6536 -75.4282 -14.3481
ENERGY: 1500000 2.0505 6.0776 3.2354 0.0000 -10593.0250 1359.3490 0.0000 0.0000 1771.2214 -7451.0912 303.0152 -9222.3126 -7474.9676 299.2580 -525.1458 -456.8127 30310.9761 -75.3707 -15.4358
TCL: Running FEP window  20: Lambda1 0.9500000000000003 Lambda2 1.0    [dLambda 0.04999999999999971]
TCL: Setting parameter firsttimestep to 0
TCL: Setting parameter alchLambda to 0.9500000000000003
Info: NONBONDED TABLE R-SQUARED SPACING: 0.0625
Info: NONBONDED TABLE SIZE: 705 POINTS
TCL: Setting parameter alchLambda2 to 1.0
Info: NONBONDED TABLE R-SQUARED SPACING: 0.0625
Info: NONBONDED TABLE SIZE: 705 POINTS
TCL: Running for 1500000 steps
ETITLE: TS BOND ANGLE DIHED IMPRP ELECT VDW BOUNDARY MISC KINETIC TOTAL TEMP POTENTIAL TOTALAVG TEMPAVG PRESSURE GPRESSURE VOLUME PRESSAVG GPRESSAVG
ENERGY: 0 2.0505 6.0776 3.2354 0.0000 -10595.6995 1362.7193 0.0000 0.0000 1770.3746 -7451.2422 302.8703 -9221.6167 -7451.2422 302.8703 -487.1910 -408.0325 30310.9761 -487.1910 -408.0325
ENERGY: 300000 1.8343 4.9409 5.9104 0.0000 -10714.9452 1457.5880 0.0000 0.0000 1795.8479 -7448.8237 307.2282 -9244.6716 -7441.5371 303.7138 -139.8169 -19.3558 30796.6658 309.8088 392.2823
ENERGY: 600000 3.3536 5.2796 7.2715 0.0000 -10636.3342 1369.5571 0.0000 0.0000 1687.1829 -7563.6894 288.6381 -9250.8723 -7457.4763 300.3219 -601.3175 -512.3801 30311.4879 -26.0916 52.1081
ENERGY: 900000 3.9632 5.9362 12.5703 0.0000 -10697.6261 1414.4333 0.0000 0.0000 1742.0609 -7518.6621 298.0265 -9260.7231 -7482.5503 298.8773 -392.9748 -299.7685 30583.5603 -50.9545 18.2592
ENERGY: 1200000 3.7894 8.9049 4.1322 0.0000 -10726.1636 1487.4726 0.0000 0.0000 1756.6323 -7465.2322 300.5193 -9221.8645 -7484.7701 298.5016 266.2302 364.5698 30270.0962 -26.4711 43.4573
ENERGY: 1500000 1.4631 6.9597 2.9494 0.0000 -10640.8627 1347.3905 0.0000 0.0000 1769.8589 -7512.2412 302.7821 -9282.1001 -7478.1931 299.7308 -884.2173 -800.6434 30559.1950 -159.2730 -88.9678
TCL: Exiting due to exit command.
