Info: SIMULATION PARAMETERS:
Info: TIMESTEP               2
Info: NUMBER OF STEPS        0
Info: STEPS PER CYCLE        10
Info: PERIODIC CELL BASIS 1  32.2817 0 0
Info: PERIODIC CELL BASIS 2  0 30.2244 0
Info: PERIODIC CELL BASIS 3  0 0 30.8366
Info: PERIODIC CELL CENTER   0 0 0
Info: WRAPPING WATERS AROUND PERIODIC BOUNDARIES ON OUTPUT.
Info: WRAPPING ALL CLUSTERS AROUND PERIODIC BOUNDARIES ON OUTPUT.
Info: FIRST LDB TIMESTEP     50
Info: LAST LDB TIMESTEP     -1
Info: HOM BACKGROUND SCALING 1
Info: PME BACKGROUND SCALING 1
Info: MIN ATOMS PER PATCH    40
Info: EMPTY PATCH LOAD       40 ATOMS
Info: VELOCITY FILE          mobley_5123639_equil.vel
Info: CENTER OF MASS MOVING INITIALLY? NO
Info: DIELECTRIC             1
Info: EXCLUDE                SCALED ONE-FOUR
Info: 1-4 ELECTROSTATICS SCALED BY 0.833333
Info: MODIFIED 1-4 VDW PARAMETERS WILL BE USED
Info: DCD FILENAME           mobley_5123639_prod.dcd
Info: DCD FREQUENCY          100000
Info: DCD FIRST STEP         100000
Info: DCD FILE WILL CONTAIN UNIT CELL DATA
Info: XST FILENAME           mobley_5123639_prod.xst
Info: XST FREQUENCY          100000
Info: NO VELOCITY DCD OUTPUT
Info: NO FORCE DCD OUTPUT
Info: OUTPUT FILENAME        mobley_5123639_prod
Info: BINARY OUTPUT FILES WILL BE USED
Info: RESTART FILENAME       mobley_5123639_prod.restart
Info: RESTART FREQUENCY      100000
Info: BINARY RESTART FILES WILL BE USED
Info: CUTOFF                 9
Info: PAIRLIST DISTANCE      11
Info: PAIRLIST SHRINK RATE   0.01
Info: PAIRLIST GROW RATE     0.01
Info: PAIRLIST TRIGGER       0.3
Info: PAIRLISTS PER CYCLE    2
Info: PAIRLISTS ENABLED
Info: MARGIN                 2
Info: HYDROGEN GROUP CUTOFF  2.5
Info: PATCH DIMENSION        15.5
Info: ENERGY OUTPUT STEPS    100000
Info: ENERGY EVALUATION STEPS    100000
Info: OUTPUT ENERGY PRECISION 4
Info: CROSSTERM ENERGY INCLUDED IN DIHEDRAL
Info: TIMING OUTPUT STEPS    1000000
Info: PRESSURE OUTPUT STEPS  100000
Info: ALCHEMICAL FEP ON
Info: FEP CURRENT LAMBDA VALUE     1
Info: FEP COMPARISON LAMBDA VALUE  0.95
Info: FEP INTRA-ALCHEMICAL NON-BONDED INTERACTIONS WILL BE RETAINED
Info: FEP INTRA-ALCHEMICAL BONDED INTERACTIONS WILL BE RETAINED
Info: FEP VDW SHIFTING COEFFICIENT 5
Info: FEP ELEC. ACTIVE FOR ANNIHILATED PARTICLES BETWEEN LAMBDA = 0 AND LAMBDA = 0.5
Info: FEP ELEC. ACTIVE FOR EXNIHILATED PARTICLES BETWEEN LAMBDA = 0.5 AND LAMBDA = 1
Info: FEP VDW ACTIVE FOR ANNIHILATED PARTICLES BETWEEN LAMBDA = 0 AND LAMBDA = 1
Info: FEP VDW ACTIVE FOR EXNIHILATED PARTICLES BETWEEN LAMBDA = 0 AND LAMBDA = 1
Info: FEP BOND ACTIVE FOR ANNIHILATED PARTICLES BETWEEN LAMBDA = 1 AND LAMBDA = 1
Info: FEP BOND ACTIVE FOR EXNIHILATED PARTICLES BETWEEN LAMBDA = 0 AND LAMBDA = 0
Info: LANGEVIN DYNAMICS ACTIVE
Info: LANGEVIN TEMPERATURE   300
Info: LANGEVIN USING BBK INTEGRATOR
Info: LANGEVIN DAMPING COEFFICIENT IS 1 INVERSE PS
Info: LANGEVIN DYNAMICS APPLIED TO HYDROGENS
Info: LANGEVIN PISTON PRESSURE CONTROL ACTIVE
Info:        TARGET PRESSURE IS 1.01325 BAR
Info:     OSCILLATION PERIOD IS 50 FS
Info:             DECAY TIME IS 25 FS
Info:     PISTON TEMPERATURE IS 300 K
Info:       PRESSURE CONTROL IS GROUP-BASED
Info:    INITIAL STRAIN RATE IS -2.86124e-06 -2.86124e-06 -2.86124e-06
Info:       CELL FLUCTUATION IS ISOTROPIC
Info: PARTICLE MESH EWALD (PME) ACTIVE
Info: PME TOLERANCE               1e-06
Info: PME EWALD COEFFICIENT       0.348832
Info: PME INTERPOLATION ORDER     4
Info: PME GRID DIMENSIONS         36 32 32
Info: PME MAXIMUM GRID SPACING    1
Info: PME CALCULATION WILL BE PERFORMED ON GPU
Info: FULL ELECTROSTATIC EVALUATION FREQUENCY      2
Info: USING VERLET I (r-RESPA) MTS SCHEME.
Info: C1 SPLITTING OF LONG RANGE ELECTROSTATICS
Info: PLACING ATOMS IN PATCHES BY HYDROGEN GROUPS
Info: RIGID BONDS TO HYDROGEN : ALL
Info:         ERROR TOLERANCE : 1e-08
Info:          MAX ITERATIONS : 100
Info: RIGID WATER USING SETTLE ALGORITHM
Info: RANDOM NUMBER SEED     1743868090
Info: USE HYDROGEN BONDS?    NO
Info: Using AMBER format force field!
Info: AMBER PARM FILE        mobley_5123639.prmtop
Info: COORDINATE PDB         mobley_5123639.pdb
Info: Exclusions will be read from PARM file!
Info: SCNB (VDW SCALING)     2
Info: USING ARITHMETIC MEAN TO COMBINE L-J SIGMA PARAMETERS
Info: BINARY COORDINATES     mobley_5123639_equil.coor
Info: SUMMARY OF PARAMETERS:
Info: 7 BONDS
Info: 7 ANGLES
Info:   7 HARMONIC
Info:   0 COSINE-BASED
Info: 9 DIHEDRAL
Info: 0 IMPROPER
Info: 0 CROSSTERM
Info: 0 VDW
Info: 21 VDW_PAIRS
Info: 0 NBTHOLE_PAIRS
Info: To read alchdata from file: mobley_5123639.pdb
Info: To read alchflag data from column: 5
Info: STRUCTURE SUMMARY:
Info: 2925 ATOMS
Info: 2924 BONDS
Info: 37 ANGLES
Info: 61 DIHEDRALS
Info: 0 IMPROPERS
Info: 0 CROSSTERMS
Info: 3009 EXCLUSIONS
Info: 2918 RIGID BONDS
Info: ALCH: 0 ATOMS TO DISAPPEAR IN FINAL STATE
Info: ALCH: 21 ATOMS TO APPEAR IN FINAL STATE
Info: 5857 DEGREES OF FREEDOM
Info: 975 HYDROGEN GROUPS
Info: 4 ATOMS IN LARGEST HYDROGEN GROUP
Info: 975 MIGRATION GROUPS
Info: 4 ATOMS IN LARGEST MIGRATION GROUP
Info: TOTAL MASS = 17541.7 amu
Info: TOTAL CHARGE = 0.000200022 e
Info: MASS DENSITY = 0.968164 g/cm^3
Info: ATOM DENSITY = 0.0972176 atoms/A^3
Info: ADDED 0 IMPLICIT EXCLUSIONS
Info: NONBONDED TABLE R-SQUARED SPACING: 0.0625
Info: NONBONDED TABLE SIZE: 705 POINTS
Info: REMOVING COM VELOCITY -0.0868765 -0.0341949 -0.12578
Info: Use 3D box decompostion in PME FFT.
Info: Updated CUDA force table with 4096 elements.
Info: Updated CUDA LJ table with 6 x 6 elements.
Info: Found 24 unique exclusion lists needing 68 bytes
TCL: Running for 1500000 steps
ETITLE: TS BOND ANGLE DIHED IMPRP ELECT VDW BOUNDARY MISC KINETIC TOTAL TEMP POTENTIAL TOTALAVG TEMPAVG PRESSURE GPRESSURE VOLUME PRESSAVG GPRESSAVG
ENERGY: 0 0.9199 10.0110 4.2289 0.0000 -10455.4723 1352.7283 0.0000 0.0000 1749.5161 -7338.0681 300.6305 -9087.5842 -7338.0681 300.6305 -374.7247 -285.4451 30087.1367 -374.7247 -285.4451
ENERGY: 300000 2.8781 14.9391 4.3962 0.0000 -10435.8803 1322.6934 0.0000 0.0000 1786.7864 -7304.1872 307.0349 -9090.9736 -7334.7607 304.5114 -539.5615 -504.2042 30501.1201 -302.4187 -259.8505
ENERGY: 600000 1.5035 13.5029 3.9689 0.0000 -10488.7864 1341.7302 0.0000 0.0000 1714.6382 -7413.4426 294.6373 -9128.0808 -7375.9656 301.5695 -637.9612 -521.2111 30179.6505 -123.7868 -64.8954
ENERGY: 900000 3.8213 6.2260 5.0050 0.0000 -10619.8875 1417.5982 0.0000 0.0000 1731.3248 -7455.9122 297.5046 -9187.2370 -7380.8261 301.7581 -22.2744 94.4982 29801.6185 15.7135 79.7446
ENERGY: 1200000 0.7867 9.8188 3.9664 0.0000 -10551.5491 1390.7405 0.0000 0.0000 1789.8219 -7356.4148 307.5565 -9146.2367 -7380.8657 302.2775 118.8501 199.0998 29782.7425 48.2618 117.7451
ENERGY: 1500000 4.2068 8.1975 3.7713 0.0000 -10556.8364 1349.7185 0.0000 0.0000 1748.8389 -7442.1034 300.5142 -9190.9423 -7388.4766 301.8725 -564.6227 -511.4452 30024.4977 10.2670 73.3535
TCL: Running FEP window   2: Lambda1 0.95   Lambda2 0.8999999999999999 [dLambda -0.050000000000000044]
TCL: Setting parameter firsttimestep to 0
TCL: Setting parameter alchLambda to 0.95
Info: NONBONDED TABLE R-SQUARED SPACING: 0.0625
Info: NONBONDED TABLE SIZE: 705 POINTS
TCL: Setting parameter alchLambda2 to 0.8999999999999999
Info: NONBONDED TABLE R-SQUARED SPACING: 0.0625
Info: NONBONDED TABLE SIZE: 705 POINTS
TCL: Running for 1500000 steps
ETITLE: TS BOND ANGLE DIHED IMPRP ELECT VDW BOUNDARY MISC KINETIC TOTAL TEMP POTENTIAL TOTALAVG TEMPAVG PRESSURE GPRESSURE VOLUME PRESSAVG GPRESSAVG
ENERGY: 0 4.2068 8.1975 3.7713 0.0000 -10554.7805 1349.0691 0.0000 0.0000 1747.9154 -7441.6203 300.3555 -9189.5358 -7441.6203 300.3555 -608.1384 -523.0772 30024.4977 -608.1384 -523.0772
ENERGY: 300000 3.8149 5.2217 3.6540 0.0000 -10502.5041 1351.4089 0.0000 0.0000 1820.8213 -7317.5833 312.8834 -9138.4046 -7420.0543 300.6420 -728.6081 -618.1991 30440.7941 -255.4271 -160.8842
ENERGY: 600000 1.9903 10.1746 3.9961 0.0000 -10519.4094 1383.6713 0.0000 0.0000 1743.5257 -7376.0514 299.6012 -9119.5771 -7404.7200 300.9203 -283.9297 -264.4444 30093.8616 -433.7836 -358.9584
ENERGY: 900000 1.0056 8.0627 4.3096 0.0000 -10550.5873 1429.4110 0.0000 0.0000 1747.8020 -7359.9964 300.3360 -9107.7984 -7391.5212 300.6359 348.8541 425.6067 29837.1365 -317.4043 -238.3557
ENERGY: 1200000 1.9342 9.4592 4.5131 0.0000 -10619.4968 1426.7199 0.0000 0.0000 1749.3530 -7427.5174 300.6025 -9176.8704 -7392.1870 300.5158 -208.6403 -111.8129 30408.2177 -274.9129 -193.8877
ENERGY: 1500000 1.7042 15.3654 5.3478 0.0000 -10563.0267 1426.8718 0.0000 0.0000 1755.5083 -7358.2292 301.6602 -9113.7375 -7390.2739 300.0206 64.1097 198.9767 30135.2938 -238.3557 -154.1513
TCL: Running FEP window   3: Lambda1 0.8999999999999999 Lambda2 0.8499999999999999 [dLambda -0.050000000000000044]
TCL: Setting parameter firsttimestep to 0
TCL: Setting parameter alchLambda to 0.8999999999999999
Info: NONBONDED TABLE R-SQUARED SPACING: 0.0625
Info: NONBONDED TABLE SIZE: 705 POINTS
TCL: Setting parameter alchLambda2 to 0.8499999999999999
Info: NONBONDED TABLE R-SQUARED SPACING: 0.0625
Info: NONBONDED TABLE SIZE: 705 POINTS
TCL: Running for 1500000 steps
ETITLE: TS BOND ANGLE DIHED IMPRP ELECT VDW BOUNDARY MISC KINETIC TOTAL TEMP POTENTIAL TOTALAVG TEMPAVG PRESSURE GPRESSURE VOLUME PRESSAVG GPRESSAVG
ENERGY: 0 1.7042 15.3654 5.3478 0.0000 -10562.4494 1427.3038 0.0000 0.0000 1754.6413 -7358.0869 301.5112 -9112.7281 -7358.0869 301.5112 90.4330 192.6245 30135.2938 90.4330 192.6245
ENERGY: 300000 1.1947 7.3982 3.4328 0.0000 -10527.5124 1399.1307 0.0000 0.0000 1718.4943 -7397.8616 295.2999 -9116.3559 -7400.0671 298.0550 -232.2829 -81.9157 30200.0075 -204.3901 -129.5672
ENERGY: 600000 1.6374 12.7609 4.4734 0.0000 -10667.8240 1517.0962 0.0000 0.0000 1711.3148 -7420.5414 294.0662 -9131.8562 -7387.6646 300.0624 740.4749 709.8014 30266.1711 -1.0053 63.9047
ENERGY: 900000 3.0005 7.6991 4.2388 0.0000 -10685.2710 1423.7240 0.0000 0.0000 1729.2534 -7517.3550 297.1487 -9246.6085 -7412.2223 300.0401 -243.8073 -210.8436 30090.7122 -42.6028 18.4763
ENERGY: 1200000 0.7171 11.6078 5.5502 0.0000 -10576.7623 1394.3925 0.0000 0.0000 1766.5679 -7397.9268 303.5607 -9164.4947 -7408.6469 300.1226 -215.2959 -149.5336 30073.3740 -133.5942 -66.9915
ENERGY: 1500000 1.2879 6.4127 5.0208 0.0000 -10689.8903 1485.4394 0.0000 0.0000 1761.9392 -7429.7903 302.7653 -9191.7295 -7414.5937 299.7913 638.8123 671.3081 29755.7950 -66.0846 -3.4016
TCL: Running FEP window   4: Lambda1 0.8499999999999999 Lambda2 0.7999999999999998 [dLambda -0.050000000000000044]
TCL: Setting parameter firsttimestep to 0
TCL: Setting parameter alchLambda to 0.8499999999999999
Info: NONBONDED TABLE R-SQUARED SPACING: 0.0625
Info: NONBONDED TABLE SIZE: 705 POINTS
TCL: Setting parameter alchLambda2 to 0.7999999999999998
Info: NONBONDED TABLE R-SQUARED SPACING: 0.0625
Info: NONBONDED TABLE SIZE: 705 POINTS
TCL: Running for 1500000 steps
ETITLE: TS BOND ANGLE DIHED IMPRP ELECT VDW BOUNDARY MISC KINETIC TOTAL TEMP POTENTIAL TOTALAVG TEMPAVG PRESSURE GPRESSURE VOLUME PRESSAVG GPRESSAVG
ENERGY: 0 1.2879 6.4127 5.0208 0.0000 -10689.1163 1485.5436 0.0000 0.0000 1761.0614 -7429.7899 302.6145 -9190.8513 -7429.7899 302.6145 582.5626 662.1302 29755.7950 582.5626 662.1302
ENERGY: 300000 3.3446 10.9378 4.1695 0.0000 -10558.6347 1433.5944 0.0000 0.0000 1734.9875 -7371.6009 298.1340 -9106.5884 -7370.4516 303.0458 504.4915 482.4099 29867.2096 -60.1726 -30.3614
ENERGY: 600000 0.5343 11.2913 4.2464 0.0000 -10650.4008 1464.1209 0.0000 0.0000 1751.4168 -7418.7910 300.9572 -9170.2079 -7381.4168 302.5032 472.6205 543.2444 29568.3623 143.0979 182.8487
ENERGY: 900000 1.4620 11.3376 7.3649 0.0000 -10521.4331 1359.3271 0.0000 0.0000 1789.7516 -7352.1900 307.5445 -9141.9415 -7389.2951 301.8796 -272.5981 -180.5009 29801.8829 141.9349 188.3097
ENERGY: 1200000 2.2526 7.7237 4.5211 0.0000 -10574.0037 1439.0641 0.0000 0.0000 1721.2996 -7399.1426 295.7819 -9120.4422 -7387.5873 301.9766 339.9213 395.2536 30017.3097 59.6335 112.3849
ENERGY: 1500000 5.2775 10.5628 5.5277 0.0000 -10573.5741 1413.9844 0.0000 0.0000 1764.5557 -7373.6660 303.2149 -9138.2217 -7380.9748 301.7514 -232.3958 -248.4775 30095.5515 -4.3676 48.5312
TCL: Running FEP window   5: Lambda1 0.7999999999999998 Lambda2 0.7499999999999998 [dLambda -0.050000000000000044]
TCL: Setting parameter firsttimestep to 0
TCL: Setting parameter alchLambda to 0.7999999999999998
Info: NONBONDED TABLE R-SQUARED SPACING: 0.0625
Info: NONBONDED TABLE SIZE: 705 POINTS
TCL: Setting parameter alchLambda2 to 0.7499999999999998
Info: NONBONDED TABLE R-SQUARED SPACING: 0.0625
Info: NONBONDED TABLE SIZE: 705 POINTS
TCL: Running for 1500000 steps
ETITLE: TS BOND ANGLE DIHED IMPRP ELECT VDW BOUNDARY MISC KINETIC TOTAL TEMP POTENTIAL TOTALAVG TEMPAVG PRESSURE GPRESSURE VOLUME PRESSAVG GPRESSAVG
ENERGY: 0 5.2775 10.5628 5.5277 0.0000 -10572.0851 1413.1728 0.0000 0.0000 1763.6744 -7373.8700 303.0635 -9137.5444 -7373.8700 303.0635 -327.6973 -264.4004 30095.5515 -327.6973 -264.4004
ENERGY: 300000 2.9804 10.2288 3.7204 0.0000 -10682.0381 1492.2465 0.0000 0.0000 1788.4946 -7384.3674 307.3285 -9172.8620 -7375.4891 303.4295 485.5621 567.9850 30056.3872 6.4353 90.8842
ENERGY: 600000 2.9902 8.8109 3.8910 0.0000 -10547.7993 1389.4774 0.0000 0.0000 1810.6532 -7331.9765 311.1361 -9142.6298 -7362.5071 305.8492 -134.8067 -103.8260 29960.7260 18.3334 95.9431
ENERGY: 900000 3.7239 14.3134 4.9163 0.0000 -10621.0028 1350.5600 0.0000 0.0000 1753.5171 -7493.9720 301.3181 -9247.4891 -7379.9897 304.6250 -784.5867 -764.2915 29774.2019 -96.8904 -32.9209
ENERGY: 1200000 2.3204 9.9067 6.1126 0.0000 -10613.4096 1385.0053 0.0000 0.0000 1758.3036 -7451.7609 302.1406 -9210.0645 -7383.9874 304.8266 -449.1323 -338.9221 29945.1394 -85.0806 -14.3010
ENERGY: 1500000 2.4341 9.1052 5.2222 0.0000 -10573.9758 1378.7362 0.0000 0.0000 1701.8011 -7476.6769 292.4314 -9178.4780 -7386.8215 303.7336 -353.0667 -302.9461 30334.7128 -75.6442 -10.9130
TCL: Running FEP window   6: Lambda1 0.7499999999999998 Lambda2 0.6999999999999997 [dLambda -0.050000000000000044]
TCL: Setting parameter firsttimestep to 0
TCL: Setting parameter alchLambda to 0.7499999999999998
Info: NONBONDED TABLE R-SQUARED SPACING: 0.0625
Info: NONBONDED TABLE SIZE: 705 POINTS
TCL: Setting parameter alchLambda2 to 0.6999999999999997
Info: NONBONDED TABLE R-SQUARED SPACING: 0.0625
Info: NONBONDED TABLE SIZE: 705 POINTS
TCL: Running for 1500000 steps
ETITLE: TS BOND ANGLE DIHED IMPRP ELECT VDW BOUNDARY MISC KINETIC TOTAL TEMP POTENTIAL TOTALAVG TEMPAVG PRESSURE GPRESSURE VOLUME PRESSAVG GPRESSAVG
ENERGY: 0 2.4341 9.1052 5.2222 0.0000 -10572.5392 1378.2773 0.0000 0.0000 1700.9522 -7476.5481 292.2855 -9177.5003 -7476.5481 292.2855 -385.6916 -312.8773 30334.7128 -385.6916 -312.8773
ENERGY: 300000 0.8384 8.3871 5.2529 0.0000 -10601.4181 1434.2133 0.0000 0.0000 1783.4508 -7369.2756 306.4618 -9152.7265 -7390.1319 298.9675 270.3092 384.5663 29737.1783 77.0182 146.3785
ENERGY: 600000 2.4499 10.4437 5.3947 0.0000 -10565.1588 1410.2963 0.0000 0.0000 1736.1138 -7400.4604 298.3275 -9136.5742 -7407.0312 299.6461 -99.0908 -12.5205 30250.3951 12.7001 94.8096
ENERGY: 900000 1.1893 8.9887 5.2930 0.0000 -10441.3782 1329.6641 0.0000 0.0000 1734.3557 -7361.8874 298.0254 -9096.2431 -7402.2540 299.6671 -793.8907 -692.7277 30425.8123 -198.9254 -118.1972
ENERGY: 1200000 1.8230 11.7446 3.9347 0.0000 -10668.3285 1461.8490 0.0000 0.0000 1793.7618 -7395.2153 308.2336 -9188.9771 -7399.1921 301.1595 593.7971 657.0091 29404.6141 -94.6399 -15.5722
ENERGY: 1500000 1.0071 10.3437 4.2918 0.0000 -10624.2804 1466.1680 0.0000 0.0000 1729.6470 -7412.8229 297.2163 -9142.4699 -7402.6132 300.8083 503.3131 528.6834 29965.2818 -105.7301 -37.2462
TCL: Running FEP window   7: Lambda1 0.6999999999999997 Lambda2 0.6499999999999997 [dLambda -0.050000000000000044]
TCL: Setting parameter firsttimestep to 0
TCL: Setting parameter alchLambda to 0.6999999999999997
Info: NONBONDED TABLE R-SQUARED SPACING: 0.0625
Info: NONBONDED TABLE SIZE: 705 POINTS
TCL: Setting parameter alchLambda2 to 0.6499999999999997
Info: NONBONDED TABLE R-SQUARED SPACING: 0.0625
Info: NONBONDED TABLE SIZE: 705 POINTS
TCL: Running for 1500000 steps
ETITLE: TS BOND ANGLE DIHED IMPRP ELECT VDW BOUNDARY MISC KINETIC TOTAL TEMP POTENTIAL TOTALAVG TEMPAVG PRESSURE GPRESSURE VOLUME PRESSAVG GPRESSAVG
ENERGY: 0 1.0071 10.3437 4.2918 0.0000 -10621.9403 1464.7125 0.0000 0.0000 1728.7119 -7412.8732 297.0556 -9141.5852 -7412.8732 297.0556 439.3457 511.4343 29965.2818 439.3457 511.4343
ENERGY: 300000 0.5186 14.2039 5.0082 0.0000 -10623.9103 1414.2156 0.0000 0.0000 1725.4796 -7464.4843 296.5002 -9189.9639 -7420.5603 298.8210 -444.3455 -375.4184 30638.9172 256.4206 325.0232
ENERGY: 600000 1.8948 12.1435 4.1076 0.0000 -10601.3134 1406.5559 0.0000 0.0000 1721.6028 -7455.0087 295.8340 -9176.6115 -7412.1310 300.2741 -314.7457 -303.4897 30132.2794 194.1221 243.7570
ENERGY: 900000 0.5676 13.5261 4.8127 0.0000 -10616.3380 1398.9329 0.0000 0.0000 1696.9333 -7501.5655 291.5949 -9198.4988 -7425.7039 299.1086 -563.6813 -501.6488 30545.1990 122.5899 185.4684
ENERGY: 1200000 2.3268 9.7223 5.0887 0.0000 -10603.9244 1444.3241 0.0000 0.0000 1736.2914 -7406.1711 298.3581 -9142.4624 -7421.5276 299.0659 98.3290 218.7347 30204.8813 89.0377 158.6876
ENERGY: 1500000 2.3105 13.5427 4.8408 0.0000 -10765.6983 1514.0859 0.0000 0.0000 1733.4080 -7497.5104 297.8626 -9230.9184 -7420.2505 299.6142 750.6062 764.7028 29492.1332 92.2974 157.1901
TCL: Running FEP window   8: Lambda1 0.6499999999999997 Lambda2 0.5999999999999996 [dLambda -0.050000000000000044]
TCL: Setting parameter firsttimestep to 0
TCL: Setting parameter alchLambda to 0.6499999999999997
Info: NONBONDED TABLE R-SQUARED SPACING: 0.0625
Info: NONBONDED TABLE SIZE: 705 POINTS
TCL: Setting parameter alchLambda2 to 0.5999999999999996
Info: NONBONDED TABLE R-SQUARED SPACING: 0.0625
Info: NONBONDED TABLE SIZE: 705 POINTS
TCL: Running for 1500000 steps
ETITLE: TS BOND ANGLE DIHED IMPRP ELECT VDW BOUNDARY MISC KINETIC TOTAL TEMP POTENTIAL TOTALAVG TEMPAVG PRESSURE GPRESSURE VOLUME PRESSAVG GPRESSAVG
ENERGY: 0 2.3105 13.5427 4.8408 0.0000 -10765.0374 1514.5471 0.0000 0.0000 1732.5181 -7497.2782 297.7097 -9229.7963 -7497.2782 297.7097 692.2584 762.4437 29492.1332 692.2584 762.4437
ENERGY: 300000 1.5174 9.8505 4.5135 0.0000 -10455.8834 1350.6992 0.0000 0.0000 1733.5903 -7355.7125 297.8939 -9089.3028 -7418.6308 300.2083 -591.0686 -480.5465 30359.4055 59.3609 131.4181
ENERGY: 600000 1.7975 13.4944 4.6589 0.0000 -10466.7186 1380.9608 0.0000 0.0000 1760.0701 -7305.7369 302.4441 -9065.8070 -7401.1254 301.1498 -115.5408 -102.1733 30041.3918 -150.1662 -80.0268
ENERGY: 900000 1.6818 9.9264 4.1766 0.0000 -10527.5885 1448.0278 0.0000 0.0000 1760.8774 -7302.8984 302.5828 -9063.7758 -7389.6325 301.2049 348.2819 415.3734 30149.5273 -10.7916 58.9895
ENERGY: 1200000 0.9544 6.8995 3.4782 0.0000 -10459.3454 1364.3612 0.0000 0.0000 1711.6896 -7371.9625 294.1306 -9083.6521 -7388.5467 300.2130 -375.2679 -350.7429 30240.5344 -95.2449 -24.9908
ENERGY: 1500000 2.1010 8.6852 3.8998 0.0000 -10577.6232 1408.0392 0.0000 0.0000 1750.1579 -7404.7402 300.7408 -9154.8980 -7392.5165 299.6218 289.4707 332.4037 29458.8900 -54.7076 10.7128
TCL: Running FEP window   9: Lambda1 0.5999999999999996 Lambda2 0.5499999999999996 [dLambda -0.050000000000000044]
TCL: Setting parameter firsttimestep to 0
TCL: Setting parameter alchLambda to 0.5999999999999996
Info: NONBONDED TABLE R-SQUARED SPACING: 0.0625
Info: NONBONDED TABLE SIZE: 705 POINTS
TCL: Setting parameter alchLambda2 to 0.5499999999999996
Info: NONBONDED TABLE R-SQUARED SPACING: 0.0625
Info: NONBONDED TABLE SIZE: 705 POINTS
TCL: Running for 1500000 steps
ETITLE: TS BOND ANGLE DIHED IMPRP ELECT VDW BOUNDARY MISC KINETIC TOTAL TEMP POTENTIAL TOTALAVG TEMPAVG PRESSURE GPRESSURE VOLUME PRESSAVG GPRESSAVG
ENERGY: 0 2.1010 8.6852 3.8998 0.0000 -10577.4356 1408.0686 0.0000 0.0000 1749.2930 -7405.3880 300.5922 -9154.6809 -7405.3880 300.5922 240.8911 324.2589 29458.8900 240.8911 324.2589
ENERGY: 300000 3.6821 8.5265 5.0007 0.0000 -10563.0379 1441.2824 0.0000 0.0000 1782.6281 -7321.9181 306.3204 -9104.5462 -7386.2043 298.9670 293.3328 409.6116 29853.8411 -40.0830 36.3625
ENERGY: 600000 1.8841 8.3592 4.2319 0.0000 -10604.0107 1386.3858 0.0000 0.0000 1740.1347 -7463.0150 299.0185 -9203.1497 -7424.3214 298.7953 -505.1286 -468.1904 29888.5372 -91.6485 -18.3511
ENERGY: 900000 1.0876 13.8580 3.3704 0.0000 -10610.0493 1431.8952 0.0000 0.0000 1685.0777 -7474.7605 289.5577 -9159.8382 -7422.0506 298.0480 303.4022 310.7764 29497.1763 -184.6266 -118.3421
ENERGY: 1200000 1.7142 12.9726 6.7920 0.0000 -10579.9347 1440.8378 0.0000 0.0000 1739.7923 -7377.8258 298.9596 -9117.6181 -7413.2447 298.1833 182.0006 255.3509 30216.8001 -142.7026 -72.6550
ENERGY: 1500000 2.3974 11.6650 3.6325 0.0000 -10656.4721 1475.2388 0.0000 0.0000 1726.3285 -7437.2099 296.6461 -9163.5384 -7413.4424 298.2544 178.4676 273.4539 30292.8068 -167.4621 -101.8903
TCL: Running FEP window  10: Lambda1 0.5499999999999996 Lambda2 0.4999999999999996 [dLambda -0.04999999999999999]
TCL: Setting parameter firsttimestep to 0
TCL: Setting parameter alchLambda to 0.5499999999999996
Info: NONBONDED TABLE R-SQUARED SPACING: 0.0625
Info: NONBONDED TABLE SIZE: 705 POINTS
TCL: Setting parameter alchLambda2 to 0.4999999999999996
Info: NONBONDED TABLE R-SQUARED SPACING: 0.0625
Info: NONBONDED TABLE SIZE: 705 POINTS
TCL: Running for 1500000 steps
ETITLE: TS BOND ANGLE DIHED IMPRP ELECT VDW BOUNDARY MISC KINETIC TOTAL TEMP POTENTIAL TOTALAVG TEMPAVG PRESSURE GPRESSURE VOLUME PRESSAVG GPRESSAVG
ENERGY: 0 2.3974 11.6650 3.6325 0.0000 -10655.9964 1474.9825 0.0000 0.0000 1725.4669 -7437.8520 296.4980 -9163.3189 -7437.8520 296.4980 187.5068 262.5325 30292.8068 187.5068 262.5325
ENERGY: 300000 0.5045 13.4212 4.2555 0.0000 -10574.7215 1394.5386 0.0000 0.0000 1826.4975 -7335.5041 313.8587 -9162.0016 -7384.8944 301.6199 -196.7787 -105.6695 30146.7182 103.5004 195.1672
ENERGY: 600000 3.2217 8.1702 4.4630 0.0000 -10781.3629 1529.9560 0.0000 0.0000 1809.5662 -7425.9858 310.9493 -9235.5520 -7383.4139 302.7881 855.8555 946.9227 29768.7638 26.4099 98.5870
ENERGY: 900000 0.7214 7.9052 8.4784 0.0000 -10490.1908 1330.3281 0.0000 0.0000 1743.3561 -7399.4016 299.5720 -9142.7577 -7371.8343 302.4557 -708.5967 -644.7697 30117.3466 -10.8417 55.1541
ENERGY: 1200000 1.4573 10.8780 3.6645 0.0000 -10530.0990 1441.9626 0.0000 0.0000 1713.1524 -7358.9842 294.3819 -9072.1366 -7369.3638 302.3205 -104.8649 -23.5549 30905.2973 34.2416 98.3782
ENERGY: 1500000 1.7502 15.8401 5.1240 0.0000 -10387.1700 1323.6023 0.0000 0.0000 1743.1618 -7297.6917 299.5386 -9040.8535 -7361.5788 301.5955 -573.2258 -510.6622 30246.0327 -4.2158 56.5427
TCL: Running FEP window  11: Lambda1 0.4999999999999996 Lambda2 0.4499999999999996 [dLambda -0.04999999999999999]
TCL: Setting parameter firsttimestep to 0
TCL: Setting parameter alchLambda to 0.4999999999999996
Info: NONBONDED TABLE R-SQUARED SPACING: 0.0625
Info: NONBONDED TABLE SIZE: 705 POINTS
TCL: Setting parameter alchLambda2 to 0.4499999999999996
Info: NONBONDED TABLE R-SQUARED SPACING: 0.0625
Info: NONBONDED TABLE SIZE: 705 POINTS
TCL: Running for 1500000 steps
ETITLE: TS BOND ANGLE DIHED IMPRP ELECT VDW BOUNDARY MISC KINETIC TOTAL TEMP POTENTIAL TOTALAVG TEMPAVG PRESSURE GPRESSURE VOLUME PRESSAVG GPRESSAVG
ENERGY: 0 1.7502 15.8401 5.1240 0.0000 -10386.6022 1323.6668 0.0000 0.0000 1742.3245 -7297.8966 299.3948 -9040.2211 -7297.8966 299.3948 -597.4179 -516.8946 30246.0327 -597.4179 -516.8946
ENERGY: 300000 1.7660 10.3112 3.8910 0.0000 -10468.1842 1334.0258 0.0000 0.0000 1730.5429 -7387.6473 297.3703 -9118.1901 -7351.4239 299.2221 -952.1361 -846.9164 30303.8378 -88.8434 -18.6644
ENERGY: 600000 3.0047 9.2071 6.3118 0.0000 -10492.5755 1380.0336 0.0000 0.0000 1776.1985 -7317.8197 305.2156 -9094.0182 -7350.9847 301.4759 -564.0637 -489.4677 30566.0498 -148.0616 -77.5531
ENERGY: 900000 3.2261 9.9822 5.5573 0.0000 -10536.8348 1469.0606 0.0000 0.0000 1734.4213 -7314.5872 298.0367 -9049.0085 -7381.8731 300.9326 455.9723 470.4408 30136.6962 16.4730 79.0137
ENERGY: 1200000 2.4065 11.9190 3.7251 0.0000 -10627.2011 1458.9875 0.0000 0.0000 1701.0141 -7449.1489 292.2961 -9150.1630 -7380.4324 300.2946 266.5142 320.0970 29966.5358 -9.5062 58.5801
ENERGY: 1500000 1.7880 10.2635 4.4722 0.0000 -10596.7042 1483.7658 0.0000 0.0000 1755.0993 -7341.3154 301.5899 -9096.4147 -7381.5270 300.3330 723.9464 804.6636 29844.7269 81.8587 147.4989
TCL: Running FEP window  12: Lambda1 0.4499999999999996 Lambda2 0.39999999999999963 [dLambda -0.04999999999999999]
TCL: Setting parameter firsttimestep to 0
TCL: Setting parameter alchLambda to 0.4499999999999996
Info: NONBONDED TABLE R-SQUARED SPACING: 0.0625
Info: NONBONDED TABLE SIZE: 705 POINTS
TCL: Setting parameter alchLambda2 to 0.39999999999999963
Info: NONBONDED TABLE R-SQUARED SPACING: 0.0625
Info: NONBONDED TABLE SIZE: 705 POINTS
TCL: Running for 1500000 steps
ETITLE: TS BOND ANGLE DIHED IMPRP ELECT VDW BOUNDARY MISC KINETIC TOTAL TEMP POTENTIAL TOTALAVG TEMPAVG PRESSURE GPRESSURE VOLUME PRESSAVG GPRESSAVG
ENERGY: 0 1.7880 10.2635 4.4722 0.0000 -10596.7033 1483.8312 0.0000 0.0000 1754.2677 -7342.0806 301.4470 -9096.3483 -7342.0806 301.4470 708.0052 793.9517 29844.7269 708.0052 793.9517
ENERGY: 300000 1.9394 10.8503 4.9997 0.0000 -10628.7276 1454.6376 0.0000 0.0000 1721.8515 -7434.4490 295.8768 -9156.3005 -7396.0150 301.6109 -160.9068 -81.4245 30319.8462 75.5594 148.8236
ENERGY: 600000 1.2592 16.1234 4.4828 0.0000 -10576.4451 1403.6226 0.0000 0.0000 1744.9422 -7406.0150 299.8446 -9150.9572 -7382.8013 302.2038 12.5933 71.9593 29715.3538 69.7565 110.9248
ENERGY: 900000 1.2378 10.2965 6.3652 0.0000 -10420.2421 1324.2631 0.0000 0.0000 1715.7020 -7362.3775 294.8201 -9078.0795 -7379.3251 301.2700 -648.8306 -580.0120 30001.1888 37.3970 92.3484
ENERGY: 1200000 2.1796 6.9954 3.9875 0.0000 -10627.8638 1443.3626 0.0000 0.0000 1745.4123 -7425.9264 299.9254 -9171.3387 -7387.1542 301.1974 45.0988 110.5379 29771.2308 2.1036 57.3988
ENERGY: 1500000 0.8803 11.1816 5.0953 0.0000 -10603.6445 1518.8467 0.0000 0.0000 1815.4541 -7252.1865 311.9611 -9067.6406 -7368.9855 302.5989 730.0304 758.7953 30506.4514 1.0083 58.6638
TCL: Running FEP window  13: Lambda1 0.39999999999999963 Lambda2 0.34999999999999964 [dLambda -0.04999999999999999]
TCL: Setting parameter firsttimestep to 0
TCL: Setting parameter alchLambda to 0.39999999999999963
Info: NONBONDED TABLE R-SQUARED SPACING: 0.0625
Info: NONBONDED TABLE SIZE: 705 POINTS
TCL: Setting parameter alchLambda2 to 0.34999999999999964
Info: NONBONDED TABLE R-SQUARED SPACING: 0.0625
Info: NONBONDED TABLE SIZE: 705 POINTS
TCL: Running for 1500000 steps
ETITLE: TS BOND ANGLE DIHED IMPRP ELECT VDW BOUNDARY MISC KINETIC TOTAL TEMP POTENTIAL TOTALAVG TEMPAVG PRESSURE GPRESSURE VOLUME PRESSAVG GPRESSAVG
ENERGY: 0 0.8803 11.1816 5.0953 0.0000 -10603.6445 1518.9655 0.0000 0.0000 1814.5676 -7252.9542 311.8088 -9067.5218 -7252.9542 311.8088 683.1531 755.7752 30506.4514 683.1531 755.7752
ENERGY: 300000 2.1334 12.3928 5.7432 0.0000 -10553.3861 1406.4627 0.0000 0.0000 1717.7988 -7408.8551 295.1804 -9126.6539 -7348.1519 303.2033 -4.6178 16.1429 30028.0836 -69.5603 -3.2689
ENERGY: 600000 2.0620 10.4830 5.8508 0.0000 -10583.4087 1396.3910 0.0000 0.0000 1855.8527 -7312.7691 318.9031 -9168.6219 -7379.5139 302.4713 -539.0068 -482.7329 30435.4466 -126.3397 -69.1340
ENERGY: 900000 1.3888 11.7294 5.8033 0.0000 -10388.1538 1325.1414 0.0000 0.0000 1739.9870 -7304.1039 298.9931 -9044.0909 -7389.1885 300.5685 -657.4111 -577.3486 30307.4805 -175.9277 -111.6329
ENERGY: 1200000 4.5179 7.7709 3.2558 0.0000 -10584.8182 1439.4858 0.0000 0.0000 1731.4445 -7398.3434 297.5252 -9129.7878 -7395.4561 300.4574 -131.3703 -92.6651 30510.0772 -225.9304 -157.9980
ENERGY: 1500000 2.3939 10.9996 3.6446 0.0000 -10639.3942 1497.6828 0.0000 0.0000 1717.4336 -7407.2396 295.1176 -9124.6733 -7390.6982 300.6307 480.4201 561.0186 30086.4682 -194.0481 -118.5524
TCL: Running FEP window  14: Lambda1 0.34999999999999964 Lambda2 0.29999999999999966 [dLambda -0.04999999999999999]
TCL: Setting parameter firsttimestep to 0
TCL: Setting parameter alchLambda to 0.34999999999999964
Info: NONBONDED TABLE R-SQUARED SPACING: 0.0625
Info: NONBONDED TABLE SIZE: 705 POINTS
TCL: Setting parameter alchLambda2 to 0.29999999999999966
Info: NONBONDED TABLE R-SQUARED SPACING: 0.0625
Info: NONBONDED TABLE SIZE: 705 POINTS
TCL: Running for 1500000 steps
ETITLE: TS BOND ANGLE DIHED IMPRP ELECT VDW BOUNDARY MISC KINETIC TOTAL TEMP POTENTIAL TOTALAVG TEMPAVG PRESSURE GPRESSURE VOLUME PRESSAVG GPRESSAVG
ENERGY: 0 2.3939 10.9996 3.6446 0.0000 -10639.3949 1497.8918 0.0000 0.0000 1716.5976 -7407.8674 294.9739 -9124.4649 -7407.8674 294.9739 473.7195 557.3380 30086.4682 473.7195 557.3380
ENERGY: 300000 4.9647 8.4456 3.1450 0.0000 -10563.6544 1456.6347 0.0000 0.0000 1719.0686 -7371.3958 295.3986 -9090.4644 -7420.4637 293.7686 263.2018 349.9965 30390.8489 282.7940 359.7560
ENERGY: 600000 0.5681 10.5169 6.2258 0.0000 -10640.3966 1464.3105 0.0000 0.0000 1746.1972 -7412.5781 300.0602 -9158.7753 -7400.4267 296.3612 258.8229 322.7487 29876.2502 157.9944 228.1024
ENERGY: 900000 5.2230 7.1743 5.2308 0.0000 -10576.3656 1412.3864 0.0000 0.0000 1732.5365 -7413.8146 297.7128 -9146.3511 -7393.2550 297.3797 -102.7782 -13.5219 29680.3336 6.9941 81.4195
ENERGY: 1200000 1.0939 10.8577 4.8957 0.0000 -10518.6224 1392.7355 0.0000 0.0000 1708.9145 -7400.1251 293.6537 -9109.0396 -7393.6631 298.3149 -90.7191 -96.9905 29984.7531 -29.3925 40.1829
ENERGY: 1500000 3.0487 10.3957 3.8139 0.0000 -10470.0934 1329.7969 0.0000 0.0000 1738.4310 -7384.6071 298.7257 -9123.0382 -7398.1958 297.9084 -894.7209 -873.6269 30188.5261 -47.9300 10.6039
TCL: Running FEP window  15: Lambda1 0.29999999999999966 Lambda2 0.24999999999999967 [dLambda -0.04999999999999999]
TCL: Setting parameter firsttimestep to 0
TCL: Setting parameter alchLambda to 0.29999999999999966
Info: NONBONDED TABLE R-SQUARED SPACING: 0.0625
Info: NONBONDED TABLE SIZE: 705 POINTS
TCL: Setting parameter alchLambda2 to 0.24999999999999967
Info: NONBONDED TABLE R-SQUARED SPACING: 0.0625
Info: NONBONDED TABLE SIZE: 705 POINTS
TCL: Running for 1500000 steps
ETITLE: TS BOND ANGLE DIHED IMPRP ELECT VDW BOUNDARY MISC KINETIC TOTAL TEMP POTENTIAL TOTALAVG TEMPAVG PRESSURE GPRESSURE VOLUME PRESSAVG GPRESSAVG
ENERGY: 0 3.0487 10.3957 3.8139 0.0000 -10470.0951 1329.7353 0.0000 0.0000 1737.5637 -7385.5377 298.5767 -9123.1014 -7385.5377 298.5767 -966.7735 -880.7958 30188.5261 -966.7735 -880.7958
ENERGY: 300000 1.5279 12.3195 4.2528 0.0000 -10613.8083 1491.6400 0.0000 0.0000 1744.5618 -7359.5063 299.7792 -9104.0681 -7379.2254 300.0739 794.8905 858.9451 29920.6138 -112.1935 -44.7604
ENERGY: 600000 2.2527 6.9267 4.4203 0.0000 -10592.1441 1463.2094 0.0000 0.0000 1720.6136 -7394.7215 295.6641 -9115.3351 -7400.1503 298.0018 236.0324 312.3312 30232.2880 -44.6911 6.4092
ENERGY: 900000 2.7376 8.4474 4.2321 0.0000 -10644.0482 1431.8854 0.0000 0.0000 1766.3241 -7430.4216 303.5188 -9196.7456 -7379.5705 299.8205 -27.0646 66.0007 29622.2751 -123.1021 -65.0426
ENERGY: 1200000 3.1235 9.2885 6.6645 0.0000 -10635.4504 1443.9749 0.0000 0.0000 1747.2639 -7425.1351 300.2435 -9172.3989 -7386.0883 299.5875 153.6627 265.6969 29955.3760 -200.9339 -140.7518
ENERGY: 1500000 4.3650 11.1851 3.7637 0.0000 -10563.0975 1429.2370 0.0000 0.0000 1795.6783 -7318.8684 308.5629 -9114.5467 -7377.7309 301.1425 -32.8511 11.3610 30210.9488 -179.7757 -116.4419
TCL: Running FEP window  16: Lambda1 0.24999999999999967 Lambda2 0.19999999999999968 [dLambda -0.04999999999999999]
TCL: Setting parameter firsttimestep to 0
TCL: Setting parameter alchLambda to 0.24999999999999967
Info: NONBONDED TABLE R-SQUARED SPACING: 0.0625
Info: NONBONDED TABLE SIZE: 705 POINTS
TCL: Setting parameter alchLambda2 to 0.19999999999999968
Info: NONBONDED TABLE R-SQUARED SPACING: 0.0625
Info: NONBONDED TABLE SIZE: 705 POINTS
TCL: Running for 1500000 steps
ETITLE: TS BOND ANGLE DIHED IMPRP ELECT VDW BOUNDARY MISC KINETIC TOTAL TEMP POTENTIAL TOTALAVG TEMPAVG PRESSURE GPRESSURE VOLUME PRESSAVG GPRESSAVG
ENERGY: 0 4.3650 11.1851 3.7637 0.0000 -10563.0968 1429.7410 0.0000 0.0000 1794.8319 -7319.2101 308.4175 -9114.0420 -7319.2101 308.4175 -75.1109 9.3430 30210.9488 -75.1109 9.3430
ENERGY: 300000 1.6317 8.6359 3.5126 0.0000 -10654.7441 1512.1336 0.0000 0.0000 1760.0924 -7368.7380 302.4479 -9128.8304 -7390.6593 300.3030 710.7381 755.8107 30070.7701 92.7823 161.0586
ENERGY: 600000 4.3514 11.0266 4.0516 0.0000 -10485.1787 1314.8391 0.0000 0.0000 1762.5972 -7388.3129 302.8784 -9150.9101 -7383.7522 299.8663 -884.4602 -814.1722 30021.5021 -221.7706 -168.1981
ENERGY: 900000 4.6244 10.7489 5.1123 0.0000 -10644.6378 1480.9292 0.0000 0.0000 1741.1312 -7402.0918 299.1897 -9143.2230 -7384.3947 301.0695 313.0603 390.1383 30159.1075 -139.1582 -80.7593
ENERGY: 1200000 1.2504 11.1869 5.6410 0.0000 -10516.1522 1423.5416 0.0000 0.0000 1684.4235 -7390.1087 289.4453 -9074.5322 -7385.6733 300.0185 -40.9034 37.4261 30312.9203 -106.8701 -43.1393
ENERGY: 1500000 1.2198 10.3481 3.7488 0.0000 -10438.7006 1291.5738 0.0000 0.0000 1828.0057 -7303.8045 314.1179 -9131.8102 -7389.4340 300.2339 -1068.0385 -1043.5442 30208.4123 -186.7350 -123.3323
TCL: Running FEP window  17: Lambda1 0.19999999999999968 Lambda2 0.1499999999999997 [dLambda -0.04999999999999999]
TCL: Setting parameter firsttimestep to 0
TCL: Setting parameter alchLambda to 0.19999999999999968
Info: NONBONDED TABLE R-SQUARED SPACING: 0.0625
Info: NONBONDED TABLE SIZE: 705 POINTS
TCL: Setting parameter alchLambda2 to 0.1499999999999997
Info: NONBONDED TABLE R-SQUARED SPACING: 0.0625
Info: NONBONDED TABLE SIZE: 705 POINTS
TCL: Running for 1500000 steps
ETITLE: TS BOND ANGLE DIHED IMPRP ELECT VDW BOUNDARY MISC KINETIC TOTAL TEMP POTENTIAL TOTALAVG TEMPAVG PRESSURE GPRESSURE VOLUME PRESSAVG GPRESSAVG
ENERGY: 0 1.2198 10.3481 3.7488 0.0000 -10438.7008 1292.1312 0.0000 0.0000 1827.1482 -7304.1048 313.9706 -9131.2530 -7304.1048 313.9706 -1120.4148 -1045.7207 30208.4123 -1120.4148 -1045.7207
ENERGY: 300000 4.7719 12.5672 3.8710 0.0000 -10568.7840 1363.2740 0.0000 0.0000 1769.0264 -7415.2735 303.9831 -9184.3000 -7387.4038 306.8558 -847.6465 -818.9561 30380.7303 -363.4885 -300.4301
ENERGY: 600000 3.1700 9.2329 4.8051 0.0000 -10504.6051 1357.3564 0.0000 0.0000 1714.8444 -7415.1964 294.6727 -9130.0407 -7392.1510 303.9830 -831.8195 -760.8795 30328.8892 -468.9999 -404.6422
ENERGY: 900000 2.5359 10.8582 3.8644 0.0000 -10581.2538 1426.4579 0.0000 0.0000 1728.6321 -7408.9053 297.0419 -9137.5374 -7396.7602 301.3975 73.5878 110.5955 30065.4555 -418.4653 -356.4988
ENERGY: 1200000 2.1913 10.1179 4.9780 0.0000 -10560.7065 1473.5933 0.0000 0.0000 1747.4984 -7322.3276 300.2838 -9069.8260 -7387.1934 300.8857 751.2191 767.9824 29509.1354 -242.1452 -178.9574
ENERGY: 1500000 1.4068 7.2569 5.3888 0.0000 -10656.8761 1495.3270 0.0000 0.0000 1645.5423 -7501.9543 282.7641 -9147.4966 -7393.4934 299.5235 628.4003 711.3894 29344.2335 -198.2808 -131.9782
TCL: Running FEP window  18: Lambda1 0.1499999999999997 Lambda2 0.09999999999999969 [dLambda -0.05 ]
TCL: Setting parameter firsttimestep to 0
TCL: Setting parameter alchLambda to 0.1499999999999997
Info: NONBONDED TABLE R-SQUARED SPACING: 0.0625
Info: NONBONDED TABLE SIZE: 705 POINTS
TCL: Setting parameter alchLambda2 to 0.09999999999999969
Info: NONBONDED TABLE R-SQUARED SPACING: 0.0625
Info: NONBONDED TABLE SIZE: 705 POINTS
TCL: Running for 1500000 steps
ETITLE: TS BOND ANGLE DIHED IMPRP ELECT VDW BOUNDARY MISC KINETIC TOTAL TEMP POTENTIAL TOTALAVG TEMPAVG PRESSURE GPRESSURE VOLUME PRESSAVG GPRESSAVG
ENERGY: 0 1.4068 7.2569 5.3888 0.0000 -10656.8756 1495.3995 0.0000 0.0000 1644.6916 -7502.7320 282.6179 -9147.4236 -7502.7320 282.6179 619.7325 708.1841 29344.2335 619.7325 708.1841
ENERGY: 300000 3.3825 8.3852 3.4445 0.0000 -10470.7919 1388.4772 0.0000 0.0000 1751.9611 -7315.1415 301.0507 -9067.1026 -7398.1847 298.4852 -242.9459 -278.5097 30304.7871 -145.0594 -91.3991
ENERGY: 600000 1.2137 7.8182 3.4059 0.0000 -10501.7251 1363.9947 0.0000 0.0000 1733.0890 -7392.2036 297.8078 -9125.2926 -7384.8218 301.2577 -350.2393 -271.0814 29758.3688 -2.2543 59.8336
ENERGY: 900000 3.0929 7.7687 3.5736 0.0000 -10614.8487 1500.3148 0.0000 0.0000 1734.1874 -7365.9112 297.9965 -9100.0987 -7385.2751 301.2417 680.6844 708.1062 29855.5326 51.3282 113.7205
ENERGY: 1200000 1.9118 7.1117 3.9661 0.0000 -10584.2410 1455.6323 0.0000 0.0000 1786.2199 -7329.3992 306.9376 -9115.6191 -7384.0937 301.5383 289.2066 377.1410 30194.2297 2.8025 69.9524
ENERGY: 1500000 2.4223 13.2913 4.1962 0.0000 -10759.1199 1550.6487 0.0000 0.0000 1672.7736 -7515.7877 287.4434 -9188.5613 -7395.1674 301.0812 1080.0437 1135.3196 29515.3499 56.1102 118.2040
TCL: Running FEP window  19: Lambda1 0.09999999999999969 Lambda2 0.049999999999999684 [dLambda -0.05 ]
TCL: Setting parameter firsttimestep to 0
TCL: Setting parameter alchLambda to 0.09999999999999969
Info: NONBONDED TABLE R-SQUARED SPACING: 0.0625
Info: NONBONDED TABLE SIZE: 705 POINTS
TCL: Setting parameter alchLambda2 to 0.049999999999999684
Info: NONBONDED TABLE R-SQUARED SPACING: 0.0625
Info: NONBONDED TABLE SIZE: 705 POINTS
TCL: Running for 1500000 steps
ETITLE: TS BOND ANGLE DIHED IMPRP ELECT VDW BOUNDARY MISC KINETIC TOTAL TEMP POTENTIAL TOTALAVG TEMPAVG PRESSURE GPRESSURE VOLUME PRESSAVG GPRESSAVG
ENERGY: 0 2.4223 13.2913 4.1962 0.0000 -10759.1204 1550.8386 0.0000 0.0000 1671.8836 -7516.4883 287.2905 -9188.3719 -7516.4883 287.2905 1048.8577 1134.8959 29515.3499 1048.8577 1134.8959
ENERGY: 300000 1.9644 8.3246 3.9695 0.0000 -10635.8584 1547.5459 0.0000 0.0000 1688.2479 -7385.8061 290.1024 -9074.0540 -7449.9553 293.0272 1006.8902 1078.7274 30050.3919 298.3155 351.6584
ENERGY: 600000 2.5754 6.8218 4.6089 0.0000 -10614.8170 1385.1186 0.0000 0.0000 1778.6577 -7437.0347 305.6381 -9215.6923 -7443.0127 294.9975 -492.6266 -442.9601 29756.6906 -16.9741 42.8430
ENERGY: 900000 2.7947 8.9949 4.8051 0.0000 -10485.6472 1395.7447 0.0000 0.0000 1751.8138 -7321.4939 301.0254 -9073.3077 -7416.8298 297.4542 16.0528 51.7754 29979.2948 -7.4090 58.9010
ENERGY: 1200000 2.9955 5.3185 4.4106 0.0000 -10742.6125 1525.2329 0.0000 0.0000 1790.1524 -7414.5025 307.6133 -9204.6549 -7414.5653 299.2378 728.1053 732.4257 29714.3093 72.8203 135.9093
ENERGY: 1500000 2.6450 13.9638 3.6635 0.0000 -10650.1831 1455.2966 0.0000 0.0000 1691.6415 -7482.9728 290.6856 -9174.6142 -7405.8943 299.2622 131.7876 193.6814 29526.0954 53.2825 115.9840
TCL: Running FEP window  20: Lambda1 0.049999999999999684 Lambda2 0.0    [dLambda -0.049999999999999684]
TCL: Setting parameter firsttimestep to 0
TCL: Setting parameter alchLambda to 0.049999999999999684
Info: NONBONDED TABLE R-SQUARED SPACING: 0.0625
Info: NONBONDED TABLE SIZE: 705 POINTS
TCL: Setting parameter alchLambda2 to 0.0
Info: NONBONDED TABLE R-SQUARED SPACING: 0.0625
Info: NONBONDED TABLE SIZE: 705 POINTS
TCL: Running for 1500000 steps
ETITLE: TS BOND ANGLE DIHED IMPRP ELECT VDW BOUNDARY MISC KINETIC TOTAL TEMP POTENTIAL TOTALAVG TEMPAVG PRESSURE GPRESSURE VOLUME PRESSAVG GPRESSAVG
ENERGY: 0 2.6450 13.9638 3.6635 0.0000 -10650.1826 1454.5425 0.0000 0.0000 1690.7567 -7484.6111 290.5335 -9175.3678 -7484.6111 290.5335 97.9954 190.8684 29526.0954 97.9954 190.8684
ENERGY: 300000 0.9075 16.3833 6.7189 0.0000 -10552.5618 1432.8670 0.0000 0.0000 1808.2548 -7287.4302 310.7240 -9095.6850 -7367.4057 301.5964 114.4989 155.3791 29898.0150 -96.4737 -52.0498
ENERGY: 600000 2.5695 6.0905 4.3339 0.0000 -10512.8754 1388.2563 0.0000 0.0000 1703.8287 -7407.7965 292.7798 -9111.6251 -7365.4980 300.0102 -339.6071 -315.6881 30005.2694 9.7319 55.8854
ENERGY: 900000 0.8174 7.0324 4.9823 0.0000 -10623.6821 1437.8034 0.0000 0.0000 1719.6650 -7453.3816 295.5010 -9173.0466 -7379.0514 298.9519 -84.6397 -17.7326 29998.2037 -83.8793 -37.0301
ENERGY: 1200000 2.1016 12.0309 4.1893 0.0000 -10520.9346 1361.2178 0.0000 0.0000 1746.5998 -7394.7952 300.1294 -9141.3949 -7383.9788 298.4872 -749.5252 -634.8113 30151.3064 -115.5014 -58.9282
ENERGY: 1500000 1.1498 10.6107 4.7686 0.0000 -10661.0549 1486.0246 0.0000 0.0000 1716.5544 -7441.9468 294.9665 -9158.5012 -7392.2669 297.6111 118.5175 187.7089 30509.4768 2.0732 56.2248
TCL: Exiting due to exit command.
