Info: SIMULATION PARAMETERS:
Info: TIMESTEP               2
Info: NUMBER OF STEPS        0
Info: STEPS PER CYCLE        10
Info: PERIODIC CELL BASIS 1  31.6726 0 0
Info: PERIODIC CELL BASIS 2  0 30.2342 0
Info: PERIODIC CELL BASIS 3  0 0 31.5253
Info: PERIODIC CELL CENTER   0 0 0
Info: WRAPPING WATERS AROUND PERIODIC BOUNDARIES ON OUTPUT.
Info: WRAPPING ALL CLUSTERS AROUND PERIODIC BOUNDARIES ON OUTPUT.
Info: FIRST LDB TIMESTEP     50
Info: LAST LDB TIMESTEP     -1
Info: HOM BACKGROUND SCALING 1
Info: PME BACKGROUND SCALING 1
Info: MIN ATOMS PER PATCH    40
Info: EMPTY PATCH LOAD       40 ATOMS
Info: VELOCITY FILE          mobley_4884177_equil.vel
Info: CENTER OF MASS MOVING INITIALLY? NO
Info: DIELECTRIC             1
Info: EXCLUDE                SCALED ONE-FOUR
Info: 1-4 ELECTROSTATICS SCALED BY 0.833333
Info: MODIFIED 1-4 VDW PARAMETERS WILL BE USED
Info: DCD FILENAME           mobley_4884177_prod.dcd
Info: DCD FREQUENCY          100000
Info: DCD FIRST STEP         100000
Info: DCD FILE WILL CONTAIN UNIT CELL DATA
Info: XST FILENAME           mobley_4884177_prod.xst
Info: XST FREQUENCY          100000
Info: NO VELOCITY DCD OUTPUT
Info: NO FORCE DCD OUTPUT
Info: OUTPUT FILENAME        mobley_4884177_prod
Info: BINARY OUTPUT FILES WILL BE USED
Info: RESTART FILENAME       mobley_4884177_prod.restart
Info: RESTART FREQUENCY      100000
Info: BINARY RESTART FILES WILL BE USED
Info: CUTOFF                 9
Info: PAIRLIST DISTANCE      11
Info: PAIRLIST SHRINK RATE   0.01
Info: PAIRLIST GROW RATE     0.01
Info: PAIRLIST TRIGGER       0.3
Info: PAIRLISTS PER CYCLE    2
Info: PAIRLISTS ENABLED
Info: MARGIN                 2
Info: HYDROGEN GROUP CUTOFF  2.5
Info: PATCH DIMENSION        15.5
Info: ENERGY OUTPUT STEPS    100000
Info: ENERGY EVALUATION STEPS    100000
Info: OUTPUT ENERGY PRECISION 4
Info: CROSSTERM ENERGY INCLUDED IN DIHEDRAL
Info: TIMING OUTPUT STEPS    1000000
Info: PRESSURE OUTPUT STEPS  100000
Info: ALCHEMICAL FEP ON
Info: FEP CURRENT LAMBDA VALUE     0
Info: FEP COMPARISON LAMBDA VALUE  0.05
Info: FEP INTRA-ALCHEMICAL NON-BONDED INTERACTIONS WILL BE RETAINED
Info: FEP INTRA-ALCHEMICAL BONDED INTERACTIONS WILL BE RETAINED
Info: FEP VDW SHIFTING COEFFICIENT 5
Info: FEP ELEC. ACTIVE FOR ANNIHILATED PARTICLES BETWEEN LAMBDA = 0 AND LAMBDA = 0.5
Info: FEP ELEC. ACTIVE FOR EXNIHILATED PARTICLES BETWEEN LAMBDA = 0.5 AND LAMBDA = 1
Info: FEP VDW ACTIVE FOR ANNIHILATED PARTICLES BETWEEN LAMBDA = 0 AND LAMBDA = 1
Info: FEP VDW ACTIVE FOR EXNIHILATED PARTICLES BETWEEN LAMBDA = 0 AND LAMBDA = 1
Info: FEP BOND ACTIVE FOR ANNIHILATED PARTICLES BETWEEN LAMBDA = 1 AND LAMBDA = 1
Info: FEP BOND ACTIVE FOR EXNIHILATED PARTICLES BETWEEN LAMBDA = 0 AND LAMBDA = 0
Info: LANGEVIN DYNAMICS ACTIVE
Info: LANGEVIN TEMPERATURE   300
Info: LANGEVIN USING BBK INTEGRATOR
Info: LANGEVIN DAMPING COEFFICIENT IS 1 INVERSE PS
Info: LANGEVIN DYNAMICS APPLIED TO HYDROGENS
Info: LANGEVIN PISTON PRESSURE CONTROL ACTIVE
Info:        TARGET PRESSURE IS 1.01325 BAR
Info:     OSCILLATION PERIOD IS 50 FS
Info:             DECAY TIME IS 25 FS
Info:     PISTON TEMPERATURE IS 300 K
Info:       PRESSURE CONTROL IS GROUP-BASED
Info:    INITIAL STRAIN RATE IS 6.8719e-05 6.8719e-05 6.8719e-05
Info:       CELL FLUCTUATION IS ISOTROPIC
Info: PARTICLE MESH EWALD (PME) ACTIVE
Info: PME TOLERANCE               1e-06
Info: PME EWALD COEFFICIENT       0.348832
Info: PME INTERPOLATION ORDER     4
Info: PME GRID DIMENSIONS         32 32 32
Info: PME MAXIMUM GRID SPACING    1
Info: PME CALCULATION WILL BE PERFORMED ON GPU
Info: FULL ELECTROSTATIC EVALUATION FREQUENCY      2
Info: USING VERLET I (r-RESPA) MTS SCHEME.
Info: C1 SPLITTING OF LONG RANGE ELECTROSTATICS
Info: PLACING ATOMS IN PATCHES BY HYDROGEN GROUPS
Info: RIGID BONDS TO HYDROGEN : ALL
Info:         ERROR TOLERANCE : 1e-08
Info:          MAX ITERATIONS : 100
Info: RIGID WATER USING SETTLE ALGORITHM
Info: RANDOM NUMBER SEED     1743765500
Info: USE HYDROGEN BONDS?    NO
Info: Using AMBER format force field!
Info: AMBER PARM FILE        mobley_4884177.prmtop
Info: COORDINATE PDB         mobley_4884177.pdb
Info: Exclusions will be read from PARM file!
Info: SCNB (VDW SCALING)     2
Info: USING ARITHMETIC MEAN TO COMBINE L-J SIGMA PARAMETERS
Info: BINARY COORDINATES     mobley_4884177_equil.coor
Info: SUMMARY OF PARAMETERS:
Info: 9 BONDS
Info: 11 ANGLES
Info:   11 HARMONIC
Info:   0 COSINE-BASED
Info: 6 DIHEDRAL
Info: 0 IMPROPER
Info: 0 CROSSTERM
Info: 0 VDW
Info: 36 VDW_PAIRS
Info: 0 NBTHOLE_PAIRS
Info: To read alchdata from file: mobley_4884177.pdb
Info: To read alchflag data from column: 5
Info: STRUCTURE SUMMARY:
Info: 2912 ATOMS
Info: 2912 BONDS
Info: 28 ANGLES
Info: 40 DIHEDRALS
Info: 0 IMPROPERS
Info: 0 CROSSTERMS
Info: 2972 EXCLUSIONS
Info: 2904 RIGID BONDS
Info: ALCH: 0 ATOMS TO DISAPPEAR IN FINAL STATE
Info: ALCH: 17 ATOMS TO APPEAR IN FINAL STATE
Info: 5832 DEGREES OF FREEDOM
Info: 973 HYDROGEN GROUPS
Info: 4 ATOMS IN LARGEST HYDROGEN GROUP
Info: 973 MIGRATION GROUPS
Info: 4 ATOMS IN LARGEST MIGRATION GROUP
Info: TOTAL MASS = 17492.6 amu
Info: TOTAL CHARGE = -0.000100033 e
Info: MASS DENSITY = 0.962216 g/cm^3
Info: ATOM DENSITY = 0.0964607 atoms/A^3
Info: ADDED 0 IMPLICIT EXCLUSIONS
Info: NONBONDED TABLE R-SQUARED SPACING: 0.0625
Info: NONBONDED TABLE SIZE: 705 POINTS
Info: REMOVING COM VELOCITY 0.0609172 -0.11059 0.167231
Info: Use 3D box decompostion in PME FFT.
Info: Updated CUDA force table with 4096 elements.
Info: Updated CUDA LJ table with 8 x 8 elements.
Info: Found 18 unique exclusion lists needing 48 bytes
TCL: Running for 1500000 steps
ETITLE: TS BOND ANGLE DIHED IMPRP ELECT VDW BOUNDARY MISC KINETIC TOTAL TEMP POTENTIAL TOTALAVG TEMPAVG PRESSURE GPRESSURE VOLUME PRESSAVG GPRESSAVG
ENERGY: 0 2.2821 4.3332 3.0538 0.0000 -10567.9445 1414.4680 0.0000 0.0000 1787.5383 -7356.2690 308.4809 -9143.8073 -7356.2690 308.4809 -309.9692 -231.9833 30188.4670 -309.9692 -231.9833
ENERGY: 300000 4.2745 6.6221 2.3419 0.0000 -10519.9038 1393.9322 0.0000 0.0000 1746.6686 -7366.0646 301.4279 -9112.7332 -7384.9481 303.7466 -264.6102 -282.9687 29973.7888 -475.3623 -410.5666
ENERGY: 600000 5.5401 6.8636 2.5535 0.0000 -10559.1623 1385.3241 0.0000 0.0000 1759.3201 -7399.5609 303.6112 -9158.8811 -7380.2340 301.5622 -464.0410 -333.8040 29603.4291 -345.8579 -277.4886
ENERGY: 900000 2.5355 6.1537 6.7314 0.0000 -10477.4911 1416.1640 0.0000 0.0000 1759.2522 -7286.6544 303.5994 -9045.9067 -7358.6803 301.6241 155.9993 191.9375 29957.8758 -201.0713 -132.0705
ENERGY: 1200000 6.4175 7.3092 2.2254 0.0000 -10457.2201 1401.2041 0.0000 0.0000 1708.8727 -7331.1912 294.9053 -9040.0640 -7365.6648 300.1921 -116.0744 -39.2909 30196.6630 -141.7402 -74.7772
ENERGY: 1500000 7.1969 5.9976 4.2799 0.0000 -10588.4747 1410.8093 0.0000 0.0000 1765.2875 -7394.9036 304.6410 -9160.1910 -7371.2319 300.3292 0.4241 78.3519 29277.6855 -94.3025 -32.4629
TCL: Running FEP window   2: Lambda1 0.05   Lambda2 0.1    [dLambda 0.05  ]
TCL: Setting parameter firsttimestep to 0
TCL: Setting parameter alchLambda to 0.05
Info: NONBONDED TABLE R-SQUARED SPACING: 0.0625
Info: NONBONDED TABLE SIZE: 705 POINTS
TCL: Setting parameter alchLambda2 to 0.1
Info: NONBONDED TABLE R-SQUARED SPACING: 0.0625
Info: NONBONDED TABLE SIZE: 705 POINTS
TCL: Running for 1500000 steps
ETITLE: TS BOND ANGLE DIHED IMPRP ELECT VDW BOUNDARY MISC KINETIC TOTAL TEMP POTENTIAL TOTALAVG TEMPAVG PRESSURE GPRESSURE VOLUME PRESSAVG GPRESSAVG
ENERGY: 0 7.1969 5.9976 4.2799 0.0000 -10588.4743 1413.5152 0.0000 0.0000 1764.4393 -7393.0456 304.4946 -9157.4848 -7393.0456 304.4946 -0.0781 86.8089 29277.6855 -0.0781 86.8089
ENERGY: 300000 2.2146 8.4992 3.2410 0.0000 -10517.4790 1418.9763 0.0000 0.0000 1716.0922 -7368.4557 296.1512 -9084.5479 -7353.6855 303.5020 -78.3732 47.1329 29719.8457 -10.8791 84.1892
ENERGY: 600000 2.9575 6.8101 1.0350 0.0000 -10499.2997 1427.7891 0.0000 0.0000 1758.7226 -7301.9854 303.5080 -9060.7080 -7345.0911 302.9212 207.5637 252.5813 29783.8573 40.7455 119.0862
ENERGY: 900000 7.0951 6.7363 3.2581 0.0000 -10445.0125 1365.1128 0.0000 0.0000 1728.3395 -7334.4708 298.2647 -9062.8103 -7346.6085 301.0545 -680.9038 -609.7664 30493.5219 -70.6756 -0.2905
ENERGY: 1200000 1.8883 11.8210 3.7113 0.0000 -10615.9672 1491.6626 0.0000 0.0000 1744.4305 -7362.4535 301.0416 -9106.8840 -7352.8535 300.5811 581.4769 702.7974 29523.9222 -60.7179 19.2655
ENERGY: 1500000 2.8459 7.7847 6.1516 0.0000 -10463.8176 1370.0903 0.0000 0.0000 1731.5003 -7345.4448 298.8102 -9076.9451 -7352.0631 300.6198 -284.0147 -164.4234 29797.2440 -52.3831 24.4819
TCL: Running FEP window   3: Lambda1 0.1    Lambda2 0.15000000000000002 [dLambda 0.05000000000000002]
TCL: Setting parameter firsttimestep to 0
TCL: Setting parameter alchLambda to 0.1
Info: NONBONDED TABLE R-SQUARED SPACING: 0.0625
Info: NONBONDED TABLE SIZE: 705 POINTS
TCL: Setting parameter alchLambda2 to 0.15000000000000002
Info: NONBONDED TABLE R-SQUARED SPACING: 0.0625
Info: NONBONDED TABLE SIZE: 705 POINTS
TCL: Running for 1500000 steps
ETITLE: TS BOND ANGLE DIHED IMPRP ELECT VDW BOUNDARY MISC KINETIC TOTAL TEMP POTENTIAL TOTALAVG TEMPAVG PRESSURE GPRESSURE VOLUME PRESSAVG GPRESSAVG
ENERGY: 0 2.8459 7.7847 6.1516 0.0000 -10463.8162 1373.1621 0.0000 0.0000 1730.6400 -7343.2320 298.6617 -9073.8719 -7343.2320 298.6617 -246.1108 -154.0730 29797.2440 -246.1108 -154.0730
ENERGY: 300000 2.6028 6.2700 2.6135 0.0000 -10404.3433 1409.0511 0.0000 0.0000 1734.1399 -7249.6660 299.2657 -8983.8059 -7380.5818 295.6943 54.4458 74.1641 30451.6630 122.7079 171.6930
ENERGY: 600000 0.7646 6.4806 1.7232 0.0000 -10571.7129 1426.9847 0.0000 0.0000 1741.5183 -7394.2414 300.5391 -9135.7597 -7382.0611 297.8390 -37.5534 10.6046 29934.7363 -34.7396 6.3020
ENERGY: 900000 3.2146 5.5447 2.3049 0.0000 -10682.5639 1471.9362 0.0000 0.0000 1757.0127 -7442.5508 303.2130 -9199.5634 -7368.8572 300.8042 99.7037 217.7856 29890.7716 140.6260 197.3412
ENERGY: 1200000 4.1368 7.8597 1.7685 0.0000 -10608.4265 1479.6850 0.0000 0.0000 1790.4060 -7324.5705 308.9757 -9114.9765 -7365.5436 300.9462 869.3980 906.4472 29421.0707 240.4137 293.9401
ENERGY: 1500000 4.9574 6.2117 2.3963 0.0000 -10586.9390 1471.4434 0.0000 0.0000 1796.3822 -7305.5480 310.0071 -9101.9302 -7357.2223 302.1632 541.2223 666.6718 29631.9478 255.8650 314.1494
TCL: Running FEP window   4: Lambda1 0.15000000000000002 Lambda2 0.2    [dLambda 0.04999999999999999]
TCL: Setting parameter firsttimestep to 0
TCL: Setting parameter alchLambda to 0.15000000000000002
Info: NONBONDED TABLE R-SQUARED SPACING: 0.0625
Info: NONBONDED TABLE SIZE: 705 POINTS
TCL: Setting parameter alchLambda2 to 0.2
Info: NONBONDED TABLE R-SQUARED SPACING: 0.0625
Info: NONBONDED TABLE SIZE: 705 POINTS
TCL: Running for 1500000 steps
ETITLE: TS BOND ANGLE DIHED IMPRP ELECT VDW BOUNDARY MISC KINETIC TOTAL TEMP POTENTIAL TOTALAVG TEMPAVG PRESSURE GPRESSURE VOLUME PRESSAVG GPRESSAVG
ENERGY: 0 4.9574 6.2117 2.3963 0.0000 -10586.9385 1472.3905 0.0000 0.0000 1795.5230 -7305.4597 309.8588 -9100.9826 -7305.4597 309.8588 594.8397 674.3629 29631.9478 594.8397 674.3629
ENERGY: 300000 2.0014 8.3338 3.4537 0.0000 -10533.4497 1453.4616 0.0000 0.0000 1724.1842 -7342.0149 297.5477 -9066.1992 -7358.5458 299.1692 583.2219 593.0882 29770.4893 83.8308 125.7139
ENERGY: 600000 0.9998 6.1105 2.7347 0.0000 -10563.8494 1448.1348 0.0000 0.0000 1715.4645 -7390.4051 296.0429 -9105.8695 -7357.6883 298.2001 170.7030 252.7704 29813.5067 73.3475 132.0737
ENERGY: 900000 1.8625 7.0547 6.6745 0.0000 -10574.8577 1430.4491 0.0000 0.0000 1781.0337 -7347.7833 307.3583 -9128.8170 -7355.4950 298.8273 -46.5760 9.0835 30242.7977 -9.5691 42.5225
ENERGY: 1200000 4.2791 6.7294 0.6622 0.0000 -10653.1898 1443.1205 0.0000 0.0000 1723.9623 -7474.4362 297.5094 -9198.3985 -7371.7687 299.0005 -225.7525 -62.7069 29589.6160 -15.2232 49.7407
ENERGY: 1500000 1.9226 7.8624 4.6847 0.0000 -10627.4607 1470.8493 0.0000 0.0000 1746.3191 -7395.8227 301.3675 -9142.1417 -7368.6587 299.3342 412.8248 378.4213 29817.6019 -57.6762 -0.9226
TCL: Running FEP window   5: Lambda1 0.2    Lambda2 0.25   [dLambda 0.04999999999999999]
TCL: Setting parameter firsttimestep to 0
TCL: Setting parameter alchLambda to 0.2
Info: NONBONDED TABLE R-SQUARED SPACING: 0.0625
Info: NONBONDED TABLE SIZE: 705 POINTS
TCL: Setting parameter alchLambda2 to 0.25
Info: NONBONDED TABLE R-SQUARED SPACING: 0.0625
Info: NONBONDED TABLE SIZE: 705 POINTS
TCL: Running for 1500000 steps
ETITLE: TS BOND ANGLE DIHED IMPRP ELECT VDW BOUNDARY MISC KINETIC TOTAL TEMP POTENTIAL TOTALAVG TEMPAVG PRESSURE GPRESSURE VOLUME PRESSAVG GPRESSAVG
ENERGY: 0 1.9226 7.8624 4.6847 0.0000 -10627.4607 1472.2071 0.0000 0.0000 1745.4604 -7395.3235 301.2193 -9140.7839 -7395.3235 301.2193 314.4440 390.5389 29817.6019 314.4440 390.5389
ENERGY: 300000 0.9101 9.2564 1.3223 0.0000 -10603.6626 1468.3953 0.0000 0.0000 1728.2643 -7395.5141 298.2518 -9123.7785 -7351.4859 300.3483 504.9732 532.2131 29800.4176 306.6769 349.0677
ENERGY: 600000 0.9693 4.6265 1.1713 0.0000 -10635.9468 1528.1507 0.0000 0.0000 1723.7910 -7377.2379 297.4798 -9101.0289 -7370.1663 299.4176 680.8923 756.0544 30250.5618 94.8701 159.7878
ENERGY: 900000 4.4622 6.5289 2.9094 0.0000 -10416.9561 1356.6566 0.0000 0.0000 1731.1703 -7315.2287 298.7533 -9046.3990 -7369.1769 298.9123 -268.7601 -196.8380 29740.9047 28.0019 96.6535
ENERGY: 1200000 3.6531 4.3375 3.3451 0.0000 -10618.4843 1480.2498 0.0000 0.0000 1724.3857 -7402.5132 297.5824 -9126.8989 -7376.5175 299.0217 125.2463 138.4518 30183.2084 -22.8297 33.7384
ENERGY: 1500000 1.7201 3.2823 2.0995 0.0000 -10539.3098 1399.1352 0.0000 0.0000 1732.5439 -7400.5287 298.9903 -9133.0726 -7385.3921 299.1251 -396.5187 -247.0561 30043.3870 -33.2275 31.8492
TCL: Running FEP window   6: Lambda1 0.25   Lambda2 0.3    [dLambda 0.04999999999999999]
TCL: Setting parameter firsttimestep to 0
TCL: Setting parameter alchLambda to 0.25
Info: NONBONDED TABLE R-SQUARED SPACING: 0.0625
Info: NONBONDED TABLE SIZE: 705 POINTS
TCL: Setting parameter alchLambda2 to 0.3
Info: NONBONDED TABLE R-SQUARED SPACING: 0.0625
Info: NONBONDED TABLE SIZE: 705 POINTS
TCL: Running for 1500000 steps
ETITLE: TS BOND ANGLE DIHED IMPRP ELECT VDW BOUNDARY MISC KINETIC TOTAL TEMP POTENTIAL TOTALAVG TEMPAVG PRESSURE GPRESSURE VOLUME PRESSAVG GPRESSAVG
ENERGY: 0 1.7201 3.2823 2.0995 0.0000 -10539.3104 1399.7663 0.0000 0.0000 1731.6940 -7400.7482 298.8436 -9132.4422 -7400.7482 298.8436 -328.3380 -239.6902 30043.3870 -328.3380 -239.6902
ENERGY: 300000 1.2961 5.6987 3.7851 0.0000 -10540.1845 1465.0492 0.0000 0.0000 1733.6478 -7330.7075 299.1808 -9064.3553 -7356.2368 301.2708 353.9775 421.1359 29997.9775 279.9631 340.1986
ENERGY: 600000 1.1639 6.4438 1.6135 0.0000 -10684.2195 1525.1436 0.0000 0.0000 1710.5988 -7439.2558 295.2032 -9149.8546 -7359.4479 302.7789 797.1436 897.5629 29480.9089 173.4683 238.4789
ENERGY: 900000 1.1615 4.2486 2.1056 0.0000 -10666.6962 1474.2481 0.0000 0.0000 1733.0374 -7451.8949 299.0755 -9184.9324 -7379.1895 300.9347 184.4908 271.8667 29741.6338 137.3349 193.7254
ENERGY: 1200000 2.0126 3.9808 3.7817 0.0000 -10518.8177 1376.4294 0.0000 0.0000 1729.6401 -7402.9731 298.4892 -9132.6132 -7380.6306 300.2057 -651.0996 -592.0924 30029.1982 -34.5540 26.7522
ENERGY: 1500000 0.4586 4.4089 1.4513 0.0000 -10493.5843 1426.4751 0.0000 0.0000 1754.7640 -7306.0264 302.8249 -9060.7905 -7378.6469 300.2343 -118.5657 27.8888 30238.9739 -163.9600 -96.6024
TCL: Running FEP window   7: Lambda1 0.3    Lambda2 0.35   [dLambda 0.04999999999999999]
TCL: Setting parameter firsttimestep to 0
TCL: Setting parameter alchLambda to 0.3
Info: NONBONDED TABLE R-SQUARED SPACING: 0.0625
Info: NONBONDED TABLE SIZE: 705 POINTS
TCL: Setting parameter alchLambda2 to 0.35
Info: NONBONDED TABLE R-SQUARED SPACING: 0.0625
Info: NONBONDED TABLE SIZE: 705 POINTS
TCL: Running for 1500000 steps
ETITLE: TS BOND ANGLE DIHED IMPRP ELECT VDW BOUNDARY MISC KINETIC TOTAL TEMP POTENTIAL TOTALAVG TEMPAVG PRESSURE GPRESSURE VOLUME PRESSAVG GPRESSAVG
ENERGY: 0 0.4586 4.4089 1.4513 0.0000 -10493.5837 1426.3616 0.0000 0.0000 1753.8843 -7307.0191 302.6731 -9060.9034 -7307.0191 302.6731 -50.8164 32.5519 30238.9739 -50.8164 32.5519
ENERGY: 300000 2.8464 7.6511 4.5983 0.0000 -10457.5995 1421.6931 0.0000 0.0000 1751.8548 -7268.9558 302.3229 -9020.8106 -7314.9789 301.6563 148.2252 179.6046 30094.1238 -10.6093 42.9163
ENERGY: 600000 1.6631 2.0086 3.1810 0.0000 -10569.0420 1398.7632 0.0000 0.0000 1725.7356 -7437.6905 297.8154 -9163.4261 -7352.7454 299.9805 -261.3322 -175.1363 29809.3399 -54.1492 -11.2435
ENERGY: 900000 4.1706 4.8958 4.1624 0.0000 -10577.5159 1433.8972 0.0000 0.0000 1709.6624 -7420.7276 295.0416 -9130.3900 -7346.5970 300.8421 66.5007 52.6861 29952.8809 -61.7802 -14.9633
ENERGY: 1200000 4.6445 6.8772 3.2216 0.0000 -10469.3915 1358.6191 0.0000 0.0000 1734.5284 -7361.5006 299.3328 -9096.0290 -7357.8096 301.0291 -398.3389 -410.3905 30211.0477 -30.4606 10.1138
ENERGY: 1500000 0.6184 3.4975 2.8968 0.0000 -10549.6569 1389.3089 0.0000 0.0000 1806.5381 -7346.7972 311.7597 -9153.3353 -7358.4599 302.1836 -358.8377 -271.2087 29894.5851 -106.5569 -57.2967
TCL: Running FEP window   8: Lambda1 0.35   Lambda2 0.39999999999999997 [dLambda 0.04999999999999999]
TCL: Setting parameter firsttimestep to 0
TCL: Setting parameter alchLambda to 0.35
Info: NONBONDED TABLE R-SQUARED SPACING: 0.0625
Info: NONBONDED TABLE SIZE: 705 POINTS
TCL: Setting parameter alchLambda2 to 0.39999999999999997
Info: NONBONDED TABLE R-SQUARED SPACING: 0.0625
Info: NONBONDED TABLE SIZE: 705 POINTS
TCL: Running for 1500000 steps
ETITLE: TS BOND ANGLE DIHED IMPRP ELECT VDW BOUNDARY MISC KINETIC TOTAL TEMP POTENTIAL TOTALAVG TEMPAVG PRESSURE GPRESSURE VOLUME PRESSAVG GPRESSAVG
ENERGY: 0 0.6184 3.4975 2.8968 0.0000 -10549.6569 1390.0721 0.0000 0.0000 1805.6827 -7346.8894 311.6121 -9152.5721 -7346.8894 311.6121 -335.5714 -261.0620 29894.5851 -335.5714 -261.0620
ENERGY: 300000 2.1341 5.1205 3.6441 0.0000 -10537.1973 1430.3887 0.0000 0.0000 1747.8488 -7348.0612 301.6315 -9095.9100 -7370.1327 299.9645 179.2676 268.4841 29509.8484 22.2135 103.2029
ENERGY: 600000 0.9612 6.8252 2.8501 0.0000 -10465.7095 1415.9706 0.0000 0.0000 1732.6207 -7306.4818 299.0036 -9039.1025 -7354.5918 298.3140 -104.6993 -27.1915 30477.0275 -122.7732 -44.5942
ENERGY: 900000 2.2316 5.0881 3.0184 0.0000 -10412.0077 1343.6547 0.0000 0.0000 1731.3061 -7326.7088 298.7767 -9058.0148 -7357.7901 297.9528 -572.7236 -532.6169 30185.2082 -150.0940 -73.0944
ENERGY: 1200000 1.1375 3.4959 5.3027 0.0000 -10335.6125 1294.1568 0.0000 0.0000 1819.8449 -7211.6747 314.0561 -9031.5196 -7349.6320 300.1036 -511.2111 -451.3715 29863.2116 -177.0642 -101.0013
ENERGY: 1500000 2.9864 6.6639 5.8006 0.0000 -10641.6455 1478.2597 0.0000 0.0000 1759.3056 -7388.6292 303.6087 -9147.9348 -7357.5735 299.9681 673.7358 726.8028 29500.9951 -152.9867 -77.1770
TCL: Running FEP window   9: Lambda1 0.39999999999999997 Lambda2 0.44999999999999996 [dLambda 0.04999999999999999]
TCL: Setting parameter firsttimestep to 0
TCL: Setting parameter alchLambda to 0.39999999999999997
Info: NONBONDED TABLE R-SQUARED SPACING: 0.0625
Info: NONBONDED TABLE SIZE: 705 POINTS
TCL: Setting parameter alchLambda2 to 0.44999999999999996
Info: NONBONDED TABLE R-SQUARED SPACING: 0.0625
Info: NONBONDED TABLE SIZE: 705 POINTS
TCL: Running for 1500000 steps
ETITLE: TS BOND ANGLE DIHED IMPRP ELECT VDW BOUNDARY MISC KINETIC TOTAL TEMP POTENTIAL TOTALAVG TEMPAVG PRESSURE GPRESSURE VOLUME PRESSAVG GPRESSAVG
ENERGY: 0 2.9864 6.6639 5.8006 0.0000 -10641.6457 1477.9911 0.0000 0.0000 1758.4457 -7389.7581 303.4603 -9148.2037 -7389.7581 303.4603 641.9338 728.3762 29500.9951 641.9338 728.3762
ENERGY: 300000 1.4680 7.6081 1.4080 0.0000 -10694.3203 1468.4526 0.0000 0.0000 1711.6003 -7503.7834 295.3760 -9215.3837 -7400.7387 294.9563 241.8034 258.3395 29607.2241 188.7930 252.5610
ENERGY: 600000 1.8417 6.0790 1.4350 0.0000 -10566.5347 1443.1839 0.0000 0.0000 1713.8569 -7400.1382 295.7654 -9113.9951 -7386.5117 295.1918 19.4267 38.4173 29984.4761 16.5110 77.1230
ENERGY: 900000 1.8974 4.1489 3.3744 0.0000 -10515.2988 1418.0131 0.0000 0.0000 1745.8554 -7342.0095 301.2875 -9087.8650 -7376.4666 297.2822 47.7273 31.9387 29987.3428 0.7038 50.0187
ENERGY: 1200000 2.4880 6.0503 3.2454 0.0000 -10562.8626 1411.9026 0.0000 0.0000 1753.1843 -7385.9921 302.5523 -9139.1763 -7382.3224 297.2685 -299.0046 -250.6732 30069.1852 -39.1044 3.5865
ENERGY: 1500000 4.4792 5.4737 1.7706 0.0000 -10587.4119 1441.4810 0.0000 0.0000 1753.8515 -7380.3559 302.6674 -9134.2074 -7381.0261 298.5577 -33.7364 68.4939 30081.2101 -26.0085 25.4061
TCL: Running FEP window  10: Lambda1 0.44999999999999996 Lambda2 0.49999999999999994 [dLambda 0.04999999999999999]
TCL: Setting parameter firsttimestep to 0
TCL: Setting parameter alchLambda to 0.44999999999999996
Info: NONBONDED TABLE R-SQUARED SPACING: 0.0625
Info: NONBONDED TABLE SIZE: 705 POINTS
TCL: Setting parameter alchLambda2 to 0.49999999999999994
Info: NONBONDED TABLE R-SQUARED SPACING: 0.0625
Info: NONBONDED TABLE SIZE: 705 POINTS
TCL: Running for 1500000 steps
ETITLE: TS BOND ANGLE DIHED IMPRP ELECT VDW BOUNDARY MISC KINETIC TOTAL TEMP POTENTIAL TOTALAVG TEMPAVG PRESSURE GPRESSURE VOLUME PRESSAVG GPRESSAVG
ENERGY: 0 4.4792 5.4737 1.7706 0.0000 -10587.4114 1441.1021 0.0000 0.0000 1752.9991 -7381.5867 302.5203 -9134.5858 -7381.5867 302.5203 -21.4433 68.5106 30081.2101 -21.4433 68.5106
ENERGY: 300000 2.1817 7.6962 4.2447 0.0000 -10509.7205 1417.2344 0.0000 0.0000 1706.9525 -7371.4109 294.5739 -9078.3635 -7377.2799 298.3264 -102.2449 -68.6681 30381.8003 -72.0803 -21.0002
ENERGY: 600000 2.7056 4.7634 3.1952 0.0000 -10494.0547 1439.6479 0.0000 0.0000 1763.8858 -7279.8569 304.3991 -9043.7426 -7357.6603 299.6113 243.8620 302.1503 30064.7019 -114.7634 -56.8174
ENERGY: 900000 1.7697 4.7307 1.9270 0.0000 -10553.7612 1382.6901 0.0000 0.0000 1737.7408 -7424.9028 299.8872 -9162.6436 -7354.5405 300.6083 -276.6071 -208.0911 29656.2971 -94.0627 -32.9940
ENERGY: 1200000 1.1291 7.9863 1.8582 0.0000 -10636.7023 1421.1027 0.0000 0.0000 1779.9723 -7424.6537 307.1752 -9204.6260 -7366.3196 300.6721 -125.0875 -74.4409 29961.8930 -74.0833 -9.2183
ENERGY: 1500000 1.4545 6.0329 3.3313 0.0000 -10569.7555 1418.5231 0.0000 0.0000 1773.9495 -7366.4642 306.1358 -9140.4137 -7365.1477 301.6968 -188.7472 -154.0317 30611.4758 -91.2035 -31.5905
TCL: Running FEP window  11: Lambda1 0.49999999999999994 Lambda2 0.5499999999999999 [dLambda 0.04999999999999999]
TCL: Setting parameter firsttimestep to 0
TCL: Setting parameter alchLambda to 0.49999999999999994
Info: NONBONDED TABLE R-SQUARED SPACING: 0.0625
Info: NONBONDED TABLE SIZE: 705 POINTS
TCL: Setting parameter alchLambda2 to 0.5499999999999999
Info: NONBONDED TABLE R-SQUARED SPACING: 0.0625
Info: NONBONDED TABLE SIZE: 705 POINTS
TCL: Running for 1500000 steps
ETITLE: TS BOND ANGLE DIHED IMPRP ELECT VDW BOUNDARY MISC KINETIC TOTAL TEMP POTENTIAL TOTALAVG TEMPAVG PRESSURE GPRESSURE VOLUME PRESSAVG GPRESSAVG
ENERGY: 0 1.4545 6.0329 3.3313 0.0000 -10569.7550 1418.1713 0.0000 0.0000 1773.0965 -7367.6685 305.9886 -9140.7650 -7367.6685 305.9886 -214.5075 -152.3218 30611.4758 -214.5075 -152.3218
ENERGY: 300000 1.9568 2.8956 1.6072 0.0000 -10523.0854 1377.2337 0.0000 0.0000 1749.8716 -7389.5204 301.9806 -9139.3920 -7351.2623 303.2848 -612.3274 -530.1148 30245.9646 -436.4870 -380.8503
ENERGY: 600000 1.9553 2.7215 2.2556 0.0000 -10563.6112 1423.4879 0.0000 0.0000 1706.6021 -7426.5887 294.5135 -9133.1909 -7368.2432 299.8012 -242.8823 -214.5090 30186.9254 -264.5181 -194.0498
ENERGY: 900000 5.5365 5.2824 2.8004 0.0000 -10554.4286 1421.2634 0.0000 0.0000 1808.9050 -7310.6409 312.1682 -9119.5458 -7355.8202 301.6821 -151.2666 -17.3345 30096.9665 -181.0230 -109.5748
ENERGY: 1200000 2.2872 3.5538 5.3804 0.0000 -10572.2092 1437.5368 0.0000 0.0000 1748.5938 -7374.8573 301.7601 -9123.4510 -7359.5099 301.1238 -21.9052 17.9865 29930.1467 -152.2463 -83.9601
ENERGY: 1500000 1.8902 7.8731 2.4265 0.0000 -10631.6078 1490.1356 0.0000 0.0000 1727.5573 -7401.7252 298.1298 -9129.2825 -7365.4807 300.1634 543.2830 537.9302 29890.9765 -141.1919 -77.8455
TCL: Running FEP window  12: Lambda1 0.5499999999999999 Lambda2 0.6    [dLambda 0.050000000000000044]
TCL: Setting parameter firsttimestep to 0
TCL: Setting parameter alchLambda to 0.5499999999999999
Info: NONBONDED TABLE R-SQUARED SPACING: 0.0625
Info: NONBONDED TABLE SIZE: 705 POINTS
TCL: Setting parameter alchLambda2 to 0.6
Info: NONBONDED TABLE R-SQUARED SPACING: 0.0625
Info: NONBONDED TABLE SIZE: 705 POINTS
TCL: Running for 1500000 steps
ETITLE: TS BOND ANGLE DIHED IMPRP ELECT VDW BOUNDARY MISC KINETIC TOTAL TEMP POTENTIAL TOTALAVG TEMPAVG PRESSURE GPRESSURE VOLUME PRESSAVG GPRESSAVG
ENERGY: 0 1.8902 7.8731 2.4265 0.0000 -10631.5495 1490.4869 0.0000 0.0000 1726.6744 -7402.1984 297.9774 -9128.8728 -7402.1984 297.9774 466.4031 547.8982 29890.9765 466.4031 547.8982
ENERGY: 300000 3.6180 4.4433 5.4612 0.0000 -10588.0063 1429.6041 0.0000 0.0000 1732.8083 -7412.0715 299.0359 -9144.8797 -7380.8373 300.7198 -178.6279 -105.7328 30070.6537 350.5660 422.3853
ENERGY: 600000 2.2062 6.0957 2.9759 0.0000 -10552.7660 1384.2788 0.0000 0.0000 1717.5643 -7439.6451 296.4052 -9157.2094 -7381.2231 300.1126 -564.4399 -486.7526 30085.8506 133.4583 201.5415
ENERGY: 900000 1.2012 4.8259 3.8139 0.0000 -10540.5007 1440.5037 0.0000 0.0000 1791.8251 -7298.3310 309.2206 -9090.1561 -7360.5386 301.5556 234.6764 305.4745 30271.9179 110.6744 178.5450
ENERGY: 1200000 5.0721 5.7376 5.1626 0.0000 -10516.0919 1420.7075 0.0000 0.0000 1758.4472 -7320.9648 303.4605 -9079.4120 -7361.4060 301.9397 -8.5390 2.5768 30239.1180 126.6782 189.3387
ENERGY: 1500000 3.1717 11.8444 4.5203 0.0000 -10471.8475 1334.0924 0.0000 0.0000 1747.9102 -7370.3085 301.6421 -9118.2187 -7362.0315 302.2217 -825.2427 -783.6688 30058.1123 44.1126 102.5618
TCL: Running FEP window  13: Lambda1 0.6    Lambda2 0.65   [dLambda 0.050000000000000044]
TCL: Setting parameter firsttimestep to 0
TCL: Setting parameter alchLambda to 0.6
Info: NONBONDED TABLE R-SQUARED SPACING: 0.0625
Info: NONBONDED TABLE SIZE: 705 POINTS
TCL: Setting parameter alchLambda2 to 0.65
Info: NONBONDED TABLE R-SQUARED SPACING: 0.0625
Info: NONBONDED TABLE SIZE: 705 POINTS
TCL: Running for 1500000 steps
ETITLE: TS BOND ANGLE DIHED IMPRP ELECT VDW BOUNDARY MISC KINETIC TOTAL TEMP POTENTIAL TOTALAVG TEMPAVG PRESSURE GPRESSURE VOLUME PRESSAVG GPRESSAVG
ENERGY: 0 3.1717 11.8444 4.5203 0.0000 -10472.5850 1334.4032 0.0000 0.0000 1747.0417 -7371.6038 301.4922 -9118.6454 -7371.6038 301.4922 -843.2182 -770.5230 30058.1123 -843.2182 -770.5230
ENERGY: 300000 2.0613 4.5724 1.3198 0.0000 -10511.1682 1449.6988 0.0000 0.0000 1702.9149 -7350.6009 293.8771 -9053.5158 -7397.6445 297.6137 598.3651 575.6308 29764.9396 103.3622 146.2482
ENERGY: 600000 2.7815 4.0636 1.8027 0.0000 -10627.9128 1446.6720 0.0000 0.0000 1727.7705 -7444.8225 298.1666 -9172.5930 -7396.8911 298.0257 135.4320 247.8976 29460.4819 137.0601 200.6091
ENERGY: 900000 5.3056 4.8263 2.2106 0.0000 -10636.5039 1448.2323 0.0000 0.0000 1719.9477 -7455.9813 296.8165 -9175.9290 -7386.3495 298.4295 -40.4959 -11.8976 29983.1819 93.4523 144.8719
ENERGY: 1200000 1.5066 4.7696 3.1813 0.0000 -10512.2125 1400.9674 0.0000 0.0000 1761.9513 -7339.8363 304.0652 -9101.7876 -7374.7708 299.6932 -102.2403 -15.9519 30276.2030 36.1362 93.0478
ENERGY: 1500000 0.5283 4.1811 1.2690 0.0000 -10581.4886 1524.3153 0.0000 0.0000 1729.3775 -7321.8175 298.4439 -9051.1950 -7372.0467 300.0968 835.2927 1000.8593 30015.6466 102.5051 165.2057
TCL: Running FEP window  14: Lambda1 0.65   Lambda2 0.7000000000000001 [dLambda 0.050000000000000044]
TCL: Setting parameter firsttimestep to 0
TCL: Setting parameter alchLambda to 0.65
Info: NONBONDED TABLE R-SQUARED SPACING: 0.0625
Info: NONBONDED TABLE SIZE: 705 POINTS
TCL: Setting parameter alchLambda2 to 0.7000000000000001
Info: NONBONDED TABLE R-SQUARED SPACING: 0.0625
Info: NONBONDED TABLE SIZE: 705 POINTS
TCL: Running for 1500000 steps
ETITLE: TS BOND ANGLE DIHED IMPRP ELECT VDW BOUNDARY MISC KINETIC TOTAL TEMP POTENTIAL TOTALAVG TEMPAVG PRESSURE GPRESSURE VOLUME PRESSAVG GPRESSAVG
ENERGY: 0 0.5283 4.1811 1.2690 0.0000 -10581.9583 1525.3174 0.0000 0.0000 1728.4920 -7322.1705 298.2911 -9050.6625 -7322.1705 298.2911 924.6892 1021.3615 30015.6466 924.6892 1021.3615
ENERGY: 300000 1.4429 4.6438 5.4392 0.0000 -10511.2228 1399.4533 0.0000 0.0000 1732.1057 -7368.1379 298.9147 -9100.2436 -7328.7914 299.6142 121.7456 159.7720 29703.4896 477.0112 528.8000
ENERGY: 600000 1.7794 3.6911 2.9622 0.0000 -10478.4244 1447.8008 0.0000 0.0000 1761.2216 -7260.9694 303.9393 -9022.1909 -7372.3665 298.6839 469.2284 560.8668 30007.8706 334.6661 399.3151
ENERGY: 900000 3.2263 5.3392 2.3847 0.0000 -10605.0716 1521.4693 0.0000 0.0000 1735.0369 -7337.6152 299.4205 -9072.6521 -7370.8953 299.0609 1395.0218 1436.2525 29046.3868 303.6601 366.5915
ENERGY: 1200000 1.9555 6.0436 3.4789 0.0000 -10345.1560 1326.0518 0.0000 0.0000 1709.3005 -7298.3256 294.9791 -9007.6261 -7361.4974 299.4805 -197.4636 -136.9544 29993.1678 234.7496 299.7038
ENERGY: 1500000 2.2408 4.2585 2.1390 0.0000 -10530.7818 1378.0206 0.0000 0.0000 1713.5185 -7430.6044 295.7070 -9144.1229 -7362.3094 299.1590 -559.2273 -491.1802 30232.5680 164.8007 231.8132
TCL: Running FEP window  15: Lambda1 0.7000000000000001 Lambda2 0.7500000000000001 [dLambda 0.050000000000000044]
TCL: Setting parameter firsttimestep to 0
TCL: Setting parameter alchLambda to 0.7000000000000001
Info: NONBONDED TABLE R-SQUARED SPACING: 0.0625
Info: NONBONDED TABLE SIZE: 705 POINTS
TCL: Setting parameter alchLambda2 to 0.7500000000000001
Info: NONBONDED TABLE R-SQUARED SPACING: 0.0625
Info: NONBONDED TABLE SIZE: 705 POINTS
TCL: Running for 1500000 steps
ETITLE: TS BOND ANGLE DIHED IMPRP ELECT VDW BOUNDARY MISC KINETIC TOTAL TEMP POTENTIAL TOTALAVG TEMPAVG PRESSURE GPRESSURE VOLUME PRESSAVG GPRESSAVG
ENERGY: 0 2.2408 4.2585 2.1390 0.0000 -10531.1446 1377.5843 0.0000 0.0000 1712.6463 -7432.2758 295.5565 -9144.9221 -7432.2758 295.5565 -556.0647 -485.7710 30232.5680 -556.0647 -485.7710
ENERGY: 300000 4.0574 5.6750 2.3504 0.0000 -10514.5989 1367.7526 0.0000 0.0000 1701.3924 -7433.3711 293.6144 -9134.7635 -7425.4896 296.7171 -487.9140 -427.3593 29785.2606 -207.2261 -159.6982
ENERGY: 600000 4.5989 6.4151 2.8887 0.0000 -10499.2750 1341.1526 0.0000 0.0000 1759.2161 -7385.0037 303.5932 -9144.2198 -7400.0615 299.2576 -953.8327 -898.1529 30271.7791 -273.6330 -229.1628
ENERGY: 900000 4.8732 5.7962 2.5973 0.0000 -10515.9126 1450.0972 0.0000 0.0000 1717.7013 -7334.8474 296.4289 -9052.5487 -7400.4706 298.8510 370.6203 424.8318 29797.2340 -188.7148 -137.5676
ENERGY: 1200000 1.1190 4.8470 1.7896 0.0000 -10537.2203 1408.0955 0.0000 0.0000 1757.5311 -7363.8381 303.3024 -9121.3692 -7386.4260 299.4413 -308.4697 -226.7191 30127.3335 -287.5104 -240.8592
ENERGY: 1500000 1.1254 4.3148 3.1542 0.0000 -10446.0312 1418.0461 0.0000 0.0000 1770.4953 -7248.8954 305.5397 -9019.3907 -7374.8042 300.2788 309.2975 344.7946 30299.4228 -239.0331 -194.7684
TCL: Running FEP window  16: Lambda1 0.7500000000000001 Lambda2 0.8000000000000002 [dLambda 0.050000000000000044]
TCL: Setting parameter firsttimestep to 0
TCL: Setting parameter alchLambda to 0.7500000000000001
Info: NONBONDED TABLE R-SQUARED SPACING: 0.0625
Info: NONBONDED TABLE SIZE: 705 POINTS
TCL: Setting parameter alchLambda2 to 0.8000000000000002
Info: NONBONDED TABLE R-SQUARED SPACING: 0.0625
Info: NONBONDED TABLE SIZE: 705 POINTS
TCL: Running for 1500000 steps
ETITLE: TS BOND ANGLE DIHED IMPRP ELECT VDW BOUNDARY MISC KINETIC TOTAL TEMP POTENTIAL TOTALAVG TEMPAVG PRESSURE GPRESSURE VOLUME PRESSAVG GPRESSAVG
ENERGY: 0 1.1254 4.3148 3.1542 0.0000 -10446.3318 1418.8392 0.0000 0.0000 1769.6476 -7249.2506 305.3934 -9018.8982 -7249.2506 305.3934 282.1460 360.7582 30299.4228 282.1460 360.7582
ENERGY: 300000 0.8178 6.5020 2.7918 0.0000 -10533.3834 1418.8843 0.0000 0.0000 1761.3567 -7343.0308 303.9626 -9104.3876 -7343.6040 302.2480 101.8277 167.2348 29932.6037 -226.8437 -156.9983
ENERGY: 600000 1.7124 4.2767 2.1786 0.0000 -10493.5732 1372.2232 0.0000 0.0000 1768.9662 -7344.2163 305.2758 -9113.1824 -7359.1768 302.2989 -374.1495 -345.0380 30120.9146 -221.0596 -159.7771
ENERGY: 900000 4.3758 5.3939 3.3810 0.0000 -10644.7130 1448.3866 0.0000 0.0000 1744.9035 -7438.2722 301.1232 -9183.1757 -7353.3498 301.8871 9.8306 96.6880 29634.0940 -370.5799 -308.9168
ENERGY: 1200000 0.9612 5.2319 3.0065 0.0000 -10493.8434 1400.0995 0.0000 0.0000 1745.8320 -7338.7123 301.2835 -9084.5443 -7358.9561 301.3855 139.7756 198.3628 29682.3984 -332.8331 -275.0062
ENERGY: 1500000 4.1039 2.7630 1.8039 0.0000 -10624.0430 1446.6722 0.0000 0.0000 1724.7529 -7443.9471 297.6458 -9168.7000 -7365.0894 301.2012 -85.1379 0.4233 30041.7808 -338.3341 -282.3959
TCL: Running FEP window  17: Lambda1 0.8000000000000002 Lambda2 0.8500000000000002 [dLambda 0.050000000000000044]
TCL: Setting parameter firsttimestep to 0
TCL: Setting parameter alchLambda to 0.8000000000000002
Info: NONBONDED TABLE R-SQUARED SPACING: 0.0625
Info: NONBONDED TABLE SIZE: 705 POINTS
TCL: Setting parameter alchLambda2 to 0.8500000000000002
Info: NONBONDED TABLE R-SQUARED SPACING: 0.0625
Info: NONBONDED TABLE SIZE: 705 POINTS
TCL: Running for 1500000 steps
ETITLE: TS BOND ANGLE DIHED IMPRP ELECT VDW BOUNDARY MISC KINETIC TOTAL TEMP POTENTIAL TOTALAVG TEMPAVG PRESSURE GPRESSURE VOLUME PRESSAVG GPRESSAVG
ENERGY: 0 4.1039 2.7630 1.8039 0.0000 -10624.5407 1447.4287 0.0000 0.0000 1723.8369 -7444.6043 297.4877 -9168.4412 -7444.6043 297.4877 -60.9265 20.9329 30041.7808 -60.9265 20.9329
ENERGY: 300000 1.4397 4.8617 3.8835 0.0000 -10483.2437 1315.3857 0.0000 0.0000 1735.7999 -7421.8732 299.5522 -9157.6731 -7442.1594 295.4972 -976.7459 -901.3192 30165.4005 -459.9406 -397.3638
ENERGY: 600000 2.8828 4.3517 3.9110 0.0000 -10500.5650 1448.0286 0.0000 0.0000 1760.9641 -7280.4268 303.8949 -9041.3909 -7420.8148 298.0988 408.6398 465.4186 30025.3013 -83.3958 -18.9172
ENERGY: 900000 3.3513 6.0456 1.4122 0.0000 -10631.2469 1429.4314 0.0000 0.0000 1754.6839 -7436.3224 302.8111 -9191.0063 -7412.8309 298.9756 -68.0074 3.4152 29980.8344 -37.1136 23.0036
ENERGY: 1200000 2.8338 12.3559 2.3266 0.0000 -10492.4609 1369.2761 0.0000 0.0000 1801.3799 -7304.2886 310.8695 -9105.6685 -7400.2345 299.0388 -378.2184 -329.1943 29918.5825 11.7422 66.8179
ENERGY: 1500000 2.8053 6.3369 2.2188 0.0000 -10443.1975 1326.0771 0.0000 0.0000 1739.7670 -7365.9925 300.2368 -9105.7595 -7393.5292 299.5881 -572.7248 -412.9549 29618.6092 -19.6053 44.5068
TCL: Running FEP window  18: Lambda1 0.8500000000000002 Lambda2 0.9000000000000002 [dLambda 0.050000000000000044]
TCL: Setting parameter firsttimestep to 0
TCL: Setting parameter alchLambda to 0.8500000000000002
Info: NONBONDED TABLE R-SQUARED SPACING: 0.0625
Info: NONBONDED TABLE SIZE: 705 POINTS
TCL: Setting parameter alchLambda2 to 0.9000000000000002
Info: NONBONDED TABLE R-SQUARED SPACING: 0.0625
Info: NONBONDED TABLE SIZE: 705 POINTS
TCL: Running for 1500000 steps
ETITLE: TS BOND ANGLE DIHED IMPRP ELECT VDW BOUNDARY MISC KINETIC TOTAL TEMP POTENTIAL TOTALAVG TEMPAVG PRESSURE GPRESSURE VOLUME PRESSAVG GPRESSAVG
ENERGY: 0 2.8053 6.3369 2.2188 0.0000 -10444.3001 1326.6280 0.0000 0.0000 1738.8893 -7367.4218 300.0854 -9106.3111 -7367.4218 300.0854 -477.6038 -397.7820 29618.6092 -477.6038 -397.7820
ENERGY: 300000 2.0016 7.6789 2.4106 0.0000 -10474.7777 1359.6840 0.0000 0.0000 1680.6676 -7422.3349 290.0379 -9103.0026 -7358.7949 300.5470 -561.5785 -479.9135 30188.0601 -218.1303 -168.0816
ENERGY: 600000 4.6075 3.5925 1.3739 0.0000 -10509.7269 1413.3315 0.0000 0.0000 1723.3594 -7363.4621 297.4053 -9086.8215 -7336.6346 301.8739 -184.1540 -137.0860 30378.4743 -35.3854 15.8765
ENERGY: 900000 2.6721 3.6515 2.8627 0.0000 -10382.2776 1357.3764 0.0000 0.0000 1735.8288 -7279.8861 299.5572 -9015.7149 -7338.9750 302.6090 -169.4586 -118.4087 30333.5312 46.9945 97.1523
ENERGY: 1200000 3.0209 4.2501 1.0009 0.0000 -10691.6094 1553.9294 0.0000 0.0000 1763.0771 -7366.3310 304.2595 -9129.4081 -7347.4788 303.6079 827.7321 917.0067 30244.0705 140.2675 201.9981
ENERGY: 1500000 3.0790 7.7035 4.2441 0.0000 -10516.9435 1400.1816 0.0000 0.0000 1781.0348 -7320.7006 307.3585 -9101.7354 -7358.3686 303.2652 -22.4217 -46.6655 29885.4193 63.4703 122.3321
TCL: Running FEP window  19: Lambda1 0.9000000000000002 Lambda2 0.9500000000000003 [dLambda 0.050000000000000044]
TCL: Setting parameter firsttimestep to 0
TCL: Setting parameter alchLambda to 0.9000000000000002
Info: NONBONDED TABLE R-SQUARED SPACING: 0.0625
Info: NONBONDED TABLE SIZE: 705 POINTS
TCL: Setting parameter alchLambda2 to 0.9500000000000003
Info: NONBONDED TABLE R-SQUARED SPACING: 0.0625
Info: NONBONDED TABLE SIZE: 705 POINTS
TCL: Running for 1500000 steps
ETITLE: TS BOND ANGLE DIHED IMPRP ELECT VDW BOUNDARY MISC KINETIC TOTAL TEMP POTENTIAL TOTALAVG TEMPAVG PRESSURE GPRESSURE VOLUME PRESSAVG GPRESSAVG
ENERGY: 0 3.0790 7.7035 4.2441 0.0000 -10517.6755 1399.5921 0.0000 0.0000 1780.1938 -7322.8630 307.2134 -9103.0568 -7322.8630 307.2134 -122.1640 -45.1787 29885.4193 -122.1640 -45.1787
ENERGY: 300000 1.5675 8.5888 2.0911 0.0000 -10500.9853 1396.6434 0.0000 0.0000 1759.1500 -7332.9445 303.5818 -9092.0945 -7337.1940 305.1032 -450.1976 -425.7450 30843.0208 -117.4802 -49.0839
ENERGY: 600000 0.6364 7.8250 3.8608 0.0000 -10603.2249 1449.1553 0.0000 0.0000 1711.3506 -7430.3968 295.3329 -9141.7474 -7369.4337 302.3415 391.3821 429.5024 29818.8469 102.8717 166.5878
ENERGY: 900000 5.4078 10.2017 1.2647 0.0000 -10445.2290 1354.8447 0.0000 0.0000 1786.5216 -7286.9885 308.3054 -9073.5101 -7374.0345 300.7489 -697.1797 -691.8547 30697.5119 -70.0185 -18.8229
ENERGY: 1200000 4.2264 8.0651 1.6782 0.0000 -10433.2684 1337.4228 0.0000 0.0000 1790.1900 -7291.6860 308.9385 -9081.8760 -7367.5799 302.3663 -503.7652 -396.1753 30012.8873 -13.4496 47.4050
ENERGY: 1500000 4.0547 6.3480 2.5667 0.0000 -10566.0474 1450.8210 0.0000 0.0000 1732.3883 -7369.8688 298.9635 -9102.2570 -7367.8065 302.9355 641.1795 686.2351 29614.8626 -6.9189 55.6274
TCL: Running FEP window  20: Lambda1 0.9500000000000003 Lambda2 1.0    [dLambda 0.04999999999999971]
TCL: Setting parameter firsttimestep to 0
TCL: Setting parameter alchLambda to 0.9500000000000003
Info: NONBONDED TABLE R-SQUARED SPACING: 0.0625
Info: NONBONDED TABLE SIZE: 705 POINTS
TCL: Setting parameter alchLambda2 to 1.0
Info: NONBONDED TABLE R-SQUARED SPACING: 0.0625
Info: NONBONDED TABLE SIZE: 705 POINTS
TCL: Running for 1500000 steps
ETITLE: TS BOND ANGLE DIHED IMPRP ELECT VDW BOUNDARY MISC KINETIC TOTAL TEMP POTENTIAL TOTALAVG TEMPAVG PRESSURE GPRESSURE VOLUME PRESSAVG GPRESSAVG
ENERGY: 0 4.0547 6.3480 2.5667 0.0000 -10567.4677 1451.7782 0.0000 0.0000 1731.5154 -7371.2046 298.8128 -9102.7200 -7371.2046 298.8128 636.8831 712.0551 29614.8626 636.8831 712.0551
ENERGY: 300000 3.7692 3.3408 0.2525 0.0000 -10482.6950 1383.3077 0.0000 0.0000 1745.4876 -7346.5371 301.2240 -9092.0247 -7361.0827 296.5562 -289.1460 -146.2394 29889.0270 -216.5374 -151.9058
ENERGY: 600000 3.6731 4.6469 4.5809 0.0000 -10528.3395 1374.6899 0.0000 0.0000 1685.4290 -7455.3196 290.8596 -9140.7487 -7375.1421 296.2580 -687.3621 -619.7065 30255.2265 -279.3641 -210.8367
ENERGY: 900000 4.5199 6.3354 4.4408 0.0000 -10386.3998 1358.7624 0.0000 0.0000 1689.4019 -7322.9394 291.5452 -9012.3413 -7369.9496 296.1883 -222.5497 -169.2651 30335.3685 -132.4386 -64.4776
ENERGY: 1200000 2.3248 3.6270 3.1058 0.0000 -10546.3667 1429.7695 0.0000 0.0000 1621.6572 -7485.8823 279.8543 -9107.5395 -7375.5171 296.1368 138.7096 243.7490 29817.9029 -156.7855 -87.6908
ENERGY: 1500000 1.0142 5.2756 2.2624 0.0000 -10575.3549 1397.7800 0.0000 0.0000 1753.2914 -7415.7313 302.5708 -9169.0227 -7382.7045 297.1217 -206.6521 -120.3988 29887.2832 -210.7419 -146.1344
TCL: Exiting due to exit command.
