Info: SIMULATION PARAMETERS:
Info: TIMESTEP               2
Info: NUMBER OF STEPS        0
Info: STEPS PER CYCLE        10
Info: PERIODIC CELL BASIS 1  31.9301 0 0
Info: PERIODIC CELL BASIS 2  0 30.0107 0
Info: PERIODIC CELL BASIS 3  0 0 31.439
Info: PERIODIC CELL CENTER   0 0 0
Info: WRAPPING WATERS AROUND PERIODIC BOUNDARIES ON OUTPUT.
Info: WRAPPING ALL CLUSTERS AROUND PERIODIC BOUNDARIES ON OUTPUT.
Info: FIRST LDB TIMESTEP     50
Info: LAST LDB TIMESTEP     -1
Info: HOM BACKGROUND SCALING 1
Info: PME BACKGROUND SCALING 1
Info: MIN ATOMS PER PATCH    40
Info: EMPTY PATCH LOAD       40 ATOMS
Info: VELOCITY FILE          mobley_3777264_equil.vel
Info: CENTER OF MASS MOVING INITIALLY? NO
Info: DIELECTRIC             1
Info: EXCLUDE                SCALED ONE-FOUR
Info: 1-4 ELECTROSTATICS SCALED BY 0.833333
Info: MODIFIED 1-4 VDW PARAMETERS WILL BE USED
Info: DCD FILENAME           mobley_3777264_prod.dcd
Info: DCD FREQUENCY          100000
Info: DCD FIRST STEP         100000
Info: DCD FILE WILL CONTAIN UNIT CELL DATA
Info: XST FILENAME           mobley_3777264_prod.xst
Info: XST FREQUENCY          100000
Info: NO VELOCITY DCD OUTPUT
Info: NO FORCE DCD OUTPUT
Info: OUTPUT FILENAME        mobley_3777264_prod
Info: BINARY OUTPUT FILES WILL BE USED
Info: RESTART FILENAME       mobley_3777264_prod.restart
Info: RESTART FREQUENCY      100000
Info: BINARY RESTART FILES WILL BE USED
Info: CUTOFF                 9
Info: PAIRLIST DISTANCE      11
Info: PAIRLIST SHRINK RATE   0.01
Info: PAIRLIST GROW RATE     0.01
Info: PAIRLIST TRIGGER       0.3
Info: PAIRLISTS PER CYCLE    2
Info: PAIRLISTS ENABLED
Info: MARGIN                 2
Info: HYDROGEN GROUP CUTOFF  2.5
Info: PATCH DIMENSION        15.5
Info: ENERGY OUTPUT STEPS    100000
Info: ENERGY EVALUATION STEPS    100000
Info: OUTPUT ENERGY PRECISION 4
Info: CROSSTERM ENERGY INCLUDED IN DIHEDRAL
Info: TIMING OUTPUT STEPS    1000000
Info: PRESSURE OUTPUT STEPS  100000
Info: ALCHEMICAL FEP ON
Info: FEP CURRENT LAMBDA VALUE     1
Info: FEP COMPARISON LAMBDA VALUE  0.95
Info: FEP INTRA-ALCHEMICAL NON-BONDED INTERACTIONS WILL BE RETAINED
Info: FEP INTRA-ALCHEMICAL BONDED INTERACTIONS WILL BE RETAINED
Info: FEP VDW SHIFTING COEFFICIENT 5
Info: FEP ELEC. ACTIVE FOR ANNIHILATED PARTICLES BETWEEN LAMBDA = 0 AND LAMBDA = 0.5
Info: FEP ELEC. ACTIVE FOR EXNIHILATED PARTICLES BETWEEN LAMBDA = 0.5 AND LAMBDA = 1
Info: FEP VDW ACTIVE FOR ANNIHILATED PARTICLES BETWEEN LAMBDA = 0 AND LAMBDA = 1
Info: FEP VDW ACTIVE FOR EXNIHILATED PARTICLES BETWEEN LAMBDA = 0 AND LAMBDA = 1
Info: FEP BOND ACTIVE FOR ANNIHILATED PARTICLES BETWEEN LAMBDA = 1 AND LAMBDA = 1
Info: FEP BOND ACTIVE FOR EXNIHILATED PARTICLES BETWEEN LAMBDA = 0 AND LAMBDA = 0
Info: LANGEVIN DYNAMICS ACTIVE
Info: LANGEVIN TEMPERATURE   300
Info: LANGEVIN USING BBK INTEGRATOR
Info: LANGEVIN DAMPING COEFFICIENT IS 1 INVERSE PS
Info: LANGEVIN DYNAMICS APPLIED TO HYDROGENS
Info: LANGEVIN PISTON PRESSURE CONTROL ACTIVE
Info:        TARGET PRESSURE IS 1.01325 BAR
Info:     OSCILLATION PERIOD IS 50 FS
Info:             DECAY TIME IS 25 FS
Info:     PISTON TEMPERATURE IS 300 K
Info:       PRESSURE CONTROL IS GROUP-BASED
Info:    INITIAL STRAIN RATE IS 0.000166511 0.000166511 0.000166511
Info:       CELL FLUCTUATION IS ISOTROPIC
Info: PARTICLE MESH EWALD (PME) ACTIVE
Info: PME TOLERANCE               1e-06
Info: PME EWALD COEFFICIENT       0.348832
Info: PME INTERPOLATION ORDER     4
Info: PME GRID DIMENSIONS         32 32 32
Info: PME MAXIMUM GRID SPACING    1
Info: PME CALCULATION WILL BE PERFORMED ON GPU
Info: FULL ELECTROSTATIC EVALUATION FREQUENCY      2
Info: USING VERLET I (r-RESPA) MTS SCHEME.
Info: C1 SPLITTING OF LONG RANGE ELECTROSTATICS
Info: PLACING ATOMS IN PATCHES BY HYDROGEN GROUPS
Info: RIGID BONDS TO HYDROGEN : ALL
Info:         ERROR TOLERANCE : 1e-08
Info:          MAX ITERATIONS : 100
Info: RIGID WATER USING SETTLE ALGORITHM
Info: RANDOM NUMBER SEED     1743768090
Info: USE HYDROGEN BONDS?    NO
Info: Using AMBER format force field!
Info: AMBER PARM FILE        mobley_3777264.prmtop
Info: COORDINATE PDB         mobley_3777264.pdb
Info: Exclusions will be read from PARM file!
Info: SCNB (VDW SCALING)     2
Info: USING ARITHMETIC MEAN TO COMBINE L-J SIGMA PARAMETERS
Info: BINARY COORDINATES     mobley_3777264_equil.coor
Info: SUMMARY OF PARAMETERS:
Info: 8 BONDS
Info: 8 ANGLES
Info:   8 HARMONIC
Info:   0 COSINE-BASED
Info: 4 DIHEDRAL
Info: 0 IMPROPER
Info: 0 CROSSTERM
Info: 0 VDW
Info: 28 VDW_PAIRS
Info: 0 NBTHOLE_PAIRS
Info: To read alchdata from file: mobley_3777264.pdb
Info: To read alchflag data from column: 5
Info: STRUCTURE SUMMARY:
Info: 2902 ATOMS
Info: 2902 BONDS
Info: 24 ANGLES
Info: 39 DIHEDRALS
Info: 0 IMPROPERS
Info: 0 CROSSTERMS
Info: 2955 EXCLUSIONS
Info: 2892 RIGID BONDS
Info: ALCH: 0 ATOMS TO DISAPPEAR IN FINAL STATE
Info: ALCH: 16 ATOMS TO APPEAR IN FINAL STATE
Info: 5814 DEGREES OF FREEDOM
Info: 972 HYDROGEN GROUPS
Info: 3 ATOMS IN LARGEST HYDROGEN GROUP
Info: 972 MIGRATION GROUPS
Info: 3 ATOMS IN LARGEST MIGRATION GROUP
Info: TOTAL MASS = 17469.5 amu
Info: TOTAL CHARGE = 0.000200003 e
Info: MASS DENSITY = 0.96293 g/cm^3
Info: ATOM DENSITY = 0.0963279 atoms/A^3
Info: ADDED 0 IMPLICIT EXCLUSIONS
Info: NONBONDED TABLE R-SQUARED SPACING: 0.0625
Info: NONBONDED TABLE SIZE: 705 POINTS
Info: REMOVING COM VELOCITY 0.159944 0.163335 -0.0339305
Info: Use 3D box decompostion in PME FFT.
Info: Updated CUDA force table with 4096 elements.
Info: Updated CUDA LJ table with 7 x 7 elements.
Info: Found 19 unique exclusion lists needing 44 bytes
TCL: Running for 1500000 steps
ETITLE: TS BOND ANGLE DIHED IMPRP ELECT VDW BOUNDARY MISC KINETIC TOTAL TEMP POTENTIAL TOTALAVG TEMPAVG PRESSURE GPRESSURE VOLUME PRESSAVG GPRESSAVG
ENERGY: 0 3.0590 3.5396 6.3951 0.0000 -10395.2527 1365.5302 0.0000 0.0000 1710.8465 -7305.8822 296.1600 -9016.7287 -7305.8822 296.1600 -358.7971 -270.4843 30126.2652 -358.7971 -270.4843
ENERGY: 300000 7.3259 2.8393 1.8098 0.0000 -10596.4871 1352.6292 0.0000 0.0000 1735.2995 -7496.5834 300.3930 -9231.8829 -7375.9414 304.0222 -662.1030 -640.0205 29310.5396 -318.2808 -244.8347
ENERGY: 600000 4.6087 2.5796 4.5761 0.0000 -10516.5313 1396.5471 0.0000 0.0000 1794.4112 -7313.8086 310.6257 -9108.2197 -7373.3772 303.5193 303.6937 387.7608 29466.2172 -119.2897 -50.0672
ENERGY: 900000 5.9734 2.2762 6.4565 0.0000 -10565.5949 1466.6198 0.0000 0.0000 1759.7415 -7324.5275 304.6241 -9084.2690 -7358.0033 303.8775 481.1932 535.8950 29949.9290 -68.4527 -1.4910
ENERGY: 1200000 4.0281 2.5307 3.3463 0.0000 -10474.8709 1385.2888 0.0000 0.0000 1729.1287 -7350.5484 299.3248 -9079.6771 -7351.2943 302.1930 -126.7185 -61.3997 30144.4576 -108.6902 -47.4807
ENERGY: 1500000 4.0245 3.4841 9.0001 0.0000 -10516.5644 1400.2276 0.0000 0.0000 1724.0147 -7375.8134 298.4395 -9099.8281 -7353.5930 301.5958 -166.5738 -118.8860 30088.2918 -165.9050 -99.6080
TCL: Running FEP window   2: Lambda1 0.95   Lambda2 0.8999999999999999 [dLambda -0.050000000000000044]
TCL: Setting parameter firsttimestep to 0
TCL: Setting parameter alchLambda to 0.95
Info: NONBONDED TABLE R-SQUARED SPACING: 0.0625
Info: NONBONDED TABLE SIZE: 705 POINTS
TCL: Setting parameter alchLambda2 to 0.8999999999999999
Info: NONBONDED TABLE R-SQUARED SPACING: 0.0625
Info: NONBONDED TABLE SIZE: 705 POINTS
TCL: Running for 1500000 steps
ETITLE: TS BOND ANGLE DIHED IMPRP ELECT VDW BOUNDARY MISC KINETIC TOTAL TEMP POTENTIAL TOTALAVG TEMPAVG PRESSURE GPRESSURE VOLUME PRESSAVG GPRESSAVG
ENERGY: 0 4.0246 3.4841 9.0001 0.0000 -10514.3440 1399.9990 0.0000 0.0000 1723.1300 -7374.7064 298.2864 -9097.8363 -7374.7064 298.2864 -218.0069 -132.6098 30088.2918 -218.0069 -132.6098
ENERGY: 300000 5.3792 5.6831 4.5981 0.0000 -10517.5480 1420.5747 0.0000 0.0000 1692.0920 -7389.2208 292.9135 -9081.3128 -7388.5854 297.7658 -79.2512 -46.0064 30249.7038 -119.6806 -60.6566
ENERGY: 600000 2.8025 5.3060 1.5090 0.0000 -10628.2059 1421.5578 0.0000 0.0000 1719.9141 -7477.1166 297.7297 -9197.0306 -7381.1912 299.9557 228.2243 294.4199 29200.0773 -143.2113 -83.8105
ENERGY: 900000 3.7229 2.3569 2.4098 0.0000 -10549.8985 1426.2802 0.0000 0.0000 1767.2827 -7347.8460 305.9295 -9115.1287 -7370.6436 302.0102 192.3783 307.2817 29729.9890 -181.4809 -114.6763
ENERGY: 1200000 2.2134 9.3301 5.8520 0.0000 -10405.1175 1295.8577 0.0000 0.0000 1727.9918 -7363.8725 299.1280 -9091.8643 -7366.1868 301.9737 -1088.1375 -1004.7034 30281.6497 -175.4363 -110.5293
ENERGY: 1500000 3.5016 4.2427 5.0102 0.0000 -10570.9972 1457.6028 0.0000 0.0000 1760.7687 -7339.8713 304.8019 -9100.6399 -7369.8297 302.1959 565.0427 648.0109 29913.0302 -167.2748 -94.5187
TCL: Running FEP window   3: Lambda1 0.8999999999999999 Lambda2 0.8499999999999999 [dLambda -0.050000000000000044]
TCL: Setting parameter firsttimestep to 0
TCL: Setting parameter alchLambda to 0.8999999999999999
Info: NONBONDED TABLE R-SQUARED SPACING: 0.0625
Info: NONBONDED TABLE SIZE: 705 POINTS
TCL: Setting parameter alchLambda2 to 0.8499999999999999
Info: NONBONDED TABLE R-SQUARED SPACING: 0.0625
Info: NONBONDED TABLE SIZE: 705 POINTS
TCL: Running for 1500000 steps
ETITLE: TS BOND ANGLE DIHED IMPRP ELECT VDW BOUNDARY MISC KINETIC TOTAL TEMP POTENTIAL TOTALAVG TEMPAVG PRESSURE GPRESSURE VOLUME PRESSAVG GPRESSAVG
ENERGY: 0 3.5016 4.2427 5.0102 0.0000 -10569.2320 1457.3348 0.0000 0.0000 1759.9174 -7339.2254 304.6545 -9099.1428 -7339.2254 304.6545 555.4839 635.4625 29913.0302 555.4839 635.4625
ENERGY: 300000 1.3967 4.4357 4.0161 0.0000 -10535.8470 1381.3603 0.0000 0.0000 1744.4592 -7400.1790 301.9786 -9144.6382 -7370.5416 298.2821 -421.6532 -369.8348 29773.3468 -197.5313 -147.6405
ENERGY: 600000 2.5784 3.6409 1.7850 0.0000 -10558.5845 1400.7455 0.0000 0.0000 1736.0048 -7413.8298 300.5151 -9149.8347 -7379.4775 297.6695 15.1651 98.4749 29549.4368 -77.1768 -7.2354
ENERGY: 900000 1.2153 5.3978 2.7266 0.0000 -10543.5885 1390.3777 0.0000 0.0000 1718.5756 -7425.2955 297.4980 -9143.8711 -7379.4414 298.2971 -277.5361 -154.4735 30062.4609 -119.0589 -47.0926
ENERGY: 1200000 2.8348 4.5881 4.5953 0.0000 -10542.4711 1448.8639 0.0000 0.0000 1790.9568 -7290.6324 310.0277 -9081.5892 -7367.0283 298.3303 360.6683 424.1410 29721.1539 -157.6297 -87.9845
ENERGY: 1500000 2.8026 3.2335 7.0913 0.0000 -10633.7107 1476.3932 0.0000 0.0000 1736.9229 -7407.2671 300.6740 -9144.1900 -7366.2949 299.0485 341.1106 418.8637 29702.5569 -133.9350 -70.4062
TCL: Running FEP window   4: Lambda1 0.8499999999999999 Lambda2 0.7999999999999998 [dLambda -0.050000000000000044]
TCL: Setting parameter firsttimestep to 0
TCL: Setting parameter alchLambda to 0.8499999999999999
Info: NONBONDED TABLE R-SQUARED SPACING: 0.0625
Info: NONBONDED TABLE SIZE: 705 POINTS
TCL: Setting parameter alchLambda2 to 0.7999999999999998
Info: NONBONDED TABLE R-SQUARED SPACING: 0.0625
Info: NONBONDED TABLE SIZE: 705 POINTS
TCL: Running for 1500000 steps
ETITLE: TS BOND ANGLE DIHED IMPRP ELECT VDW BOUNDARY MISC KINETIC TOTAL TEMP POTENTIAL TOTALAVG TEMPAVG PRESSURE GPRESSURE VOLUME PRESSAVG GPRESSAVG
ENERGY: 0 2.8026 3.2335 7.0913 0.0000 -10632.3949 1476.7787 0.0000 0.0000 1736.0596 -7406.4292 300.5246 -9142.4888 -7406.4292 300.5246 328.1242 413.2571 29702.5569 328.1242 413.2571
ENERGY: 300000 4.8983 4.6682 3.1398 0.0000 -10497.3267 1439.6707 0.0000 0.0000 1755.3196 -7289.6301 303.8586 -9044.9497 -7366.1233 301.0118 661.0631 760.3742 29554.4733 119.8381 203.7266
ENERGY: 600000 4.7117 5.7655 3.6467 0.0000 -10562.9531 1461.6167 0.0000 0.0000 1701.0083 -7386.2041 294.4569 -9087.2125 -7378.7555 299.4631 494.8144 581.7291 29430.7401 88.5137 176.8307
ENERGY: 900000 3.9561 5.4543 4.4227 0.0000 -10607.3329 1425.1609 0.0000 0.0000 1752.9470 -7415.3919 303.4479 -9168.3390 -7373.6134 301.7285 -100.0758 -22.2006 29783.5836 162.9772 248.8828
ENERGY: 1200000 5.5542 6.1195 5.2446 0.0000 -10379.2009 1317.2042 0.0000 0.0000 1768.4863 -7276.5922 306.1379 -9045.0785 -7361.0157 302.7959 -742.9892 -695.9722 30041.0790 28.1860 101.0686
ENERGY: 1500000 8.3052 6.0893 5.9619 0.0000 -10303.5935 1268.4524 0.0000 0.0000 1733.2083 -7281.5763 300.0310 -9014.7846 -7355.4678 302.1695 -1194.4154 -1048.4027 30063.5715 -100.8188 -22.8424
TCL: Running FEP window   5: Lambda1 0.7999999999999998 Lambda2 0.7499999999999998 [dLambda -0.050000000000000044]
TCL: Setting parameter firsttimestep to 0
TCL: Setting parameter alchLambda to 0.7999999999999998
Info: NONBONDED TABLE R-SQUARED SPACING: 0.0625
Info: NONBONDED TABLE SIZE: 705 POINTS
TCL: Setting parameter alchLambda2 to 0.7499999999999998
Info: NONBONDED TABLE R-SQUARED SPACING: 0.0625
Info: NONBONDED TABLE SIZE: 705 POINTS
TCL: Running for 1500000 steps
ETITLE: TS BOND ANGLE DIHED IMPRP ELECT VDW BOUNDARY MISC KINETIC TOTAL TEMP POTENTIAL TOTALAVG TEMPAVG PRESSURE GPRESSURE VOLUME PRESSAVG GPRESSAVG
ENERGY: 0 8.3052 6.0893 5.9619 0.0000 -10302.9349 1269.2442 0.0000 0.0000 1732.3300 -7281.0041 299.8789 -9013.3341 -7281.0041 299.8789 -1149.3814 -1050.4617 30063.5715 -1149.3814 -1050.4617
ENERGY: 300000 5.1656 3.6599 4.0145 0.0000 -10606.2240 1411.4499 0.0000 0.0000 1762.4912 -7419.4430 305.1001 -9181.9342 -7353.9734 299.7777 -95.8908 -83.3339 29664.3892 -617.3261 -569.3678
ENERGY: 600000 3.9461 4.5739 3.9561 0.0000 -10552.4184 1448.5044 0.0000 0.0000 1694.4116 -7397.0262 293.3150 -9091.4379 -7353.5616 300.9410 187.0359 238.0036 30052.1451 -368.5250 -325.0515
ENERGY: 900000 4.2859 3.2331 4.5819 0.0000 -10572.9807 1394.0948 0.0000 0.0000 1691.3043 -7475.4807 292.7771 -9166.7850 -7378.7195 298.9198 -352.7594 -314.9230 29991.4540 -276.0006 -236.2552
ENERGY: 1200000 2.1648 7.3062 4.0121 0.0000 -10613.0230 1479.5745 0.0000 0.0000 1740.3843 -7379.5812 301.2732 -9119.9655 -7374.3583 298.8553 528.3983 587.9074 29506.5774 -221.3939 -172.3006
ENERGY: 1500000 2.0683 3.4833 2.8827 0.0000 -10482.3116 1352.3817 0.0000 0.0000 1745.4549 -7376.0408 302.1510 -9121.4957 -7376.1421 299.9582 -813.8116 -670.0679 29950.0585 -265.0814 -213.2380
TCL: Running FEP window   6: Lambda1 0.7499999999999998 Lambda2 0.6999999999999997 [dLambda -0.050000000000000044]
TCL: Setting parameter firsttimestep to 0
TCL: Setting parameter alchLambda to 0.7499999999999998
Info: NONBONDED TABLE R-SQUARED SPACING: 0.0625
Info: NONBONDED TABLE SIZE: 705 POINTS
TCL: Setting parameter alchLambda2 to 0.6999999999999997
Info: NONBONDED TABLE R-SQUARED SPACING: 0.0625
Info: NONBONDED TABLE SIZE: 705 POINTS
TCL: Running for 1500000 steps
ETITLE: TS BOND ANGLE DIHED IMPRP ELECT VDW BOUNDARY MISC KINETIC TOTAL TEMP POTENTIAL TOTALAVG TEMPAVG PRESSURE GPRESSURE VOLUME PRESSAVG GPRESSAVG
ENERGY: 0 2.0683 3.4833 2.8827 0.0000 -10481.0367 1351.8753 0.0000 0.0000 1744.6147 -7376.1124 302.0055 -9120.7271 -7376.1124 302.0055 -766.0810 -682.5518 29950.0585 -766.0810 -682.5518
ENERGY: 300000 3.5883 6.0941 4.8833 0.0000 -10627.2165 1452.1251 0.0000 0.0000 1717.0674 -7443.4583 297.2369 -9160.5257 -7390.6260 300.4916 231.9923 324.3010 29819.4758 -131.6011 -61.4942
ENERGY: 600000 4.6934 3.8445 5.5398 0.0000 -10376.6426 1350.6565 0.0000 0.0000 1727.1770 -7284.7314 298.9869 -9011.9084 -7366.8262 301.0936 -334.4401 -251.2113 29980.4867 0.8590 66.7559
ENERGY: 900000 2.5212 5.2200 8.3751 0.0000 -10614.7374 1495.0592 0.0000 0.0000 1729.4643 -7374.0976 299.3829 -9103.5619 -7376.2886 300.3997 931.8725 1017.4133 29454.3477 252.2171 320.7447
ENERGY: 1200000 4.8346 6.0167 2.4223 0.0000 -10545.0617 1461.3843 0.0000 0.0000 1740.2196 -7330.1843 301.2447 -9070.4039 -7368.9159 300.7109 200.4442 294.6931 30212.8871 132.4849 202.4180
ENERGY: 1500000 3.6070 4.0853 3.9229 0.0000 -10652.9877 1529.8247 0.0000 0.0000 1737.2875 -7374.2603 300.7371 -9111.5479 -7380.4504 299.7556 1066.8411 1101.9207 29587.4025 158.7907 224.6157
TCL: Running FEP window   7: Lambda1 0.6999999999999997 Lambda2 0.6499999999999997 [dLambda -0.050000000000000044]
TCL: Setting parameter firsttimestep to 0
TCL: Setting parameter alchLambda to 0.6999999999999997
Info: NONBONDED TABLE R-SQUARED SPACING: 0.0625
Info: NONBONDED TABLE SIZE: 705 POINTS
TCL: Setting parameter alchLambda2 to 0.6499999999999997
Info: NONBONDED TABLE R-SQUARED SPACING: 0.0625
Info: NONBONDED TABLE SIZE: 705 POINTS
TCL: Running for 1500000 steps
ETITLE: TS BOND ANGLE DIHED IMPRP ELECT VDW BOUNDARY MISC KINETIC TOTAL TEMP POTENTIAL TOTALAVG TEMPAVG PRESSURE GPRESSURE VOLUME PRESSAVG GPRESSAVG
ENERGY: 0 3.6070 4.0853 3.9229 0.0000 -10651.7448 1529.8812 0.0000 0.0000 1736.3652 -7373.8831 300.5775 -9110.2484 -7373.8831 300.5775 1021.0094 1095.1569 29587.4025 1021.0094 1095.1569
ENERGY: 300000 3.4147 7.0949 3.2195 0.0000 -10458.0120 1337.6028 0.0000 0.0000 1720.4521 -7386.2279 297.8228 -9106.6801 -7362.0734 301.2594 -845.4979 -817.2466 30637.0471 -73.4263 -10.2546
ENERGY: 600000 2.4814 6.9346 2.8661 0.0000 -10663.6895 1543.6765 0.0000 0.0000 1724.8651 -7382.8658 298.5867 -9107.7309 -7374.8354 299.4469 998.5201 1071.5031 29865.4618 -73.6798 -9.9295
ENERGY: 900000 5.2274 4.1276 4.3774 0.0000 -10410.0430 1338.9574 0.0000 0.0000 1702.8825 -7354.4708 294.7814 -9057.3532 -7361.6771 298.3536 -673.3630 -591.8952 30221.4678 -238.5513 -166.0898
ENERGY: 1200000 6.8917 5.1784 8.5799 0.0000 -10502.9781 1363.2571 0.0000 0.0000 1702.3446 -7416.7264 294.6883 -9119.0710 -7377.3824 298.7407 -114.1960 -62.1499 29207.4296 -170.2459 -106.0437
ENERGY: 1500000 3.4785 4.1104 3.4860 0.0000 -10578.3522 1386.0987 0.0000 0.0000 1765.6760 -7415.5027 305.6514 -9181.1788 -7378.4091 298.6504 -455.9432 -371.9692 29513.5138 -114.3643 -51.7151
TCL: Running FEP window   8: Lambda1 0.6499999999999997 Lambda2 0.5999999999999996 [dLambda -0.050000000000000044]
TCL: Setting parameter firsttimestep to 0
TCL: Setting parameter alchLambda to 0.6499999999999997
Info: NONBONDED TABLE R-SQUARED SPACING: 0.0625
Info: NONBONDED TABLE SIZE: 705 POINTS
TCL: Setting parameter alchLambda2 to 0.5999999999999996
Info: NONBONDED TABLE R-SQUARED SPACING: 0.0625
Info: NONBONDED TABLE SIZE: 705 POINTS
TCL: Running for 1500000 steps
ETITLE: TS BOND ANGLE DIHED IMPRP ELECT VDW BOUNDARY MISC KINETIC TOTAL TEMP POTENTIAL TOTALAVG TEMPAVG PRESSURE GPRESSURE VOLUME PRESSAVG GPRESSAVG
ENERGY: 0 3.4785 4.1104 3.4860 0.0000 -10575.5003 1385.0013 0.0000 0.0000 1764.8241 -7414.6002 305.5039 -9179.4243 -7414.6002 305.5039 -461.3062 -383.3494 29513.5138 -461.3062 -383.3494
ENERGY: 300000 1.6352 5.6007 4.5699 0.0000 -10596.2664 1448.4524 0.0000 0.0000 1760.5315 -7375.4767 304.7608 -9136.0082 -7391.2619 301.6582 254.3324 417.0438 29507.8719 -117.1748 -24.1994
ENERGY: 600000 2.4395 5.5892 3.2919 0.0000 -10489.2372 1472.5135 0.0000 0.0000 1738.3200 -7267.0831 300.9159 -9005.4030 -7359.6205 300.2557 543.2068 630.9201 30307.3429 -188.8925 -100.4365
ENERGY: 900000 5.5624 3.4598 2.2114 0.0000 -10535.7528 1363.7002 0.0000 0.0000 1681.1049 -7479.7141 291.0115 -9160.8190 -7361.3439 300.4728 -752.6996 -721.8018 29972.3847 -219.2193 -137.6913
ENERGY: 1200000 2.3735 2.7280 3.0420 0.0000 -10435.3575 1364.2144 0.0000 0.0000 1736.5462 -7326.4534 300.6088 -9062.9996 -7369.9550 300.3937 -484.7295 -473.3647 30277.1165 -228.2901 -155.1466
ENERGY: 1500000 4.5624 5.5828 2.0392 0.0000 -10486.9302 1452.9333 0.0000 0.0000 1762.0919 -7259.7205 305.0310 -9021.8125 -7366.2786 300.6003 530.1579 582.5161 30071.4639 -139.1401 -68.0571
TCL: Running FEP window   9: Lambda1 0.5999999999999996 Lambda2 0.5499999999999996 [dLambda -0.050000000000000044]
TCL: Setting parameter firsttimestep to 0
TCL: Setting parameter alchLambda to 0.5999999999999996
Info: NONBONDED TABLE R-SQUARED SPACING: 0.0625
Info: NONBONDED TABLE SIZE: 705 POINTS
TCL: Setting parameter alchLambda2 to 0.5499999999999996
Info: NONBONDED TABLE R-SQUARED SPACING: 0.0625
Info: NONBONDED TABLE SIZE: 705 POINTS
TCL: Running for 1500000 steps
ETITLE: TS BOND ANGLE DIHED IMPRP ELECT VDW BOUNDARY MISC KINETIC TOTAL TEMP POTENTIAL TOTALAVG TEMPAVG PRESSURE GPRESSURE VOLUME PRESSAVG GPRESSAVG
ENERGY: 0 4.5624 5.5828 2.0392 0.0000 -10485.7327 1452.8475 0.0000 0.0000 1761.1851 -7259.5158 304.8740 -9020.7009 -7259.5158 304.8740 503.4836 576.5639 30071.4639 503.4836 576.5639
ENERGY: 300000 1.6229 1.9478 4.5798 0.0000 -10485.8466 1418.4772 0.0000 0.0000 1737.0355 -7322.1834 300.6935 -9059.2190 -7325.2687 303.3987 230.2609 356.2449 29727.7918 -34.9179 54.1620
ENERGY: 600000 3.4749 3.6253 4.2948 0.0000 -10656.8300 1500.6910 0.0000 0.0000 1797.1284 -7347.6156 311.0960 -9144.7440 -7331.8793 303.7470 752.7517 798.2663 29480.6202 35.6044 107.7329
ENERGY: 900000 3.2851 3.7888 4.0498 0.0000 -10549.5772 1403.9471 0.0000 0.0000 1716.2897 -7418.2167 297.1023 -9134.5065 -7353.2118 301.2051 -343.9206 -363.0486 29663.8858 27.2377 90.1300
ENERGY: 1200000 3.7495 6.0250 1.8673 0.0000 -10422.0950 1373.5767 0.0000 0.0000 1773.0490 -7263.8275 306.9277 -9036.8765 -7339.4569 302.1038 -110.3137 -17.7796 29882.9705 -117.8816 -47.0521
ENERGY: 1500000 3.2300 4.1663 4.6929 0.0000 -10492.1293 1433.5591 0.0000 0.0000 1762.5156 -7283.9653 305.1043 -9046.4810 -7334.5232 302.0090 263.0928 362.6460 29939.0887 -83.7128 -17.9835
TCL: Running FEP window  10: Lambda1 0.5499999999999996 Lambda2 0.4999999999999996 [dLambda -0.04999999999999999]
TCL: Setting parameter firsttimestep to 0
TCL: Setting parameter alchLambda to 0.5499999999999996
Info: NONBONDED TABLE R-SQUARED SPACING: 0.0625
Info: NONBONDED TABLE SIZE: 705 POINTS
TCL: Setting parameter alchLambda2 to 0.4999999999999996
Info: NONBONDED TABLE R-SQUARED SPACING: 0.0625
Info: NONBONDED TABLE SIZE: 705 POINTS
TCL: Running for 1500000 steps
ETITLE: TS BOND ANGLE DIHED IMPRP ELECT VDW BOUNDARY MISC KINETIC TOTAL TEMP POTENTIAL TOTALAVG TEMPAVG PRESSURE GPRESSURE VOLUME PRESSAVG GPRESSAVG
ENERGY: 0 3.2300 4.1663 4.6929 0.0000 -10490.5349 1433.0999 0.0000 0.0000 1761.6423 -7283.7035 304.9531 -9045.3458 -7283.7035 304.9531 274.6377 353.5423 29939.0887 274.6377 353.5423
ENERGY: 300000 5.9164 2.8311 3.3241 0.0000 -10434.4748 1353.9551 0.0000 0.0000 1724.2575 -7344.1907 298.4815 -9068.4481 -7349.7164 298.7450 -399.6417 -289.7141 30194.5110 -140.7384 -64.9028
ENERGY: 600000 1.3598 4.3540 5.4210 0.0000 -10514.4827 1367.2473 0.0000 0.0000 1634.4616 -7501.6388 282.9372 -9136.1004 -7372.0881 296.5362 -726.0093 -631.6653 30007.7331 -357.1950 -295.9258
ENERGY: 900000 8.2137 5.0223 3.7002 0.0000 -10473.5694 1399.1965 0.0000 0.0000 1702.9335 -7354.5032 294.7902 -9057.4367 -7372.0655 297.1821 -309.9439 -298.2614 29967.5811 -271.3140 -212.9579
ENERGY: 1200000 4.7650 4.0030 6.0947 0.0000 -10664.5997 1490.8463 0.0000 0.0000 1758.0096 -7400.8811 304.3243 -9158.8906 -7365.9643 298.4026 327.6975 378.8584 30121.8551 -126.1866 -69.6862
ENERGY: 1500000 5.9426 6.4973 2.8077 0.0000 -10456.3669 1405.3887 0.0000 0.0000 1811.9694 -7223.7613 313.6651 -9035.7307 -7355.3926 299.7655 113.9267 108.4022 29828.5994 -32.8075 14.1650
TCL: Running FEP window  11: Lambda1 0.4999999999999996 Lambda2 0.4499999999999996 [dLambda -0.04999999999999999]
TCL: Setting parameter firsttimestep to 0
TCL: Setting parameter alchLambda to 0.4999999999999996
Info: NONBONDED TABLE R-SQUARED SPACING: 0.0625
Info: NONBONDED TABLE SIZE: 705 POINTS
TCL: Setting parameter alchLambda2 to 0.4499999999999996
Info: NONBONDED TABLE R-SQUARED SPACING: 0.0625
Info: NONBONDED TABLE SIZE: 705 POINTS
TCL: Running for 1500000 steps
ETITLE: TS BOND ANGLE DIHED IMPRP ELECT VDW BOUNDARY MISC KINETIC TOTAL TEMP POTENTIAL TOTALAVG TEMPAVG PRESSURE GPRESSURE VOLUME PRESSAVG GPRESSAVG
ENERGY: 0 5.9426 6.4973 2.8077 0.0000 -10456.0646 1406.1302 0.0000 0.0000 1811.1026 -7223.5841 313.5151 -9034.6868 -7223.5841 313.5151 21.0858 108.2142 29828.5994 21.0858 108.2142
ENERGY: 300000 1.9047 6.2988 5.2435 0.0000 -10580.0145 1448.7576 0.0000 0.0000 1764.6681 -7353.1419 305.4769 -9117.8100 -7319.8067 307.4891 209.9901 224.6775 30018.0640 53.4422 120.3669
ENERGY: 600000 4.6559 5.1866 4.4423 0.0000 -10525.8075 1408.4470 0.0000 0.0000 1726.1090 -7376.9666 298.8021 -9103.0756 -7360.8149 302.9093 -411.6579 -351.4341 30264.4222 -182.6798 -124.4737
ENERGY: 900000 2.0929 6.1317 4.6295 0.0000 -10524.9658 1442.0566 0.0000 0.0000 1755.4577 -7314.5974 303.8825 -9070.0551 -7377.6142 300.4198 179.0070 276.7180 30090.8785 -39.8579 27.1978
ENERGY: 1200000 4.4113 5.1962 5.8880 0.0000 -10431.1513 1399.4610 0.0000 0.0000 1778.6914 -7237.5034 307.9045 -9016.1948 -7359.6979 300.6887 -329.1554 -209.5599 30632.4277 -181.3570 -112.3938
ENERGY: 1500000 0.9348 5.3317 4.0652 0.0000 -10612.0337 1459.3303 0.0000 0.0000 1690.6339 -7451.7378 292.6610 -9142.3717 -7374.4239 299.6750 421.9186 473.2815 29413.3410 -177.9933 -110.5853
TCL: Running FEP window  12: Lambda1 0.4499999999999996 Lambda2 0.39999999999999963 [dLambda -0.04999999999999999]
TCL: Setting parameter firsttimestep to 0
TCL: Setting parameter alchLambda to 0.4499999999999996
Info: NONBONDED TABLE R-SQUARED SPACING: 0.0625
Info: NONBONDED TABLE SIZE: 705 POINTS
TCL: Setting parameter alchLambda2 to 0.39999999999999963
Info: NONBONDED TABLE R-SQUARED SPACING: 0.0625
Info: NONBONDED TABLE SIZE: 705 POINTS
TCL: Running for 1500000 steps
ETITLE: TS BOND ANGLE DIHED IMPRP ELECT VDW BOUNDARY MISC KINETIC TOTAL TEMP POTENTIAL TOTALAVG TEMPAVG PRESSURE GPRESSURE VOLUME PRESSAVG GPRESSAVG
ENERGY: 0 0.9348 5.3317 4.0652 0.0000 -10612.0361 1459.8344 0.0000 0.0000 1689.7273 -7452.1427 292.5041 -9141.8700 -7452.1427 292.5041 388.8307 470.5096 29413.3410 388.8307 470.5096
ENERGY: 300000 2.4454 3.6206 7.6789 0.0000 -10524.5708 1412.8332 0.0000 0.0000 1748.1308 -7349.8619 302.6142 -9097.9927 -7400.9777 295.4839 203.5012 286.4860 29421.8213 386.8586 450.8758
ENERGY: 600000 5.1897 5.1265 7.7171 0.0000 -10457.0802 1453.5253 0.0000 0.0000 1720.0272 -7265.4943 297.7493 -8985.5215 -7382.6129 297.0685 513.4495 515.7841 30001.0951 272.5876 331.9306
ENERGY: 900000 6.6260 2.6764 4.7738 0.0000 -10333.7629 1316.5714 0.0000 0.0000 1741.4331 -7261.6822 301.4548 -9003.1153 -7358.0782 298.5056 -983.9147 -967.4103 30452.6826 56.4068 109.9786
ENERGY: 1200000 2.9126 5.0229 3.1387 0.0000 -10572.6404 1457.1519 0.0000 0.0000 1733.0623 -7371.3519 300.0057 -9104.4142 -7361.4311 298.5976 16.0848 82.9492 30016.6475 -40.0410 13.4143
ENERGY: 1500000 2.7723 3.2271 6.6920 0.0000 -10510.1139 1386.4168 0.0000 0.0000 1710.9751 -7400.0307 296.1823 -9111.0058 -7358.1155 299.1389 -333.2610 -304.7851 29924.7954 -5.2163 46.7766
TCL: Running FEP window  13: Lambda1 0.39999999999999963 Lambda2 0.34999999999999964 [dLambda -0.04999999999999999]
TCL: Setting parameter firsttimestep to 0
TCL: Setting parameter alchLambda to 0.39999999999999963
Info: NONBONDED TABLE R-SQUARED SPACING: 0.0625
Info: NONBONDED TABLE SIZE: 705 POINTS
TCL: Setting parameter alchLambda2 to 0.34999999999999964
Info: NONBONDED TABLE R-SQUARED SPACING: 0.0625
Info: NONBONDED TABLE SIZE: 705 POINTS
TCL: Running for 1500000 steps
ETITLE: TS BOND ANGLE DIHED IMPRP ELECT VDW BOUNDARY MISC KINETIC TOTAL TEMP POTENTIAL TOTALAVG TEMPAVG PRESSURE GPRESSURE VOLUME PRESSAVG GPRESSAVG
ENERGY: 0 2.7722 3.2271 6.6920 0.0000 -10510.1142 1386.2164 0.0000 0.0000 1710.1080 -7401.0984 296.0322 -9111.2064 -7401.0984 296.0322 -411.0999 -314.8222 29924.7954 -411.0999 -314.8222
ENERGY: 300000 1.6792 5.6994 6.8568 0.0000 -10395.3033 1358.8674 0.0000 0.0000 1752.6083 -7269.5921 303.3893 -9022.2005 -7342.2663 301.6409 -45.5651 -19.3767 29808.3498 -48.7350 27.5115
ENERGY: 600000 5.2428 7.5463 5.9597 0.0000 -10490.6514 1413.5068 0.0000 0.0000 1745.2114 -7313.1844 302.1088 -9058.3959 -7349.2429 302.4413 -92.9512 -56.8727 30089.2979 -102.3265 -25.9800
ENERGY: 900000 3.4544 8.0671 3.0283 0.0000 -10546.4968 1401.5668 0.0000 0.0000 1718.5681 -7411.8121 297.4967 -9130.3802 -7370.9040 301.4447 -264.8277 -200.3809 29916.0737 -46.6209 17.7130
ENERGY: 1200000 5.3986 3.5905 3.5612 0.0000 -10425.7633 1363.4053 0.0000 0.0000 1753.5230 -7296.2847 303.5476 -9049.8077 -7362.0178 302.4004 -511.1429 -428.3244 30141.8216 43.0694 107.1980
ENERGY: 1500000 2.6328 5.1312 2.6101 0.0000 -10475.6729 1409.7186 0.0000 0.0000 1743.3148 -7312.2653 301.7805 -9055.5802 -7358.9774 302.5290 -172.9921 -92.3304 30313.7818 -5.5459 59.3684
TCL: Running FEP window  14: Lambda1 0.34999999999999964 Lambda2 0.29999999999999966 [dLambda -0.04999999999999999]
TCL: Setting parameter firsttimestep to 0
TCL: Setting parameter alchLambda to 0.34999999999999964
Info: NONBONDED TABLE R-SQUARED SPACING: 0.0625
Info: NONBONDED TABLE SIZE: 705 POINTS
TCL: Setting parameter alchLambda2 to 0.29999999999999966
Info: NONBONDED TABLE R-SQUARED SPACING: 0.0625
Info: NONBONDED TABLE SIZE: 705 POINTS
TCL: Running for 1500000 steps
ETITLE: TS BOND ANGLE DIHED IMPRP ELECT VDW BOUNDARY MISC KINETIC TOTAL TEMP POTENTIAL TOTALAVG TEMPAVG PRESSURE GPRESSURE VOLUME PRESSAVG GPRESSAVG
ENERGY: 0 2.6328 5.1312 2.6101 0.0000 -10475.6732 1409.7484 0.0000 0.0000 1742.4393 -7313.1114 301.6289 -9055.5506 -7313.1114 301.6289 -181.1229 -99.2898 30313.7818 -181.1229 -99.2898
ENERGY: 300000 3.1342 4.8772 5.9797 0.0000 -10565.5170 1412.0460 0.0000 0.0000 1713.5174 -7425.9625 296.6224 -9139.4799 -7348.7636 299.2568 -187.4764 -191.1928 29730.7323 -337.0292 -282.9573
ENERGY: 600000 4.7899 9.3939 2.9545 0.0000 -10733.8106 1520.5614 0.0000 0.0000 1719.2201 -7476.8910 297.6095 -9196.1110 -7368.7342 299.8148 533.1430 662.4076 29385.4326 -208.0365 -136.0349
ENERGY: 900000 2.5962 5.5068 4.2176 0.0000 -10411.3518 1305.2517 0.0000 0.0000 1738.2149 -7355.5645 300.8977 -9093.7795 -7363.3208 300.4396 -886.0374 -821.4358 29680.1377 -316.6015 -245.0058
ENERGY: 1200000 1.3201 4.7508 5.2428 0.0000 -10481.9388 1376.7806 0.0000 0.0000 1768.2779 -7325.5665 306.1018 -9093.8444 -7363.8335 301.8104 -403.3634 -307.9774 30113.9273 -335.5102 -267.9225
ENERGY: 1500000 3.4117 4.2667 4.7100 0.0000 -10795.2770 1596.1915 0.0000 0.0000 1742.7160 -7443.9813 301.6768 -9186.6972 -7369.5674 301.4547 1400.7391 1488.3774 29415.6184 -233.3728 -163.4429
TCL: Running FEP window  15: Lambda1 0.29999999999999966 Lambda2 0.24999999999999967 [dLambda -0.04999999999999999]
TCL: Setting parameter firsttimestep to 0
TCL: Setting parameter alchLambda to 0.29999999999999966
Info: NONBONDED TABLE R-SQUARED SPACING: 0.0625
Info: NONBONDED TABLE SIZE: 705 POINTS
TCL: Setting parameter alchLambda2 to 0.24999999999999967
Info: NONBONDED TABLE R-SQUARED SPACING: 0.0625
Info: NONBONDED TABLE SIZE: 705 POINTS
TCL: Running for 1500000 steps
ETITLE: TS BOND ANGLE DIHED IMPRP ELECT VDW BOUNDARY MISC KINETIC TOTAL TEMP POTENTIAL TOTALAVG TEMPAVG PRESSURE GPRESSURE VOLUME PRESSAVG GPRESSAVG
ENERGY: 0 3.4117 4.2667 4.7100 0.0000 -10795.2772 1596.2101 0.0000 0.0000 1741.8344 -7444.8444 301.5242 -9186.6788 -7444.8444 301.5242 1398.1660 1486.2000 29415.6184 1398.1660 1486.2000
ENERGY: 300000 5.7860 4.0767 3.5646 0.0000 -10486.3043 1343.7151 0.0000 0.0000 1749.2159 -7379.9460 302.8020 -9129.1619 -7416.1289 299.1887 -826.0096 -698.9912 29865.2811 -86.3804 -7.6359
ENERGY: 600000 2.2746 4.5087 9.8400 0.0000 -10492.6952 1359.5130 0.0000 0.0000 1750.5980 -7365.9609 303.0413 -9116.5589 -7410.0060 299.7786 -431.7826 -476.6157 29798.2351 -31.1539 21.6597
ENERGY: 900000 1.5950 4.9089 2.6979 0.0000 -10491.3190 1432.2460 0.0000 0.0000 1767.9061 -7281.9651 306.0374 -9049.8712 -7398.7412 299.3533 392.6156 451.8461 29868.8551 61.3791 112.3538
ENERGY: 1200000 2.3603 3.7907 3.8541 0.0000 -10417.7851 1362.6962 0.0000 0.0000 1699.0237 -7346.0601 294.1134 -9045.0838 -7392.4998 299.2937 -439.9316 -389.9568 30354.2972 83.0208 135.8672
ENERGY: 1500000 2.7559 2.9264 4.9507 0.0000 -10492.4677 1378.1359 0.0000 0.0000 1753.0354 -7350.6634 303.4632 -9103.6987 -7392.0499 298.2873 -224.7759 -151.5414 29489.4957 32.6456 88.6317
TCL: Running FEP window  16: Lambda1 0.24999999999999967 Lambda2 0.19999999999999968 [dLambda -0.04999999999999999]
TCL: Setting parameter firsttimestep to 0
TCL: Setting parameter alchLambda to 0.24999999999999967
Info: NONBONDED TABLE R-SQUARED SPACING: 0.0625
Info: NONBONDED TABLE SIZE: 705 POINTS
TCL: Setting parameter alchLambda2 to 0.19999999999999968
Info: NONBONDED TABLE R-SQUARED SPACING: 0.0625
Info: NONBONDED TABLE SIZE: 705 POINTS
TCL: Running for 1500000 steps
ETITLE: TS BOND ANGLE DIHED IMPRP ELECT VDW BOUNDARY MISC KINETIC TOTAL TEMP POTENTIAL TOTALAVG TEMPAVG PRESSURE GPRESSURE VOLUME PRESSAVG GPRESSAVG
ENERGY: 0 2.7559 2.9264 4.9507 0.0000 -10492.4676 1378.5443 0.0000 0.0000 1752.1397 -7351.1505 303.3082 -9103.2902 -7351.1505 303.3082 -231.0938 -150.9585 29489.4957 -231.0938 -150.9585
ENERGY: 300000 1.7838 2.7899 6.2809 0.0000 -10382.1389 1359.2446 0.0000 0.0000 1733.4492 -7278.5904 300.0727 -9012.0396 -7329.4476 300.9564 -351.3437 -304.2899 30079.2376 -3.2005 53.6528
ENERGY: 600000 1.8046 5.7034 3.4224 0.0000 -10593.3932 1475.5926 0.0000 0.0000 1725.3334 -7381.5367 298.6678 -9106.8701 -7333.5062 299.8960 436.5921 472.6479 29768.4586 80.7852 143.8197
ENERGY: 900000 2.8004 6.1420 6.2325 0.0000 -10514.8601 1443.3821 0.0000 0.0000 1701.4782 -7354.8250 294.5383 -9056.3031 -7342.4507 299.0967 467.4617 489.8854 29567.2453 165.6522 211.5230
ENERGY: 1200000 3.1980 6.4489 3.3515 0.0000 -10644.2070 1503.2481 0.0000 0.0000 1772.3596 -7355.6009 306.8084 -9127.9605 -7346.5495 299.2167 804.8561 910.8794 29299.0583 180.9111 231.8433
ENERGY: 1500000 1.0124 5.1464 3.9422 0.0000 -10493.5987 1405.9721 0.0000 0.0000 1768.5235 -7309.0020 306.1443 -9077.5255 -7343.8446 300.1676 43.7026 150.6099 29644.9261 157.9105 216.0721
TCL: Running FEP window  17: Lambda1 0.19999999999999968 Lambda2 0.1499999999999997 [dLambda -0.04999999999999999]
TCL: Setting parameter firsttimestep to 0
TCL: Setting parameter alchLambda to 0.19999999999999968
Info: NONBONDED TABLE R-SQUARED SPACING: 0.0625
Info: NONBONDED TABLE SIZE: 705 POINTS
TCL: Setting parameter alchLambda2 to 0.1499999999999997
Info: NONBONDED TABLE R-SQUARED SPACING: 0.0625
Info: NONBONDED TABLE SIZE: 705 POINTS
TCL: Running for 1500000 steps
ETITLE: TS BOND ANGLE DIHED IMPRP ELECT VDW BOUNDARY MISC KINETIC TOTAL TEMP POTENTIAL TOTALAVG TEMPAVG PRESSURE GPRESSURE VOLUME PRESSAVG GPRESSAVG
ENERGY: 0 1.0124 5.1464 3.9422 0.0000 -10493.5989 1404.6779 0.0000 0.0000 1767.6678 -7311.1521 305.9962 -9078.8199 -7311.1521 305.9962 41.8180 137.3199 29644.9261 41.8180 137.3199
ENERGY: 300000 2.7302 6.1452 3.0880 0.0000 -10562.7656 1456.5443 0.0000 0.0000 1770.4184 -7323.8395 306.4723 -9094.2579 -7361.2389 302.3084 127.9364 201.3114 29953.0780 -92.8533 -26.7731
ENERGY: 600000 5.6004 3.0218 3.5312 0.0000 -10512.8648 1367.0030 0.0000 0.0000 1764.9101 -7368.7983 305.5188 -9133.7084 -7366.3487 300.9833 -602.4111 -529.5815 29636.0592 -264.6046 -203.5221
ENERGY: 900000 4.4850 3.5197 5.4739 0.0000 -10512.1235 1342.0449 0.0000 0.0000 1755.5741 -7401.0258 303.9027 -9156.6000 -7361.4234 301.5440 -937.6015 -862.0392 29957.0822 -283.4436 -213.2326
ENERGY: 1200000 5.0550 4.2244 4.5523 0.0000 -10448.5699 1391.2305 0.0000 0.0000 1697.4985 -7346.0093 293.8494 -9043.5078 -7365.5243 299.8936 -370.6955 -331.5323 30215.9591 -294.8059 -230.7216
ENERGY: 1500000 3.6199 2.4481 2.2704 0.0000 -10606.8779 1436.7582 0.0000 0.0000 1702.8960 -7458.8852 294.7837 -9161.7812 -7370.1455 299.0244 -89.6430 -68.9504 29906.2029 -244.1179 -178.4437
TCL: Running FEP window  18: Lambda1 0.1499999999999997 Lambda2 0.09999999999999969 [dLambda -0.05 ]
TCL: Setting parameter firsttimestep to 0
TCL: Setting parameter alchLambda to 0.1499999999999997
Info: NONBONDED TABLE R-SQUARED SPACING: 0.0625
Info: NONBONDED TABLE SIZE: 705 POINTS
TCL: Setting parameter alchLambda2 to 0.09999999999999969
Info: NONBONDED TABLE R-SQUARED SPACING: 0.0625
Info: NONBONDED TABLE SIZE: 705 POINTS
TCL: Running for 1500000 steps
ETITLE: TS BOND ANGLE DIHED IMPRP ELECT VDW BOUNDARY MISC KINETIC TOTAL TEMP POTENTIAL TOTALAVG TEMPAVG PRESSURE GPRESSURE VOLUME PRESSAVG GPRESSAVG
ENERGY: 0 3.6199 2.4481 2.2704 0.0000 -10606.8787 1436.3719 0.0000 0.0000 1702.0580 -7460.1103 294.6387 -9162.1683 -7460.1103 294.6387 -157.6026 -76.1060 29906.2029 -157.6026 -76.1060
ENERGY: 300000 4.5175 5.7182 1.6837 0.0000 -10543.3058 1454.4698 0.0000 0.0000 1729.5007 -7347.4159 299.3892 -9076.9166 -7351.2636 299.7365 183.9489 238.4288 29994.4894 -130.1251 -68.6973
ENERGY: 600000 2.5645 6.3959 3.9623 0.0000 -10408.5708 1350.7676 0.0000 0.0000 1690.4282 -7354.4523 292.6255 -9044.8805 -7334.7097 300.6477 -394.0022 -359.9714 29951.5823 -135.9462 -81.4994
ENERGY: 900000 5.3762 3.0243 3.2065 0.0000 -10388.7401 1324.0490 0.0000 0.0000 1669.1842 -7383.8998 288.9480 -9053.0840 -7360.9875 298.5755 -558.6660 -554.9668 29815.6949 -255.0955 -202.5635
ENERGY: 1200000 5.5781 3.9071 6.5183 0.0000 -10535.8254 1457.6206 0.0000 0.0000 1726.7584 -7335.4428 298.9145 -9062.2012 -7358.9758 298.8003 763.5135 827.2654 29361.9448 -146.6511 -99.2846
ENERGY: 1500000 4.8187 2.7188 3.0395 0.0000 -10599.7104 1466.9837 0.0000 0.0000 1728.6966 -7393.4531 299.2500 -9122.1497 -7357.1126 298.6010 44.3953 203.5834 29622.5411 -226.1407 -178.6804
TCL: Running FEP window  19: Lambda1 0.09999999999999969 Lambda2 0.049999999999999684 [dLambda -0.05 ]
TCL: Setting parameter firsttimestep to 0
TCL: Setting parameter alchLambda to 0.09999999999999969
Info: NONBONDED TABLE R-SQUARED SPACING: 0.0625
Info: NONBONDED TABLE SIZE: 705 POINTS
TCL: Setting parameter alchLambda2 to 0.049999999999999684
Info: NONBONDED TABLE R-SQUARED SPACING: 0.0625
Info: NONBONDED TABLE SIZE: 705 POINTS
TCL: Running for 1500000 steps
ETITLE: TS BOND ANGLE DIHED IMPRP ELECT VDW BOUNDARY MISC KINETIC TOTAL TEMP POTENTIAL TOTALAVG TEMPAVG PRESSURE GPRESSURE VOLUME PRESSAVG GPRESSAVG
ENERGY: 0 4.8188 2.7188 3.0395 0.0000 -10599.7114 1467.1060 0.0000 0.0000 1727.8483 -7394.1802 299.1031 -9122.0284 -7394.1802 299.1031 104.6089 201.1821 29622.5411 104.6089 201.1821
ENERGY: 300000 3.1141 6.0106 5.4557 0.0000 -10517.1760 1391.9500 0.0000 0.0000 1754.2449 -7356.4006 303.6726 -9110.6455 -7345.4271 302.2160 -169.7100 -92.5831 29570.3903 -285.6463 -193.2348
ENERGY: 600000 9.1257 3.2209 3.4725 0.0000 -10579.7379 1471.0943 0.0000 0.0000 1721.3972 -7371.4273 297.9864 -9092.8245 -7364.4637 300.4797 254.2242 331.7242 29418.1634 -283.6499 -209.7229
ENERGY: 900000 3.7303 4.0559 3.7046 0.0000 -10611.4511 1489.4618 0.0000 0.0000 1715.3022 -7395.1964 296.9313 -9110.4986 -7361.0709 300.4209 742.5680 813.3572 29555.6745 -228.8984 -163.1476
ENERGY: 1200000 3.5139 4.4255 3.2112 0.0000 -10580.6000 1420.5779 0.0000 0.0000 1745.3136 -7403.5580 302.1265 -9148.8716 -7358.2233 301.2577 -121.3231 -56.8750 29248.0996 -147.9104 -79.5358
ENERGY: 1500000 3.5084 4.8064 4.9862 0.0000 -10576.3401 1460.3511 0.0000 0.0000 1692.3566 -7410.3312 292.9593 -9102.6879 -7355.5045 300.9643 144.1031 244.0980 29641.6765 -55.9801 12.0522
TCL: Running FEP window  20: Lambda1 0.049999999999999684 Lambda2 0.0    [dLambda -0.049999999999999684]
TCL: Setting parameter firsttimestep to 0
TCL: Setting parameter alchLambda to 0.049999999999999684
Info: NONBONDED TABLE R-SQUARED SPACING: 0.0625
Info: NONBONDED TABLE SIZE: 705 POINTS
TCL: Setting parameter alchLambda2 to 0.0
Info: NONBONDED TABLE R-SQUARED SPACING: 0.0625
Info: NONBONDED TABLE SIZE: 705 POINTS
TCL: Running for 1500000 steps
ETITLE: TS BOND ANGLE DIHED IMPRP ELECT VDW BOUNDARY MISC KINETIC TOTAL TEMP POTENTIAL TOTALAVG TEMPAVG PRESSURE GPRESSURE VOLUME PRESSAVG GPRESSAVG
ENERGY: 0 3.5084 4.8064 4.9862 0.0000 -10576.3410 1459.3362 0.0000 0.0000 1691.5028 -7412.2010 292.8115 -9103.7038 -7412.2010 292.8115 142.4217 236.2214 29641.6765 142.4217 236.2214
ENERGY: 300000 4.3649 7.1576 3.6427 0.0000 -10648.1534 1516.6597 0.0000 0.0000 1711.2749 -7405.0537 296.2342 -9116.3287 -7381.2289 296.9583 786.2614 793.2848 29571.9390 139.4825 203.2347
ENERGY: 600000 2.4657 3.8275 5.3300 0.0000 -10507.8161 1384.8289 0.0000 0.0000 1715.9020 -7395.4621 297.0351 -9111.3641 -7368.4862 299.1152 -424.6042 -337.3640 29770.2474 27.7990 96.1106
ENERGY: 900000 3.5097 5.2108 4.4429 0.0000 -10535.4402 1394.8188 0.0000 0.0000 1683.9804 -7443.4776 291.5093 -9127.4580 -7360.9095 300.5305 -334.3500 -253.1529 29576.2877 -2.7911 64.0327
ENERGY: 1200000 3.5679 4.8579 4.5201 0.0000 -10525.3771 1425.0061 0.0000 0.0000 1741.6654 -7345.7597 301.4950 -9087.4251 -7360.5146 300.6350 -110.7729 -84.0624 29808.5783 -32.4644 25.9079
ENERGY: 1500000 4.4056 2.1028 2.0888 0.0000 -10405.3238 1341.9591 0.0000 0.0000 1733.0724 -7321.6950 300.0075 -9054.7674 -7353.4472 300.6866 -631.5326 -594.3931 29906.1362 -76.9499 -22.6463
TCL: Exiting due to exit command.
