Info: SIMULATION PARAMETERS:
Info: TIMESTEP               2
Info: NUMBER OF STEPS        0
Info: STEPS PER CYCLE        10
Info: PERIODIC CELL BASIS 1  30.7739 0 0
Info: PERIODIC CELL BASIS 2  0 31.1478 0
Info: PERIODIC CELL BASIS 3  0 0 31.3527
Info: PERIODIC CELL CENTER   0 0 0
Info: WRAPPING WATERS AROUND PERIODIC BOUNDARIES ON OUTPUT.
Info: WRAPPING ALL CLUSTERS AROUND PERIODIC BOUNDARIES ON OUTPUT.
Info: FIRST LDB TIMESTEP     50
Info: LAST LDB TIMESTEP     -1
Info: HOM BACKGROUND SCALING 1
Info: PME BACKGROUND SCALING 1
Info: MIN ATOMS PER PATCH    40
Info: EMPTY PATCH LOAD       40 ATOMS
Info: VELOCITY FILE          mobley_2143011_equil.vel
Info: CENTER OF MASS MOVING INITIALLY? NO
Info: DIELECTRIC             1
Info: EXCLUDE                SCALED ONE-FOUR
Info: 1-4 ELECTROSTATICS SCALED BY 0.833333
Info: MODIFIED 1-4 VDW PARAMETERS WILL BE USED
Info: DCD FILENAME           mobley_2143011_prod.dcd
Info: DCD FREQUENCY          100000
Info: DCD FIRST STEP         100000
Info: DCD FILE WILL CONTAIN UNIT CELL DATA
Info: XST FILENAME           mobley_2143011_prod.xst
Info: XST FREQUENCY          100000
Info: NO VELOCITY DCD OUTPUT
Info: NO FORCE DCD OUTPUT
Info: OUTPUT FILENAME        mobley_2143011_prod
Info: BINARY OUTPUT FILES WILL BE USED
Info: RESTART FILENAME       mobley_2143011_prod.restart
Info: RESTART FREQUENCY      100000
Info: BINARY RESTART FILES WILL BE USED
Info: CUTOFF                 9
Info: PAIRLIST DISTANCE      11
Info: PAIRLIST SHRINK RATE   0.01
Info: PAIRLIST GROW RATE     0.01
Info: PAIRLIST TRIGGER       0.3
Info: PAIRLISTS PER CYCLE    2
Info: PAIRLISTS ENABLED
Info: MARGIN                 2
Info: HYDROGEN GROUP CUTOFF  2.5
Info: PATCH DIMENSION        15.5
Info: ENERGY OUTPUT STEPS    100000
Info: ENERGY EVALUATION STEPS    100000
Info: OUTPUT ENERGY PRECISION 4
Info: CROSSTERM ENERGY INCLUDED IN DIHEDRAL
Info: TIMING OUTPUT STEPS    1000000
Info: PRESSURE OUTPUT STEPS  100000
Info: ALCHEMICAL FEP ON
Info: FEP CURRENT LAMBDA VALUE     0
Info: FEP COMPARISON LAMBDA VALUE  0.05
Info: FEP INTRA-ALCHEMICAL NON-BONDED INTERACTIONS WILL BE RETAINED
Info: FEP INTRA-ALCHEMICAL BONDED INTERACTIONS WILL BE RETAINED
Info: FEP VDW SHIFTING COEFFICIENT 5
Info: FEP ELEC. ACTIVE FOR ANNIHILATED PARTICLES BETWEEN LAMBDA = 0 AND LAMBDA = 0.5
Info: FEP ELEC. ACTIVE FOR EXNIHILATED PARTICLES BETWEEN LAMBDA = 0.5 AND LAMBDA = 1
Info: FEP VDW ACTIVE FOR ANNIHILATED PARTICLES BETWEEN LAMBDA = 0 AND LAMBDA = 1
Info: FEP VDW ACTIVE FOR EXNIHILATED PARTICLES BETWEEN LAMBDA = 0 AND LAMBDA = 1
Info: FEP BOND ACTIVE FOR ANNIHILATED PARTICLES BETWEEN LAMBDA = 1 AND LAMBDA = 1
Info: FEP BOND ACTIVE FOR EXNIHILATED PARTICLES BETWEEN LAMBDA = 0 AND LAMBDA = 0
Info: LANGEVIN DYNAMICS ACTIVE
Info: LANGEVIN TEMPERATURE   300
Info: LANGEVIN USING BBK INTEGRATOR
Info: LANGEVIN DAMPING COEFFICIENT IS 1 INVERSE PS
Info: LANGEVIN DYNAMICS APPLIED TO HYDROGENS
Info: LANGEVIN PISTON PRESSURE CONTROL ACTIVE
Info:        TARGET PRESSURE IS 1.01325 BAR
Info:     OSCILLATION PERIOD IS 50 FS
Info:             DECAY TIME IS 25 FS
Info:     PISTON TEMPERATURE IS 300 K
Info:       PRESSURE CONTROL IS GROUP-BASED
Info:    INITIAL STRAIN RATE IS 0.000572042 0.000572042 0.000572042
Info:       CELL FLUCTUATION IS ISOTROPIC
Info: PARTICLE MESH EWALD (PME) ACTIVE
Info: PME TOLERANCE               1e-06
Info: PME EWALD COEFFICIENT       0.348832
Info: PME INTERPOLATION ORDER     4
Info: PME GRID DIMENSIONS         32 32 32
Info: PME MAXIMUM GRID SPACING    1
Info: PME CALCULATION WILL BE PERFORMED ON GPU
Info: FULL ELECTROSTATIC EVALUATION FREQUENCY      2
Info: USING VERLET I (r-RESPA) MTS SCHEME.
Info: C1 SPLITTING OF LONG RANGE ELECTROSTATICS
Info: PLACING ATOMS IN PATCHES BY HYDROGEN GROUPS
Info: RIGID BONDS TO HYDROGEN : ALL
Info:         ERROR TOLERANCE : 1e-08
Info:          MAX ITERATIONS : 100
Info: RIGID WATER USING SETTLE ALGORITHM
Info: RANDOM NUMBER SEED     1743749601
Info: USE HYDROGEN BONDS?    NO
Info: Using AMBER format force field!
Info: AMBER PARM FILE        mobley_2143011.prmtop
Info: COORDINATE PDB         mobley_2143011.pdb
Info: Exclusions will be read from PARM file!
Info: SCNB (VDW SCALING)     2
Info: USING ARITHMETIC MEAN TO COMBINE L-J SIGMA PARAMETERS
Info: BINARY COORDINATES     mobley_2143011_equil.coor
Info: SUMMARY OF PARAMETERS:
Info: 7 BONDS
Info: 9 ANGLES
Info:   9 HARMONIC
Info:   0 COSINE-BASED
Info: 8 DIHEDRAL
Info: 0 IMPROPER
Info: 0 CROSSTERM
Info: 0 VDW
Info: 21 VDW_PAIRS
Info: 0 NBTHOLE_PAIRS
Info: To read alchdata from file: mobley_2143011.pdb
Info: To read alchflag data from column: 5
Info: STRUCTURE SUMMARY:
Info: 2955 ATOMS
Info: 2954 BONDS
Info: 24 ANGLES
Info: 32 DIHEDRALS
Info: 0 IMPROPERS
Info: 0 CROSSTERMS
Info: 3006 EXCLUSIONS
Info: 2950 RIGID BONDS
Info: ALCH: 0 ATOMS TO DISAPPEAR IN FINAL STATE
Info: ALCH: 15 ATOMS TO APPEAR IN FINAL STATE
Info: 5915 DEGREES OF FREEDOM
Info: 985 HYDROGEN GROUPS
Info: 4 ATOMS IN LARGEST HYDROGEN GROUP
Info: 985 MIGRATION GROUPS
Info: 4 ATOMS IN LARGEST MIGRATION GROUP
Info: TOTAL MASS = 17725.8 amu
Info: TOTAL CHARGE = 0.000199992 e
Info: MASS DENSITY = 0.979444 g/cm^3
Info: ATOM DENSITY = 0.0983268 atoms/A^3
Info: ADDED 0 IMPLICIT EXCLUSIONS
Info: NONBONDED TABLE R-SQUARED SPACING: 0.0625
Info: NONBONDED TABLE SIZE: 705 POINTS
Info: REMOVING COM VELOCITY -0.0442116 -0.0854069 0.056602
Info: Use 3D box decompostion in PME FFT.
Info: Updated CUDA force table with 4096 elements.
Info: Updated CUDA LJ table with 6 x 6 elements.
Info: Found 18 unique exclusion lists needing 40 bytes
TCL: Running for 1500000 steps
ETITLE: TS BOND ANGLE DIHED IMPRP ELECT VDW BOUNDARY MISC KINETIC TOTAL TEMP POTENTIAL TOTALAVG TEMPAVG PRESSURE GPRESSURE VOLUME PRESSAVG GPRESSAVG
ENERGY: 0 1.8761 5.4725 2.0102 0.0000 -10781.5741 1477.2978 0.0000 0.0000 1729.9699 -7564.9475 294.3569 -9294.9174 -7564.9475 294.3569 117.1465 211.6285 30052.8475 117.1465 211.6285
ENERGY: 300000 0.8543 7.3344 2.4289 0.0000 -10749.0117 1468.8477 0.0000 0.0000 1817.2959 -7452.2505 309.2155 -9269.5464 -7524.6304 301.0358 135.7433 136.9006 30426.8984 -52.2523 -3.9281
ENERGY: 600000 0.6349 4.4892 0.8000 0.0000 -10644.4769 1444.9277 0.0000 0.0000 1757.5487 -7436.0764 299.0495 -9193.6251 -7496.7880 301.3320 4.0819 66.7349 30496.8929 -6.5478 47.4550
ENERGY: 900000 0.7427 4.1994 4.0236 0.0000 -10689.7456 1446.4693 0.0000 0.0000 1777.3953 -7456.9151 302.4264 -9234.3105 -7495.6520 302.8000 -48.6153 32.5140 30419.1136 -29.5585 23.7086
ENERGY: 1200000 2.0433 5.9460 3.6502 0.0000 -10789.1272 1544.0110 0.0000 0.0000 1756.8528 -7476.6239 298.9310 -9233.4767 -7496.9040 301.7635 792.8395 880.1063 30401.7069 30.9860 94.0239
ENERGY: 1500000 1.8137 4.9917 1.3431 0.0000 -10752.9558 1487.9956 0.0000 0.0000 1814.1469 -7442.6648 308.6797 -9256.8117 -7498.6282 302.1902 348.3492 432.9677 30201.6450 19.3511 81.5562
TCL: Running FEP window   2: Lambda1 0.05   Lambda2 0.1    [dLambda 0.05  ]
TCL: Setting parameter firsttimestep to 0
TCL: Setting parameter alchLambda to 0.05
Info: NONBONDED TABLE R-SQUARED SPACING: 0.0625
Info: NONBONDED TABLE SIZE: 705 POINTS
TCL: Setting parameter alchLambda2 to 0.1
Info: NONBONDED TABLE R-SQUARED SPACING: 0.0625
Info: NONBONDED TABLE SIZE: 705 POINTS
TCL: Running for 1500000 steps
ETITLE: TS BOND ANGLE DIHED IMPRP ELECT VDW BOUNDARY MISC KINETIC TOTAL TEMP POTENTIAL TOTALAVG TEMPAVG PRESSURE GPRESSURE VOLUME PRESSAVG GPRESSAVG
ENERGY: 0 1.8137 4.9917 1.3431 0.0000 -10752.9550 1488.2801 0.0000 0.0000 1813.2468 -7443.2796 308.5266 -9256.5264 -7443.2796 308.5266 364.9502 436.0820 30201.6450 364.9502 436.0820
ENERGY: 300000 2.4953 4.5589 1.6396 0.0000 -10849.7224 1527.0056 0.0000 0.0000 1775.7617 -7538.2613 302.1484 -9314.0230 -7532.9422 302.3147 709.0624 844.4906 29680.8565 371.0000 461.6657
ENERGY: 600000 3.0243 4.6079 1.3923 0.0000 -10567.8965 1399.8744 0.0000 0.0000 1773.2615 -7385.7361 301.7230 -9158.9976 -7498.3825 301.8929 -79.3862 52.4804 30322.5678 260.7039 343.6192
ENERGY: 900000 0.4371 3.9437 2.9527 0.0000 -10721.5944 1461.9613 0.0000 0.0000 1729.7073 -7522.5921 294.3122 -9252.2994 -7492.1539 300.9765 105.1640 201.1572 30266.7571 18.2419 101.6553
ENERGY: 1200000 1.6428 6.4739 6.8464 0.0000 -10873.1671 1519.2625 0.0000 0.0000 1741.3044 -7597.6371 296.2854 -9338.9415 -7499.4065 300.5240 723.7870 848.9586 29392.3425 78.1269 161.1833
ENERGY: 1500000 0.8955 6.6314 3.0886 0.0000 -10606.4573 1430.3169 0.0000 0.0000 1804.8251 -7360.6999 307.0936 -9165.5250 -7496.1320 300.8833 -156.5185 -9.5118 30634.5069 33.5326 117.9420
TCL: Running FEP window   3: Lambda1 0.1    Lambda2 0.15000000000000002 [dLambda 0.05000000000000002]
TCL: Setting parameter firsttimestep to 0
TCL: Setting parameter alchLambda to 0.1
Info: NONBONDED TABLE R-SQUARED SPACING: 0.0625
Info: NONBONDED TABLE SIZE: 705 POINTS
TCL: Setting parameter alchLambda2 to 0.15000000000000002
Info: NONBONDED TABLE R-SQUARED SPACING: 0.0625
Info: NONBONDED TABLE SIZE: 705 POINTS
TCL: Running for 1500000 steps
ETITLE: TS BOND ANGLE DIHED IMPRP ELECT VDW BOUNDARY MISC KINETIC TOTAL TEMP POTENTIAL TOTALAVG TEMPAVG PRESSURE GPRESSURE VOLUME PRESSAVG GPRESSAVG
ENERGY: 0 0.8955 6.6314 3.0886 0.0000 -10606.4582 1431.6856 0.0000 0.0000 1803.9162 -7360.2409 306.9389 -9164.1571 -7360.2409 306.9389 -97.6046 -5.4333 30634.5069 -97.6046 -5.4333
ENERGY: 300000 1.0218 5.9802 2.2439 0.0000 -10732.0514 1473.5451 0.0000 0.0000 1752.3328 -7496.9277 298.1620 -9249.2605 -7450.0633 301.5177 -97.8511 -3.1284 30488.0927 -221.0469 -138.1634
ENERGY: 600000 2.0419 3.7534 2.4264 0.0000 -10753.2884 1427.3317 0.0000 0.0000 1709.2317 -7608.5033 290.8282 -9317.7351 -7468.6434 299.5186 -74.6768 -37.6795 29680.7371 -182.1180 -104.4866
ENERGY: 900000 2.8289 5.6374 3.2640 0.0000 -10732.1381 1393.5558 0.0000 0.0000 1793.9167 -7532.9352 305.2375 -9326.8519 -7478.8461 300.7287 -608.9814 -522.3052 30192.5636 -202.8818 -125.8522
ENERGY: 1200000 0.7809 7.9726 1.5157 0.0000 -10571.2055 1407.2065 0.0000 0.0000 1727.2141 -7426.5156 293.8880 -9153.7297 -7490.4907 300.5475 53.9352 114.4043 30251.5786 -169.3909 -92.8192
ENERGY: 1500000 0.8692 8.2881 1.7054 0.0000 -10662.6812 1416.1617 0.0000 0.0000 1759.2770 -7476.3798 299.3435 -9235.6568 -7478.6559 300.9031 256.8262 314.9958 29620.5399 -200.1473 -134.0862
TCL: Running FEP window   4: Lambda1 0.15000000000000002 Lambda2 0.2    [dLambda 0.04999999999999999]
TCL: Setting parameter firsttimestep to 0
TCL: Setting parameter alchLambda to 0.15000000000000002
Info: NONBONDED TABLE R-SQUARED SPACING: 0.0625
Info: NONBONDED TABLE SIZE: 705 POINTS
TCL: Setting parameter alchLambda2 to 0.2
Info: NONBONDED TABLE R-SQUARED SPACING: 0.0625
Info: NONBONDED TABLE SIZE: 705 POINTS
TCL: Running for 1500000 steps
ETITLE: TS BOND ANGLE DIHED IMPRP ELECT VDW BOUNDARY MISC KINETIC TOTAL TEMP POTENTIAL TOTALAVG TEMPAVG PRESSURE GPRESSURE VOLUME PRESSAVG GPRESSAVG
ENERGY: 0 0.8692 8.2881 1.7054 0.0000 -10662.6815 1416.6477 0.0000 0.0000 1758.3885 -7476.7826 299.1923 -9235.1711 -7476.7826 299.1923 241.0943 319.6285 29620.5399 241.0943 319.6285
ENERGY: 300000 0.5574 6.8708 3.0540 0.0000 -10831.3059 1497.6029 0.0000 0.0000 1813.8154 -7509.4053 308.6233 -9323.2207 -7496.4693 301.8992 328.6399 389.4961 30395.2458 -283.1842 -224.8278
ENERGY: 600000 1.8010 4.3316 4.1162 0.0000 -10765.1353 1511.4737 0.0000 0.0000 1789.9856 -7453.4272 304.5686 -9243.4128 -7495.6996 303.2460 609.4478 680.7110 30168.1518 -59.2409 11.7588
ENERGY: 900000 2.2935 6.6116 1.5931 0.0000 -10652.3121 1336.6022 0.0000 0.0000 1754.8944 -7550.3172 298.5978 -9305.2116 -7508.9439 302.3058 -991.3952 -953.2881 30333.9488 -73.8709 -12.8469
ENERGY: 1200000 0.7800 2.6712 1.4983 0.0000 -10693.3430 1477.5139 0.0000 0.0000 1719.1594 -7491.7202 292.5175 -9210.8796 -7500.7367 301.3835 424.0823 481.5928 30175.7972 -82.0697 -22.1575
ENERGY: 1500000 0.3233 3.2989 2.0489 0.0000 -10623.3657 1419.5040 0.0000 0.0000 1768.6351 -7429.5556 300.9358 -9198.1907 -7482.0438 301.6327 -149.3966 -112.9829 30752.7009 -47.1984 9.2859
TCL: Running FEP window   5: Lambda1 0.2    Lambda2 0.25   [dLambda 0.04999999999999999]
TCL: Setting parameter firsttimestep to 0
TCL: Setting parameter alchLambda to 0.2
Info: NONBONDED TABLE R-SQUARED SPACING: 0.0625
Info: NONBONDED TABLE SIZE: 705 POINTS
TCL: Setting parameter alchLambda2 to 0.25
Info: NONBONDED TABLE R-SQUARED SPACING: 0.0625
Info: NONBONDED TABLE SIZE: 705 POINTS
TCL: Running for 1500000 steps
ETITLE: TS BOND ANGLE DIHED IMPRP ELECT VDW BOUNDARY MISC KINETIC TOTAL TEMP POTENTIAL TOTALAVG TEMPAVG PRESSURE GPRESSURE VOLUME PRESSAVG GPRESSAVG
ENERGY: 0 0.3233 3.2989 2.0489 0.0000 -10623.3655 1419.9166 0.0000 0.0000 1767.7177 -7430.0601 300.7797 -9197.7778 -7430.0601 300.7797 -171.1926 -109.7905 30752.7009 -171.1926 -109.7905
ENERGY: 300000 2.6186 5.1145 2.3002 0.0000 -10836.3320 1473.8987 0.0000 0.0000 1786.3009 -7566.0990 303.9417 -9352.3999 -7513.1322 300.2459 83.2453 170.3343 29878.2500 -184.8669 -111.0082
ENERGY: 600000 0.8099 6.8274 3.3469 0.0000 -10642.8420 1345.2706 0.0000 0.0000 1803.6476 -7482.9395 306.8932 -9286.5871 -7504.6303 299.6914 -695.7361 -636.4126 30196.6028 -254.6162 -193.4217
ENERGY: 900000 0.3015 7.8388 6.0320 0.0000 -10688.9432 1441.8883 0.0000 0.0000 1757.2890 -7475.5936 299.0053 -9232.8826 -7486.9357 299.9637 113.2796 117.4450 30227.6812 -94.5190 -41.2716
ENERGY: 1200000 1.2842 8.9279 2.6247 0.0000 -10620.4736 1416.8584 0.0000 0.0000 1860.7220 -7330.0564 316.6045 -9190.7784 -7476.8139 301.0563 34.6078 125.0297 30144.1562 -154.8560 -99.7507
ENERGY: 1500000 0.6091 4.6627 2.0837 0.0000 -10588.0886 1359.8608 0.0000 0.0000 1717.7115 -7503.1608 292.2711 -9220.8722 -7478.7014 300.7232 -532.8200 -465.3634 30303.0839 -202.1581 -149.5528
TCL: Running FEP window   6: Lambda1 0.25   Lambda2 0.3    [dLambda 0.04999999999999999]
TCL: Setting parameter firsttimestep to 0
TCL: Setting parameter alchLambda to 0.25
Info: NONBONDED TABLE R-SQUARED SPACING: 0.0625
Info: NONBONDED TABLE SIZE: 705 POINTS
TCL: Setting parameter alchLambda2 to 0.3
Info: NONBONDED TABLE R-SQUARED SPACING: 0.0625
Info: NONBONDED TABLE SIZE: 705 POINTS
TCL: Running for 1500000 steps
ETITLE: TS BOND ANGLE DIHED IMPRP ELECT VDW BOUNDARY MISC KINETIC TOTAL TEMP POTENTIAL TOTALAVG TEMPAVG PRESSURE GPRESSURE VOLUME PRESSAVG GPRESSAVG
ENERGY: 0 0.6091 4.6627 2.0837 0.0000 -10588.0878 1359.8245 0.0000 0.0000 1716.8513 -7504.0565 292.1247 -9220.9078 -7504.0565 292.1247 -563.1904 -463.0646 30303.0839 -563.1904 -463.0646
ENERGY: 300000 0.2736 4.7160 3.3781 0.0000 -10700.3103 1484.3738 0.0000 0.0000 1774.0917 -7433.4772 301.8643 -9207.5688 -7486.1608 297.1992 519.1016 658.3433 30486.2272 87.5461 173.2533
ENERGY: 600000 1.7926 3.3206 2.5369 0.0000 -10685.7482 1433.9471 0.0000 0.0000 1782.8375 -7461.3136 303.3524 -9244.1511 -7480.0471 297.7435 -297.1083 -228.4421 30824.7520 150.4196 233.8335
ENERGY: 900000 1.1562 3.8038 2.4429 0.0000 -10689.0479 1473.5659 0.0000 0.0000 1713.4090 -7494.6701 291.5390 -9208.0791 -7479.2563 298.3858 57.9454 132.7230 30827.8023 177.5340 249.5443
ENERGY: 1200000 3.2663 6.6673 1.7443 0.0000 -10587.1091 1363.3481 0.0000 0.0000 1739.3368 -7472.7463 295.9507 -9212.0831 -7484.2583 298.9570 -568.1423 -551.0286 30418.2011 37.3073 116.6171
ENERGY: 1500000 2.4968 9.9525 3.7551 0.0000 -10762.0349 1498.4461 0.0000 0.0000 1793.7415 -7453.6429 305.2077 -9247.3844 -7480.9671 299.0377 474.4800 486.7986 30368.9473 52.8597 123.6448
TCL: Running FEP window   7: Lambda1 0.3    Lambda2 0.35   [dLambda 0.04999999999999999]
TCL: Setting parameter firsttimestep to 0
TCL: Setting parameter alchLambda to 0.3
Info: NONBONDED TABLE R-SQUARED SPACING: 0.0625
Info: NONBONDED TABLE SIZE: 705 POINTS
TCL: Setting parameter alchLambda2 to 0.35
Info: NONBONDED TABLE R-SQUARED SPACING: 0.0625
Info: NONBONDED TABLE SIZE: 705 POINTS
TCL: Running for 1500000 steps
ETITLE: TS BOND ANGLE DIHED IMPRP ELECT VDW BOUNDARY MISC KINETIC TOTAL TEMP POTENTIAL TOTALAVG TEMPAVG PRESSURE GPRESSURE VOLUME PRESSAVG GPRESSAVG
ENERGY: 0 2.4968 9.9525 3.7551 0.0000 -10762.0341 1498.2375 0.0000 0.0000 1792.8590 -7454.7332 305.0575 -9247.5922 -7454.7332 305.0575 389.7297 487.1060 30368.9473 389.7297 487.1060
ENERGY: 300000 4.1713 4.2589 1.8811 0.0000 -10746.1805 1501.3802 0.0000 0.0000 1777.7428 -7456.7462 302.4855 -9234.4890 -7490.3987 301.8543 481.6626 520.0691 30236.9011 300.6909 362.5920
ENERGY: 600000 0.9457 3.0283 2.0098 0.0000 -10576.8415 1387.0785 0.0000 0.0000 1783.2077 -7400.5716 303.4154 -9183.7792 -7475.6105 300.7801 -296.7837 -242.7859 30833.2647 29.5126 86.2402
ENERGY: 900000 1.8148 5.9347 1.4509 0.0000 -10818.2956 1505.2351 0.0000 0.0000 1754.1664 -7549.6937 298.4739 -9303.8601 -7481.3831 301.1753 294.7636 373.7647 30178.3644 68.6910 120.3063
ENERGY: 1200000 1.9553 7.0865 4.3751 0.0000 -10672.7903 1427.8577 0.0000 0.0000 1780.8631 -7450.6526 303.0164 -9231.5158 -7473.9485 301.3909 -239.7635 -143.7313 30350.3287 -30.1280 29.9101
ENERGY: 1500000 1.2621 6.2322 5.5686 0.0000 -10629.3159 1372.3111 0.0000 0.0000 1795.0401 -7448.9017 305.4287 -9243.9418 -7479.5320 301.4175 -695.6601 -592.9645 30290.9568 -60.3248 3.5729
TCL: Running FEP window   8: Lambda1 0.35   Lambda2 0.39999999999999997 [dLambda 0.04999999999999999]
TCL: Setting parameter firsttimestep to 0
TCL: Setting parameter alchLambda to 0.35
Info: NONBONDED TABLE R-SQUARED SPACING: 0.0625
Info: NONBONDED TABLE SIZE: 705 POINTS
TCL: Setting parameter alchLambda2 to 0.39999999999999997
Info: NONBONDED TABLE R-SQUARED SPACING: 0.0625
Info: NONBONDED TABLE SIZE: 705 POINTS
TCL: Running for 1500000 steps
ETITLE: TS BOND ANGLE DIHED IMPRP ELECT VDW BOUNDARY MISC KINETIC TOTAL TEMP POTENTIAL TOTALAVG TEMPAVG PRESSURE GPRESSURE VOLUME PRESSAVG GPRESSAVG
ENERGY: 0 1.2621 6.2322 5.5686 0.0000 -10629.3159 1372.1534 0.0000 0.0000 1794.1739 -7449.9257 305.2813 -9244.0995 -7449.9257 305.2813 -692.2222 -591.9652 30290.9568 -692.2222 -591.9652
ENERGY: 300000 0.8813 9.2771 1.8053 0.0000 -10656.7337 1381.3760 0.0000 0.0000 1758.1510 -7505.2430 299.1519 -9263.3941 -7475.6388 301.6384 -685.0610 -616.1929 30663.2427 -235.2898 -188.5349
ENERGY: 600000 1.1312 4.1536 1.6734 0.0000 -10850.1946 1561.9561 0.0000 0.0000 1794.2596 -7487.0206 305.2959 -9281.2802 -7505.2608 300.3076 967.6197 1084.5719 29654.4126 -95.3898 -40.8059
ENERGY: 900000 1.0965 10.1857 3.5271 0.0000 -10752.9556 1449.3029 0.0000 0.0000 1771.4043 -7517.4391 301.4070 -9288.8434 -7502.8700 299.3041 -284.0126 -224.0413 30823.6142 -68.6235 -13.2627
ENERGY: 1200000 1.5208 5.5056 1.8882 0.0000 -10766.5011 1456.2516 0.0000 0.0000 1810.7108 -7490.6242 308.0950 -9301.3349 -7501.1932 300.4874 -61.6086 16.7381 30382.2291 -98.2605 -45.7268
ENERGY: 1500000 0.8246 5.3983 1.7449 0.0000 -10488.3504 1366.1586 0.0000 0.0000 1820.3656 -7293.8585 309.7378 -9114.2241 -7488.8935 301.3480 -117.6534 -90.1409 30753.6599 -121.8638 -71.6313
TCL: Running FEP window   9: Lambda1 0.39999999999999997 Lambda2 0.44999999999999996 [dLambda 0.04999999999999999]
TCL: Setting parameter firsttimestep to 0
TCL: Setting parameter alchLambda to 0.39999999999999997
Info: NONBONDED TABLE R-SQUARED SPACING: 0.0625
Info: NONBONDED TABLE SIZE: 705 POINTS
TCL: Setting parameter alchLambda2 to 0.44999999999999996
Info: NONBONDED TABLE R-SQUARED SPACING: 0.0625
Info: NONBONDED TABLE SIZE: 705 POINTS
TCL: Running for 1500000 steps
ETITLE: TS BOND ANGLE DIHED IMPRP ELECT VDW BOUNDARY MISC KINETIC TOTAL TEMP POTENTIAL TOTALAVG TEMPAVG PRESSURE GPRESSURE VOLUME PRESSAVG GPRESSAVG
ENERGY: 0 0.8246 5.3983 1.7449 0.0000 -10488.3501 1366.4804 0.0000 0.0000 1819.4940 -7294.4079 309.5895 -9113.9019 -7294.4079 309.5895 -153.3226 -82.8647 30753.6599 -153.3226 -82.8647
ENERGY: 300000 3.1915 7.6010 1.4431 0.0000 -10663.9577 1359.1877 0.0000 0.0000 1789.1618 -7503.3726 304.4285 -9292.5343 -7471.1888 298.6953 -525.6853 -530.3267 30034.7130 -171.6322 -124.3607
ENERGY: 600000 0.4090 4.2352 4.5116 0.0000 -10640.3480 1356.2976 0.0000 0.0000 1776.6858 -7498.2088 302.3057 -9274.8946 -7485.4194 299.0498 -836.8303 -807.7274 30741.6729 -293.5548 -246.2931
ENERGY: 900000 0.6196 5.9837 1.6493 0.0000 -10816.1676 1556.3534 0.0000 0.0000 1708.6367 -7542.9250 290.7270 -9251.5617 -7502.2531 298.4104 791.7290 764.2748 30669.7216 -78.1584 -35.2163
ENERGY: 1200000 1.7366 8.3087 3.0822 0.0000 -10693.9553 1431.1325 0.0000 0.0000 1770.7142 -7478.9811 301.2896 -9249.6953 -7492.2231 299.4561 -21.9276 50.2983 29955.2492 -126.0903 -75.0176
ENERGY: 1500000 1.1745 3.5634 4.9315 0.0000 -10651.4692 1379.2413 0.0000 0.0000 1747.5228 -7515.0357 297.3435 -9262.5585 -7493.0619 299.8439 -617.6273 -555.5574 30234.2568 -157.2504 -100.5155
TCL: Running FEP window  10: Lambda1 0.44999999999999996 Lambda2 0.49999999999999994 [dLambda 0.04999999999999999]
TCL: Setting parameter firsttimestep to 0
TCL: Setting parameter alchLambda to 0.44999999999999996
Info: NONBONDED TABLE R-SQUARED SPACING: 0.0625
Info: NONBONDED TABLE SIZE: 705 POINTS
TCL: Setting parameter alchLambda2 to 0.49999999999999994
Info: NONBONDED TABLE R-SQUARED SPACING: 0.0625
Info: NONBONDED TABLE SIZE: 705 POINTS
TCL: Running for 1500000 steps
ETITLE: TS BOND ANGLE DIHED IMPRP ELECT VDW BOUNDARY MISC KINETIC TOTAL TEMP POTENTIAL TOTALAVG TEMPAVG PRESSURE GPRESSURE VOLUME PRESSAVG GPRESSAVG
ENERGY: 0 1.1745 3.5634 4.9315 0.0000 -10651.4698 1378.9890 0.0000 0.0000 1746.6844 -7516.1269 297.2009 -9262.8113 -7516.1269 297.2009 -642.1939 -552.3646 30234.2568 -642.1939 -552.3646
ENERGY: 300000 0.7375 5.8116 4.0309 0.0000 -10628.4134 1387.2865 0.0000 0.0000 1762.4091 -7468.1378 299.8764 -9230.5469 -7466.1455 301.2701 -706.3006 -625.3218 30802.2455 -244.0477 -190.4430
ENERGY: 600000 0.7740 7.6375 2.3692 0.0000 -10598.4053 1323.2118 0.0000 0.0000 1723.0795 -7541.3333 293.1845 -9264.4127 -7500.3119 298.7051 -964.1142 -969.6556 30591.9939 -312.4420 -269.0082
ENERGY: 900000 0.9024 6.9148 1.4768 0.0000 -10618.2859 1396.6495 0.0000 0.0000 1781.1864 -7431.1560 303.0714 -9212.3424 -7485.1143 299.0998 -450.8705 -398.2947 30684.1533 -252.7116 -213.6766
ENERGY: 1200000 1.6900 9.2722 4.2728 0.0000 -10705.1157 1423.2248 0.0000 0.0000 1785.1038 -7481.5521 303.7380 -9266.6559 -7496.2579 298.3362 -381.1381 -317.1994 30566.4903 -241.5509 -199.4484
ENERGY: 1500000 1.0716 3.7513 3.3117 0.0000 -10628.2907 1426.9887 0.0000 0.0000 1738.0466 -7455.1208 295.7311 -9193.1674 -7498.9738 298.1018 285.4413 329.0357 30007.8771 -186.7215 -137.8030
TCL: Running FEP window  11: Lambda1 0.49999999999999994 Lambda2 0.5499999999999999 [dLambda 0.04999999999999999]
TCL: Setting parameter firsttimestep to 0
TCL: Setting parameter alchLambda to 0.49999999999999994
Info: NONBONDED TABLE R-SQUARED SPACING: 0.0625
Info: NONBONDED TABLE SIZE: 705 POINTS
TCL: Setting parameter alchLambda2 to 0.5499999999999999
Info: NONBONDED TABLE R-SQUARED SPACING: 0.0625
Info: NONBONDED TABLE SIZE: 705 POINTS
TCL: Running for 1500000 steps
ETITLE: TS BOND ANGLE DIHED IMPRP ELECT VDW BOUNDARY MISC KINETIC TOTAL TEMP POTENTIAL TOTALAVG TEMPAVG PRESSURE GPRESSURE VOLUME PRESSAVG GPRESSAVG
ENERGY: 0 1.0716 3.7513 3.3117 0.0000 -10628.2915 1427.3685 0.0000 0.0000 1737.1544 -7455.6340 295.5793 -9192.7884 -7455.6340 295.5793 245.8594 332.8229 30007.8771 245.8594 332.8229
ENERGY: 300000 1.8052 8.2293 1.6380 0.0000 -10628.5417 1423.7045 0.0000 0.0000 1757.9857 -7435.1790 299.1238 -9193.1646 -7454.3616 299.3356 -147.5033 -48.9650 30437.7282 -149.6179 -83.7057
ENERGY: 600000 1.5043 11.8601 1.4518 0.0000 -10767.4842 1441.4036 0.0000 0.0000 1792.6091 -7518.6553 305.0150 -9311.2644 -7462.2870 300.6372 -47.9051 -25.0944 30316.3373 -38.6346 -0.7381
ENERGY: 900000 0.9414 4.9725 4.5077 0.0000 -10741.6944 1488.3283 0.0000 0.0000 1779.6779 -7463.2666 302.8148 -9242.9445 -7473.7970 299.5370 265.8122 298.0854 30731.7743 97.6723 134.4910
ENERGY: 1200000 3.2792 3.2399 3.5281 0.0000 -10760.8211 1478.0520 0.0000 0.0000 1746.5542 -7526.1676 297.1787 -9272.7218 -7474.0395 299.9802 67.5813 149.8098 30350.8871 185.7263 225.1966
ENERGY: 1500000 0.5341 5.2534 1.7378 0.0000 -10773.9075 1479.2417 0.0000 0.0000 1742.4045 -7544.7360 296.4726 -9287.1405 -7473.6010 299.9323 141.0598 270.1368 30324.0566 65.0872 116.5803
TCL: Running FEP window  12: Lambda1 0.5499999999999999 Lambda2 0.6    [dLambda 0.050000000000000044]
TCL: Setting parameter firsttimestep to 0
TCL: Setting parameter alchLambda to 0.5499999999999999
Info: NONBONDED TABLE R-SQUARED SPACING: 0.0625
Info: NONBONDED TABLE SIZE: 705 POINTS
TCL: Setting parameter alchLambda2 to 0.6
Info: NONBONDED TABLE R-SQUARED SPACING: 0.0625
Info: NONBONDED TABLE SIZE: 705 POINTS
TCL: Running for 1500000 steps
ETITLE: TS BOND ANGLE DIHED IMPRP ELECT VDW BOUNDARY MISC KINETIC TOTAL TEMP POTENTIAL TOTALAVG TEMPAVG PRESSURE GPRESSURE VOLUME PRESSAVG GPRESSAVG
ENERGY: 0 0.5341 5.2534 1.7378 0.0000 -10773.8655 1479.4747 0.0000 0.0000 1741.5190 -7545.3465 296.3220 -9286.8655 -7545.3465 296.3220 183.1440 277.3602 30324.0566 183.1440 277.3602
ENERGY: 300000 1.7820 4.0906 3.7009 0.0000 -10758.7681 1442.2544 0.0000 0.0000 1747.2849 -7559.6552 297.3031 -9306.9402 -7530.9036 297.1570 -9.7694 12.3542 30002.8923 -137.3374 -76.4674
ENERGY: 600000 1.5370 7.4248 1.5395 0.0000 -10510.3333 1278.5203 0.0000 0.0000 1774.4788 -7446.8330 301.9301 -9221.3118 -7531.1904 296.8541 -1506.1293 -1387.1620 31455.8809 -486.5688 -417.3643
ENERGY: 900000 0.0578 6.9348 3.1154 0.0000 -10686.7286 1384.0254 0.0000 0.0000 1817.1107 -7475.4845 309.1840 -9292.5952 -7513.2333 299.0028 -424.3396 -343.9635 30140.0401 -350.7921 -283.1435
ENERGY: 1200000 0.4306 8.2459 1.9057 0.0000 -10700.4251 1471.8781 0.0000 0.0000 1756.6262 -7461.3386 298.8925 -9217.9648 -7514.6334 298.0536 294.4059 436.7744 30194.7046 -327.5300 -255.4205
ENERGY: 1500000 2.2442 5.4625 2.2308 0.0000 -10549.0717 1320.7441 0.0000 0.0000 1786.3677 -7432.0224 303.9530 -9218.3901 -7502.3595 298.5677 -870.8930 -839.7960 30424.4893 -300.1035 -234.2093
TCL: Running FEP window  13: Lambda1 0.6    Lambda2 0.65   [dLambda 0.050000000000000044]
TCL: Setting parameter firsttimestep to 0
TCL: Setting parameter alchLambda to 0.6
Info: NONBONDED TABLE R-SQUARED SPACING: 0.0625
Info: NONBONDED TABLE SIZE: 705 POINTS
TCL: Setting parameter alchLambda2 to 0.65
Info: NONBONDED TABLE R-SQUARED SPACING: 0.0625
Info: NONBONDED TABLE SIZE: 705 POINTS
TCL: Running for 1500000 steps
ETITLE: TS BOND ANGLE DIHED IMPRP ELECT VDW BOUNDARY MISC KINETIC TOTAL TEMP POTENTIAL TOTALAVG TEMPAVG PRESSURE GPRESSURE VOLUME PRESSAVG GPRESSAVG
ENERGY: 0 2.2442 5.4625 2.2309 0.0000 -10549.1008 1320.6749 0.0000 0.0000 1785.5154 -7432.9729 303.8080 -9218.4883 -7432.9729 303.8080 -918.0483 -836.0663 30424.4893 -918.0483 -836.0663
ENERGY: 300000 1.9680 4.3035 2.0742 0.0000 -10685.7555 1389.8962 0.0000 0.0000 1745.4584 -7542.0552 296.9923 -9287.5136 -7460.6029 299.0846 -375.2704 -311.0037 30082.8372 -292.3313 -220.5111
ENERGY: 600000 3.2397 7.3586 2.2735 0.0000 -10795.1670 1482.7658 0.0000 0.0000 1767.6522 -7531.8771 300.7686 -9299.5293 -7463.0321 299.9371 -22.3423 -40.6251 30629.4920 -306.9380 -254.7045
ENERGY: 900000 1.5543 7.3576 2.9240 0.0000 -10886.3613 1511.1750 0.0000 0.0000 1755.8751 -7607.4753 298.7647 -9363.3504 -7479.1346 300.1067 313.1980 407.6794 30049.0356 -329.1913 -266.8414
ENERGY: 1200000 1.1599 5.7066 2.2241 0.0000 -10757.0204 1469.5599 0.0000 0.0000 1789.1444 -7489.2255 304.4255 -9278.3698 -7475.2186 301.5890 182.8804 257.2695 30236.8311 -356.6661 -294.8612
ENERGY: 1500000 3.2576 6.9811 2.6250 0.0000 -10637.7239 1390.9847 0.0000 0.0000 1766.0768 -7467.7987 300.5005 -9233.8755 -7481.4383 300.8908 -293.4240 -270.0431 30227.3600 -336.1484 -273.8069
TCL: Running FEP window  14: Lambda1 0.65   Lambda2 0.7000000000000001 [dLambda 0.050000000000000044]
TCL: Setting parameter firsttimestep to 0
TCL: Setting parameter alchLambda to 0.65
Info: NONBONDED TABLE R-SQUARED SPACING: 0.0625
Info: NONBONDED TABLE SIZE: 705 POINTS
TCL: Setting parameter alchLambda2 to 0.7000000000000001
Info: NONBONDED TABLE R-SQUARED SPACING: 0.0625
Info: NONBONDED TABLE SIZE: 705 POINTS
TCL: Running for 1500000 steps
ETITLE: TS BOND ANGLE DIHED IMPRP ELECT VDW BOUNDARY MISC KINETIC TOTAL TEMP POTENTIAL TOTALAVG TEMPAVG PRESSURE GPRESSURE VOLUME PRESSAVG GPRESSAVG
ENERGY: 0 3.2576 6.9811 2.6250 0.0000 -10637.6882 1390.7928 0.0000 0.0000 1765.2245 -7468.8073 300.3555 -9234.0318 -7468.8073 300.3555 -350.4365 -265.3586 30227.3600 -350.4365 -265.3586
ENERGY: 300000 0.6455 6.3451 1.4879 0.0000 -10773.3849 1430.4270 0.0000 0.0000 1708.6130 -7625.8664 290.7230 -9334.4794 -7492.6546 299.5267 -185.9800 -111.5731 30180.7913 -349.8724 -296.3287
ENERGY: 600000 1.0165 5.2539 3.4223 0.0000 -10740.6100 1486.8696 0.0000 0.0000 1746.6801 -7497.3675 297.2001 -9244.0476 -7507.9307 298.7726 466.7761 547.7237 30238.5458 15.1114 72.5637
ENERGY: 900000 1.4362 8.9239 2.4470 0.0000 -10627.4093 1396.0772 0.0000 0.0000 1723.2602 -7495.2648 293.2152 -9218.5250 -7511.0703 298.2513 -435.2191 -352.1957 30655.8278 -157.3720 -95.5671
ENERGY: 1200000 0.9365 6.2635 1.6559 0.0000 -10678.6696 1426.4928 0.0000 0.0000 1785.0429 -7458.2780 303.7276 -9243.3210 -7510.5866 298.8895 -147.2709 -29.3400 30371.0738 -117.6436 -47.6353
ENERGY: 1500000 3.1744 5.0169 2.1307 0.0000 -10692.3092 1413.3538 0.0000 0.0000 1769.9720 -7498.6615 301.1633 -9268.6334 -7496.2611 299.2945 -536.1246 -467.9706 30745.2855 -157.6375 -87.7147
TCL: Running FEP window  15: Lambda1 0.7000000000000001 Lambda2 0.7500000000000001 [dLambda 0.050000000000000044]
TCL: Setting parameter firsttimestep to 0
TCL: Setting parameter alchLambda to 0.7000000000000001
Info: NONBONDED TABLE R-SQUARED SPACING: 0.0625
Info: NONBONDED TABLE SIZE: 705 POINTS
TCL: Setting parameter alchLambda2 to 0.7500000000000001
Info: NONBONDED TABLE R-SQUARED SPACING: 0.0625
Info: NONBONDED TABLE SIZE: 705 POINTS
TCL: Running for 1500000 steps
ETITLE: TS BOND ANGLE DIHED IMPRP ELECT VDW BOUNDARY MISC KINETIC TOTAL TEMP POTENTIAL TOTALAVG TEMPAVG PRESSURE GPRESSURE VOLUME PRESSAVG GPRESSAVG
ENERGY: 0 3.1744 5.0169 2.1307 0.0000 -10692.5251 1413.9788 0.0000 0.0000 1769.0669 -7499.1573 301.0093 -9268.2242 -7499.1573 301.0093 -536.8571 -454.6095 30745.2855 -536.8571 -454.6095
ENERGY: 300000 3.0163 7.7932 4.2525 0.0000 -10761.9606 1486.2223 0.0000 0.0000 1797.8208 -7462.8556 305.9018 -9260.6764 -7460.2406 301.6197 342.7926 362.7011 30477.4972 50.8720 92.8794
ENERGY: 600000 1.6100 3.7290 1.2029 0.0000 -10839.5967 1518.9220 0.0000 0.0000 1791.7971 -7522.3357 304.8769 -9314.1328 -7472.8016 302.7172 277.4029 315.3375 30720.7488 -53.6745 -14.1025
ENERGY: 900000 1.5766 8.0564 1.5624 0.0000 -10700.4326 1437.4598 0.0000 0.0000 1826.2855 -7425.4918 310.7451 -9251.7773 -7478.3979 301.7695 -219.4086 -161.6302 30686.2927 6.6078 58.3858
ENERGY: 1200000 0.3802 8.0999 1.5521 0.0000 -10721.3519 1449.1999 0.0000 0.0000 1751.8254 -7510.2944 298.0756 -9262.1197 -7468.2106 301.9261 182.4016 183.5668 30207.5841 59.6580 110.7022
ENERGY: 1500000 0.4047 8.6952 3.0094 0.0000 -10665.1817 1373.8033 0.0000 0.0000 1768.3855 -7510.8836 300.8933 -9279.2691 -7463.7065 301.9561 -712.0784 -601.5247 30477.2301 0.6636 59.7316
TCL: Running FEP window  16: Lambda1 0.7500000000000001 Lambda2 0.8000000000000002 [dLambda 0.050000000000000044]
TCL: Setting parameter firsttimestep to 0
TCL: Setting parameter alchLambda to 0.7500000000000001
Info: NONBONDED TABLE R-SQUARED SPACING: 0.0625
Info: NONBONDED TABLE SIZE: 705 POINTS
TCL: Setting parameter alchLambda2 to 0.8000000000000002
Info: NONBONDED TABLE R-SQUARED SPACING: 0.0625
Info: NONBONDED TABLE SIZE: 705 POINTS
TCL: Running for 1500000 steps
ETITLE: TS BOND ANGLE DIHED IMPRP ELECT VDW BOUNDARY MISC KINETIC TOTAL TEMP POTENTIAL TOTALAVG TEMPAVG PRESSURE GPRESSURE VOLUME PRESSAVG GPRESSAVG
ENERGY: 0 0.4047 8.6952 3.0094 0.0000 -10665.2190 1373.5410 0.0000 0.0000 1767.5046 -7512.0640 300.7435 -9279.5687 -7512.0640 300.7435 -678.1194 -599.3369 30477.2301 -678.1194 -599.3369
ENERGY: 300000 2.5431 2.9812 2.5054 0.0000 -10716.7926 1427.0242 0.0000 0.0000 1773.8301 -7507.9085 301.8197 -9281.7386 -7532.7281 297.8497 -105.7658 -20.3573 30305.9600 -72.6337 -21.5026
ENERGY: 600000 2.0292 7.1454 1.0621 0.0000 -10765.8065 1434.3942 0.0000 0.0000 1812.5821 -7508.5935 308.4135 -9321.1756 -7520.3279 299.7861 -169.1301 -91.1927 29994.4993 -179.4432 -117.0772
ENERGY: 900000 1.7329 5.3178 1.4493 0.0000 -10762.4729 1494.3296 0.0000 0.0000 1801.3751 -7458.2681 306.5066 -9259.6432 -7510.3775 300.8998 357.0203 382.8557 30467.7340 -69.6557 -12.0045
ENERGY: 1200000 2.9891 5.2428 2.4592 0.0000 -10708.4252 1470.5604 0.0000 0.0000 1752.8412 -7474.3325 298.2485 -9227.1737 -7498.4582 300.7619 546.2205 590.9113 30163.9842 33.6211 93.5895
ENERGY: 1500000 3.3392 5.0726 0.9672 0.0000 -10695.2212 1394.7737 0.0000 0.0000 1781.0337 -7510.0348 303.0454 -9291.0684 -7501.1318 300.5453 -502.9447 -431.2538 30365.4133 -77.5633 -22.3722
TCL: Running FEP window  17: Lambda1 0.8000000000000002 Lambda2 0.8500000000000002 [dLambda 0.050000000000000044]
TCL: Setting parameter firsttimestep to 0
TCL: Setting parameter alchLambda to 0.8000000000000002
Info: NONBONDED TABLE R-SQUARED SPACING: 0.0625
Info: NONBONDED TABLE SIZE: 705 POINTS
TCL: Setting parameter alchLambda2 to 0.8500000000000002
Info: NONBONDED TABLE R-SQUARED SPACING: 0.0625
Info: NONBONDED TABLE SIZE: 705 POINTS
TCL: Running for 1500000 steps
ETITLE: TS BOND ANGLE DIHED IMPRP ELECT VDW BOUNDARY MISC KINETIC TOTAL TEMP POTENTIAL TOTALAVG TEMPAVG PRESSURE GPRESSURE VOLUME PRESSAVG GPRESSAVG
ENERGY: 0 3.3392 5.0726 0.9672 0.0000 -10695.2023 1395.9031 0.0000 0.0000 1780.1184 -7509.8018 302.8897 -9289.9202 -7509.8018 302.8897 -482.6990 -405.3175 30365.4133 -482.6990 -405.3175
ENERGY: 300000 0.7272 5.3394 1.9273 0.0000 -10774.3668 1472.3387 0.0000 0.0000 1739.5595 -7554.4746 295.9886 -9294.0341 -7517.3815 299.7066 448.4774 481.7794 30082.3598 109.8586 165.7589
ENERGY: 600000 1.7321 6.4674 0.9373 0.0000 -10772.3632 1515.7516 0.0000 0.0000 1789.5060 -7457.9689 304.4870 -9247.4748 -7503.6984 299.9328 360.4462 411.6567 30866.5418 79.5040 135.1615
ENERGY: 900000 1.4519 5.8179 2.5426 0.0000 -10577.2924 1322.6043 0.0000 0.0000 1761.9284 -7482.9473 299.7947 -9244.8757 -7496.5932 300.5854 -834.1664 -797.9886 30570.6919 -108.1439 -52.4751
ENERGY: 1200000 0.9797 9.5222 2.2113 0.0000 -10611.8409 1369.4802 0.0000 0.0000 1725.6416 -7504.0060 293.6204 -9229.6476 -7495.2364 300.7958 -354.6322 -288.1408 30489.4531 -35.4190 22.1127
ENERGY: 1500000 0.7347 4.8322 1.2161 0.0000 -10851.4965 1502.5976 0.0000 0.0000 1767.3644 -7574.7516 300.7196 -9342.1160 -7503.6673 300.6367 136.7888 225.9789 30266.6844 -50.8662 9.1636
TCL: Running FEP window  18: Lambda1 0.8500000000000002 Lambda2 0.9000000000000002 [dLambda 0.050000000000000044]
TCL: Setting parameter firsttimestep to 0
TCL: Setting parameter alchLambda to 0.8500000000000002
Info: NONBONDED TABLE R-SQUARED SPACING: 0.0625
Info: NONBONDED TABLE SIZE: 705 POINTS
TCL: Setting parameter alchLambda2 to 0.9000000000000002
Info: NONBONDED TABLE R-SQUARED SPACING: 0.0625
Info: NONBONDED TABLE SIZE: 705 POINTS
TCL: Running for 1500000 steps
ETITLE: TS BOND ANGLE DIHED IMPRP ELECT VDW BOUNDARY MISC KINETIC TOTAL TEMP POTENTIAL TOTALAVG TEMPAVG PRESSURE GPRESSURE VOLUME PRESSAVG GPRESSAVG
ENERGY: 0 0.7347 4.8322 1.2161 0.0000 -10851.5732 1502.4676 0.0000 0.0000 1766.4848 -7575.8378 300.5699 -9342.3226 -7575.8378 300.5699 155.5659 234.7560 30266.6844 155.5659 234.7560
ENERGY: 300000 0.5142 3.9648 1.2093 0.0000 -10588.1324 1342.6340 0.0000 0.0000 1780.3035 -7459.5066 302.9212 -9239.8101 -7491.0175 302.5948 -787.4816 -729.3150 30611.4278 -314.3416 -251.4112
ENERGY: 600000 1.3984 4.2617 2.2848 0.0000 -10824.9891 1496.6836 0.0000 0.0000 1773.0389 -7547.3219 301.6851 -9320.3607 -7505.9466 302.4818 329.6484 425.5490 30021.8515 -266.3084 -208.9647
ENERGY: 900000 3.1995 5.4025 1.5350 0.0000 -10747.0466 1406.2113 0.0000 0.0000 1796.1350 -7534.5633 305.6150 -9330.6984 -7521.6125 300.7100 -430.3494 -316.5260 30230.9744 -336.0481 -280.0058
ENERGY: 1200000 0.6531 6.2138 2.4822 0.0000 -10783.7192 1529.7012 0.0000 0.0000 1744.6366 -7500.0323 296.8524 -9244.6689 -7522.6076 300.5286 841.4103 867.0009 30113.8749 -165.2241 -110.4596
ENERGY: 1500000 2.0076 7.2086 2.9742 0.0000 -10698.9022 1425.3935 0.0000 0.0000 1776.3129 -7485.0053 302.2422 -9261.3183 -7518.1285 300.7817 -225.6426 -161.8415 30362.6078 -121.5817 -56.4785
TCL: Running FEP window  19: Lambda1 0.9000000000000002 Lambda2 0.9500000000000003 [dLambda 0.050000000000000044]
TCL: Setting parameter firsttimestep to 0
TCL: Setting parameter alchLambda to 0.9000000000000002
Info: NONBONDED TABLE R-SQUARED SPACING: 0.0625
Info: NONBONDED TABLE SIZE: 705 POINTS
TCL: Setting parameter alchLambda2 to 0.9500000000000003
Info: NONBONDED TABLE R-SQUARED SPACING: 0.0625
Info: NONBONDED TABLE SIZE: 705 POINTS
TCL: Running for 1500000 steps
ETITLE: TS BOND ANGLE DIHED IMPRP ELECT VDW BOUNDARY MISC KINETIC TOTAL TEMP POTENTIAL TOTALAVG TEMPAVG PRESSURE GPRESSURE VOLUME PRESSAVG GPRESSAVG
ENERGY: 0 2.0076 7.2086 2.9742 0.0000 -10698.8582 1426.5889 0.0000 0.0000 1775.4317 -7484.6471 302.0923 -9260.0788 -7484.6471 302.0923 -202.6279 -137.9015 30362.6078 -202.6279 -137.9015
ENERGY: 300000 1.2749 2.8806 2.0643 0.0000 -10720.9650 1423.4576 0.0000 0.0000 1748.9358 -7542.3518 297.5840 -9291.2876 -7511.8981 300.7141 -136.9524 -72.9757 30433.2921 -81.6256 -21.2209
ENERGY: 600000 1.1903 5.3022 2.7537 0.0000 -10693.4581 1457.5840 0.0000 0.0000 1830.4498 -7396.1781 311.4537 -9226.6279 -7501.8508 302.1831 492.7240 648.0245 30003.1346 -50.2179 18.2280
ENERGY: 900000 0.8752 8.5453 1.3106 0.0000 -10588.1976 1309.5848 0.0000 0.0000 1768.0600 -7499.8216 300.8380 -9267.8816 -7497.5841 302.2543 -1236.1911 -1139.1130 30655.2485 -129.8896 -58.4680
ENERGY: 1200000 0.3230 5.2885 1.4530 0.0000 -10763.6912 1440.4770 0.0000 0.0000 1809.3442 -7506.8055 307.8625 -9316.1497 -7504.7516 301.9912 -175.6674 -91.7007 30485.8578 -173.0458 -95.0146
ENERGY: 1500000 0.6400 10.5972 3.7374 0.0000 -10778.8287 1488.8054 0.0000 0.0000 1762.5386 -7512.5101 299.8985 -9275.0488 -7502.5717 302.1023 339.2646 425.0952 30540.8003 -147.0502 -64.5377
TCL: Running FEP window  20: Lambda1 0.9500000000000003 Lambda2 1.0    [dLambda 0.04999999999999971]
TCL: Setting parameter firsttimestep to 0
TCL: Setting parameter alchLambda to 0.9500000000000003
Info: NONBONDED TABLE R-SQUARED SPACING: 0.0625
Info: NONBONDED TABLE SIZE: 705 POINTS
TCL: Setting parameter alchLambda2 to 1.0
Info: NONBONDED TABLE R-SQUARED SPACING: 0.0625
Info: NONBONDED TABLE SIZE: 705 POINTS
TCL: Running for 1500000 steps
ETITLE: TS BOND ANGLE DIHED IMPRP ELECT VDW BOUNDARY MISC KINETIC TOTAL TEMP POTENTIAL TOTALAVG TEMPAVG PRESSURE GPRESSURE VOLUME PRESSAVG GPRESSAVG
ENERGY: 0 0.6400 10.5972 3.7374 0.0000 -10778.8591 1488.7901 0.0000 0.0000 1761.6957 -7513.3987 299.7551 -9275.0944 -7513.3987 299.7551 356.5701 436.6950 30540.8003 356.5701 436.6950
ENERGY: 300000 0.5246 3.9561 3.8570 0.0000 -10839.3005 1548.8824 0.0000 0.0000 1733.6652 -7548.4152 294.9856 -9282.0804 -7512.4880 300.1439 1023.1912 1058.4683 30071.7650 327.1152 388.5320
ENERGY: 600000 0.1246 4.2383 1.9113 0.0000 -10626.0010 1392.5862 0.0000 0.0000 1744.2152 -7482.9255 296.7807 -9227.1407 -7515.3273 297.6481 -131.5941 -62.9678 30087.5974 88.6134 152.6002
ENERGY: 900000 0.4247 6.7519 2.0143 0.0000 -10678.9325 1480.0523 0.0000 0.0000 1757.0940 -7432.5953 298.9721 -9189.6893 -7502.8452 297.2995 335.5570 395.4322 30741.6710 141.2428 207.2010
ENERGY: 1200000 1.4673 4.3956 1.6740 0.0000 -10727.6831 1382.8301 0.0000 0.0000 1781.0209 -7556.2952 303.0433 -9337.3161 -7509.2561 297.4999 -452.7469 -461.1428 30457.2648 32.4288 94.8821
ENERGY: 1500000 1.1769 4.9272 2.5171 0.0000 -10735.6003 1461.0928 0.0000 0.0000 1764.6807 -7501.2056 300.2630 -9265.8863 -7493.4488 299.0043 188.9556 211.3009 30380.5661 109.5858 171.9383
TCL: Exiting due to exit command.
