Info: SIMULATION PARAMETERS:
Info: TIMESTEP               2
Info: NUMBER OF STEPS        0
Info: STEPS PER CYCLE        10
Info: PERIODIC CELL BASIS 1  31.8078 0 0
Info: PERIODIC CELL BASIS 2  0 31.2831 0
Info: PERIODIC CELL BASIS 3  0 0 30.6373
Info: PERIODIC CELL CENTER   0 0 0
Info: WRAPPING WATERS AROUND PERIODIC BOUNDARIES ON OUTPUT.
Info: WRAPPING ALL CLUSTERS AROUND PERIODIC BOUNDARIES ON OUTPUT.
Info: FIRST LDB TIMESTEP     50
Info: LAST LDB TIMESTEP     -1
Info: HOM BACKGROUND SCALING 1
Info: PME BACKGROUND SCALING 1
Info: MIN ATOMS PER PATCH    40
Info: EMPTY PATCH LOAD       40 ATOMS
Info: VELOCITY FILE          mobley_6929123_equil.vel
Info: CENTER OF MASS MOVING INITIALLY? NO
Info: DIELECTRIC             1
Info: EXCLUDE                SCALED ONE-FOUR
Info: 1-4 ELECTROSTATICS SCALED BY 0.833333
Info: MODIFIED 1-4 VDW PARAMETERS WILL BE USED
Info: DCD FILENAME           mobley_6929123_prod.dcd
Info: DCD FREQUENCY          100000
Info: DCD FIRST STEP         100000
Info: DCD FILE WILL CONTAIN UNIT CELL DATA
Info: XST FILENAME           mobley_6929123_prod.xst
Info: XST FREQUENCY          100000
Info: NO VELOCITY DCD OUTPUT
Info: NO FORCE DCD OUTPUT
Info: OUTPUT FILENAME        mobley_6929123_prod
Info: BINARY OUTPUT FILES WILL BE USED
Info: RESTART FILENAME       mobley_6929123_prod.restart
Info: RESTART FREQUENCY      100000
Info: BINARY RESTART FILES WILL BE USED
Info: CUTOFF                 9
Info: PAIRLIST DISTANCE      11
Info: PAIRLIST SHRINK RATE   0.01
Info: PAIRLIST GROW RATE     0.01
Info: PAIRLIST TRIGGER       0.3
Info: PAIRLISTS PER CYCLE    2
Info: PAIRLISTS ENABLED
Info: MARGIN                 2
Info: HYDROGEN GROUP CUTOFF  2.5
Info: PATCH DIMENSION        15.5
Info: ENERGY OUTPUT STEPS    100000
Info: ENERGY EVALUATION STEPS    100000
Info: OUTPUT ENERGY PRECISION 4
Info: CROSSTERM ENERGY INCLUDED IN DIHEDRAL
Info: TIMING OUTPUT STEPS    1000000
Info: PRESSURE OUTPUT STEPS  100000
Info: ALCHEMICAL FEP ON
Info: FEP CURRENT LAMBDA VALUE     1
Info: FEP COMPARISON LAMBDA VALUE  0.95
Info: FEP INTRA-ALCHEMICAL NON-BONDED INTERACTIONS WILL BE RETAINED
Info: FEP INTRA-ALCHEMICAL BONDED INTERACTIONS WILL BE RETAINED
Info: FEP VDW SHIFTING COEFFICIENT 5
Info: FEP ELEC. ACTIVE FOR ANNIHILATED PARTICLES BETWEEN LAMBDA = 0 AND LAMBDA = 0.5
Info: FEP ELEC. ACTIVE FOR EXNIHILATED PARTICLES BETWEEN LAMBDA = 0.5 AND LAMBDA = 1
Info: FEP VDW ACTIVE FOR ANNIHILATED PARTICLES BETWEEN LAMBDA = 0 AND LAMBDA = 1
Info: FEP VDW ACTIVE FOR EXNIHILATED PARTICLES BETWEEN LAMBDA = 0 AND LAMBDA = 1
Info: FEP BOND ACTIVE FOR ANNIHILATED PARTICLES BETWEEN LAMBDA = 1 AND LAMBDA = 1
Info: FEP BOND ACTIVE FOR EXNIHILATED PARTICLES BETWEEN LAMBDA = 0 AND LAMBDA = 0
Info: LANGEVIN DYNAMICS ACTIVE
Info: LANGEVIN TEMPERATURE   300
Info: LANGEVIN USING BBK INTEGRATOR
Info: LANGEVIN DAMPING COEFFICIENT IS 1 INVERSE PS
Info: LANGEVIN DYNAMICS APPLIED TO HYDROGENS
Info: LANGEVIN PISTON PRESSURE CONTROL ACTIVE
Info:        TARGET PRESSURE IS 1.01325 BAR
Info:     OSCILLATION PERIOD IS 50 FS
Info:             DECAY TIME IS 25 FS
Info:     PISTON TEMPERATURE IS 300 K
Info:       PRESSURE CONTROL IS GROUP-BASED
Info:    INITIAL STRAIN RATE IS 0.000562286 0.000562286 0.000562286
Info:       CELL FLUCTUATION IS ISOTROPIC
Info: PARTICLE MESH EWALD (PME) ACTIVE
Info: PME TOLERANCE               1e-06
Info: PME EWALD COEFFICIENT       0.348832
Info: PME INTERPOLATION ORDER     4
Info: PME GRID DIMENSIONS         32 32 32
Info: PME MAXIMUM GRID SPACING    1
Info: PME CALCULATION WILL BE PERFORMED ON GPU
Info: FULL ELECTROSTATIC EVALUATION FREQUENCY      2
Info: USING VERLET I (r-RESPA) MTS SCHEME.
Info: C1 SPLITTING OF LONG RANGE ELECTROSTATICS
Info: PLACING ATOMS IN PATCHES BY HYDROGEN GROUPS
Info: RIGID BONDS TO HYDROGEN : ALL
Info:         ERROR TOLERANCE : 1e-08
Info:          MAX ITERATIONS : 100
Info: RIGID WATER USING SETTLE ALGORITHM
Info: RANDOM NUMBER SEED     1743683247
Info: USE HYDROGEN BONDS?    NO
Info: Using AMBER format force field!
Info: AMBER PARM FILE        mobley_6929123.prmtop
Info: COORDINATE PDB         mobley_6929123.pdb
Info: Exclusions will be read from PARM file!
Info: SCNB (VDW SCALING)     2
Info: USING ARITHMETIC MEAN TO COMBINE L-J SIGMA PARAMETERS
Info: BINARY COORDINATES     mobley_6929123_equil.coor
Info: SUMMARY OF PARAMETERS:
Info: 8 BONDS
Info: 9 ANGLES
Info:   9 HARMONIC
Info:   0 COSINE-BASED
Info: 10 DIHEDRAL
Info: 0 IMPROPER
Info: 0 CROSSTERM
Info: 0 VDW
Info: 36 VDW_PAIRS
Info: 0 NBTHOLE_PAIRS
Info: To read alchdata from file: mobley_6929123.pdb
Info: To read alchflag data from column: 5
Info: STRUCTURE SUMMARY:
Info: 2915 ATOMS
Info: 2914 BONDS
Info: 16 ANGLES
Info: 19 DIHEDRALS
Info: 0 IMPROPERS
Info: 0 CROSSTERMS
Info: 2941 EXCLUSIONS
Info: 2909 RIGID BONDS
Info: ALCH: 0 ATOMS TO DISAPPEAR IN FINAL STATE
Info: ALCH: 11 ATOMS TO APPEAR IN FINAL STATE
Info: 5836 DEGREES OF FREEDOM
Info: 974 HYDROGEN GROUPS
Info: 4 ATOMS IN LARGEST HYDROGEN GROUP
Info: 974 MIGRATION GROUPS
Info: 4 ATOMS IN LARGEST MIGRATION GROUP
Info: TOTAL MASS = 17548 amu
Info: TOTAL CHARGE = -0.000200043 e
Info: MASS DENSITY = 0.955858 g/cm^3
Info: ATOM DENSITY = 0.0956192 atoms/A^3
Info: ADDED 0 IMPLICIT EXCLUSIONS
Info: NONBONDED TABLE R-SQUARED SPACING: 0.0625
Info: NONBONDED TABLE SIZE: 705 POINTS
Info: REDUCING NUMBER OF PATCHES TO IMPROVE LOAD BALANCE
Info: REMOVING COM VELOCITY -0.205341 0.0821958 -0.118186
Info: Use 3D box decompostion in PME FFT.
Info: Updated CUDA force table with 4096 elements.
Info: Updated CUDA LJ table with 8 x 8 elements.
Info: Found 14 unique exclusion lists needing 24 bytes
TCL: Running for 1500000 steps
ETITLE: TS BOND ANGLE DIHED IMPRP ELECT VDW BOUNDARY MISC KINETIC TOTAL TEMP POTENTIAL TOTALAVG TEMPAVG PRESSURE GPRESSURE VOLUME PRESSAVG GPRESSAVG
ENERGY: 0 2.4589 5.8760 1.2837 0.0000 -10562.1593 1354.0792 0.0000 0.0000 1783.7125 -7414.7490 307.6097 -9198.4616 -7414.7490 307.6097 -1062.8559 -983.5992 30485.5144 -1062.8559 -983.5992
ENERGY: 300000 0.9084 2.5382 2.2429 0.0000 -10544.8032 1371.2733 0.0000 0.0000 1752.6648 -7415.1757 302.2553 -9167.8405 -7428.1188 302.6779 -575.9597 -530.5653 30181.5939 -219.4733 -187.2695
ENERGY: 600000 0.8086 3.1744 1.8802 0.0000 -10561.7780 1409.4864 0.0000 0.0000 1765.9446 -7380.4837 304.5455 -9146.4284 -7422.4496 301.7800 55.3800 90.1541 30091.8027 -229.1499 -187.4186
ENERGY: 900000 1.0620 6.0116 4.3229 0.0000 -10612.1037 1401.7831 0.0000 0.0000 1762.6429 -7436.2812 303.9761 -9198.9241 -7415.4554 301.4847 -293.1805 -229.5014 29863.4710 -214.4290 -163.6320
ENERGY: 1200000 3.2421 2.6106 1.5446 0.0000 -10542.7651 1406.0732 0.0000 0.0000 1736.6469 -7392.6478 299.4930 -9129.2946 -7412.8179 301.3151 -113.8647 -87.7613 30079.4746 -253.6406 -203.8086
ENERGY: 1500000 0.2764 3.5875 2.6350 0.0000 -10619.5390 1468.0649 0.0000 0.0000 1725.3886 -7419.5865 297.5514 -9144.9751 -7418.1303 301.0942 505.4641 567.8589 29804.5240 -152.8820 -100.9101
TCL: Running FEP window   2: Lambda1 0.95   Lambda2 0.8999999999999999 [dLambda -0.050000000000000044]
TCL: Setting parameter firsttimestep to 0
TCL: Setting parameter alchLambda to 0.95
Info: NONBONDED TABLE R-SQUARED SPACING: 0.0625
Info: NONBONDED TABLE SIZE: 705 POINTS
TCL: Setting parameter alchLambda2 to 0.8999999999999999
Info: NONBONDED TABLE R-SQUARED SPACING: 0.0625
Info: NONBONDED TABLE SIZE: 705 POINTS
TCL: Running for 1500000 steps
ETITLE: TS BOND ANGLE DIHED IMPRP ELECT VDW BOUNDARY MISC KINETIC TOTAL TEMP POTENTIAL TOTALAVG TEMPAVG PRESSURE GPRESSURE VOLUME PRESSAVG GPRESSAVG
ENERGY: 0 0.2764 3.5875 2.6350 0.0000 -10618.3291 1468.1580 0.0000 0.0000 1724.5495 -7419.1227 297.4067 -9143.6722 -7419.1227 297.4067 453.1845 560.9975 29804.5240 453.1845 560.9975
ENERGY: 300000 1.4828 6.1159 1.5981 0.0000 -10567.7014 1361.8195 0.0000 0.0000 1754.6333 -7442.0518 302.5948 -9196.6850 -7465.5249 300.7818 -465.5998 -426.7654 30184.7216 -45.7545 20.1133
ENERGY: 600000 1.4703 5.1370 2.7418 0.0000 -10554.3064 1427.3676 0.0000 0.0000 1825.5362 -7292.0535 314.8224 -9117.5897 -7417.4310 303.7161 321.6115 372.0496 30115.4300 -32.7691 18.5244
ENERGY: 900000 1.1164 3.6384 1.1914 0.0000 -10645.0976 1470.0727 0.0000 0.0000 1762.8043 -7406.2744 304.0039 -9169.0787 -7414.5511 302.8165 205.8696 266.8671 30219.4925 61.3061 116.3771
ENERGY: 1200000 1.6134 6.9117 2.3152 0.0000 -10535.4557 1436.3790 0.0000 0.0000 1784.9742 -7303.2623 307.8272 -9088.2364 -7403.1426 302.7983 440.2275 491.3068 30049.3374 27.5880 95.2342
ENERGY: 1500000 1.0163 3.3957 2.4585 0.0000 -10689.8672 1531.5260 0.0000 0.0000 1746.6184 -7404.8523 301.2126 -9151.4707 -7404.6783 301.7584 906.6639 945.0002 29932.0574 53.7217 120.9203
TCL: Running FEP window   3: Lambda1 0.8999999999999999 Lambda2 0.8499999999999999 [dLambda -0.050000000000000044]
TCL: Setting parameter firsttimestep to 0
TCL: Setting parameter alchLambda to 0.8999999999999999
Info: NONBONDED TABLE R-SQUARED SPACING: 0.0625
Info: NONBONDED TABLE SIZE: 705 POINTS
TCL: Setting parameter alchLambda2 to 0.8499999999999999
Info: NONBONDED TABLE R-SQUARED SPACING: 0.0625
Info: NONBONDED TABLE SIZE: 705 POINTS
TCL: Running for 1500000 steps
ETITLE: TS BOND ANGLE DIHED IMPRP ELECT VDW BOUNDARY MISC KINETIC TOTAL TEMP POTENTIAL TOTALAVG TEMPAVG PRESSURE GPRESSURE VOLUME PRESSAVG GPRESSAVG
ENERGY: 0 1.0163 3.3956 2.4585 0.0000 -10688.6773 1531.8182 0.0000 0.0000 1745.7379 -7404.2507 301.0607 -9149.9886 -7404.2507 301.0607 851.4979 939.7576 29932.0574 851.4979 939.7576
ENERGY: 300000 3.5212 5.6097 2.9689 0.0000 -10465.0716 1309.6063 0.0000 0.0000 1731.8218 -7411.5437 298.6609 -9143.3655 -7390.6314 303.0752 -1229.2418 -1123.8042 30650.0241 -155.1301 -83.7503
ENERGY: 600000 2.7219 3.4750 2.0792 0.0000 -10614.3853 1429.9242 0.0000 0.0000 1790.6672 -7385.5178 308.8090 -9176.1850 -7401.6672 302.0687 -133.3939 -46.9997 30207.0097 -174.1392 -101.6639
ENERGY: 900000 0.8627 3.9539 3.6021 0.0000 -10593.9849 1403.4013 0.0000 0.0000 1708.6432 -7473.5217 294.6636 -9182.1649 -7417.6379 301.1455 -193.3327 -157.5073 29961.3342 -47.4248 30.0837
ENERGY: 1200000 0.8367 5.8295 2.5511 0.0000 -10520.2963 1390.3148 0.0000 0.0000 1756.9154 -7363.8488 302.9884 -9120.7642 -7423.1148 300.6899 -327.4103 -230.4026 30503.0064 -35.0523 42.4989
ENERGY: 1500000 3.9517 4.9977 1.6487 0.0000 -10577.5229 1379.9704 0.0000 0.0000 1638.6824 -7548.2721 282.5985 -9186.9545 -7428.4328 299.0492 -477.1456 -411.3505 30047.3150 -54.7623 18.4977
TCL: Running FEP window   4: Lambda1 0.8499999999999999 Lambda2 0.7999999999999998 [dLambda -0.050000000000000044]
TCL: Setting parameter firsttimestep to 0
TCL: Setting parameter alchLambda to 0.8499999999999999
Info: NONBONDED TABLE R-SQUARED SPACING: 0.0625
Info: NONBONDED TABLE SIZE: 705 POINTS
TCL: Setting parameter alchLambda2 to 0.7999999999999998
Info: NONBONDED TABLE R-SQUARED SPACING: 0.0625
Info: NONBONDED TABLE SIZE: 705 POINTS
TCL: Running for 1500000 steps
ETITLE: TS BOND ANGLE DIHED IMPRP ELECT VDW BOUNDARY MISC KINETIC TOTAL TEMP POTENTIAL TOTALAVG TEMPAVG PRESSURE GPRESSURE VOLUME PRESSAVG GPRESSAVG
ENERGY: 0 3.9517 4.9977 1.6487 0.0000 -10575.7858 1379.6667 0.0000 0.0000 1637.8247 -7547.6963 282.4506 -9185.5210 -7547.6963 282.4506 -498.2394 -420.8991 30047.3150 -498.2394 -420.8991
ENERGY: 300000 0.6695 4.4430 2.1935 0.0000 -10451.3891 1344.4689 0.0000 0.0000 1695.7651 -7403.8491 292.4427 -9099.6142 -7462.6571 293.3942 -455.5093 -426.1948 30014.2221 -74.9779 -9.8425
ENERGY: 600000 3.5912 3.3866 1.9219 0.0000 -10555.1183 1365.2451 0.0000 0.0000 1720.0536 -7460.9200 296.6314 -9180.9735 -7446.7259 294.9598 -896.1177 -815.9950 30572.3233 -312.6805 -251.8494
ENERGY: 900000 3.0943 5.2410 3.4953 0.0000 -10657.3654 1465.6745 0.0000 0.0000 1712.8796 -7466.9807 295.3942 -9179.8602 -7436.7378 297.2053 325.6868 409.3787 29930.0296 -140.8197 -82.9624
ENERGY: 1200000 1.1521 2.6295 3.3840 0.0000 -10529.0624 1377.4905 0.0000 0.0000 1741.8482 -7402.5582 300.3900 -9144.4064 -7445.4488 297.1878 -343.0774 -228.6847 30173.4644 -133.7617 -76.3168
ENERGY: 1500000 1.0974 2.8878 2.1307 0.0000 -10574.0944 1434.4562 0.0000 0.0000 1763.8549 -7369.6675 304.1851 -9133.5225 -7438.9484 297.2086 61.8549 165.8919 29977.8011 -44.5102 13.5637
TCL: Running FEP window   5: Lambda1 0.7999999999999998 Lambda2 0.7499999999999998 [dLambda -0.050000000000000044]
TCL: Setting parameter firsttimestep to 0
TCL: Setting parameter alchLambda to 0.7999999999999998
Info: NONBONDED TABLE R-SQUARED SPACING: 0.0625
Info: NONBONDED TABLE SIZE: 705 POINTS
TCL: Setting parameter alchLambda2 to 0.7499999999999998
Info: NONBONDED TABLE R-SQUARED SPACING: 0.0625
Info: NONBONDED TABLE SIZE: 705 POINTS
TCL: Running for 1500000 steps
ETITLE: TS BOND ANGLE DIHED IMPRP ELECT VDW BOUNDARY MISC KINETIC TOTAL TEMP POTENTIAL TOTALAVG TEMPAVG PRESSURE GPRESSURE VOLUME PRESSAVG GPRESSAVG
ENERGY: 0 1.0974 2.8878 2.1307 0.0000 -10572.8822 1434.2089 0.0000 0.0000 1762.9653 -7369.5922 304.0317 -9132.5575 -7369.5922 304.0317 67.3920 154.6442 29977.8011 67.3920 154.6442
ENERGY: 300000 0.7761 1.9678 3.7919 0.0000 -10675.9630 1467.7155 0.0000 0.0000 1675.8110 -7525.9006 289.0015 -9201.7116 -7417.4564 301.1404 -100.3710 3.0087 30494.5571 80.0384 147.3857
ENERGY: 600000 0.4620 2.3227 3.9114 0.0000 -10466.8565 1414.7719 0.0000 0.0000 1724.8518 -7320.5366 297.4588 -9045.3884 -7396.0472 300.3816 369.4327 395.4811 30116.5221 4.9348 83.4459
ENERGY: 900000 3.3575 1.9893 3.3674 0.0000 -10623.4344 1406.7671 0.0000 0.0000 1702.1526 -7505.8005 293.5443 -9207.9532 -7430.7366 298.1635 -393.6271 -292.4408 29874.5088 -73.3825 -1.1684
ENERGY: 1200000 2.2045 3.2952 2.5767 0.0000 -10578.9516 1441.9431 0.0000 0.0000 1754.5567 -7374.3753 302.5816 -9128.9321 -7417.1872 298.5413 272.0607 335.0360 30040.3198 -115.3556 -48.0985
ENERGY: 1500000 1.4783 4.5810 2.4542 0.0000 -10660.6007 1460.4239 0.0000 0.0000 1722.5840 -7469.0793 297.0677 -9191.6633 -7416.9325 299.2062 34.1357 75.5344 30497.3936 -187.7475 -126.4826
TCL: Running FEP window   6: Lambda1 0.7499999999999998 Lambda2 0.6999999999999997 [dLambda -0.050000000000000044]
TCL: Setting parameter firsttimestep to 0
TCL: Setting parameter alchLambda to 0.7499999999999998
Info: NONBONDED TABLE R-SQUARED SPACING: 0.0625
Info: NONBONDED TABLE SIZE: 705 POINTS
TCL: Setting parameter alchLambda2 to 0.6999999999999997
Info: NONBONDED TABLE R-SQUARED SPACING: 0.0625
Info: NONBONDED TABLE SIZE: 705 POINTS
TCL: Running for 1500000 steps
ETITLE: TS BOND ANGLE DIHED IMPRP ELECT VDW BOUNDARY MISC KINETIC TOTAL TEMP POTENTIAL TOTALAVG TEMPAVG PRESSURE GPRESSURE VOLUME PRESSAVG GPRESSAVG
ENERGY: 0 1.4783 4.5810 2.4542 0.0000 -10659.3476 1460.3354 0.0000 0.0000 1721.6727 -7468.8260 296.9106 -9190.4987 -7468.8260 296.9106 -8.0469 68.5643 30497.3936 -8.0469 68.5643
ENERGY: 300000 0.7716 4.3532 2.9917 0.0000 -10686.0311 1513.0841 0.0000 0.0000 1687.8972 -7476.9332 291.0859 -9164.8304 -7439.0761 296.4171 698.3598 774.0697 29690.4157 48.1647 136.8709
ENERGY: 600000 0.7017 5.3097 2.3166 0.0000 -10595.9122 1427.5757 0.0000 0.0000 1799.3094 -7360.6991 310.2994 -9160.0085 -7428.1118 299.1500 124.2989 174.7190 30019.1431 -4.8143 76.2608
ENERGY: 900000 0.6328 5.9687 1.9903 0.0000 -10744.3884 1521.8643 0.0000 0.0000 1770.3081 -7443.6242 305.2980 -9213.9323 -7422.0265 299.7200 827.0921 912.7765 29504.7009 126.9259 208.7681
ENERGY: 1200000 1.3650 2.6080 1.7226 0.0000 -10460.6167 1292.2015 0.0000 0.0000 1755.0801 -7407.6394 302.6719 -9162.7196 -7418.8748 299.4926 -1191.5102 -1071.4845 30404.5645 -24.8229 58.7569
ENERGY: 1500000 1.3032 7.3970 2.1508 0.0000 -10523.0340 1348.8838 0.0000 0.0000 1801.1464 -7362.1528 310.6162 -9163.2992 -7421.2200 300.2220 -947.0900 -835.4082 30254.6096 -96.8761 -14.8322
TCL: Running FEP window   7: Lambda1 0.6999999999999997 Lambda2 0.6499999999999997 [dLambda -0.050000000000000044]
TCL: Setting parameter firsttimestep to 0
TCL: Setting parameter alchLambda to 0.6999999999999997
Info: NONBONDED TABLE R-SQUARED SPACING: 0.0625
Info: NONBONDED TABLE SIZE: 705 POINTS
TCL: Setting parameter alchLambda2 to 0.6499999999999997
Info: NONBONDED TABLE R-SQUARED SPACING: 0.0625
Info: NONBONDED TABLE SIZE: 705 POINTS
TCL: Running for 1500000 steps
ETITLE: TS BOND ANGLE DIHED IMPRP ELECT VDW BOUNDARY MISC KINETIC TOTAL TEMP POTENTIAL TOTALAVG TEMPAVG PRESSURE GPRESSURE VOLUME PRESSAVG GPRESSAVG
ENERGY: 0 1.3032 7.3970 2.1508 0.0000 -10522.4491 1349.2216 0.0000 0.0000 1800.2693 -7362.1071 310.4650 -9162.3765 -7362.1071 310.4650 -914.3430 -835.7595 30254.6096 -914.3430 -835.7595
ENERGY: 300000 3.5956 5.5906 2.1761 0.0000 -10640.1343 1404.5778 0.0000 0.0000 1736.6660 -7487.5282 299.4963 -9224.1942 -7451.7734 300.3005 -564.7947 -563.6031 30184.4491 -453.0607 -393.0333
ENERGY: 600000 1.6350 3.7864 2.8067 0.0000 -10670.4892 1510.4052 0.0000 0.0000 1704.2156 -7447.6404 293.9000 -9151.8559 -7444.2486 299.5455 574.7343 676.1528 30044.1452 -300.0792 -236.3877
ENERGY: 900000 0.3866 6.5635 3.2908 0.0000 -10468.5630 1369.2042 0.0000 0.0000 1720.7193 -7368.3985 296.7462 -9089.1178 -7436.9314 299.2672 -268.2761 -230.2547 30195.1422 -193.7594 -138.1822
ENERGY: 1200000 1.0313 3.3225 2.5336 0.0000 -10536.9751 1400.2214 0.0000 0.0000 1753.7870 -7376.0793 302.4489 -9129.8663 -7432.7433 298.9584 7.3404 13.3980 29936.0361 -162.8561 -108.0045
ENERGY: 1500000 1.1825 9.4220 1.3490 0.0000 -10560.9799 1413.2029 0.0000 0.0000 1755.3803 -7380.4434 302.7236 -9135.8236 -7432.5894 299.4585 -1.7601 10.3671 30201.1078 -161.0395 -109.9438
TCL: Running FEP window   8: Lambda1 0.6499999999999997 Lambda2 0.5999999999999996 [dLambda -0.050000000000000044]
TCL: Setting parameter firsttimestep to 0
TCL: Setting parameter alchLambda to 0.6499999999999997
Info: NONBONDED TABLE R-SQUARED SPACING: 0.0625
Info: NONBONDED TABLE SIZE: 705 POINTS
TCL: Setting parameter alchLambda2 to 0.5999999999999996
Info: NONBONDED TABLE R-SQUARED SPACING: 0.0625
Info: NONBONDED TABLE SIZE: 705 POINTS
TCL: Running for 1500000 steps
ETITLE: TS BOND ANGLE DIHED IMPRP ELECT VDW BOUNDARY MISC KINETIC TOTAL TEMP POTENTIAL TOTALAVG TEMPAVG PRESSURE GPRESSURE VOLUME PRESSAVG GPRESSAVG
ENERGY: 0 1.1825 9.4220 1.3490 0.0000 -10559.8992 1412.8576 0.0000 0.0000 1754.4928 -7380.5953 302.5706 -9135.0881 -7380.5953 302.5706 -78.9744 1.8571 30201.1078 -78.9744 1.8571
ENERGY: 300000 1.9252 2.0697 2.2656 0.0000 -10619.0233 1408.6269 0.0000 0.0000 1685.7869 -7518.3491 290.7219 -9204.1360 -7425.5274 296.2761 5.1010 56.2085 29717.7108 39.3105 115.7717
ENERGY: 600000 2.2324 2.4630 2.5313 0.0000 -10595.7191 1453.5605 0.0000 0.0000 1708.4287 -7426.5032 294.6266 -9134.9319 -7425.4793 298.2627 16.9417 124.3919 30429.3216 -44.5978 39.5925
ENERGY: 900000 4.0313 4.8398 2.4914 0.0000 -10447.2375 1341.6380 0.0000 0.0000 1773.6402 -7320.5969 305.8726 -9094.2370 -7424.9577 297.9404 -574.3456 -516.1466 30189.9190 -223.7092 -159.2349
ENERGY: 1200000 2.0495 8.1695 1.7055 0.0000 -10666.6691 1458.6433 0.0000 0.0000 1672.6504 -7523.4511 288.4565 -9196.1015 -7422.0107 297.8133 390.8069 377.7256 29347.1971 -232.8696 -179.9469
ENERGY: 1500000 4.7979 4.6159 3.2383 0.0000 -10548.1414 1365.8315 0.0000 0.0000 1713.7366 -7455.9212 295.5420 -9169.6578 -7422.0705 297.6224 -751.6509 -722.5257 30467.8419 -209.5433 -158.8641
TCL: Running FEP window   9: Lambda1 0.5999999999999996 Lambda2 0.5499999999999996 [dLambda -0.050000000000000044]
TCL: Setting parameter firsttimestep to 0
TCL: Setting parameter alchLambda to 0.5999999999999996
Info: NONBONDED TABLE R-SQUARED SPACING: 0.0625
Info: NONBONDED TABLE SIZE: 705 POINTS
TCL: Setting parameter alchLambda2 to 0.5499999999999996
Info: NONBONDED TABLE R-SQUARED SPACING: 0.0625
Info: NONBONDED TABLE SIZE: 705 POINTS
TCL: Running for 1500000 steps
ETITLE: TS BOND ANGLE DIHED IMPRP ELECT VDW BOUNDARY MISC KINETIC TOTAL TEMP POTENTIAL TOTALAVG TEMPAVG PRESSURE GPRESSURE VOLUME PRESSAVG GPRESSAVG
ENERGY: 0 4.7979 4.6159 3.2383 0.0000 -10547.7138 1366.2558 0.0000 0.0000 1712.8402 -7455.9658 295.3874 -9168.8060 -7455.9658 295.3874 -790.4125 -723.2877 30467.8419 -790.4125 -723.2877
ENERGY: 300000 0.3453 3.8330 3.4726 0.0000 -10347.5583 1256.7281 0.0000 0.0000 1761.3450 -7321.8344 303.7523 -9083.1793 -7392.3996 300.8793 -1227.9260 -1188.0614 30203.6396 -684.6805 -639.1229
ENERGY: 600000 1.2142 5.9421 4.2079 0.0000 -10499.4537 1393.2488 0.0000 0.0000 1747.8124 -7347.0282 301.4185 -9094.8406 -7400.6884 301.3309 -122.3261 -15.1288 30010.0835 -549.7439 -503.3485
ENERGY: 900000 1.4480 4.4959 1.8294 0.0000 -10435.0357 1356.7905 0.0000 0.0000 1730.4930 -7339.9789 298.4317 -9070.4719 -7383.6060 301.3545 -360.5081 -316.2624 30360.6742 -415.4981 -362.7425
ENERGY: 1200000 1.0856 4.5375 4.3058 0.0000 -10622.5018 1478.2832 0.0000 0.0000 1737.8799 -7396.4098 299.7056 -9134.2897 -7396.2922 301.2010 479.2001 530.7481 29794.7702 -305.5120 -243.5979
ENERGY: 1500000 0.4295 3.9532 3.7504 0.0000 -10775.4648 1512.8607 0.0000 0.0000 1738.7922 -7515.6788 299.8629 -9254.4710 -7403.5785 301.5819 702.0153 747.0536 29487.2700 -255.2154 -202.0127
TCL: Running FEP window  10: Lambda1 0.5499999999999996 Lambda2 0.4999999999999996 [dLambda -0.04999999999999999]
TCL: Setting parameter firsttimestep to 0
TCL: Setting parameter alchLambda to 0.5499999999999996
Info: NONBONDED TABLE R-SQUARED SPACING: 0.0625
Info: NONBONDED TABLE SIZE: 705 POINTS
TCL: Setting parameter alchLambda2 to 0.4999999999999996
Info: NONBONDED TABLE R-SQUARED SPACING: 0.0625
Info: NONBONDED TABLE SIZE: 705 POINTS
TCL: Running for 1500000 steps
ETITLE: TS BOND ANGLE DIHED IMPRP ELECT VDW BOUNDARY MISC KINETIC TOTAL TEMP POTENTIAL TOTALAVG TEMPAVG PRESSURE GPRESSURE VOLUME PRESSAVG GPRESSAVG
ENERGY: 0 0.4295 3.9532 3.7504 0.0000 -10775.0043 1513.0917 0.0000 0.0000 1737.9535 -7515.8261 299.7183 -9253.7795 -7515.8261 299.7183 663.3476 744.5895 29487.2700 663.3476 744.5895
ENERGY: 300000 0.3266 2.1581 2.5106 0.0000 -10613.0468 1477.5670 0.0000 0.0000 1795.8319 -7334.6526 309.6997 -9130.4844 -7414.8974 302.7237 618.5902 587.5098 30123.9570 381.5759 403.9426
ENERGY: 600000 1.5381 4.1110 2.9233 0.0000 -10666.6181 1515.1329 0.0000 0.0000 1769.0171 -7373.8958 305.0754 -9142.9129 -7396.3872 301.5792 1004.3119 1060.2366 29845.5928 465.9357 494.0779
ENERGY: 900000 0.4498 6.0386 2.2222 0.0000 -10585.5985 1376.8376 0.0000 0.0000 1733.1309 -7466.9194 298.8866 -9200.0503 -7405.7563 301.2738 -395.0049 -351.9249 29841.7435 226.4284 264.2351
ENERGY: 1200000 1.3538 2.5220 1.7021 0.0000 -10538.6519 1382.2630 0.0000 0.0000 1736.2654 -7414.5455 299.4272 -9150.8109 -7397.2370 301.7628 -383.1512 -317.0175 30208.3959 171.8395 214.9343
ENERGY: 1500000 1.3936 5.3575 1.4133 0.0000 -10518.5335 1339.1497 0.0000 0.0000 1757.1207 -7414.0986 303.0238 -9171.2193 -7409.2321 301.4841 -762.3966 -758.9847 30294.2818 67.4645 109.5923
TCL: Running FEP window  11: Lambda1 0.4999999999999996 Lambda2 0.4499999999999996 [dLambda -0.04999999999999999]
TCL: Setting parameter firsttimestep to 0
TCL: Setting parameter alchLambda to 0.4999999999999996
Info: NONBONDED TABLE R-SQUARED SPACING: 0.0625
Info: NONBONDED TABLE SIZE: 705 POINTS
TCL: Setting parameter alchLambda2 to 0.4499999999999996
Info: NONBONDED TABLE R-SQUARED SPACING: 0.0625
Info: NONBONDED TABLE SIZE: 705 POINTS
TCL: Running for 1500000 steps
ETITLE: TS BOND ANGLE DIHED IMPRP ELECT VDW BOUNDARY MISC KINETIC TOTAL TEMP POTENTIAL TOTALAVG TEMPAVG PRESSURE GPRESSURE VOLUME PRESSAVG GPRESSAVG
ENERGY: 0 1.3936 5.3575 1.4133 0.0000 -10518.7584 1339.1335 0.0000 0.0000 1756.2575 -7415.2029 302.8749 -9171.4604 -7415.2029 302.8749 -861.3184 -766.4514 30294.2818 -861.3184 -766.4514
ENERGY: 300000 2.4984 2.9521 1.6617 0.0000 -10600.6697 1366.8294 0.0000 0.0000 1762.5864 -7464.1418 303.9664 -9226.7282 -7419.9918 304.7711 -825.3011 -778.2354 30274.3212 -423.9815 -356.3546
ENERGY: 600000 1.6990 6.0526 2.2134 0.0000 -10503.1988 1405.9229 0.0000 0.0000 1688.3778 -7398.9332 291.1687 -9087.3109 -7409.7553 302.0207 -126.9163 -23.9855 30402.0416 -181.4895 -104.9972
ENERGY: 900000 1.5236 6.5812 3.5678 0.0000 -10434.3778 1343.9520 0.0000 0.0000 1785.0083 -7293.7449 307.8331 -9078.7532 -7405.9512 302.2256 -516.6731 -465.1265 30421.2924 -300.5884 -226.1854
ENERGY: 1200000 0.1846 4.2139 2.8662 0.0000 -10558.0530 1361.4619 0.0000 0.0000 1759.2812 -7430.0452 303.3964 -9189.3264 -7409.8115 301.4328 -517.4957 -458.9015 29933.1564 -261.1849 -190.2981
ENERGY: 1500000 2.3294 2.6820 0.9975 0.0000 -10491.1834 1405.2968 0.0000 0.0000 1765.5178 -7314.3599 304.4719 -9079.8777 -7400.4060 300.9542 73.4183 94.8223 30236.4599 -191.4422 -122.5511
TCL: Running FEP window  12: Lambda1 0.4499999999999996 Lambda2 0.39999999999999963 [dLambda -0.04999999999999999]
TCL: Setting parameter firsttimestep to 0
TCL: Setting parameter alchLambda to 0.4499999999999996
Info: NONBONDED TABLE R-SQUARED SPACING: 0.0625
Info: NONBONDED TABLE SIZE: 705 POINTS
TCL: Setting parameter alchLambda2 to 0.39999999999999963
Info: NONBONDED TABLE R-SQUARED SPACING: 0.0625
Info: NONBONDED TABLE SIZE: 705 POINTS
TCL: Running for 1500000 steps
ETITLE: TS BOND ANGLE DIHED IMPRP ELECT VDW BOUNDARY MISC KINETIC TOTAL TEMP POTENTIAL TOTALAVG TEMPAVG PRESSURE GPRESSURE VOLUME PRESSAVG GPRESSAVG
ENERGY: 0 2.3294 2.6820 0.9975 0.0000 -10491.1842 1405.6099 0.0000 0.0000 1764.6325 -7314.9329 304.3192 -9079.5653 -7314.9329 304.3192 11.6963 91.1200 30236.4599 11.6963 91.1200
ENERGY: 300000 0.6905 5.5727 3.2500 0.0000 -10726.1019 1545.3856 0.0000 0.0000 1776.6365 -7394.5666 306.3894 -9171.2031 -7368.7250 302.3064 1052.5029 1126.0522 29696.4105 131.3721 225.0319
ENERGY: 600000 1.1162 4.2296 1.5334 0.0000 -10366.5579 1306.5985 0.0000 0.0000 1785.8513 -7267.2290 307.9785 -9053.0803 -7369.9417 303.3976 -793.4844 -712.6301 30500.1794 76.7519 163.6924
ENERGY: 900000 1.4295 4.3493 2.9479 0.0000 -10663.8530 1459.1507 0.0000 0.0000 1684.2329 -7511.7427 290.4539 -9195.9757 -7395.0867 301.5265 -25.5222 59.7247 29882.7554 54.5417 131.6366
ENERGY: 1200000 0.9261 5.1587 3.2088 0.0000 -10505.0144 1389.2693 0.0000 0.0000 1762.8481 -7343.6034 304.0115 -9106.4516 -7400.8717 300.4883 64.9598 106.5131 29786.1500 65.3176 138.7027
ENERGY: 1500000 1.6031 2.4888 2.3849 0.0000 -10533.4892 1353.3476 0.0000 0.0000 1717.1377 -7456.5272 296.1285 -9173.6648 -7412.8259 299.9312 -528.7534 -422.4053 29884.7161 -17.4576 57.4568
TCL: Running FEP window  13: Lambda1 0.39999999999999963 Lambda2 0.34999999999999964 [dLambda -0.04999999999999999]
TCL: Setting parameter firsttimestep to 0
TCL: Setting parameter alchLambda to 0.39999999999999963
Info: NONBONDED TABLE R-SQUARED SPACING: 0.0625
Info: NONBONDED TABLE SIZE: 705 POINTS
TCL: Setting parameter alchLambda2 to 0.34999999999999964
Info: NONBONDED TABLE R-SQUARED SPACING: 0.0625
Info: NONBONDED TABLE SIZE: 705 POINTS
TCL: Running for 1500000 steps
ETITLE: TS BOND ANGLE DIHED IMPRP ELECT VDW BOUNDARY MISC KINETIC TOTAL TEMP POTENTIAL TOTALAVG TEMPAVG PRESSURE GPRESSURE VOLUME PRESSAVG GPRESSAVG
ENERGY: 0 1.6031 2.4888 2.3849 0.0000 -10533.4903 1353.7770 0.0000 0.0000 1716.2351 -7457.0014 295.9729 -9173.2365 -7457.0014 295.9729 -504.6989 -424.3750 29884.7161 -504.6989 -424.3750
ENERGY: 300000 0.9497 2.5923 1.4701 0.0000 -10420.3530 1314.0937 0.0000 0.0000 1789.5346 -7311.7126 308.6137 -9101.2472 -7376.2114 303.4101 -555.4948 -540.5713 30008.3840 -177.0522 -133.9396
ENERGY: 600000 1.7130 5.1594 1.4256 0.0000 -10478.9815 1404.3389 0.0000 0.0000 1699.4329 -7366.9118 293.0752 -9066.3447 -7401.0475 297.7202 -58.5612 -100.1874 30286.4466 -44.7666 -11.1741
ENERGY: 900000 4.9378 6.1755 1.8021 0.0000 -10572.6349 1380.5453 0.0000 0.0000 1752.6625 -7426.5117 302.2549 -9179.1742 -7411.1197 297.4755 -290.8650 -252.0361 29747.7677 16.2682 55.8579
ENERGY: 1200000 0.1312 4.2890 1.4708 0.0000 -10543.1653 1385.9652 0.0000 0.0000 1835.5973 -7315.7118 316.5574 -9151.3090 -7407.3052 299.3190 69.0230 134.5401 29638.3538 49.2743 96.1269
ENERGY: 1500000 1.9643 4.5829 2.7762 0.0000 -10601.9210 1379.1844 0.0000 0.0000 1744.5796 -7468.8336 300.8610 -9213.4132 -7416.7852 299.6595 -467.3843 -415.4765 29933.3186 45.8574 95.9765
TCL: Running FEP window  14: Lambda1 0.34999999999999964 Lambda2 0.29999999999999966 [dLambda -0.04999999999999999]
TCL: Setting parameter firsttimestep to 0
TCL: Setting parameter alchLambda to 0.34999999999999964
Info: NONBONDED TABLE R-SQUARED SPACING: 0.0625
Info: NONBONDED TABLE SIZE: 705 POINTS
TCL: Setting parameter alchLambda2 to 0.29999999999999966
Info: NONBONDED TABLE R-SQUARED SPACING: 0.0625
Info: NONBONDED TABLE SIZE: 705 POINTS
TCL: Running for 1500000 steps
ETITLE: TS BOND ANGLE DIHED IMPRP ELECT VDW BOUNDARY MISC KINETIC TOTAL TEMP POTENTIAL TOTALAVG TEMPAVG PRESSURE GPRESSURE VOLUME PRESSAVG GPRESSAVG
ENERGY: 0 1.9643 4.5829 2.7762 0.0000 -10601.9220 1378.7379 0.0000 0.0000 1743.7518 -7470.1090 300.7182 -9213.8608 -7470.1090 300.7182 -508.4315 -423.8004 29933.3186 -508.4315 -423.8004
ENERGY: 300000 1.9872 2.1660 2.8173 0.0000 -10588.7945 1390.3622 0.0000 0.0000 1710.9411 -7480.5207 295.0599 -9191.4618 -7456.5747 299.8791 -363.2336 -325.1769 29929.7874 -322.4992 -265.6165
ENERGY: 600000 1.9240 4.0367 1.4888 0.0000 -10474.9897 1360.0618 0.0000 0.0000 1742.3812 -7365.0971 300.4819 -9107.4783 -7424.0620 300.4864 -321.8597 -248.0996 30167.5736 -149.8840 -99.3695
ENERGY: 900000 1.0606 3.7520 2.6492 0.0000 -10674.2251 1492.3551 0.0000 0.0000 1732.3180 -7442.0902 298.7464 -9174.4082 -7428.0979 299.9455 435.0269 615.0606 29788.0199 0.2125 67.8307
ENERGY: 1200000 2.1220 4.3154 1.5973 0.0000 -10686.6598 1541.6864 0.0000 0.0000 1764.6835 -7372.2553 304.3280 -9136.9388 -7427.4787 299.9862 1264.2850 1318.3054 29371.6223 110.1725 170.8659
ENERGY: 1500000 2.3140 4.8226 2.0602 0.0000 -10509.2628 1336.1209 0.0000 0.0000 1777.2876 -7386.6576 306.5016 -9163.9452 -7423.0084 300.4879 -803.1261 -691.4137 30047.1698 -87.9083 -21.1754
TCL: Running FEP window  15: Lambda1 0.29999999999999966 Lambda2 0.24999999999999967 [dLambda -0.04999999999999999]
TCL: Setting parameter firsttimestep to 0
TCL: Setting parameter alchLambda to 0.29999999999999966
Info: NONBONDED TABLE R-SQUARED SPACING: 0.0625
Info: NONBONDED TABLE SIZE: 705 POINTS
TCL: Setting parameter alchLambda2 to 0.24999999999999967
Info: NONBONDED TABLE R-SQUARED SPACING: 0.0625
Info: NONBONDED TABLE SIZE: 705 POINTS
TCL: Running for 1500000 steps
ETITLE: TS BOND ANGLE DIHED IMPRP ELECT VDW BOUNDARY MISC KINETIC TOTAL TEMP POTENTIAL TOTALAVG TEMPAVG PRESSURE GPRESSURE VOLUME PRESSAVG GPRESSAVG
ENERGY: 0 2.3140 4.8226 2.0602 0.0000 -10509.2624 1336.1577 0.0000 0.0000 1776.4050 -7387.5031 306.3494 -9163.9080 -7387.5031 306.3494 -799.5051 -696.5598 30047.1698 -799.5051 -696.5598
ENERGY: 300000 0.2817 4.7596 2.3864 0.0000 -10640.5361 1463.1590 0.0000 0.0000 1673.7283 -7496.2211 288.6424 -9169.9494 -7444.9209 297.8191 -10.1964 100.3673 30126.6022 -409.9381 -321.5860
ENERGY: 600000 0.9177 7.7075 1.8648 0.0000 -10649.1125 1475.3260 0.0000 0.0000 1661.3250 -7501.9716 286.5034 -9163.2966 -7427.8800 297.7116 251.1115 304.8790 29863.1321 -233.0303 -152.4660
ENERGY: 900000 2.7248 7.7765 1.2623 0.0000 -10552.7329 1403.6337 0.0000 0.0000 1744.1306 -7393.2050 300.7836 -9137.3356 -7427.8470 298.1393 -20.1154 104.7638 29904.6779 -157.7978 -69.2063
ENERGY: 1200000 1.9087 2.6521 3.1602 0.0000 -10537.6228 1332.0016 0.0000 0.0000 1818.7039 -7379.1964 313.6441 -9197.9003 -7418.3996 300.2229 -969.7360 -919.4330 30210.2220 -151.0956 -72.7316
ENERGY: 1500000 2.0370 4.3486 1.4203 0.0000 -10356.3269 1256.2524 0.0000 0.0000 1684.6361 -7407.6325 290.5235 -9092.2686 -7422.0451 298.7857 -1465.0260 -1411.2854 30600.2767 -141.3528 -62.8354
TCL: Running FEP window  16: Lambda1 0.24999999999999967 Lambda2 0.19999999999999968 [dLambda -0.04999999999999999]
TCL: Setting parameter firsttimestep to 0
TCL: Setting parameter alchLambda to 0.24999999999999967
Info: NONBONDED TABLE R-SQUARED SPACING: 0.0625
Info: NONBONDED TABLE SIZE: 705 POINTS
TCL: Setting parameter alchLambda2 to 0.19999999999999968
Info: NONBONDED TABLE R-SQUARED SPACING: 0.0625
Info: NONBONDED TABLE SIZE: 705 POINTS
TCL: Running for 1500000 steps
ETITLE: TS BOND ANGLE DIHED IMPRP ELECT VDW BOUNDARY MISC KINETIC TOTAL TEMP POTENTIAL TOTALAVG TEMPAVG PRESSURE GPRESSURE VOLUME PRESSAVG GPRESSAVG
ENERGY: 0 2.0370 4.3486 1.4203 0.0000 -10356.3281 1255.7744 0.0000 0.0000 1683.7719 -7408.9760 290.3744 -9092.7479 -7408.9760 290.3744 -1490.4513 -1419.1146 30600.2767 -1490.4513 -1419.1146
ENERGY: 300000 0.6750 4.5045 1.9513 0.0000 -10504.5956 1399.4876 0.0000 0.0000 1689.2592 -7408.7179 291.3207 -9097.9771 -7383.2447 300.0493 -239.1942 -147.0983 30150.9696 -892.2955 -817.3309
ENERGY: 600000 2.1504 2.8147 1.5668 0.0000 -10564.2887 1395.8132 0.0000 0.0000 1716.6092 -7445.3344 296.0374 -9161.9436 -7405.2979 299.7096 -446.6899 -304.4366 30116.3681 -429.8868 -364.7475
ENERGY: 900000 3.2616 2.1530 1.8021 0.0000 -10555.2826 1398.1203 0.0000 0.0000 1735.7509 -7414.1947 299.3384 -9149.9456 -7409.7215 299.8601 -448.0086 -363.2394 30165.5982 -358.8868 -290.6591
ENERGY: 1200000 2.0613 6.3662 2.0778 0.0000 -10539.1256 1384.9770 0.0000 0.0000 1747.4842 -7396.1592 301.3619 -9143.6434 -7409.5303 299.3574 -288.8049 -322.0860 30079.4857 -256.1775 -207.1619
ENERGY: 1500000 1.0392 1.6915 2.8742 0.0000 -10598.4173 1391.8356 0.0000 0.0000 1709.0523 -7491.9244 294.7342 -9200.9767 -7414.8426 298.6321 -284.2715 -176.0697 29606.4192 -198.6949 -142.8160
TCL: Running FEP window  17: Lambda1 0.19999999999999968 Lambda2 0.1499999999999997 [dLambda -0.04999999999999999]
TCL: Setting parameter firsttimestep to 0
TCL: Setting parameter alchLambda to 0.19999999999999968
Info: NONBONDED TABLE R-SQUARED SPACING: 0.0625
Info: NONBONDED TABLE SIZE: 705 POINTS
TCL: Setting parameter alchLambda2 to 0.1499999999999997
Info: NONBONDED TABLE R-SQUARED SPACING: 0.0625
Info: NONBONDED TABLE SIZE: 705 POINTS
TCL: Running for 1500000 steps
ETITLE: TS BOND ANGLE DIHED IMPRP ELECT VDW BOUNDARY MISC KINETIC TOTAL TEMP POTENTIAL TOTALAVG TEMPAVG PRESSURE GPRESSURE VOLUME PRESSAVG GPRESSAVG
ENERGY: 0 1.0392 1.6915 2.8742 0.0000 -10598.4170 1391.6335 0.0000 0.0000 1708.1406 -7493.0380 294.5769 -9201.1786 -7493.0380 294.5769 -263.4179 -178.2845 29606.4192 -263.4179 -178.2845
ENERGY: 300000 1.5658 3.1536 2.1167 0.0000 -10577.0249 1417.2133 0.0000 0.0000 1740.3171 -7412.6583 300.1259 -9152.9754 -7440.5770 296.8842 -432.1679 -387.6816 30508.9350 -21.9116 32.3167
ENERGY: 600000 0.5410 3.6161 2.2004 0.0000 -10541.2482 1391.2325 0.0000 0.0000 1729.7696 -7413.8886 298.3069 -9143.6582 -7455.3677 296.1281 -392.1081 -307.0523 30177.8369 61.4928 127.1268
ENERGY: 900000 0.3466 12.8263 2.1644 0.0000 -10564.9320 1418.4146 0.0000 0.0000 1686.2811 -7444.8990 290.8071 -9131.1801 -7454.3132 294.6076 -39.5788 -82.1548 30217.3855 -6.2300 48.7463
ENERGY: 1200000 0.0588 7.4499 3.9949 0.0000 -10672.9917 1470.9737 0.0000 0.0000 1705.4080 -7485.1063 294.1057 -9190.5142 -7454.7041 294.8773 359.9594 358.8507 29867.2844 -21.0461 35.4818
ENERGY: 1500000 0.7674 3.6208 2.2648 0.0000 -10699.7018 1502.2954 0.0000 0.0000 1767.1533 -7423.6001 304.7539 -9190.7534 -7441.1429 296.2728 568.8952 594.1965 29949.9341 20.4781 80.0857
TCL: Running FEP window  18: Lambda1 0.1499999999999997 Lambda2 0.09999999999999969 [dLambda -0.05 ]
TCL: Setting parameter firsttimestep to 0
TCL: Setting parameter alchLambda to 0.1499999999999997
Info: NONBONDED TABLE R-SQUARED SPACING: 0.0625
Info: NONBONDED TABLE SIZE: 705 POINTS
TCL: Setting parameter alchLambda2 to 0.09999999999999969
Info: NONBONDED TABLE R-SQUARED SPACING: 0.0625
Info: NONBONDED TABLE SIZE: 705 POINTS
TCL: Running for 1500000 steps
ETITLE: TS BOND ANGLE DIHED IMPRP ELECT VDW BOUNDARY MISC KINETIC TOTAL TEMP POTENTIAL TOTALAVG TEMPAVG PRESSURE GPRESSURE VOLUME PRESSAVG GPRESSAVG
ENERGY: 0 0.7674 3.6208 2.2648 0.0000 -10699.7015 1502.2555 0.0000 0.0000 1766.2841 -7424.5089 304.6040 -9190.7930 -7424.5089 304.6040 523.5700 589.3555 29949.9341 523.5700 589.3555
ENERGY: 300000 0.9080 2.5493 2.4746 0.0000 -10550.5771 1445.1345 0.0000 0.0000 1729.2386 -7370.2722 298.2154 -9099.5107 -7410.0168 302.2250 -44.9695 44.0315 30522.1339 -251.2408 -207.4292
ENERGY: 600000 1.4623 3.8299 2.3679 0.0000 -10737.2654 1553.8192 0.0000 0.0000 1719.3915 -7456.3947 296.5172 -9175.7862 -7408.5718 301.1248 786.0231 903.5689 29903.1248 108.8051 166.9257
ENERGY: 900000 1.3544 3.1749 1.9649 0.0000 -10574.4053 1363.3216 0.0000 0.0000 1763.5331 -7441.0564 304.1296 -9204.5895 -7405.0905 302.6161 -685.1281 -622.2957 29945.4950 -89.3461 -26.5408
ENERGY: 1200000 0.9074 5.8564 2.0864 0.0000 -10690.4924 1466.1309 0.0000 0.0000 1727.0864 -7488.4248 297.8442 -9215.5112 -7416.3048 301.8105 -15.2376 51.0021 30252.7514 -99.7632 -38.3750
ENERGY: 1500000 2.3953 5.4100 1.7877 0.0000 -10571.5165 1409.2771 0.0000 0.0000 1709.5847 -7443.0617 294.8260 -9152.6464 -7417.0078 301.1064 -185.6341 -111.9147 29952.7792 -58.4348 6.1613
TCL: Running FEP window  19: Lambda1 0.09999999999999969 Lambda2 0.049999999999999684 [dLambda -0.05 ]
TCL: Setting parameter firsttimestep to 0
TCL: Setting parameter alchLambda to 0.09999999999999969
Info: NONBONDED TABLE R-SQUARED SPACING: 0.0625
Info: NONBONDED TABLE SIZE: 705 POINTS
TCL: Setting parameter alchLambda2 to 0.049999999999999684
Info: NONBONDED TABLE R-SQUARED SPACING: 0.0625
Info: NONBONDED TABLE SIZE: 705 POINTS
TCL: Running for 1500000 steps
ETITLE: TS BOND ANGLE DIHED IMPRP ELECT VDW BOUNDARY MISC KINETIC TOTAL TEMP POTENTIAL TOTALAVG TEMPAVG PRESSURE GPRESSURE VOLUME PRESSAVG GPRESSAVG
ENERGY: 0 2.3953 5.4100 1.7877 0.0000 -10571.5158 1408.8685 0.0000 0.0000 1708.7036 -7444.3507 294.6740 -9153.0543 -7444.3507 294.6740 -191.9114 -116.9190 29952.7792 -191.9114 -116.9190
ENERGY: 300000 1.0573 3.0775 2.0765 0.0000 -10618.2552 1512.9871 0.0000 0.0000 1723.6941 -7375.3627 297.2592 -9099.0568 -7404.6353 297.6011 709.1623 788.8467 30105.0349 260.0928 337.1621
ENERGY: 600000 0.5403 6.0261 1.5991 0.0000 -10570.1120 1405.5433 0.0000 0.0000 1769.8381 -7386.5651 305.2169 -9156.4032 -7395.0879 299.0374 -123.6377 -59.7388 29881.3397 51.6545 119.9953
ENERGY: 900000 1.3544 4.3810 1.9095 0.0000 -10670.0687 1427.5694 0.0000 0.0000 1756.2876 -7478.5667 302.8801 -9234.8543 -7390.4261 300.8087 -8.7990 52.1671 29467.6623 -85.8605 -25.9758
ENERGY: 1200000 2.0799 5.9044 4.3161 0.0000 -10535.2323 1330.1036 0.0000 0.0000 1708.4014 -7484.4268 294.6219 -9192.8282 -7402.2348 300.4259 -1109.6752 -1065.5045 30323.0542 -280.7457 -221.5014
ENERGY: 1500000 2.8674 4.4727 2.4607 0.0000 -10556.2816 1408.6350 0.0000 0.0000 1824.7118 -7313.1340 314.6802 -9137.8458 -7395.2938 301.1569 101.0317 93.2654 30160.7915 -246.4127 -194.9959
TCL: Running FEP window  20: Lambda1 0.049999999999999684 Lambda2 0.0    [dLambda -0.049999999999999684]
TCL: Setting parameter firsttimestep to 0
TCL: Setting parameter alchLambda to 0.049999999999999684
Info: NONBONDED TABLE R-SQUARED SPACING: 0.0625
Info: NONBONDED TABLE SIZE: 705 POINTS
TCL: Setting parameter alchLambda2 to 0.0
Info: NONBONDED TABLE R-SQUARED SPACING: 0.0625
Info: NONBONDED TABLE SIZE: 705 POINTS
TCL: Running for 1500000 steps
ETITLE: TS BOND ANGLE DIHED IMPRP ELECT VDW BOUNDARY MISC KINETIC TOTAL TEMP POTENTIAL TOTALAVG TEMPAVG PRESSURE GPRESSURE VOLUME PRESSAVG GPRESSAVG
ENERGY: 0 2.8674 4.4727 2.4607 0.0000 -10556.2812 1407.7334 0.0000 0.0000 1823.8577 -7314.8892 314.5329 -9138.7469 -7314.8892 314.5329 15.0986 88.8398 30160.7915 15.0986 88.8398
ENERGY: 300000 0.5452 4.4840 1.7434 0.0000 -10508.5522 1337.3270 0.0000 0.0000 1739.3981 -7425.0546 299.9674 -9164.4527 -7417.3116 302.8614 -861.4263 -837.9221 30368.2437 -368.8878 -301.8074
ENERGY: 600000 1.6219 6.2609 2.5776 0.0000 -10642.5705 1461.5803 0.0000 0.0000 1694.1707 -7476.3590 292.1677 -9170.5297 -7414.3939 301.2165 415.7060 528.4233 29463.3469 -326.8028 -253.4678
ENERGY: 900000 0.8203 4.3426 3.0095 0.0000 -10474.7604 1329.5032 0.0000 0.0000 1714.7656 -7422.3191 295.7194 -9137.0847 -7410.5720 299.4468 -871.2513 -797.2810 30076.2746 -246.9388 -175.6836
ENERGY: 1200000 1.3473 2.8150 3.6932 0.0000 -10555.1001 1441.9200 0.0000 0.0000 1775.1587 -7330.1658 306.1345 -9105.3245 -7416.8857 298.6568 234.3507 275.2823 30136.1312 -137.4058 -72.9942
ENERGY: 1500000 0.8297 2.9996 5.5337 0.0000 -10592.9953 1463.1128 0.0000 0.0000 1766.6543 -7353.8652 304.6679 -9120.5195 -7411.3654 299.4192 232.9622 284.4242 30346.7130 -104.6696 -49.7407
TCL: Exiting due to exit command.
