Info: SIMULATION PARAMETERS:
Info: TIMESTEP               2
Info: NUMBER OF STEPS        0
Info: STEPS PER CYCLE        10
Info: PERIODIC CELL BASIS 1  32.1762 0 0
Info: PERIODIC CELL BASIS 2  0 30.509 0
Info: PERIODIC CELL BASIS 3  0 0 30.7358
Info: PERIODIC CELL CENTER   0 0 0
Info: WRAPPING WATERS AROUND PERIODIC BOUNDARIES ON OUTPUT.
Info: WRAPPING ALL CLUSTERS AROUND PERIODIC BOUNDARIES ON OUTPUT.
Info: FIRST LDB TIMESTEP     50
Info: LAST LDB TIMESTEP     -1
Info: HOM BACKGROUND SCALING 1
Info: PME BACKGROUND SCALING 1
Info: MIN ATOMS PER PATCH    40
Info: EMPTY PATCH LOAD       40 ATOMS
Info: VELOCITY FILE          mobley_1662128_equil.vel
Info: CENTER OF MASS MOVING INITIALLY? NO
Info: DIELECTRIC             1
Info: EXCLUDE                SCALED ONE-FOUR
Info: 1-4 ELECTROSTATICS SCALED BY 0.833333
Info: MODIFIED 1-4 VDW PARAMETERS WILL BE USED
Info: DCD FILENAME           mobley_1662128_prod.dcd
Info: DCD FREQUENCY          100000
Info: DCD FIRST STEP         100000
Info: DCD FILE WILL CONTAIN UNIT CELL DATA
Info: XST FILENAME           mobley_1662128_prod.xst
Info: XST FREQUENCY          100000
Info: NO VELOCITY DCD OUTPUT
Info: NO FORCE DCD OUTPUT
Info: OUTPUT FILENAME        mobley_1662128_prod
Info: BINARY OUTPUT FILES WILL BE USED
Info: RESTART FILENAME       mobley_1662128_prod.restart
Info: RESTART FREQUENCY      100000
Info: BINARY RESTART FILES WILL BE USED
Info: CUTOFF                 9
Info: PAIRLIST DISTANCE      11
Info: PAIRLIST SHRINK RATE   0.01
Info: PAIRLIST GROW RATE     0.01
Info: PAIRLIST TRIGGER       0.3
Info: PAIRLISTS PER CYCLE    2
Info: PAIRLISTS ENABLED
Info: MARGIN                 2
Info: HYDROGEN GROUP CUTOFF  2.5
Info: PATCH DIMENSION        15.5
Info: ENERGY OUTPUT STEPS    100000
Info: ENERGY EVALUATION STEPS    100000
Info: OUTPUT ENERGY PRECISION 4
Info: CROSSTERM ENERGY INCLUDED IN DIHEDRAL
Info: TIMING OUTPUT STEPS    1000000
Info: PRESSURE OUTPUT STEPS  100000
Info: ALCHEMICAL FEP ON
Info: FEP CURRENT LAMBDA VALUE     0
Info: FEP COMPARISON LAMBDA VALUE  0.05
Info: FEP INTRA-ALCHEMICAL NON-BONDED INTERACTIONS WILL BE RETAINED
Info: FEP INTRA-ALCHEMICAL BONDED INTERACTIONS WILL BE RETAINED
Info: FEP VDW SHIFTING COEFFICIENT 5
Info: FEP ELEC. ACTIVE FOR ANNIHILATED PARTICLES BETWEEN LAMBDA = 0 AND LAMBDA = 0.5
Info: FEP ELEC. ACTIVE FOR EXNIHILATED PARTICLES BETWEEN LAMBDA = 0.5 AND LAMBDA = 1
Info: FEP VDW ACTIVE FOR ANNIHILATED PARTICLES BETWEEN LAMBDA = 0 AND LAMBDA = 1
Info: FEP VDW ACTIVE FOR EXNIHILATED PARTICLES BETWEEN LAMBDA = 0 AND LAMBDA = 1
Info: FEP BOND ACTIVE FOR ANNIHILATED PARTICLES BETWEEN LAMBDA = 1 AND LAMBDA = 1
Info: FEP BOND ACTIVE FOR EXNIHILATED PARTICLES BETWEEN LAMBDA = 0 AND LAMBDA = 0
Info: LANGEVIN DYNAMICS ACTIVE
Info: LANGEVIN TEMPERATURE   300
Info: LANGEVIN USING BBK INTEGRATOR
Info: LANGEVIN DAMPING COEFFICIENT IS 1 INVERSE PS
Info: LANGEVIN DYNAMICS APPLIED TO HYDROGENS
Info: LANGEVIN PISTON PRESSURE CONTROL ACTIVE
Info:        TARGET PRESSURE IS 1.01325 BAR
Info:     OSCILLATION PERIOD IS 50 FS
Info:             DECAY TIME IS 25 FS
Info:     PISTON TEMPERATURE IS 300 K
Info:       PRESSURE CONTROL IS GROUP-BASED
Info:    INITIAL STRAIN RATE IS -2.83866e-05 -2.83866e-05 -2.83866e-05
Info:       CELL FLUCTUATION IS ISOTROPIC
Info: PARTICLE MESH EWALD (PME) ACTIVE
Info: PME TOLERANCE               1e-06
Info: PME EWALD COEFFICIENT       0.348832
Info: PME INTERPOLATION ORDER     4
Info: PME GRID DIMENSIONS         36 32 32
Info: PME MAXIMUM GRID SPACING    1
Info: PME CALCULATION WILL BE PERFORMED ON GPU
Info: FULL ELECTROSTATIC EVALUATION FREQUENCY      2
Info: USING VERLET I (r-RESPA) MTS SCHEME.
Info: C1 SPLITTING OF LONG RANGE ELECTROSTATICS
Info: PLACING ATOMS IN PATCHES BY HYDROGEN GROUPS
Info: RIGID BONDS TO HYDROGEN : ALL
Info:         ERROR TOLERANCE : 1e-08
Info:          MAX ITERATIONS : 100
Info: RIGID WATER USING SETTLE ALGORITHM
Info: RANDOM NUMBER SEED     1743687649
Info: USE HYDROGEN BONDS?    NO
Info: Using AMBER format force field!
Info: AMBER PARM FILE        mobley_1662128.prmtop
Info: COORDINATE PDB         mobley_1662128.pdb
Info: Exclusions will be read from PARM file!
Info: SCNB (VDW SCALING)     2
Info: USING ARITHMETIC MEAN TO COMBINE L-J SIGMA PARAMETERS
Info: BINARY COORDINATES     mobley_1662128_equil.coor
Info: SUMMARY OF PARAMETERS:
Info: 7 BONDS
Info: 8 ANGLES
Info:   8 HARMONIC
Info:   0 COSINE-BASED
Info: 7 DIHEDRAL
Info: 0 IMPROPER
Info: 0 CROSSTERM
Info: 0 VDW
Info: 21 VDW_PAIRS
Info: 0 NBTHOLE_PAIRS
Info: To read alchdata from file: mobley_1662128.pdb
Info: To read alchflag data from column: 5
Info: STRUCTURE SUMMARY:
Info: 2970 ATOMS
Info: 2969 BONDS
Info: 18 ANGLES
Info: 25 DIHEDRALS
Info: 0 IMPROPERS
Info: 0 CROSSTERMS
Info: 3006 EXCLUSIONS
Info: 2966 RIGID BONDS
Info: ALCH: 0 ATOMS TO DISAPPEAR IN FINAL STATE
Info: ALCH: 12 ATOMS TO APPEAR IN FINAL STATE
Info: 5944 DEGREES OF FREEDOM
Info: 990 HYDROGEN GROUPS
Info: 4 ATOMS IN LARGEST HYDROGEN GROUP
Info: 990 MIGRATION GROUPS
Info: 4 ATOMS IN LARGEST MIGRATION GROUP
Info: TOTAL MASS = 17819.9 amu
Info: TOTAL CHARGE = 9.99942e-05 e
Info: MASS DENSITY = 0.980748 g/cm^3
Info: ATOM DENSITY = 0.0984351 atoms/A^3
Info: ADDED 0 IMPLICIT EXCLUSIONS
Info: NONBONDED TABLE R-SQUARED SPACING: 0.0625
Info: NONBONDED TABLE SIZE: 705 POINTS
Info: REMOVING COM VELOCITY -0.191831 0.0136807 0.11761
Info: Use 3D box decompostion in PME FFT.
Info: Updated CUDA force table with 4096 elements.
Info: Updated CUDA LJ table with 6 x 6 elements.
Info: Found 15 unique exclusion lists needing 28 bytes
TCL: Running for 1500000 steps
ETITLE: TS BOND ANGLE DIHED IMPRP ELECT VDW BOUNDARY MISC KINETIC TOTAL TEMP POTENTIAL TOTALAVG TEMPAVG PRESSURE GPRESSURE VOLUME PRESSAVG GPRESSAVG
ENERGY: 0 2.1413 2.2428 3.8057 0.0000 -10732.1311 1403.5126 0.0000 0.0000 1786.3424 -7534.0863 302.4658 -9320.4287 -7534.0863 302.4658 -245.0916 -150.0116 30172.1712 -245.0916 -150.0116
ENERGY: 300000 0.2163 4.5753 4.6138 0.0000 -10969.3598 1564.4130 0.0000 0.0000 1738.2759 -7657.2655 294.3271 -9395.5414 -7574.4192 298.1160 774.7851 814.2590 30103.2724 285.7145 323.2369
ENERGY: 600000 2.4340 2.8377 3.3840 0.0000 -10679.5226 1355.1701 0.0000 0.0000 1743.9579 -7571.7388 295.2892 -9315.6967 -7574.4871 296.4113 -855.9188 -795.1404 30981.5303 -127.3571 -91.6334
ENERGY: 900000 2.4758 3.4269 3.8803 0.0000 -10773.9113 1432.5840 0.0000 0.0000 1763.0158 -7568.5285 298.5161 -9331.5443 -7566.5703 297.5620 -397.7738 -283.5274 30621.4987 16.9161 68.5079
ENERGY: 1200000 0.7573 2.0112 1.7836 0.0000 -10626.6413 1387.6818 0.0000 0.0000 1744.8480 -7489.5594 295.4399 -9234.4074 -7551.4833 297.3125 -318.5348 -255.0283 30583.0382 2.3718 48.6267
ENERGY: 1500000 0.3882 7.3185 2.3082 0.0000 -10710.6456 1429.6262 0.0000 0.0000 1746.4882 -7524.5163 295.7177 -9271.0045 -7542.7745 297.7339 -110.4336 -56.9241 30512.1631 21.7424 65.2960
TCL: Running FEP window   2: Lambda1 0.05   Lambda2 0.1    [dLambda 0.05  ]
TCL: Setting parameter firsttimestep to 0
TCL: Setting parameter alchLambda to 0.05
Info: NONBONDED TABLE R-SQUARED SPACING: 0.0625
Info: NONBONDED TABLE SIZE: 705 POINTS
TCL: Setting parameter alchLambda2 to 0.1
Info: NONBONDED TABLE R-SQUARED SPACING: 0.0625
Info: NONBONDED TABLE SIZE: 705 POINTS
TCL: Running for 1500000 steps
ETITLE: TS BOND ANGLE DIHED IMPRP ELECT VDW BOUNDARY MISC KINETIC TOTAL TEMP POTENTIAL TOTALAVG TEMPAVG PRESSURE GPRESSURE VOLUME PRESSAVG GPRESSAVG
ENERGY: 0 0.3882 7.3185 2.3082 0.0000 -10710.6451 1430.2650 0.0000 0.0000 1745.6187 -7524.7465 295.5704 -9270.3652 -7524.7465 295.5704 -130.7474 -50.1592 30512.1631 -130.7474 -50.1592
ENERGY: 300000 0.2907 6.0885 2.3705 0.0000 -10775.8594 1511.7062 0.0000 0.0000 1796.3313 -7459.0720 304.1571 -9255.4033 -7514.9481 297.8543 803.6648 883.5034 30087.5453 228.1710 304.2496
ENERGY: 600000 0.1412 3.9197 4.2669 0.0000 -10919.9886 1537.4092 0.0000 0.0000 1859.9456 -7514.3060 314.9284 -9374.2516 -7511.4048 301.4662 213.4819 263.4929 30991.8526 58.4334 139.1420
ENERGY: 900000 1.2789 2.9404 4.3450 0.0000 -10694.5657 1405.2941 0.0000 0.0000 1814.4119 -7466.2954 307.2186 -9280.7073 -7505.1840 302.1137 -343.6824 -251.4269 30585.1397 70.1573 158.4748
ENERGY: 1200000 1.3962 3.9928 3.6962 0.0000 -10735.5467 1407.6603 0.0000 0.0000 1794.8919 -7523.9094 303.9134 -9318.8012 -7512.2303 303.0027 -520.9583 -440.4804 30483.1575 27.0767 111.5993
ENERGY: 1500000 0.9971 2.9908 1.6248 0.0000 -10767.1208 1498.9474 0.0000 0.0000 1796.0324 -7466.5282 304.1065 -9262.5606 -7508.4190 302.7690 321.9140 363.5659 30978.1691 72.7630 149.3188
TCL: Running FEP window   3: Lambda1 0.1    Lambda2 0.15000000000000002 [dLambda 0.05000000000000002]
TCL: Setting parameter firsttimestep to 0
TCL: Setting parameter alchLambda to 0.1
Info: NONBONDED TABLE R-SQUARED SPACING: 0.0625
Info: NONBONDED TABLE SIZE: 705 POINTS
TCL: Setting parameter alchLambda2 to 0.15000000000000002
Info: NONBONDED TABLE R-SQUARED SPACING: 0.0625
Info: NONBONDED TABLE SIZE: 705 POINTS
TCL: Running for 1500000 steps
ETITLE: TS BOND ANGLE DIHED IMPRP ELECT VDW BOUNDARY MISC KINETIC TOTAL TEMP POTENTIAL TOTALAVG TEMPAVG PRESSURE GPRESSURE VOLUME PRESSAVG GPRESSAVG
ENERGY: 0 0.9971 2.9908 1.6248 0.0000 -10767.1210 1500.1011 0.0000 0.0000 1795.1343 -7466.2729 303.9545 -9261.4072 -7466.2729 303.9545 280.2140 369.0236 30978.1691 280.2140 369.0236
ENERGY: 300000 1.3059 2.4450 4.1445 0.0000 -10777.1206 1429.1841 0.0000 0.0000 1736.1182 -7603.9230 293.9618 -9340.0412 -7532.9601 297.4522 -221.8055 -167.8039 30413.0923 -158.3295 -64.4876
ENERGY: 600000 0.2658 3.8932 4.1606 0.0000 -10669.2667 1343.6711 0.0000 0.0000 1769.9677 -7547.3083 299.6932 -9317.2760 -7559.8700 297.8264 -1090.1711 -975.6113 30945.5527 -257.2131 -172.9797
ENERGY: 900000 1.3949 2.7725 3.8202 0.0000 -10734.9834 1468.6608 0.0000 0.0000 1773.2512 -7485.0839 300.2492 -9258.3351 -7556.4976 297.8804 307.8537 412.5584 30346.5540 -301.4396 -223.8351
ENERGY: 1200000 0.5223 8.0188 2.9073 0.0000 -10840.1161 1463.5436 0.0000 0.0000 1859.2641 -7505.8601 314.8130 -9365.1242 -7557.7978 299.2877 -278.2945 -288.7850 31295.7295 -299.9715 -228.5572
ENERGY: 1500000 0.6046 3.3698 3.6763 0.0000 -10869.7890 1470.2432 0.0000 0.0000 1800.5347 -7591.3604 304.8689 -9391.8951 -7556.0132 299.3695 -201.6545 -138.5510 30611.4340 -301.3545 -228.3576
TCL: Running FEP window   4: Lambda1 0.15000000000000002 Lambda2 0.2    [dLambda 0.04999999999999999]
TCL: Setting parameter firsttimestep to 0
TCL: Setting parameter alchLambda to 0.15000000000000002
Info: NONBONDED TABLE R-SQUARED SPACING: 0.0625
Info: NONBONDED TABLE SIZE: 705 POINTS
TCL: Setting parameter alchLambda2 to 0.2
Info: NONBONDED TABLE R-SQUARED SPACING: 0.0625
Info: NONBONDED TABLE SIZE: 705 POINTS
TCL: Running for 1500000 steps
ETITLE: TS BOND ANGLE DIHED IMPRP ELECT VDW BOUNDARY MISC KINETIC TOTAL TEMP POTENTIAL TOTALAVG TEMPAVG PRESSURE GPRESSURE VOLUME PRESSAVG GPRESSAVG
ENERGY: 0 0.6046 3.3698 3.6763 0.0000 -10869.7891 1471.6617 0.0000 0.0000 1799.6636 -7590.8130 304.7214 -9390.4766 -7590.8130 304.7214 -213.4584 -137.1319 30611.4340 -213.4584 -137.1319
ENERGY: 300000 1.2962 4.0524 1.9848 0.0000 -10721.5619 1360.1443 0.0000 0.0000 1789.8413 -7564.2428 303.0582 -9354.0841 -7591.0072 297.6556 -903.7592 -787.3554 30431.4711 -642.1978 -569.9955
ENERGY: 600000 0.2926 7.7572 3.4285 0.0000 -10791.4151 1473.4844 0.0000 0.0000 1820.2910 -7486.1614 308.2140 -9306.4524 -7563.0196 298.9061 267.2106 329.0804 30379.0412 -317.5734 -255.2074
ENERGY: 900000 0.5170 4.5151 2.9448 0.0000 -10615.8671 1460.2017 0.0000 0.0000 1794.3287 -7353.3598 303.8181 -9147.6885 -7552.3683 298.4847 271.5610 357.3851 31100.6945 -247.3929 -172.8993
ENERGY: 1200000 1.6886 3.0366 3.3291 0.0000 -10830.4614 1513.8548 0.0000 0.0000 1790.4175 -7518.1348 303.1558 -9308.5523 -7537.3217 299.6686 745.4302 783.6462 30085.8383 -178.7351 -108.6037
ENERGY: 1500000 3.7260 2.5282 5.5630 0.0000 -10880.0770 1522.0466 0.0000 0.0000 1785.7322 -7560.4810 302.3625 -9346.2132 -7536.5892 300.2699 267.7954 316.6296 30644.7911 -139.5739 -71.5793
TCL: Running FEP window   5: Lambda1 0.2    Lambda2 0.25   [dLambda 0.04999999999999999]
TCL: Setting parameter firsttimestep to 0
TCL: Setting parameter alchLambda to 0.2
Info: NONBONDED TABLE R-SQUARED SPACING: 0.0625
Info: NONBONDED TABLE SIZE: 705 POINTS
TCL: Setting parameter alchLambda2 to 0.25
Info: NONBONDED TABLE R-SQUARED SPACING: 0.0625
Info: NONBONDED TABLE SIZE: 705 POINTS
TCL: Running for 1500000 steps
ETITLE: TS BOND ANGLE DIHED IMPRP ELECT VDW BOUNDARY MISC KINETIC TOTAL TEMP POTENTIAL TOTALAVG TEMPAVG PRESSURE GPRESSURE VOLUME PRESSAVG GPRESSAVG
ENERGY: 0 3.7260 2.5282 5.5630 0.0000 -10880.0793 1524.4025 0.0000 0.0000 1784.8624 -7558.9971 302.2152 -9343.8595 -7558.9971 302.2152 240.4323 325.6023 30644.7911 240.4323 325.6023
ENERGY: 300000 0.7323 8.9922 3.6505 0.0000 -10750.5925 1426.7903 0.0000 0.0000 1738.4193 -7572.0078 294.3514 -9310.4271 -7550.8984 300.7137 -370.7709 -254.8343 30763.2338 -31.1341 45.5091
ENERGY: 600000 2.4843 5.3598 2.6133 0.0000 -10721.0790 1444.5871 0.0000 0.0000 1697.1054 -7568.9291 287.3561 -9266.0346 -7548.1794 298.5154 -308.6390 -267.6206 31299.6250 -70.8802 -9.0051
ENERGY: 900000 1.1572 3.7246 2.8563 0.0000 -10668.0048 1436.6432 0.0000 0.0000 1812.7255 -7410.8981 306.9330 -9223.6236 -7524.5545 299.0842 -42.4127 -23.7191 31056.9514 7.0150 64.4703
ENERGY: 1200000 1.0296 2.7903 4.2027 0.0000 -10765.9627 1484.9864 0.0000 0.0000 1771.2504 -7501.7033 299.9104 -9272.9537 -7520.7481 299.7423 561.2185 599.4678 30269.8468 45.5224 103.2057
ENERGY: 1500000 0.1549 4.9903 4.4050 0.0000 -10911.1438 1545.2371 0.0000 0.0000 1761.2727 -7595.0838 298.2210 -9356.3565 -7527.4757 299.6190 749.6868 792.1532 30175.1123 34.9536 89.2572
TCL: Running FEP window   6: Lambda1 0.25   Lambda2 0.3    [dLambda 0.04999999999999999]
TCL: Setting parameter firsttimestep to 0
TCL: Setting parameter alchLambda to 0.25
Info: NONBONDED TABLE R-SQUARED SPACING: 0.0625
Info: NONBONDED TABLE SIZE: 705 POINTS
TCL: Setting parameter alchLambda2 to 0.3
Info: NONBONDED TABLE R-SQUARED SPACING: 0.0625
Info: NONBONDED TABLE SIZE: 705 POINTS
TCL: Running for 1500000 steps
ETITLE: TS BOND ANGLE DIHED IMPRP ELECT VDW BOUNDARY MISC KINETIC TOTAL TEMP POTENTIAL TOTALAVG TEMPAVG PRESSURE GPRESSURE VOLUME PRESSAVG GPRESSAVG
ENERGY: 0 0.1549 4.9903 4.4050 0.0000 -10911.1433 1545.0516 0.0000 0.0000 1760.3989 -7596.1426 298.0730 -9356.5415 -7596.1426 298.0730 704.7095 794.8272 30175.1123 704.7095 794.8272
ENERGY: 300000 0.6915 2.9453 5.8502 0.0000 -10954.5913 1556.3308 0.0000 0.0000 1812.3687 -7576.4047 306.8726 -9388.7734 -7549.4583 301.7964 588.0737 655.9518 30424.8206 526.9783 640.8452
ENERGY: 600000 0.5486 3.6881 1.8509 0.0000 -10779.6075 1447.5601 0.0000 0.0000 1839.0063 -7486.9534 311.3829 -9325.9598 -7548.5655 303.4814 227.1814 202.9188 30176.2232 184.5594 254.1512
ENERGY: 900000 1.1920 1.7677 3.2865 0.0000 -10693.7960 1448.7025 0.0000 0.0000 1763.1724 -7475.6749 298.5426 -9238.8474 -7535.4271 302.0077 19.0609 145.6987 30693.8780 179.6721 247.1622
ENERGY: 1200000 0.3197 2.2459 3.5051 0.0000 -10853.3659 1481.3843 0.0000 0.0000 1772.2730 -7593.6379 300.0836 -9365.9109 -7537.4131 301.4454 132.4040 158.5134 30470.0622 163.3739 227.3369
ENERGY: 1500000 0.7696 4.9675 3.8279 0.0000 -10776.6553 1506.9469 0.0000 0.0000 1810.5496 -7449.5937 306.5646 -9260.1433 -7533.0934 301.6577 643.9572 759.6282 30480.8901 183.1704 258.0863
TCL: Running FEP window   7: Lambda1 0.3    Lambda2 0.35   [dLambda 0.04999999999999999]
TCL: Setting parameter firsttimestep to 0
TCL: Setting parameter alchLambda to 0.3
Info: NONBONDED TABLE R-SQUARED SPACING: 0.0625
Info: NONBONDED TABLE SIZE: 705 POINTS
TCL: Setting parameter alchLambda2 to 0.35
Info: NONBONDED TABLE R-SQUARED SPACING: 0.0625
Info: NONBONDED TABLE SIZE: 705 POINTS
TCL: Running for 1500000 steps
ETITLE: TS BOND ANGLE DIHED IMPRP ELECT VDW BOUNDARY MISC KINETIC TOTAL TEMP POTENTIAL TOTALAVG TEMPAVG PRESSURE GPRESSURE VOLUME PRESSAVG GPRESSAVG
ENERGY: 0 0.7696 4.9675 3.8279 0.0000 -10776.6553 1507.0870 0.0000 0.0000 1809.6112 -7450.3922 306.4057 -9260.0034 -7450.3922 306.4057 680.2948 763.3148 30480.8901 680.2948 763.3148
ENERGY: 300000 2.0915 2.6617 3.4783 0.0000 -10819.1822 1464.3317 0.0000 0.0000 1740.1763 -7606.4427 294.6489 -9346.6190 -7518.0301 298.8917 129.1831 182.6976 30206.7967 212.6664 301.0050
ENERGY: 600000 0.5659 3.5472 4.2403 0.0000 -10810.1269 1600.2337 0.0000 0.0000 1776.6526 -7424.8872 300.8251 -9201.5398 -7490.7971 302.2767 1297.1326 1421.4744 30616.3956 318.2951 404.1313
ENERGY: 900000 0.0830 4.8787 4.2589 0.0000 -10864.4852 1503.2126 0.0000 0.0000 1744.0147 -7608.0373 295.2988 -9352.0520 -7506.9435 301.1084 388.2886 425.0807 30321.5351 384.6631 462.4774
ENERGY: 1200000 0.8180 8.6042 3.4296 0.0000 -10815.9612 1437.2218 0.0000 0.0000 1760.6265 -7605.2611 298.1116 -9365.8876 -7514.8856 301.0733 -309.0900 -195.9290 30319.0077 277.6620 352.8708
ENERGY: 1500000 0.9726 3.7321 4.7757 0.0000 -10820.9857 1483.4367 0.0000 0.0000 1763.5783 -7564.4903 298.6114 -9328.0686 -7519.5096 300.8969 236.4063 329.8677 30328.2889 198.4824 272.1139
TCL: Running FEP window   8: Lambda1 0.35   Lambda2 0.39999999999999997 [dLambda 0.04999999999999999]
TCL: Setting parameter firsttimestep to 0
TCL: Setting parameter alchLambda to 0.35
Info: NONBONDED TABLE R-SQUARED SPACING: 0.0625
Info: NONBONDED TABLE SIZE: 705 POINTS
TCL: Setting parameter alchLambda2 to 0.39999999999999997
Info: NONBONDED TABLE R-SQUARED SPACING: 0.0625
Info: NONBONDED TABLE SIZE: 705 POINTS
TCL: Running for 1500000 steps
ETITLE: TS BOND ANGLE DIHED IMPRP ELECT VDW BOUNDARY MISC KINETIC TOTAL TEMP POTENTIAL TOTALAVG TEMPAVG PRESSURE GPRESSURE VOLUME PRESSAVG GPRESSAVG
ENERGY: 0 0.9726 3.7321 4.7757 0.0000 -10820.9865 1484.3075 0.0000 0.0000 1762.7294 -7564.4691 298.4676 -9327.1986 -7564.4691 298.4676 252.0165 339.0346 30328.2889 252.0165 339.0346
ENERGY: 300000 0.0843 3.9705 3.8264 0.0000 -10826.4648 1448.7474 0.0000 0.0000 1803.4552 -7566.3811 305.3634 -9369.8362 -7562.9557 301.7108 -72.6775 -89.4143 30445.5480 -79.3714 -24.1497
ENERGY: 600000 0.3303 7.1703 2.1420 0.0000 -10729.9655 1418.4748 0.0000 0.0000 1783.4858 -7518.3623 301.9821 -9301.8482 -7547.1272 302.7284 -534.2446 -461.6443 30928.0643 -110.9780 -54.3890
ENERGY: 900000 0.2834 3.9965 5.5416 0.0000 -10773.6651 1476.1593 0.0000 0.0000 1776.3911 -7511.2932 300.7808 -9287.6843 -7553.7500 301.1313 150.2710 241.6882 30523.4528 -108.3554 -47.2142
ENERGY: 1200000 0.1101 3.2299 3.5441 0.0000 -10649.6372 1356.2403 0.0000 0.0000 1756.7437 -7529.7690 297.4541 -9286.5128 -7557.4922 300.7785 -739.5413 -680.9776 30658.2884 -190.7817 -125.3789
ENERGY: 1500000 2.3335 4.4450 3.9648 0.0000 -10711.9316 1468.9673 0.0000 0.0000 1747.6155 -7484.6055 295.9085 -9232.2210 -7548.0027 300.9369 330.6001 391.2551 30504.5401 -227.6137 -161.7298
TCL: Running FEP window   9: Lambda1 0.39999999999999997 Lambda2 0.44999999999999996 [dLambda 0.04999999999999999]
TCL: Setting parameter firsttimestep to 0
TCL: Setting parameter alchLambda to 0.39999999999999997
Info: NONBONDED TABLE R-SQUARED SPACING: 0.0625
Info: NONBONDED TABLE SIZE: 705 POINTS
TCL: Setting parameter alchLambda2 to 0.44999999999999996
Info: NONBONDED TABLE R-SQUARED SPACING: 0.0625
Info: NONBONDED TABLE SIZE: 705 POINTS
TCL: Running for 1500000 steps
ETITLE: TS BOND ANGLE DIHED IMPRP ELECT VDW BOUNDARY MISC KINETIC TOTAL TEMP POTENTIAL TOTALAVG TEMPAVG PRESSURE GPRESSURE VOLUME PRESSAVG GPRESSAVG
ENERGY: 0 2.3335 4.4450 3.9648 0.0000 -10711.9313 1468.7618 0.0000 0.0000 1746.7584 -7485.6678 295.7634 -9232.4262 -7485.6678 295.7634 303.6726 392.7520 30504.5401 303.6726 392.7520
ENERGY: 300000 2.9574 4.1339 4.6747 0.0000 -10785.5021 1448.8441 0.0000 0.0000 1825.0066 -7499.8854 309.0125 -9324.8919 -7520.5511 299.5148 -53.0791 7.7746 30456.2238 78.9366 142.1921
ENERGY: 600000 1.8971 3.4297 2.8312 0.0000 -10679.6576 1464.6013 0.0000 0.0000 1841.1934 -7365.7048 311.7533 -9206.8982 -7491.7554 302.6890 97.0708 181.4085 31044.4166 -42.7590 20.3855
ENERGY: 900000 3.2108 4.0768 3.4189 0.0000 -10785.0790 1424.7403 0.0000 0.0000 1764.0256 -7585.6066 298.6871 -9349.6322 -7511.3372 302.7560 -436.4162 -383.1595 30630.1146 26.7622 83.1365
ENERGY: 1200000 0.2190 3.4171 3.9440 0.0000 -10838.8889 1498.2630 0.0000 0.0000 1758.9236 -7574.1221 297.8232 -9333.0457 -7521.3073 301.7805 245.9475 351.9859 30388.6899 98.9742 158.0931
ENERGY: 1500000 1.2903 2.5714 4.3422 0.0000 -10781.4898 1515.0698 0.0000 0.0000 1771.7451 -7486.4710 299.9942 -9258.2161 -7514.2298 302.0576 721.1882 745.5248 30481.6862 199.4880 255.1437
TCL: Running FEP window  10: Lambda1 0.44999999999999996 Lambda2 0.49999999999999994 [dLambda 0.04999999999999999]
TCL: Setting parameter firsttimestep to 0
TCL: Setting parameter alchLambda to 0.44999999999999996
Info: NONBONDED TABLE R-SQUARED SPACING: 0.0625
Info: NONBONDED TABLE SIZE: 705 POINTS
TCL: Setting parameter alchLambda2 to 0.49999999999999994
Info: NONBONDED TABLE R-SQUARED SPACING: 0.0625
Info: NONBONDED TABLE SIZE: 705 POINTS
TCL: Running for 1500000 steps
ETITLE: TS BOND ANGLE DIHED IMPRP ELECT VDW BOUNDARY MISC KINETIC TOTAL TEMP POTENTIAL TOTALAVG TEMPAVG PRESSURE GPRESSURE VOLUME PRESSAVG GPRESSAVG
ENERGY: 0 1.2903 2.5714 4.3422 0.0000 -10781.4902 1515.7432 0.0000 0.0000 1770.8441 -7486.6990 299.8416 -9257.5432 -7486.6990 299.8416 673.3297 752.8070 30481.6862 673.3297 752.8070
ENERGY: 300000 1.7435 6.8839 5.1326 0.0000 -10740.7604 1449.0077 0.0000 0.0000 1799.0294 -7478.9632 304.6140 -9277.9927 -7509.0054 300.9026 102.0104 164.4462 30706.2935 17.1162 59.0042
ENERGY: 600000 1.0051 2.5309 4.2548 0.0000 -10747.6600 1452.7453 0.0000 0.0000 1793.1573 -7493.9666 303.6197 -9287.1239 -7525.1349 299.6931 -119.0310 -92.1407 30773.5838 11.0934 60.2929
ENERGY: 900000 1.1297 5.2519 3.4723 0.0000 -10822.9323 1460.4683 0.0000 0.0000 1774.0876 -7578.5226 300.3908 -9352.6102 -7528.9646 299.0454 -282.0901 -202.2002 31118.1048 -59.1078 -6.2660
ENERGY: 1200000 0.5052 5.5811 3.9205 0.0000 -10782.3834 1472.7922 0.0000 0.0000 1748.2322 -7551.3522 296.0129 -9299.5844 -7521.3678 299.9360 424.9744 537.7207 29943.1334 -38.4978 14.0376
ENERGY: 1500000 1.5511 4.2965 2.4141 0.0000 -10774.8037 1467.4175 0.0000 0.0000 1725.0917 -7574.0328 292.0948 -9299.1245 -7522.6015 299.3806 256.9174 270.4264 30332.9293 -13.2747 32.6475
TCL: Running FEP window  11: Lambda1 0.49999999999999994 Lambda2 0.5499999999999999 [dLambda 0.04999999999999999]
TCL: Setting parameter firsttimestep to 0
TCL: Setting parameter alchLambda to 0.49999999999999994
Info: NONBONDED TABLE R-SQUARED SPACING: 0.0625
Info: NONBONDED TABLE SIZE: 705 POINTS
TCL: Setting parameter alchLambda2 to 0.5499999999999999
Info: NONBONDED TABLE R-SQUARED SPACING: 0.0625
Info: NONBONDED TABLE SIZE: 705 POINTS
TCL: Running for 1500000 steps
ETITLE: TS BOND ANGLE DIHED IMPRP ELECT VDW BOUNDARY MISC KINETIC TOTAL TEMP POTENTIAL TOTALAVG TEMPAVG PRESSURE GPRESSURE VOLUME PRESSAVG GPRESSAVG
ENERGY: 0 1.5511 4.2965 2.4141 0.0000 -10774.8042 1467.1553 0.0000 0.0000 1724.2593 -7575.1280 291.9538 -9299.3873 -7575.1280 291.9538 177.0987 270.9782 30332.9293 177.0987 270.9782
ENERGY: 300000 1.4508 5.8887 4.0920 0.0000 -10828.7239 1406.0604 0.0000 0.0000 1824.8269 -7586.4051 308.9821 -9411.2320 -7575.6773 296.3308 -623.6596 -532.0000 30407.9508 -6.1547 71.8909
ENERGY: 600000 1.1566 3.9402 3.0988 0.0000 -10765.8030 1481.1547 0.0000 0.0000 1790.3660 -7486.0867 303.1471 -9276.4527 -7539.5198 297.7560 326.6459 358.5608 30329.8499 67.7778 133.6986
ENERGY: 900000 2.6474 6.4094 2.2862 0.0000 -10791.6495 1475.4091 0.0000 0.0000 1723.2903 -7581.6072 291.7897 -9304.8975 -7546.8967 297.9011 -61.8248 -31.1626 30734.7942 100.4625 156.0048
ENERGY: 1200000 0.6985 5.6060 3.6236 0.0000 -10758.3314 1436.8730 0.0000 0.0000 1781.6328 -7529.8976 301.6684 -9311.5303 -7550.5047 298.3789 -155.6625 -84.5268 30417.6736 116.3057 174.7758
ENERGY: 1500000 1.7738 6.6365 2.6987 0.0000 -10748.6641 1420.8660 0.0000 0.0000 1799.0157 -7517.6735 304.6117 -9316.6892 -7547.5587 299.0710 -219.7861 -176.9553 30423.7880 136.2922 197.3421
TCL: Running FEP window  12: Lambda1 0.5499999999999999 Lambda2 0.6    [dLambda 0.050000000000000044]
TCL: Setting parameter firsttimestep to 0
TCL: Setting parameter alchLambda to 0.5499999999999999
Info: NONBONDED TABLE R-SQUARED SPACING: 0.0625
Info: NONBONDED TABLE SIZE: 705 POINTS
TCL: Setting parameter alchLambda2 to 0.6
Info: NONBONDED TABLE R-SQUARED SPACING: 0.0625
Info: NONBONDED TABLE SIZE: 705 POINTS
TCL: Running for 1500000 steps
ETITLE: TS BOND ANGLE DIHED IMPRP ELECT VDW BOUNDARY MISC KINETIC TOTAL TEMP POTENTIAL TOTALAVG TEMPAVG PRESSURE GPRESSURE VOLUME PRESSAVG GPRESSAVG
ENERGY: 0 1.7738 6.6365 2.6987 0.0000 -10748.7656 1420.6535 0.0000 0.0000 1798.0922 -7518.9109 304.4553 -9317.0031 -7518.9109 304.4553 -261.9701 -174.3748 30423.7880 -261.9701 -174.3748
ENERGY: 300000 0.3865 3.9216 3.9079 0.0000 -10757.5545 1408.0417 0.0000 0.0000 1733.0433 -7608.2536 293.4411 -9341.2968 -7561.1981 298.7733 -520.3285 -483.6469 30835.2171 -214.6458 -150.0779
ENERGY: 600000 1.1594 5.2612 6.0504 0.0000 -10796.2472 1512.6334 0.0000 0.0000 1788.9672 -7482.1756 302.9102 -9271.1428 -7553.7717 299.4564 308.6714 378.6859 30992.7443 27.1332 92.8182
ENERGY: 900000 0.4328 6.3550 3.4184 0.0000 -10675.8668 1391.9698 0.0000 0.0000 1805.3947 -7468.2960 305.6918 -9273.6907 -7542.0745 300.4426 -157.8915 -116.4508 30231.2003 -55.6620 8.3735
ENERGY: 1200000 1.5892 5.3779 4.5828 0.0000 -10753.1233 1433.9173 0.0000 0.0000 1760.9613 -7546.6948 298.1683 -9307.6561 -7537.8925 300.4950 -109.4948 21.6820 30527.3855 28.7537 96.7918
ENERGY: 1500000 0.1439 2.2098 2.0548 0.0000 -10802.5101 1427.1475 0.0000 0.0000 1676.2935 -7694.6606 283.8322 -9370.9542 -7543.9489 299.7768 -363.9882 -286.1823 30539.8325 -39.7629 23.4042
TCL: Running FEP window  13: Lambda1 0.6    Lambda2 0.65   [dLambda 0.050000000000000044]
TCL: Setting parameter firsttimestep to 0
TCL: Setting parameter alchLambda to 0.6
Info: NONBONDED TABLE R-SQUARED SPACING: 0.0625
Info: NONBONDED TABLE SIZE: 705 POINTS
TCL: Setting parameter alchLambda2 to 0.65
Info: NONBONDED TABLE R-SQUARED SPACING: 0.0625
Info: NONBONDED TABLE SIZE: 705 POINTS
TCL: Running for 1500000 steps
ETITLE: TS BOND ANGLE DIHED IMPRP ELECT VDW BOUNDARY MISC KINETIC TOTAL TEMP POTENTIAL TOTALAVG TEMPAVG PRESSURE GPRESSURE VOLUME PRESSAVG GPRESSAVG
ENERGY: 0 0.1439 2.2098 2.0548 0.0000 -10802.6151 1426.9743 0.0000 0.0000 1675.4135 -7695.8189 283.6832 -9371.2323 -7695.8189 283.6832 -361.9618 -286.0677 30539.8325 -361.9618 -286.0677
ENERGY: 300000 1.1123 6.1617 3.5780 0.0000 -10644.2410 1340.9040 0.0000 0.0000 1777.6210 -7514.8640 300.9891 -9292.4850 -7561.7518 294.0150 -724.0881 -699.2370 30591.1830 -366.4743 -324.3326
ENERGY: 600000 1.0166 3.9774 3.8233 0.0000 -10781.9145 1433.0823 0.0000 0.0000 1769.6602 -7570.3546 299.6412 -9340.0149 -7557.0832 296.7295 -259.1492 -191.3726 31078.7406 -322.0621 -275.5122
ENERGY: 900000 0.6727 4.8613 2.4072 0.0000 -10720.5791 1471.5472 0.0000 0.0000 1782.3061 -7458.7847 301.7824 -9241.0908 -7552.8005 297.4324 248.7825 267.9107 30903.3986 -260.0340 -204.9983
ENERGY: 1200000 1.1962 2.7504 3.5064 0.0000 -10655.4774 1383.2823 0.0000 0.0000 1755.2719 -7509.4702 297.2049 -9264.7421 -7543.0548 298.5691 -462.1600 -356.8504 30348.8711 -248.4292 -189.3144
ENERGY: 1500000 0.2161 2.7178 6.8950 0.0000 -10669.8263 1366.4005 0.0000 0.0000 1770.2289 -7523.3680 299.7375 -9293.5969 -7549.4460 297.7683 -511.2536 -412.9824 30401.0873 -280.5116 -222.0963
TCL: Running FEP window  14: Lambda1 0.65   Lambda2 0.7000000000000001 [dLambda 0.050000000000000044]
TCL: Setting parameter firsttimestep to 0
TCL: Setting parameter alchLambda to 0.65
Info: NONBONDED TABLE R-SQUARED SPACING: 0.0625
Info: NONBONDED TABLE SIZE: 705 POINTS
TCL: Setting parameter alchLambda2 to 0.7000000000000001
Info: NONBONDED TABLE R-SQUARED SPACING: 0.0625
Info: NONBONDED TABLE SIZE: 705 POINTS
TCL: Running for 1500000 steps
ETITLE: TS BOND ANGLE DIHED IMPRP ELECT VDW BOUNDARY MISC KINETIC TOTAL TEMP POTENTIAL TOTALAVG TEMPAVG PRESSURE GPRESSURE VOLUME PRESSAVG GPRESSAVG
ENERGY: 0 0.2161 2.7178 6.8950 0.0000 -10669.9279 1366.2673 0.0000 0.0000 1769.3527 -7524.4789 299.5891 -9293.8316 -7524.4789 299.5891 -501.3958 -407.7196 30401.0873 -501.3958 -407.7196
ENERGY: 300000 0.2979 2.9680 4.6311 0.0000 -10701.8909 1366.6194 0.0000 0.0000 1784.7602 -7542.6144 302.1979 -9327.3745 -7537.0528 299.6042 -708.6414 -671.7593 30627.7655 -308.2416 -259.4598
ENERGY: 600000 0.5742 4.8953 4.1313 0.0000 -10836.0167 1517.0312 0.0000 0.0000 1880.8925 -7428.4922 318.4752 -9309.3847 -7519.3066 303.0185 580.0153 668.7254 30589.2834 -102.6949 -45.7727
ENERGY: 900000 0.3484 6.5009 2.8995 0.0000 -10785.9459 1467.7463 0.0000 0.0000 1699.5301 -7608.9207 287.7666 -9308.4507 -7526.2215 300.0009 358.2118 430.4630 30145.3310 -25.8892 38.1165
ENERGY: 1200000 1.0133 2.1298 2.3849 0.0000 -10809.9808 1442.7733 0.0000 0.0000 1799.6477 -7562.0318 304.7187 -9361.6795 -7540.0933 299.6114 -71.4491 16.3344 30144.1501 0.3391 62.3559
ENERGY: 1500000 1.4723 2.3012 3.2131 0.0000 -10684.9573 1422.9513 0.0000 0.0000 1828.9030 -7426.1165 309.6722 -9255.0195 -7540.2318 300.0181 213.5361 248.5791 30298.9112 -2.1035 56.9157
TCL: Running FEP window  15: Lambda1 0.7000000000000001 Lambda2 0.7500000000000001 [dLambda 0.050000000000000044]
TCL: Setting parameter firsttimestep to 0
TCL: Setting parameter alchLambda to 0.7000000000000001
Info: NONBONDED TABLE R-SQUARED SPACING: 0.0625
Info: NONBONDED TABLE SIZE: 705 POINTS
TCL: Setting parameter alchLambda2 to 0.7500000000000001
Info: NONBONDED TABLE R-SQUARED SPACING: 0.0625
Info: NONBONDED TABLE SIZE: 705 POINTS
TCL: Running for 1500000 steps
ETITLE: TS BOND ANGLE DIHED IMPRP ELECT VDW BOUNDARY MISC KINETIC TOTAL TEMP POTENTIAL TOTALAVG TEMPAVG PRESSURE GPRESSURE VOLUME PRESSAVG GPRESSAVG
ENERGY: 0 1.4723 2.3012 3.2131 0.0000 -10684.8598 1422.5185 0.0000 0.0000 1828.0549 -7427.3000 309.5286 -9255.3548 -7427.3000 309.5286 174.6233 249.4677 30298.9112 174.6233 249.4677
ENERGY: 300000 0.2703 4.7345 4.4237 0.0000 -10608.1287 1360.2925 0.0000 0.0000 1798.8532 -7439.5545 304.5842 -9238.4077 -7447.8875 305.1739 -593.8750 -536.2983 31160.1029 -260.2651 -202.9852
ENERGY: 600000 1.1840 5.6931 2.1080 0.0000 -10736.2241 1419.6362 0.0000 0.0000 1754.6865 -7552.9163 297.1058 -9307.6028 -7481.6987 303.0961 -453.6918 -410.6148 30832.8337 -174.4991 -107.3321
ENERGY: 900000 0.4144 4.9057 3.7355 0.0000 -10845.9939 1581.9823 0.0000 0.0000 1808.2851 -7446.6709 306.1812 -9254.9559 -7483.4165 303.2070 936.2782 1031.7525 31014.8495 -94.8329 -21.5969
ENERGY: 1200000 0.2203 3.3146 2.0171 0.0000 -10799.8050 1450.2523 0.0000 0.0000 1791.3214 -7552.6793 303.3089 -9344.0007 -7490.5688 302.6544 -181.9052 -142.6655 30759.1096 -81.8684 -15.8179
ENERGY: 1500000 0.1494 4.8645 1.8522 0.0000 -10802.0564 1527.8256 0.0000 0.0000 1746.5753 -7520.7895 295.7324 -9267.3647 -7506.0984 300.9285 599.1479 623.7627 30649.6588 -89.1684 -27.8662
TCL: Running FEP window  16: Lambda1 0.7500000000000001 Lambda2 0.8000000000000002 [dLambda 0.050000000000000044]
TCL: Setting parameter firsttimestep to 0
TCL: Setting parameter alchLambda to 0.7500000000000001
Info: NONBONDED TABLE R-SQUARED SPACING: 0.0625
Info: NONBONDED TABLE SIZE: 705 POINTS
TCL: Setting parameter alchLambda2 to 0.8000000000000002
Info: NONBONDED TABLE R-SQUARED SPACING: 0.0625
Info: NONBONDED TABLE SIZE: 705 POINTS
TCL: Running for 1500000 steps
ETITLE: TS BOND ANGLE DIHED IMPRP ELECT VDW BOUNDARY MISC KINETIC TOTAL TEMP POTENTIAL TOTALAVG TEMPAVG PRESSURE GPRESSURE VOLUME PRESSAVG GPRESSAVG
ENERGY: 0 0.1494 4.8645 1.8522 0.0000 -10801.9739 1527.9807 0.0000 0.0000 1745.6815 -7521.4456 295.5810 -9267.1271 -7521.4456 295.5810 530.3167 631.1945 30649.6588 530.3167 631.1945
ENERGY: 300000 1.2448 4.7899 1.9420 0.0000 -10628.6083 1352.1877 0.0000 0.0000 1796.7437 -7471.7003 304.2270 -9268.4440 -7500.5933 301.8893 -328.5157 -316.2127 30402.4750 94.8401 120.3670
ENERGY: 600000 0.6557 4.2641 3.2505 0.0000 -10763.4486 1419.4247 0.0000 0.0000 1805.6180 -7530.2355 305.7296 -9335.8536 -7530.2871 300.9507 -267.8882 -157.4453 30476.1843 84.2884 121.3262
ENERGY: 900000 0.4623 5.3579 4.6835 0.0000 -10741.7322 1413.2347 0.0000 0.0000 1807.4561 -7510.5378 306.0408 -9317.9939 -7526.0683 301.1942 -342.6980 -293.9891 30577.0369 -69.2995 -26.2990
ENERGY: 1200000 0.8034 5.7232 1.8116 0.0000 -10568.7685 1353.1832 0.0000 0.0000 1757.2429 -7450.0042 297.5387 -9207.2471 -7524.8500 299.9706 -643.8597 -608.1311 31093.6371 -101.9703 -58.6306
ENERGY: 1500000 1.2395 5.6218 6.5937 0.0000 -10763.7167 1468.3354 0.0000 0.0000 1778.6264 -7503.2999 301.1593 -9281.9263 -7526.0005 300.0550 197.5254 300.1779 30567.6484 -69.3616 -25.7707
TCL: Running FEP window  17: Lambda1 0.8000000000000002 Lambda2 0.8500000000000002 [dLambda 0.050000000000000044]
TCL: Setting parameter firsttimestep to 0
TCL: Setting parameter alchLambda to 0.8000000000000002
Info: NONBONDED TABLE R-SQUARED SPACING: 0.0625
Info: NONBONDED TABLE SIZE: 705 POINTS
TCL: Setting parameter alchLambda2 to 0.8500000000000002
Info: NONBONDED TABLE R-SQUARED SPACING: 0.0625
Info: NONBONDED TABLE SIZE: 705 POINTS
TCL: Running for 1500000 steps
ETITLE: TS BOND ANGLE DIHED IMPRP ELECT VDW BOUNDARY MISC KINETIC TOTAL TEMP POTENTIAL TOTALAVG TEMPAVG PRESSURE GPRESSURE VOLUME PRESSAVG GPRESSAVG
ENERGY: 0 1.2395 5.6218 6.5937 0.0000 -10763.8047 1468.2899 0.0000 0.0000 1777.7465 -7504.3133 301.0103 -9282.0598 -7504.3133 301.0103 213.7099 305.6241 30567.6484 213.7099 305.6241
ENERGY: 300000 0.7687 4.5932 3.6079 0.0000 -10935.3127 1528.9747 0.0000 0.0000 1810.6883 -7586.6799 306.5881 -9397.3682 -7481.8958 305.1678 278.2968 326.9996 30752.6106 116.8716 160.9040
ENERGY: 600000 1.7548 5.5454 3.8470 0.0000 -10714.4880 1432.6354 0.0000 0.0000 1817.7374 -7452.9678 307.7817 -9270.7053 -7483.7105 304.5797 174.1324 198.9187 30352.5142 237.6859 291.0049
ENERGY: 900000 0.4244 6.5120 2.8980 0.0000 -10717.9714 1467.8773 0.0000 0.0000 1746.0058 -7494.2538 295.6360 -9240.2596 -7492.4825 303.1574 219.1440 229.9244 30941.3639 233.4250 279.5939
ENERGY: 1200000 0.0060 3.7227 5.1518 0.0000 -10796.0197 1572.5841 0.0000 0.0000 1705.7145 -7508.8406 288.8138 -9214.5551 -7500.5080 301.7376 1214.7443 1224.0022 30555.4946 243.2074 292.3068
ENERGY: 1500000 0.5954 5.4965 4.4901 0.0000 -10954.6843 1499.6989 0.0000 0.0000 1746.8102 -7697.5932 295.7722 -9444.4034 -7518.3507 301.5856 -65.9687 22.2710 30416.3437 188.9000 240.3824
TCL: Running FEP window  18: Lambda1 0.8500000000000002 Lambda2 0.9000000000000002 [dLambda 0.050000000000000044]
TCL: Setting parameter firsttimestep to 0
TCL: Setting parameter alchLambda to 0.8500000000000002
Info: NONBONDED TABLE R-SQUARED SPACING: 0.0625
Info: NONBONDED TABLE SIZE: 705 POINTS
TCL: Setting parameter alchLambda2 to 0.9000000000000002
Info: NONBONDED TABLE R-SQUARED SPACING: 0.0625
Info: NONBONDED TABLE SIZE: 705 POINTS
TCL: Running for 1500000 steps
ETITLE: TS BOND ANGLE DIHED IMPRP ELECT VDW BOUNDARY MISC KINETIC TOTAL TEMP POTENTIAL TOTALAVG TEMPAVG PRESSURE GPRESSURE VOLUME PRESSAVG GPRESSAVG
ENERGY: 0 0.5954 5.4965 4.4901 0.0000 -10954.7041 1499.9342 0.0000 0.0000 1745.9093 -7698.2785 295.6196 -9444.1879 -7698.2785 295.6196 -46.0511 31.0032 30416.3437 -46.0511 31.0032
ENERGY: 300000 0.1365 2.0147 3.0278 0.0000 -10846.4599 1487.6959 0.0000 0.0000 1758.4070 -7595.1781 297.7358 -9353.5851 -7595.6604 301.4328 -68.7136 45.0030 30633.9595 121.8631 216.5368
ENERGY: 600000 1.7111 8.1519 3.7034 0.0000 -10720.3914 1477.2494 0.0000 0.0000 1761.6423 -7467.9333 298.2836 -9229.5756 -7554.4434 301.3963 552.4546 621.1612 30502.0768 -33.9184 49.4681
ENERGY: 900000 0.6168 5.8243 3.1462 0.0000 -10876.8477 1523.1007 0.0000 0.0000 1775.0970 -7569.0627 300.5617 -9344.1597 -7543.7249 300.8843 454.5066 502.1549 30533.7207 -24.8404 43.6259
ENERGY: 1200000 1.4389 5.6180 4.2715 0.0000 -10692.3820 1399.6513 0.0000 0.0000 1780.1185 -7501.2838 301.4120 -9281.4023 -7540.2039 300.6618 -188.6361 -90.8905 30494.2032 -149.3124 -81.9861
ENERGY: 1500000 1.6614 3.1216 6.0630 0.0000 -10704.8124 1443.4230 0.0000 0.0000 1765.6524 -7484.8910 298.9626 -9250.5434 -7534.7417 301.1074 279.2067 302.6482 30079.5160 -201.9560 -137.2910
TCL: Running FEP window  19: Lambda1 0.9000000000000002 Lambda2 0.9500000000000003 [dLambda 0.050000000000000044]
TCL: Setting parameter firsttimestep to 0
TCL: Setting parameter alchLambda to 0.9000000000000002
Info: NONBONDED TABLE R-SQUARED SPACING: 0.0625
Info: NONBONDED TABLE SIZE: 705 POINTS
TCL: Setting parameter alchLambda2 to 0.9500000000000003
Info: NONBONDED TABLE R-SQUARED SPACING: 0.0625
Info: NONBONDED TABLE SIZE: 705 POINTS
TCL: Running for 1500000 steps
ETITLE: TS BOND ANGLE DIHED IMPRP ELECT VDW BOUNDARY MISC KINETIC TOTAL TEMP POTENTIAL TOTALAVG TEMPAVG PRESSURE GPRESSURE VOLUME PRESSAVG GPRESSAVG
ENERGY: 0 1.6614 3.1216 6.0630 0.0000 -10704.7977 1443.3963 0.0000 0.0000 1764.7903 -7485.7650 298.8166 -9250.5553 -7485.7650 298.8166 212.9752 308.6308 30079.5160 212.9752 308.6308
ENERGY: 300000 0.5521 3.5218 5.0216 0.0000 -10624.7411 1372.8352 0.0000 0.0000 1754.1223 -7488.6881 297.0103 -9242.8103 -7508.3849 297.6891 -592.4756 -553.9423 31053.5547 24.7250 109.3191
ENERGY: 600000 1.1866 2.5921 2.5371 0.0000 -10821.6720 1433.1781 0.0000 0.0000 1788.2512 -7593.9269 302.7890 -9382.1782 -7537.0717 299.1444 -62.2767 -34.1737 30136.8633 46.2754 114.6971
ENERGY: 900000 1.3505 7.0433 4.8850 0.0000 -10803.9322 1530.5177 0.0000 0.0000 1746.5897 -7513.5459 295.7348 -9260.1356 -7534.9403 298.2707 613.4859 684.7332 30601.5821 13.5627 82.3884
ENERGY: 1200000 1.1633 4.9396 7.0513 0.0000 -10736.0017 1470.5316 0.0000 0.0000 1801.3034 -7451.0125 304.9990 -9252.3159 -7521.5800 299.8693 -23.9712 15.7158 31553.9380 -3.4562 57.1864
ENERGY: 1500000 0.4042 6.2472 5.1296 0.0000 -10717.9287 1432.3614 0.0000 0.0000 1795.7941 -7477.9921 304.0662 -9273.7863 -7511.9134 301.2464 -238.3225 -179.5825 31046.3587 -26.4987 37.3904
TCL: Running FEP window  20: Lambda1 0.9500000000000003 Lambda2 1.0    [dLambda 0.04999999999999971]
TCL: Setting parameter firsttimestep to 0
TCL: Setting parameter alchLambda to 0.9500000000000003
Info: NONBONDED TABLE R-SQUARED SPACING: 0.0625
Info: NONBONDED TABLE SIZE: 705 POINTS
TCL: Setting parameter alchLambda2 to 1.0
Info: NONBONDED TABLE R-SQUARED SPACING: 0.0625
Info: NONBONDED TABLE SIZE: 705 POINTS
TCL: Running for 1500000 steps
ETITLE: TS BOND ANGLE DIHED IMPRP ELECT VDW BOUNDARY MISC KINETIC TOTAL TEMP POTENTIAL TOTALAVG TEMPAVG PRESSURE GPRESSURE VOLUME PRESSAVG GPRESSAVG
ENERGY: 0 0.4042 6.2472 5.1296 0.0000 -10717.9065 1432.7232 0.0000 0.0000 1794.9210 -7478.4813 303.9183 -9273.4023 -7478.4813 303.9183 -257.8002 -164.5557 31046.3587 -257.8002 -164.5557
ENERGY: 300000 0.4568 4.5666 3.5666 0.0000 -10748.7349 1466.4124 0.0000 0.0000 1705.8386 -7567.8938 288.8348 -9273.7324 -7506.0063 299.2046 -108.4375 -58.0699 31282.9414 -238.2795 -164.5844
ENERGY: 600000 0.6370 6.1531 3.1093 0.0000 -10806.0681 1457.9236 0.0000 0.0000 1710.0060 -7628.2391 289.5404 -9338.2451 -7530.1165 297.1437 -253.5328 -188.8275 30899.3205 -107.7106 -45.2950
ENERGY: 900000 1.5513 3.5487 4.1012 0.0000 -10705.7395 1480.4488 0.0000 0.0000 1716.5640 -7499.5256 290.6508 -9216.0896 -7535.5010 296.3175 198.3893 315.1036 31186.1440 -94.4471 -30.9692
ENERGY: 1200000 1.0938 1.7415 5.3793 0.0000 -10671.7945 1402.6093 0.0000 0.0000 1758.6270 -7502.3436 297.7730 -9260.9706 -7537.4655 296.6127 -171.4702 -125.4802 30476.0200 -57.8189 -0.8241
ENERGY: 1500000 1.4532 5.6316 4.0219 0.0000 -10817.0785 1475.5676 0.0000 0.0000 1773.2951 -7557.1092 300.2566 -9330.4043 -7538.1955 297.3004 39.0379 70.8048 30620.9028 -123.5377 -66.6117
TCL: Exiting due to exit command.
