Info: SIMULATION PARAMETERS:
Info: TIMESTEP               2
Info: NUMBER OF STEPS        0
Info: STEPS PER CYCLE        10
Info: PERIODIC CELL BASIS 1  29.933 0 0
Info: PERIODIC CELL BASIS 2  0 33.0736 0
Info: PERIODIC CELL BASIS 3  0 0 30.5867
Info: PERIODIC CELL CENTER   0 0 0
Info: WRAPPING WATERS AROUND PERIODIC BOUNDARIES ON OUTPUT.
Info: WRAPPING ALL CLUSTERS AROUND PERIODIC BOUNDARIES ON OUTPUT.
Info: FIRST LDB TIMESTEP     50
Info: LAST LDB TIMESTEP     -1
Info: HOM BACKGROUND SCALING 1
Info: PME BACKGROUND SCALING 1
Info: MIN ATOMS PER PATCH    40
Info: EMPTY PATCH LOAD       40 ATOMS
Info: VELOCITY FILE          mobley_8337722_equil.vel
Info: CENTER OF MASS MOVING INITIALLY? NO
Info: DIELECTRIC             1
Info: EXCLUDE                SCALED ONE-FOUR
Info: 1-4 ELECTROSTATICS SCALED BY 0.833333
Info: MODIFIED 1-4 VDW PARAMETERS WILL BE USED
Info: DCD FILENAME           mobley_8337722_prod.dcd
Info: DCD FREQUENCY          100000
Info: DCD FIRST STEP         100000
Info: DCD FILE WILL CONTAIN UNIT CELL DATA
Info: XST FILENAME           mobley_8337722_prod.xst
Info: XST FREQUENCY          100000
Info: NO VELOCITY DCD OUTPUT
Info: NO FORCE DCD OUTPUT
Info: OUTPUT FILENAME        mobley_8337722_prod
Info: BINARY OUTPUT FILES WILL BE USED
Info: RESTART FILENAME       mobley_8337722_prod.restart
Info: RESTART FREQUENCY      100000
Info: BINARY RESTART FILES WILL BE USED
Info: CUTOFF                 9
Info: PAIRLIST DISTANCE      11
Info: PAIRLIST SHRINK RATE   0.01
Info: PAIRLIST GROW RATE     0.01
Info: PAIRLIST TRIGGER       0.3
Info: PAIRLISTS PER CYCLE    2
Info: PAIRLISTS ENABLED
Info: MARGIN                 2
Info: HYDROGEN GROUP CUTOFF  2.5
Info: PATCH DIMENSION        15.5
Info: ENERGY OUTPUT STEPS    100000
Info: ENERGY EVALUATION STEPS    100000
Info: OUTPUT ENERGY PRECISION 4
Info: CROSSTERM ENERGY INCLUDED IN DIHEDRAL
Info: TIMING OUTPUT STEPS    1000000
Info: PRESSURE OUTPUT STEPS  100000
Info: ALCHEMICAL FEP ON
Info: FEP CURRENT LAMBDA VALUE     0
Info: FEP COMPARISON LAMBDA VALUE  0.05
Info: FEP INTRA-ALCHEMICAL NON-BONDED INTERACTIONS WILL BE RETAINED
Info: FEP INTRA-ALCHEMICAL BONDED INTERACTIONS WILL BE RETAINED
Info: FEP VDW SHIFTING COEFFICIENT 5
Info: FEP ELEC. ACTIVE FOR ANNIHILATED PARTICLES BETWEEN LAMBDA = 0 AND LAMBDA = 0.5
Info: FEP ELEC. ACTIVE FOR EXNIHILATED PARTICLES BETWEEN LAMBDA = 0.5 AND LAMBDA = 1
Info: FEP VDW ACTIVE FOR ANNIHILATED PARTICLES BETWEEN LAMBDA = 0 AND LAMBDA = 1
Info: FEP VDW ACTIVE FOR EXNIHILATED PARTICLES BETWEEN LAMBDA = 0 AND LAMBDA = 1
Info: FEP BOND ACTIVE FOR ANNIHILATED PARTICLES BETWEEN LAMBDA = 1 AND LAMBDA = 1
Info: FEP BOND ACTIVE FOR EXNIHILATED PARTICLES BETWEEN LAMBDA = 0 AND LAMBDA = 0
Info: LANGEVIN DYNAMICS ACTIVE
Info: LANGEVIN TEMPERATURE   300
Info: LANGEVIN USING BBK INTEGRATOR
Info: LANGEVIN DAMPING COEFFICIENT IS 1 INVERSE PS
Info: LANGEVIN DYNAMICS APPLIED TO HYDROGENS
Info: LANGEVIN PISTON PRESSURE CONTROL ACTIVE
Info:        TARGET PRESSURE IS 1.01325 BAR
Info:     OSCILLATION PERIOD IS 50 FS
Info:             DECAY TIME IS 25 FS
Info:     PISTON TEMPERATURE IS 300 K
Info:       PRESSURE CONTROL IS GROUP-BASED
Info:    INITIAL STRAIN RATE IS 3.82184e-05 3.82184e-05 3.82184e-05
Info:       CELL FLUCTUATION IS ISOTROPIC
Info: PARTICLE MESH EWALD (PME) ACTIVE
Info: PME TOLERANCE               1e-06
Info: PME EWALD COEFFICIENT       0.348832
Info: PME INTERPOLATION ORDER     4
Info: PME GRID DIMENSIONS         32 36 32
Info: PME MAXIMUM GRID SPACING    1
Info: PME CALCULATION WILL BE PERFORMED ON GPU
Info: FULL ELECTROSTATIC EVALUATION FREQUENCY      2
Info: USING VERLET I (r-RESPA) MTS SCHEME.
Info: C1 SPLITTING OF LONG RANGE ELECTROSTATICS
Info: PLACING ATOMS IN PATCHES BY HYDROGEN GROUPS
Info: RIGID BONDS TO HYDROGEN : ALL
Info:         ERROR TOLERANCE : 1e-08
Info:          MAX ITERATIONS : 100
Info: RIGID WATER USING SETTLE ALGORITHM
Info: RANDOM NUMBER SEED     1743827215
Info: USE HYDROGEN BONDS?    NO
Info: Using AMBER format force field!
Info: AMBER PARM FILE        mobley_8337722.prmtop
Info: COORDINATE PDB         mobley_8337722.pdb
Info: Exclusions will be read from PARM file!
Info: SCNB (VDW SCALING)     2
Info: USING ARITHMETIC MEAN TO COMBINE L-J SIGMA PARAMETERS
Info: BINARY COORDINATES     mobley_8337722_equil.coor
Info: SUMMARY OF PARAMETERS:
Info: 7 BONDS
Info: 7 ANGLES
Info:   7 HARMONIC
Info:   0 COSINE-BASED
Info: 9 DIHEDRAL
Info: 0 IMPROPER
Info: 0 CROSSTERM
Info: 0 VDW
Info: 21 VDW_PAIRS
Info: 0 NBTHOLE_PAIRS
Info: To read alchdata from file: mobley_8337722.pdb
Info: To read alchflag data from column: 5
Info: STRUCTURE SUMMARY:
Info: 2935 ATOMS
Info: 2935 BONDS
Info: 61 ANGLES
Info: 126 DIHEDRALS
Info: 0 IMPROPERS
Info: 0 CROSSTERMS
Info: 3086 EXCLUSIONS
Info: 2924 RIGID BONDS
Info: ALCH: 0 ATOMS TO DISAPPEAR IN FINAL STATE
Info: ALCH: 31 ATOMS TO APPEAR IN FINAL STATE
Info: 5881 DEGREES OF FREEDOM
Info: 979 HYDROGEN GROUPS
Info: 4 ATOMS IN LARGEST HYDROGEN GROUP
Info: 979 MIGRATION GROUPS
Info: 4 ATOMS IN LARGEST MIGRATION GROUP
Info: TOTAL MASS = 17595.7 amu
Info: TOTAL CHARGE = -1.86265e-08 e
Info: MASS DENSITY = 0.964944 g/cm^3
Info: ATOM DENSITY = 0.0969266 atoms/A^3
Info: ADDED 0 IMPLICIT EXCLUSIONS
Info: NONBONDED TABLE R-SQUARED SPACING: 0.0625
Info: NONBONDED TABLE SIZE: 705 POINTS
Info: REMOVING COM VELOCITY -0.10772 0.0239378 -0.074424
Info: Use 3D box decompostion in PME FFT.
Info: Updated CUDA force table with 4096 elements.
Info: Updated CUDA LJ table with 6 x 6 elements.
Info: Found 31 unique exclusion lists needing 116 bytes
TCL: Running for 1500000 steps
ETITLE: TS BOND ANGLE DIHED IMPRP ELECT VDW BOUNDARY MISC KINETIC TOTAL TEMP POTENTIAL TOTALAVG TEMPAVG PRESSURE GPRESSURE VOLUME PRESSAVG GPRESSAVG
ENERGY: 0 3.7398 12.7850 9.1523 0.0000 -10554.5987 1372.8460 0.0000 0.0000 1777.7151 -7378.3605 304.2295 -9156.0756 -7378.3605 304.2295 -624.9636 -552.9447 30280.6418 -624.9636 -552.9447
ENERGY: 300000 6.4977 13.3590 12.6980 0.0000 -10634.9028 1444.4960 0.0000 0.0000 1745.0907 -7412.7613 298.6464 -9157.8520 -7405.5101 300.7429 -147.5770 -30.7549 29886.6915 -74.8015 -18.1856
ENERGY: 600000 9.5380 18.9897 8.7353 0.0000 -10538.4192 1396.6330 0.0000 0.0000 1764.5948 -7339.9284 301.9842 -9104.5232 -7391.4781 299.7113 -845.2191 -810.1690 30947.6914 -30.0399 19.4087
ENERGY: 900000 2.6737 15.9554 10.3147 0.0000 -10587.7556 1425.2954 0.0000 0.0000 1764.8627 -7368.6537 302.0300 -9133.5164 -7382.2389 299.8298 -4.7614 53.5986 29823.6855 -158.5303 -106.7661
ENERGY: 1200000 3.6579 20.4358 10.0254 0.0000 -10625.2377 1538.1484 0.0000 0.0000 1738.5539 -7314.4163 297.5277 -9052.9703 -7387.3364 299.5031 815.4032 886.3274 30102.4831 -57.7781 4.1547
ENERGY: 1500000 3.6899 15.2909 10.5995 0.0000 -10666.2636 1505.6167 0.0000 0.0000 1761.1435 -7369.9230 301.3936 -9131.0665 -7379.7135 300.1366 554.5186 616.0304 29626.2954 -47.2631 20.3359
TCL: Running FEP window   2: Lambda1 0.05   Lambda2 0.1    [dLambda 0.05  ]
TCL: Setting parameter firsttimestep to 0
TCL: Setting parameter alchLambda to 0.05
Info: NONBONDED TABLE R-SQUARED SPACING: 0.0625
Info: NONBONDED TABLE SIZE: 705 POINTS
TCL: Setting parameter alchLambda2 to 0.1
Info: NONBONDED TABLE R-SQUARED SPACING: 0.0625
Info: NONBONDED TABLE SIZE: 705 POINTS
TCL: Running for 1500000 steps
ETITLE: TS BOND ANGLE DIHED IMPRP ELECT VDW BOUNDARY MISC KINETIC TOTAL TEMP POTENTIAL TOTALAVG TEMPAVG PRESSURE GPRESSURE VOLUME PRESSAVG GPRESSAVG
ENERGY: 0 3.6900 15.2909 10.5995 0.0000 -10666.2622 1510.7184 0.0000 0.0000 1760.2858 -7365.6777 301.2468 -9125.9634 -7365.6777 301.2468 557.4494 625.6512 29626.2954 557.4494 625.6512
ENERGY: 300000 4.2009 18.1367 10.0249 0.0000 -10566.4013 1446.4950 0.0000 0.0000 1722.5188 -7365.0249 294.7835 -9087.5437 -7388.5638 297.6477 -29.0340 141.8418 30190.7139 -167.4445 -60.9096
ENERGY: 600000 1.1466 13.3095 10.8915 0.0000 -10732.8069 1528.9110 0.0000 0.0000 1743.2213 -7435.3270 298.3264 -9178.5483 -7424.9004 296.0831 494.1997 616.9312 29791.2892 -66.9642 23.4893
ENERGY: 900000 3.7056 14.4299 10.7597 0.0000 -10512.3034 1418.0351 0.0000 0.0000 1750.2989 -7315.0741 299.5377 -9065.3730 -7410.0429 297.0982 -6.7856 36.6961 30022.1856 -173.7476 -97.2322
ENERGY: 1200000 1.5943 16.0794 11.1669 0.0000 -10770.4745 1514.7689 0.0000 0.0000 1767.9660 -7458.8991 302.5611 -9226.8651 -7401.7757 298.1559 416.8770 453.5687 29858.9829 -167.4505 -98.7734
ENERGY: 1500000 2.0908 11.5185 10.5528 0.0000 -10567.9847 1429.0915 0.0000 0.0000 1785.9360 -7328.7950 305.6364 -9114.7310 -7393.3999 299.5510 -96.5739 -28.8308 30396.7197 -130.1795 -67.4619
TCL: Running FEP window   3: Lambda1 0.1    Lambda2 0.15000000000000002 [dLambda 0.05000000000000002]
TCL: Setting parameter firsttimestep to 0
TCL: Setting parameter alchLambda to 0.1
Info: NONBONDED TABLE R-SQUARED SPACING: 0.0625
Info: NONBONDED TABLE SIZE: 705 POINTS
TCL: Setting parameter alchLambda2 to 0.15000000000000002
Info: NONBONDED TABLE R-SQUARED SPACING: 0.0625
Info: NONBONDED TABLE SIZE: 705 POINTS
TCL: Running for 1500000 steps
ETITLE: TS BOND ANGLE DIHED IMPRP ELECT VDW BOUNDARY MISC KINETIC TOTAL TEMP POTENTIAL TOTALAVG TEMPAVG PRESSURE GPRESSURE VOLUME PRESSAVG GPRESSAVG
ENERGY: 0 2.0908 11.5185 10.5528 0.0000 -10567.9842 1432.1759 0.0000 0.0000 1785.1084 -7326.5378 305.4948 -9111.6462 -7326.5378 305.4948 -90.2253 -14.2074 30396.7197 -90.2253 -14.2074
ENERGY: 300000 1.7762 13.0253 9.2794 0.0000 -10583.6495 1478.1983 0.0000 0.0000 1727.9875 -7353.3827 295.7194 -9081.3702 -7351.7489 300.8097 648.1530 702.6148 29977.8752 -53.3736 16.8983
ENERGY: 600000 6.2639 14.3790 10.1957 0.0000 -10555.8925 1424.4359 0.0000 0.0000 1707.4962 -7393.1217 292.2126 -9100.6179 -7361.0097 299.5583 -71.2180 37.4779 30048.4571 -70.3375 0.9879
ENERGY: 900000 1.9053 12.5314 9.2963 0.0000 -10653.8861 1397.9224 0.0000 0.0000 1817.2210 -7415.0097 310.9904 -9232.2307 -7356.3703 301.2954 -509.4154 -476.5637 29835.6499 -166.2864 -98.9189
ENERGY: 1200000 3.7568 15.2375 10.7726 0.0000 -10738.3335 1524.2672 0.0000 0.0000 1768.0359 -7416.2635 302.5731 -9184.2995 -7356.8083 301.4426 557.2238 631.2602 29922.7664 -56.0650 8.7321
ENERGY: 1500000 1.8911 17.1628 9.0683 0.0000 -10544.5099 1400.0108 0.0000 0.0000 1773.9331 -7342.4438 303.5823 -9116.3769 -7352.4566 301.3208 27.6604 112.3081 29687.9413 -54.2015 17.2592
TCL: Running FEP window   4: Lambda1 0.15000000000000002 Lambda2 0.2    [dLambda 0.04999999999999999]
TCL: Setting parameter firsttimestep to 0
TCL: Setting parameter alchLambda to 0.15000000000000002
Info: NONBONDED TABLE R-SQUARED SPACING: 0.0625
Info: NONBONDED TABLE SIZE: 705 POINTS
TCL: Setting parameter alchLambda2 to 0.2
Info: NONBONDED TABLE R-SQUARED SPACING: 0.0625
Info: NONBONDED TABLE SIZE: 705 POINTS
TCL: Running for 1500000 steps
ETITLE: TS BOND ANGLE DIHED IMPRP ELECT VDW BOUNDARY MISC KINETIC TOTAL TEMP POTENTIAL TOTALAVG TEMPAVG PRESSURE GPRESSURE VOLUME PRESSAVG GPRESSAVG
ENERGY: 0 1.8911 17.1628 9.0683 0.0000 -10544.5102 1404.4603 0.0000 0.0000 1773.0986 -7338.8291 303.4395 -9111.9277 -7338.8291 303.4395 54.9369 133.6574 29687.9413 54.9369 133.6574
ENERGY: 300000 3.5883 14.9407 10.6400 0.0000 -10619.8440 1505.8100 0.0000 0.0000 1795.6509 -7289.2140 307.2990 -9084.8650 -7333.9328 302.5181 794.8029 838.7490 29538.7812 -132.7073 -29.3528
ENERGY: 600000 3.6708 12.8942 10.4887 0.0000 -10683.2158 1542.1715 0.0000 0.0000 1709.0568 -7404.9338 292.4797 -9113.9906 -7360.8624 299.8549 1007.9724 1011.1567 29878.0495 226.1154 292.4457
ENERGY: 900000 2.9488 12.3325 10.5576 0.0000 -10586.3013 1452.4720 0.0000 0.0000 1710.0292 -7397.9612 292.6461 -9107.9905 -7373.9711 298.8939 68.5005 137.7459 30137.6918 216.4149 278.1631
ENERGY: 1200000 7.4108 15.1580 8.8190 0.0000 -10694.6369 1477.7311 0.0000 0.0000 1776.2141 -7409.3039 303.9727 -9185.5180 -7385.4460 298.6517 146.6708 187.0111 30212.0190 145.7036 205.9219
ENERGY: 1500000 3.0092 16.5708 10.0354 0.0000 -10585.9614 1413.4997 0.0000 0.0000 1767.9028 -7374.9435 302.5503 -9142.8463 -7371.4482 298.9680 -148.0078 -111.3528 29933.7416 33.7624 95.1468
TCL: Running FEP window   5: Lambda1 0.2    Lambda2 0.25   [dLambda 0.04999999999999999]
TCL: Setting parameter firsttimestep to 0
TCL: Setting parameter alchLambda to 0.2
Info: NONBONDED TABLE R-SQUARED SPACING: 0.0625
Info: NONBONDED TABLE SIZE: 705 POINTS
TCL: Setting parameter alchLambda2 to 0.25
Info: NONBONDED TABLE R-SQUARED SPACING: 0.0625
Info: NONBONDED TABLE SIZE: 705 POINTS
TCL: Running for 1500000 steps
ETITLE: TS BOND ANGLE DIHED IMPRP ELECT VDW BOUNDARY MISC KINETIC TOTAL TEMP POTENTIAL TOTALAVG TEMPAVG PRESSURE GPRESSURE VOLUME PRESSAVG GPRESSAVG
ENERGY: 0 3.0092 16.5708 10.0354 0.0000 -10585.9620 1416.2502 0.0000 0.0000 1767.0292 -7373.0672 302.4008 -9140.0964 -7373.0672 302.4008 -176.8986 -98.0423 29933.7416 -176.8986 -98.0423
ENERGY: 300000 4.8192 17.8284 10.2547 0.0000 -10713.9714 1545.1000 0.0000 0.0000 1798.0480 -7337.9211 307.7092 -9135.9691 -7384.6755 300.1659 981.8607 1082.0534 29943.1033 -181.0344 -110.0507
ENERGY: 600000 5.4774 16.5026 9.6486 0.0000 -10540.0897 1356.9373 0.0000 0.0000 1740.5174 -7411.0064 297.8637 -9151.5237 -7378.7874 301.3239 -834.1439 -722.2492 30255.8849 -362.0889 -283.5852
ENERGY: 900000 3.7989 11.2326 9.7109 0.0000 -10532.8416 1414.6856 0.0000 0.0000 1799.9080 -7293.5056 308.0275 -9093.4136 -7361.0173 301.6395 -250.1356 -203.2751 30366.6851 -220.7891 -145.4066
ENERGY: 1200000 5.6815 11.9562 9.9353 0.0000 -10639.7397 1485.5774 0.0000 0.0000 1729.7700 -7396.8194 296.0244 -9126.5894 -7367.6438 300.8783 459.6123 510.7953 29996.3132 -185.5890 -117.7466
ENERGY: 1500000 3.7637 21.9702 9.3808 0.0000 -10602.1747 1468.1326 0.0000 0.0000 1743.1353 -7355.7922 298.3117 -9098.9275 -7371.0850 300.2865 116.1262 242.0234 30159.6469 -149.4401 -72.9324
TCL: Running FEP window   6: Lambda1 0.25   Lambda2 0.3    [dLambda 0.04999999999999999]
TCL: Setting parameter firsttimestep to 0
TCL: Setting parameter alchLambda to 0.25
Info: NONBONDED TABLE R-SQUARED SPACING: 0.0625
Info: NONBONDED TABLE SIZE: 705 POINTS
TCL: Setting parameter alchLambda2 to 0.3
Info: NONBONDED TABLE R-SQUARED SPACING: 0.0625
Info: NONBONDED TABLE SIZE: 705 POINTS
TCL: Running for 1500000 steps
ETITLE: TS BOND ANGLE DIHED IMPRP ELECT VDW BOUNDARY MISC KINETIC TOTAL TEMP POTENTIAL TOTALAVG TEMPAVG PRESSURE GPRESSURE VOLUME PRESSAVG GPRESSAVG
ENERGY: 0 3.7637 21.9702 9.3808 0.0000 -10602.1744 1468.6445 0.0000 0.0000 1742.2607 -7356.1547 298.1620 -9098.4154 -7356.1547 298.1620 162.9836 247.8824 30159.6469 162.9836 247.8824
ENERGY: 300000 5.0289 18.5686 10.5932 0.0000 -10648.9383 1473.3220 0.0000 0.0000 1697.2216 -7444.2039 290.4543 -9141.4255 -7404.3027 293.7896 396.4079 446.8589 29860.9318 -135.4734 -66.0844
ENERGY: 600000 4.6201 18.7891 10.4056 0.0000 -10496.6064 1370.9322 0.0000 0.0000 1757.5646 -7334.2949 300.7811 -9091.8595 -7382.2662 296.2398 -472.6780 -473.1420 30305.4979 -65.7425 -14.6390
ENERGY: 900000 5.2724 16.9125 10.2588 0.0000 -10478.6579 1322.6283 0.0000 0.0000 1762.4220 -7361.1640 301.6123 -9123.5859 -7377.2810 296.5962 -1082.1345 -999.9022 30131.3279 -252.1051 -184.6347
ENERGY: 1200000 4.2560 15.7302 10.6625 0.0000 -10527.8791 1407.3131 0.0000 0.0000 1715.9296 -7373.9877 293.6559 -9089.9173 -7375.3294 296.7640 -186.7962 -109.9329 30290.7150 -148.8534 -83.4807
ENERGY: 1500000 1.2190 19.9049 8.9172 0.0000 -10569.7773 1434.8155 0.0000 0.0000 1783.4512 -7321.4695 305.2112 -9104.9207 -7363.4091 298.3750 54.5823 15.4438 30443.0873 -86.4654 -27.1669
TCL: Running FEP window   7: Lambda1 0.3    Lambda2 0.35   [dLambda 0.04999999999999999]
TCL: Setting parameter firsttimestep to 0
TCL: Setting parameter alchLambda to 0.3
Info: NONBONDED TABLE R-SQUARED SPACING: 0.0625
Info: NONBONDED TABLE SIZE: 705 POINTS
TCL: Setting parameter alchLambda2 to 0.35
Info: NONBONDED TABLE R-SQUARED SPACING: 0.0625
Info: NONBONDED TABLE SIZE: 705 POINTS
TCL: Running for 1500000 steps
ETITLE: TS BOND ANGLE DIHED IMPRP ELECT VDW BOUNDARY MISC KINETIC TOTAL TEMP POTENTIAL TOTALAVG TEMPAVG PRESSURE GPRESSURE VOLUME PRESSAVG GPRESSAVG
ENERGY: 0 1.2190 19.9049 8.9172 0.0000 -10569.7777 1435.2427 0.0000 0.0000 1782.5925 -7321.9012 305.0642 -9104.4937 -7321.9012 305.0642 -66.4393 22.1962 30443.0873 -66.4393 22.1962
ENERGY: 300000 4.8016 13.3441 9.4905 0.0000 -10441.0151 1334.1456 0.0000 0.0000 1782.7421 -7296.4912 305.0898 -9079.2333 -7340.9203 303.4929 -520.7656 -506.6132 30150.3769 -333.9869 -275.4311
ENERGY: 600000 5.3188 16.7636 11.0366 0.0000 -10467.7729 1394.2681 0.0000 0.0000 1746.1979 -7294.1880 298.8358 -9040.3859 -7347.3718 301.9592 -317.7527 -253.3375 30404.1849 -389.9381 -330.5553
ENERGY: 900000 3.3699 16.0192 11.9494 0.0000 -10565.8502 1351.0222 0.0000 0.0000 1735.9741 -7447.5154 297.0862 -9183.4895 -7352.2665 301.0086 -723.2736 -690.6691 29996.5723 -439.2151 -385.2685
ENERGY: 1200000 2.5880 15.8427 9.4361 0.0000 -10611.4570 1378.2275 0.0000 0.0000 1768.2228 -7437.1399 302.6051 -9205.3627 -7374.0003 299.8932 -673.0150 -591.5376 29988.6022 -303.8298 -242.1529
ENERGY: 1500000 2.7002 14.0016 10.2808 0.0000 -10628.9925 1473.6941 0.0000 0.0000 1766.0892 -7362.2265 302.2399 -9128.3157 -7376.4756 300.1085 353.4842 436.0932 30095.5357 -208.2253 -143.0313
TCL: Running FEP window   8: Lambda1 0.35   Lambda2 0.39999999999999997 [dLambda 0.04999999999999999]
TCL: Setting parameter firsttimestep to 0
TCL: Setting parameter alchLambda to 0.35
Info: NONBONDED TABLE R-SQUARED SPACING: 0.0625
Info: NONBONDED TABLE SIZE: 705 POINTS
TCL: Setting parameter alchLambda2 to 0.39999999999999997
Info: NONBONDED TABLE R-SQUARED SPACING: 0.0625
Info: NONBONDED TABLE SIZE: 705 POINTS
TCL: Running for 1500000 steps
ETITLE: TS BOND ANGLE DIHED IMPRP ELECT VDW BOUNDARY MISC KINETIC TOTAL TEMP POTENTIAL TOTALAVG TEMPAVG PRESSURE GPRESSURE VOLUME PRESSAVG GPRESSAVG
ENERGY: 0 2.7002 14.0016 10.2808 0.0000 -10628.9929 1472.8750 0.0000 0.0000 1765.2047 -7363.9305 302.0886 -9129.1352 -7363.9305 302.0886 348.2244 436.5075 30095.5357 348.2244 436.5075
ENERGY: 300000 3.6761 15.9040 9.0829 0.0000 -10570.8099 1464.3589 0.0000 0.0000 1793.7366 -7284.0514 306.9714 -9077.7880 -7342.6398 300.7941 731.0117 775.6275 29855.4103 401.4806 470.2593
ENERGY: 600000 5.7495 12.7773 9.6455 0.0000 -10633.1792 1469.2540 0.0000 0.0000 1754.2550 -7381.4978 300.2147 -9135.7528 -7372.1308 299.3935 294.3005 364.7324 29620.4659 183.4316 251.0634
ENERGY: 900000 6.6645 20.7996 9.0619 0.0000 -10568.4796 1481.6704 0.0000 0.0000 1804.0645 -7246.2187 308.7388 -9050.2832 -7350.9109 300.1424 691.6727 739.4338 30003.7424 93.4665 160.8097
ENERGY: 1200000 2.8993 21.1901 10.7277 0.0000 -10597.9871 1435.8790 0.0000 0.0000 1739.4440 -7387.8470 297.6800 -9127.2909 -7358.1558 300.2674 199.5946 247.4882 29649.6760 32.4326 104.6355
ENERGY: 1500000 7.9700 16.4403 8.9967 0.0000 -10587.7390 1427.2036 0.0000 0.0000 1784.5895 -7342.5388 305.4060 -9127.1284 -7350.1622 301.5748 -83.8810 -57.4396 29962.6089 -60.9022 12.6809
TCL: Running FEP window   9: Lambda1 0.39999999999999997 Lambda2 0.44999999999999996 [dLambda 0.04999999999999999]
TCL: Setting parameter firsttimestep to 0
TCL: Setting parameter alchLambda to 0.39999999999999997
Info: NONBONDED TABLE R-SQUARED SPACING: 0.0625
Info: NONBONDED TABLE SIZE: 705 POINTS
TCL: Setting parameter alchLambda2 to 0.44999999999999996
Info: NONBONDED TABLE R-SQUARED SPACING: 0.0625
Info: NONBONDED TABLE SIZE: 705 POINTS
TCL: Running for 1500000 steps
ETITLE: TS BOND ANGLE DIHED IMPRP ELECT VDW BOUNDARY MISC KINETIC TOTAL TEMP POTENTIAL TOTALAVG TEMPAVG PRESSURE GPRESSURE VOLUME PRESSAVG GPRESSAVG
ENERGY: 0 7.9700 16.4403 8.9967 0.0000 -10587.7385 1427.5189 0.0000 0.0000 1783.7151 -7343.0974 305.2563 -9126.8125 -7343.0974 305.2563 -130.1394 -45.8280 29962.6089 -130.1394 -45.8280
ENERGY: 300000 7.9298 15.0771 8.8034 0.0000 -10520.1620 1443.0937 0.0000 0.0000 1767.1332 -7278.1249 302.4186 -9045.2581 -7331.6144 302.5669 319.6068 279.6295 30093.7827 59.7950 96.7504
ENERGY: 600000 4.9315 14.8048 9.9199 0.0000 -10678.7677 1503.8230 0.0000 0.0000 1752.5465 -7392.7421 299.9223 -9145.2885 -7335.8080 302.3933 694.9619 765.2613 29553.3318 101.0008 139.7230
ENERGY: 900000 3.4811 14.6808 11.0156 0.0000 -10481.3474 1383.9273 0.0000 0.0000 1738.3406 -7329.9021 297.4912 -9068.2427 -7342.1979 301.1671 -316.3547 -332.2409 30364.8623 119.5012 163.3672
ENERGY: 1200000 3.9971 15.1736 9.9051 0.0000 -10469.4453 1372.0371 0.0000 0.0000 1785.3631 -7282.9692 305.5384 -9068.3323 -7336.6256 301.6358 -269.8680 -182.5009 30215.7458 101.2493 153.6783
ENERGY: 1500000 5.1281 17.4940 8.8204 0.0000 -10597.8966 1418.3028 0.0000 0.0000 1770.9238 -7377.2276 303.0673 -9148.1514 -7336.2234 301.6630 -229.4143 -219.4916 30337.3363 -0.1587 54.4215
TCL: Running FEP window  10: Lambda1 0.44999999999999996 Lambda2 0.49999999999999994 [dLambda 0.04999999999999999]
TCL: Setting parameter firsttimestep to 0
TCL: Setting parameter alchLambda to 0.44999999999999996
Info: NONBONDED TABLE R-SQUARED SPACING: 0.0625
Info: NONBONDED TABLE SIZE: 705 POINTS
TCL: Setting parameter alchLambda2 to 0.49999999999999994
Info: NONBONDED TABLE R-SQUARED SPACING: 0.0625
Info: NONBONDED TABLE SIZE: 705 POINTS
TCL: Running for 1500000 steps
ETITLE: TS BOND ANGLE DIHED IMPRP ELECT VDW BOUNDARY MISC KINETIC TOTAL TEMP POTENTIAL TOTALAVG TEMPAVG PRESSURE GPRESSURE VOLUME PRESSAVG GPRESSAVG
ENERGY: 0 5.1281 17.4940 8.8204 0.0000 -10597.8955 1418.4218 0.0000 0.0000 1770.0235 -7378.0078 302.9132 -9148.0313 -7378.0078 302.9132 -279.4889 -211.3409 30337.3363 -279.4889 -211.3409
ENERGY: 300000 2.8504 13.1159 9.5275 0.0000 -10651.1090 1446.4556 0.0000 0.0000 1695.8257 -7483.3339 290.2154 -9179.1596 -7372.4173 299.3427 180.8531 238.0643 29871.8347 -420.6550 -344.8063
ENERGY: 600000 1.9675 16.7661 9.2645 0.0000 -10672.1883 1459.9720 0.0000 0.0000 1704.1926 -7480.0256 291.6472 -9184.2182 -7381.3960 298.2207 -20.8711 115.3784 30095.4052 -419.9159 -335.3176
ENERGY: 900000 3.0372 19.9597 9.9582 0.0000 -10503.6750 1344.8470 0.0000 0.0000 1720.1666 -7405.7064 294.3810 -9125.8729 -7380.8309 298.5157 -878.5559 -787.2013 30417.5563 -370.2905 -288.2015
ENERGY: 1200000 7.3070 11.3709 8.8258 0.0000 -10444.5540 1321.8299 0.0000 0.0000 1785.2244 -7309.9961 305.5146 -9095.2204 -7373.4567 299.5549 -624.3191 -585.2884 30161.2624 -350.1511 -278.5049
ENERGY: 1500000 7.0894 17.2957 13.3032 0.0000 -10447.2304 1385.5178 0.0000 0.0000 1786.5016 -7237.5227 305.7332 -9024.0243 -7368.0660 299.8980 48.8688 85.0953 29919.5591 -255.7907 -182.7519
TCL: Running FEP window  11: Lambda1 0.49999999999999994 Lambda2 0.5499999999999999 [dLambda 0.04999999999999999]
TCL: Setting parameter firsttimestep to 0
TCL: Setting parameter alchLambda to 0.49999999999999994
Info: NONBONDED TABLE R-SQUARED SPACING: 0.0625
Info: NONBONDED TABLE SIZE: 705 POINTS
TCL: Setting parameter alchLambda2 to 0.5499999999999999
Info: NONBONDED TABLE R-SQUARED SPACING: 0.0625
Info: NONBONDED TABLE SIZE: 705 POINTS
TCL: Running for 1500000 steps
ETITLE: TS BOND ANGLE DIHED IMPRP ELECT VDW BOUNDARY MISC KINETIC TOTAL TEMP POTENTIAL TOTALAVG TEMPAVG PRESSURE GPRESSURE VOLUME PRESSAVG GPRESSAVG
ENERGY: 0 7.0894 17.2957 13.3032 0.0000 -10447.2306 1386.4631 0.0000 0.0000 1785.6650 -7237.4142 305.5900 -9023.0792 -7237.4142 305.5900 21.0459 103.9698 29919.5591 21.0459 103.9698
ENERGY: 300000 8.1628 14.5067 11.5943 0.0000 -10551.3941 1462.5261 0.0000 0.0000 1754.9585 -7299.6456 300.3351 -9054.6041 -7297.7451 304.0196 227.9017 298.4111 30202.4095 -188.9277 -126.5551
ENERGY: 600000 4.1273 16.4104 9.3082 0.0000 -10534.7392 1355.2118 0.0000 0.0000 1755.5136 -7394.1680 300.4301 -9149.6816 -7338.7311 301.8663 -454.1535 -408.7057 29802.2707 -68.3534 -8.0268
ENERGY: 900000 3.0439 14.3392 9.6410 0.0000 -10560.1323 1448.1250 0.0000 0.0000 1797.4542 -7287.5291 307.6076 -9084.9833 -7346.4469 301.5587 455.7277 512.5871 30050.8990 -33.0478 31.9861
ENERGY: 1200000 3.7774 16.6425 9.9032 0.0000 -10591.0987 1408.7774 0.0000 0.0000 1691.6791 -7460.3191 289.5057 -9151.9982 -7360.3533 300.2609 -241.2138 -160.7609 30073.0323 -85.8433 -18.7003
ENERGY: 1500000 4.7229 18.2833 9.0712 0.0000 -10742.1707 1544.1946 0.0000 0.0000 1791.5862 -7374.3124 306.6034 -9165.8986 -7362.5318 300.9514 860.2361 919.7323 29865.7840 -63.4695 5.1965
TCL: Running FEP window  12: Lambda1 0.5499999999999999 Lambda2 0.6    [dLambda 0.050000000000000044]
TCL: Setting parameter firsttimestep to 0
TCL: Setting parameter alchLambda to 0.5499999999999999
Info: NONBONDED TABLE R-SQUARED SPACING: 0.0625
Info: NONBONDED TABLE SIZE: 705 POINTS
TCL: Setting parameter alchLambda2 to 0.6
Info: NONBONDED TABLE R-SQUARED SPACING: 0.0625
Info: NONBONDED TABLE SIZE: 705 POINTS
TCL: Running for 1500000 steps
ETITLE: TS BOND ANGLE DIHED IMPRP ELECT VDW BOUNDARY MISC KINETIC TOTAL TEMP POTENTIAL TOTALAVG TEMPAVG PRESSURE GPRESSURE VOLUME PRESSAVG GPRESSAVG
ENERGY: 0 4.7229 18.2833 9.0712 0.0000 -10741.9892 1543.4667 0.0000 0.0000 1790.7453 -7375.6998 306.4595 -9166.4451 -7375.6998 306.4595 825.2841 921.6520 29865.7840 825.2841 921.6520
ENERGY: 300000 1.8377 15.1851 8.7972 0.0000 -10610.2121 1448.9049 0.0000 0.0000 1797.8540 -7337.6333 307.6760 -9135.4873 -7366.8332 302.5123 344.2004 453.2010 30012.3231 121.3758 211.0528
ENERGY: 600000 3.5749 17.0104 9.5282 0.0000 -10467.5635 1381.0167 0.0000 0.0000 1709.1490 -7347.2843 292.4955 -9056.4333 -7358.1959 300.1156 -164.9702 -61.8000 29957.2961 -23.4490 56.7653
ENERGY: 900000 1.7093 14.0891 10.1014 0.0000 -10538.9310 1352.0628 0.0000 0.0000 1692.2398 -7468.7286 289.6017 -9160.9684 -7366.0866 300.2415 -689.9794 -535.1069 29934.0485 -101.1018 -18.5672
ENERGY: 1200000 3.5262 13.7839 9.9946 0.0000 -10478.8323 1334.3051 0.0000 0.0000 1797.4854 -7319.7370 307.6129 -9117.2225 -7358.8002 300.3263 -668.4594 -619.5425 30543.0272 -175.0884 -100.7516
ENERGY: 1500000 9.1970 16.2617 10.3550 0.0000 -10623.3844 1458.2661 0.0000 0.0000 1725.8920 -7403.4125 295.3608 -9129.3045 -7361.2760 300.5625 -103.2566 -62.3221 30422.2392 -79.9514 -10.6425
TCL: Running FEP window  13: Lambda1 0.6    Lambda2 0.65   [dLambda 0.050000000000000044]
TCL: Setting parameter firsttimestep to 0
TCL: Setting parameter alchLambda to 0.6
Info: NONBONDED TABLE R-SQUARED SPACING: 0.0625
Info: NONBONDED TABLE SIZE: 705 POINTS
TCL: Setting parameter alchLambda2 to 0.65
Info: NONBONDED TABLE R-SQUARED SPACING: 0.0625
Info: NONBONDED TABLE SIZE: 705 POINTS
TCL: Running for 1500000 steps
ETITLE: TS BOND ANGLE DIHED IMPRP ELECT VDW BOUNDARY MISC KINETIC TOTAL TEMP POTENTIAL TOTALAVG TEMPAVG PRESSURE GPRESSURE VOLUME PRESSAVG GPRESSAVG
ENERGY: 0 9.1970 16.2617 10.3550 0.0000 -10623.5078 1458.2360 0.0000 0.0000 1725.0237 -7404.4343 295.2122 -9129.4580 -7404.4343 295.2122 -126.6155 -51.2350 30422.2392 -126.6155 -51.2350
ENERGY: 300000 6.3605 12.9492 11.2090 0.0000 -10535.7910 1405.2927 0.0000 0.0000 1766.3796 -7333.5999 302.2896 -9099.9795 -7364.7606 296.9454 3.5985 73.7092 30095.6587 -88.1496 -27.3868
ENERGY: 600000 5.7134 12.4998 10.0180 0.0000 -10598.3803 1414.7511 0.0000 0.0000 1813.9893 -7341.4087 310.4373 -9155.3980 -7368.2245 299.6100 16.7475 78.8427 29682.8913 -35.0031 29.1452
ENERGY: 900000 5.4893 16.3636 9.5211 0.0000 -10706.2977 1480.9142 0.0000 0.0000 1788.0994 -7405.9101 306.0066 -9194.0095 -7373.4491 300.4429 198.0807 291.4644 30027.2229 -28.4056 40.3267
ENERGY: 1200000 4.1752 26.2070 11.3596 0.0000 -10471.4758 1355.4985 0.0000 0.0000 1751.2522 -7322.9833 299.7008 -9074.2355 -7368.7090 300.0414 -630.4498 -527.4639 30640.8382 -98.7793 -20.2355
ENERGY: 1500000 3.0336 16.1673 11.4353 0.0000 -10583.0512 1435.7251 0.0000 0.0000 1795.4759 -7321.2139 307.2690 -9116.6899 -7353.7485 300.7810 115.3308 157.9032 30363.7927 -97.6027 -28.9522
TCL: Running FEP window  14: Lambda1 0.65   Lambda2 0.7000000000000001 [dLambda 0.050000000000000044]
TCL: Setting parameter firsttimestep to 0
TCL: Setting parameter alchLambda to 0.65
Info: NONBONDED TABLE R-SQUARED SPACING: 0.0625
Info: NONBONDED TABLE SIZE: 705 POINTS
TCL: Setting parameter alchLambda2 to 0.7000000000000001
Info: NONBONDED TABLE R-SQUARED SPACING: 0.0625
Info: NONBONDED TABLE SIZE: 705 POINTS
TCL: Running for 1500000 steps
ETITLE: TS BOND ANGLE DIHED IMPRP ELECT VDW BOUNDARY MISC KINETIC TOTAL TEMP POTENTIAL TOTALAVG TEMPAVG PRESSURE GPRESSURE VOLUME PRESSAVG GPRESSAVG
ENERGY: 0 3.0336 16.1673 11.4353 0.0000 -10584.0558 1437.1125 0.0000 0.0000 1794.6243 -7321.6827 307.1233 -9116.3070 -7321.6827 307.1233 106.7532 181.5303 30363.7927 106.7532 181.5303
ENERGY: 300000 2.4924 19.4617 9.8143 0.0000 -10499.3241 1397.2326 0.0000 0.0000 1782.0559 -7288.2671 304.9724 -9070.3230 -7344.7724 304.9280 -11.1978 53.1559 29999.0520 -1.8540 58.9308
ENERGY: 600000 5.7758 14.9194 10.4903 0.0000 -10367.1046 1265.4664 0.0000 0.0000 1788.9157 -7281.5368 306.1463 -9070.4526 -7339.6024 304.0641 -1306.1026 -1239.7719 30475.8819 -250.6228 -184.1999
ENERGY: 900000 4.0650 17.9501 9.6383 0.0000 -10521.9154 1362.5571 0.0000 0.0000 1739.0941 -7388.6107 297.6201 -9127.7048 -7342.1570 304.1874 -334.4400 -255.8017 30026.8945 -230.0525 -163.3705
ENERGY: 1200000 3.4623 13.0702 10.2746 0.0000 -10582.6590 1443.7787 0.0000 0.0000 1788.2162 -7323.8569 306.0266 -9112.0731 -7346.5384 304.2997 348.0255 375.7609 30025.0897 -133.3340 -76.6637
ENERGY: 1500000 3.4876 10.9063 11.4553 0.0000 -10543.1631 1413.2659 0.0000 0.0000 1751.3713 -7352.6767 299.7212 -9104.0480 -7351.1103 303.6996 -59.5260 21.5743 30066.3149 -117.5860 -53.3365
TCL: Running FEP window  15: Lambda1 0.7000000000000001 Lambda2 0.7500000000000001 [dLambda 0.050000000000000044]
TCL: Setting parameter firsttimestep to 0
TCL: Setting parameter alchLambda to 0.7000000000000001
Info: NONBONDED TABLE R-SQUARED SPACING: 0.0625
Info: NONBONDED TABLE SIZE: 705 POINTS
TCL: Setting parameter alchLambda2 to 0.7500000000000001
Info: NONBONDED TABLE R-SQUARED SPACING: 0.0625
Info: NONBONDED TABLE SIZE: 705 POINTS
TCL: Running for 1500000 steps
ETITLE: TS BOND ANGLE DIHED IMPRP ELECT VDW BOUNDARY MISC KINETIC TOTAL TEMP POTENTIAL TOTALAVG TEMPAVG PRESSURE GPRESSURE VOLUME PRESSAVG GPRESSAVG
ENERGY: 0 3.4876 10.9063 11.4553 0.0000 -10544.0937 1413.4255 0.0000 0.0000 1750.5139 -7354.3051 299.5745 -9104.8190 -7354.3051 299.5745 -44.9575 32.1272 30066.3149 -44.9575 32.1272
ENERGY: 300000 5.5994 11.5204 11.3456 0.0000 -10657.6303 1481.4663 0.0000 0.0000 1755.6051 -7392.0934 300.4457 -9147.6985 -7359.0432 298.7108 263.2491 308.3860 30265.5113 91.9059 145.1085
ENERGY: 600000 4.6241 14.3341 9.1008 0.0000 -10552.1005 1452.8092 0.0000 0.0000 1777.3265 -7293.9056 304.1630 -9071.2322 -7347.3626 301.8551 168.3414 216.0755 30359.1804 -2.5907 57.9312
ENERGY: 900000 4.0913 16.3435 10.7333 0.0000 -10580.6522 1386.8819 0.0000 0.0000 1805.1379 -7357.4642 308.9225 -9162.6021 -7343.6625 302.7352 -498.3101 -461.9234 30551.6764 -44.7159 9.0345
ENERGY: 1200000 2.5366 15.0425 9.8136 0.0000 -10655.1515 1463.9966 0.0000 0.0000 1767.9287 -7395.8334 302.5547 -9163.7621 -7362.5254 301.4399 143.8924 265.5699 30098.7571 -17.6712 46.9659
ENERGY: 1500000 4.2754 18.9839 10.9556 0.0000 -10593.9788 1455.6336 0.0000 0.0000 1768.5190 -7335.6113 302.6557 -9104.1302 -7357.5710 301.8901 415.5059 426.6647 30195.9184 52.4454 115.0886
TCL: Running FEP window  16: Lambda1 0.7500000000000001 Lambda2 0.8000000000000002 [dLambda 0.050000000000000044]
TCL: Setting parameter firsttimestep to 0
TCL: Setting parameter alchLambda to 0.7500000000000001
Info: NONBONDED TABLE R-SQUARED SPACING: 0.0625
Info: NONBONDED TABLE SIZE: 705 POINTS
TCL: Setting parameter alchLambda2 to 0.8000000000000002
Info: NONBONDED TABLE R-SQUARED SPACING: 0.0625
Info: NONBONDED TABLE SIZE: 705 POINTS
TCL: Running for 1500000 steps
ETITLE: TS BOND ANGLE DIHED IMPRP ELECT VDW BOUNDARY MISC KINETIC TOTAL TEMP POTENTIAL TOTALAVG TEMPAVG PRESSURE GPRESSURE VOLUME PRESSAVG GPRESSAVG
ENERGY: 0 4.2754 18.9839 10.9556 0.0000 -10595.0616 1456.5717 0.0000 0.0000 1767.6415 -7336.6335 302.5056 -9104.2750 -7336.6335 302.5056 371.0079 447.9343 30195.9184 371.0079 447.9343
ENERGY: 300000 3.4402 20.9192 9.3370 0.0000 -10636.9133 1544.8300 0.0000 0.0000 1719.6063 -7338.7805 294.2851 -9058.3868 -7333.7144 301.6949 941.7652 1029.8195 30260.8846 91.0624 157.8035
ENERGY: 600000 5.7383 14.3836 10.4971 0.0000 -10625.5750 1467.8200 0.0000 0.0000 1740.0401 -7387.0959 297.7820 -9127.1360 -7353.6076 300.2119 353.1914 361.5196 29935.9350 195.6136 258.0830
ENERGY: 900000 2.6719 16.6301 10.4190 0.0000 -10651.7586 1493.9586 0.0000 0.0000 1785.5502 -7342.5289 305.5704 -9128.0790 -7361.1817 301.4260 732.9012 756.5793 30056.0053 281.1038 344.9986
ENERGY: 1200000 5.6088 18.2868 11.2316 0.0000 -10659.6178 1457.7228 0.0000 0.0000 1741.9824 -7424.7855 298.1144 -9166.7678 -7358.7585 301.1859 -35.3748 48.7149 30145.5901 194.9947 263.5763
ENERGY: 1500000 6.1747 13.5782 10.9776 0.0000 -10639.7842 1445.5177 0.0000 0.0000 1737.3878 -7426.1483 297.3281 -9163.5360 -7364.4109 300.7788 -88.9663 -47.1779 30044.8199 120.5147 185.9952
TCL: Running FEP window  17: Lambda1 0.8000000000000002 Lambda2 0.8500000000000002 [dLambda 0.050000000000000044]
TCL: Setting parameter firsttimestep to 0
TCL: Setting parameter alchLambda to 0.8000000000000002
Info: NONBONDED TABLE R-SQUARED SPACING: 0.0625
Info: NONBONDED TABLE SIZE: 705 POINTS
TCL: Setting parameter alchLambda2 to 0.8500000000000002
Info: NONBONDED TABLE R-SQUARED SPACING: 0.0625
Info: NONBONDED TABLE SIZE: 705 POINTS
TCL: Running for 1500000 steps
ETITLE: TS BOND ANGLE DIHED IMPRP ELECT VDW BOUNDARY MISC KINETIC TOTAL TEMP POTENTIAL TOTALAVG TEMPAVG PRESSURE GPRESSURE VOLUME PRESSAVG GPRESSAVG
ENERGY: 0 6.1747 13.5782 10.9776 0.0000 -10641.1636 1446.7851 0.0000 0.0000 1736.5319 -7427.1161 297.1816 -9163.6480 -7427.1161 297.1816 -88.9161 -19.6443 30044.8199 -88.9161 -19.6443
ENERGY: 300000 3.4503 16.8093 10.3962 0.0000 -10419.2549 1279.2434 0.0000 0.0000 1754.2380 -7355.1177 300.2118 -9109.3557 -7384.6496 295.9136 -1269.0700 -1257.5307 30590.7084 -553.6886 -500.5756
ENERGY: 600000 1.7155 16.1022 11.4267 0.0000 -10529.8705 1317.9050 0.0000 0.0000 1714.9019 -7467.8193 293.4800 -9182.7211 -7380.0184 297.2340 -1033.3358 -1013.0873 30337.4261 -483.2608 -439.0141
ENERGY: 900000 5.5556 13.2047 10.3178 0.0000 -10573.6214 1441.7314 0.0000 0.0000 1735.1473 -7367.6646 296.9447 -9102.8119 -7398.1004 296.1306 230.8938 287.7294 30204.1775 -461.8664 -403.9941
ENERGY: 1200000 1.2499 16.8171 10.1962 0.0000 -10606.1455 1430.0465 0.0000 0.0000 1761.8354 -7386.0003 301.5120 -9147.8357 -7388.5386 297.5419 161.4624 256.0899 29909.1463 -406.0055 -345.5346
ENERGY: 1500000 4.4880 16.4818 9.2828 0.0000 -10426.4424 1356.3908 0.0000 0.0000 1783.8319 -7255.9670 305.2763 -9039.7989 -7370.1253 298.5416 -280.5257 -234.1305 30498.1100 -325.0915 -265.8027
TCL: Running FEP window  18: Lambda1 0.8500000000000002 Lambda2 0.9000000000000002 [dLambda 0.050000000000000044]
TCL: Setting parameter firsttimestep to 0
TCL: Setting parameter alchLambda to 0.8500000000000002
Info: NONBONDED TABLE R-SQUARED SPACING: 0.0625
Info: NONBONDED TABLE SIZE: 705 POINTS
TCL: Setting parameter alchLambda2 to 0.9000000000000002
Info: NONBONDED TABLE R-SQUARED SPACING: 0.0625
Info: NONBONDED TABLE SIZE: 705 POINTS
TCL: Running for 1500000 steps
ETITLE: TS BOND ANGLE DIHED IMPRP ELECT VDW BOUNDARY MISC KINETIC TOTAL TEMP POTENTIAL TOTALAVG TEMPAVG PRESSURE GPRESSURE VOLUME PRESSAVG GPRESSAVG
ENERGY: 0 4.4880 16.4818 9.2828 0.0000 -10428.2010 1357.7615 0.0000 0.0000 1782.9735 -7257.2133 305.1294 -9040.1868 -7257.2133 305.1294 -283.9621 -203.0806 30498.1100 -283.9621 -203.0806
ENERGY: 300000 7.3065 24.3713 9.1087 0.0000 -10638.1518 1413.1188 0.0000 0.0000 1792.3644 -7391.8822 306.7365 -9184.2466 -7331.8247 305.0647 -56.8943 -18.8337 29749.4497 152.2496 205.9075
ENERGY: 600000 3.8265 16.1121 9.4945 0.0000 -10562.6487 1445.8239 0.0000 0.0000 1759.3040 -7328.0877 301.0787 -9087.3917 -7338.0090 304.1154 266.7583 322.8421 30117.6053 102.9718 170.2006
ENERGY: 900000 3.4043 15.5360 8.8233 0.0000 -10589.4561 1438.0997 0.0000 0.0000 1717.9829 -7405.6100 294.0073 -9123.5929 -7324.1032 304.5789 -144.4590 -123.8611 30574.9640 116.8098 184.8689
ENERGY: 1200000 6.8949 10.7222 10.0722 0.0000 -10488.4985 1386.4753 0.0000 0.0000 1774.5755 -7299.7585 303.6922 -9074.3340 -7323.0720 303.9575 -255.6304 -186.4688 30433.8406 61.0739 130.8230
ENERGY: 1500000 5.8787 15.5310 10.3667 0.0000 -10534.8993 1425.3900 0.0000 0.0000 1726.2742 -7351.4588 295.4262 -9077.7329 -7334.2124 302.2840 116.4786 177.1724 30154.8604 144.2259 206.9247
TCL: Running FEP window  19: Lambda1 0.9000000000000002 Lambda2 0.9500000000000003 [dLambda 0.050000000000000044]
TCL: Setting parameter firsttimestep to 0
TCL: Setting parameter alchLambda to 0.9000000000000002
Info: NONBONDED TABLE R-SQUARED SPACING: 0.0625
Info: NONBONDED TABLE SIZE: 705 POINTS
TCL: Setting parameter alchLambda2 to 0.9500000000000003
Info: NONBONDED TABLE R-SQUARED SPACING: 0.0625
Info: NONBONDED TABLE SIZE: 705 POINTS
TCL: Running for 1500000 steps
ETITLE: TS BOND ANGLE DIHED IMPRP ELECT VDW BOUNDARY MISC KINETIC TOTAL TEMP POTENTIAL TOTALAVG TEMPAVG PRESSURE GPRESSURE VOLUME PRESSAVG GPRESSAVG
ENERGY: 0 5.8787 15.5310 10.3667 0.0000 -10535.9375 1426.5769 0.0000 0.0000 1725.3789 -7352.2053 295.2730 -9077.5842 -7352.2053 295.2730 133.0037 205.6666 30154.8604 133.0037 205.6666
ENERGY: 300000 0.8508 10.4991 10.5527 0.0000 -10545.0498 1388.5046 0.0000 0.0000 1755.3711 -7379.2716 300.4057 -9134.6427 -7358.9263 298.5728 -195.0671 -169.9346 30253.7328 -40.8599 4.9261
ENERGY: 600000 2.8078 18.4220 9.5095 0.0000 -10622.7119 1415.6500 0.0000 0.0000 1728.4414 -7447.8813 295.7971 -9176.3227 -7359.4172 299.6869 -91.7961 -129.5642 30449.8160 -216.9580 -183.8510
ENERGY: 900000 2.8154 17.4505 10.6558 0.0000 -10723.9857 1499.7788 0.0000 0.0000 1759.3339 -7433.9513 301.0839 -9193.2853 -7369.5786 299.7904 495.3081 580.8988 29815.0852 -97.6800 -66.4956
ENERGY: 1200000 2.6167 13.6263 10.2707 0.0000 -10607.1103 1441.0271 0.0000 0.0000 1785.1787 -7354.3908 305.5068 -9139.5695 -7361.9209 301.9674 548.1712 553.4358 29750.2676 -100.2020 -70.9500
ENERGY: 1500000 4.4767 12.4688 9.9041 0.0000 -10526.4802 1378.7325 0.0000 0.0000 1740.0250 -7380.8731 297.7794 -9120.8980 -7371.4437 301.2233 -344.7501 -318.8741 30390.8656 -45.8967 -11.9944
TCL: Running FEP window  20: Lambda1 0.9500000000000003 Lambda2 1.0    [dLambda 0.04999999999999971]
TCL: Setting parameter firsttimestep to 0
TCL: Setting parameter alchLambda to 0.9500000000000003
Info: NONBONDED TABLE R-SQUARED SPACING: 0.0625
Info: NONBONDED TABLE SIZE: 705 POINTS
TCL: Setting parameter alchLambda2 to 1.0
Info: NONBONDED TABLE R-SQUARED SPACING: 0.0625
Info: NONBONDED TABLE SIZE: 705 POINTS
TCL: Running for 1500000 steps
ETITLE: TS BOND ANGLE DIHED IMPRP ELECT VDW BOUNDARY MISC KINETIC TOTAL TEMP POTENTIAL TOTALAVG TEMPAVG PRESSURE GPRESSURE VOLUME PRESSAVG GPRESSAVG
ENERGY: 0 4.4767 12.4688 9.9041 0.0000 -10527.4698 1378.6345 0.0000 0.0000 1739.1633 -7382.8224 297.6320 -9121.9857 -7382.8224 297.6320 -401.7319 -312.0292 30390.8656 -401.7319 -312.0292
ENERGY: 300000 5.3708 8.4840 10.9532 0.0000 -10576.9364 1425.9365 0.0000 0.0000 1740.0107 -7386.1813 297.7770 -9126.1920 -7366.8074 299.7438 128.2023 192.4715 30338.6670 -264.6232 -172.6731
ENERGY: 600000 3.3910 12.7754 9.8087 0.0000 -10616.4859 1414.5310 0.0000 0.0000 1789.4401 -7386.5396 306.2361 -9175.9797 -7375.8894 299.7050 200.7392 230.0175 29977.9876 -202.8175 -133.1656
ENERGY: 900000 8.0519 16.3274 9.1780 0.0000 -10603.4592 1400.1666 0.0000 0.0000 1740.3122 -7429.4231 297.8286 -9169.7353 -7383.0314 299.2778 -430.2337 -346.8705 30178.4851 -157.5504 -100.4644
ENERGY: 1200000 5.8105 18.4639 9.3294 0.0000 -10447.0880 1313.6879 0.0000 0.0000 1718.5672 -7381.2293 294.1072 -9099.7964 -7389.4145 298.2062 -831.2512 -793.5100 30574.8134 -185.6268 -127.6723
ENERGY: 1500000 6.1712 15.2716 11.5506 0.0000 -10516.6385 1379.7909 0.0000 0.0000 1712.2402 -7391.6140 293.0245 -9103.8542 -7392.1867 297.7048 -550.0641 -559.0338 30562.0958 -208.4031 -155.8908
TCL: Exiting due to exit command.
