Info: SIMULATION PARAMETERS:
Info: TIMESTEP               2
Info: NUMBER OF STEPS        0
Info: STEPS PER CYCLE        10
Info: PERIODIC CELL BASIS 1  31.0775 0 0
Info: PERIODIC CELL BASIS 2  0 29.6678 0
Info: PERIODIC CELL BASIS 3  0 0 33.2671
Info: PERIODIC CELL CENTER   0 0 0
Info: WRAPPING WATERS AROUND PERIODIC BOUNDARIES ON OUTPUT.
Info: WRAPPING ALL CLUSTERS AROUND PERIODIC BOUNDARIES ON OUTPUT.
Info: FIRST LDB TIMESTEP     50
Info: LAST LDB TIMESTEP     -1
Info: HOM BACKGROUND SCALING 1
Info: PME BACKGROUND SCALING 1
Info: MIN ATOMS PER PATCH    40
Info: EMPTY PATCH LOAD       40 ATOMS
Info: VELOCITY FILE          mobley_2457863_equil.vel
Info: CENTER OF MASS MOVING INITIALLY? NO
Info: DIELECTRIC             1
Info: EXCLUDE                SCALED ONE-FOUR
Info: 1-4 ELECTROSTATICS SCALED BY 0.833333
Info: MODIFIED 1-4 VDW PARAMETERS WILL BE USED
Info: DCD FILENAME           mobley_2457863_prod.dcd
Info: DCD FREQUENCY          100000
Info: DCD FIRST STEP         100000
Info: DCD FILE WILL CONTAIN UNIT CELL DATA
Info: XST FILENAME           mobley_2457863_prod.xst
Info: XST FREQUENCY          100000
Info: NO VELOCITY DCD OUTPUT
Info: NO FORCE DCD OUTPUT
Info: OUTPUT FILENAME        mobley_2457863_prod
Info: BINARY OUTPUT FILES WILL BE USED
Info: RESTART FILENAME       mobley_2457863_prod.restart
Info: RESTART FREQUENCY      100000
Info: BINARY RESTART FILES WILL BE USED
Info: CUTOFF                 9
Info: PAIRLIST DISTANCE      11
Info: PAIRLIST SHRINK RATE   0.01
Info: PAIRLIST GROW RATE     0.01
Info: PAIRLIST TRIGGER       0.3
Info: PAIRLISTS PER CYCLE    2
Info: PAIRLISTS ENABLED
Info: MARGIN                 2
Info: HYDROGEN GROUP CUTOFF  2.5
Info: PATCH DIMENSION        15.5
Info: ENERGY OUTPUT STEPS    100000
Info: ENERGY EVALUATION STEPS    100000
Info: OUTPUT ENERGY PRECISION 4
Info: CROSSTERM ENERGY INCLUDED IN DIHEDRAL
Info: TIMING OUTPUT STEPS    1000000
Info: PRESSURE OUTPUT STEPS  100000
Info: ALCHEMICAL FEP ON
Info: FEP CURRENT LAMBDA VALUE     0
Info: FEP COMPARISON LAMBDA VALUE  0.05
Info: FEP INTRA-ALCHEMICAL NON-BONDED INTERACTIONS WILL BE RETAINED
Info: FEP INTRA-ALCHEMICAL BONDED INTERACTIONS WILL BE RETAINED
Info: FEP VDW SHIFTING COEFFICIENT 5
Info: FEP ELEC. ACTIVE FOR ANNIHILATED PARTICLES BETWEEN LAMBDA = 0 AND LAMBDA = 0.5
Info: FEP ELEC. ACTIVE FOR EXNIHILATED PARTICLES BETWEEN LAMBDA = 0.5 AND LAMBDA = 1
Info: FEP VDW ACTIVE FOR ANNIHILATED PARTICLES BETWEEN LAMBDA = 0 AND LAMBDA = 1
Info: FEP VDW ACTIVE FOR EXNIHILATED PARTICLES BETWEEN LAMBDA = 0 AND LAMBDA = 1
Info: FEP BOND ACTIVE FOR ANNIHILATED PARTICLES BETWEEN LAMBDA = 1 AND LAMBDA = 1
Info: FEP BOND ACTIVE FOR EXNIHILATED PARTICLES BETWEEN LAMBDA = 0 AND LAMBDA = 0
Info: LANGEVIN DYNAMICS ACTIVE
Info: LANGEVIN TEMPERATURE   300
Info: LANGEVIN USING BBK INTEGRATOR
Info: LANGEVIN DAMPING COEFFICIENT IS 1 INVERSE PS
Info: LANGEVIN DYNAMICS APPLIED TO HYDROGENS
Info: LANGEVIN PISTON PRESSURE CONTROL ACTIVE
Info:        TARGET PRESSURE IS 1.01325 BAR
Info:     OSCILLATION PERIOD IS 50 FS
Info:             DECAY TIME IS 25 FS
Info:     PISTON TEMPERATURE IS 300 K
Info:       PRESSURE CONTROL IS GROUP-BASED
Info:    INITIAL STRAIN RATE IS 0.000295029 0.000295029 0.000295029
Info:       CELL FLUCTUATION IS ISOTROPIC
Info: PARTICLE MESH EWALD (PME) ACTIVE
Info: PME TOLERANCE               1e-06
Info: PME EWALD COEFFICIENT       0.348832
Info: PME INTERPOLATION ORDER     4
Info: PME GRID DIMENSIONS         32 32 36
Info: PME MAXIMUM GRID SPACING    1
Info: PME CALCULATION WILL BE PERFORMED ON GPU
Info: FULL ELECTROSTATIC EVALUATION FREQUENCY      2
Info: USING VERLET I (r-RESPA) MTS SCHEME.
Info: C1 SPLITTING OF LONG RANGE ELECTROSTATICS
Info: PLACING ATOMS IN PATCHES BY HYDROGEN GROUPS
Info: RIGID BONDS TO HYDROGEN : ALL
Info:         ERROR TOLERANCE : 1e-08
Info:          MAX ITERATIONS : 100
Info: RIGID WATER USING SETTLE ALGORITHM
Info: RANDOM NUMBER SEED     1743764653
Info: USE HYDROGEN BONDS?    NO
Info: Using AMBER format force field!
Info: AMBER PARM FILE        mobley_2457863.prmtop
Info: COORDINATE PDB         mobley_2457863.pdb
Info: Exclusions will be read from PARM file!
Info: SCNB (VDW SCALING)     2
Info: USING ARITHMETIC MEAN TO COMBINE L-J SIGMA PARAMETERS
Info: BINARY COORDINATES     mobley_2457863_equil.coor
Info: SUMMARY OF PARAMETERS:
Info: 9 BONDS
Info: 8 ANGLES
Info:   8 HARMONIC
Info:   0 COSINE-BASED
Info: 4 DIHEDRAL
Info: 0 IMPROPER
Info: 0 CROSSTERM
Info: 0 VDW
Info: 36 VDW_PAIRS
Info: 0 NBTHOLE_PAIRS
Info: To read alchdata from file: mobley_2457863.pdb
Info: To read alchflag data from column: 5
Info: STRUCTURE SUMMARY:
Info: 2969 ATOMS
Info: 2969 BONDS
Info: 26 ANGLES
Info: 37 DIHEDRALS
Info: 0 IMPROPERS
Info: 0 CROSSTERMS
Info: 3023 EXCLUSIONS
Info: 2960 RIGID BONDS
Info: ALCH: 0 ATOMS TO DISAPPEAR IN FINAL STATE
Info: ALCH: 17 ATOMS TO APPEAR IN FINAL STATE
Info: 5947 DEGREES OF FREEDOM
Info: 993 HYDROGEN GROUPS
Info: 4 ATOMS IN LARGEST HYDROGEN GROUP
Info: 993 MIGRATION GROUPS
Info: 4 ATOMS IN LARGEST MIGRATION GROUP
Info: TOTAL MASS = 17851.9 amu
Info: TOTAL CHARGE = 0.000200033 e
Info: MASS DENSITY = 0.966488 g/cm^3
Info: ATOM DENSITY = 0.0967974 atoms/A^3
Info: ADDED 0 IMPLICIT EXCLUSIONS
Info: NONBONDED TABLE R-SQUARED SPACING: 0.0625
Info: NONBONDED TABLE SIZE: 705 POINTS
Info: REMOVING COM VELOCITY 0.113532 0.200823 -0.292289
Info: Use 3D box decompostion in PME FFT.
Info: Updated CUDA force table with 4096 elements.
Info: Updated CUDA LJ table with 8 x 8 elements.
Info: Found 18 unique exclusion lists needing 44 bytes
TCL: Running for 1500000 steps
ETITLE: TS BOND ANGLE DIHED IMPRP ELECT VDW BOUNDARY MISC KINETIC TOTAL TEMP POTENTIAL TOTALAVG TEMPAVG PRESSURE GPRESSURE VOLUME PRESSAVG GPRESSAVG
ENERGY: 0 2.4088 6.8951 1.6407 0.0000 -10714.0032 1447.6234 0.0000 0.0000 1847.7550 -7407.6802 312.7064 -9255.4352 -7407.6802 312.7064 144.4720 223.6174 30672.3118 144.4720 223.6174
ENERGY: 300000 5.1341 6.4963 12.1479 0.0000 -10756.2600 1442.6870 0.0000 0.0000 1784.4908 -7505.3039 301.9999 -9289.7946 -7485.6600 305.5215 -484.3386 -389.8374 30822.2740 -20.9230 56.9431
ENERGY: 600000 1.3883 5.5856 5.1285 0.0000 -10746.2211 1427.8145 0.0000 0.0000 1792.9853 -7513.3189 303.4374 -9306.3041 -7516.4429 303.6828 237.1150 285.6776 29899.0985 -70.2133 17.1193
ENERGY: 900000 3.5074 7.3555 4.3296 0.0000 -10912.8837 1499.6133 0.0000 0.0000 1690.7358 -7707.3421 286.1332 -9398.0779 -7533.1181 302.2608 360.7004 407.7911 29854.8702 -64.0472 14.0522
ENERGY: 1200000 2.5916 4.9034 5.2523 0.0000 -10655.2842 1365.1369 0.0000 0.0000 1766.3219 -7511.0781 298.9250 -9277.4000 -7538.8525 301.6298 -760.9712 -633.7390 30602.8300 -29.3600 50.8056
ENERGY: 1500000 6.2011 5.9598 2.2716 0.0000 -11055.4597 1552.6177 0.0000 0.0000 1764.8119 -7723.5975 298.6695 -9488.4094 -7553.2350 301.6288 346.6473 345.2223 29851.7012 -38.5483 33.1957
TCL: Running FEP window   2: Lambda1 0.05   Lambda2 0.1    [dLambda 0.05  ]
TCL: Setting parameter firsttimestep to 0
TCL: Setting parameter alchLambda to 0.05
Info: NONBONDED TABLE R-SQUARED SPACING: 0.0625
Info: NONBONDED TABLE SIZE: 705 POINTS
TCL: Setting parameter alchLambda2 to 0.1
Info: NONBONDED TABLE R-SQUARED SPACING: 0.0625
Info: NONBONDED TABLE SIZE: 705 POINTS
TCL: Running for 1500000 steps
ETITLE: TS BOND ANGLE DIHED IMPRP ELECT VDW BOUNDARY MISC KINETIC TOTAL TEMP POTENTIAL TOTALAVG TEMPAVG PRESSURE GPRESSURE VOLUME PRESSAVG GPRESSAVG
ENERGY: 0 6.2011 5.9598 2.2716 0.0000 -11055.4607 1553.5560 0.0000 0.0000 1763.8993 -7723.5729 298.5151 -9487.4722 -7723.5729 298.5151 267.2232 346.8735 29851.7012 267.2232 346.8735
ENERGY: 300000 3.8381 5.5201 5.1638 0.0000 -10735.9844 1451.0467 0.0000 0.0000 1754.4549 -7515.9609 296.9167 -9270.4158 -7564.6787 297.4839 101.9403 92.1598 30440.4832 54.6155 111.3388
ENERGY: 600000 2.8596 6.9058 3.9443 0.0000 -10756.6357 1421.8293 0.0000 0.0000 1779.3329 -7541.7638 301.1270 -9321.0967 -7568.7570 296.9503 -239.2572 -183.3003 30461.3994 -62.3672 -11.0524
ENERGY: 900000 7.4019 5.2702 3.6014 0.0000 -10708.1344 1402.3007 0.0000 0.0000 1778.2949 -7511.2652 300.9513 -9289.5602 -7562.2480 297.2661 -363.5674 -330.9929 30459.1995 -144.6760 -101.8368
ENERGY: 1200000 1.7596 5.4544 4.0346 0.0000 -10743.9346 1416.2414 0.0000 0.0000 1780.6346 -7535.8100 301.3473 -9316.4446 -7559.3090 298.6811 -317.3031 -271.7797 30671.6691 -112.8971 -64.4494
ENERGY: 1500000 0.8997 3.9679 3.3388 0.0000 -10754.2237 1430.8108 0.0000 0.0000 1785.2422 -7529.9643 302.1270 -9315.2065 -7556.3577 298.8319 188.7962 170.4929 30255.3064 -148.5934 -100.6769
TCL: Running FEP window   3: Lambda1 0.1    Lambda2 0.15000000000000002 [dLambda 0.05000000000000002]
TCL: Setting parameter firsttimestep to 0
TCL: Setting parameter alchLambda to 0.1
Info: NONBONDED TABLE R-SQUARED SPACING: 0.0625
Info: NONBONDED TABLE SIZE: 705 POINTS
TCL: Setting parameter alchLambda2 to 0.15000000000000002
Info: NONBONDED TABLE R-SQUARED SPACING: 0.0625
Info: NONBONDED TABLE SIZE: 705 POINTS
TCL: Running for 1500000 steps
ETITLE: TS BOND ANGLE DIHED IMPRP ELECT VDW BOUNDARY MISC KINETIC TOTAL TEMP POTENTIAL TOTALAVG TEMPAVG PRESSURE GPRESSURE VOLUME PRESSAVG GPRESSAVG
ENERGY: 0 0.8997 3.9679 3.3388 0.0000 -10754.2257 1435.4179 0.0000 0.0000 1784.4053 -7526.1960 301.9854 -9310.6013 -7526.1960 301.9854 101.7011 183.3810 30255.3064 101.7011 183.3810
ENERGY: 300000 2.2658 4.1389 7.3506 0.0000 -10770.4135 1456.3934 0.0000 0.0000 1849.8877 -7450.3771 313.0674 -9300.2649 -7506.7650 305.3532 81.7231 191.8595 30512.5351 70.8130 154.6091
ENERGY: 600000 3.9658 6.0733 3.2085 0.0000 -10782.3986 1432.4471 0.0000 0.0000 1792.2772 -7544.4268 303.3176 -9336.7040 -7534.0289 302.8762 -527.7727 -441.4245 30741.5559 -25.2417 54.3391
ENERGY: 900000 3.0436 5.2796 7.4668 0.0000 -10736.0741 1445.2720 0.0000 0.0000 1785.3138 -7489.6983 302.1392 -9275.0121 -7521.6380 302.2097 -37.2806 28.9977 30709.7719 -36.0883 35.2416
ENERGY: 1200000 4.6785 8.3046 7.3833 0.0000 -10733.9777 1434.6909 0.0000 0.0000 1804.4021 -7474.5183 305.3696 -9278.9204 -7520.1205 301.7227 220.2136 329.6557 30053.0864 -2.8206 65.3704
ENERGY: 1500000 2.7173 4.0677 5.9648 0.0000 -10916.0578 1568.5610 0.0000 0.0000 1815.3494 -7519.3976 307.2223 -9334.7470 -7521.5346 301.9652 811.1439 911.1892 30080.3529 73.6776 137.7598
TCL: Running FEP window   4: Lambda1 0.15000000000000002 Lambda2 0.2    [dLambda 0.04999999999999999]
TCL: Setting parameter firsttimestep to 0
TCL: Setting parameter alchLambda to 0.15000000000000002
Info: NONBONDED TABLE R-SQUARED SPACING: 0.0625
Info: NONBONDED TABLE SIZE: 705 POINTS
TCL: Setting parameter alchLambda2 to 0.2
Info: NONBONDED TABLE R-SQUARED SPACING: 0.0625
Info: NONBONDED TABLE SIZE: 705 POINTS
TCL: Running for 1500000 steps
ETITLE: TS BOND ANGLE DIHED IMPRP ELECT VDW BOUNDARY MISC KINETIC TOTAL TEMP POTENTIAL TOTALAVG TEMPAVG PRESSURE GPRESSURE VOLUME PRESSAVG GPRESSAVG
ENERGY: 0 2.7173 4.0677 5.9648 0.0000 -10916.0569 1568.4968 0.0000 0.0000 1814.4461 -7520.3641 307.0694 -9334.8102 -7520.3641 307.0694 816.2740 912.8664 30080.3529 816.2740 912.8664
ENERGY: 300000 4.3607 2.9954 5.3121 0.0000 -10806.1254 1481.7858 0.0000 0.0000 1795.1868 -7516.4845 303.8100 -9311.6713 -7498.4970 306.7237 379.6820 449.6353 30397.3291 71.4759 135.3777
ENERGY: 600000 4.4988 8.5734 4.2131 0.0000 -10753.1343 1456.9039 0.0000 0.0000 1754.7780 -7524.1670 296.9714 -9278.9450 -7520.3013 304.1060 166.6614 243.9687 30240.2738 -0.5631 47.4964
ENERGY: 900000 1.6770 4.6814 3.6723 0.0000 -10814.5605 1444.9348 0.0000 0.0000 1797.9322 -7561.6629 304.2746 -9359.5951 -7535.8523 303.9539 -100.6410 -61.6314 30238.2003 -54.7122 1.5859
ENERGY: 1200000 2.1707 5.5866 2.4763 0.0000 -10646.0453 1444.9891 0.0000 0.0000 1755.8223 -7435.0004 297.1481 -9190.8227 -7526.0459 302.6435 173.0064 180.9536 30689.4805 0.7763 54.3930
ENERGY: 1500000 1.2865 3.7752 4.6095 0.0000 -10989.3642 1585.5080 0.0000 0.0000 1825.5534 -7568.6315 308.9491 -9394.1849 -7529.9199 302.5962 723.8467 814.8089 30509.8689 49.4449 106.7427
TCL: Running FEP window   5: Lambda1 0.2    Lambda2 0.25   [dLambda 0.04999999999999999]
TCL: Setting parameter firsttimestep to 0
TCL: Setting parameter alchLambda to 0.2
Info: NONBONDED TABLE R-SQUARED SPACING: 0.0625
Info: NONBONDED TABLE SIZE: 705 POINTS
TCL: Setting parameter alchLambda2 to 0.25
Info: NONBONDED TABLE R-SQUARED SPACING: 0.0625
Info: NONBONDED TABLE SIZE: 705 POINTS
TCL: Running for 1500000 steps
ETITLE: TS BOND ANGLE DIHED IMPRP ELECT VDW BOUNDARY MISC KINETIC TOTAL TEMP POTENTIAL TOTALAVG TEMPAVG PRESSURE GPRESSURE VOLUME PRESSAVG GPRESSAVG
ENERGY: 0 1.2865 3.7752 4.6095 0.0000 -10989.3635 1586.0115 0.0000 0.0000 1824.6883 -7568.9925 308.8027 -9393.6808 -7568.9925 308.8027 735.3411 822.4757 30509.8689 735.3411 822.4757
ENERGY: 300000 3.4701 5.7597 1.9965 0.0000 -10807.1886 1477.5012 0.0000 0.0000 1766.0099 -7552.4512 298.8722 -9318.4611 -7543.0923 300.1627 3.1820 83.5689 30736.1899 -95.8233 -32.1307
ENERGY: 600000 2.4910 6.9673 3.4091 0.0000 -10808.2076 1474.9110 0.0000 0.0000 1726.2908 -7594.1384 292.1503 -9320.4291 -7545.9275 298.0194 -33.0850 -25.3405 31088.4725 -112.5443 -58.8922
ENERGY: 900000 1.5462 6.4873 11.4648 0.0000 -10926.1947 1457.2731 0.0000 0.0000 1769.7155 -7679.7078 299.4994 -9449.4233 -7562.1299 297.9094 -43.7794 -58.1557 29798.0685 -99.8088 -42.7197
ENERGY: 1200000 2.4802 8.9589 2.6946 0.0000 -10830.3498 1479.8869 0.0000 0.0000 1809.8379 -7526.4913 306.2895 -9336.3292 -7564.2018 298.3138 298.7026 342.6272 30262.9417 -130.2800 -75.5473
ENERGY: 1500000 2.6343 6.6295 6.3105 0.0000 -10874.0287 1466.2360 0.0000 0.0000 1782.9138 -7609.3046 301.7330 -9392.2184 -7566.9644 298.9076 69.6350 147.7285 29842.0713 -99.7263 -46.7891
TCL: Running FEP window   6: Lambda1 0.25   Lambda2 0.3    [dLambda 0.04999999999999999]
TCL: Setting parameter firsttimestep to 0
TCL: Setting parameter alchLambda to 0.25
Info: NONBONDED TABLE R-SQUARED SPACING: 0.0625
Info: NONBONDED TABLE SIZE: 705 POINTS
TCL: Setting parameter alchLambda2 to 0.3
Info: NONBONDED TABLE R-SQUARED SPACING: 0.0625
Info: NONBONDED TABLE SIZE: 705 POINTS
TCL: Running for 1500000 steps
ETITLE: TS BOND ANGLE DIHED IMPRP ELECT VDW BOUNDARY MISC KINETIC TOTAL TEMP POTENTIAL TOTALAVG TEMPAVG PRESSURE GPRESSURE VOLUME PRESSAVG GPRESSAVG
ENERGY: 0 2.6343 6.6295 6.3105 0.0000 -10874.0292 1466.4217 0.0000 0.0000 1782.0458 -7609.9875 301.5861 -9392.0333 -7609.9875 301.5861 77.1856 152.6962 29842.0713 77.1856 152.6962
ENERGY: 300000 4.6237 3.9834 3.4560 0.0000 -10841.5131 1443.1386 0.0000 0.0000 1738.6600 -7647.6515 294.2436 -9386.3115 -7600.7830 296.1418 -491.1330 -438.9529 30556.7816 -83.5831 -27.6418
ENERGY: 600000 3.8862 3.4643 3.7366 0.0000 -10733.4005 1431.6452 0.0000 0.0000 1776.2336 -7514.4345 300.6025 -9290.6682 -7581.2089 297.7119 109.3921 124.4649 30263.2773 35.0316 87.5156
ENERGY: 900000 3.9748 8.1678 4.5990 0.0000 -10965.5904 1528.2417 0.0000 0.0000 1745.1893 -7675.4177 295.3486 -9420.6070 -7587.5678 297.2552 645.1549 729.0202 30039.0965 60.2441 117.9365
ENERGY: 1200000 3.2930 5.9946 3.7425 0.0000 -10835.3837 1476.1747 0.0000 0.0000 1794.1091 -7552.0698 303.6276 -9346.1789 -7586.1332 297.7571 -91.9310 34.7795 30595.6288 -17.6271 43.9214
ENERGY: 1500000 1.8952 5.7450 3.8838 0.0000 -10887.9516 1523.2893 0.0000 0.0000 1804.6492 -7548.4890 305.4114 -9353.1382 -7581.1473 297.9674 457.5653 493.9011 30345.5181 16.6274 74.7457
TCL: Running FEP window   7: Lambda1 0.3    Lambda2 0.35   [dLambda 0.04999999999999999]
TCL: Setting parameter firsttimestep to 0
TCL: Setting parameter alchLambda to 0.3
Info: NONBONDED TABLE R-SQUARED SPACING: 0.0625
Info: NONBONDED TABLE SIZE: 705 POINTS
TCL: Setting parameter alchLambda2 to 0.35
Info: NONBONDED TABLE R-SQUARED SPACING: 0.0625
Info: NONBONDED TABLE SIZE: 705 POINTS
TCL: Running for 1500000 steps
ETITLE: TS BOND ANGLE DIHED IMPRP ELECT VDW BOUNDARY MISC KINETIC TOTAL TEMP POTENTIAL TOTALAVG TEMPAVG PRESSURE GPRESSURE VOLUME PRESSAVG GPRESSAVG
ENERGY: 0 1.8953 5.7450 3.8838 0.0000 -10887.9502 1524.2738 0.0000 0.0000 1803.7932 -7548.3591 305.2665 -9352.1523 -7548.3591 305.2665 427.0699 505.1389 30345.5181 427.0699 505.1389
ENERGY: 300000 0.7681 4.4384 7.3187 0.0000 -10732.3372 1457.8209 0.0000 0.0000 1795.6625 -7466.3286 303.8905 -9261.9911 -7522.6964 302.7806 558.2180 627.5853 29835.3857 -128.5766 -59.6218
ENERGY: 600000 1.4328 4.1603 3.2531 0.0000 -10788.9946 1456.2070 0.0000 0.0000 1793.8197 -7530.1217 303.5787 -9323.9414 -7537.4897 300.6740 31.3873 99.0227 30570.6667 -2.1726 65.7363
ENERGY: 900000 2.5045 3.5032 5.2819 0.0000 -10648.5795 1356.3667 0.0000 0.0000 1755.8413 -7525.0819 297.1514 -9280.9232 -7539.5468 300.0811 -556.0162 -459.8718 30353.2265 -116.1443 -49.0988
ENERGY: 1200000 4.9120 3.9231 4.3050 0.0000 -10916.4621 1508.6444 0.0000 0.0000 1739.0411 -7655.6365 294.3081 -9394.6776 -7538.7829 300.0375 470.4590 524.0321 29721.6152 -59.6054 -0.8125
ENERGY: 1500000 5.7292 4.6874 3.3397 0.0000 -10711.2907 1354.4202 0.0000 0.0000 1820.0500 -7523.0642 308.0178 -9343.1142 -7541.9787 300.1314 -690.4174 -622.5728 30401.2636 -102.6811 -44.5574
TCL: Running FEP window   8: Lambda1 0.35   Lambda2 0.39999999999999997 [dLambda 0.04999999999999999]
TCL: Setting parameter firsttimestep to 0
TCL: Setting parameter alchLambda to 0.35
Info: NONBONDED TABLE R-SQUARED SPACING: 0.0625
Info: NONBONDED TABLE SIZE: 705 POINTS
TCL: Setting parameter alchLambda2 to 0.39999999999999997
Info: NONBONDED TABLE R-SQUARED SPACING: 0.0625
Info: NONBONDED TABLE SIZE: 705 POINTS
TCL: Running for 1500000 steps
ETITLE: TS BOND ANGLE DIHED IMPRP ELECT VDW BOUNDARY MISC KINETIC TOTAL TEMP POTENTIAL TOTALAVG TEMPAVG PRESSURE GPRESSURE VOLUME PRESSAVG GPRESSAVG
ENERGY: 0 5.7292 4.6874 3.3397 0.0000 -10711.2915 1354.5970 0.0000 0.0000 1819.1882 -7523.7500 307.8719 -9342.9383 -7523.7500 307.8719 -698.2774 -618.4438 30401.2636 -698.2774 -618.4438
ENERGY: 300000 1.0658 3.0367 6.4399 0.0000 -10850.8072 1441.5142 0.0000 0.0000 1786.3476 -7612.4030 302.3141 -9398.7506 -7556.2854 303.1803 -234.4118 -145.3329 30357.7650 -366.7348 -293.2910
ENERGY: 600000 1.6944 3.1364 5.2039 0.0000 -10600.4303 1320.1487 0.0000 0.0000 1779.7021 -7490.5448 301.1894 -9270.2469 -7553.2445 300.1565 -764.5686 -746.6980 30569.5602 -153.0036 -87.7830
ENERGY: 900000 3.8595 5.0303 5.8386 0.0000 -10810.6059 1464.9140 0.0000 0.0000 1738.5890 -7592.3745 294.2316 -9330.9635 -7555.7084 299.8190 457.0351 468.1235 30119.2322 -151.6353 -90.9028
ENERGY: 1200000 1.1740 5.8701 5.4135 0.0000 -10793.9040 1461.0524 0.0000 0.0000 1838.4048 -7481.9892 311.1241 -9320.3940 -7552.6842 301.3674 387.7220 449.8565 30085.7451 -118.0993 -58.7366
ENERGY: 1500000 5.2032 5.7908 8.3955 0.0000 -10767.0359 1434.0704 0.0000 0.0000 1825.5803 -7487.9957 308.9537 -9313.5760 -7548.2538 301.3045 141.0906 158.5081 29941.7038 -114.5703 -62.7747
TCL: Running FEP window   9: Lambda1 0.39999999999999997 Lambda2 0.44999999999999996 [dLambda 0.04999999999999999]
TCL: Setting parameter firsttimestep to 0
TCL: Setting parameter alchLambda to 0.39999999999999997
Info: NONBONDED TABLE R-SQUARED SPACING: 0.0625
Info: NONBONDED TABLE SIZE: 705 POINTS
TCL: Setting parameter alchLambda2 to 0.44999999999999996
Info: NONBONDED TABLE R-SQUARED SPACING: 0.0625
Info: NONBONDED TABLE SIZE: 705 POINTS
TCL: Running for 1500000 steps
ETITLE: TS BOND ANGLE DIHED IMPRP ELECT VDW BOUNDARY MISC KINETIC TOTAL TEMP POTENTIAL TOTALAVG TEMPAVG PRESSURE GPRESSURE VOLUME PRESSAVG GPRESSAVG
ENERGY: 0 5.2032 5.7908 8.3955 0.0000 -10767.0381 1434.2798 0.0000 0.0000 1824.6940 -7488.6747 308.8037 -9313.3687 -7488.6747 308.8037 94.0066 163.7692 29941.7038 94.0066 163.7692
ENERGY: 300000 1.4215 2.7614 8.5080 0.0000 -10704.3233 1440.4012 0.0000 0.0000 1820.0879 -7431.1434 308.0242 -9251.2312 -7512.0762 306.3635 212.5853 215.7925 30724.4251 -12.1046 50.5944
ENERGY: 600000 2.2923 5.9875 0.8076 0.0000 -10823.5217 1516.3195 0.0000 0.0000 1743.3126 -7554.8022 295.0310 -9298.1148 -7530.2384 303.4534 804.3393 810.6451 30545.6673 34.9515 101.8922
ENERGY: 900000 4.5652 5.3783 2.1090 0.0000 -10751.7683 1440.0994 0.0000 0.0000 1781.7324 -7517.8839 301.5331 -9299.6163 -7521.9570 302.7053 35.8834 83.0873 30605.1004 -13.9810 51.4464
ENERGY: 1200000 3.9942 5.6684 2.1923 0.0000 -10956.9610 1562.6566 0.0000 0.0000 1774.2188 -7608.2307 300.2615 -9382.4496 -7530.5930 301.8907 712.3949 730.7970 30668.9131 -30.1939 27.0855
ENERGY: 1500000 2.4054 5.7547 9.6691 0.0000 -10921.5659 1547.2904 0.0000 0.0000 1746.1640 -7610.2823 295.5136 -9356.4464 -7543.6030 300.7081 858.4242 854.5416 30021.5822 -30.8092 25.8601
TCL: Running FEP window  10: Lambda1 0.44999999999999996 Lambda2 0.49999999999999994 [dLambda 0.04999999999999999]
TCL: Setting parameter firsttimestep to 0
TCL: Setting parameter alchLambda to 0.44999999999999996
Info: NONBONDED TABLE R-SQUARED SPACING: 0.0625
Info: NONBONDED TABLE SIZE: 705 POINTS
TCL: Setting parameter alchLambda2 to 0.49999999999999994
Info: NONBONDED TABLE R-SQUARED SPACING: 0.0625
Info: NONBONDED TABLE SIZE: 705 POINTS
TCL: Running for 1500000 steps
ETITLE: TS BOND ANGLE DIHED IMPRP ELECT VDW BOUNDARY MISC KINETIC TOTAL TEMP POTENTIAL TOTALAVG TEMPAVG PRESSURE GPRESSURE VOLUME PRESSAVG GPRESSAVG
ENERGY: 0 2.4054 5.7547 9.6691 0.0000 -10921.5667 1548.5589 0.0000 0.0000 1745.3351 -7609.8435 295.3733 -9355.1786 -7609.8435 295.3733 788.8552 874.2779 30021.5822 788.8552 874.2779
ENERGY: 300000 4.9510 6.3224 2.3686 0.0000 -10742.5840 1418.7864 0.0000 0.0000 1761.0034 -7549.1521 298.0250 -9310.1555 -7569.9451 297.9307 -292.7418 -217.6815 30404.7909 94.5794 159.2186
ENERGY: 600000 2.2158 2.6787 5.0081 0.0000 -10679.6556 1364.5894 0.0000 0.0000 1781.8086 -7523.3550 301.5459 -9305.1636 -7557.2547 299.6202 -334.4260 -302.9539 30093.5804 59.8871 111.9578
ENERGY: 900000 2.3896 4.8634 5.5422 0.0000 -10812.7075 1434.9104 0.0000 0.0000 1777.9066 -7587.0953 300.8856 -9365.0019 -7561.8764 299.7771 -325.4179 -305.1279 30792.8008 51.2341 101.0767
ENERGY: 1200000 1.5640 7.1608 4.2503 0.0000 -10776.6579 1402.4523 0.0000 0.0000 1849.1803 -7512.0502 312.9477 -9361.2305 -7557.4150 300.1076 -563.0604 -419.0835 30410.0595 -16.2379 41.5354
ENERGY: 1500000 2.8374 5.9672 2.1493 0.0000 -10732.1268 1459.5547 0.0000 0.0000 1778.8435 -7482.7748 301.0441 -9261.6182 -7561.7339 299.5811 122.3895 262.9201 30478.8635 10.6668 72.9792
TCL: Running FEP window  11: Lambda1 0.49999999999999994 Lambda2 0.5499999999999999 [dLambda 0.04999999999999999]
TCL: Setting parameter firsttimestep to 0
TCL: Setting parameter alchLambda to 0.49999999999999994
Info: NONBONDED TABLE R-SQUARED SPACING: 0.0625
Info: NONBONDED TABLE SIZE: 705 POINTS
TCL: Setting parameter alchLambda2 to 0.5499999999999999
Info: NONBONDED TABLE R-SQUARED SPACING: 0.0625
Info: NONBONDED TABLE SIZE: 705 POINTS
TCL: Running for 1500000 steps
ETITLE: TS BOND ANGLE DIHED IMPRP ELECT VDW BOUNDARY MISC KINETIC TOTAL TEMP POTENTIAL TOTALAVG TEMPAVG PRESSURE GPRESSURE VOLUME PRESSAVG GPRESSAVG
ENERGY: 0 2.8374 5.9672 2.1493 0.0000 -10732.1257 1459.5995 0.0000 0.0000 1777.9258 -7483.6464 300.8888 -9261.5723 -7483.6464 300.8888 168.4284 268.4650 30478.8635 168.4284 268.4650
ENERGY: 300000 3.9599 8.8938 1.9195 0.0000 -10849.8790 1506.9163 0.0000 0.0000 1740.3746 -7587.8148 294.5338 -9328.1894 -7549.3559 300.2351 537.7712 588.4519 30288.5919 -138.7155 -58.1378
ENERGY: 600000 1.0159 2.8992 4.3555 0.0000 -10896.0615 1554.5872 0.0000 0.0000 1792.3665 -7540.8373 303.3327 -9333.2038 -7549.9097 299.0311 1111.0453 1126.9083 29943.7470 -31.5828 34.8010
ENERGY: 900000 1.8167 4.7910 8.2559 0.0000 -10643.5001 1352.0468 0.0000 0.0000 1806.1443 -7470.4455 305.6644 -9276.5898 -7526.4525 300.6059 -832.0378 -798.7569 30970.6461 -170.9322 -117.7705
ENERGY: 1200000 1.0746 3.0070 2.5953 0.0000 -10818.9485 1437.1079 0.0000 0.0000 1764.8918 -7610.2719 298.6830 -9375.1637 -7547.1758 300.0686 -450.3009 -355.3926 30968.2428 -180.8299 -124.7876
ENERGY: 1500000 0.8792 3.5499 5.3836 0.0000 -10838.5083 1497.3938 0.0000 0.0000 1749.9284 -7581.3735 296.1507 -9331.3018 -7547.4260 299.7647 320.4794 472.6371 30409.5943 -172.6852 -108.7840
TCL: Running FEP window  12: Lambda1 0.5499999999999999 Lambda2 0.6    [dLambda 0.050000000000000044]
TCL: Setting parameter firsttimestep to 0
TCL: Setting parameter alchLambda to 0.5499999999999999
Info: NONBONDED TABLE R-SQUARED SPACING: 0.0625
Info: NONBONDED TABLE SIZE: 705 POINTS
TCL: Setting parameter alchLambda2 to 0.6
Info: NONBONDED TABLE R-SQUARED SPACING: 0.0625
Info: NONBONDED TABLE SIZE: 705 POINTS
TCL: Running for 1500000 steps
ETITLE: TS BOND ANGLE DIHED IMPRP ELECT VDW BOUNDARY MISC KINETIC TOTAL TEMP POTENTIAL TOTALAVG TEMPAVG PRESSURE GPRESSURE VOLUME PRESSAVG GPRESSAVG
ENERGY: 0 0.8791 3.5499 5.3836 0.0000 -10838.7198 1497.2725 0.0000 0.0000 1749.0059 -7582.6287 295.9946 -9331.6346 -7582.6287 295.9946 399.0140 476.0893 30409.5943 399.0140 476.0893
ENERGY: 300000 1.8288 4.9652 2.5908 0.0000 -10932.9855 1559.0508 0.0000 0.0000 1766.7303 -7597.8197 298.9942 -9364.5500 -7560.7266 296.9195 432.1108 512.4361 30961.7714 -68.8041 -23.3646
ENERGY: 600000 1.9340 5.1833 3.4343 0.0000 -10776.2530 1457.6396 0.0000 0.0000 1699.5858 -7608.4759 287.6309 -9308.0617 -7593.4818 296.4092 51.1959 99.4784 30491.4369 -122.2693 -67.9565
ENERGY: 900000 0.4991 9.0762 1.6722 0.0000 -10780.5451 1457.8757 0.0000 0.0000 1701.9877 -7609.4343 288.0374 -9311.4220 -7587.7425 295.9051 173.7149 145.2006 30547.6867 -269.3200 -213.0166
ENERGY: 1200000 3.0149 4.9673 5.3077 0.0000 -10721.3483 1436.9492 0.0000 0.0000 1749.4434 -7521.6658 296.0686 -9271.1092 -7574.3507 296.7313 -66.6968 63.5184 30782.9279 -176.4314 -117.3705
ENERGY: 1500000 2.1368 5.8520 6.0777 0.0000 -10759.4942 1421.7174 0.0000 0.0000 1803.9332 -7519.7771 305.2902 -9323.7103 -7560.2974 298.1491 -328.6321 -198.9761 30925.3942 -198.6508 -138.4445
TCL: Running FEP window  13: Lambda1 0.6    Lambda2 0.65   [dLambda 0.050000000000000044]
TCL: Setting parameter firsttimestep to 0
TCL: Setting parameter alchLambda to 0.6
Info: NONBONDED TABLE R-SQUARED SPACING: 0.0625
Info: NONBONDED TABLE SIZE: 705 POINTS
TCL: Setting parameter alchLambda2 to 0.65
Info: NONBONDED TABLE R-SQUARED SPACING: 0.0625
Info: NONBONDED TABLE SIZE: 705 POINTS
TCL: Running for 1500000 steps
ETITLE: TS BOND ANGLE DIHED IMPRP ELECT VDW BOUNDARY MISC KINETIC TOTAL TEMP POTENTIAL TOTALAVG TEMPAVG PRESSURE GPRESSURE VOLUME PRESSAVG GPRESSAVG
ENERGY: 0 2.1368 5.8520 6.0777 0.0000 -10759.5551 1422.2410 0.0000 0.0000 1803.0888 -7520.1588 305.1473 -9323.2477 -7520.1588 305.1473 -268.2492 -187.8278 30925.3942 -268.2492 -187.8278
ENERGY: 300000 3.0933 4.4421 2.4006 0.0000 -10803.3004 1432.9848 0.0000 0.0000 1823.6107 -7536.7689 308.6204 -9360.3797 -7529.1363 301.4239 -90.5434 -41.2670 30397.7910 -253.7786 -188.1907
ENERGY: 600000 3.2383 7.9985 5.2313 0.0000 -10805.1501 1452.2141 0.0000 0.0000 1799.9670 -7536.5009 304.6190 -9336.4679 -7537.5554 301.3680 64.9361 89.8410 30342.1323 -79.7035 -5.5317
ENERGY: 900000 4.0757 8.3615 3.8412 0.0000 -10694.5572 1381.7917 0.0000 0.0000 1770.8780 -7525.6091 299.6961 -9296.4871 -7534.3848 299.7120 -533.2688 -538.9576 30692.2404 -187.7247 -120.8217
ENERGY: 1200000 1.8994 6.3459 3.4533 0.0000 -10763.4789 1361.6858 0.0000 0.0000 1806.3362 -7583.7582 305.6969 -9390.0944 -7539.1469 300.0076 -829.7864 -767.7890 30689.0438 -185.5865 -127.2183
ENERGY: 1500000 2.9584 9.0120 6.6544 0.0000 -10807.5565 1420.9864 0.0000 0.0000 1720.3518 -7647.5934 291.1453 -9367.9452 -7556.0134 299.2453 70.8056 65.0560 30120.0776 -111.8806 -59.3818
TCL: Running FEP window  14: Lambda1 0.65   Lambda2 0.7000000000000001 [dLambda 0.050000000000000044]
TCL: Setting parameter firsttimestep to 0
TCL: Setting parameter alchLambda to 0.65
Info: NONBONDED TABLE R-SQUARED SPACING: 0.0625
Info: NONBONDED TABLE SIZE: 705 POINTS
TCL: Setting parameter alchLambda2 to 0.7000000000000001
Info: NONBONDED TABLE R-SQUARED SPACING: 0.0625
Info: NONBONDED TABLE SIZE: 705 POINTS
TCL: Running for 1500000 steps
ETITLE: TS BOND ANGLE DIHED IMPRP ELECT VDW BOUNDARY MISC KINETIC TOTAL TEMP POTENTIAL TOTALAVG TEMPAVG PRESSURE GPRESSURE VOLUME PRESSAVG GPRESSAVG
ENERGY: 0 2.9584 9.0120 6.6544 0.0000 -10808.8915 1421.3184 0.0000 0.0000 1719.4838 -7649.4644 290.9984 -9368.9482 -7649.4644 290.9984 -12.3721 74.5838 30120.0776 -12.3721 74.5838
ENERGY: 300000 2.2639 5.1915 9.8624 0.0000 -10802.9234 1426.5024 0.0000 0.0000 1807.1998 -7551.9033 305.8431 -9359.1031 -7565.8336 299.8579 -187.7982 -129.0479 30351.0920 -128.3532 -81.5718
ENERGY: 600000 2.7001 6.9587 7.8231 0.0000 -10818.6624 1486.5797 0.0000 0.0000 1784.7976 -7529.8031 302.0518 -9314.6007 -7568.7588 299.4117 347.6779 431.7272 30541.1977 147.6526 198.7592
ENERGY: 900000 3.0818 3.7008 3.9825 0.0000 -10689.1576 1340.4978 0.0000 0.0000 1790.7151 -7547.1796 303.0532 -9337.8947 -7557.8500 300.0137 -1021.3637 -966.5434 30635.0541 -60.7003 -5.4350
ENERGY: 1200000 5.4894 4.1927 7.1053 0.0000 -10753.9234 1415.2941 0.0000 0.0000 1761.5407 -7560.3012 298.1159 -9321.8419 -7554.7867 300.2890 -3.9905 0.9841 30439.9334 -48.2037 6.5065
ENERGY: 1500000 3.5379 8.6933 6.1925 0.0000 -10768.4163 1503.5116 0.0000 0.0000 1816.1129 -7430.3682 307.3515 -9246.4811 -7541.1331 300.9719 669.1871 669.6910 30703.8188 -6.6114 48.4993
TCL: Running FEP window  15: Lambda1 0.7000000000000001 Lambda2 0.7500000000000001 [dLambda 0.050000000000000044]
TCL: Setting parameter firsttimestep to 0
TCL: Setting parameter alchLambda to 0.7000000000000001
Info: NONBONDED TABLE R-SQUARED SPACING: 0.0625
Info: NONBONDED TABLE SIZE: 705 POINTS
TCL: Setting parameter alchLambda2 to 0.7500000000000001
Info: NONBONDED TABLE R-SQUARED SPACING: 0.0625
Info: NONBONDED TABLE SIZE: 705 POINTS
TCL: Running for 1500000 steps
ETITLE: TS BOND ANGLE DIHED IMPRP ELECT VDW BOUNDARY MISC KINETIC TOTAL TEMP POTENTIAL TOTALAVG TEMPAVG PRESSURE GPRESSURE VOLUME PRESSAVG GPRESSAVG
ENERGY: 0 3.5379 8.6933 6.1925 0.0000 -10769.3961 1502.9750 0.0000 0.0000 1815.2187 -7432.7787 307.2001 -9247.9974 -7432.7787 307.2001 584.9279 669.6284 30703.8188 584.9279 669.6284
ENERGY: 300000 2.5719 5.0339 5.9209 0.0000 -10777.2320 1401.7699 0.0000 0.0000 1799.3607 -7562.5746 304.5164 -9361.9352 -7546.2844 299.0797 -315.9705 -374.0653 30533.5855 -32.2484 15.3353
ENERGY: 600000 3.3410 5.0653 4.3799 0.0000 -10746.3993 1389.1797 0.0000 0.0000 1862.6328 -7481.8006 315.2243 -9344.4333 -7535.2171 300.7939 -543.0166 -434.9178 30728.2585 -199.4422 -126.8984
ENERGY: 900000 1.6490 3.2602 4.8271 0.0000 -10824.7087 1502.7243 0.0000 0.0000 1800.4207 -7511.8273 304.6958 -9312.2480 -7558.1678 297.9671 438.2888 527.7264 30626.5377 -74.4166 -12.3830
ENERGY: 1200000 2.1610 4.8540 6.2089 0.0000 -10680.3500 1377.4849 0.0000 0.0000 1722.6357 -7567.0055 291.5318 -9289.6412 -7546.8993 298.3162 -653.1250 -497.8867 30771.4374 -137.4098 -68.2146
ENERGY: 1500000 2.8673 3.5928 5.9584 0.0000 -10678.5517 1426.5387 0.0000 0.0000 1797.3525 -7442.2420 304.1765 -9239.5945 -7544.3244 299.3644 -55.8586 -4.9206 30874.7935 -106.4388 -39.2434
TCL: Running FEP window  16: Lambda1 0.7500000000000001 Lambda2 0.8000000000000002 [dLambda 0.050000000000000044]
TCL: Setting parameter firsttimestep to 0
TCL: Setting parameter alchLambda to 0.7500000000000001
Info: NONBONDED TABLE R-SQUARED SPACING: 0.0625
Info: NONBONDED TABLE SIZE: 705 POINTS
TCL: Setting parameter alchLambda2 to 0.8000000000000002
Info: NONBONDED TABLE R-SQUARED SPACING: 0.0625
Info: NONBONDED TABLE SIZE: 705 POINTS
TCL: Running for 1500000 steps
ETITLE: TS BOND ANGLE DIHED IMPRP ELECT VDW BOUNDARY MISC KINETIC TOTAL TEMP POTENTIAL TOTALAVG TEMPAVG PRESSURE GPRESSURE VOLUME PRESSAVG GPRESSAVG
ENERGY: 0 2.8672 3.5928 5.9584 0.0000 -10678.7052 1426.6034 0.0000 0.0000 1796.4397 -7443.2436 304.0221 -9239.6833 -7443.2436 304.0221 -82.5378 3.9830 30874.7935 -82.5378 3.9830
ENERGY: 300000 2.4895 4.9632 5.5137 0.0000 -10905.5225 1496.6813 0.0000 0.0000 1786.2217 -7609.6530 302.2928 -9395.8747 -7515.9438 304.8676 351.5133 419.9119 30430.5139 58.2517 132.2096
ENERGY: 600000 2.8908 6.3752 6.0413 0.0000 -10690.2841 1423.5514 0.0000 0.0000 1731.7187 -7519.7066 293.0689 -9251.4254 -7542.5969 300.2343 34.3412 62.6276 30527.0388 -24.0572 52.8786
ENERGY: 900000 2.1134 5.6962 3.1365 0.0000 -10796.0438 1439.4398 0.0000 0.0000 1798.0394 -7547.6185 304.2928 -9345.6579 -7546.8659 300.7647 217.2035 234.3724 30180.2638 115.8348 175.1591
ENERGY: 1200000 6.1330 8.9737 3.0665 0.0000 -10833.0310 1425.9914 0.0000 0.0000 1806.0978 -7582.7686 305.6566 -9388.8664 -7552.2588 300.5576 127.5802 220.4483 29976.3431 107.5486 166.1170
ENERGY: 1500000 2.4771 3.0850 3.8690 0.0000 -10759.2580 1457.5445 0.0000 0.0000 1749.4701 -7542.8124 296.0731 -9292.2825 -7556.0639 300.2533 188.8123 246.8892 30434.0239 94.7883 157.3604
TCL: Running FEP window  17: Lambda1 0.8000000000000002 Lambda2 0.8500000000000002 [dLambda 0.050000000000000044]
TCL: Setting parameter firsttimestep to 0
TCL: Setting parameter alchLambda to 0.8000000000000002
Info: NONBONDED TABLE R-SQUARED SPACING: 0.0625
Info: NONBONDED TABLE SIZE: 705 POINTS
TCL: Setting parameter alchLambda2 to 0.8500000000000002
Info: NONBONDED TABLE R-SQUARED SPACING: 0.0625
Info: NONBONDED TABLE SIZE: 705 POINTS
TCL: Running for 1500000 steps
ETITLE: TS BOND ANGLE DIHED IMPRP ELECT VDW BOUNDARY MISC KINETIC TOTAL TEMP POTENTIAL TOTALAVG TEMPAVG PRESSURE GPRESSURE VOLUME PRESSAVG GPRESSAVG
ENERGY: 0 2.4771 3.0850 3.8690 0.0000 -10761.4766 1458.9908 0.0000 0.0000 1748.5900 -7544.4648 295.9242 -9293.0548 -7544.4648 295.9242 167.1934 264.1677 30434.0239 167.1934 264.1677
ENERGY: 300000 1.5681 5.6922 4.4299 0.0000 -10663.0487 1360.6509 0.0000 0.0000 1756.2816 -7534.4260 297.2259 -9290.7076 -7518.2538 299.3570 -391.0208 -325.4777 30441.9779 24.1749 110.1332
ENERGY: 600000 3.3753 6.2799 4.1278 0.0000 -10925.5336 1530.6975 0.0000 0.0000 1702.1709 -7678.8822 288.0684 -9381.0531 -7561.4091 297.3777 484.6174 558.5910 30386.2753 34.3736 104.5537
ENERGY: 900000 4.2221 8.1261 4.1831 0.0000 -10542.1430 1348.3023 0.0000 0.0000 1832.4648 -7344.8446 310.1188 -9177.3094 -7538.2579 298.5274 -347.1558 -318.1080 30715.0378 -25.9181 44.6299
ENERGY: 1200000 4.0929 4.9855 8.2588 0.0000 -10748.3752 1448.2782 0.0000 0.0000 1792.0141 -7490.7457 303.2731 -9282.7598 -7545.6020 298.5298 60.2951 157.1240 30464.8695 -88.1684 -22.7448
ENERGY: 1500000 6.1636 6.0628 1.8430 0.0000 -10812.6002 1461.3903 0.0000 0.0000 1801.5052 -7535.6353 304.8793 -9337.1405 -7542.0203 299.5325 -19.8841 63.1772 30393.2423 -55.4681 9.4241
TCL: Running FEP window  18: Lambda1 0.8500000000000002 Lambda2 0.9000000000000002 [dLambda 0.050000000000000044]
TCL: Setting parameter firsttimestep to 0
TCL: Setting parameter alchLambda to 0.8500000000000002
Info: NONBONDED TABLE R-SQUARED SPACING: 0.0625
Info: NONBONDED TABLE SIZE: 705 POINTS
TCL: Setting parameter alchLambda2 to 0.9000000000000002
Info: NONBONDED TABLE R-SQUARED SPACING: 0.0625
Info: NONBONDED TABLE SIZE: 705 POINTS
TCL: Running for 1500000 steps
ETITLE: TS BOND ANGLE DIHED IMPRP ELECT VDW BOUNDARY MISC KINETIC TOTAL TEMP POTENTIAL TOTALAVG TEMPAVG PRESSURE GPRESSURE VOLUME PRESSAVG GPRESSAVG
ENERGY: 0 6.1636 6.0628 1.8430 0.0000 -10814.2404 1461.5329 0.0000 0.0000 1800.6155 -7538.0225 304.7287 -9338.6380 -7538.0225 304.7287 -13.5498 72.5661 30393.2423 -13.5498 72.5661
ENERGY: 300000 3.3394 3.7837 3.9370 0.0000 -10664.4038 1343.0511 0.0000 0.0000 1779.7317 -7530.5609 301.1945 -9310.2926 -7560.7509 301.7270 -836.7095 -785.1894 30934.6357 -85.5337 -35.0900
ENERGY: 600000 1.8621 7.6253 1.6176 0.0000 -10801.6639 1429.6289 0.0000 0.0000 1770.2196 -7590.7104 299.5847 -9360.9300 -7560.9849 300.0550 -347.6562 -268.1119 30808.2225 -120.8037 -70.1767
ENERGY: 900000 3.4320 6.1750 4.0667 0.0000 -10673.9549 1384.3242 0.0000 0.0000 1762.0858 -7513.8712 298.2081 -9275.9570 -7545.3301 299.9825 -161.3081 -69.2170 30519.3593 -134.8873 -74.6723
ENERGY: 1200000 3.3470 8.2080 3.9431 0.0000 -10679.5852 1420.4929 0.0000 0.0000 1757.7526 -7485.8416 297.4748 -9243.5942 -7537.6143 300.1997 27.7976 51.9593 30691.5975 -149.6931 -86.2329
ENERGY: 1500000 3.7451 2.5119 6.2882 0.0000 -10911.2525 1497.3335 0.0000 0.0000 1762.7727 -7638.6011 298.3244 -9401.3738 -7543.7414 300.2939 263.8894 305.6697 30325.3693 -141.4943 -83.6265
TCL: Running FEP window  19: Lambda1 0.9000000000000002 Lambda2 0.9500000000000003 [dLambda 0.050000000000000044]
TCL: Setting parameter firsttimestep to 0
TCL: Setting parameter alchLambda to 0.9000000000000002
Info: NONBONDED TABLE R-SQUARED SPACING: 0.0625
Info: NONBONDED TABLE SIZE: 705 POINTS
TCL: Setting parameter alchLambda2 to 0.9500000000000003
Info: NONBONDED TABLE R-SQUARED SPACING: 0.0625
Info: NONBONDED TABLE SIZE: 705 POINTS
TCL: Running for 1500000 steps
ETITLE: TS BOND ANGLE DIHED IMPRP ELECT VDW BOUNDARY MISC KINETIC TOTAL TEMP POTENTIAL TOTALAVG TEMPAVG PRESSURE GPRESSURE VOLUME PRESSAVG GPRESSAVG
ENERGY: 0 3.7451 2.5119 6.2882 0.0000 -10913.0909 1498.6426 0.0000 0.0000 1761.9261 -7639.9769 298.1811 -9401.9030 -7639.9769 298.1811 250.3311 326.7879 30325.3693 250.3311 326.7879
ENERGY: 300000 4.9247 5.6012 4.6890 0.0000 -10917.1891 1486.6770 0.0000 0.0000 1748.3313 -7666.9660 295.8804 -9415.2973 -7587.4455 300.9348 29.6044 18.9928 30423.9369 -34.7078 8.6242
ENERGY: 600000 1.9400 3.2431 2.6966 0.0000 -10704.0324 1400.1346 0.0000 0.0000 1706.3386 -7589.6796 288.7737 -9296.0182 -7575.8297 298.6600 -542.5256 -481.3166 30854.1328 -72.8701 -15.1803
ENERGY: 900000 2.1153 3.1918 4.6955 0.0000 -10752.4950 1453.4585 0.0000 0.0000 1743.6474 -7545.3865 295.0877 -9289.0339 -7571.5597 297.4039 76.0671 151.5057 30536.5598 -154.1348 -78.9008
ENERGY: 1200000 2.3867 3.6967 6.4490 0.0000 -10828.6141 1426.7190 0.0000 0.0000 1774.6868 -7614.6758 300.3407 -9389.3626 -7562.9126 298.0333 -187.3757 -88.9183 30345.0611 -48.8970 28.7806
ENERGY: 1500000 1.2168 4.2792 5.6142 0.0000 -10858.6783 1475.2816 0.0000 0.0000 1710.3492 -7661.9373 289.4525 -9372.2865 -7576.7484 296.9981 167.5553 169.6779 30658.6391 -46.8424 24.7038
TCL: Running FEP window  20: Lambda1 0.9500000000000003 Lambda2 1.0    [dLambda 0.04999999999999971]
TCL: Setting parameter firsttimestep to 0
TCL: Setting parameter alchLambda to 0.9500000000000003
Info: NONBONDED TABLE R-SQUARED SPACING: 0.0625
Info: NONBONDED TABLE SIZE: 705 POINTS
TCL: Setting parameter alchLambda2 to 1.0
Info: NONBONDED TABLE R-SQUARED SPACING: 0.0625
Info: NONBONDED TABLE SIZE: 705 POINTS
TCL: Running for 1500000 steps
ETITLE: TS BOND ANGLE DIHED IMPRP ELECT VDW BOUNDARY MISC KINETIC TOTAL TEMP POTENTIAL TOTALAVG TEMPAVG PRESSURE GPRESSURE VOLUME PRESSAVG GPRESSAVG
ENERGY: 0 1.2168 4.2792 5.6142 0.0000 -10859.6740 1475.2876 0.0000 0.0000 1709.4935 -7663.7826 289.3076 -9373.2761 -7663.7826 289.3076 111.6392 180.1739 30658.6391 111.6392 180.1739
ENERGY: 300000 1.1456 6.6988 4.5380 0.0000 -10570.1732 1369.3632 0.0000 0.0000 1772.6947 -7415.7329 300.0035 -9188.4276 -7502.1805 297.0270 -353.5686 -276.8470 31088.4538 42.8979 111.1670
ENERGY: 600000 3.7335 4.3631 5.2112 0.0000 -10791.0465 1380.5671 0.0000 0.0000 1745.8941 -7651.2776 295.4679 -9397.1717 -7559.2241 295.9900 -724.0576 -694.7173 30463.8968 -98.7359 -37.6060
ENERGY: 900000 2.1274 6.8852 4.5885 0.0000 -10755.5384 1421.0358 0.0000 0.0000 1803.1372 -7517.7643 305.1555 -9320.9014 -7562.9346 297.7172 -84.9911 -11.5186 30649.3921 -32.9770 38.7002
ENERGY: 1200000 5.0901 3.1729 4.4551 0.0000 -10809.1504 1453.2414 0.0000 0.0000 1791.5354 -7551.6555 303.1921 -9343.1908 -7553.6195 298.2425 -233.6213 -129.7263 30787.9501 -115.2274 -45.7312
ENERGY: 1500000 1.8575 3.8404 2.3529 0.0000 -10799.5133 1428.4079 0.0000 0.0000 1762.6054 -7600.4492 298.2961 -9363.0546 -7554.1741 299.2451 103.6838 104.1420 30132.9504 -134.5163 -72.3891
TCL: Exiting due to exit command.
