Info: SIMULATION PARAMETERS:
Info: TIMESTEP               2
Info: NUMBER OF STEPS        0
Info: STEPS PER CYCLE        10
Info: PERIODIC CELL BASIS 1  30.5645 0 0
Info: PERIODIC CELL BASIS 2  0 31.2573 0
Info: PERIODIC CELL BASIS 3  0 0 31.1393
Info: PERIODIC CELL CENTER   0 0 0
Info: WRAPPING WATERS AROUND PERIODIC BOUNDARIES ON OUTPUT.
Info: WRAPPING ALL CLUSTERS AROUND PERIODIC BOUNDARIES ON OUTPUT.
Info: FIRST LDB TIMESTEP     50
Info: LAST LDB TIMESTEP     -1
Info: HOM BACKGROUND SCALING 1
Info: PME BACKGROUND SCALING 1
Info: MIN ATOMS PER PATCH    40
Info: EMPTY PATCH LOAD       40 ATOMS
Info: VELOCITY FILE          mobley_7983227_equil.vel
Info: CENTER OF MASS MOVING INITIALLY? NO
Info: DIELECTRIC             1
Info: EXCLUDE                SCALED ONE-FOUR
Info: 1-4 ELECTROSTATICS SCALED BY 0.833333
Info: MODIFIED 1-4 VDW PARAMETERS WILL BE USED
Info: DCD FILENAME           mobley_7983227_prod.dcd
Info: DCD FREQUENCY          100000
Info: DCD FIRST STEP         100000
Info: DCD FILE WILL CONTAIN UNIT CELL DATA
Info: XST FILENAME           mobley_7983227_prod.xst
Info: XST FREQUENCY          100000
Info: NO VELOCITY DCD OUTPUT
Info: NO FORCE DCD OUTPUT
Info: OUTPUT FILENAME        mobley_7983227_prod
Info: BINARY OUTPUT FILES WILL BE USED
Info: RESTART FILENAME       mobley_7983227_prod.restart
Info: RESTART FREQUENCY      100000
Info: BINARY RESTART FILES WILL BE USED
Info: CUTOFF                 9
Info: PAIRLIST DISTANCE      11
Info: PAIRLIST SHRINK RATE   0.01
Info: PAIRLIST GROW RATE     0.01
Info: PAIRLIST TRIGGER       0.3
Info: PAIRLISTS PER CYCLE    2
Info: PAIRLISTS ENABLED
Info: MARGIN                 2
Info: HYDROGEN GROUP CUTOFF  2.5
Info: PATCH DIMENSION        15.5
Info: ENERGY OUTPUT STEPS    100000
Info: ENERGY EVALUATION STEPS    100000
Info: OUTPUT ENERGY PRECISION 4
Info: CROSSTERM ENERGY INCLUDED IN DIHEDRAL
Info: TIMING OUTPUT STEPS    1000000
Info: PRESSURE OUTPUT STEPS  100000
Info: ALCHEMICAL FEP ON
Info: FEP CURRENT LAMBDA VALUE     0
Info: FEP COMPARISON LAMBDA VALUE  0.05
Info: FEP INTRA-ALCHEMICAL NON-BONDED INTERACTIONS WILL BE RETAINED
Info: FEP INTRA-ALCHEMICAL BONDED INTERACTIONS WILL BE RETAINED
Info: FEP VDW SHIFTING COEFFICIENT 5
Info: FEP ELEC. ACTIVE FOR ANNIHILATED PARTICLES BETWEEN LAMBDA = 0 AND LAMBDA = 0.5
Info: FEP ELEC. ACTIVE FOR EXNIHILATED PARTICLES BETWEEN LAMBDA = 0.5 AND LAMBDA = 1
Info: FEP VDW ACTIVE FOR ANNIHILATED PARTICLES BETWEEN LAMBDA = 0 AND LAMBDA = 1
Info: FEP VDW ACTIVE FOR EXNIHILATED PARTICLES BETWEEN LAMBDA = 0 AND LAMBDA = 1
Info: FEP BOND ACTIVE FOR ANNIHILATED PARTICLES BETWEEN LAMBDA = 1 AND LAMBDA = 1
Info: FEP BOND ACTIVE FOR EXNIHILATED PARTICLES BETWEEN LAMBDA = 0 AND LAMBDA = 0
Info: LANGEVIN DYNAMICS ACTIVE
Info: LANGEVIN TEMPERATURE   300
Info: LANGEVIN USING BBK INTEGRATOR
Info: LANGEVIN DAMPING COEFFICIENT IS 1 INVERSE PS
Info: LANGEVIN DYNAMICS APPLIED TO HYDROGENS
Info: LANGEVIN PISTON PRESSURE CONTROL ACTIVE
Info:        TARGET PRESSURE IS 1.01325 BAR
Info:     OSCILLATION PERIOD IS 50 FS
Info:             DECAY TIME IS 25 FS
Info:     PISTON TEMPERATURE IS 300 K
Info:       PRESSURE CONTROL IS GROUP-BASED
Info:    INITIAL STRAIN RATE IS 9.90196e-05 9.90196e-05 9.90196e-05
Info:       CELL FLUCTUATION IS ISOTROPIC
Info: PARTICLE MESH EWALD (PME) ACTIVE
Info: PME TOLERANCE               1e-06
Info: PME EWALD COEFFICIENT       0.348832
Info: PME INTERPOLATION ORDER     4
Info: PME GRID DIMENSIONS         32 32 32
Info: PME MAXIMUM GRID SPACING    1
Info: PME CALCULATION WILL BE PERFORMED ON GPU
Info: FULL ELECTROSTATIC EVALUATION FREQUENCY      2
Info: USING VERLET I (r-RESPA) MTS SCHEME.
Info: C1 SPLITTING OF LONG RANGE ELECTROSTATICS
Info: PLACING ATOMS IN PATCHES BY HYDROGEN GROUPS
Info: RIGID BONDS TO HYDROGEN : ALL
Info:         ERROR TOLERANCE : 1e-08
Info:          MAX ITERATIONS : 100
Info: RIGID WATER USING SETTLE ALGORITHM
Info: RANDOM NUMBER SEED     1743858635
Info: USE HYDROGEN BONDS?    NO
Info: Using AMBER format force field!
Info: AMBER PARM FILE        mobley_7983227.prmtop
Info: COORDINATE PDB         mobley_7983227.pdb
Info: Exclusions will be read from PARM file!
Info: SCNB (VDW SCALING)     2
Info: USING ARITHMETIC MEAN TO COMBINE L-J SIGMA PARAMETERS
Info: BINARY COORDINATES     mobley_7983227_equil.coor
Info: SUMMARY OF PARAMETERS:
Info: 7 BONDS
Info: 8 ANGLES
Info:   8 HARMONIC
Info:   0 COSINE-BASED
Info: 9 DIHEDRAL
Info: 0 IMPROPER
Info: 0 CROSSTERM
Info: 0 VDW
Info: 21 VDW_PAIRS
Info: 0 NBTHOLE_PAIRS
Info: To read alchdata from file: mobley_7983227.pdb
Info: To read alchflag data from column: 5
Info: STRUCTURE SUMMARY:
Info: 2928 ATOMS
Info: 2927 BONDS
Info: 31 ANGLES
Info: 45 DIHEDRALS
Info: 0 IMPROPERS
Info: 0 CROSSTERMS
Info: 2997 EXCLUSIONS
Info: 2922 RIGID BONDS
Info: ALCH: 0 ATOMS TO DISAPPEAR IN FINAL STATE
Info: ALCH: 18 ATOMS TO APPEAR IN FINAL STATE
Info: 5862 DEGREES OF FREEDOM
Info: 976 HYDROGEN GROUPS
Info: 4 ATOMS IN LARGEST HYDROGEN GROUP
Info: 976 MIGRATION GROUPS
Info: 4 ATOMS IN LARGEST MIGRATION GROUP
Info: TOTAL MASS = 17563.7 amu
Info: TOTAL CHARGE = -0.000200011 e
Info: MASS DENSITY = 0.980387 g/cm^3
Info: ATOM DENSITY = 0.0984225 atoms/A^3
Info: ADDED 0 IMPLICIT EXCLUSIONS
Info: NONBONDED TABLE R-SQUARED SPACING: 0.0625
Info: NONBONDED TABLE SIZE: 705 POINTS
Info: REMOVING COM VELOCITY -0.336162 0.0873357 -0.12624
Info: Use 3D box decompostion in PME FFT.
Info: Updated CUDA force table with 4096 elements.
Info: Updated CUDA LJ table with 6 x 6 elements.
Info: Found 21 unique exclusion lists needing 52 bytes
TCL: Running for 1500000 steps
ETITLE: TS BOND ANGLE DIHED IMPRP ELECT VDW BOUNDARY MISC KINETIC TOTAL TEMP POTENTIAL TOTALAVG TEMPAVG PRESSURE GPRESSURE VOLUME PRESSAVG GPRESSAVG
ENERGY: 0 2.0582 11.0879 3.4319 0.0000 -10553.5494 1469.9262 0.0000 0.0000 1814.3680 -7252.6772 311.5085 -9067.0452 -7252.6772 311.5085 708.8244 785.7033 29749.3017 708.8244 785.7033
ENERGY: 300000 2.8159 7.3159 2.3155 0.0000 -10574.9621 1446.3987 0.0000 0.0000 1791.2843 -7324.8317 307.5453 -9116.1161 -7366.6848 302.5787 -34.2661 79.1477 30306.4495 221.6619 302.2028
ENERGY: 600000 1.0390 6.8356 1.9532 0.0000 -10599.2152 1381.3856 0.0000 0.0000 1730.7937 -7477.2081 297.1597 -9208.0018 -7403.8500 301.0436 -531.9810 -460.4900 29795.3585 100.4292 181.9290
ENERGY: 900000 0.8504 7.4545 2.3314 0.0000 -10450.2899 1314.0211 0.0000 0.0000 1787.6695 -7337.9629 306.9247 -9125.6324 -7392.8341 302.2369 -808.2583 -719.1867 30011.0386 -9.9556 74.9965
ENERGY: 1200000 2.3741 6.9155 2.1288 0.0000 -10472.6587 1376.6794 0.0000 0.0000 1741.2312 -7343.3297 298.9517 -9084.5609 -7405.1073 300.4050 -538.2905 -469.9410 30413.7393 -34.2008 46.2054
ENERGY: 1500000 1.5162 9.3517 3.7120 0.0000 -10471.1675 1347.0036 0.0000 0.0000 1731.9774 -7377.6066 297.3629 -9109.5841 -7397.4996 300.1612 -288.4816 -215.7578 29603.4390 -22.0528 55.8376
TCL: Running FEP window   2: Lambda1 0.05   Lambda2 0.1    [dLambda 0.05  ]
TCL: Setting parameter firsttimestep to 0
TCL: Setting parameter alchLambda to 0.05
Info: NONBONDED TABLE R-SQUARED SPACING: 0.0625
Info: NONBONDED TABLE SIZE: 705 POINTS
TCL: Setting parameter alchLambda2 to 0.1
Info: NONBONDED TABLE R-SQUARED SPACING: 0.0625
Info: NONBONDED TABLE SIZE: 705 POINTS
TCL: Running for 1500000 steps
ETITLE: TS BOND ANGLE DIHED IMPRP ELECT VDW BOUNDARY MISC KINETIC TOTAL TEMP POTENTIAL TOTALAVG TEMPAVG PRESSURE GPRESSURE VOLUME PRESSAVG GPRESSAVG
ENERGY: 0 1.5161 9.3517 3.7120 0.0000 -10471.1684 1347.9994 0.0000 0.0000 1731.1247 -7377.4645 297.2165 -9108.5892 -7377.4645 297.2165 -280.8778 -212.4654 29603.4390 -280.8778 -212.4654
ENERGY: 300000 3.5422 10.1657 4.3191 0.0000 -10706.8954 1500.9605 0.0000 0.0000 1758.4930 -7429.4149 301.9154 -9187.9079 -7414.5015 297.1690 443.6752 460.7721 30025.4803 182.8975 250.5299
ENERGY: 600000 1.7143 8.5579 2.8161 0.0000 -10648.4047 1469.5255 0.0000 0.0000 1764.7925 -7400.9985 302.9969 -9165.7910 -7413.9592 299.2728 258.8518 258.2958 30065.0538 163.8190 216.6754
ENERGY: 900000 4.2327 11.3158 2.1998 0.0000 -10514.1937 1421.4805 0.0000 0.0000 1710.7542 -7364.2107 293.7191 -9074.9649 -7407.5747 299.7734 55.1715 122.8063 30080.6417 -7.9714 44.7817
ENERGY: 1200000 2.3513 9.8502 3.9889 0.0000 -10507.8155 1304.3590 0.0000 0.0000 1868.6371 -7318.6289 320.8260 -9187.2661 -7393.9216 301.3793 -903.9975 -838.8187 29529.4465 -2.2995 47.8822
ENERGY: 1500000 1.8194 11.0601 2.6064 0.0000 -10488.2168 1375.7354 0.0000 0.0000 1773.6745 -7323.3209 304.5219 -9096.9954 -7399.4714 301.1603 -186.4316 -80.5777 29787.0450 8.7636 63.1413
TCL: Running FEP window   3: Lambda1 0.1    Lambda2 0.15000000000000002 [dLambda 0.05000000000000002]
TCL: Setting parameter firsttimestep to 0
TCL: Setting parameter alchLambda to 0.1
Info: NONBONDED TABLE R-SQUARED SPACING: 0.0625
Info: NONBONDED TABLE SIZE: 705 POINTS
TCL: Setting parameter alchLambda2 to 0.15000000000000002
Info: NONBONDED TABLE R-SQUARED SPACING: 0.0625
Info: NONBONDED TABLE SIZE: 705 POINTS
TCL: Running for 1500000 steps
ETITLE: TS BOND ANGLE DIHED IMPRP ELECT VDW BOUNDARY MISC KINETIC TOTAL TEMP POTENTIAL TOTALAVG TEMPAVG PRESSURE GPRESSURE VOLUME PRESSAVG GPRESSAVG
ENERGY: 0 1.8194 11.0601 2.6064 0.0000 -10488.2201 1376.8243 0.0000 0.0000 1772.7644 -7323.1455 304.3656 -9095.9099 -7323.1455 304.3656 -155.0108 -78.1374 29787.0450 -155.0108 -78.1374
ENERGY: 300000 0.8091 8.6065 2.8610 0.0000 -10559.6331 1456.9076 0.0000 0.0000 1782.1820 -7308.2668 305.9825 -9090.4489 -7352.6487 301.1797 219.5246 222.1236 30262.0783 -264.8681 -198.4749
ENERGY: 600000 2.3792 10.2435 2.8645 0.0000 -10654.1714 1399.9123 0.0000 0.0000 1697.7190 -7541.0529 291.4811 -9238.7718 -7404.3648 299.5917 -401.9030 -343.6222 29624.6196 -32.4920 29.1686
ENERGY: 900000 1.3254 5.9903 2.3438 0.0000 -10594.7845 1434.5245 0.0000 0.0000 1797.0182 -7353.5823 308.5297 -9150.6005 -7395.6783 299.8945 14.7199 95.7388 30285.0397 -20.8223 49.6767
ENERGY: 1200000 1.9792 9.0330 2.7736 0.0000 -10472.6336 1394.6054 0.0000 0.0000 1773.0351 -7291.2074 304.4121 -9064.2425 -7397.9662 300.1340 -55.2958 0.5610 30106.2768 -24.2762 44.4577
ENERGY: 1500000 1.1094 11.3625 3.4229 0.0000 -10740.6968 1521.5599 0.0000 0.0000 1690.1874 -7513.0548 290.1880 -9203.2422 -7402.7756 299.1225 613.5343 711.1085 29690.8061 49.7238 117.3775
TCL: Running FEP window   4: Lambda1 0.15000000000000002 Lambda2 0.2    [dLambda 0.04999999999999999]
TCL: Setting parameter firsttimestep to 0
TCL: Setting parameter alchLambda to 0.15000000000000002
Info: NONBONDED TABLE R-SQUARED SPACING: 0.0625
Info: NONBONDED TABLE SIZE: 705 POINTS
TCL: Setting parameter alchLambda2 to 0.2
Info: NONBONDED TABLE R-SQUARED SPACING: 0.0625
Info: NONBONDED TABLE SIZE: 705 POINTS
TCL: Running for 1500000 steps
ETITLE: TS BOND ANGLE DIHED IMPRP ELECT VDW BOUNDARY MISC KINETIC TOTAL TEMP POTENTIAL TOTALAVG TEMPAVG PRESSURE GPRESSURE VOLUME PRESSAVG GPRESSAVG
ENERGY: 0 1.1094 11.3625 3.4229 0.0000 -10740.6956 1521.5738 0.0000 0.0000 1689.3012 -7513.9258 290.0358 -9203.2269 -7513.9258 290.0358 632.0827 713.3102 29690.8061 632.0827 713.3102
ENERGY: 300000 1.6924 7.8145 2.2735 0.0000 -10488.3829 1321.4728 0.0000 0.0000 1718.8955 -7436.2341 295.1169 -9155.1296 -7449.6294 297.7549 -920.5111 -922.5391 30328.5876 -262.8743 -204.9537
ENERGY: 600000 0.9159 8.1020 3.0471 0.0000 -10426.1855 1400.6077 0.0000 0.0000 1759.8182 -7253.6946 302.1429 -9013.5128 -7428.3477 296.2079 253.4852 364.8894 30069.9651 -231.2397 -160.0377
ENERGY: 900000 3.7711 7.1585 3.9379 0.0000 -10612.6389 1411.4076 0.0000 0.0000 1728.6235 -7457.7403 296.7871 -9186.3638 -7416.1813 296.5761 -582.8804 -520.4112 30282.5202 -235.8359 -176.5197
ENERGY: 1200000 0.8947 4.7500 2.0556 0.0000 -10554.4314 1371.1679 0.0000 0.0000 1775.6308 -7399.9324 304.8578 -9175.5633 -7414.6851 297.5389 -518.8749 -527.8812 30171.7926 -269.8197 -209.4724
ENERGY: 1500000 0.8272 5.4312 1.8941 0.0000 -10629.0614 1408.5951 0.0000 0.0000 1811.7770 -7400.5368 311.0637 -9212.3138 -7413.9485 298.6523 -267.7966 -160.9252 29934.0538 -238.4731 -172.1374
TCL: Running FEP window   5: Lambda1 0.2    Lambda2 0.25   [dLambda 0.04999999999999999]
TCL: Setting parameter firsttimestep to 0
TCL: Setting parameter alchLambda to 0.2
Info: NONBONDED TABLE R-SQUARED SPACING: 0.0625
Info: NONBONDED TABLE SIZE: 705 POINTS
TCL: Setting parameter alchLambda2 to 0.25
Info: NONBONDED TABLE R-SQUARED SPACING: 0.0625
Info: NONBONDED TABLE SIZE: 705 POINTS
TCL: Running for 1500000 steps
ETITLE: TS BOND ANGLE DIHED IMPRP ELECT VDW BOUNDARY MISC KINETIC TOTAL TEMP POTENTIAL TOTALAVG TEMPAVG PRESSURE GPRESSURE VOLUME PRESSAVG GPRESSAVG
ENERGY: 0 0.8272 5.4312 1.8941 0.0000 -10629.0604 1408.8703 0.0000 0.0000 1810.8771 -7401.1606 310.9092 -9212.0376 -7401.1606 310.9092 -235.5065 -156.7332 29934.0538 -235.5065 -156.7332
ENERGY: 300000 0.9852 7.1522 5.1107 0.0000 -10526.8663 1427.3301 0.0000 0.0000 1788.2885 -7297.9996 307.0310 -9086.2881 -7384.0793 304.6816 104.3409 268.0488 29985.8099 213.3574 296.6468
ENERGY: 600000 0.8144 8.1775 2.3908 0.0000 -10579.8966 1409.3567 0.0000 0.0000 1764.2971 -7394.8600 302.9119 -9159.1571 -7398.4783 302.5051 -8.1688 83.4220 29891.8955 146.5863 231.3816
ENERGY: 900000 0.8898 8.3378 3.4824 0.0000 -10679.2784 1517.6148 0.0000 0.0000 1743.7270 -7405.2266 299.3802 -9148.9536 -7410.7418 300.8103 589.0757 652.9546 30176.9544 45.8170 129.7241
ENERGY: 1200000 1.0992 9.2709 2.7111 0.0000 -10667.1980 1455.8317 0.0000 0.0000 1748.7822 -7449.5028 300.2481 -9198.2850 -7413.0952 299.6756 363.3884 379.7330 29551.5739 46.4393 121.0009
ENERGY: 1500000 0.9170 9.0043 3.0800 0.0000 -10569.1589 1440.1286 0.0000 0.0000 1728.7268 -7387.3022 296.8048 -9116.0290 -7409.5524 299.2312 15.7564 72.4424 30452.9022 -5.2923 61.5675
TCL: Running FEP window   6: Lambda1 0.25   Lambda2 0.3    [dLambda 0.04999999999999999]
TCL: Setting parameter firsttimestep to 0
TCL: Setting parameter alchLambda to 0.25
Info: NONBONDED TABLE R-SQUARED SPACING: 0.0625
Info: NONBONDED TABLE SIZE: 705 POINTS
TCL: Setting parameter alchLambda2 to 0.3
Info: NONBONDED TABLE R-SQUARED SPACING: 0.0625
Info: NONBONDED TABLE SIZE: 705 POINTS
TCL: Running for 1500000 steps
ETITLE: TS BOND ANGLE DIHED IMPRP ELECT VDW BOUNDARY MISC KINETIC TOTAL TEMP POTENTIAL TOTALAVG TEMPAVG PRESSURE GPRESSURE VOLUME PRESSAVG GPRESSAVG
ENERGY: 0 0.9170 9.0043 3.0800 0.0000 -10569.1587 1439.8197 0.0000 0.0000 1727.8552 -7388.4825 296.6552 -9116.3377 -7388.4825 296.6552 -6.8480 75.5697 30452.9022 -6.8480 75.5697
ENERGY: 300000 0.6423 7.3578 2.0288 0.0000 -10459.3239 1348.7933 0.0000 0.0000 1771.3801 -7329.1216 304.1279 -9100.5017 -7345.3623 301.3477 -453.9069 -390.0600 30252.7552 -210.5819 -151.3071
ENERGY: 600000 2.7731 9.4824 2.4546 0.0000 -10462.2074 1361.0022 0.0000 0.0000 1757.1316 -7329.3635 301.6816 -9086.4951 -7361.5003 300.2933 -424.8659 -329.8650 30284.2249 -175.8403 -103.8669
ENERGY: 900000 1.0701 6.7003 2.1060 0.0000 -10526.2077 1447.0367 0.0000 0.0000 1783.0297 -7286.2648 306.1281 -9069.2945 -7360.9949 300.7019 290.5136 388.1618 30249.8965 -28.0011 54.3142
ENERGY: 1200000 2.1157 5.4818 2.8394 0.0000 -10733.7331 1471.7475 0.0000 0.0000 1789.9115 -7461.6372 307.3096 -9251.5487 -7375.1558 301.2846 272.5138 348.3457 29825.1603 34.1098 114.7011
ENERGY: 1500000 2.7692 8.0968 2.1689 0.0000 -10597.1655 1426.2414 0.0000 0.0000 1788.1961 -7369.6930 307.0151 -9157.8891 -7379.3991 301.2197 -124.1438 -26.6691 29992.7617 94.7284 174.1619
TCL: Running FEP window   7: Lambda1 0.3    Lambda2 0.35   [dLambda 0.04999999999999999]
TCL: Setting parameter firsttimestep to 0
TCL: Setting parameter alchLambda to 0.3
Info: NONBONDED TABLE R-SQUARED SPACING: 0.0625
Info: NONBONDED TABLE SIZE: 705 POINTS
TCL: Setting parameter alchLambda2 to 0.35
Info: NONBONDED TABLE R-SQUARED SPACING: 0.0625
Info: NONBONDED TABLE SIZE: 705 POINTS
TCL: Running for 1500000 steps
ETITLE: TS BOND ANGLE DIHED IMPRP ELECT VDW BOUNDARY MISC KINETIC TOTAL TEMP POTENTIAL TOTALAVG TEMPAVG PRESSURE GPRESSURE VOLUME PRESSAVG GPRESSAVG
ENERGY: 0 2.7693 8.0968 2.1689 0.0000 -10597.1670 1426.0476 0.0000 0.0000 1787.3575 -7370.7270 306.8711 -9158.0844 -7370.7270 306.8711 -106.8447 -21.4853 29992.7617 -106.8447 -21.4853
ENERGY: 300000 1.3626 8.7582 3.2198 0.0000 -10523.5068 1348.3650 0.0000 0.0000 1789.9678 -7371.8334 307.3193 -9161.8012 -7389.4795 302.2728 -391.8774 -332.9865 29613.3548 -196.4858 -149.8050
ENERGY: 600000 2.2398 10.1984 2.7144 0.0000 -10608.1649 1458.6787 0.0000 0.0000 1700.0036 -7434.3299 291.8733 -9134.3335 -7392.2107 301.7262 144.7224 286.3849 29829.4689 -17.3116 41.2827
ENERGY: 900000 4.4995 9.6009 4.0323 0.0000 -10466.3025 1314.7864 0.0000 0.0000 1816.9174 -7316.4660 311.9462 -9133.3835 -7380.7096 303.1756 -1149.4225 -1094.5014 30852.6165 -54.5793 17.1257
ENERGY: 1200000 1.0312 6.0025 2.8824 0.0000 -10616.7185 1493.6343 0.0000 0.0000 1766.3280 -7346.8401 303.2606 -9113.1681 -7385.9111 303.2180 564.5611 625.7754 30355.4560 -16.0900 55.5807
ENERGY: 1500000 1.7239 8.1104 2.8965 0.0000 -10701.9264 1573.6968 0.0000 0.0000 1760.2328 -7355.2660 302.2141 -9115.4989 -7385.2575 302.7417 1349.5662 1463.8589 29737.4981 35.2886 103.4186
TCL: Running FEP window   8: Lambda1 0.35   Lambda2 0.39999999999999997 [dLambda 0.04999999999999999]
TCL: Setting parameter firsttimestep to 0
TCL: Setting parameter alchLambda to 0.35
Info: NONBONDED TABLE R-SQUARED SPACING: 0.0625
Info: NONBONDED TABLE SIZE: 705 POINTS
TCL: Setting parameter alchLambda2 to 0.39999999999999997
Info: NONBONDED TABLE R-SQUARED SPACING: 0.0625
Info: NONBONDED TABLE SIZE: 705 POINTS
TCL: Running for 1500000 steps
ETITLE: TS BOND ANGLE DIHED IMPRP ELECT VDW BOUNDARY MISC KINETIC TOTAL TEMP POTENTIAL TOTALAVG TEMPAVG PRESSURE GPRESSURE VOLUME PRESSAVG GPRESSAVG
ENERGY: 0 1.7239 8.1104 2.8965 0.0000 -10701.9261 1575.1623 0.0000 0.0000 1759.3448 -7354.6882 302.0616 -9114.0330 -7354.6882 302.0616 1391.9563 1479.6439 29737.4981 1391.9563 1479.6439
ENERGY: 300000 0.4871 5.9004 2.8218 0.0000 -10597.3383 1448.2286 0.0000 0.0000 1709.5006 -7430.3998 293.5039 -9139.9004 -7400.0775 300.1017 137.1593 203.2533 30284.2679 111.5098 186.6808
ENERGY: 600000 0.8337 10.2184 3.7662 0.0000 -10406.9256 1326.9942 0.0000 0.0000 1754.3958 -7310.7173 301.2119 -9065.1131 -7387.4473 301.0336 -734.2976 -670.3340 30265.4858 -36.9484 35.2115
ENERGY: 900000 4.1649 5.5477 2.2090 0.0000 -10642.9825 1430.3183 0.0000 0.0000 1814.4775 -7386.2652 311.5273 -9200.7426 -7396.1222 300.5798 -247.4018 -181.8542 30135.6266 10.3670 81.1812
ENERGY: 1200000 1.6314 5.2228 3.3388 0.0000 -10677.9303 1433.6382 0.0000 0.0000 1684.6610 -7549.4380 289.2392 -9234.0990 -7409.1483 299.3930 -113.2575 -68.0603 29706.8382 -5.6905 62.8920
ENERGY: 1500000 4.5232 8.9271 2.1118 0.0000 -10612.1346 1464.0388 0.0000 0.0000 1750.1854 -7382.3483 300.4890 -9132.5337 -7401.3888 300.1599 161.8628 306.4722 30268.9650 41.0413 112.1128
TCL: Running FEP window   9: Lambda1 0.39999999999999997 Lambda2 0.44999999999999996 [dLambda 0.04999999999999999]
TCL: Setting parameter firsttimestep to 0
TCL: Setting parameter alchLambda to 0.39999999999999997
Info: NONBONDED TABLE R-SQUARED SPACING: 0.0625
Info: NONBONDED TABLE SIZE: 705 POINTS
TCL: Setting parameter alchLambda2 to 0.44999999999999996
Info: NONBONDED TABLE R-SQUARED SPACING: 0.0625
Info: NONBONDED TABLE SIZE: 705 POINTS
TCL: Running for 1500000 steps
ETITLE: TS BOND ANGLE DIHED IMPRP ELECT VDW BOUNDARY MISC KINETIC TOTAL TEMP POTENTIAL TOTALAVG TEMPAVG PRESSURE GPRESSURE VOLUME PRESSAVG GPRESSAVG
ENERGY: 0 4.5232 8.9271 2.1118 0.0000 -10612.1344 1463.8601 0.0000 0.0000 1749.3237 -7383.3884 300.3411 -9132.7121 -7383.3884 300.3411 218.0971 308.8312 30268.9650 218.0971 308.8312
ENERGY: 300000 0.2200 3.6877 3.2722 0.0000 -10488.4462 1363.3753 0.0000 0.0000 1770.6462 -7347.2448 304.0020 -9117.8911 -7369.6231 304.4223 -470.2613 -416.7513 30252.3097 -31.9983 29.8056
ENERGY: 600000 1.3356 10.6743 3.1540 0.0000 -10621.8991 1472.4629 0.0000 0.0000 1767.8225 -7366.4497 303.5172 -9134.2722 -7363.9224 302.0085 235.7348 227.5009 30309.2217 -91.6421 -40.7776
ENERGY: 900000 1.1843 8.1096 3.8479 0.0000 -10605.9140 1415.2269 0.0000 0.0000 1730.7005 -7446.8449 297.1437 -9177.5454 -7366.2737 302.7416 -224.9233 -163.8405 30133.3914 -115.0166 -57.7416
ENERGY: 1200000 1.5590 7.3040 2.3356 0.0000 -10545.5836 1421.4579 0.0000 0.0000 1785.5064 -7327.4206 306.5533 -9112.9270 -7375.1070 302.6623 -28.8061 17.5227 30494.0844 -36.2806 14.7292
ENERGY: 1500000 1.4959 7.2638 1.8870 0.0000 -10406.2306 1350.8090 0.0000 0.0000 1782.1168 -7262.6582 305.9713 -9044.7750 -7366.8317 301.7867 -500.3413 -440.1294 30498.3152 -63.1936 -8.6366
TCL: Running FEP window  10: Lambda1 0.44999999999999996 Lambda2 0.49999999999999994 [dLambda 0.04999999999999999]
TCL: Setting parameter firsttimestep to 0
TCL: Setting parameter alchLambda to 0.44999999999999996
Info: NONBONDED TABLE R-SQUARED SPACING: 0.0625
Info: NONBONDED TABLE SIZE: 705 POINTS
TCL: Setting parameter alchLambda2 to 0.49999999999999994
Info: NONBONDED TABLE R-SQUARED SPACING: 0.0625
Info: NONBONDED TABLE SIZE: 705 POINTS
TCL: Running for 1500000 steps
ETITLE: TS BOND ANGLE DIHED IMPRP ELECT VDW BOUNDARY MISC KINETIC TOTAL TEMP POTENTIAL TOTALAVG TEMPAVG PRESSURE GPRESSURE VOLUME PRESSAVG GPRESSAVG
ENERGY: 0 1.4959 7.2638 1.8870 0.0000 -10406.2316 1353.2073 0.0000 0.0000 1781.2819 -7261.0958 305.8280 -9042.3777 -7261.0958 305.8280 -506.3712 -416.1822 30498.3152 -506.3712 -416.1822
ENERGY: 300000 0.8934 5.5153 2.2535 0.0000 -10592.9135 1410.2743 0.0000 0.0000 1687.6435 -7486.3335 289.7512 -9173.9770 -7384.5294 298.9599 -165.7803 -126.2824 30005.7279 -329.2528 -255.9142
ENERGY: 600000 1.8652 11.0885 3.6352 0.0000 -10650.8571 1476.9133 0.0000 0.0000 1730.7753 -7426.5796 297.1565 -9157.3549 -7390.4859 298.4653 404.2783 509.8811 30041.2986 -240.4239 -171.7408
ENERGY: 900000 0.5941 6.0499 3.5902 0.0000 -10617.1516 1499.9150 0.0000 0.0000 1724.3375 -7382.6649 296.0512 -9107.0024 -7402.8074 297.9043 584.1691 653.0277 30199.9027 -94.8576 -28.8028
ENERGY: 1200000 0.5813 11.0085 2.2961 0.0000 -10611.4288 1425.8704 0.0000 0.0000 1705.8053 -7465.8672 292.8694 -9171.6725 -7413.7217 298.4351 37.1214 2.6578 30139.1295 -48.6884 4.6686
ENERGY: 1500000 3.6823 7.3149 2.3814 0.0000 -10686.8475 1461.7581 0.0000 0.0000 1762.4895 -7449.2212 302.6015 -9211.7107 -7408.5052 299.5364 187.1724 206.8242 29806.5928 -7.3843 43.6573
TCL: Running FEP window  11: Lambda1 0.49999999999999994 Lambda2 0.5499999999999999 [dLambda 0.04999999999999999]
TCL: Setting parameter firsttimestep to 0
TCL: Setting parameter alchLambda to 0.49999999999999994
Info: NONBONDED TABLE R-SQUARED SPACING: 0.0625
Info: NONBONDED TABLE SIZE: 705 POINTS
TCL: Setting parameter alchLambda2 to 0.5499999999999999
Info: NONBONDED TABLE R-SQUARED SPACING: 0.0625
Info: NONBONDED TABLE SIZE: 705 POINTS
TCL: Running for 1500000 steps
ETITLE: TS BOND ANGLE DIHED IMPRP ELECT VDW BOUNDARY MISC KINETIC TOTAL TEMP POTENTIAL TOTALAVG TEMPAVG PRESSURE GPRESSURE VOLUME PRESSAVG GPRESSAVG
ENERGY: 0 3.6823 7.3149 2.3814 0.0000 -10686.8464 1461.3344 0.0000 0.0000 1761.6094 -7450.5239 302.4504 -9212.1333 -7450.5239 302.4504 126.1072 207.5403 29806.5928 126.1072 207.5403
ENERGY: 300000 0.7910 4.3973 2.9823 0.0000 -10609.0037 1446.4931 0.0000 0.0000 1707.9865 -7446.3535 293.2439 -9154.3400 -7434.5080 297.4738 -106.9540 -6.2012 30417.3834 74.4965 165.1061
ENERGY: 600000 2.1471 8.4111 2.5889 0.0000 -10654.1332 1376.0950 0.0000 0.0000 1764.2240 -7500.6670 302.8993 -9264.8910 -7441.1816 298.9378 -855.0531 -758.9641 30261.2567 -60.9276 22.5856
ENERGY: 900000 1.0760 9.2831 2.8798 0.0000 -10869.8667 1574.2474 0.0000 0.0000 1774.6040 -7507.7764 304.6815 -9282.3804 -7441.2186 298.5120 1155.2753 1214.1178 29376.6545 7.6878 71.7868
ENERGY: 1200000 2.4356 4.4082 2.1021 0.0000 -10546.4267 1382.3641 0.0000 0.0000 1785.0083 -7370.1084 306.4678 -9155.1167 -7429.1080 299.3918 -371.3087 -313.3619 30100.6648 -83.7261 -27.5617
ENERGY: 1500000 0.2694 10.1703 1.8681 0.0000 -10476.6233 1352.1148 0.0000 0.0000 1754.4598 -7357.7409 301.2229 -9112.2007 -7421.5657 299.9108 -199.2517 -155.8558 29835.2728 -19.0434 32.9536
TCL: Running FEP window  12: Lambda1 0.5499999999999999 Lambda2 0.6    [dLambda 0.050000000000000044]
TCL: Setting parameter firsttimestep to 0
TCL: Setting parameter alchLambda to 0.5499999999999999
Info: NONBONDED TABLE R-SQUARED SPACING: 0.0625
Info: NONBONDED TABLE SIZE: 705 POINTS
TCL: Setting parameter alchLambda2 to 0.6
Info: NONBONDED TABLE R-SQUARED SPACING: 0.0625
Info: NONBONDED TABLE SIZE: 705 POINTS
TCL: Running for 1500000 steps
ETITLE: TS BOND ANGLE DIHED IMPRP ELECT VDW BOUNDARY MISC KINETIC TOTAL TEMP POTENTIAL TOTALAVG TEMPAVG PRESSURE GPRESSURE VOLUME PRESSAVG GPRESSAVG
ENERGY: 0 0.2694 10.1703 1.8681 0.0000 -10476.5227 1351.7608 0.0000 0.0000 1753.5878 -7358.8664 301.0732 -9112.4542 -7358.8664 301.0732 -233.4857 -153.1902 29835.2728 -233.4857 -153.1902
ENERGY: 300000 0.9683 7.3646 3.0113 0.0000 -10557.2683 1387.9975 0.0000 0.0000 1714.0118 -7443.9149 294.2784 -9157.9267 -7389.1128 299.5150 -239.3495 -232.2574 29985.3992 -24.6402 22.2871
ENERGY: 600000 1.3680 11.0300 2.8912 0.0000 -10531.5545 1391.7597 0.0000 0.0000 1733.4413 -7391.0642 297.6142 -9124.5055 -7387.8065 301.0224 -308.0841 -216.7801 30121.7522 -186.4366 -122.3855
ENERGY: 900000 1.2498 11.5193 3.2820 0.0000 -10571.2150 1407.9758 0.0000 0.0000 1746.4665 -7400.7216 299.8505 -9147.1880 -7398.4262 299.9893 -117.5774 -96.0932 30313.4197 -231.7439 -162.5256
ENERGY: 1200000 1.9979 11.4987 2.7690 0.0000 -10644.9484 1412.4971 0.0000 0.0000 1715.5646 -7500.6211 294.5450 -9216.1857 -7410.5893 298.9554 -453.4751 -413.7149 30156.9961 -268.2834 -205.8189
ENERGY: 1500000 4.4601 6.5698 2.4862 0.0000 -10472.0211 1332.3430 0.0000 0.0000 1806.0596 -7320.1024 310.0821 -9126.1621 -7401.5776 299.8502 -967.0853 -874.3940 30486.4671 -319.1738 -251.4820
TCL: Running FEP window  13: Lambda1 0.6    Lambda2 0.65   [dLambda 0.050000000000000044]
TCL: Setting parameter firsttimestep to 0
TCL: Setting parameter alchLambda to 0.6
Info: NONBONDED TABLE R-SQUARED SPACING: 0.0625
Info: NONBONDED TABLE SIZE: 705 POINTS
TCL: Setting parameter alchLambda2 to 0.65
Info: NONBONDED TABLE R-SQUARED SPACING: 0.0625
Info: NONBONDED TABLE SIZE: 705 POINTS
TCL: Running for 1500000 steps
ETITLE: TS BOND ANGLE DIHED IMPRP ELECT VDW BOUNDARY MISC KINETIC TOTAL TEMP POTENTIAL TOTALAVG TEMPAVG PRESSURE GPRESSURE VOLUME PRESSAVG GPRESSAVG
ENERGY: 0 4.4601 6.5698 2.4862 0.0000 -10471.5585 1332.3201 0.0000 0.0000 1805.1948 -7320.5276 309.9336 -9125.7224 -7320.5276 309.9336 -962.8132 -872.0265 30486.4671 -962.8132 -872.0265
ENERGY: 300000 1.0314 5.7948 1.9329 0.0000 -10497.8794 1350.0127 0.0000 0.0000 1739.3040 -7399.8036 298.6208 -9139.1076 -7388.4406 303.8317 -596.4366 -464.1680 30034.4113 -288.1310 -209.7312
ENERGY: 600000 2.0674 9.7630 5.4641 0.0000 -10548.0214 1348.2181 0.0000 0.0000 1682.3367 -7500.1721 288.8401 -9182.5087 -7401.7046 301.7315 -1077.3044 -1007.9239 30935.5294 -266.9737 -196.9555
ENERGY: 900000 2.3461 8.4985 2.8631 0.0000 -10606.4818 1449.9368 0.0000 0.0000 1730.1163 -7412.7209 297.0434 -9142.8372 -7408.0940 299.5901 337.1295 377.3554 30257.2418 -211.9956 -154.4234
ENERGY: 1200000 3.2646 8.9980 3.4095 0.0000 -10516.9626 1389.1490 0.0000 0.0000 1778.3073 -7333.8341 305.3173 -9112.1414 -7406.5752 299.7650 -369.8173 -296.1041 30273.1158 -196.8764 -142.8693
ENERGY: 1500000 6.2936 10.2794 5.3727 0.0000 -10469.7254 1370.2666 0.0000 0.0000 1684.9967 -7392.5165 289.2968 -9077.5132 -7404.8308 298.7172 -647.3974 -529.6072 30508.6520 -269.9404 -207.2168
TCL: Running FEP window  14: Lambda1 0.65   Lambda2 0.7000000000000001 [dLambda 0.050000000000000044]
TCL: Setting parameter firsttimestep to 0
TCL: Setting parameter alchLambda to 0.65
Info: NONBONDED TABLE R-SQUARED SPACING: 0.0625
Info: NONBONDED TABLE SIZE: 705 POINTS
TCL: Setting parameter alchLambda2 to 0.7000000000000001
Info: NONBONDED TABLE R-SQUARED SPACING: 0.0625
Info: NONBONDED TABLE SIZE: 705 POINTS
TCL: Running for 1500000 steps
ETITLE: TS BOND ANGLE DIHED IMPRP ELECT VDW BOUNDARY MISC KINETIC TOTAL TEMP POTENTIAL TOTALAVG TEMPAVG PRESSURE GPRESSURE VOLUME PRESSAVG GPRESSAVG
ENERGY: 0 6.2936 10.2794 5.3727 0.0000 -10472.0085 1371.7776 0.0000 0.0000 1684.1789 -7394.1064 289.1564 -9078.2853 -7394.1064 289.1564 -593.6855 -515.8411 30508.6520 -593.6855 -515.8411
ENERGY: 300000 0.5229 8.1833 2.5566 0.0000 -10468.5163 1372.5016 0.0000 0.0000 1680.0925 -7404.6594 288.4548 -9084.7519 -7387.4227 294.7678 -211.4960 -118.9143 29954.8682 -38.3474 29.4359
ENERGY: 600000 0.8750 5.6311 1.6915 0.0000 -10599.2838 1392.4405 0.0000 0.0000 1726.9139 -7471.7319 296.4936 -9198.6458 -7393.3268 297.4254 -474.6908 -407.2126 30172.6313 30.0977 92.0500
ENERGY: 900000 0.7121 8.2974 3.5718 0.0000 -10558.6747 1398.9294 0.0000 0.0000 1689.3785 -7457.7855 290.0491 -9147.1640 -7403.9849 297.1509 -128.4698 -27.8253 29840.4380 156.9338 228.8038
ENERGY: 1200000 1.8144 5.8502 2.3063 0.0000 -10762.7173 1509.2177 0.0000 0.0000 1743.9484 -7499.5802 299.4182 -9243.5287 -7412.7723 298.0102 727.9749 730.0075 29406.5191 285.5532 340.2373
ENERGY: 1500000 2.5794 6.4353 2.5191 0.0000 -10506.0643 1334.2849 0.0000 0.0000 1816.0548 -7344.1908 311.7981 -9160.2456 -7410.2761 298.8812 -468.0591 -438.7351 29939.3395 265.6908 320.0423
TCL: Running FEP window  15: Lambda1 0.7000000000000001 Lambda2 0.7500000000000001 [dLambda 0.050000000000000044]
TCL: Setting parameter firsttimestep to 0
TCL: Setting parameter alchLambda to 0.7000000000000001
Info: NONBONDED TABLE R-SQUARED SPACING: 0.0625
Info: NONBONDED TABLE SIZE: 705 POINTS
TCL: Setting parameter alchLambda2 to 0.7500000000000001
Info: NONBONDED TABLE R-SQUARED SPACING: 0.0625
Info: NONBONDED TABLE SIZE: 705 POINTS
TCL: Running for 1500000 steps
ETITLE: TS BOND ANGLE DIHED IMPRP ELECT VDW BOUNDARY MISC KINETIC TOTAL TEMP POTENTIAL TOTALAVG TEMPAVG PRESSURE GPRESSURE VOLUME PRESSAVG GPRESSAVG
ENERGY: 0 2.5794 6.4353 2.5191 0.0000 -10507.4142 1335.2043 0.0000 0.0000 1815.1798 -7345.4962 311.6479 -9160.6761 -7345.4962 311.6479 -516.8804 -425.8196 29939.3395 -516.8804 -425.8196
ENERGY: 300000 1.1553 7.4740 2.3535 0.0000 -10614.7649 1470.2491 0.0000 0.0000 1717.8184 -7415.7145 294.9320 -9133.5330 -7374.7934 301.8201 342.3282 350.0660 30163.1057 8.6262 58.2642
ENERGY: 600000 2.2344 7.3674 3.7279 0.0000 -10526.1709 1420.7423 0.0000 0.0000 1827.1519 -7264.9470 313.7034 -9092.0988 -7383.5870 302.2130 115.9536 216.8996 30108.6653 227.0882 288.2492
ENERGY: 900000 3.1461 9.9990 2.5783 0.0000 -10518.2686 1426.6661 0.0000 0.0000 1807.3940 -7268.4850 310.3112 -9075.8791 -7376.2826 302.2483 220.4103 212.9383 30335.4498 205.4595 255.9364
ENERGY: 1200000 0.4811 10.3763 1.8977 0.0000 -10752.9300 1515.1967 0.0000 0.0000 1722.9009 -7502.0773 295.8046 -9224.9782 -7392.0065 301.7403 675.0586 737.7943 29614.3387 101.9762 160.7453
ENERGY: 1500000 2.9910 4.8914 3.3472 0.0000 -10496.3001 1333.5770 0.0000 0.0000 1718.1106 -7433.3828 294.9821 -9151.4935 -7395.9269 301.0803 -639.6916 -548.4368 29900.4341 37.3418 96.5952
TCL: Running FEP window  16: Lambda1 0.7500000000000001 Lambda2 0.8000000000000002 [dLambda 0.050000000000000044]
TCL: Setting parameter firsttimestep to 0
TCL: Setting parameter alchLambda to 0.7500000000000001
Info: NONBONDED TABLE R-SQUARED SPACING: 0.0625
Info: NONBONDED TABLE SIZE: 705 POINTS
TCL: Setting parameter alchLambda2 to 0.8000000000000002
Info: NONBONDED TABLE R-SQUARED SPACING: 0.0625
Info: NONBONDED TABLE SIZE: 705 POINTS
TCL: Running for 1500000 steps
ETITLE: TS BOND ANGLE DIHED IMPRP ELECT VDW BOUNDARY MISC KINETIC TOTAL TEMP POTENTIAL TOTALAVG TEMPAVG PRESSURE GPRESSURE VOLUME PRESSAVG GPRESSAVG
ENERGY: 0 2.9910 4.8914 3.3472 0.0000 -10496.8176 1333.2486 0.0000 0.0000 1717.2383 -7435.1011 294.8323 -9152.3394 -7435.1011 294.8323 -625.9232 -542.8545 29900.4341 -625.9232 -542.8545
ENERGY: 300000 1.0947 9.2712 3.0036 0.0000 -10691.3071 1456.6565 0.0000 0.0000 1770.8324 -7450.4488 304.0339 -9221.2812 -7442.6019 300.2961 285.9206 289.4991 29851.9412 -200.0271 -151.2049
ENERGY: 600000 3.8495 8.7866 2.5681 0.0000 -10741.3522 1537.9044 0.0000 0.0000 1771.8881 -7416.3556 304.2152 -9188.2436 -7435.1771 301.3958 569.3721 704.8011 30434.7904 -72.4228 -7.2785
ENERGY: 900000 2.0802 10.5633 2.7647 0.0000 -10470.7729 1371.5869 0.0000 0.0000 1739.4703 -7344.3074 298.6494 -9083.7777 -7422.4858 300.3523 -355.7347 -222.5745 30316.9794 23.1273 89.3656
ENERGY: 1200000 0.7971 5.9715 3.2466 0.0000 -10623.0248 1458.3113 0.0000 0.0000 1782.3939 -7372.3045 306.0189 -9154.6984 -7424.9750 300.4266 208.0047 142.2294 30196.1440 14.8603 59.3915
ENERGY: 1500000 1.2819 7.2348 2.8041 0.0000 -10489.2872 1351.0423 0.0000 0.0000 1710.5729 -7416.3512 293.6880 -9126.9241 -7419.4971 300.0840 -686.0954 -626.2669 30367.2907 -84.3644 -33.0614
TCL: Running FEP window  17: Lambda1 0.8000000000000002 Lambda2 0.8500000000000002 [dLambda 0.050000000000000044]
TCL: Setting parameter firsttimestep to 0
TCL: Setting parameter alchLambda to 0.8000000000000002
Info: NONBONDED TABLE R-SQUARED SPACING: 0.0625
Info: NONBONDED TABLE SIZE: 705 POINTS
TCL: Setting parameter alchLambda2 to 0.8500000000000002
Info: NONBONDED TABLE R-SQUARED SPACING: 0.0625
Info: NONBONDED TABLE SIZE: 705 POINTS
TCL: Running for 1500000 steps
ETITLE: TS BOND ANGLE DIHED IMPRP ELECT VDW BOUNDARY MISC KINETIC TOTAL TEMP POTENTIAL TOTALAVG TEMPAVG PRESSURE GPRESSURE VOLUME PRESSAVG GPRESSAVG
ENERGY: 0 1.2819 7.2348 2.8041 0.0000 -10492.0091 1352.4787 0.0000 0.0000 1709.6844 -7418.5250 293.5354 -9128.2095 -7418.5250 293.5354 -693.0277 -608.3589 30367.2907 -693.0277 -608.3589
ENERGY: 300000 3.5785 8.4204 2.7710 0.0000 -10625.6283 1423.2515 0.0000 0.0000 1717.1269 -7470.4800 294.8132 -9187.6069 -7421.3665 297.5046 -134.3884 -97.7407 29806.2842 -353.8967 -319.8158
ENERGY: 600000 1.7892 9.5188 3.5987 0.0000 -10617.7848 1434.2551 0.0000 0.0000 1736.4022 -7432.2208 298.1226 -9168.6230 -7410.7468 300.1512 2.4224 132.0756 29732.7155 -173.0269 -111.2868
ENERGY: 900000 1.3567 8.7183 2.3578 0.0000 -10679.3849 1485.1423 0.0000 0.0000 1736.2569 -7445.5529 298.0976 -9181.8098 -7426.3759 298.8153 626.8553 687.8314 29753.7408 -77.6038 -23.3281
ENERGY: 1200000 2.2401 12.0715 3.5015 0.0000 -10501.4022 1358.8607 0.0000 0.0000 1773.7954 -7350.9330 304.5426 -9124.7284 -7418.6700 299.6292 -532.3693 -484.4049 30329.8063 -156.7792 -97.0431
ENERGY: 1500000 1.0043 6.7314 1.8904 0.0000 -10522.7328 1364.4448 0.0000 0.0000 1764.8220 -7383.8399 303.0020 -9148.6619 -7417.0385 299.6377 -358.6751 -317.7026 30018.6655 -140.8445 -85.2005
TCL: Running FEP window  18: Lambda1 0.8500000000000002 Lambda2 0.9000000000000002 [dLambda 0.050000000000000044]
TCL: Setting parameter firsttimestep to 0
TCL: Setting parameter alchLambda to 0.8500000000000002
Info: NONBONDED TABLE R-SQUARED SPACING: 0.0625
Info: NONBONDED TABLE SIZE: 705 POINTS
TCL: Setting parameter alchLambda2 to 0.9000000000000002
Info: NONBONDED TABLE R-SQUARED SPACING: 0.0625
Info: NONBONDED TABLE SIZE: 705 POINTS
TCL: Running for 1500000 steps
ETITLE: TS BOND ANGLE DIHED IMPRP ELECT VDW BOUNDARY MISC KINETIC TOTAL TEMP POTENTIAL TOTALAVG TEMPAVG PRESSURE GPRESSURE VOLUME PRESSAVG GPRESSAVG
ENERGY: 0 1.0043 6.7314 1.8904 0.0000 -10524.6820 1367.6308 0.0000 0.0000 1763.9432 -7383.4820 302.8511 -9147.4252 -7383.4820 302.8511 -371.4072 -283.9757 30018.6655 -371.4072 -283.9757
ENERGY: 300000 1.5050 7.1844 3.0941 0.0000 -10720.2936 1520.6858 0.0000 0.0000 1741.4498 -7446.3745 298.9892 -9187.8244 -7383.0239 302.6243 550.1091 643.5421 30220.5831 -38.1402 19.0837
ENERGY: 600000 1.3231 6.5068 3.4157 0.0000 -10552.0624 1390.5674 0.0000 0.0000 1771.3568 -7378.8927 304.1239 -9150.2495 -7413.7354 302.1591 -395.4436 -283.5031 30246.6156 -212.1027 -138.7641
ENERGY: 900000 1.1291 7.4626 2.7439 0.0000 -10521.4486 1356.9486 0.0000 0.0000 1698.9329 -7454.2315 291.6895 -9153.1644 -7420.7723 300.5659 -541.3988 -426.4714 30144.4634 -256.2441 -181.7874
ENERGY: 1200000 3.3688 9.4950 2.1005 0.0000 -10566.5410 1435.6254 0.0000 0.0000 1749.0342 -7366.9171 300.2914 -9115.9513 -7413.7378 300.5845 123.2363 188.7296 30361.5384 -242.4994 -169.2219
ENERGY: 1500000 2.6547 8.6375 4.1613 0.0000 -10557.2398 1397.2431 0.0000 0.0000 1788.2542 -7356.2890 307.0251 -9144.5431 -7413.0373 300.4316 -96.8798 -55.2190 30028.4761 -217.0484 -150.9190
TCL: Running FEP window  19: Lambda1 0.9000000000000002 Lambda2 0.9500000000000003 [dLambda 0.050000000000000044]
TCL: Setting parameter firsttimestep to 0
TCL: Setting parameter alchLambda to 0.9000000000000002
Info: NONBONDED TABLE R-SQUARED SPACING: 0.0625
Info: NONBONDED TABLE SIZE: 705 POINTS
TCL: Setting parameter alchLambda2 to 0.9500000000000003
Info: NONBONDED TABLE R-SQUARED SPACING: 0.0625
Info: NONBONDED TABLE SIZE: 705 POINTS
TCL: Running for 1500000 steps
ETITLE: TS BOND ANGLE DIHED IMPRP ELECT VDW BOUNDARY MISC KINETIC TOTAL TEMP POTENTIAL TOTALAVG TEMPAVG PRESSURE GPRESSURE VOLUME PRESSAVG GPRESSAVG
ENERGY: 0 2.6547 8.6375 4.1613 0.0000 -10559.6519 1399.2384 0.0000 0.0000 1787.3844 -7357.5755 306.8757 -9144.9599 -7357.5755 306.8757 -116.9229 -26.5840 30028.4761 -116.9229 -26.5840
ENERGY: 300000 0.6275 10.3409 2.8934 0.0000 -10556.2195 1399.1472 0.0000 0.0000 1754.1633 -7389.0472 301.1720 -9143.2105 -7378.6314 301.9728 -85.2921 -38.2752 30240.9002 -359.5821 -289.6403
ENERGY: 600000 0.1823 12.1346 2.9558 0.0000 -10491.2448 1328.1980 0.0000 0.0000 1803.0640 -7344.7101 309.5678 -9147.7741 -7399.3723 301.6031 -538.9590 -472.9238 29741.8242 -105.1318 -34.0989
ENERGY: 900000 1.9931 8.5526 2.1038 0.0000 -10496.3845 1383.0088 0.0000 0.0000 1735.2339 -7365.4923 297.9220 -9100.7262 -7399.6246 300.2583 -449.3401 -362.9135 30520.7703 -0.7345 68.1229
ENERGY: 1200000 2.2808 9.0283 3.0522 0.0000 -10636.0924 1496.6668 0.0000 0.0000 1747.4159 -7377.6484 300.0135 -9125.0643 -7397.6068 299.5410 723.7073 795.3075 30146.7369 5.7502 65.8942
ENERGY: 1500000 2.0446 11.7288 2.2863 0.0000 -10528.7005 1391.2944 0.0000 0.0000 1763.7585 -7357.5880 302.8194 -9121.3465 -7393.7733 300.3552 -33.8457 -6.9840 30280.7355 -13.2978 46.9550
TCL: Running FEP window  20: Lambda1 0.9500000000000003 Lambda2 1.0    [dLambda 0.04999999999999971]
TCL: Setting parameter firsttimestep to 0
TCL: Setting parameter alchLambda to 0.9500000000000003
Info: NONBONDED TABLE R-SQUARED SPACING: 0.0625
Info: NONBONDED TABLE SIZE: 705 POINTS
TCL: Setting parameter alchLambda2 to 1.0
Info: NONBONDED TABLE R-SQUARED SPACING: 0.0625
Info: NONBONDED TABLE SIZE: 705 POINTS
TCL: Running for 1500000 steps
ETITLE: TS BOND ANGLE DIHED IMPRP ELECT VDW BOUNDARY MISC KINETIC TOTAL TEMP POTENTIAL TOTALAVG TEMPAVG PRESSURE GPRESSURE VOLUME PRESSAVG GPRESSAVG
ENERGY: 0 2.0446 11.7288 2.2863 0.0000 -10530.8367 1392.8909 0.0000 0.0000 1762.9111 -7358.9751 302.6739 -9121.8862 -7358.9751 302.6739 -60.8483 13.9564 30280.7355 -60.8483 13.9564
ENERGY: 300000 2.1391 9.9407 1.9847 0.0000 -10600.7677 1411.2097 0.0000 0.0000 1754.8769 -7420.6167 301.2945 -9175.4936 -7382.4302 302.3725 -239.7179 -194.2070 30529.5842 10.2321 67.2364
ENERGY: 600000 1.0403 10.4449 2.0131 0.0000 -10494.7661 1329.4822 0.0000 0.0000 1711.3024 -7440.4831 293.8132 -9151.7855 -7406.1020 299.0195 -720.7643 -689.4972 30346.8716 -164.6638 -112.5112
ENERGY: 900000 0.4967 8.2766 3.1040 0.0000 -10605.5484 1419.2453 0.0000 0.0000 1744.2593 -7430.1664 299.4716 -9174.4257 -7393.9879 299.3730 218.6493 201.5931 29664.0562 -229.2060 -177.3262
ENERGY: 1200000 1.1118 8.2813 4.4103 0.0000 -10628.0715 1425.1322 0.0000 0.0000 1682.4326 -7506.7033 288.8566 -9189.1360 -7417.3753 298.7128 -339.3917 -327.5246 30461.3760 -212.4393 -163.2606
ENERGY: 1500000 0.6041 7.4629 1.6816 0.0000 -10616.3124 1446.2040 0.0000 0.0000 1713.9254 -7446.4344 294.2636 -9160.3598 -7421.3117 298.2716 154.1525 180.6871 30292.2154 -125.2402 -73.2316
TCL: Exiting due to exit command.
