Info: SIMULATION PARAMETERS:
Info: TIMESTEP               2
Info: NUMBER OF STEPS        0
Info: STEPS PER CYCLE        10
Info: PERIODIC CELL BASIS 1  31.1317 0 0
Info: PERIODIC CELL BASIS 2  0 31.433 0
Info: PERIODIC CELL BASIS 3  0 0 30.7082
Info: PERIODIC CELL CENTER   0 0 0
Info: WRAPPING WATERS AROUND PERIODIC BOUNDARIES ON OUTPUT.
Info: WRAPPING ALL CLUSTERS AROUND PERIODIC BOUNDARIES ON OUTPUT.
Info: FIRST LDB TIMESTEP     50
Info: LAST LDB TIMESTEP     -1
Info: HOM BACKGROUND SCALING 1
Info: PME BACKGROUND SCALING 1
Info: MIN ATOMS PER PATCH    40
Info: EMPTY PATCH LOAD       40 ATOMS
Info: VELOCITY FILE          mobley_967099_equil.vel
Info: CENTER OF MASS MOVING INITIALLY? NO
Info: DIELECTRIC             1
Info: EXCLUDE                SCALED ONE-FOUR
Info: 1-4 ELECTROSTATICS SCALED BY 0.833333
Info: MODIFIED 1-4 VDW PARAMETERS WILL BE USED
Info: DCD FILENAME           mobley_967099_prod.dcd
Info: DCD FREQUENCY          100000
Info: DCD FIRST STEP         100000
Info: DCD FILE WILL CONTAIN UNIT CELL DATA
Info: XST FILENAME           mobley_967099_prod.xst
Info: XST FREQUENCY          100000
Info: NO VELOCITY DCD OUTPUT
Info: NO FORCE DCD OUTPUT
Info: OUTPUT FILENAME        mobley_967099_prod
Info: BINARY OUTPUT FILES WILL BE USED
Info: RESTART FILENAME       mobley_967099_prod.restart
Info: RESTART FREQUENCY      100000
Info: BINARY RESTART FILES WILL BE USED
Info: CUTOFF                 9
Info: PAIRLIST DISTANCE      11
Info: PAIRLIST SHRINK RATE   0.01
Info: PAIRLIST GROW RATE     0.01
Info: PAIRLIST TRIGGER       0.3
Info: PAIRLISTS PER CYCLE    2
Info: PAIRLISTS ENABLED
Info: MARGIN                 2
Info: HYDROGEN GROUP CUTOFF  2.5
Info: PATCH DIMENSION        15.5
Info: ENERGY OUTPUT STEPS    100000
Info: ENERGY EVALUATION STEPS    100000
Info: OUTPUT ENERGY PRECISION 4
Info: CROSSTERM ENERGY INCLUDED IN DIHEDRAL
Info: TIMING OUTPUT STEPS    1000000
Info: PRESSURE OUTPUT STEPS  100000
Info: ALCHEMICAL FEP ON
Info: FEP CURRENT LAMBDA VALUE     0
Info: FEP COMPARISON LAMBDA VALUE  0.05
Info: FEP INTRA-ALCHEMICAL NON-BONDED INTERACTIONS WILL BE RETAINED
Info: FEP INTRA-ALCHEMICAL BONDED INTERACTIONS WILL BE RETAINED
Info: FEP VDW SHIFTING COEFFICIENT 5
Info: FEP ELEC. ACTIVE FOR ANNIHILATED PARTICLES BETWEEN LAMBDA = 0 AND LAMBDA = 0.5
Info: FEP ELEC. ACTIVE FOR EXNIHILATED PARTICLES BETWEEN LAMBDA = 0.5 AND LAMBDA = 1
Info: FEP VDW ACTIVE FOR ANNIHILATED PARTICLES BETWEEN LAMBDA = 0 AND LAMBDA = 1
Info: FEP VDW ACTIVE FOR EXNIHILATED PARTICLES BETWEEN LAMBDA = 0 AND LAMBDA = 1
Info: FEP BOND ACTIVE FOR ANNIHILATED PARTICLES BETWEEN LAMBDA = 1 AND LAMBDA = 1
Info: FEP BOND ACTIVE FOR EXNIHILATED PARTICLES BETWEEN LAMBDA = 0 AND LAMBDA = 0
Info: LANGEVIN DYNAMICS ACTIVE
Info: LANGEVIN TEMPERATURE   300
Info: LANGEVIN USING BBK INTEGRATOR
Info: LANGEVIN DAMPING COEFFICIENT IS 1 INVERSE PS
Info: LANGEVIN DYNAMICS APPLIED TO HYDROGENS
Info: LANGEVIN PISTON PRESSURE CONTROL ACTIVE
Info:        TARGET PRESSURE IS 1.01325 BAR
Info:     OSCILLATION PERIOD IS 50 FS
Info:             DECAY TIME IS 25 FS
Info:     PISTON TEMPERATURE IS 300 K
Info:       PRESSURE CONTROL IS GROUP-BASED
Info:    INITIAL STRAIN RATE IS 0.00040962 0.00040962 0.00040962
Info:       CELL FLUCTUATION IS ISOTROPIC
Info: PARTICLE MESH EWALD (PME) ACTIVE
Info: PME TOLERANCE               1e-06
Info: PME EWALD COEFFICIENT       0.348832
Info: PME INTERPOLATION ORDER     4
Info: PME GRID DIMENSIONS         32 32 32
Info: PME MAXIMUM GRID SPACING    1
Info: PME CALCULATION WILL BE PERFORMED ON GPU
Info: FULL ELECTROSTATIC EVALUATION FREQUENCY      2
Info: USING VERLET I (r-RESPA) MTS SCHEME.
Info: C1 SPLITTING OF LONG RANGE ELECTROSTATICS
Info: PLACING ATOMS IN PATCHES BY HYDROGEN GROUPS
Info: RIGID BONDS TO HYDROGEN : ALL
Info:         ERROR TOLERANCE : 1e-08
Info:          MAX ITERATIONS : 100
Info: RIGID WATER USING SETTLE ALGORITHM
Info: RANDOM NUMBER SEED     1743734931
Info: USE HYDROGEN BONDS?    NO
Info: Using AMBER format force field!
Info: AMBER PARM FILE        mobley_967099.prmtop
Info: COORDINATE PDB         mobley_967099.pdb
Info: Exclusions will be read from PARM file!
Info: SCNB (VDW SCALING)     2
Info: USING ARITHMETIC MEAN TO COMBINE L-J SIGMA PARAMETERS
Info: BINARY COORDINATES     mobley_967099_equil.coor
Info: SUMMARY OF PARAMETERS:
Info: 7 BONDS
Info: 8 ANGLES
Info:   8 HARMONIC
Info:   0 COSINE-BASED
Info: 3 DIHEDRAL
Info: 0 IMPROPER
Info: 0 CROSSTERM
Info: 0 VDW
Info: 28 VDW_PAIRS
Info: 0 NBTHOLE_PAIRS
Info: To read alchdata from file: mobley_967099.pdb
Info: To read alchflag data from column: 5
Info: STRUCTURE SUMMARY:
Info: 2926 ATOMS
Info: 2925 BONDS
Info: 21 ANGLES
Info: 24 DIHEDRALS
Info: 0 IMPROPERS
Info: 0 CROSSTERMS
Info: 2970 EXCLUSIONS
Info: 2920 RIGID BONDS
Info: ALCH: 0 ATOMS TO DISAPPEAR IN FINAL STATE
Info: ALCH: 13 ATOMS TO APPEAR IN FINAL STATE
Info: 5858 DEGREES OF FREEDOM
Info: 977 HYDROGEN GROUPS
Info: 4 ATOMS IN LARGEST HYDROGEN GROUP
Info: 977 MIGRATION GROUPS
Info: 4 ATOMS IN LARGEST MIGRATION GROUP
Info: TOTAL MASS = 17582.6 amu
Info: TOTAL CHARGE = 0.000400003 e
Info: MASS DENSITY = 0.971629 g/cm^3
Info: ATOM DENSITY = 0.0973715 atoms/A^3
Info: ADDED 0 IMPLICIT EXCLUSIONS
Info: NONBONDED TABLE R-SQUARED SPACING: 0.0625
Info: NONBONDED TABLE SIZE: 705 POINTS
Info: REDUCING NUMBER OF PATCHES TO IMPROVE LOAD BALANCE
Info: REMOVING COM VELOCITY -0.100904 -0.0901101 -0.0199433
Info: Use 3D box decompostion in PME FFT.
Info: Updated CUDA force table with 4096 elements.
Info: Updated CUDA LJ table with 7 x 7 elements.
Info: Found 16 unique exclusion lists needing 32 bytes
TCL: Running for 1500000 steps
ETITLE: TS BOND ANGLE DIHED IMPRP ELECT VDW BOUNDARY MISC KINETIC TOTAL TEMP POTENTIAL TOTALAVG TEMPAVG PRESSURE GPRESSURE VOLUME PRESSAVG GPRESSAVG
ENERGY: 0 1.0784 3.9792 0.2377 0.0000 -10547.6457 1374.9692 0.0000 0.0000 1799.4516 -7367.9297 309.1585 -9167.3812 -7367.9297 309.1585 -359.7668 -285.5444 30049.8695 -359.7668 -285.5444
ENERGY: 300000 3.2688 6.9909 0.6417 0.0000 -10553.2181 1384.8623 0.0000 0.0000 1766.5714 -7390.8831 303.5094 -9157.4544 -7413.9376 300.1013 117.7324 200.0288 29531.4617 -313.1149 -248.3457
ENERGY: 600000 3.0563 3.2680 0.7254 0.0000 -10632.9550 1433.7299 0.0000 0.0000 1698.1987 -7493.9767 291.7625 -9192.1754 -7410.0417 299.4467 -319.4096 -221.0355 30254.2450 -458.7987 -380.4289
ENERGY: 900000 1.1997 8.4792 0.5407 0.0000 -10547.8545 1405.7664 0.0000 0.0000 1748.1311 -7383.7374 300.3413 -9131.8685 -7415.6986 299.7028 -97.4312 -54.9421 30280.7383 -307.3859 -227.7830
ENERGY: 1200000 0.8860 8.0074 0.4566 0.0000 -10676.2674 1467.3429 0.0000 0.0000 1688.4135 -7511.1611 290.0814 -9199.5746 -7427.2027 298.9460 274.2616 351.9272 29549.0595 -258.5893 -182.8360
ENERGY: 1500000 2.8556 3.0058 0.9941 0.0000 -10601.9521 1464.3975 0.0000 0.0000 1735.2140 -7395.4850 298.1220 -9130.6991 -7419.1329 299.7135 150.0133 255.4007 30270.7637 -182.0697 -105.2534
TCL: Running FEP window   2: Lambda1 0.05   Lambda2 0.1    [dLambda 0.05  ]
TCL: Setting parameter firsttimestep to 0
TCL: Setting parameter alchLambda to 0.05
Info: NONBONDED TABLE R-SQUARED SPACING: 0.0625
Info: NONBONDED TABLE SIZE: 705 POINTS
TCL: Setting parameter alchLambda2 to 0.1
Info: NONBONDED TABLE R-SQUARED SPACING: 0.0625
Info: NONBONDED TABLE SIZE: 705 POINTS
TCL: Running for 1500000 steps
ETITLE: TS BOND ANGLE DIHED IMPRP ELECT VDW BOUNDARY MISC KINETIC TOTAL TEMP POTENTIAL TOTALAVG TEMPAVG PRESSURE GPRESSURE VOLUME PRESSAVG GPRESSAVG
ENERGY: 0 2.8556 3.0058 0.9941 0.0000 -10601.9525 1465.4454 0.0000 0.0000 1734.3291 -7395.3224 297.9700 -9129.6516 -7395.3224 297.9700 178.3837 261.1888 30270.7637 178.3837 261.1888
ENERGY: 300000 1.4695 3.9740 1.6738 0.0000 -10723.0184 1481.8397 0.0000 0.0000 1737.1025 -7496.9588 298.4465 -9234.0613 -7422.0639 301.2370 363.5095 416.1916 29603.4527 -319.4449 -238.8969
ENERGY: 600000 0.4838 6.3974 1.4508 0.0000 -10643.8879 1452.8540 0.0000 0.0000 1795.6676 -7387.0342 308.5084 -9182.7018 -7410.1225 302.7579 403.5537 465.0095 29483.4551 -180.2632 -99.6467
ENERGY: 900000 2.4907 5.1231 1.4372 0.0000 -10507.7193 1328.8921 0.0000 0.0000 1751.2854 -7418.4907 300.8832 -9169.7761 -7407.9960 301.9519 -604.3373 -587.5513 29618.1590 -250.1303 -185.8139
ENERGY: 1200000 0.8400 6.3434 0.2560 0.0000 -10653.8715 1443.4306 0.0000 0.0000 1749.5578 -7453.4437 300.5864 -9203.0015 -7410.6371 301.2323 20.2979 49.3647 29907.8824 -266.8624 -206.6622
ENERGY: 1500000 3.6318 4.9257 0.6377 0.0000 -10550.6320 1434.7215 0.0000 0.0000 1740.4656 -7366.2498 299.0243 -9106.7154 -7401.6538 301.3444 -61.2956 4.8524 30370.4021 -215.1969 -160.4541
TCL: Running FEP window   3: Lambda1 0.1    Lambda2 0.15000000000000002 [dLambda 0.05000000000000002]
TCL: Setting parameter firsttimestep to 0
TCL: Setting parameter alchLambda to 0.1
Info: NONBONDED TABLE R-SQUARED SPACING: 0.0625
Info: NONBONDED TABLE SIZE: 705 POINTS
TCL: Setting parameter alchLambda2 to 0.15000000000000002
Info: NONBONDED TABLE R-SQUARED SPACING: 0.0625
Info: NONBONDED TABLE SIZE: 705 POINTS
TCL: Running for 1500000 steps
ETITLE: TS BOND ANGLE DIHED IMPRP ELECT VDW BOUNDARY MISC KINETIC TOTAL TEMP POTENTIAL TOTALAVG TEMPAVG PRESSURE GPRESSURE VOLUME PRESSAVG GPRESSAVG
ENERGY: 0 3.6317 4.9257 0.6377 0.0000 -10550.6317 1434.7192 0.0000 0.0000 1739.5886 -7367.1288 298.8736 -9106.7174 -7367.1288 298.8736 -85.1382 4.9678 30370.4021 -85.1382 4.9678
ENERGY: 300000 1.4143 6.9588 0.8686 0.0000 -10660.6661 1469.3283 0.0000 0.0000 1739.8111 -7442.2851 298.9118 -9182.0961 -7383.1992 299.4482 434.3819 503.7626 29839.2576 62.1061 142.6088
ENERGY: 600000 1.4979 3.4107 0.3299 0.0000 -10552.4893 1421.2188 0.0000 0.0000 1716.6673 -7409.3646 294.9356 -9126.0319 -7394.6711 297.6223 -300.6951 -212.3083 30538.2002 -45.5601 25.5795
ENERGY: 900000 2.9323 10.1791 0.3115 0.0000 -10744.6287 1537.8258 0.0000 0.0000 1693.5538 -7499.8262 290.9645 -9193.3800 -7402.4470 297.6433 1131.2079 1167.3536 29510.3697 38.2171 102.6089
ENERGY: 1200000 1.6059 6.1852 0.2441 0.0000 -10642.5984 1428.8692 0.0000 0.0000 1737.5628 -7468.1314 298.5256 -9205.6941 -7412.9902 297.5312 -207.7371 -214.7568 30365.6051 -65.1336 -3.3246
ENERGY: 1500000 4.7617 12.3400 0.7467 0.0000 -10514.9081 1379.2222 0.0000 0.0000 1759.2429 -7358.5945 302.2504 -9117.8374 -7406.7095 298.4580 -237.7056 -197.2270 29864.4753 -84.5910 -26.0274
TCL: Running FEP window   4: Lambda1 0.15000000000000002 Lambda2 0.2    [dLambda 0.04999999999999999]
TCL: Setting parameter firsttimestep to 0
TCL: Setting parameter alchLambda to 0.15000000000000002
Info: NONBONDED TABLE R-SQUARED SPACING: 0.0625
Info: NONBONDED TABLE SIZE: 705 POINTS
TCL: Setting parameter alchLambda2 to 0.2
Info: NONBONDED TABLE R-SQUARED SPACING: 0.0625
Info: NONBONDED TABLE SIZE: 705 POINTS
TCL: Running for 1500000 steps
ETITLE: TS BOND ANGLE DIHED IMPRP ELECT VDW BOUNDARY MISC KINETIC TOTAL TEMP POTENTIAL TOTALAVG TEMPAVG PRESSURE GPRESSURE VOLUME PRESSAVG GPRESSAVG
ENERGY: 0 4.7617 12.3400 0.7467 0.0000 -10514.9073 1379.7657 0.0000 0.0000 1758.3680 -7358.9252 302.1000 -9117.2932 -7358.9252 302.1000 -266.2784 -194.7613 29864.4753 -266.2784 -194.7613
ENERGY: 300000 0.6006 3.4700 1.9862 0.0000 -10601.4025 1418.7398 0.0000 0.0000 1763.4302 -7413.1756 302.9698 -9176.6059 -7437.9659 297.4694 -201.6556 -157.6992 30314.0650 -298.6919 -251.2380
ENERGY: 600000 0.9329 4.4383 0.6340 0.0000 -10611.7117 1434.4572 0.0000 0.0000 1761.3902 -7409.8591 302.6193 -9171.2493 -7428.7354 298.3091 218.3381 315.1563 29584.3818 -62.0360 -14.1000
ENERGY: 900000 1.2967 5.5780 1.5080 0.0000 -10631.8214 1487.9963 0.0000 0.0000 1736.7943 -7398.6481 298.3935 -9135.4424 -7436.7502 296.9731 492.4146 568.2766 29971.6246 -120.9191 -55.2427
ENERGY: 1200000 1.7843 5.1972 0.2401 0.0000 -10682.7766 1444.4266 0.0000 0.0000 1755.4103 -7475.7181 301.5919 -9231.1284 -7439.9119 298.2647 85.7815 147.2506 29869.7126 -71.4973 -11.6983
ENERGY: 1500000 1.4580 5.5592 0.3095 0.0000 -10821.1161 1576.6998 0.0000 0.0000 1760.4836 -7476.6059 302.4635 -9237.0895 -7449.0918 298.1819 1295.2905 1351.0125 29225.7965 23.5158 80.0992
TCL: Running FEP window   5: Lambda1 0.2    Lambda2 0.25   [dLambda 0.04999999999999999]
TCL: Setting parameter firsttimestep to 0
TCL: Setting parameter alchLambda to 0.2
Info: NONBONDED TABLE R-SQUARED SPACING: 0.0625
Info: NONBONDED TABLE SIZE: 705 POINTS
TCL: Setting parameter alchLambda2 to 0.25
Info: NONBONDED TABLE R-SQUARED SPACING: 0.0625
Info: NONBONDED TABLE SIZE: 705 POINTS
TCL: Running for 1500000 steps
ETITLE: TS BOND ANGLE DIHED IMPRP ELECT VDW BOUNDARY MISC KINETIC TOTAL TEMP POTENTIAL TOTALAVG TEMPAVG PRESSURE GPRESSURE VOLUME PRESSAVG GPRESSAVG
ENERGY: 0 1.4580 5.5592 0.3095 0.0000 -10821.1145 1577.1901 0.0000 0.0000 1759.5779 -7477.0197 302.3079 -9236.5976 -7477.0197 302.3079 1272.1944 1356.6882 29225.7965 1272.1944 1356.6882
ENERGY: 300000 1.8645 6.4160 0.8931 0.0000 -10681.3627 1443.9696 0.0000 0.0000 1744.2823 -7483.9372 299.6800 -9228.2195 -7491.2512 296.2527 139.4218 181.4144 29734.6915 292.0062 389.0268
ENERGY: 600000 1.0895 3.3114 0.7373 0.0000 -10635.1094 1453.3047 0.0000 0.0000 1786.6062 -7390.0603 306.9516 -9176.6666 -7447.1826 298.4652 317.3804 390.7555 29845.5034 358.2826 438.6647
ENERGY: 900000 1.9663 3.7381 0.8912 0.0000 -10403.6546 1271.9560 0.0000 0.0000 1731.8897 -7393.2134 297.5509 -9125.1031 -7438.9955 298.3750 -1239.4758 -1222.8727 30180.8826 219.3912 293.1050
ENERGY: 1200000 1.5702 7.3019 0.8059 0.0000 -10652.3112 1519.0931 0.0000 0.0000 1737.8795 -7385.6606 298.5800 -9123.5401 -7441.1280 298.0460 1012.3148 1076.2847 29561.2153 200.6825 269.5753
ENERGY: 1500000 0.8352 4.5980 0.1412 0.0000 -10603.1087 1373.1512 0.0000 0.0000 1684.3802 -7540.0028 289.3884 -9224.3830 -7445.8124 298.3204 -538.2603 -475.9684 30053.1331 78.7349 141.9615
TCL: Running FEP window   6: Lambda1 0.25   Lambda2 0.3    [dLambda 0.04999999999999999]
TCL: Setting parameter firsttimestep to 0
TCL: Setting parameter alchLambda to 0.25
Info: NONBONDED TABLE R-SQUARED SPACING: 0.0625
Info: NONBONDED TABLE SIZE: 705 POINTS
TCL: Setting parameter alchLambda2 to 0.3
Info: NONBONDED TABLE R-SQUARED SPACING: 0.0625
Info: NONBONDED TABLE SIZE: 705 POINTS
TCL: Running for 1500000 steps
ETITLE: TS BOND ANGLE DIHED IMPRP ELECT VDW BOUNDARY MISC KINETIC TOTAL TEMP POTENTIAL TOTALAVG TEMPAVG PRESSURE GPRESSURE VOLUME PRESSAVG GPRESSAVG
ENERGY: 0 0.8352 4.5980 0.1412 0.0000 -10603.1086 1373.1130 0.0000 0.0000 1683.4880 -7540.9332 289.2351 -9224.4212 -7540.9332 289.2351 -555.4824 -474.6389 30053.1331 -555.4824 -474.6389
ENERGY: 300000 1.8317 8.5043 0.2698 0.0000 -10536.8645 1396.0769 0.0000 0.0000 1725.7557 -7404.4261 296.4970 -9130.1818 -7468.6345 295.5718 -456.9340 -373.1257 30288.6694 -110.1004 -29.9502
ENERGY: 600000 1.7098 6.0096 1.8217 0.0000 -10576.8437 1394.0319 0.0000 0.0000 1737.2593 -7436.0114 298.4734 -9173.2707 -7452.2885 297.5367 -305.5802 -150.6164 29966.6261 -335.5895 -239.9107
ENERGY: 900000 2.1078 5.7725 0.3904 0.0000 -10596.5826 1412.6317 0.0000 0.0000 1733.9882 -7441.6920 297.9114 -9175.6802 -7461.4087 297.7203 -482.1154 -363.3402 30270.1423 -242.8401 -154.9535
ENERGY: 1200000 0.1093 4.8050 1.0304 0.0000 -10562.9583 1404.4714 0.0000 0.0000 1761.7010 -7390.8412 302.6727 -9152.5422 -7448.2762 299.2052 -158.2086 -96.5488 30055.8178 -245.2233 -154.5886
ENERGY: 1500000 1.0436 5.7453 0.4454 0.0000 -10688.3732 1537.0473 0.0000 0.0000 1717.3373 -7426.7543 295.0507 -9144.0916 -7452.3148 298.8846 759.7472 805.4212 30179.5170 -70.6575 24.5927
TCL: Running FEP window   7: Lambda1 0.3    Lambda2 0.35   [dLambda 0.04999999999999999]
TCL: Setting parameter firsttimestep to 0
TCL: Setting parameter alchLambda to 0.3
Info: NONBONDED TABLE R-SQUARED SPACING: 0.0625
Info: NONBONDED TABLE SIZE: 705 POINTS
TCL: Setting parameter alchLambda2 to 0.35
Info: NONBONDED TABLE R-SQUARED SPACING: 0.0625
Info: NONBONDED TABLE SIZE: 705 POINTS
TCL: Running for 1500000 steps
ETITLE: TS BOND ANGLE DIHED IMPRP ELECT VDW BOUNDARY MISC KINETIC TOTAL TEMP POTENTIAL TOTALAVG TEMPAVG PRESSURE GPRESSURE VOLUME PRESSAVG GPRESSAVG
ENERGY: 0 1.0436 5.7453 0.4454 0.0000 -10688.3722 1536.9502 0.0000 0.0000 1716.4838 -7427.7040 294.9040 -9144.1878 -7427.7040 294.9040 727.4796 806.1485 30179.5170 727.4796 806.1485
ENERGY: 300000 1.2292 4.7121 0.1493 0.0000 -10655.7339 1459.4357 0.0000 0.0000 1734.1013 -7456.1063 297.9308 -9190.2075 -7445.2912 297.0745 281.9590 360.4581 29723.4972 51.2642 116.8179
ENERGY: 600000 0.1987 5.8978 0.3163 0.0000 -10618.1668 1469.3638 0.0000 0.0000 1793.6993 -7348.6910 308.1702 -9142.3902 -7418.8102 300.5678 344.6233 446.1342 30223.8460 55.2916 122.8821
ENERGY: 900000 0.4977 4.0626 0.5945 0.0000 -10532.5644 1363.3730 0.0000 0.0000 1699.2292 -7464.8075 291.9396 -9164.0367 -7422.6708 300.3433 -593.6732 -475.2616 30005.2881 -16.5952 58.6206
ENERGY: 1200000 0.5677 5.9526 0.2982 0.0000 -10667.4953 1471.7765 0.0000 0.0000 1747.5479 -7441.3524 300.2411 -9188.9004 -7441.8542 299.4280 47.6710 123.7580 30190.9197 -29.2869 49.2248
ENERGY: 1500000 1.3351 10.5189 2.5360 0.0000 -10579.2018 1444.3167 0.0000 0.0000 1731.1882 -7389.3070 297.4304 -9120.4953 -7439.6027 299.5182 158.2643 186.1178 30052.3564 -58.2981 13.9393
TCL: Running FEP window   8: Lambda1 0.35   Lambda2 0.39999999999999997 [dLambda 0.04999999999999999]
TCL: Setting parameter firsttimestep to 0
TCL: Setting parameter alchLambda to 0.35
Info: NONBONDED TABLE R-SQUARED SPACING: 0.0625
Info: NONBONDED TABLE SIZE: 705 POINTS
TCL: Setting parameter alchLambda2 to 0.39999999999999997
Info: NONBONDED TABLE R-SQUARED SPACING: 0.0625
Info: NONBONDED TABLE SIZE: 705 POINTS
TCL: Running for 1500000 steps
ETITLE: TS BOND ANGLE DIHED IMPRP ELECT VDW BOUNDARY MISC KINETIC TOTAL TEMP POTENTIAL TOTALAVG TEMPAVG PRESSURE GPRESSURE VOLUME PRESSAVG GPRESSAVG
ENERGY: 0 1.3350 10.5189 2.5360 0.0000 -10579.2015 1444.6739 0.0000 0.0000 1730.3488 -7389.7889 297.2861 -9120.1377 -7389.7889 297.2861 114.9490 196.7281 30052.3564 114.9490 196.7281
ENERGY: 300000 1.9985 4.5267 0.3851 0.0000 -10695.9561 1497.4221 0.0000 0.0000 1763.3990 -7428.2247 302.9644 -9191.6237 -7401.7226 300.9014 765.5037 764.9338 29699.9525 55.3091 116.0253
ENERGY: 600000 2.0342 5.0911 0.5311 0.0000 -10594.5257 1432.5710 0.0000 0.0000 1735.7678 -7418.5305 298.2172 -9154.2983 -7409.1244 299.6201 184.1727 223.1758 30056.9743 40.9870 84.2072
ENERGY: 900000 1.2834 3.7345 0.2513 0.0000 -10578.4856 1410.7614 0.0000 0.0000 1765.3225 -7397.1325 303.2949 -9162.4551 -7416.3956 298.9264 -289.6168 -180.3253 30370.0923 28.0896 86.5192
ENERGY: 1200000 1.6900 1.7739 0.3182 0.0000 -10467.2222 1366.2593 0.0000 0.0000 1727.4839 -7369.6968 296.7939 -9097.1808 -7409.7658 298.8003 -291.3643 -152.2840 30162.3740 22.6710 86.3527
ENERGY: 1500000 0.5582 5.7704 0.1562 0.0000 -10573.6101 1455.4311 0.0000 0.0000 1777.2856 -7334.4086 305.3502 -9111.6942 -7402.3126 299.2911 372.2594 393.8031 30045.1043 85.7615 146.9094
TCL: Running FEP window   9: Lambda1 0.39999999999999997 Lambda2 0.44999999999999996 [dLambda 0.04999999999999999]
TCL: Setting parameter firsttimestep to 0
TCL: Setting parameter alchLambda to 0.39999999999999997
Info: NONBONDED TABLE R-SQUARED SPACING: 0.0625
Info: NONBONDED TABLE SIZE: 705 POINTS
TCL: Setting parameter alchLambda2 to 0.44999999999999996
Info: NONBONDED TABLE R-SQUARED SPACING: 0.0625
Info: NONBONDED TABLE SIZE: 705 POINTS
TCL: Running for 1500000 steps
ETITLE: TS BOND ANGLE DIHED IMPRP ELECT VDW BOUNDARY MISC KINETIC TOTAL TEMP POTENTIAL TOTALAVG TEMPAVG PRESSURE GPRESSURE VOLUME PRESSAVG GPRESSAVG
ENERGY: 0 0.5581 5.7704 0.1562 0.0000 -10573.6089 1455.5422 0.0000 0.0000 1776.4390 -7335.1429 305.2048 -9111.5819 -7335.1429 305.2048 330.2745 398.1678 30045.1043 330.2745 398.1678
ENERGY: 300000 3.0176 5.2079 0.2625 0.0000 -10634.5103 1477.9664 0.0000 0.0000 1794.4880 -7353.5679 308.3057 -9148.0559 -7361.5086 302.7732 507.8256 610.1455 29564.9076 -7.1677 58.2244
ENERGY: 600000 2.2839 5.9754 0.2295 0.0000 -10762.9040 1510.8505 0.0000 0.0000 1734.9657 -7508.5991 298.0794 -9243.5648 -7397.5840 301.2442 806.4705 887.6446 29575.0090 -10.9334 57.9379
ENERGY: 900000 1.3990 7.5496 0.2988 0.0000 -10777.2931 1499.7160 0.0000 0.0000 1826.7908 -7441.5389 313.8556 -9268.3297 -7391.4435 303.3732 252.8622 319.3170 29989.5278 -16.6407 43.0338
ENERGY: 1200000 1.9414 4.3057 0.1689 0.0000 -10621.8209 1397.3666 0.0000 0.0000 1701.9130 -7516.1252 292.4007 -9218.0382 -7403.2349 301.7698 -427.9885 -358.3961 29992.2290 10.5946 66.0656
ENERGY: 1500000 0.7861 4.8011 0.5227 0.0000 -10617.1317 1431.0289 0.0000 0.0000 1680.0632 -7499.9296 288.6467 -9179.9928 -7414.2417 300.1374 22.1183 40.3150 30255.4902 -26.1837 31.2029
TCL: Running FEP window  10: Lambda1 0.44999999999999996 Lambda2 0.49999999999999994 [dLambda 0.04999999999999999]
TCL: Setting parameter firsttimestep to 0
TCL: Setting parameter alchLambda to 0.44999999999999996
Info: NONBONDED TABLE R-SQUARED SPACING: 0.0625
Info: NONBONDED TABLE SIZE: 705 POINTS
TCL: Setting parameter alchLambda2 to 0.49999999999999994
Info: NONBONDED TABLE R-SQUARED SPACING: 0.0625
Info: NONBONDED TABLE SIZE: 705 POINTS
TCL: Running for 1500000 steps
ETITLE: TS BOND ANGLE DIHED IMPRP ELECT VDW BOUNDARY MISC KINETIC TOTAL TEMP POTENTIAL TOTALAVG TEMPAVG PRESSURE GPRESSURE VOLUME PRESSAVG GPRESSAVG
ENERGY: 0 0.7861 4.8011 0.5227 0.0000 -10617.1304 1431.6170 0.0000 0.0000 1679.1995 -7500.2039 288.4983 -9179.4034 -7500.2039 288.4983 -24.8659 52.4174 30255.4902 -24.8659 52.4174
ENERGY: 300000 2.3731 4.2575 3.3955 0.0000 -10606.9441 1402.6640 0.0000 0.0000 1773.7551 -7420.4989 304.7436 -9194.2539 -7456.5833 293.5183 -163.2286 -76.4930 29751.3152 331.1217 395.1632
ENERGY: 600000 1.9936 6.1459 0.1525 0.0000 -10446.6771 1341.1754 0.0000 0.0000 1769.5887 -7327.6211 304.0278 -9097.2098 -7420.0730 297.1744 -384.6165 -293.7927 30056.9007 114.3357 198.6924
ENERGY: 900000 1.0572 4.8863 0.2593 0.0000 -10486.1515 1363.4962 0.0000 0.0000 1711.9779 -7404.4747 294.1299 -9116.4526 -7422.9513 297.5152 -541.7318 -469.8950 30298.7418 40.3243 125.4477
ENERGY: 1200000 1.5598 7.0799 0.5105 0.0000 -10621.1897 1435.6328 0.0000 0.0000 1782.2011 -7394.2055 306.1947 -9176.4067 -7424.7238 298.8382 317.2576 363.0360 29541.7050 -44.4228 34.4872
ENERGY: 1500000 0.8485 5.9039 1.7075 0.0000 -10635.7449 1497.2372 0.0000 0.0000 1722.5954 -7407.4525 295.9541 -9130.0479 -7425.1376 298.9566 522.4094 499.1746 30212.0008 -45.9142 21.9940
TCL: Running FEP window  11: Lambda1 0.49999999999999994 Lambda2 0.5499999999999999 [dLambda 0.04999999999999999]
TCL: Setting parameter firsttimestep to 0
TCL: Setting parameter alchLambda to 0.49999999999999994
Info: NONBONDED TABLE R-SQUARED SPACING: 0.0625
Info: NONBONDED TABLE SIZE: 705 POINTS
TCL: Setting parameter alchLambda2 to 0.5499999999999999
Info: NONBONDED TABLE R-SQUARED SPACING: 0.0625
Info: NONBONDED TABLE SIZE: 705 POINTS
TCL: Running for 1500000 steps
ETITLE: TS BOND ANGLE DIHED IMPRP ELECT VDW BOUNDARY MISC KINETIC TOTAL TEMP POTENTIAL TOTALAVG TEMPAVG PRESSURE GPRESSURE VOLUME PRESSAVG GPRESSAVG
ENERGY: 0 0.8485 5.9039 1.7075 0.0000 -10635.7454 1498.0786 0.0000 0.0000 1721.7201 -7407.4869 295.8037 -9129.2070 -7407.4869 295.8037 423.1696 511.5483 30212.0008 423.1696 511.5483
ENERGY: 300000 1.0609 7.0215 0.1991 0.0000 -10614.4588 1452.3212 0.0000 0.0000 1781.0192 -7372.8369 305.9917 -9153.8561 -7417.1820 301.2596 -13.6025 71.2953 30380.9361 158.3936 232.4602
ENERGY: 600000 1.3877 4.3605 0.1060 0.0000 -10535.8533 1377.4906 0.0000 0.0000 1779.9472 -7372.5613 305.8075 -9152.5086 -7415.1900 301.5103 -239.1743 -217.4058 29987.9908 -101.3966 -30.9869
ENERGY: 900000 1.2794 2.5238 0.9706 0.0000 -10564.2505 1379.7130 0.0000 0.0000 1786.9168 -7392.8469 307.0049 -9179.7637 -7420.0521 302.8274 -386.5849 -325.8532 30131.4882 -79.6607 -3.5272
ENERGY: 1200000 0.9404 4.6615 0.1634 0.0000 -10689.1380 1516.6281 0.0000 0.0000 1745.0762 -7421.6684 299.8164 -9166.7446 -7418.3574 303.0292 639.2272 716.6212 29986.7680 -10.8554 68.1206
ENERGY: 1500000 3.8748 5.7089 2.7614 0.0000 -10525.8869 1434.4705 0.0000 0.0000 1709.8298 -7369.2414 293.7608 -9079.0712 -7405.0675 302.3246 324.1393 281.2430 30055.5671 -1.5184 69.2732
TCL: Running FEP window  12: Lambda1 0.5499999999999999 Lambda2 0.6    [dLambda 0.050000000000000044]
TCL: Setting parameter firsttimestep to 0
TCL: Setting parameter alchLambda to 0.5499999999999999
Info: NONBONDED TABLE R-SQUARED SPACING: 0.0625
Info: NONBONDED TABLE SIZE: 705 POINTS
TCL: Setting parameter alchLambda2 to 0.6
Info: NONBONDED TABLE R-SQUARED SPACING: 0.0625
Info: NONBONDED TABLE SIZE: 705 POINTS
TCL: Running for 1500000 steps
ETITLE: TS BOND ANGLE DIHED IMPRP ELECT VDW BOUNDARY MISC KINETIC TOTAL TEMP POTENTIAL TOTALAVG TEMPAVG PRESSURE GPRESSURE VOLUME PRESSAVG GPRESSAVG
ENERGY: 0 3.8748 5.7089 2.7614 0.0000 -10526.1378 1434.5361 0.0000 0.0000 1708.9690 -7370.2876 293.6129 -9079.2566 -7370.2876 293.6129 212.0459 286.6061 30055.5671 212.0459 286.6061
ENERGY: 300000 1.6951 4.8030 0.2246 0.0000 -10637.6797 1384.2082 0.0000 0.0000 1725.5337 -7521.2149 296.4589 -9246.7487 -7451.7159 297.3720 -479.2607 -442.1366 29936.7730 -81.1729 -24.1660
ENERGY: 600000 1.8180 6.8917 0.1906 0.0000 -10666.9543 1506.6578 0.0000 0.0000 1760.2620 -7391.1343 302.4254 -9151.3962 -7449.5604 297.7281 1008.6966 995.8139 29678.7409 146.2748 188.4518
ENERGY: 900000 1.1975 4.6511 1.3200 0.0000 -10637.0650 1447.3992 0.0000 0.0000 1706.8189 -7475.6783 293.2435 -9182.4972 -7447.0962 298.1931 -131.5518 -87.0575 30290.5891 154.1121 199.6852
ENERGY: 1200000 4.1149 3.0734 0.1693 0.0000 -10406.6234 1307.3148 0.0000 0.0000 1739.9253 -7352.0258 298.9315 -9091.9510 -7431.2564 298.9891 -652.7633 -600.2678 30024.0777 124.2373 174.6377
ENERGY: 1500000 1.5921 4.7489 0.6332 0.0000 -10630.7746 1442.1948 0.0000 0.0000 1726.8091 -7454.7964 296.6780 -9181.6055 -7429.3923 298.8822 -145.2021 -71.9456 30184.8971 2.8801 56.4074
TCL: Running FEP window  13: Lambda1 0.6    Lambda2 0.65   [dLambda 0.050000000000000044]
TCL: Setting parameter firsttimestep to 0
TCL: Setting parameter alchLambda to 0.6
Info: NONBONDED TABLE R-SQUARED SPACING: 0.0625
Info: NONBONDED TABLE SIZE: 705 POINTS
TCL: Setting parameter alchLambda2 to 0.65
Info: NONBONDED TABLE R-SQUARED SPACING: 0.0625
Info: NONBONDED TABLE SIZE: 705 POINTS
TCL: Running for 1500000 steps
ETITLE: TS BOND ANGLE DIHED IMPRP ELECT VDW BOUNDARY MISC KINETIC TOTAL TEMP POTENTIAL TOTALAVG TEMPAVG PRESSURE GPRESSURE VOLUME PRESSAVG GPRESSAVG
ENERGY: 0 1.5921 4.7488 0.6332 0.0000 -10630.9723 1442.0404 0.0000 0.0000 1725.9219 -7456.0358 296.5256 -9181.9577 -7456.0358 296.5256 -153.0273 -68.4531 30184.8971 -153.0273 -68.4531
ENERGY: 300000 0.7123 2.8818 0.5266 0.0000 -10613.5355 1440.2481 0.0000 0.0000 1751.6426 -7417.5240 300.9446 -9169.1666 -7437.2872 299.1909 235.1106 322.7721 29843.7199 -187.0460 -121.7933
ENERGY: 600000 0.3446 7.1756 1.0427 0.0000 -10574.5193 1409.1389 0.0000 0.0000 1739.1337 -7417.6838 298.7955 -9156.8175 -7464.5987 296.3683 -6.9645 117.5173 29957.8961 -93.3827 -29.3998
ENERGY: 900000 1.9291 4.8569 0.7046 0.0000 -10486.2624 1399.9499 0.0000 0.0000 1760.2478 -7318.5741 302.4230 -9078.8219 -7438.4233 297.6038 299.9642 309.2434 30051.3808 -22.8037 37.9449
ENERGY: 1200000 0.7989 3.1654 0.4702 0.0000 -10792.8075 1531.6202 0.0000 0.0000 1784.4651 -7472.2876 306.5837 -9256.7527 -7446.2374 298.2436 587.5920 604.1445 30101.8553 19.9651 87.2411
ENERGY: 1500000 1.0170 5.2245 0.5342 0.0000 -10642.8050 1457.5523 0.0000 0.0000 1725.9666 -7452.5104 296.5333 -9178.4770 -7438.6720 297.9683 32.2449 66.9374 30278.9466 43.9637 104.8418
TCL: Running FEP window  14: Lambda1 0.65   Lambda2 0.7000000000000001 [dLambda 0.050000000000000044]
TCL: Setting parameter firsttimestep to 0
TCL: Setting parameter alchLambda to 0.65
Info: NONBONDED TABLE R-SQUARED SPACING: 0.0625
Info: NONBONDED TABLE SIZE: 705 POINTS
TCL: Setting parameter alchLambda2 to 0.7000000000000001
Info: NONBONDED TABLE R-SQUARED SPACING: 0.0625
Info: NONBONDED TABLE SIZE: 705 POINTS
TCL: Running for 1500000 steps
ETITLE: TS BOND ANGLE DIHED IMPRP ELECT VDW BOUNDARY MISC KINETIC TOTAL TEMP POTENTIAL TOTALAVG TEMPAVG PRESSURE GPRESSURE VOLUME PRESSAVG GPRESSAVG
ENERGY: 0 1.0170 5.2246 0.5342 0.0000 -10642.9442 1457.1376 0.0000 0.0000 1725.0875 -7453.9433 296.3822 -9179.0308 -7453.9433 296.3822 -2.1537 72.4009 30278.9466 -2.1537 72.4009
ENERGY: 300000 0.5186 6.3305 0.7253 0.0000 -10645.2972 1464.6423 0.0000 0.0000 1759.4385 -7413.6419 302.2840 -9173.0805 -7416.3445 302.0138 171.0560 308.9159 30032.0025 -126.2211 -41.9054
ENERGY: 600000 2.2591 6.2152 1.0642 0.0000 -10618.6841 1407.1024 0.0000 0.0000 1728.1492 -7473.8939 296.9082 -9202.0431 -7452.2381 300.9949 -382.1349 -332.7872 30144.4109 -12.6411 70.6377
ENERGY: 900000 2.3151 6.5760 0.2876 0.0000 -10719.2976 1433.4956 0.0000 0.0000 1750.4115 -7526.2119 300.7331 -9276.6233 -7449.2759 301.3535 -141.1827 -66.5415 30025.0110 -76.3152 4.1027
ENERGY: 1200000 1.0531 7.6363 1.0348 0.0000 -10438.7284 1313.4471 0.0000 0.0000 1741.2006 -7374.3565 299.1506 -9115.5571 -7436.9037 300.9912 -970.5164 -870.4728 30523.6949 -178.7754 -98.3595
ENERGY: 1500000 1.9195 4.9266 0.5619 0.0000 -10701.2082 1443.4990 0.0000 0.0000 1755.8273 -7494.4737 301.6635 -9250.3011 -7430.4189 301.1030 -56.1584 45.6379 29847.6882 -166.1098 -79.3170
TCL: Running FEP window  15: Lambda1 0.7000000000000001 Lambda2 0.7500000000000001 [dLambda 0.050000000000000044]
TCL: Setting parameter firsttimestep to 0
TCL: Setting parameter alchLambda to 0.7000000000000001
Info: NONBONDED TABLE R-SQUARED SPACING: 0.0625
Info: NONBONDED TABLE SIZE: 705 POINTS
TCL: Setting parameter alchLambda2 to 0.7500000000000001
Info: NONBONDED TABLE R-SQUARED SPACING: 0.0625
Info: NONBONDED TABLE SIZE: 705 POINTS
TCL: Running for 1500000 steps
ETITLE: TS BOND ANGLE DIHED IMPRP ELECT VDW BOUNDARY MISC KINETIC TOTAL TEMP POTENTIAL TOTALAVG TEMPAVG PRESSURE GPRESSURE VOLUME PRESSAVG GPRESSAVG
ENERGY: 0 1.9195 4.9266 0.5619 0.0000 -10701.8120 1443.2470 0.0000 0.0000 1754.9627 -7496.1942 301.5150 -9251.1569 -7496.1942 301.5150 -51.6246 49.9050 29847.6882 -51.6246 49.9050
ENERGY: 300000 0.8963 6.4529 2.4271 0.0000 -10584.7635 1408.3270 0.0000 0.0000 1767.8765 -7398.7836 303.7337 -9166.6601 -7451.8043 298.7303 179.2317 181.3663 29718.9770 62.8784 114.1562
ENERGY: 600000 1.1710 5.8623 0.8019 0.0000 -10579.8385 1417.4584 0.0000 0.0000 1786.8697 -7367.6751 306.9968 -9154.5447 -7435.6371 300.4446 126.8693 126.0459 30112.7714 121.3162 174.9813
ENERGY: 900000 2.5541 3.7553 0.3862 0.0000 -10628.5960 1472.9185 0.0000 0.0000 1765.6369 -7383.3450 303.3489 -9148.9819 -7427.8443 300.8453 238.5319 260.4624 30395.2427 53.5968 107.1764
ENERGY: 1200000 0.9215 4.3799 0.0736 0.0000 -10568.0902 1460.2772 0.0000 0.0000 1745.1738 -7357.2644 299.8332 -9102.4381 -7423.0118 300.4083 87.0818 200.1989 30750.7964 45.8193 102.9432
ENERGY: 1500000 0.2295 4.4560 0.8368 0.0000 -10679.3099 1493.1750 0.0000 0.0000 1742.6749 -7437.9377 299.4039 -9180.6127 -7429.3958 300.2384 419.2287 502.3786 30096.8723 66.3601 128.0694
TCL: Running FEP window  16: Lambda1 0.7500000000000001 Lambda2 0.8000000000000002 [dLambda 0.050000000000000044]
TCL: Setting parameter firsttimestep to 0
TCL: Setting parameter alchLambda to 0.7500000000000001
Info: NONBONDED TABLE R-SQUARED SPACING: 0.0625
Info: NONBONDED TABLE SIZE: 705 POINTS
TCL: Setting parameter alchLambda2 to 0.8000000000000002
Info: NONBONDED TABLE R-SQUARED SPACING: 0.0625
Info: NONBONDED TABLE SIZE: 705 POINTS
TCL: Running for 1500000 steps
ETITLE: TS BOND ANGLE DIHED IMPRP ELECT VDW BOUNDARY MISC KINETIC TOTAL TEMP POTENTIAL TOTALAVG TEMPAVG PRESSURE GPRESSURE VOLUME PRESSAVG GPRESSAVG
ENERGY: 0 0.2295 4.4560 0.8368 0.0000 -10679.3793 1492.7951 0.0000 0.0000 1741.8594 -7439.2025 299.2638 -9181.0619 -7439.2025 299.2638 434.2003 508.6236 30096.8723 434.2003 508.6236
ENERGY: 300000 1.9331 5.7100 0.8522 0.0000 -10741.2978 1449.1766 0.0000 0.0000 1734.2574 -7549.3686 297.9577 -9283.6260 -7456.1018 303.1325 -167.1850 -72.1291 29806.2008 -14.5657 45.7994
ENERGY: 600000 2.2536 4.9116 0.3890 0.0000 -10621.4812 1409.4065 0.0000 0.0000 1787.8958 -7416.6248 307.1731 -9204.5206 -7423.2292 303.1614 -284.1301 -215.0924 30376.7229 139.0294 208.8216
ENERGY: 900000 2.1409 8.0416 0.2727 0.0000 -10604.9897 1462.6370 0.0000 0.0000 1729.8214 -7402.0762 297.1955 -9131.8976 -7424.6174 302.3899 415.4940 400.1296 30205.5535 22.9624 89.2276
ENERGY: 1200000 4.4086 4.8591 0.4877 0.0000 -10661.6458 1481.7803 0.0000 0.0000 1723.9842 -7446.1259 296.1927 -9170.1101 -7423.2300 300.7937 1.4940 91.7047 30356.5622 71.3608 140.2424
ENERGY: 1500000 0.5637 5.1915 0.2653 0.0000 -10497.2139 1339.7528 0.0000 0.0000 1710.5547 -7440.8858 293.8854 -9151.4405 -7426.2267 299.9453 -771.8527 -759.4454 30635.6050 -34.3033 29.7640
TCL: Running FEP window  17: Lambda1 0.8000000000000002 Lambda2 0.8500000000000002 [dLambda 0.050000000000000044]
TCL: Setting parameter firsttimestep to 0
TCL: Setting parameter alchLambda to 0.8000000000000002
Info: NONBONDED TABLE R-SQUARED SPACING: 0.0625
Info: NONBONDED TABLE SIZE: 705 POINTS
TCL: Setting parameter alchLambda2 to 0.8500000000000002
Info: NONBONDED TABLE R-SQUARED SPACING: 0.0625
Info: NONBONDED TABLE SIZE: 705 POINTS
TCL: Running for 1500000 steps
ETITLE: TS BOND ANGLE DIHED IMPRP ELECT VDW BOUNDARY MISC KINETIC TOTAL TEMP POTENTIAL TOTALAVG TEMPAVG PRESSURE GPRESSURE VOLUME PRESSAVG GPRESSAVG
ENERGY: 0 0.5637 5.1915 0.2653 0.0000 -10497.6657 1340.3205 0.0000 0.0000 1709.6962 -7441.6285 293.7379 -9151.3247 -7441.6285 293.7379 -831.4624 -746.4279 30635.6050 -831.4624 -746.4279
ENERGY: 300000 1.5744 3.7124 0.7164 0.0000 -10540.6310 1337.4835 0.0000 0.0000 1740.1875 -7456.9567 298.9765 -9197.1443 -7447.6884 297.5383 -717.7286 -661.0447 30101.9700 -660.7215 -591.4956
ENERGY: 600000 0.3380 7.0072 0.5274 0.0000 -10565.7213 1426.5198 0.0000 0.0000 1800.8009 -7330.5281 309.3903 -9131.3290 -7418.0941 299.6250 264.5784 312.8211 30094.7592 -261.8392 -201.7058
ENERGY: 900000 0.9285 5.5822 0.7449 0.0000 -10669.1903 1426.2691 0.0000 0.0000 1785.5622 -7450.1033 306.7722 -9235.6655 -7429.0076 300.8036 74.0664 170.2910 29637.0445 -176.4050 -113.5820
ENERGY: 1200000 1.9984 3.8594 0.2414 0.0000 -10696.5579 1458.1088 0.0000 0.0000 1737.0961 -7495.2538 298.4454 -9232.3499 -7417.8448 301.2364 120.9586 94.7146 30154.8974 -33.4532 22.2387
ENERGY: 1500000 0.4921 9.2973 0.6684 0.0000 -10607.8286 1403.2126 0.0000 0.0000 1758.8253 -7435.3328 302.1786 -9194.1582 -7411.5611 301.4093 -77.1049 42.6552 29846.9557 31.1026 90.4109
TCL: Running FEP window  18: Lambda1 0.8500000000000002 Lambda2 0.9000000000000002 [dLambda 0.050000000000000044]
TCL: Setting parameter firsttimestep to 0
TCL: Setting parameter alchLambda to 0.8500000000000002
Info: NONBONDED TABLE R-SQUARED SPACING: 0.0625
Info: NONBONDED TABLE SIZE: 705 POINTS
TCL: Setting parameter alchLambda2 to 0.9000000000000002
Info: NONBONDED TABLE R-SQUARED SPACING: 0.0625
Info: NONBONDED TABLE SIZE: 705 POINTS
TCL: Running for 1500000 steps
ETITLE: TS BOND ANGLE DIHED IMPRP ELECT VDW BOUNDARY MISC KINETIC TOTAL TEMP POTENTIAL TOTALAVG TEMPAVG PRESSURE GPRESSURE VOLUME PRESSAVG GPRESSAVG
ENERGY: 0 0.4921 9.2973 0.6684 0.0000 -10608.0829 1402.6286 0.0000 0.0000 1757.9934 -7437.0031 302.0357 -9194.9965 -7437.0031 302.0357 -35.3773 44.7888 29846.9557 -35.3773 44.7888
ENERGY: 300000 2.6068 3.0468 0.4361 0.0000 -10668.9975 1448.5530 0.0000 0.0000 1790.8796 -7423.4751 307.6858 -9214.3547 -7452.0244 300.7288 -371.0390 -286.0220 30699.1310 -301.1585 -201.6411
ENERGY: 600000 1.1411 6.3974 0.7380 0.0000 -10545.4410 1425.0198 0.0000 0.0000 1716.6085 -7395.5363 294.9255 -9112.1448 -7436.9591 300.6031 132.5340 156.1760 30240.4534 -146.1573 -74.4668
ENERGY: 900000 0.7519 5.3835 0.2642 0.0000 -10764.8263 1541.7204 0.0000 0.0000 1754.7203 -7461.9861 301.4733 -9216.7064 -7436.7775 300.4574 891.4745 1000.5186 29794.4352 37.8951 107.2410
ENERGY: 1200000 2.9482 5.0498 0.4476 0.0000 -10664.0898 1440.5506 0.0000 0.0000 1781.7599 -7433.3337 306.1189 -9215.0936 -7435.2155 300.5280 198.5832 189.0638 30049.8456 59.7309 121.8453
ENERGY: 1500000 1.5360 6.7431 0.1507 0.0000 -10702.5608 1481.4176 0.0000 0.0000 1659.4201 -7553.2933 285.1001 -9212.7134 -7438.9998 300.0055 217.2664 306.9321 29995.9311 92.9579 160.5287
TCL: Running FEP window  19: Lambda1 0.9000000000000002 Lambda2 0.9500000000000003 [dLambda 0.050000000000000044]
TCL: Setting parameter firsttimestep to 0
TCL: Setting parameter alchLambda to 0.9000000000000002
Info: NONBONDED TABLE R-SQUARED SPACING: 0.0625
Info: NONBONDED TABLE SIZE: 705 POINTS
TCL: Setting parameter alchLambda2 to 0.9500000000000003
Info: NONBONDED TABLE R-SQUARED SPACING: 0.0625
Info: NONBONDED TABLE SIZE: 705 POINTS
TCL: Running for 1500000 steps
ETITLE: TS BOND ANGLE DIHED IMPRP ELECT VDW BOUNDARY MISC KINETIC TOTAL TEMP POTENTIAL TOTALAVG TEMPAVG PRESSURE GPRESSURE VOLUME PRESSAVG GPRESSAVG
ENERGY: 0 1.5360 6.7431 0.1507 0.0000 -10702.9578 1481.5506 0.0000 0.0000 1658.5731 -7554.4043 284.9546 -9212.9775 -7554.4043 284.9546 233.5837 318.5845 29995.9311 233.5837 318.5845
ENERGY: 300000 1.9592 8.8855 0.1115 0.0000 -10734.7444 1468.3259 0.0000 0.0000 1697.0467 -7558.4157 291.5646 -9255.4624 -7518.8157 291.8521 179.2939 189.0142 29935.1790 409.6780 456.0095
ENERGY: 600000 1.0172 4.4083 1.0402 0.0000 -10628.3054 1383.9082 0.0000 0.0000 1737.6698 -7500.2617 298.5440 -9237.9315 -7500.1939 295.8102 -568.1263 -526.6205 30190.5690 114.5035 163.7298
ENERGY: 900000 0.8635 6.0760 0.7157 0.0000 -10620.0529 1401.0946 0.0000 0.0000 1778.6047 -7432.6983 305.5768 -9211.3029 -7479.5701 297.0090 -275.2213 -221.2758 30322.9564 17.7720 68.1127
ENERGY: 1200000 1.1427 6.4692 0.8742 0.0000 -10649.8008 1454.9548 0.0000 0.0000 1719.8196 -7466.5402 295.4772 -9186.3598 -7469.1015 297.7305 57.2770 83.1249 30202.9538 -40.5726 6.9919
ENERGY: 1500000 1.9588 3.9116 1.6756 0.0000 -10499.9538 1364.7133 0.0000 0.0000 1737.6586 -7390.0360 298.5420 -9127.6945 -7456.2164 298.2178 -746.8787 -652.9949 30743.4390 -122.2893 -68.4725
TCL: Running FEP window  20: Lambda1 0.9500000000000003 Lambda2 1.0    [dLambda 0.04999999999999971]
TCL: Setting parameter firsttimestep to 0
TCL: Setting parameter alchLambda to 0.9500000000000003
Info: NONBONDED TABLE R-SQUARED SPACING: 0.0625
Info: NONBONDED TABLE SIZE: 705 POINTS
TCL: Setting parameter alchLambda2 to 1.0
Info: NONBONDED TABLE R-SQUARED SPACING: 0.0625
Info: NONBONDED TABLE SIZE: 705 POINTS
TCL: Running for 1500000 steps
ETITLE: TS BOND ANGLE DIHED IMPRP ELECT VDW BOUNDARY MISC KINETIC TOTAL TEMP POTENTIAL TOTALAVG TEMPAVG PRESSURE GPRESSURE VOLUME PRESSAVG GPRESSAVG
ENERGY: 0 1.9588 3.9116 1.6756 0.0000 -10500.7244 1366.1370 0.0000 0.0000 1736.7529 -7390.2885 298.3864 -9127.0414 -7390.2885 298.3864 -725.2529 -630.8563 30743.4390 -725.2529 -630.8563
ENERGY: 300000 0.5678 8.1961 0.1760 0.0000 -10783.6334 1554.9376 0.0000 0.0000 1774.2489 -7445.5070 304.8285 -9219.7559 -7420.9883 302.6584 827.1569 935.2561 29967.9664 69.6309 187.2514
ENERGY: 600000 1.7690 5.8685 0.4985 0.0000 -10521.8319 1304.0108 0.0000 0.0000 1782.1916 -7427.4936 306.1931 -9209.6851 -7413.9136 301.6784 -877.9024 -846.9189 29962.0504 -15.6867 66.8380
ENERGY: 900000 2.2374 6.8205 0.3944 0.0000 -10477.1729 1321.9836 0.0000 0.0000 1777.8311 -7367.9059 305.4439 -9145.7370 -7413.8926 301.1231 -741.4825 -610.4236 30550.3290 -95.9055 -16.4161
ENERGY: 1200000 0.3816 3.7739 0.5935 0.0000 -10602.0657 1435.5723 0.0000 0.0000 1746.7836 -7414.9608 300.1098 -9161.7444 -7411.2520 301.4505 95.2419 90.9833 30183.3807 -0.4998 71.2553
ENERGY: 1500000 0.8203 5.3432 0.1321 0.0000 -10643.3254 1418.7197 0.0000 0.0000 1690.8122 -7527.4979 290.4935 -9218.3101 -7425.1968 300.3442 -344.3608 -275.0501 30045.2334 -23.4178 50.5448
TCL: Exiting due to exit command.
