Info: SIMULATION PARAMETERS:
Info: TIMESTEP               2
Info: NUMBER OF STEPS        0
Info: STEPS PER CYCLE        10
Info: PERIODIC CELL BASIS 1  31.9084 0 0
Info: PERIODIC CELL BASIS 2  0 30.131 0
Info: PERIODIC CELL BASIS 3  0 0 31.3482
Info: PERIODIC CELL CENTER   0 0 0
Info: WRAPPING WATERS AROUND PERIODIC BOUNDARIES ON OUTPUT.
Info: WRAPPING ALL CLUSTERS AROUND PERIODIC BOUNDARIES ON OUTPUT.
Info: FIRST LDB TIMESTEP     50
Info: LAST LDB TIMESTEP     -1
Info: HOM BACKGROUND SCALING 1
Info: PME BACKGROUND SCALING 1
Info: MIN ATOMS PER PATCH    40
Info: EMPTY PATCH LOAD       40 ATOMS
Info: VELOCITY FILE          mobley_9838013_equil.vel
Info: CENTER OF MASS MOVING INITIALLY? NO
Info: DIELECTRIC             1
Info: EXCLUDE                SCALED ONE-FOUR
Info: 1-4 ELECTROSTATICS SCALED BY 0.833333
Info: MODIFIED 1-4 VDW PARAMETERS WILL BE USED
Info: DCD FILENAME           mobley_9838013_prod.dcd
Info: DCD FREQUENCY          100000
Info: DCD FIRST STEP         100000
Info: DCD FILE WILL CONTAIN UNIT CELL DATA
Info: XST FILENAME           mobley_9838013_prod.xst
Info: XST FREQUENCY          100000
Info: NO VELOCITY DCD OUTPUT
Info: NO FORCE DCD OUTPUT
Info: OUTPUT FILENAME        mobley_9838013_prod
Info: BINARY OUTPUT FILES WILL BE USED
Info: RESTART FILENAME       mobley_9838013_prod.restart
Info: RESTART FREQUENCY      100000
Info: BINARY RESTART FILES WILL BE USED
Info: CUTOFF                 9
Info: PAIRLIST DISTANCE      11
Info: PAIRLIST SHRINK RATE   0.01
Info: PAIRLIST GROW RATE     0.01
Info: PAIRLIST TRIGGER       0.3
Info: PAIRLISTS PER CYCLE    2
Info: PAIRLISTS ENABLED
Info: MARGIN                 2
Info: HYDROGEN GROUP CUTOFF  2.5
Info: PATCH DIMENSION        15.5
Info: ENERGY OUTPUT STEPS    100000
Info: ENERGY EVALUATION STEPS    100000
Info: OUTPUT ENERGY PRECISION 4
Info: CROSSTERM ENERGY INCLUDED IN DIHEDRAL
Info: TIMING OUTPUT STEPS    1000000
Info: PRESSURE OUTPUT STEPS  100000
Info: ALCHEMICAL FEP ON
Info: FEP CURRENT LAMBDA VALUE     1
Info: FEP COMPARISON LAMBDA VALUE  0.95
Info: FEP INTRA-ALCHEMICAL NON-BONDED INTERACTIONS WILL BE RETAINED
Info: FEP INTRA-ALCHEMICAL BONDED INTERACTIONS WILL BE RETAINED
Info: FEP VDW SHIFTING COEFFICIENT 5
Info: FEP ELEC. ACTIVE FOR ANNIHILATED PARTICLES BETWEEN LAMBDA = 0 AND LAMBDA = 0.5
Info: FEP ELEC. ACTIVE FOR EXNIHILATED PARTICLES BETWEEN LAMBDA = 0.5 AND LAMBDA = 1
Info: FEP VDW ACTIVE FOR ANNIHILATED PARTICLES BETWEEN LAMBDA = 0 AND LAMBDA = 1
Info: FEP VDW ACTIVE FOR EXNIHILATED PARTICLES BETWEEN LAMBDA = 0 AND LAMBDA = 1
Info: FEP BOND ACTIVE FOR ANNIHILATED PARTICLES BETWEEN LAMBDA = 1 AND LAMBDA = 1
Info: FEP BOND ACTIVE FOR EXNIHILATED PARTICLES BETWEEN LAMBDA = 0 AND LAMBDA = 0
Info: LANGEVIN DYNAMICS ACTIVE
Info: LANGEVIN TEMPERATURE   300
Info: LANGEVIN USING BBK INTEGRATOR
Info: LANGEVIN DAMPING COEFFICIENT IS 1 INVERSE PS
Info: LANGEVIN DYNAMICS APPLIED TO HYDROGENS
Info: LANGEVIN PISTON PRESSURE CONTROL ACTIVE
Info:        TARGET PRESSURE IS 1.01325 BAR
Info:     OSCILLATION PERIOD IS 50 FS
Info:             DECAY TIME IS 25 FS
Info:     PISTON TEMPERATURE IS 300 K
Info:       PRESSURE CONTROL IS GROUP-BASED
Info:    INITIAL STRAIN RATE IS -0.000315591 -0.000315591 -0.000315591
Info:       CELL FLUCTUATION IS ISOTROPIC
Info: PARTICLE MESH EWALD (PME) ACTIVE
Info: PME TOLERANCE               1e-06
Info: PME EWALD COEFFICIENT       0.348832
Info: PME INTERPOLATION ORDER     4
Info: PME GRID DIMENSIONS         32 32 32
Info: PME MAXIMUM GRID SPACING    1
Info: PME CALCULATION WILL BE PERFORMED ON GPU
Info: FULL ELECTROSTATIC EVALUATION FREQUENCY      2
Info: USING VERLET I (r-RESPA) MTS SCHEME.
Info: C1 SPLITTING OF LONG RANGE ELECTROSTATICS
Info: PLACING ATOMS IN PATCHES BY HYDROGEN GROUPS
Info: RIGID BONDS TO HYDROGEN : ALL
Info:         ERROR TOLERANCE : 1e-08
Info:          MAX ITERATIONS : 100
Info: RIGID WATER USING SETTLE ALGORITHM
Info: RANDOM NUMBER SEED     1743778039
Info: USE HYDROGEN BONDS?    NO
Info: Using AMBER format force field!
Info: AMBER PARM FILE        mobley_9838013.prmtop
Info: COORDINATE PDB         mobley_9838013.pdb
Info: Exclusions will be read from PARM file!
Info: SCNB (VDW SCALING)     2
Info: USING ARITHMETIC MEAN TO COMBINE L-J SIGMA PARAMETERS
Info: BINARY COORDINATES     mobley_9838013_equil.coor
Info: SUMMARY OF PARAMETERS:
Info: 6 BONDS
Info: 5 ANGLES
Info:   5 HARMONIC
Info:   0 COSINE-BASED
Info: 8 DIHEDRAL
Info: 0 IMPROPER
Info: 0 CROSSTERM
Info: 0 VDW
Info: 15 VDW_PAIRS
Info: 0 NBTHOLE_PAIRS
Info: To read alchdata from file: mobley_9838013.pdb
Info: To read alchflag data from column: 5
Info: STRUCTURE SUMMARY:
Info: 2916 ATOMS
Info: 2915 BONDS
Info: 31 ANGLES
Info: 54 DIHEDRALS
Info: 0 IMPROPERS
Info: 0 CROSSTERMS
Info: 2985 EXCLUSIONS
Info: 2910 RIGID BONDS
Info: ALCH: 0 ATOMS TO DISAPPEAR IN FINAL STATE
Info: ALCH: 18 ATOMS TO APPEAR IN FINAL STATE
Info: 5838 DEGREES OF FREEDOM
Info: 972 HYDROGEN GROUPS
Info: 4 ATOMS IN LARGEST HYDROGEN GROUP
Info: 972 MIGRATION GROUPS
Info: 4 ATOMS IN LARGEST MIGRATION GROUP
Info: TOTAL MASS = 17491.6 amu
Info: TOTAL CHARGE = 3.72529e-08 e
Info: MASS DENSITY = 0.963738 g/cm^3
Info: ATOM DENSITY = 0.0967515 atoms/A^3
Info: ADDED 0 IMPLICIT EXCLUSIONS
Info: NONBONDED TABLE R-SQUARED SPACING: 0.0625
Info: NONBONDED TABLE SIZE: 705 POINTS
Info: REMOVING COM VELOCITY -0.0196506 -0.0507171 0.0295393
Info: Use 3D box decompostion in PME FFT.
Info: Updated CUDA force table with 4096 elements.
Info: Updated CUDA LJ table with 5 x 5 elements.
Info: Found 21 unique exclusion lists needing 52 bytes
TCL: Running for 1500000 steps
ETITLE: TS BOND ANGLE DIHED IMPRP ELECT VDW BOUNDARY MISC KINETIC TOTAL TEMP POTENTIAL TOTALAVG TEMPAVG PRESSURE GPRESSURE VOLUME PRESSAVG GPRESSAVG
ENERGY: 0 1.5195 8.8425 4.8575 0.0000 -10638.9244 1485.8740 0.0000 0.0000 1709.4655 -7428.3654 294.7044 -9137.8309 -7428.3654 294.7044 344.7554 452.4241 30139.0739 344.7554 452.4241
ENERGY: 300000 4.4287 6.5280 5.3912 0.0000 -10569.2899 1381.3731 0.0000 0.0000 1732.7822 -7438.7867 298.7241 -9171.5689 -7373.1261 298.6530 -454.5973 -409.0808 30134.9211 176.1826 243.9320
ENERGY: 600000 2.2209 5.0684 4.2836 0.0000 -10632.2300 1416.0340 0.0000 0.0000 1722.4295 -7482.1936 296.9393 -9204.6231 -7408.4315 296.1768 -210.6790 -120.0996 29903.3574 -17.4381 57.8066
ENERGY: 900000 1.4698 9.2616 5.0311 0.0000 -10616.5111 1391.1407 0.0000 0.0000 1748.9318 -7460.6761 301.5082 -9209.6079 -7414.4726 297.0362 -221.3025 -155.3839 29439.2664 18.4773 90.4052
ENERGY: 1200000 0.5922 5.9026 6.8566 0.0000 -10690.9564 1512.2172 0.0000 0.0000 1744.0485 -7421.3394 300.6664 -9165.3879 -7414.8796 297.6283 448.1291 518.1938 30283.1126 31.5033 105.4062
ENERGY: 1500000 1.8467 7.5435 5.5166 0.0000 -10590.7667 1431.9519 0.0000 0.0000 1796.1661 -7347.7418 309.6512 -9143.9079 -7413.3012 297.5303 366.9747 419.4215 29683.4508 69.8903 147.2726
TCL: Running FEP window   2: Lambda1 0.95   Lambda2 0.8999999999999999 [dLambda -0.050000000000000044]
TCL: Setting parameter firsttimestep to 0
TCL: Setting parameter alchLambda to 0.95
Info: NONBONDED TABLE R-SQUARED SPACING: 0.0625
Info: NONBONDED TABLE SIZE: 705 POINTS
TCL: Setting parameter alchLambda2 to 0.8999999999999999
Info: NONBONDED TABLE R-SQUARED SPACING: 0.0625
Info: NONBONDED TABLE SIZE: 705 POINTS
TCL: Running for 1500000 steps
ETITLE: TS BOND ANGLE DIHED IMPRP ELECT VDW BOUNDARY MISC KINETIC TOTAL TEMP POTENTIAL TOTALAVG TEMPAVG PRESSURE GPRESSURE VOLUME PRESSAVG GPRESSAVG
ENERGY: 0 1.8467 7.5435 5.5166 0.0000 -10589.1804 1431.5371 0.0000 0.0000 1795.2993 -7347.4372 309.5018 -9142.7364 -7347.4372 309.5018 339.5933 411.1074 29683.4508 339.5933 411.1074
ENERGY: 300000 0.6019 10.5290 5.3379 0.0000 -10557.7256 1411.4937 0.0000 0.0000 1761.4480 -7368.3151 303.6660 -9129.7632 -7378.9111 302.8107 19.3714 71.7453 30078.0105 53.0086 119.4524
ENERGY: 600000 0.9927 8.1955 4.0802 0.0000 -10624.2179 1454.8705 0.0000 0.0000 1665.1007 -7490.9783 287.0561 -9156.0790 -7387.8912 300.1023 165.7811 230.7537 30006.1036 80.0123 138.5328
ENERGY: 900000 0.4194 9.5049 4.3063 0.0000 -10717.9543 1538.4048 0.0000 0.0000 1723.8681 -7441.4507 297.1874 -9165.3188 -7393.6572 300.0231 932.1175 945.9501 29944.4831 52.1890 108.3711
ENERGY: 1200000 0.5905 5.2981 5.9375 0.0000 -10466.8685 1365.9905 0.0000 0.0000 1689.0512 -7400.0007 291.1851 -9089.0518 -7404.1971 299.0542 -491.3332 -451.5724 30425.7158 -41.5049 12.7805
ENERGY: 1500000 1.8758 10.1476 3.9911 0.0000 -10657.7162 1473.1014 0.0000 0.0000 1731.2867 -7437.3136 298.4663 -9168.6003 -7413.0193 298.1797 293.9839 423.7229 29810.4478 -28.7055 27.6977
TCL: Running FEP window   3: Lambda1 0.8999999999999999 Lambda2 0.8499999999999999 [dLambda -0.050000000000000044]
TCL: Setting parameter firsttimestep to 0
TCL: Setting parameter alchLambda to 0.8999999999999999
Info: NONBONDED TABLE R-SQUARED SPACING: 0.0625
Info: NONBONDED TABLE SIZE: 705 POINTS
TCL: Setting parameter alchLambda2 to 0.8499999999999999
Info: NONBONDED TABLE R-SQUARED SPACING: 0.0625
Info: NONBONDED TABLE SIZE: 705 POINTS
TCL: Running for 1500000 steps
ETITLE: TS BOND ANGLE DIHED IMPRP ELECT VDW BOUNDARY MISC KINETIC TOTAL TEMP POTENTIAL TOTALAVG TEMPAVG PRESSURE GPRESSURE VOLUME PRESSAVG GPRESSAVG
ENERGY: 0 1.8758 10.1476 3.9911 0.0000 -10656.1361 1471.3527 0.0000 0.0000 1730.4121 -7438.3568 298.3155 -9168.7689 -7438.3568 298.3155 309.3781 396.4478 29810.4478 309.3781 396.4478
ENERGY: 300000 1.9989 7.7626 4.0654 0.0000 -10598.9517 1417.9827 0.0000 0.0000 1725.8974 -7441.2448 297.5372 -9167.1422 -7438.7847 298.9163 -215.3192 -116.7050 30208.6437 171.4542 254.9232
ENERGY: 600000 3.0699 3.4350 4.1632 0.0000 -10570.9687 1487.7469 0.0000 0.0000 1649.3094 -7423.2443 284.3338 -9072.5537 -7428.6335 297.6467 559.5534 617.7727 29949.6320 245.9289 310.4986
ENERGY: 900000 0.1581 16.7078 5.0692 0.0000 -10606.6502 1417.2737 0.0000 0.0000 1715.6839 -7451.7576 295.7764 -9167.4415 -7434.2835 297.1228 7.2967 21.4221 29837.3348 87.7235 153.0344
ENERGY: 1200000 2.1259 10.0941 4.2687 0.0000 -10437.7881 1343.7925 0.0000 0.0000 1794.7056 -7282.8014 309.3994 -9077.5069 -7408.4263 299.9841 -302.5403 -240.1557 30182.3431 82.5778 149.0544
ENERGY: 1500000 2.5902 7.7054 5.1695 0.0000 -10569.6223 1411.2643 0.0000 0.0000 1751.8162 -7391.0767 302.0055 -9142.8929 -7397.2123 300.5778 -328.5934 -290.5822 30624.5162 -123.2450 -58.1144
TCL: Running FEP window   4: Lambda1 0.8499999999999999 Lambda2 0.7999999999999998 [dLambda -0.050000000000000044]
TCL: Setting parameter firsttimestep to 0
TCL: Setting parameter alchLambda to 0.8499999999999999
Info: NONBONDED TABLE R-SQUARED SPACING: 0.0625
Info: NONBONDED TABLE SIZE: 705 POINTS
TCL: Setting parameter alchLambda2 to 0.7999999999999998
Info: NONBONDED TABLE R-SQUARED SPACING: 0.0625
Info: NONBONDED TABLE SIZE: 705 POINTS
TCL: Running for 1500000 steps
ETITLE: TS BOND ANGLE DIHED IMPRP ELECT VDW BOUNDARY MISC KINETIC TOTAL TEMP POTENTIAL TOTALAVG TEMPAVG PRESSURE GPRESSURE VOLUME PRESSAVG GPRESSAVG
ENERGY: 0 2.5902 7.7054 5.1695 0.0000 -10567.9429 1410.1907 0.0000 0.0000 1750.9827 -7391.3044 301.8618 -9142.2871 -7391.3044 301.8618 -385.1079 -309.1712 30624.5162 -385.1079 -309.1712
ENERGY: 300000 0.8099 12.0077 5.6016 0.0000 -10617.5039 1431.1632 0.0000 0.0000 1750.6799 -7417.2416 301.8096 -9167.9215 -7406.5015 302.2604 140.3241 193.9647 29857.0274 -70.5760 -17.5280
ENERGY: 600000 2.7673 10.9148 5.3386 0.0000 -10714.3658 1420.6060 0.0000 0.0000 1723.8359 -7550.9031 297.1818 -9274.7390 -7424.1095 300.7216 17.4321 73.0001 29115.3341 95.6971 146.3736
ENERGY: 900000 2.4516 7.6469 5.1380 0.0000 -10568.8759 1482.6669 0.0000 0.0000 1793.6668 -7277.3057 309.2203 -9070.9724 -7402.3697 300.8434 569.4528 542.2067 30441.3360 -23.4882 12.2967
ENERGY: 1200000 0.5168 6.7653 4.1419 0.0000 -10509.0009 1388.1708 0.0000 0.0000 1701.3008 -7408.1053 293.2968 -9109.4061 -7407.2724 300.1018 -284.4048 -218.4600 30308.4554 -92.1505 -52.2772
ENERGY: 1500000 0.6104 4.6094 4.5854 0.0000 -10547.5253 1420.7865 0.0000 0.0000 1750.7961 -7366.1375 301.8296 -9116.9335 -7404.1919 300.2817 0.8207 94.2053 30348.6455 -78.2663 -34.6451
TCL: Running FEP window   5: Lambda1 0.7999999999999998 Lambda2 0.7499999999999998 [dLambda -0.050000000000000044]
TCL: Setting parameter firsttimestep to 0
TCL: Setting parameter alchLambda to 0.7999999999999998
Info: NONBONDED TABLE R-SQUARED SPACING: 0.0625
Info: NONBONDED TABLE SIZE: 705 POINTS
TCL: Setting parameter alchLambda2 to 0.7499999999999998
Info: NONBONDED TABLE R-SQUARED SPACING: 0.0625
Info: NONBONDED TABLE SIZE: 705 POINTS
TCL: Running for 1500000 steps
ETITLE: TS BOND ANGLE DIHED IMPRP ELECT VDW BOUNDARY MISC KINETIC TOTAL TEMP POTENTIAL TOTALAVG TEMPAVG PRESSURE GPRESSURE VOLUME PRESSAVG GPRESSAVG
ENERGY: 0 0.6104 4.6094 4.5854 0.0000 -10546.1297 1420.4008 0.0000 0.0000 1749.9175 -7366.0062 301.6782 -9115.9236 -7366.0062 301.6782 6.3319 85.1018 30348.6455 6.3319 85.1018
ENERGY: 300000 1.7955 9.0244 4.2845 0.0000 -10422.9409 1359.6777 0.0000 0.0000 1789.2544 -7258.9044 308.4597 -9048.1588 -7340.4372 305.2231 -291.8121 -195.8923 30415.9742 104.0212 165.1487
ENERGY: 600000 0.3010 4.9581 3.9220 0.0000 -10564.7115 1437.7325 0.0000 0.0000 1721.6955 -7396.1022 296.8128 -9117.7978 -7365.2136 302.6961 285.8323 372.8564 29795.7926 15.1695 80.7090
ENERGY: 900000 0.5595 7.0332 5.2334 0.0000 -10658.9178 1448.6987 0.0000 0.0000 1802.2663 -7395.1268 310.7029 -9197.3931 -7366.9230 302.1973 231.9117 395.4314 29513.7768 -172.4945 -98.4757
ENERGY: 1200000 1.6861 10.1720 4.3219 0.0000 -10550.5013 1451.0257 0.0000 0.0000 1747.3065 -7335.9891 301.2280 -9083.2956 -7368.5888 300.6325 269.9853 365.5828 30192.5320 -134.8908 -64.1799
ENERGY: 1500000 0.7368 8.2003 4.2229 0.0000 -10696.0091 1490.9130 0.0000 0.0000 1654.5583 -7537.3778 285.2386 -9191.9361 -7381.1709 300.1268 294.2260 395.0074 29917.0116 -27.7547 46.6458
TCL: Running FEP window   6: Lambda1 0.7499999999999998 Lambda2 0.6999999999999997 [dLambda -0.050000000000000044]
TCL: Setting parameter firsttimestep to 0
TCL: Setting parameter alchLambda to 0.7499999999999998
Info: NONBONDED TABLE R-SQUARED SPACING: 0.0625
Info: NONBONDED TABLE SIZE: 705 POINTS
TCL: Setting parameter alchLambda2 to 0.6999999999999997
Info: NONBONDED TABLE R-SQUARED SPACING: 0.0625
Info: NONBONDED TABLE SIZE: 705 POINTS
TCL: Running for 1500000 steps
ETITLE: TS BOND ANGLE DIHED IMPRP ELECT VDW BOUNDARY MISC KINETIC TOTAL TEMP POTENTIAL TOTALAVG TEMPAVG PRESSURE GPRESSURE VOLUME PRESSAVG GPRESSAVG
ENERGY: 0 0.7368 8.2003 4.2229 0.0000 -10694.7907 1490.8371 0.0000 0.0000 1653.6992 -7537.0944 285.0905 -9190.7936 -7537.0944 285.0905 299.4462 390.2991 29917.0116 299.4462 390.2991
ENERGY: 300000 1.1867 10.7086 5.3132 0.0000 -10591.7594 1462.6525 0.0000 0.0000 1751.6196 -7360.2790 301.9716 -9111.8986 -7424.3973 297.9547 495.0140 548.4079 29947.5633 293.4556 376.6369
ENERGY: 600000 0.8526 7.8943 5.2799 0.0000 -10563.8827 1447.5515 0.0000 0.0000 1725.9524 -7376.3519 297.5467 -9102.3044 -7398.6008 300.6609 200.6922 302.2216 29842.4883 237.8712 320.9348
ENERGY: 900000 1.0733 9.2543 4.6351 0.0000 -10562.6122 1438.8872 0.0000 0.0000 1797.6297 -7311.1326 309.9035 -9108.7623 -7392.0482 301.5786 498.4055 503.9824 29789.4227 254.4768 323.7579
ENERGY: 1200000 1.5143 11.5870 4.2960 0.0000 -10528.9754 1360.6550 0.0000 0.0000 1823.0542 -7327.8688 314.2866 -9150.9230 -7392.8316 302.3339 -479.3967 -421.0695 30018.8239 201.7918 263.7959
ENERGY: 1500000 4.6691 9.8252 5.4607 0.0000 -10534.0778 1377.4267 0.0000 0.0000 1731.9245 -7404.7714 298.5762 -9136.6959 -7394.3050 301.4562 -428.2367 -409.7855 30098.4530 119.9311 183.4791
TCL: Running FEP window   7: Lambda1 0.6999999999999997 Lambda2 0.6499999999999997 [dLambda -0.050000000000000044]
TCL: Setting parameter firsttimestep to 0
TCL: Setting parameter alchLambda to 0.6999999999999997
Info: NONBONDED TABLE R-SQUARED SPACING: 0.0625
Info: NONBONDED TABLE SIZE: 705 POINTS
TCL: Setting parameter alchLambda2 to 0.6499999999999997
Info: NONBONDED TABLE R-SQUARED SPACING: 0.0625
Info: NONBONDED TABLE SIZE: 705 POINTS
TCL: Running for 1500000 steps
ETITLE: TS BOND ANGLE DIHED IMPRP ELECT VDW BOUNDARY MISC KINETIC TOTAL TEMP POTENTIAL TOTALAVG TEMPAVG PRESSURE GPRESSURE VOLUME PRESSAVG GPRESSAVG
ENERGY: 0 4.6691 9.8252 5.4607 0.0000 -10530.8326 1375.8914 0.0000 0.0000 1731.0352 -7403.9508 298.4229 -9134.9861 -7403.9508 298.4229 -512.3782 -423.5924 30098.4530 -512.3782 -423.5924
ENERGY: 300000 1.2439 9.3028 6.0949 0.0000 -10617.6167 1467.0459 0.0000 0.0000 1778.3984 -7355.5309 306.5881 -9133.9292 -7405.5600 300.7533 533.4900 640.1502 29658.3406 -60.5335 4.4643
ENERGY: 600000 0.4957 8.3765 4.2035 0.0000 -10617.2264 1414.2204 0.0000 0.0000 1751.9091 -7438.0211 302.0215 -9189.9302 -7428.3031 298.5243 -113.8089 -107.0444 29861.8294 186.9290 248.3342
ENERGY: 900000 3.2583 4.2679 5.4452 0.0000 -10596.3127 1412.0722 0.0000 0.0000 1718.2841 -7452.9851 296.2247 -9171.2692 -7427.0895 298.8459 -491.2754 -432.0530 30432.3436 49.4326 113.7061
ENERGY: 1200000 1.5686 12.9129 4.8362 0.0000 -10436.2549 1332.6293 0.0000 0.0000 1798.4102 -7285.8977 310.0381 -9084.3079 -7418.4539 299.2720 -741.4288 -682.2095 30400.2212 -3.4519 58.9503
ENERGY: 1500000 2.6684 6.3884 7.2915 0.0000 -10588.7693 1493.7898 0.0000 0.0000 1780.7803 -7297.8510 306.9988 -9078.6313 -7408.6791 299.7151 696.4571 736.1456 29945.9919 -3.8656 56.3347
TCL: Running FEP window   8: Lambda1 0.6499999999999997 Lambda2 0.5999999999999996 [dLambda -0.050000000000000044]
TCL: Setting parameter firsttimestep to 0
TCL: Setting parameter alchLambda to 0.6499999999999997
Info: NONBONDED TABLE R-SQUARED SPACING: 0.0625
Info: NONBONDED TABLE SIZE: 705 POINTS
TCL: Setting parameter alchLambda2 to 0.5999999999999996
Info: NONBONDED TABLE R-SQUARED SPACING: 0.0625
Info: NONBONDED TABLE SIZE: 705 POINTS
TCL: Running for 1500000 steps
ETITLE: TS BOND ANGLE DIHED IMPRP ELECT VDW BOUNDARY MISC KINETIC TOTAL TEMP POTENTIAL TOTALAVG TEMPAVG PRESSURE GPRESSURE VOLUME PRESSAVG GPRESSAVG
ENERGY: 0 2.6684 6.3884 7.2915 0.0000 -10587.8252 1493.9418 0.0000 0.0000 1779.8850 -7297.6502 306.8444 -9077.5352 -7297.6502 306.8444 652.8129 732.6757 29945.9919 652.8129 732.6757
ENERGY: 300000 1.0252 5.7528 4.3659 0.0000 -10487.8740 1323.7140 0.0000 0.0000 1748.1335 -7404.8826 301.3706 -9153.0161 -7377.8762 301.4378 -1004.2357 -961.8264 30451.0787 -268.3867 -216.4774
ENERGY: 600000 0.8358 10.4571 4.6546 0.0000 -10419.8370 1319.0861 0.0000 0.0000 1721.4587 -7363.3448 296.7720 -9084.8034 -7385.5586 299.0589 -649.1751 -556.7883 30031.4574 -396.1733 -328.6895
ENERGY: 900000 1.6258 6.3570 3.7213 0.0000 -10549.1891 1422.1641 0.0000 0.0000 1732.2899 -7383.0310 298.6392 -9115.3209 -7385.8213 299.7268 58.5158 184.9262 29933.7755 -265.9898 -194.0076
ENERGY: 1200000 2.2218 10.2257 6.0523 0.0000 -10576.2006 1430.1213 0.0000 0.0000 1772.8948 -7354.6846 305.6393 -9127.5794 -7384.2737 299.8928 143.4864 147.8229 30074.9414 -129.2542 -62.2678
ENERGY: 1500000 2.5390 13.0127 4.6002 0.0000 -10557.4363 1382.3593 0.0000 0.0000 1742.6747 -7412.2504 300.4295 -9154.9251 -7382.9319 299.9067 -150.9879 -107.0056 29628.3087 -82.5838 -12.3075
TCL: Running FEP window   9: Lambda1 0.5999999999999996 Lambda2 0.5499999999999996 [dLambda -0.050000000000000044]
TCL: Setting parameter firsttimestep to 0
TCL: Setting parameter alchLambda to 0.5999999999999996
Info: NONBONDED TABLE R-SQUARED SPACING: 0.0625
Info: NONBONDED TABLE SIZE: 705 POINTS
TCL: Setting parameter alchLambda2 to 0.5499999999999996
Info: NONBONDED TABLE R-SQUARED SPACING: 0.0625
Info: NONBONDED TABLE SIZE: 705 POINTS
TCL: Running for 1500000 steps
ETITLE: TS BOND ANGLE DIHED IMPRP ELECT VDW BOUNDARY MISC KINETIC TOTAL TEMP POTENTIAL TOTALAVG TEMPAVG PRESSURE GPRESSURE VOLUME PRESSAVG GPRESSAVG
ENERGY: 0 2.5391 13.0127 4.6002 0.0000 -10557.1048 1382.9965 0.0000 0.0000 1741.8339 -7412.1224 300.2846 -9153.9563 -7412.1224 300.2846 -179.0073 -103.5371 29628.3087 -179.0073 -103.5371
ENERGY: 300000 1.7219 8.6883 4.0741 0.0000 -10391.9425 1229.9156 0.0000 0.0000 1730.0962 -7417.4463 298.2611 -9147.5425 -7435.4848 298.2725 -1507.7036 -1427.6254 29931.8184 -507.2879 -432.7460
ENERGY: 600000 1.0727 8.2824 5.0332 0.0000 -10491.5554 1318.8090 0.0000 0.0000 1757.1250 -7401.2330 302.9207 -9158.3580 -7425.5965 299.1926 -769.7587 -640.2333 29967.5526 -486.8745 -399.2970
ENERGY: 900000 1.9319 9.4779 5.8351 0.0000 -10459.4787 1321.8972 0.0000 0.0000 1750.1192 -7370.2174 301.7129 -9120.3366 -7412.2105 298.7876 -938.2901 -904.1538 30155.0403 -533.6488 -451.0983
ENERGY: 1200000 0.3617 6.9186 4.6473 0.0000 -10579.9945 1401.5805 0.0000 0.0000 1770.3840 -7396.1023 305.2065 -9166.4863 -7413.1825 300.3076 -117.1466 -40.5122 29558.9471 -358.5473 -287.5343
ENERGY: 1500000 1.9329 9.4969 4.3723 0.0000 -10578.9304 1444.4640 0.0000 0.0000 1674.2895 -7444.3748 288.6402 -9118.6643 -7416.5541 299.9558 -95.3516 9.6485 30272.2906 -311.6332 -238.9373
TCL: Running FEP window  10: Lambda1 0.5499999999999996 Lambda2 0.4999999999999996 [dLambda -0.04999999999999999]
TCL: Setting parameter firsttimestep to 0
TCL: Setting parameter alchLambda to 0.5499999999999996
Info: NONBONDED TABLE R-SQUARED SPACING: 0.0625
Info: NONBONDED TABLE SIZE: 705 POINTS
TCL: Setting parameter alchLambda2 to 0.4999999999999996
Info: NONBONDED TABLE R-SQUARED SPACING: 0.0625
Info: NONBONDED TABLE SIZE: 705 POINTS
TCL: Running for 1500000 steps
ETITLE: TS BOND ANGLE DIHED IMPRP ELECT VDW BOUNDARY MISC KINETIC TOTAL TEMP POTENTIAL TOTALAVG TEMPAVG PRESSURE GPRESSURE VOLUME PRESSAVG GPRESSAVG
ENERGY: 0 1.9329 9.4969 4.3723 0.0000 -10578.4908 1444.7495 0.0000 0.0000 1673.4062 -7444.5331 288.4879 -9117.9392 -7444.5331 288.4879 -75.9617 7.9107 30272.2906 -75.9617 7.9107
ENERGY: 300000 3.9510 7.8631 5.5210 0.0000 -10525.5543 1343.8064 0.0000 0.0000 1697.8905 -7466.5222 292.7089 -9164.4127 -7419.7739 293.8650 -588.9923 -494.1506 29493.5617 -220.6198 -136.4288
ENERGY: 600000 1.4682 10.4799 6.8970 0.0000 -10551.2423 1402.2158 0.0000 0.0000 1744.4192 -7385.7622 300.7303 -9130.1814 -7413.7367 296.9102 -347.3640 -212.9998 30144.2328 -110.4838 -30.9832
ENERGY: 900000 1.7408 7.4496 4.6933 0.0000 -10673.3287 1491.1906 0.0000 0.0000 1805.1867 -7363.0677 311.2063 -9168.2544 -7397.1276 299.5819 641.5136 752.9990 29645.2611 41.9095 122.9255
ENERGY: 1200000 1.4806 6.1301 4.7655 0.0000 -10537.5101 1376.0528 0.0000 0.0000 1764.7524 -7384.3286 304.2356 -9149.0811 -7397.5254 299.3054 -510.1605 -486.1131 30226.5072 -102.8555 -29.3348
ENERGY: 1500000 2.5147 9.6083 5.5185 0.0000 -10581.4013 1427.1034 0.0000 0.0000 1737.3676 -7399.2886 299.5146 -9136.6563 -7397.5107 299.2267 185.8948 307.4465 29432.1051 -51.4792 24.4786
TCL: Running FEP window  11: Lambda1 0.4999999999999996 Lambda2 0.4499999999999996 [dLambda -0.04999999999999999]
TCL: Setting parameter firsttimestep to 0
TCL: Setting parameter alchLambda to 0.4999999999999996
Info: NONBONDED TABLE R-SQUARED SPACING: 0.0625
Info: NONBONDED TABLE SIZE: 705 POINTS
TCL: Setting parameter alchLambda2 to 0.4499999999999996
Info: NONBONDED TABLE R-SQUARED SPACING: 0.0625
Info: NONBONDED TABLE SIZE: 705 POINTS
TCL: Running for 1500000 steps
ETITLE: TS BOND ANGLE DIHED IMPRP ELECT VDW BOUNDARY MISC KINETIC TOTAL TEMP POTENTIAL TOTALAVG TEMPAVG PRESSURE GPRESSURE VOLUME PRESSAVG GPRESSAVG
ENERGY: 0 2.5147 9.6083 5.5185 0.0000 -10580.9003 1426.5712 0.0000 0.0000 1736.4826 -7400.2049 299.3620 -9136.6875 -7400.2049 299.3620 226.4027 297.3102 29432.1051 226.4027 297.3102
ENERGY: 300000 2.4196 10.2938 4.3718 0.0000 -10752.2919 1522.7817 0.0000 0.0000 1760.3821 -7452.0429 303.4822 -9212.4251 -7417.5417 300.6501 1025.0318 1055.8364 29209.4932 364.9565 437.5400
ENERGY: 600000 0.9718 9.7894 4.6824 0.0000 -10562.3699 1475.3258 0.0000 0.0000 1740.5936 -7331.0069 300.0708 -9071.6006 -7387.9230 299.2402 607.2885 671.7716 30133.9489 271.3016 329.2406
ENERGY: 900000 1.9715 11.6361 5.2285 0.0000 -10517.1608 1403.0881 0.0000 0.0000 1695.6102 -7399.6264 292.3158 -9095.2366 -7388.5173 297.9290 -209.1151 -232.1324 30264.9221 151.4048 206.8477
ENERGY: 1200000 0.7941 6.6623 3.8878 0.0000 -10454.0755 1401.2840 0.0000 0.0000 1743.8970 -7297.5503 300.6403 -9041.4473 -7380.9665 297.9644 -68.8046 5.3988 30271.5355 129.3501 186.6631
ENERGY: 1500000 1.2327 9.6066 5.0018 0.0000 -10587.2318 1455.3735 0.0000 0.0000 1751.5854 -7364.4319 301.9657 -9116.0172 -7373.7825 298.8245 302.8436 389.7374 30014.4081 145.2041 204.4053
TCL: Running FEP window  12: Lambda1 0.4499999999999996 Lambda2 0.39999999999999963 [dLambda -0.04999999999999999]
TCL: Setting parameter firsttimestep to 0
TCL: Setting parameter alchLambda to 0.4499999999999996
Info: NONBONDED TABLE R-SQUARED SPACING: 0.0625
Info: NONBONDED TABLE SIZE: 705 POINTS
TCL: Setting parameter alchLambda2 to 0.39999999999999963
Info: NONBONDED TABLE R-SQUARED SPACING: 0.0625
Info: NONBONDED TABLE SIZE: 705 POINTS
TCL: Running for 1500000 steps
ETITLE: TS BOND ANGLE DIHED IMPRP ELECT VDW BOUNDARY MISC KINETIC TOTAL TEMP POTENTIAL TOTALAVG TEMPAVG PRESSURE GPRESSURE VOLUME PRESSAVG GPRESSAVG
ENERGY: 0 1.2327 9.6066 5.0018 0.0000 -10587.2310 1455.2946 0.0000 0.0000 1750.7172 -7365.3781 301.8160 -9116.0953 -7365.3781 301.8160 312.8406 383.1005 30014.4081 312.8406 383.1005
ENERGY: 300000 1.6396 8.7344 4.6507 0.0000 -10449.3061 1386.4157 0.0000 0.0000 1763.8165 -7284.0493 304.0743 -9047.8657 -7371.4511 303.1711 45.4502 105.6486 30011.4058 -33.6062 27.1230
ENERGY: 600000 1.1975 13.4765 4.1752 0.0000 -10442.4579 1348.0712 0.0000 0.0000 1707.0876 -7368.4500 294.2945 -9075.5376 -7376.1826 300.0568 -697.5636 -694.3604 30665.7375 -3.0819 47.9390
ENERGY: 900000 0.4860 8.2153 4.7177 0.0000 -10665.9056 1449.0285 0.0000 0.0000 1814.3961 -7389.0619 312.7940 -9203.4581 -7389.5544 300.7618 61.2820 107.1839 29756.7372 -16.1022 38.0270
ENERGY: 1200000 1.7253 7.7901 4.8621 0.0000 -10655.1441 1462.7674 0.0000 0.0000 1724.4294 -7453.5698 297.2841 -9177.9992 -7400.3461 299.9970 111.4553 204.6717 29793.4833 -98.9227 -37.4157
ENERGY: 1500000 1.7009 8.5474 4.3267 0.0000 -10522.7947 1432.3475 0.0000 0.0000 1737.8663 -7338.0059 299.6006 -9075.8722 -7393.7536 299.3707 -142.6062 -17.9265 30433.9081 -206.8944 -139.9149
TCL: Running FEP window  13: Lambda1 0.39999999999999963 Lambda2 0.34999999999999964 [dLambda -0.04999999999999999]
TCL: Setting parameter firsttimestep to 0
TCL: Setting parameter alchLambda to 0.39999999999999963
Info: NONBONDED TABLE R-SQUARED SPACING: 0.0625
Info: NONBONDED TABLE SIZE: 705 POINTS
TCL: Setting parameter alchLambda2 to 0.34999999999999964
Info: NONBONDED TABLE R-SQUARED SPACING: 0.0625
Info: NONBONDED TABLE SIZE: 705 POINTS
TCL: Running for 1500000 steps
ETITLE: TS BOND ANGLE DIHED IMPRP ELECT VDW BOUNDARY MISC KINETIC TOTAL TEMP POTENTIAL TOTALAVG TEMPAVG PRESSURE GPRESSURE VOLUME PRESSAVG GPRESSAVG
ENERGY: 0 1.7009 8.5474 4.3267 0.0000 -10522.7951 1431.7447 0.0000 0.0000 1737.0037 -7339.4717 299.4519 -9076.4754 -7339.4717 299.4519 -124.1337 -30.7335 30433.9081 -124.1337 -30.7335
ENERGY: 300000 2.5379 13.2137 4.5888 0.0000 -10698.8425 1482.0353 0.0000 0.0000 1717.2902 -7479.1766 296.0534 -9196.4668 -7427.2277 296.2076 333.7214 402.5855 29629.3775 -153.4841 -90.0896
ENERGY: 600000 0.6176 10.8871 5.5795 0.0000 -10533.4447 1425.6738 0.0000 0.0000 1717.3108 -7373.3759 296.0569 -9090.6867 -7385.0317 298.9742 187.8877 292.0396 29730.7407 -90.7173 -4.4098
ENERGY: 900000 3.0654 6.5473 5.3893 0.0000 -10622.3887 1427.1429 0.0000 0.0000 1711.6859 -7468.5579 295.0872 -9180.2438 -7399.7472 298.6794 196.0626 284.0066 29411.1866 -90.5313 -10.8521
ENERGY: 1200000 0.7990 5.9740 5.0047 0.0000 -10600.4242 1378.4509 0.0000 0.0000 1770.1255 -7440.0700 305.1619 -9210.1955 -7408.1172 299.0484 -572.8803 -504.7467 29933.6222 -141.9109 -66.4176
ENERGY: 1500000 1.3165 7.2347 4.3354 0.0000 -10566.2257 1414.9215 0.0000 0.0000 1728.0102 -7410.4075 297.9014 -9138.4176 -7399.0296 300.3846 11.9359 86.9688 30039.2324 -148.7263 -74.5941
TCL: Running FEP window  14: Lambda1 0.34999999999999964 Lambda2 0.29999999999999966 [dLambda -0.04999999999999999]
TCL: Setting parameter firsttimestep to 0
TCL: Setting parameter alchLambda to 0.34999999999999964
Info: NONBONDED TABLE R-SQUARED SPACING: 0.0625
Info: NONBONDED TABLE SIZE: 705 POINTS
TCL: Setting parameter alchLambda2 to 0.29999999999999966
Info: NONBONDED TABLE R-SQUARED SPACING: 0.0625
Info: NONBONDED TABLE SIZE: 705 POINTS
TCL: Running for 1500000 steps
ETITLE: TS BOND ANGLE DIHED IMPRP ELECT VDW BOUNDARY MISC KINETIC TOTAL TEMP POTENTIAL TOTALAVG TEMPAVG PRESSURE GPRESSURE VOLUME PRESSAVG GPRESSAVG
ENERGY: 0 1.3165 7.2347 4.3354 0.0000 -10566.2254 1415.4097 0.0000 0.0000 1727.1543 -7410.7749 297.7539 -9137.9292 -7410.7749 297.7539 2.1199 83.6963 30039.2324 2.1199 83.6963
ENERGY: 300000 1.2686 8.3022 5.1849 0.0000 -10482.4048 1387.9514 0.0000 0.0000 1801.0872 -7278.6104 310.4996 -9079.6976 -7366.7067 303.3347 -40.9764 69.6206 29791.8292 35.2089 109.6499
ENERGY: 600000 0.7772 8.1886 4.9320 0.0000 -10608.0966 1402.6668 0.0000 0.0000 1724.0910 -7467.4410 297.2258 -9191.5320 -7386.3487 300.7653 -153.0393 -109.5067 29609.5096 19.4492 82.1678
ENERGY: 900000 1.2923 9.2228 4.1289 0.0000 -10484.0981 1365.0716 0.0000 0.0000 1731.0191 -7373.3635 298.4202 -9104.3826 -7386.2515 301.0178 -334.6285 -311.2829 29971.1871 -24.4213 34.2161
ENERGY: 1200000 1.6876 10.9623 4.2256 0.0000 -10606.9960 1470.2996 0.0000 0.0000 1690.7411 -7429.0798 291.4764 -9119.8209 -7385.8378 300.4613 522.2658 534.7482 29855.2694 25.3082 76.7265
ENERGY: 1500000 0.7425 6.1730 4.9043 0.0000 -10581.4697 1423.1924 0.0000 0.0000 1749.1540 -7397.3035 301.5465 -9146.4575 -7391.7618 300.5420 -54.4960 35.1738 29996.9525 103.9826 159.4814
TCL: Running FEP window  15: Lambda1 0.29999999999999966 Lambda2 0.24999999999999967 [dLambda -0.04999999999999999]
TCL: Setting parameter firsttimestep to 0
TCL: Setting parameter alchLambda to 0.29999999999999966
Info: NONBONDED TABLE R-SQUARED SPACING: 0.0625
Info: NONBONDED TABLE SIZE: 705 POINTS
TCL: Setting parameter alchLambda2 to 0.24999999999999967
Info: NONBONDED TABLE R-SQUARED SPACING: 0.0625
Info: NONBONDED TABLE SIZE: 705 POINTS
TCL: Running for 1500000 steps
ETITLE: TS BOND ANGLE DIHED IMPRP ELECT VDW BOUNDARY MISC KINETIC TOTAL TEMP POTENTIAL TOTALAVG TEMPAVG PRESSURE GPRESSURE VOLUME PRESSAVG GPRESSAVG
ENERGY: 0 0.7425 6.1730 4.9043 0.0000 -10581.4698 1423.3220 0.0000 0.0000 1748.2952 -7398.0329 301.3985 -9146.3280 -7398.0329 301.3985 -40.1678 33.1975 29996.9525 -40.1678 33.1975
ENERGY: 300000 0.4260 12.7827 6.5213 0.0000 -10546.2238 1419.0141 0.0000 0.0000 1768.6366 -7338.8431 304.9052 -9107.4797 -7386.6653 300.4372 84.4966 108.7096 30082.9742 -101.4035 -64.1121
ENERGY: 600000 4.8883 6.9431 3.8180 0.0000 -10470.6619 1415.3006 0.0000 0.0000 1716.3086 -7323.4033 295.8841 -9039.7119 -7377.8736 300.7937 -76.1436 3.2078 30367.9334 19.5661 77.5053
ENERGY: 900000 5.5163 7.1771 4.1428 0.0000 -10662.0232 1448.2172 0.0000 0.0000 1766.8394 -7430.1303 304.5954 -9196.9698 -7389.8350 301.1593 165.0631 267.8941 29860.4941 -96.9559 -32.4665
ENERGY: 1200000 0.5478 6.6365 4.4144 0.0000 -10461.3058 1359.7193 0.0000 0.0000 1764.1060 -7325.8817 304.1242 -9089.9878 -7388.2453 301.1258 -242.0529 -168.1898 29770.7275 -18.2953 48.3372
ENERGY: 1500000 1.7928 8.9591 4.4328 0.0000 -10768.6947 1531.9272 0.0000 0.0000 1676.4811 -7545.1018 289.0180 -9221.5829 -7396.1982 300.2033 572.5793 605.4582 29579.2014 50.1327 113.4099
TCL: Running FEP window  16: Lambda1 0.24999999999999967 Lambda2 0.19999999999999968 [dLambda -0.04999999999999999]
TCL: Setting parameter firsttimestep to 0
TCL: Setting parameter alchLambda to 0.24999999999999967
Info: NONBONDED TABLE R-SQUARED SPACING: 0.0625
Info: NONBONDED TABLE SIZE: 705 POINTS
TCL: Setting parameter alchLambda2 to 0.19999999999999968
Info: NONBONDED TABLE R-SQUARED SPACING: 0.0625
Info: NONBONDED TABLE SIZE: 705 POINTS
TCL: Running for 1500000 steps
ETITLE: TS BOND ANGLE DIHED IMPRP ELECT VDW BOUNDARY MISC KINETIC TOTAL TEMP POTENTIAL TOTALAVG TEMPAVG PRESSURE GPRESSURE VOLUME PRESSAVG GPRESSAVG
ENERGY: 0 1.7928 8.9591 4.4328 0.0000 -10768.6946 1531.6134 0.0000 0.0000 1675.5892 -7546.3074 288.8643 -9221.8966 -7546.3074 288.8643 505.9544 598.6526 29579.2014 505.9544 598.6526
ENERGY: 300000 3.1166 5.4169 4.5633 0.0000 -10543.7719 1357.3461 0.0000 0.0000 1723.5508 -7449.7784 297.1326 -9173.3292 -7439.6526 300.2816 -566.6361 -585.4445 29906.1919 -565.9970 -521.4858
ENERGY: 600000 3.1271 8.9588 4.8455 0.0000 -10559.5486 1417.5647 0.0000 0.0000 1693.2679 -7431.7847 291.9120 -9125.0525 -7437.8302 298.3272 55.9945 81.2883 29573.4505 -145.2506 -96.9849
ENERGY: 900000 0.4014 9.5979 5.0781 0.0000 -10487.9937 1360.7192 0.0000 0.0000 1722.6336 -7389.5635 296.9745 -9112.1971 -7424.9319 298.7380 -374.5429 -242.6024 29834.5174 -95.1735 -35.4268
ENERGY: 1200000 1.7027 10.6075 4.1239 0.0000 -10653.4543 1397.8714 0.0000 0.0000 1751.1984 -7487.9504 301.8990 -9239.1489 -7413.8295 299.6499 -442.0232 -426.1184 29854.0730 -156.1464 -96.1233
ENERGY: 1500000 2.6029 5.7995 4.8262 0.0000 -10537.9042 1410.4684 0.0000 0.0000 1740.8083 -7373.3989 300.1078 -9114.2072 -7401.5986 299.7258 -185.7419 -153.1513 30025.4639 -138.0320 -79.3446
TCL: Running FEP window  17: Lambda1 0.19999999999999968 Lambda2 0.1499999999999997 [dLambda -0.04999999999999999]
TCL: Setting parameter firsttimestep to 0
TCL: Setting parameter alchLambda to 0.19999999999999968
Info: NONBONDED TABLE R-SQUARED SPACING: 0.0625
Info: NONBONDED TABLE SIZE: 705 POINTS
TCL: Setting parameter alchLambda2 to 0.1499999999999997
Info: NONBONDED TABLE R-SQUARED SPACING: 0.0625
Info: NONBONDED TABLE SIZE: 705 POINTS
TCL: Running for 1500000 steps
ETITLE: TS BOND ANGLE DIHED IMPRP ELECT VDW BOUNDARY MISC KINETIC TOTAL TEMP POTENTIAL TOTALAVG TEMPAVG PRESSURE GPRESSURE VOLUME PRESSAVG GPRESSAVG
ENERGY: 0 2.6029 5.7995 4.8262 0.0000 -10537.9047 1410.5603 0.0000 0.0000 1739.9362 -7374.1796 299.9574 -9114.1158 -7374.1796 299.9574 -247.8422 -156.2460 30025.4639 -247.8422 -156.2460
ENERGY: 300000 2.2746 6.0790 4.5622 0.0000 -10602.0877 1526.3258 0.0000 0.0000 1813.3997 -7249.4463 312.6222 -9062.8460 -7378.3948 302.3736 780.1685 833.2112 30219.0461 -106.2546 -40.4392
ENERGY: 600000 3.0477 10.1401 4.3484 0.0000 -10654.1245 1480.8183 0.0000 0.0000 1791.0542 -7364.7158 308.7699 -9155.7700 -7376.3939 302.5367 480.9065 520.7061 29767.2491 -49.1909 18.0101
ENERGY: 900000 1.5263 8.4610 5.4284 0.0000 -10497.2138 1385.7337 0.0000 0.0000 1661.1250 -7434.9393 286.3707 -9096.0643 -7391.8734 299.6579 -294.4240 -221.4514 29748.2720 -20.2813 53.6316
ENERGY: 1200000 0.1706 7.8929 6.0755 0.0000 -10547.2553 1413.5415 0.0000 0.0000 1745.6036 -7373.9714 300.9345 -9119.5749 -7387.4125 299.9074 -193.1441 -109.2257 30157.0779 -15.5626 52.7992
ENERGY: 1500000 1.3272 8.3926 5.5794 0.0000 -10718.8136 1514.3573 0.0000 0.0000 1801.4828 -7387.6744 310.5678 -9189.1572 -7386.1021 301.6204 815.0030 867.4424 29580.3934 26.1802 92.1280
TCL: Running FEP window  18: Lambda1 0.1499999999999997 Lambda2 0.09999999999999969 [dLambda -0.05 ]
TCL: Setting parameter firsttimestep to 0
TCL: Setting parameter alchLambda to 0.1499999999999997
Info: NONBONDED TABLE R-SQUARED SPACING: 0.0625
Info: NONBONDED TABLE SIZE: 705 POINTS
TCL: Setting parameter alchLambda2 to 0.09999999999999969
Info: NONBONDED TABLE R-SQUARED SPACING: 0.0625
Info: NONBONDED TABLE SIZE: 705 POINTS
TCL: Running for 1500000 steps
ETITLE: TS BOND ANGLE DIHED IMPRP ELECT VDW BOUNDARY MISC KINETIC TOTAL TEMP POTENTIAL TOTALAVG TEMPAVG PRESSURE GPRESSURE VOLUME PRESSAVG GPRESSAVG
ENERGY: 0 1.3272 8.3926 5.5794 0.0000 -10718.8136 1514.3745 0.0000 0.0000 1800.6410 -7388.4990 310.4227 -9189.1400 -7388.4990 310.4227 781.6762 863.5651 29580.3934 781.6762 863.5651
ENERGY: 300000 1.3102 10.9490 4.5552 0.0000 -10484.8150 1367.2070 0.0000 0.0000 1761.2691 -7339.5244 303.6351 -9100.7935 -7371.7099 301.1292 -336.3358 -280.6812 29841.9985 -90.9485 -48.3796
ENERGY: 600000 1.7468 11.0807 4.7504 0.0000 -10492.9488 1365.2530 0.0000 0.0000 1696.5976 -7413.5202 292.4860 -9110.1178 -7379.2736 300.9060 -622.1750 -609.8824 30232.3623 94.2650 133.5888
ENERGY: 900000 2.3601 6.1671 4.8748 0.0000 -10537.6767 1392.4471 0.0000 0.0000 1740.9246 -7390.9031 300.1278 -9131.8277 -7386.5807 301.6218 -442.3598 -398.8732 30510.5085 84.3088 125.2352
ENERGY: 1200000 1.3282 7.9827 5.2669 0.0000 -10601.9963 1471.4952 0.0000 0.0000 1794.6052 -7321.3181 309.3821 -9115.9232 -7377.8602 302.2278 212.5591 209.3768 30254.9154 148.1348 182.5403
ENERGY: 1500000 0.8896 7.5282 3.9365 0.0000 -10467.8099 1382.1946 0.0000 0.0000 1743.8298 -7329.4313 300.6287 -9073.2610 -7378.9081 301.6603 -227.1356 -200.2122 29972.3807 49.4731 87.5762
TCL: Running FEP window  19: Lambda1 0.09999999999999969 Lambda2 0.049999999999999684 [dLambda -0.05 ]
TCL: Setting parameter firsttimestep to 0
TCL: Setting parameter alchLambda to 0.09999999999999969
Info: NONBONDED TABLE R-SQUARED SPACING: 0.0625
Info: NONBONDED TABLE SIZE: 705 POINTS
TCL: Setting parameter alchLambda2 to 0.049999999999999684
Info: NONBONDED TABLE R-SQUARED SPACING: 0.0625
Info: NONBONDED TABLE SIZE: 705 POINTS
TCL: Running for 1500000 steps
ETITLE: TS BOND ANGLE DIHED IMPRP ELECT VDW BOUNDARY MISC KINETIC TOTAL TEMP POTENTIAL TOTALAVG TEMPAVG PRESSURE GPRESSURE VOLUME PRESSAVG GPRESSAVG
ENERGY: 0 0.8896 7.5282 3.9365 0.0000 -10467.8105 1382.4637 0.0000 0.0000 1742.9497 -7330.0427 300.4769 -9072.9924 -7330.0427 300.4769 -278.6315 -201.3089 29972.3807 -278.6315 -201.3089
ENERGY: 300000 1.4236 7.0867 5.2443 0.0000 -10658.9530 1514.2839 0.0000 0.0000 1722.0223 -7408.8923 296.8691 -9130.9146 -7394.5650 298.3694 454.3123 519.3764 30013.4013 1.7793 78.9643
ENERGY: 600000 1.3721 8.6017 4.5122 0.0000 -10514.2059 1409.0619 0.0000 0.0000 1776.7732 -7313.8848 306.3080 -9090.6580 -7396.5502 299.7032 -208.9272 -208.9411 30354.5202 -159.7240 -85.7910
ENERGY: 900000 1.9659 10.0742 5.6212 0.0000 -10562.1098 1454.0841 0.0000 0.0000 1737.7207 -7352.6436 299.5755 -9090.3643 -7391.6959 300.1847 394.1899 473.4820 29736.6492 -68.5302 14.6785
ENERGY: 1200000 1.3228 10.7943 4.3799 0.0000 -10611.2384 1411.5092 0.0000 0.0000 1705.5950 -7477.6372 294.0371 -9183.2321 -7392.5666 300.0510 -479.2693 -392.8503 30200.7767 -122.9173 -43.8925
ENERGY: 1500000 1.2594 5.1548 3.9371 0.0000 -10521.1171 1343.5352 0.0000 0.0000 1749.0730 -7418.1575 301.5326 -9167.2305 -7395.4075 300.2120 -833.8358 -704.2222 29896.9907 -207.7406 -123.2920
TCL: Running FEP window  20: Lambda1 0.049999999999999684 Lambda2 0.0    [dLambda -0.049999999999999684]
TCL: Setting parameter firsttimestep to 0
TCL: Setting parameter alchLambda to 0.049999999999999684
Info: NONBONDED TABLE R-SQUARED SPACING: 0.0625
Info: NONBONDED TABLE SIZE: 705 POINTS
TCL: Setting parameter alchLambda2 to 0.0
Info: NONBONDED TABLE R-SQUARED SPACING: 0.0625
Info: NONBONDED TABLE SIZE: 705 POINTS
TCL: Running for 1500000 steps
ETITLE: TS BOND ANGLE DIHED IMPRP ELECT VDW BOUNDARY MISC KINETIC TOTAL TEMP POTENTIAL TOTALAVG TEMPAVG PRESSURE GPRESSURE VOLUME PRESSAVG GPRESSAVG
ENERGY: 0 1.2594 5.1548 3.9371 0.0000 -10521.1162 1342.2871 0.0000 0.0000 1748.2416 -7420.2362 301.3892 -9168.4778 -7420.2362 301.3892 -793.2286 -711.3224 29896.9907 -793.2286 -711.3224
ENERGY: 300000 3.4030 5.8155 6.6508 0.0000 -10374.4022 1291.8429 0.0000 0.0000 1707.7386 -7358.9514 294.4067 -9066.6900 -7405.9722 298.6969 -1190.5042 -1155.9171 30318.1956 -731.5876 -669.8781
ENERGY: 600000 3.5033 8.1502 4.9911 0.0000 -10617.2163 1484.0277 0.0000 0.0000 1805.1825 -7311.3614 311.2056 -9116.5439 -7387.8860 301.1869 511.4117 550.9574 29565.7928 -389.4490 -333.1396
ENERGY: 900000 0.8463 7.9878 3.9201 0.0000 -10652.7619 1417.0887 0.0000 0.0000 1760.4682 -7462.4507 303.4971 -9222.9189 -7388.3652 301.2985 -273.6060 -214.7077 29688.0416 -306.1031 -250.6646
ENERGY: 1200000 2.4641 6.9415 4.2621 0.0000 -10710.4157 1455.8480 0.0000 0.0000 1758.4575 -7482.4425 303.1504 -9240.9000 -7399.3752 300.7314 77.2506 77.8864 29792.9598 -237.1478 -185.2096
ENERGY: 1500000 1.1846 6.4099 4.4223 0.0000 -10487.0885 1391.6062 0.0000 0.0000 1697.8598 -7385.6057 292.7036 -9083.4655 -7395.2730 300.0754 -499.7236 -396.8452 30331.1078 -206.9604 -153.3129
TCL: Exiting due to exit command.
