Info: SIMULATION PARAMETERS:
Info: TIMESTEP               2
Info: NUMBER OF STEPS        0
Info: STEPS PER CYCLE        10
Info: PERIODIC CELL BASIS 1  31.0324 0 0
Info: PERIODIC CELL BASIS 2  0 30.3884 0
Info: PERIODIC CELL BASIS 3  0 0 32.1083
Info: PERIODIC CELL CENTER   0 0 0
Info: WRAPPING WATERS AROUND PERIODIC BOUNDARIES ON OUTPUT.
Info: WRAPPING ALL CLUSTERS AROUND PERIODIC BOUNDARIES ON OUTPUT.
Info: FIRST LDB TIMESTEP     50
Info: LAST LDB TIMESTEP     -1
Info: HOM BACKGROUND SCALING 1
Info: PME BACKGROUND SCALING 1
Info: MIN ATOMS PER PATCH    40
Info: EMPTY PATCH LOAD       40 ATOMS
Info: VELOCITY FILE          mobley_5310099_equil.vel
Info: CENTER OF MASS MOVING INITIALLY? NO
Info: DIELECTRIC             1
Info: EXCLUDE                SCALED ONE-FOUR
Info: 1-4 ELECTROSTATICS SCALED BY 0.833333
Info: MODIFIED 1-4 VDW PARAMETERS WILL BE USED
Info: DCD FILENAME           mobley_5310099_prod.dcd
Info: DCD FREQUENCY          100000
Info: DCD FIRST STEP         100000
Info: DCD FILE WILL CONTAIN UNIT CELL DATA
Info: XST FILENAME           mobley_5310099_prod.xst
Info: XST FREQUENCY          100000
Info: NO VELOCITY DCD OUTPUT
Info: NO FORCE DCD OUTPUT
Info: OUTPUT FILENAME        mobley_5310099_prod
Info: BINARY OUTPUT FILES WILL BE USED
Info: RESTART FILENAME       mobley_5310099_prod.restart
Info: RESTART FREQUENCY      100000
Info: BINARY RESTART FILES WILL BE USED
Info: CUTOFF                 9
Info: PAIRLIST DISTANCE      11
Info: PAIRLIST SHRINK RATE   0.01
Info: PAIRLIST GROW RATE     0.01
Info: PAIRLIST TRIGGER       0.3
Info: PAIRLISTS PER CYCLE    2
Info: PAIRLISTS ENABLED
Info: MARGIN                 2
Info: HYDROGEN GROUP CUTOFF  2.5
Info: PATCH DIMENSION        15.5
Info: ENERGY OUTPUT STEPS    100000
Info: ENERGY EVALUATION STEPS    100000
Info: OUTPUT ENERGY PRECISION 4
Info: CROSSTERM ENERGY INCLUDED IN DIHEDRAL
Info: TIMING OUTPUT STEPS    1000000
Info: PRESSURE OUTPUT STEPS  100000
Info: ALCHEMICAL FEP ON
Info: FEP CURRENT LAMBDA VALUE     0
Info: FEP COMPARISON LAMBDA VALUE  0.05
Info: FEP INTRA-ALCHEMICAL NON-BONDED INTERACTIONS WILL BE RETAINED
Info: FEP INTRA-ALCHEMICAL BONDED INTERACTIONS WILL BE RETAINED
Info: FEP VDW SHIFTING COEFFICIENT 5
Info: FEP ELEC. ACTIVE FOR ANNIHILATED PARTICLES BETWEEN LAMBDA = 0 AND LAMBDA = 0.5
Info: FEP ELEC. ACTIVE FOR EXNIHILATED PARTICLES BETWEEN LAMBDA = 0.5 AND LAMBDA = 1
Info: FEP VDW ACTIVE FOR ANNIHILATED PARTICLES BETWEEN LAMBDA = 0 AND LAMBDA = 1
Info: FEP VDW ACTIVE FOR EXNIHILATED PARTICLES BETWEEN LAMBDA = 0 AND LAMBDA = 1
Info: FEP BOND ACTIVE FOR ANNIHILATED PARTICLES BETWEEN LAMBDA = 1 AND LAMBDA = 1
Info: FEP BOND ACTIVE FOR EXNIHILATED PARTICLES BETWEEN LAMBDA = 0 AND LAMBDA = 0
Info: LANGEVIN DYNAMICS ACTIVE
Info: LANGEVIN TEMPERATURE   300
Info: LANGEVIN USING BBK INTEGRATOR
Info: LANGEVIN DAMPING COEFFICIENT IS 1 INVERSE PS
Info: LANGEVIN DYNAMICS APPLIED TO HYDROGENS
Info: LANGEVIN PISTON PRESSURE CONTROL ACTIVE
Info:        TARGET PRESSURE IS 1.01325 BAR
Info:     OSCILLATION PERIOD IS 50 FS
Info:             DECAY TIME IS 25 FS
Info:     PISTON TEMPERATURE IS 300 K
Info:       PRESSURE CONTROL IS GROUP-BASED
Info:    INITIAL STRAIN RATE IS -0.000374697 -0.000374697 -0.000374697
Info:       CELL FLUCTUATION IS ISOTROPIC
Info: PARTICLE MESH EWALD (PME) ACTIVE
Info: PME TOLERANCE               1e-06
Info: PME EWALD COEFFICIENT       0.348832
Info: PME INTERPOLATION ORDER     4
Info: PME GRID DIMENSIONS         32 32 36
Info: PME MAXIMUM GRID SPACING    1
Info: PME CALCULATION WILL BE PERFORMED ON GPU
Info: FULL ELECTROSTATIC EVALUATION FREQUENCY      2
Info: USING VERLET I (r-RESPA) MTS SCHEME.
Info: C1 SPLITTING OF LONG RANGE ELECTROSTATICS
Info: PLACING ATOMS IN PATCHES BY HYDROGEN GROUPS
Info: RIGID BONDS TO HYDROGEN : ALL
Info:         ERROR TOLERANCE : 1e-08
Info:          MAX ITERATIONS : 100
Info: RIGID WATER USING SETTLE ALGORITHM
Info: RANDOM NUMBER SEED     1743916368
Info: USE HYDROGEN BONDS?    NO
Info: Using AMBER format force field!
Info: AMBER PARM FILE        mobley_5310099.prmtop
Info: COORDINATE PDB         mobley_5310099.pdb
Info: Exclusions will be read from PARM file!
Info: SCNB (VDW SCALING)     2
Info: USING ARITHMETIC MEAN TO COMBINE L-J SIGMA PARAMETERS
Info: BINARY COORDINATES     mobley_5310099_equil.coor
Info: SUMMARY OF PARAMETERS:
Info: 7 BONDS
Info: 9 ANGLES
Info:   9 HARMONIC
Info:   0 COSINE-BASED
Info: 11 DIHEDRAL
Info: 0 IMPROPER
Info: 0 CROSSTERM
Info: 0 VDW
Info: 21 VDW_PAIRS
Info: 0 NBTHOLE_PAIRS
Info: To read alchdata from file: mobley_5310099.pdb
Info: To read alchflag data from column: 5
Info: STRUCTURE SUMMARY:
Info: 2922 ATOMS
Info: 2921 BONDS
Info: 30 ANGLES
Info: 45 DIHEDRALS
Info: 0 IMPROPERS
Info: 0 CROSSTERMS
Info: 2988 EXCLUSIONS
Info: 2916 RIGID BONDS
Info: ALCH: 0 ATOMS TO DISAPPEAR IN FINAL STATE
Info: ALCH: 18 ATOMS TO APPEAR IN FINAL STATE
Info: 5850 DEGREES OF FREEDOM
Info: 974 HYDROGEN GROUPS
Info: 4 ATOMS IN LARGEST HYDROGEN GROUP
Info: 974 MIGRATION GROUPS
Info: 4 ATOMS IN LARGEST MIGRATION GROUP
Info: TOTAL MASS = 17523.6 amu
Info: TOTAL CHARGE = -0.000100039 e
Info: MASS DENSITY = 0.961044 g/cm^3
Info: ATOM DENSITY = 0.0965028 atoms/A^3
Info: ADDED 0 IMPLICIT EXCLUSIONS
Info: NONBONDED TABLE R-SQUARED SPACING: 0.0625
Info: NONBONDED TABLE SIZE: 705 POINTS
Info: REMOVING COM VELOCITY -0.0587429 0.149918 0.0933323
Info: Use 3D box decompostion in PME FFT.
Info: Updated CUDA force table with 4096 elements.
Info: Updated CUDA LJ table with 6 x 6 elements.
Info: Found 21 unique exclusion lists needing 52 bytes
TCL: Running for 1500000 steps
ETITLE: TS BOND ANGLE DIHED IMPRP ELECT VDW BOUNDARY MISC KINETIC TOTAL TEMP POTENTIAL TOTALAVG TEMPAVG PRESSURE GPRESSURE VOLUME PRESSAVG GPRESSAVG
ENERGY: 0 2.2030 8.5350 2.4664 0.0000 -10499.9623 1426.9622 0.0000 0.0000 1706.6434 -7353.1524 293.6144 -9059.7958 -7353.1524 293.6144 -61.1243 21.5509 30278.9084 -61.1243 21.5509
ENERGY: 300000 0.6625 9.4155 3.8437 0.0000 -10636.0334 1488.2787 0.0000 0.0000 1719.4812 -7414.3519 295.8230 -9133.8330 -7373.8832 295.2100 496.9067 563.9314 29872.1234 351.4025 410.3009
ENERGY: 600000 2.0940 6.0826 4.8854 0.0000 -10526.7060 1365.4512 0.0000 0.0000 1744.0985 -7404.0944 300.0582 -9148.1929 -7373.2682 298.3917 -655.0140 -528.4946 30112.7333 -20.7340 43.0805
ENERGY: 900000 1.8938 11.9109 6.3785 0.0000 -10423.5050 1293.3892 0.0000 0.0000 1769.4243 -7340.5083 304.4153 -9109.9326 -7373.2440 299.8147 -780.2889 -809.5738 30043.8898 -218.2023 -166.2326
ENERGY: 1200000 1.1480 6.8901 5.0938 0.0000 -10611.0666 1477.0085 0.0000 0.0000 1744.2917 -7376.6344 300.0915 -9120.9261 -7369.4238 300.1560 733.7054 721.0292 29719.8593 -90.7797 -44.9329
ENERGY: 1500000 1.2339 7.3189 6.0750 0.0000 -10461.4132 1325.4152 0.0000 0.0000 1721.7637 -7399.6066 296.2157 -9121.3702 -7375.5813 299.6167 -1104.2856 -1053.0359 30391.4136 -110.6530 -68.3037
TCL: Running FEP window   2: Lambda1 0.05   Lambda2 0.1    [dLambda 0.05  ]
TCL: Setting parameter firsttimestep to 0
TCL: Setting parameter alchLambda to 0.05
Info: NONBONDED TABLE R-SQUARED SPACING: 0.0625
Info: NONBONDED TABLE SIZE: 705 POINTS
TCL: Setting parameter alchLambda2 to 0.1
Info: NONBONDED TABLE R-SQUARED SPACING: 0.0625
Info: NONBONDED TABLE SIZE: 705 POINTS
TCL: Running for 1500000 steps
ETITLE: TS BOND ANGLE DIHED IMPRP ELECT VDW BOUNDARY MISC KINETIC TOTAL TEMP POTENTIAL TOTALAVG TEMPAVG PRESSURE GPRESSURE VOLUME PRESSAVG GPRESSAVG
ENERGY: 0 1.2339 7.3189 6.0750 0.0000 -10461.4123 1328.4461 0.0000 0.0000 1720.9286 -7397.4099 296.0720 -9118.3384 -7397.4099 296.0720 -1135.6909 -1044.8505 30391.4136 -1135.6909 -1044.8505
ENERGY: 300000 1.4153 10.4702 4.8934 0.0000 -10502.0436 1445.8881 0.0000 0.0000 1755.3546 -7284.0221 301.9947 -9039.3767 -7360.2436 300.1206 -218.2585 -88.6608 30778.8838 3.1572 102.6716
ENERGY: 600000 2.1006 7.7428 6.0399 0.0000 -10503.1349 1349.0788 0.0000 0.0000 1745.3968 -7392.7760 300.2816 -9138.1728 -7374.9705 300.2856 -715.6718 -696.9612 30020.6518 -56.7970 31.9536
ENERGY: 900000 2.3555 5.4108 4.4336 0.0000 -10597.9559 1461.9168 0.0000 0.0000 1693.1602 -7430.6791 291.2947 -9123.8393 -7368.3338 298.6180 314.4709 393.3166 29835.9709 -48.8443 34.5939
ENERGY: 1200000 2.7861 13.5714 4.7010 0.0000 -10472.2534 1349.6737 0.0000 0.0000 1747.4762 -7354.0450 300.6393 -9101.5212 -7374.0075 298.5385 -579.8872 -592.4473 29990.4264 -132.0992 -57.3168
ENERGY: 1500000 4.0865 6.4209 2.7031 0.0000 -10539.1748 1393.1040 0.0000 0.0000 1730.0941 -7402.7661 297.6489 -9132.8602 -7381.4859 298.1053 -220.0966 -242.2379 29881.1754 -217.8508 -149.5159
TCL: Running FEP window   3: Lambda1 0.1    Lambda2 0.15000000000000002 [dLambda 0.05000000000000002]
TCL: Setting parameter firsttimestep to 0
TCL: Setting parameter alchLambda to 0.1
Info: NONBONDED TABLE R-SQUARED SPACING: 0.0625
Info: NONBONDED TABLE SIZE: 705 POINTS
TCL: Setting parameter alchLambda2 to 0.15000000000000002
Info: NONBONDED TABLE R-SQUARED SPACING: 0.0625
Info: NONBONDED TABLE SIZE: 705 POINTS
TCL: Running for 1500000 steps
ETITLE: TS BOND ANGLE DIHED IMPRP ELECT VDW BOUNDARY MISC KINETIC TOTAL TEMP POTENTIAL TOTALAVG TEMPAVG PRESSURE GPRESSURE VOLUME PRESSAVG GPRESSAVG
ENERGY: 0 4.0866 6.4209 2.7031 0.0000 -10539.1753 1395.1268 0.0000 0.0000 1729.1852 -7401.6528 297.4925 -9130.8379 -7401.6528 297.4925 -318.7789 -237.4125 29881.1754 -318.7789 -237.4125
ENERGY: 300000 2.6061 3.3123 4.1084 0.0000 -10497.9231 1422.2213 0.0000 0.0000 1742.4158 -7323.2592 299.7687 -9065.6750 -7369.3721 295.3347 141.6103 179.3517 30105.4166 -40.6206 6.6429
ENERGY: 600000 1.5966 11.4195 2.6379 0.0000 -10572.5054 1407.4375 0.0000 0.0000 1785.4513 -7363.9626 307.1726 -9149.4139 -7378.7068 300.4237 -488.5363 -456.6950 30500.9243 -35.7837 28.0193
ENERGY: 900000 1.7320 4.2579 4.8942 0.0000 -10569.0983 1426.5593 0.0000 0.0000 1772.1079 -7359.5471 304.8770 -9131.6549 -7375.6072 301.3476 42.8189 117.1796 30201.9021 -98.4489 -31.4309
ENERGY: 1200000 3.5679 8.2871 4.4877 0.0000 -10487.5077 1390.6369 0.0000 0.0000 1738.0919 -7342.4362 299.0248 -9080.5281 -7385.1070 299.9844 -435.2617 -410.4298 30401.9624 -106.0050 -42.6818
ENERGY: 1500000 1.1618 4.0187 6.5825 0.0000 -10535.9223 1352.9396 0.0000 0.0000 1808.7074 -7362.5123 311.1737 -9171.2197 -7390.5235 300.4920 -769.3691 -736.5270 29812.6538 -217.3688 -153.2554
TCL: Running FEP window   4: Lambda1 0.15000000000000002 Lambda2 0.2    [dLambda 0.04999999999999999]
TCL: Setting parameter firsttimestep to 0
TCL: Setting parameter alchLambda to 0.15000000000000002
Info: NONBONDED TABLE R-SQUARED SPACING: 0.0625
Info: NONBONDED TABLE SIZE: 705 POINTS
TCL: Setting parameter alchLambda2 to 0.2
Info: NONBONDED TABLE R-SQUARED SPACING: 0.0625
Info: NONBONDED TABLE SIZE: 705 POINTS
TCL: Running for 1500000 steps
ETITLE: TS BOND ANGLE DIHED IMPRP ELECT VDW BOUNDARY MISC KINETIC TOTAL TEMP POTENTIAL TOTALAVG TEMPAVG PRESSURE GPRESSURE VOLUME PRESSAVG GPRESSAVG
ENERGY: 0 1.1618 4.0187 6.5825 0.0000 -10535.9226 1353.0635 0.0000 0.0000 1807.8765 -7363.2197 311.0307 -9171.0961 -7363.2197 311.0307 -818.6319 -733.5923 29812.6538 -818.6319 -733.5923
ENERGY: 300000 1.1914 8.0290 5.4188 0.0000 -10608.2991 1445.1677 0.0000 0.0000 1777.2459 -7371.2463 305.7610 -9148.4922 -7386.8964 304.3106 20.9681 45.6862 29929.7509 -477.5272 -424.2446
ENERGY: 600000 1.5923 7.8184 4.7663 0.0000 -10531.4600 1419.5190 0.0000 0.0000 1754.8356 -7342.9284 301.9054 -9097.7640 -7388.7445 301.7420 254.3354 282.2002 29930.2647 -303.5785 -253.8808
ENERGY: 900000 1.5215 9.3662 5.6866 0.0000 -10607.7546 1484.4188 0.0000 0.0000 1728.5951 -7378.1665 297.3910 -9106.7615 -7368.2575 301.7331 825.1728 878.7691 29313.5631 -93.8152 -56.7163
ENERGY: 1200000 1.7344 12.4257 4.6011 0.0000 -10586.7775 1425.2948 0.0000 0.0000 1740.4830 -7402.2386 299.4362 -9142.7216 -7364.2466 301.4145 -317.7779 -208.9598 30221.9951 -179.2299 -130.3744
ENERGY: 1500000 1.7147 8.5363 5.0939 0.0000 -10518.6548 1391.0488 0.0000 0.0000 1760.5804 -7351.6806 302.8938 -9112.2610 -7363.2424 301.1781 -546.3517 -472.6133 30254.1258 -170.9603 -118.1742
TCL: Running FEP window   5: Lambda1 0.2    Lambda2 0.25   [dLambda 0.04999999999999999]
TCL: Setting parameter firsttimestep to 0
TCL: Setting parameter alchLambda to 0.2
Info: NONBONDED TABLE R-SQUARED SPACING: 0.0625
Info: NONBONDED TABLE SIZE: 705 POINTS
TCL: Setting parameter alchLambda2 to 0.25
Info: NONBONDED TABLE R-SQUARED SPACING: 0.0625
Info: NONBONDED TABLE SIZE: 705 POINTS
TCL: Running for 1500000 steps
ETITLE: TS BOND ANGLE DIHED IMPRP ELECT VDW BOUNDARY MISC KINETIC TOTAL TEMP POTENTIAL TOTALAVG TEMPAVG PRESSURE GPRESSURE VOLUME PRESSAVG GPRESSAVG
ENERGY: 0 1.7147 8.5363 5.0939 0.0000 -10518.6534 1391.1586 0.0000 0.0000 1759.7366 -7352.4132 302.7486 -9112.1498 -7352.4132 302.7486 -550.0236 -471.7316 30254.1258 -550.0236 -471.7316
ENERGY: 300000 2.8925 7.6731 4.3112 0.0000 -10581.1092 1416.5869 0.0000 0.0000 1721.5008 -7428.1446 296.1705 -9149.6455 -7415.0829 299.3137 -83.1621 -67.0499 29692.0081 -294.3226 -232.1091
ENERGY: 600000 2.2571 7.9498 5.0243 0.0000 -10478.7949 1457.8168 0.0000 0.0000 1712.5055 -7293.2414 294.6229 -9005.7469 -7396.2352 297.5441 517.8445 565.2039 30213.8666 -319.9206 -241.0062
ENERGY: 900000 1.2386 8.1556 4.0123 0.0000 -10503.8831 1357.0869 0.0000 0.0000 1657.0126 -7476.3771 285.0758 -9133.3897 -7402.9120 297.2774 -832.6931 -803.6781 30414.4341 -251.2755 -175.6221
ENERGY: 1200000 2.0294 8.0256 4.0567 0.0000 -10541.0222 1392.8327 0.0000 0.0000 1791.6780 -7342.3997 308.2439 -9134.0777 -7399.3041 298.6357 -168.6996 -86.7736 29859.1664 -197.1363 -121.2481
ENERGY: 1500000 2.7398 9.7314 4.8938 0.0000 -10633.1256 1450.9871 0.0000 0.0000 1718.6110 -7446.1625 295.6733 -9164.7735 -7403.3154 298.2955 -51.7762 -30.6488 30226.7947 -240.2995 -165.6673
TCL: Running FEP window   6: Lambda1 0.25   Lambda2 0.3    [dLambda 0.04999999999999999]
TCL: Setting parameter firsttimestep to 0
TCL: Setting parameter alchLambda to 0.25
Info: NONBONDED TABLE R-SQUARED SPACING: 0.0625
Info: NONBONDED TABLE SIZE: 705 POINTS
TCL: Setting parameter alchLambda2 to 0.3
Info: NONBONDED TABLE R-SQUARED SPACING: 0.0625
Info: NONBONDED TABLE SIZE: 705 POINTS
TCL: Running for 1500000 steps
ETITLE: TS BOND ANGLE DIHED IMPRP ELECT VDW BOUNDARY MISC KINETIC TOTAL TEMP POTENTIAL TOTALAVG TEMPAVG PRESSURE GPRESSURE VOLUME PRESSAVG GPRESSAVG
ENERGY: 0 2.7397 9.7314 4.8938 0.0000 -10633.1243 1450.7163 0.0000 0.0000 1717.7549 -7447.2881 295.5260 -9165.0430 -7447.2881 295.5260 -99.9891 -31.2598 30226.7947 -99.9891 -31.2598
ENERGY: 300000 1.7569 9.8021 5.5418 0.0000 -10694.0006 1488.5483 0.0000 0.0000 1704.5919 -7483.7596 293.2614 -9188.3515 -7412.9217 297.2624 655.2914 747.6271 29293.6116 536.3053 599.4888
ENERGY: 600000 1.7332 7.5844 4.5492 0.0000 -10666.5099 1462.6637 0.0000 0.0000 1768.8663 -7421.1132 304.3193 -9189.9795 -7393.0411 299.1714 186.1543 208.9088 29798.0551 243.1367 303.6494
ENERGY: 900000 0.6835 4.3071 2.6954 0.0000 -10489.7640 1312.7864 0.0000 0.0000 1811.6363 -7357.6552 311.6776 -9169.2915 -7400.6632 299.7278 -952.5121 -876.5371 30139.3965 63.6050 116.6542
ENERGY: 1200000 0.7056 10.2054 2.3693 0.0000 -10617.7099 1471.6224 0.0000 0.0000 1798.6801 -7334.1272 309.4486 -9132.8073 -7389.1366 300.9354 364.9692 450.5102 30086.6207 71.5918 126.7545
ENERGY: 1500000 0.5989 6.8514 4.7306 0.0000 -10701.2037 1462.2674 0.0000 0.0000 1759.9733 -7466.7821 302.7894 -9226.7554 -7393.4701 301.0371 78.7954 114.9945 29723.9028 59.6788 113.8040
TCL: Running FEP window   7: Lambda1 0.3    Lambda2 0.35   [dLambda 0.04999999999999999]
TCL: Setting parameter firsttimestep to 0
TCL: Setting parameter alchLambda to 0.3
Info: NONBONDED TABLE R-SQUARED SPACING: 0.0625
Info: NONBONDED TABLE SIZE: 705 POINTS
TCL: Setting parameter alchLambda2 to 0.35
Info: NONBONDED TABLE R-SQUARED SPACING: 0.0625
Info: NONBONDED TABLE SIZE: 705 POINTS
TCL: Running for 1500000 steps
ETITLE: TS BOND ANGLE DIHED IMPRP ELECT VDW BOUNDARY MISC KINETIC TOTAL TEMP POTENTIAL TOTALAVG TEMPAVG PRESSURE GPRESSURE VOLUME PRESSAVG GPRESSAVG
ENERGY: 0 0.5989 6.8514 4.7306 0.0000 -10701.2045 1464.1809 0.0000 0.0000 1759.0883 -7465.7544 302.6371 -9224.8427 -7465.7544 302.6371 61.5010 132.1703 29723.9028 61.5010 132.1703
ENERGY: 300000 0.3662 8.7987 8.4133 0.0000 -10669.0041 1488.5790 0.0000 0.0000 1698.0186 -7464.8283 292.1305 -9162.8469 -7380.9643 299.4363 739.1542 768.5248 29362.5458 -8.4917 45.9311
ENERGY: 600000 1.7284 7.9558 5.8282 0.0000 -10583.2687 1428.9500 0.0000 0.0000 1727.5445 -7411.2618 297.2102 -9138.8064 -7395.3450 299.8167 160.5458 177.1619 29671.8937 66.4552 117.6559
ENERGY: 900000 1.2015 8.1022 6.3208 0.0000 -10599.0488 1409.3650 0.0000 0.0000 1705.1335 -7468.9259 293.3546 -9174.0594 -7400.6373 299.0479 -646.1379 -605.4757 30394.6859 -76.2952 -24.1722
ENERGY: 1200000 1.7980 6.4701 3.1284 0.0000 -10588.1695 1424.1702 0.0000 0.0000 1680.7096 -7471.8932 289.1527 -9152.6028 -7407.6587 297.8553 47.9262 93.9640 29738.7494 -101.1271 -50.5549
ENERGY: 1500000 0.1252 5.2252 5.4751 0.0000 -10649.5114 1436.0192 0.0000 0.0000 1770.1868 -7432.4800 304.5465 -9202.6668 -7402.4614 298.4593 85.6361 80.1325 29880.9545 -124.4115 -72.2363
TCL: Running FEP window   8: Lambda1 0.35   Lambda2 0.39999999999999997 [dLambda 0.04999999999999999]
TCL: Setting parameter firsttimestep to 0
TCL: Setting parameter alchLambda to 0.35
Info: NONBONDED TABLE R-SQUARED SPACING: 0.0625
Info: NONBONDED TABLE SIZE: 705 POINTS
TCL: Setting parameter alchLambda2 to 0.39999999999999997
Info: NONBONDED TABLE R-SQUARED SPACING: 0.0625
Info: NONBONDED TABLE SIZE: 705 POINTS
TCL: Running for 1500000 steps
ETITLE: TS BOND ANGLE DIHED IMPRP ELECT VDW BOUNDARY MISC KINETIC TOTAL TEMP POTENTIAL TOTALAVG TEMPAVG PRESSURE GPRESSURE VOLUME PRESSAVG GPRESSAVG
ENERGY: 0 0.1252 5.2252 5.4751 0.0000 -10649.5114 1436.6643 0.0000 0.0000 1769.3137 -7432.7080 304.3963 -9202.0217 -7432.7080 304.3963 11.1300 89.8717 29880.9545 11.1300 89.8717
ENERGY: 300000 2.5678 9.6094 2.2246 0.0000 -10558.0077 1398.7388 0.0000 0.0000 1780.4677 -7364.3993 306.3153 -9144.8670 -7407.7399 300.6358 -311.1014 -248.9488 29854.7977 -8.2858 49.9488
ENERGY: 600000 1.6009 8.3958 4.8063 0.0000 -10557.6504 1441.5515 0.0000 0.0000 1754.2278 -7347.0682 301.8009 -9101.2960 -7405.0625 299.3552 155.6013 253.1859 30224.2238 30.1460 83.9735
ENERGY: 900000 1.7878 4.3654 7.3507 0.0000 -10604.6392 1446.7789 0.0000 0.0000 1791.1750 -7353.1813 308.1574 -9144.3563 -7397.6412 300.4930 85.6329 132.7992 30127.3676 -30.2963 34.1695
ENERGY: 1200000 0.9713 10.3732 7.2831 0.0000 -10613.1435 1531.4467 0.0000 0.0000 1816.6987 -7246.3706 312.5485 -9063.0693 -7392.1853 301.2573 1127.5411 1196.8786 30104.9067 -0.5629 70.3203
ENERGY: 1500000 0.7115 4.3339 5.0506 0.0000 -10558.6840 1447.7315 0.0000 0.0000 1755.1233 -7345.7331 301.9550 -9100.8564 -7389.3396 300.7798 -132.8120 39.3869 30342.2580 -73.1079 -1.8224
TCL: Running FEP window   9: Lambda1 0.39999999999999997 Lambda2 0.44999999999999996 [dLambda 0.04999999999999999]
TCL: Setting parameter firsttimestep to 0
TCL: Setting parameter alchLambda to 0.39999999999999997
Info: NONBONDED TABLE R-SQUARED SPACING: 0.0625
Info: NONBONDED TABLE SIZE: 705 POINTS
TCL: Setting parameter alchLambda2 to 0.44999999999999996
Info: NONBONDED TABLE R-SQUARED SPACING: 0.0625
Info: NONBONDED TABLE SIZE: 705 POINTS
TCL: Running for 1500000 steps
ETITLE: TS BOND ANGLE DIHED IMPRP ELECT VDW BOUNDARY MISC KINETIC TOTAL TEMP POTENTIAL TOTALAVG TEMPAVG PRESSURE GPRESSURE VOLUME PRESSAVG GPRESSAVG
ENERGY: 0 0.7115 4.3339 5.0506 0.0000 -10558.6850 1447.6076 0.0000 0.0000 1754.2344 -7346.7469 301.8020 -9100.9814 -7346.7469 301.8020 -37.7334 41.9098 30342.2580 -37.7334 41.9098
ENERGY: 300000 1.7606 7.5979 5.6052 0.0000 -10633.3071 1439.5123 0.0000 0.0000 1750.4176 -7428.4135 301.1454 -9178.8311 -7380.6934 304.3685 57.4173 89.6765 29718.2962 -332.8086 -269.8257
ENERGY: 600000 2.0935 6.5957 4.6604 0.0000 -10459.6048 1398.5769 0.0000 0.0000 1741.5386 -7306.1396 299.6178 -9047.6782 -7390.0765 301.7767 -7.7245 140.3861 29841.0096 -119.7000 -57.5514
ENERGY: 900000 1.9788 7.9100 3.1045 0.0000 -10544.3425 1378.1002 0.0000 0.0000 1739.9891 -7413.2599 299.3512 -9153.2490 -7386.8309 301.2745 -484.1999 -516.9224 30208.2022 -290.7519 -226.5564
ENERGY: 1200000 0.7365 7.0351 4.8923 0.0000 -10633.3431 1408.7094 0.0000 0.0000 1771.6817 -7440.2881 304.8037 -9211.9698 -7381.2401 302.1344 -135.6900 -107.4544 29839.1124 -342.9532 -285.2340
ENERGY: 1500000 2.2022 7.7706 8.1155 0.0000 -10590.6835 1425.5519 0.0000 0.0000 1743.5486 -7403.4947 299.9636 -9147.0433 -7380.2888 301.7266 -75.6300 -22.5953 30012.1458 -271.3366 -216.2961
TCL: Running FEP window  10: Lambda1 0.44999999999999996 Lambda2 0.49999999999999994 [dLambda 0.04999999999999999]
TCL: Setting parameter firsttimestep to 0
TCL: Setting parameter alchLambda to 0.44999999999999996
Info: NONBONDED TABLE R-SQUARED SPACING: 0.0625
Info: NONBONDED TABLE SIZE: 705 POINTS
TCL: Setting parameter alchLambda2 to 0.49999999999999994
Info: NONBONDED TABLE R-SQUARED SPACING: 0.0625
Info: NONBONDED TABLE SIZE: 705 POINTS
TCL: Running for 1500000 steps
ETITLE: TS BOND ANGLE DIHED IMPRP ELECT VDW BOUNDARY MISC KINETIC TOTAL TEMP POTENTIAL TOTALAVG TEMPAVG PRESSURE GPRESSURE VOLUME PRESSAVG GPRESSAVG
ENERGY: 0 2.2022 7.7706 8.1155 0.0000 -10590.6841 1426.0069 0.0000 0.0000 1742.6850 -7403.9038 299.8150 -9146.5888 -7403.9038 299.8150 -83.9907 -13.6538 30012.1458 -83.9907 -13.6538
ENERGY: 300000 1.0892 6.7418 3.7518 0.0000 -10489.4680 1415.1956 0.0000 0.0000 1805.1571 -7257.5326 310.5629 -9062.6897 -7386.1006 302.0049 118.5983 118.4526 30400.7118 -28.7691 -1.5220
ENERGY: 600000 1.2092 7.3153 4.8144 0.0000 -10580.1824 1469.9607 0.0000 0.0000 1765.8619 -7331.0209 303.8024 -9096.8828 -7361.0882 303.9615 471.8635 573.9513 29994.7976 74.3196 107.6880
ENERGY: 900000 0.4388 8.5237 5.8606 0.0000 -10716.9518 1514.3845 0.0000 0.0000 1772.5002 -7415.2441 304.9445 -9187.7443 -7358.0359 303.3703 516.6516 572.5519 30089.2479 198.8428 228.3907
ENERGY: 1200000 1.4128 6.6274 4.7079 0.0000 -10701.4341 1472.5324 0.0000 0.0000 1738.2665 -7477.8870 299.0549 -9216.1535 -7369.9397 302.4161 169.4323 271.2618 30039.5101 148.0855 187.9450
ENERGY: 1500000 2.9112 7.2534 5.8304 0.0000 -10575.6873 1389.0415 0.0000 0.0000 1725.8294 -7444.8214 296.9152 -9170.6508 -7374.6545 301.7946 -440.7025 -346.1843 29851.7485 46.5373 95.2138
TCL: Running FEP window  11: Lambda1 0.49999999999999994 Lambda2 0.5499999999999999 [dLambda 0.04999999999999999]
TCL: Setting parameter firsttimestep to 0
TCL: Setting parameter alchLambda to 0.49999999999999994
Info: NONBONDED TABLE R-SQUARED SPACING: 0.0625
Info: NONBONDED TABLE SIZE: 705 POINTS
TCL: Setting parameter alchLambda2 to 0.5499999999999999
Info: NONBONDED TABLE R-SQUARED SPACING: 0.0625
Info: NONBONDED TABLE SIZE: 705 POINTS
TCL: Running for 1500000 steps
ETITLE: TS BOND ANGLE DIHED IMPRP ELECT VDW BOUNDARY MISC KINETIC TOTAL TEMP POTENTIAL TOTALAVG TEMPAVG PRESSURE GPRESSURE VOLUME PRESSAVG GPRESSAVG
ENERGY: 0 2.9112 7.2534 5.8304 0.0000 -10575.6875 1389.0054 0.0000 0.0000 1724.9751 -7445.7120 296.7682 -9170.6871 -7445.7120 296.7682 -426.4689 -341.3849 29851.7485 -426.4689 -341.3849
ENERGY: 300000 1.4527 8.8083 7.4074 0.0000 -10530.3836 1406.0865 0.0000 0.0000 1754.1004 -7352.5283 301.7790 -9106.6287 -7404.2865 299.8457 -7.4084 72.9283 29838.6322 -148.1993 -78.9833
ENERGY: 600000 1.5674 10.1637 4.3300 0.0000 -10558.3245 1393.4945 0.0000 0.0000 1729.6496 -7419.1192 297.5724 -9148.7688 -7405.0022 299.3854 -297.3022 -260.3894 30211.0745 -228.8379 -173.5384
ENERGY: 900000 0.4531 5.3386 6.4483 0.0000 -10623.0016 1493.7297 0.0000 0.0000 1715.5813 -7401.4505 295.1521 -9117.0318 -7411.0420 298.9315 577.0276 606.6288 30114.9530 -144.1728 -85.4426
ENERGY: 1200000 1.5777 7.8256 4.9369 0.0000 -10517.6170 1384.5240 0.0000 0.0000 1774.8059 -7343.9469 305.3412 -9118.7528 -7403.9314 299.6289 -534.6264 -462.5835 30234.9943 -131.0186 -71.6886
ENERGY: 1500000 2.1907 5.7747 3.9370 0.0000 -10603.1295 1474.3868 0.0000 0.0000 1727.7797 -7389.0604 297.2507 -9116.8401 -7397.1792 299.4953 846.8456 870.3014 29601.3770 -85.8173 -30.5459
TCL: Running FEP window  12: Lambda1 0.5499999999999999 Lambda2 0.6    [dLambda 0.050000000000000044]
TCL: Setting parameter firsttimestep to 0
TCL: Setting parameter alchLambda to 0.5499999999999999
Info: NONBONDED TABLE R-SQUARED SPACING: 0.0625
Info: NONBONDED TABLE SIZE: 705 POINTS
TCL: Setting parameter alchLambda2 to 0.6
Info: NONBONDED TABLE R-SQUARED SPACING: 0.0625
Info: NONBONDED TABLE SIZE: 705 POINTS
TCL: Running for 1500000 steps
ETITLE: TS BOND ANGLE DIHED IMPRP ELECT VDW BOUNDARY MISC KINETIC TOTAL TEMP POTENTIAL TOTALAVG TEMPAVG PRESSURE GPRESSURE VOLUME PRESSAVG GPRESSAVG
ENERGY: 0 2.1907 5.7747 3.9370 0.0000 -10603.1056 1474.5351 0.0000 0.0000 1726.8843 -7389.7837 297.0966 -9116.6679 -7389.7837 297.0966 782.1503 879.2544 29601.3770 782.1503 879.2544
ENERGY: 300000 1.2442 11.4941 4.4635 0.0000 -10527.8166 1409.7392 0.0000 0.0000 1730.0207 -7370.8548 297.6363 -9100.8756 -7365.5571 298.4820 -43.3938 -7.6928 30323.1355 189.4766 237.0456
ENERGY: 600000 2.5861 9.4808 4.9823 0.0000 -10564.9974 1447.9669 0.0000 0.0000 1783.9214 -7316.0598 306.9094 -9099.9812 -7362.6499 299.5183 107.5015 222.8528 30188.9503 12.8422 93.9563
ENERGY: 900000 1.7255 12.7018 6.4455 0.0000 -10648.1331 1521.1296 0.0000 0.0000 1732.2170 -7373.9138 298.0141 -9106.1307 -7370.1765 297.7207 556.1263 647.1497 30342.1598 162.6751 239.3392
ENERGY: 1200000 1.6498 3.9824 4.4321 0.0000 -10441.6885 1349.4729 0.0000 0.0000 1703.8685 -7378.2829 293.1370 -9082.1514 -7388.3208 296.0480 -746.0327 -719.8619 30583.3105 15.1984 83.6272
ENERGY: 1500000 0.8026 3.9433 5.5074 0.0000 -10628.1959 1473.7297 0.0000 0.0000 1733.4072 -7410.8057 298.2189 -9144.2129 -7392.9298 296.7352 148.8536 193.0425 30371.5050 6.7989 71.6561
TCL: Running FEP window  13: Lambda1 0.6    Lambda2 0.65   [dLambda 0.050000000000000044]
TCL: Setting parameter firsttimestep to 0
TCL: Setting parameter alchLambda to 0.6
Info: NONBONDED TABLE R-SQUARED SPACING: 0.0625
Info: NONBONDED TABLE SIZE: 705 POINTS
TCL: Setting parameter alchLambda2 to 0.65
Info: NONBONDED TABLE R-SQUARED SPACING: 0.0625
Info: NONBONDED TABLE SIZE: 705 POINTS
TCL: Running for 1500000 steps
ETITLE: TS BOND ANGLE DIHED IMPRP ELECT VDW BOUNDARY MISC KINETIC TOTAL TEMP POTENTIAL TOTALAVG TEMPAVG PRESSURE GPRESSURE VOLUME PRESSAVG GPRESSAVG
ENERGY: 0 0.8026 3.9433 5.5074 0.0000 -10628.1681 1474.0371 0.0000 0.0000 1732.5705 -7411.3072 298.0749 -9143.8777 -7411.3072 298.0749 104.2174 203.2157 30371.5050 104.2174 203.2157
ENERGY: 300000 2.7484 7.6769 5.6324 0.0000 -10657.8609 1501.6180 0.0000 0.0000 1673.0411 -7467.1442 287.8334 -9140.1852 -7384.3645 294.3179 415.6892 493.5136 30188.3166 198.2367 254.5647
ENERGY: 600000 1.1491 7.7592 3.9194 0.0000 -10407.3123 1306.9137 0.0000 0.0000 1810.5079 -7277.0630 311.4834 -9087.5709 -7365.1678 299.7674 -850.2154 -821.3218 30496.2192 -72.1429 -9.9851
ENERGY: 900000 1.4409 6.1250 4.8346 0.0000 -10416.2068 1281.5579 0.0000 0.0000 1793.1368 -7329.1117 308.4949 -9122.2484 -7374.2692 300.0144 -892.8166 -789.6053 29849.9247 -79.2963 -16.5605
ENERGY: 1200000 1.0769 5.8331 6.1508 0.0000 -10439.5363 1354.3370 0.0000 0.0000 1727.5676 -7344.5708 297.2142 -9072.1384 -7384.2375 299.8186 -377.0161 -325.4810 29945.0756 -125.5404 -64.6006
ENERGY: 1500000 0.9102 7.7214 2.0956 0.0000 -10516.6105 1356.1875 0.0000 0.0000 1720.9162 -7428.7797 296.0699 -9149.6959 -7388.9282 299.6733 -621.5857 -509.6716 30047.4005 -86.6117 -26.8767
TCL: Running FEP window  14: Lambda1 0.65   Lambda2 0.7000000000000001 [dLambda 0.050000000000000044]
TCL: Setting parameter firsttimestep to 0
TCL: Setting parameter alchLambda to 0.65
Info: NONBONDED TABLE R-SQUARED SPACING: 0.0625
Info: NONBONDED TABLE SIZE: 705 POINTS
TCL: Setting parameter alchLambda2 to 0.7000000000000001
Info: NONBONDED TABLE R-SQUARED SPACING: 0.0625
Info: NONBONDED TABLE SIZE: 705 POINTS
TCL: Running for 1500000 steps
ETITLE: TS BOND ANGLE DIHED IMPRP ELECT VDW BOUNDARY MISC KINETIC TOTAL TEMP POTENTIAL TOTALAVG TEMPAVG PRESSURE GPRESSURE VOLUME PRESSAVG GPRESSAVG
ENERGY: 0 0.9102 7.7214 2.0956 0.0000 -10516.6486 1355.9212 0.0000 0.0000 1720.0246 -7429.9757 295.9165 -9150.0003 -7429.9757 295.9165 -597.0330 -505.5528 30047.4005 -597.0330 -505.5528
ENERGY: 300000 1.2945 10.1627 4.1540 0.0000 -10638.6051 1437.7119 0.0000 0.0000 1773.5268 -7411.7553 305.1211 -9185.2821 -7382.9079 303.6103 104.8070 189.8474 29754.3084 -145.8457 -82.3744
ENERGY: 600000 1.6105 5.4041 6.5485 0.0000 -10583.5427 1419.6120 0.0000 0.0000 1772.6200 -7377.7476 304.9651 -9150.3676 -7403.5095 301.3823 -179.6288 -77.5418 30023.0612 -82.5239 -23.6052
ENERGY: 900000 2.4219 8.8290 4.5882 0.0000 -10526.4364 1403.5768 0.0000 0.0000 1760.4993 -7346.5211 302.8799 -9107.0205 -7394.7667 302.4075 -164.9017 -108.7171 30130.3696 -50.8082 0.6709
ENERGY: 1200000 2.2688 9.1075 3.2810 0.0000 -10563.9418 1448.9355 0.0000 0.0000 1729.0578 -7371.2913 297.4706 -9100.3490 -7391.4152 302.1481 455.2898 546.5428 29890.7080 -3.8247 53.5574
ENERGY: 1500000 0.6100 8.8696 5.1662 0.0000 -10764.2960 1543.9910 0.0000 0.0000 1740.2319 -7465.4272 299.3930 -9205.6591 -7394.2084 302.1558 726.0052 776.8320 29927.3465 40.9162 97.3104
TCL: Running FEP window  15: Lambda1 0.7000000000000001 Lambda2 0.7500000000000001 [dLambda 0.050000000000000044]
TCL: Setting parameter firsttimestep to 0
TCL: Setting parameter alchLambda to 0.7000000000000001
Info: NONBONDED TABLE R-SQUARED SPACING: 0.0625
Info: NONBONDED TABLE SIZE: 705 POINTS
TCL: Setting parameter alchLambda2 to 0.7500000000000001
Info: NONBONDED TABLE R-SQUARED SPACING: 0.0625
Info: NONBONDED TABLE SIZE: 705 POINTS
TCL: Running for 1500000 steps
ETITLE: TS BOND ANGLE DIHED IMPRP ELECT VDW BOUNDARY MISC KINETIC TOTAL TEMP POTENTIAL TOTALAVG TEMPAVG PRESSURE GPRESSURE VOLUME PRESSAVG GPRESSAVG
ENERGY: 0 0.6100 8.8696 5.1662 0.0000 -10764.4985 1543.8967 0.0000 0.0000 1739.3596 -7466.5964 299.2429 -9205.9560 -7466.5964 299.2429 691.0741 783.9073 29927.3465 691.0741 783.9073
ENERGY: 300000 0.9915 10.3747 5.4405 0.0000 -10460.3361 1349.1169 0.0000 0.0000 1757.6558 -7336.7567 302.3906 -9094.4125 -7406.5570 301.7207 -637.4147 -510.3235 30434.9958 -174.7141 -71.5634
ENERGY: 600000 3.2222 10.2201 3.9332 0.0000 -10597.9149 1423.7237 0.0000 0.0000 1756.1059 -7400.7100 302.1240 -9156.8158 -7426.2538 298.7526 26.7713 82.2761 29910.5901 -179.6784 -92.8888
ENERGY: 900000 1.4300 8.1829 5.8790 0.0000 -10492.6012 1358.1891 0.0000 0.0000 1754.9640 -7363.9561 301.9275 -9118.9201 -7419.0351 298.7883 -330.4371 -285.3264 30012.9921 -81.3229 -9.8233
ENERGY: 1200000 1.8595 5.5403 3.9989 0.0000 -10625.0240 1404.9775 0.0000 0.0000 1762.3562 -7446.2915 303.1993 -9208.6477 -7403.3237 301.1923 -499.4345 -468.1962 30415.9255 -91.0084 -30.5490
ENERGY: 1500000 0.8827 9.1261 4.5164 0.0000 -10617.4407 1470.2317 0.0000 0.0000 1770.1660 -7362.5179 304.5429 -9132.6838 -7395.5884 301.5964 295.6095 348.7998 30005.5397 -21.4668 42.0287
TCL: Running FEP window  16: Lambda1 0.7500000000000001 Lambda2 0.8000000000000002 [dLambda 0.050000000000000044]
TCL: Setting parameter firsttimestep to 0
TCL: Setting parameter alchLambda to 0.7500000000000001
Info: NONBONDED TABLE R-SQUARED SPACING: 0.0625
Info: NONBONDED TABLE SIZE: 705 POINTS
TCL: Setting parameter alchLambda2 to 0.8000000000000002
Info: NONBONDED TABLE R-SQUARED SPACING: 0.0625
Info: NONBONDED TABLE SIZE: 705 POINTS
TCL: Running for 1500000 steps
ETITLE: TS BOND ANGLE DIHED IMPRP ELECT VDW BOUNDARY MISC KINETIC TOTAL TEMP POTENTIAL TOTALAVG TEMPAVG PRESSURE GPRESSURE VOLUME PRESSAVG GPRESSAVG
ENERGY: 0 0.8827 9.1261 4.5164 0.0000 -10618.0075 1470.7399 0.0000 0.0000 1769.2955 -7363.4468 304.3932 -9132.7423 -7363.4468 304.3932 282.1363 362.7521 30005.5397 282.1363 362.7521
ENERGY: 300000 0.7933 6.2284 5.7010 0.0000 -10613.4846 1465.1627 0.0000 0.0000 1746.8220 -7388.7773 300.5268 -9135.5993 -7412.0626 300.6411 472.2045 465.5836 30031.8030 397.1816 453.7950
ENERGY: 600000 2.0288 4.1482 4.3624 0.0000 -10563.2378 1415.3814 0.0000 0.0000 1728.9575 -7408.3596 297.4533 -9137.3171 -7409.8495 299.6904 16.5878 -23.9277 30062.2068 69.3183 109.5068
ENERGY: 900000 1.0222 11.7563 6.9080 0.0000 -10531.3268 1377.6375 0.0000 0.0000 1713.2106 -7420.7922 294.7442 -9134.0028 -7390.4084 299.2060 -483.4831 -428.0179 30163.7600 -92.0746 -48.3672
ENERGY: 1200000 0.2924 8.1860 4.3557 0.0000 -10526.1024 1409.7070 0.0000 0.0000 1724.8186 -7378.7427 296.7413 -9103.5612 -7384.0817 299.5209 -55.3091 41.6323 30193.3100 -30.8948 18.8661
ENERGY: 1500000 2.0806 8.2216 3.1173 0.0000 -10449.2132 1310.3755 0.0000 0.0000 1762.0021 -7363.4161 303.1384 -9125.4182 -7383.7947 299.5927 -1078.5327 -1006.1997 30717.7197 -142.3665 -88.3053
TCL: Running FEP window  17: Lambda1 0.8000000000000002 Lambda2 0.8500000000000002 [dLambda 0.050000000000000044]
TCL: Setting parameter firsttimestep to 0
TCL: Setting parameter alchLambda to 0.8000000000000002
Info: NONBONDED TABLE R-SQUARED SPACING: 0.0625
Info: NONBONDED TABLE SIZE: 705 POINTS
TCL: Setting parameter alchLambda2 to 0.8500000000000002
Info: NONBONDED TABLE R-SQUARED SPACING: 0.0625
Info: NONBONDED TABLE SIZE: 705 POINTS
TCL: Running for 1500000 steps
ETITLE: TS BOND ANGLE DIHED IMPRP ELECT VDW BOUNDARY MISC KINETIC TOTAL TEMP POTENTIAL TOTALAVG TEMPAVG PRESSURE GPRESSURE VOLUME PRESSAVG GPRESSAVG
ENERGY: 0 2.0806 8.2216 3.1173 0.0000 -10449.2850 1311.7964 0.0000 0.0000 1761.1585 -7362.9107 302.9933 -9124.0692 -7362.9107 302.9933 -1057.2869 -977.2270 30717.7197 -1057.2869 -977.2270
ENERGY: 300000 2.6008 6.3105 4.3509 0.0000 -10632.5987 1481.4494 0.0000 0.0000 1759.9461 -7377.9409 302.7847 -9137.8870 -7407.4006 302.0303 630.9528 743.9318 29845.2760 -237.7766 -165.4836
ENERGY: 600000 3.2919 6.1732 2.5252 0.0000 -10665.0964 1433.1361 0.0000 0.0000 1794.3665 -7425.6036 308.7064 -9219.9700 -7413.1399 302.2762 43.6037 137.1607 29588.5422 -200.4552 -113.8384
ENERGY: 900000 2.5835 6.0650 5.1597 0.0000 -10611.0212 1405.5294 0.0000 0.0000 1803.0371 -7388.6465 310.1981 -9191.6836 -7400.6373 303.3559 -292.2004 -214.0993 30214.8144 -13.1463 81.8953
ENERGY: 1200000 1.2435 5.9823 5.6948 0.0000 -10628.4955 1458.6728 0.0000 0.0000 1681.0891 -7475.8130 289.2180 -9156.9021 -7394.0983 302.3255 60.8981 132.6677 30462.8937 -24.4719 68.6880
ENERGY: 1500000 0.6894 7.2498 3.5506 0.0000 -10617.9156 1476.9103 0.0000 0.0000 1711.2039 -7418.3115 294.3990 -9129.5154 -7399.3498 301.0482 545.8001 603.1711 29802.6319 36.0852 124.7733
TCL: Running FEP window  18: Lambda1 0.8500000000000002 Lambda2 0.9000000000000002 [dLambda 0.050000000000000044]
TCL: Setting parameter firsttimestep to 0
TCL: Setting parameter alchLambda to 0.8500000000000002
Info: NONBONDED TABLE R-SQUARED SPACING: 0.0625
Info: NONBONDED TABLE SIZE: 705 POINTS
TCL: Setting parameter alchLambda2 to 0.9000000000000002
Info: NONBONDED TABLE R-SQUARED SPACING: 0.0625
Info: NONBONDED TABLE SIZE: 705 POINTS
TCL: Running for 1500000 steps
ETITLE: TS BOND ANGLE DIHED IMPRP ELECT VDW BOUNDARY MISC KINETIC TOTAL TEMP POTENTIAL TOTALAVG TEMPAVG PRESSURE GPRESSURE VOLUME PRESSAVG GPRESSAVG
ENERGY: 0 0.6894 7.2498 3.5506 0.0000 -10617.9618 1477.5351 0.0000 0.0000 1710.3223 -7418.6146 294.2473 -9128.9368 -7418.6146 294.2473 537.8275 615.0438 29802.6319 537.8275 615.0438
ENERGY: 300000 0.6863 11.8244 6.0880 0.0000 -10544.4073 1390.3152 0.0000 0.0000 1777.8632 -7357.6303 305.8672 -9135.4935 -7398.9323 299.4191 -35.3752 -1.0449 29952.8736 115.7244 174.4119
ENERGY: 600000 0.8258 6.8742 4.8199 0.0000 -10706.5676 1500.5352 0.0000 0.0000 1760.4178 -7433.0947 302.8658 -9193.5125 -7411.3754 301.3985 335.3199 417.3670 30251.0617 33.8120 91.6014
ENERGY: 900000 1.4318 10.8242 5.7184 0.0000 -10500.0669 1361.5330 0.0000 0.0000 1763.1625 -7357.3970 303.3380 -9120.5595 -7409.2637 300.2617 -669.5211 -549.1116 30531.2446 -64.2652 5.4262
ENERGY: 1200000 1.7995 5.7270 4.6282 0.0000 -10676.4458 1476.5197 0.0000 0.0000 1822.0132 -7365.7583 313.4628 -9187.7714 -7399.0587 301.3842 599.2097 646.8167 29531.4242 44.7105 115.5199
ENERGY: 1500000 1.1730 7.5774 6.3556 0.0000 -10441.2322 1339.1296 0.0000 0.0000 1755.2228 -7331.7740 301.9721 -9086.9968 -7391.9215 300.8584 -402.8816 -367.7352 29876.1289 6.7941 70.2127
TCL: Running FEP window  19: Lambda1 0.9000000000000002 Lambda2 0.9500000000000003 [dLambda 0.050000000000000044]
TCL: Setting parameter firsttimestep to 0
TCL: Setting parameter alchLambda to 0.9000000000000002
Info: NONBONDED TABLE R-SQUARED SPACING: 0.0625
Info: NONBONDED TABLE SIZE: 705 POINTS
TCL: Setting parameter alchLambda2 to 0.9500000000000003
Info: NONBONDED TABLE R-SQUARED SPACING: 0.0625
Info: NONBONDED TABLE SIZE: 705 POINTS
TCL: Running for 1500000 steps
ETITLE: TS BOND ANGLE DIHED IMPRP ELECT VDW BOUNDARY MISC KINETIC TOTAL TEMP POTENTIAL TOTALAVG TEMPAVG PRESSURE GPRESSURE VOLUME PRESSAVG GPRESSAVG
ENERGY: 0 1.1730 7.5774 6.3556 0.0000 -10441.2940 1339.4638 0.0000 0.0000 1754.3810 -7332.3434 301.8272 -9086.7244 -7332.3434 301.8272 -439.5239 -353.9014 29876.1289 -439.5239 -353.9014
ENERGY: 300000 1.0527 6.3191 3.2248 0.0000 -10488.0665 1420.9495 0.0000 0.0000 1774.2112 -7282.3091 305.2389 -9056.5203 -7344.6437 301.7177 99.3330 169.0862 30270.2263 -84.2538 -9.5685
ENERGY: 600000 2.4981 11.2786 5.2875 0.0000 -10605.5980 1489.7519 0.0000 0.0000 1781.5827 -7315.1991 306.5071 -9096.7819 -7363.4151 300.9973 769.7359 834.1697 29816.0542 135.6568 211.0835
ENERGY: 900000 1.3277 8.4104 4.9070 0.0000 -10587.8624 1446.1673 0.0000 0.0000 1716.1165 -7410.9335 295.2441 -9127.0500 -7381.2081 300.7497 -54.7402 11.2507 30364.4807 53.2704 122.4761
ENERGY: 1200000 2.8813 7.4059 5.0421 0.0000 -10526.9369 1391.9324 0.0000 0.0000 1762.1510 -7357.5243 303.1640 -9119.6753 -7388.9433 300.9497 -86.6014 -5.7562 29693.2761 56.9410 119.1045
ENERGY: 1500000 0.5203 8.7936 4.7144 0.0000 -10456.0001 1384.2576 0.0000 0.0000 1770.7635 -7286.9507 304.6457 -9057.7143 -7384.1596 300.7916 -149.6801 -59.9334 30497.2248 -13.0429 45.8720
TCL: Running FEP window  20: Lambda1 0.9500000000000003 Lambda2 1.0    [dLambda 0.04999999999999971]
TCL: Setting parameter firsttimestep to 0
TCL: Setting parameter alchLambda to 0.9500000000000003
Info: NONBONDED TABLE R-SQUARED SPACING: 0.0625
Info: NONBONDED TABLE SIZE: 705 POINTS
TCL: Setting parameter alchLambda2 to 1.0
Info: NONBONDED TABLE R-SQUARED SPACING: 0.0625
Info: NONBONDED TABLE SIZE: 705 POINTS
TCL: Running for 1500000 steps
ETITLE: TS BOND ANGLE DIHED IMPRP ELECT VDW BOUNDARY MISC KINETIC TOTAL TEMP POTENTIAL TOTALAVG TEMPAVG PRESSURE GPRESSURE VOLUME PRESSAVG GPRESSAVG
ENERGY: 0 0.5203 8.7936 4.7144 0.0000 -10456.0607 1384.1139 0.0000 0.0000 1769.8950 -7288.0236 304.4963 -9057.9185 -7288.0236 304.4963 -132.7201 -50.9050 30497.2248 -132.7201 -50.9050
ENERGY: 300000 1.1442 6.7448 7.2561 0.0000 -10677.7572 1504.4570 0.0000 0.0000 1714.1013 -7444.0538 294.8974 -9158.1552 -7420.1685 300.9261 461.6473 477.9249 30359.2160 -350.1709 -311.8825
ENERGY: 600000 0.6936 7.4472 4.9274 0.0000 -10672.2036 1450.5062 0.0000 0.0000 1780.4591 -7428.1701 306.3138 -9208.6292 -7397.5705 302.4152 228.9914 336.9456 29871.6470 -175.8311 -120.8458
ENERGY: 900000 1.9460 11.8773 4.3859 0.0000 -10510.9345 1429.2063 0.0000 0.0000 1732.6750 -7330.8440 298.0929 -9063.5190 -7385.1087 300.2079 32.5197 180.6576 30201.5946 -255.1011 -181.1577
ENERGY: 1200000 1.5526 10.9955 3.2174 0.0000 -10630.5580 1502.6469 0.0000 0.0000 1698.8238 -7413.3218 292.2691 -9112.1456 -7386.4400 299.3030 597.6880 633.1562 30199.2407 -200.4317 -132.6000
ENERGY: 1500000 0.9258 9.2272 4.1596 0.0000 -10605.6457 1367.1763 0.0000 0.0000 1724.7861 -7499.3708 296.7357 -9224.1569 -7399.2298 299.2976 -750.9601 -741.7384 30145.5945 -301.6837 -237.2921
TCL: Exiting due to exit command.
