Info: SIMULATION PARAMETERS:
Info: TIMESTEP               2
Info: NUMBER OF STEPS        0
Info: STEPS PER CYCLE        10
Info: PERIODIC CELL BASIS 1  31.7072 0 0
Info: PERIODIC CELL BASIS 2  0 29.9409 0
Info: PERIODIC CELL BASIS 3  0 0 31.1505
Info: PERIODIC CELL CENTER   0 0 0
Info: WRAPPING WATERS AROUND PERIODIC BOUNDARIES ON OUTPUT.
Info: WRAPPING ALL CLUSTERS AROUND PERIODIC BOUNDARIES ON OUTPUT.
Info: FIRST LDB TIMESTEP     50
Info: LAST LDB TIMESTEP     -1
Info: HOM BACKGROUND SCALING 1
Info: PME BACKGROUND SCALING 1
Info: MIN ATOMS PER PATCH    40
Info: EMPTY PATCH LOAD       40 ATOMS
Info: VELOCITY FILE          mobley_186894_equil.vel
Info: CENTER OF MASS MOVING INITIALLY? NO
Info: DIELECTRIC             1
Info: EXCLUDE                SCALED ONE-FOUR
Info: 1-4 ELECTROSTATICS SCALED BY 0.833333
Info: MODIFIED 1-4 VDW PARAMETERS WILL BE USED
Info: DCD FILENAME           mobley_186894_prod.dcd
Info: DCD FREQUENCY          100000
Info: DCD FIRST STEP         100000
Info: DCD FILE WILL CONTAIN UNIT CELL DATA
Info: XST FILENAME           mobley_186894_prod.xst
Info: XST FREQUENCY          100000
Info: NO VELOCITY DCD OUTPUT
Info: NO FORCE DCD OUTPUT
Info: OUTPUT FILENAME        mobley_186894_prod
Info: BINARY OUTPUT FILES WILL BE USED
Info: RESTART FILENAME       mobley_186894_prod.restart
Info: RESTART FREQUENCY      100000
Info: BINARY RESTART FILES WILL BE USED
Info: CUTOFF                 9
Info: PAIRLIST DISTANCE      11
Info: PAIRLIST SHRINK RATE   0.01
Info: PAIRLIST GROW RATE     0.01
Info: PAIRLIST TRIGGER       0.3
Info: PAIRLISTS PER CYCLE    2
Info: PAIRLISTS ENABLED
Info: MARGIN                 2
Info: HYDROGEN GROUP CUTOFF  2.5
Info: PATCH DIMENSION        15.5
Info: ENERGY OUTPUT STEPS    100000
Info: ENERGY EVALUATION STEPS    100000
Info: OUTPUT ENERGY PRECISION 4
Info: CROSSTERM ENERGY INCLUDED IN DIHEDRAL
Info: TIMING OUTPUT STEPS    1000000
Info: PRESSURE OUTPUT STEPS  100000
Info: ALCHEMICAL FEP ON
Info: FEP CURRENT LAMBDA VALUE     0
Info: FEP COMPARISON LAMBDA VALUE  0.05
Info: FEP INTRA-ALCHEMICAL NON-BONDED INTERACTIONS WILL BE RETAINED
Info: FEP INTRA-ALCHEMICAL BONDED INTERACTIONS WILL BE RETAINED
Info: FEP VDW SHIFTING COEFFICIENT 5
Info: FEP ELEC. ACTIVE FOR ANNIHILATED PARTICLES BETWEEN LAMBDA = 0 AND LAMBDA = 0.5
Info: FEP ELEC. ACTIVE FOR EXNIHILATED PARTICLES BETWEEN LAMBDA = 0.5 AND LAMBDA = 1
Info: FEP VDW ACTIVE FOR ANNIHILATED PARTICLES BETWEEN LAMBDA = 0 AND LAMBDA = 1
Info: FEP VDW ACTIVE FOR EXNIHILATED PARTICLES BETWEEN LAMBDA = 0 AND LAMBDA = 1
Info: FEP BOND ACTIVE FOR ANNIHILATED PARTICLES BETWEEN LAMBDA = 1 AND LAMBDA = 1
Info: FEP BOND ACTIVE FOR EXNIHILATED PARTICLES BETWEEN LAMBDA = 0 AND LAMBDA = 0
Info: LANGEVIN DYNAMICS ACTIVE
Info: LANGEVIN TEMPERATURE   300
Info: LANGEVIN USING BBK INTEGRATOR
Info: LANGEVIN DAMPING COEFFICIENT IS 1 INVERSE PS
Info: LANGEVIN DYNAMICS APPLIED TO HYDROGENS
Info: LANGEVIN PISTON PRESSURE CONTROL ACTIVE
Info:        TARGET PRESSURE IS 1.01325 BAR
Info:     OSCILLATION PERIOD IS 50 FS
Info:             DECAY TIME IS 25 FS
Info:     PISTON TEMPERATURE IS 300 K
Info:       PRESSURE CONTROL IS GROUP-BASED
Info:    INITIAL STRAIN RATE IS 2.17219e-05 2.17219e-05 2.17219e-05
Info:       CELL FLUCTUATION IS ISOTROPIC
Info: PARTICLE MESH EWALD (PME) ACTIVE
Info: PME TOLERANCE               1e-06
Info: PME EWALD COEFFICIENT       0.348832
Info: PME INTERPOLATION ORDER     4
Info: PME GRID DIMENSIONS         32 32 32
Info: PME MAXIMUM GRID SPACING    1
Info: PME CALCULATION WILL BE PERFORMED ON GPU
Info: FULL ELECTROSTATIC EVALUATION FREQUENCY      2
Info: USING VERLET I (r-RESPA) MTS SCHEME.
Info: C1 SPLITTING OF LONG RANGE ELECTROSTATICS
Info: PLACING ATOMS IN PATCHES BY HYDROGEN GROUPS
Info: RIGID BONDS TO HYDROGEN : ALL
Info:         ERROR TOLERANCE : 1e-08
Info:          MAX ITERATIONS : 100
Info: RIGID WATER USING SETTLE ALGORITHM
Info: RANDOM NUMBER SEED     1743687675
Info: USE HYDROGEN BONDS?    NO
Info: Using AMBER format force field!
Info: AMBER PARM FILE        mobley_186894.prmtop
Info: COORDINATE PDB         mobley_186894.pdb
Info: Exclusions will be read from PARM file!
Info: SCNB (VDW SCALING)     2
Info: USING ARITHMETIC MEAN TO COMBINE L-J SIGMA PARAMETERS
Info: BINARY COORDINATES     mobley_186894_equil.coor
Info: SUMMARY OF PARAMETERS:
Info: 7 BONDS
Info: 8 ANGLES
Info:   8 HARMONIC
Info:   0 COSINE-BASED
Info: 4 DIHEDRAL
Info: 0 IMPROPER
Info: 0 CROSSTERM
Info: 0 VDW
Info: 28 VDW_PAIRS
Info: 0 NBTHOLE_PAIRS
Info: To read alchdata from file: mobley_186894.pdb
Info: To read alchflag data from column: 5
Info: STRUCTURE SUMMARY:
Info: 2919 ATOMS
Info: 2918 BONDS
Info: 19 ANGLES
Info: 21 DIHEDRALS
Info: 0 IMPROPERS
Info: 0 CROSSTERMS
Info: 2958 EXCLUSIONS
Info: 2915 RIGID BONDS
Info: ALCH: 0 ATOMS TO DISAPPEAR IN FINAL STATE
Info: ALCH: 12 ATOMS TO APPEAR IN FINAL STATE
Info: 5842 DEGREES OF FREEDOM
Info: 973 HYDROGEN GROUPS
Info: 4 ATOMS IN LARGEST HYDROGEN GROUP
Info: 973 MIGRATION GROUPS
Info: 4 ATOMS IN LARGEST MIGRATION GROUP
Info: TOTAL MASS = 17533.7 amu
Info: TOTAL CHARGE = 0.000199965 e
Info: MASS DENSITY = 0.984564 g/cm^3
Info: ATOM DENSITY = 0.0987067 atoms/A^3
Info: ADDED 0 IMPLICIT EXCLUSIONS
Info: NONBONDED TABLE R-SQUARED SPACING: 0.0625
Info: NONBONDED TABLE SIZE: 705 POINTS
Info: REMOVING COM VELOCITY 0.0801908 -0.0520471 -0.257209
Info: Use 3D box decompostion in PME FFT.
Info: Updated CUDA force table with 4096 elements.
Info: Updated CUDA LJ table with 7 x 7 elements.
Info: Found 15 unique exclusion lists needing 28 bytes
TCL: Running for 1500000 steps
ETITLE: TS BOND ANGLE DIHED IMPRP ELECT VDW BOUNDARY MISC KINETIC TOTAL TEMP POTENTIAL TOTALAVG TEMPAVG PRESSURE GPRESSURE VOLUME PRESSAVG GPRESSAVG
ENERGY: 0 1.0566 3.8674 0.2837 0.0000 -10519.8949 1342.1705 0.0000 0.0000 1818.4494 -7354.0673 313.2781 -9172.5167 -7354.0673 313.2781 -514.0351 -433.8806 29572.4732 -514.0351 -433.8806
ENERGY: 300000 1.6857 3.6211 0.5923 0.0000 -10636.8795 1450.7080 0.0000 0.0000 1775.6161 -7404.6563 305.8989 -9180.2724 -7378.2603 305.5377 104.7954 215.3350 29546.3386 -42.4825 47.8057
ENERGY: 600000 0.8766 5.4539 0.2443 0.0000 -10529.4235 1406.6369 0.0000 0.0000 1697.3927 -7418.8190 292.4227 -9116.2117 -7427.2307 299.3978 -197.1052 -102.7210 29915.1704 -21.0949 61.5558
ENERGY: 900000 1.1649 3.7267 0.2665 0.0000 -10665.9256 1440.1211 0.0000 0.0000 1730.9781 -7489.6683 298.2088 -9220.6464 -7432.0312 299.5475 -112.0293 -59.0461 30010.1993 -95.4860 -27.2822
ENERGY: 1200000 0.3940 6.8992 1.2699 0.0000 -10476.6425 1349.0745 0.0000 0.0000 1749.0046 -7370.0004 301.3143 -9119.0050 -7426.3375 299.9627 -277.2289 -302.5306 29609.5358 -147.1794 -89.1376
ENERGY: 1500000 1.1071 4.0317 1.5383 0.0000 -10526.7984 1338.6739 0.0000 0.0000 1737.3489 -7444.0985 299.3063 -9181.4474 -7418.9669 300.3174 -763.3106 -586.8108 29766.0012 -155.5620 -88.9806
TCL: Running FEP window   2: Lambda1 0.05   Lambda2 0.1    [dLambda 0.05  ]
TCL: Setting parameter firsttimestep to 0
TCL: Setting parameter alchLambda to 0.05
Info: NONBONDED TABLE R-SQUARED SPACING: 0.0625
Info: NONBONDED TABLE SIZE: 705 POINTS
TCL: Setting parameter alchLambda2 to 0.1
Info: NONBONDED TABLE R-SQUARED SPACING: 0.0625
Info: NONBONDED TABLE SIZE: 705 POINTS
TCL: Running for 1500000 steps
ETITLE: TS BOND ANGLE DIHED IMPRP ELECT VDW BOUNDARY MISC KINETIC TOTAL TEMP POTENTIAL TOTALAVG TEMPAVG PRESSURE GPRESSURE VOLUME PRESSAVG GPRESSAVG
ENERGY: 0 1.1072 4.0317 1.5383 0.0000 -10526.7973 1344.2531 0.0000 0.0000 1736.4934 -7439.3736 299.1589 -9175.8670 -7439.3736 299.1589 -667.5583 -582.7612 29766.0012 -667.5583 -582.7612
ENERGY: 300000 3.4704 3.7377 1.1544 0.0000 -10727.6106 1457.7407 0.0000 0.0000 1761.8802 -7499.6272 303.5325 -9261.5074 -7440.3808 300.8965 -57.3605 -52.0372 29654.0168 -143.7834 -104.4515
ENERGY: 600000 0.6193 6.9819 1.3357 0.0000 -10599.4417 1475.8712 0.0000 0.0000 1760.7645 -7353.8691 303.3403 -9114.6336 -7416.1084 300.4976 338.9801 421.0050 30184.5336 -57.6052 -13.0167
ENERGY: 900000 0.4053 4.8349 0.3720 0.0000 -10486.2247 1388.8645 0.0000 0.0000 1716.9371 -7374.8108 295.7898 -9091.7479 -7400.3835 300.4706 -332.8730 -234.3749 30425.1535 -119.0550 -68.3647
ENERGY: 1200000 0.0896 4.3964 0.1253 0.0000 -10600.4883 1491.2330 0.0000 0.0000 1730.3860 -7374.2580 298.1068 -9104.6440 -7396.2394 299.6804 1002.3171 1066.8104 29400.0113 -80.1349 -24.6570
ENERGY: 1500000 2.0726 2.3709 0.7634 0.0000 -10626.0822 1404.6981 0.0000 0.0000 1714.8146 -7501.3626 295.4241 -9216.1772 -7412.7309 299.2341 -494.4550 -396.9861 30270.4305 -98.7547 -38.0788
TCL: Running FEP window   3: Lambda1 0.1    Lambda2 0.15000000000000002 [dLambda 0.05000000000000002]
TCL: Setting parameter firsttimestep to 0
TCL: Setting parameter alchLambda to 0.1
Info: NONBONDED TABLE R-SQUARED SPACING: 0.0625
Info: NONBONDED TABLE SIZE: 705 POINTS
TCL: Setting parameter alchLambda2 to 0.15000000000000002
Info: NONBONDED TABLE R-SQUARED SPACING: 0.0625
Info: NONBONDED TABLE SIZE: 705 POINTS
TCL: Running for 1500000 steps
ETITLE: TS BOND ANGLE DIHED IMPRP ELECT VDW BOUNDARY MISC KINETIC TOTAL TEMP POTENTIAL TOTALAVG TEMPAVG PRESSURE GPRESSURE VOLUME PRESSAVG GPRESSAVG
ENERGY: 0 2.0726 2.3709 0.7634 0.0000 -10626.0810 1405.4462 0.0000 0.0000 1713.9497 -7501.4783 295.2751 -9215.4279 -7501.4783 295.2751 -470.1941 -393.2192 30270.4305 -470.1941 -393.2192
ENERGY: 300000 1.3203 2.9998 2.0366 0.0000 -10645.5092 1399.3366 0.0000 0.0000 1750.3591 -7489.4569 301.5477 -9239.8160 -7462.5293 299.4146 -560.8503 -487.5767 30185.0636 -226.6586 -146.2260
ENERGY: 600000 0.5360 3.7247 0.0826 0.0000 -10710.4132 1520.7135 0.0000 0.0000 1784.7733 -7400.5832 307.4765 -9185.3565 -7431.9051 301.3528 652.0020 752.6224 29995.6950 39.0847 100.2770
ENERGY: 900000 0.9475 4.9687 0.4946 0.0000 -10519.1462 1441.0823 0.0000 0.0000 1700.1601 -7371.4929 292.8995 -9071.6530 -7432.4782 298.1926 394.2394 470.1439 29811.0589 -63.8499 -1.3223
ENERGY: 1200000 0.6584 5.9593 1.8712 0.0000 -10543.6943 1376.9538 0.0000 0.0000 1694.1775 -7464.0739 291.8688 -9158.2514 -7420.2969 298.5362 -606.9966 -509.7400 30013.8162 -147.3421 -78.2862
ENERGY: 1500000 1.7979 3.5278 1.1078 0.0000 -10651.6507 1465.4327 0.0000 0.0000 1755.0783 -7424.7062 302.3607 -9179.7845 -7414.1545 299.0591 -9.5734 63.8051 30255.2464 -265.9720 -200.0039
TCL: Running FEP window   4: Lambda1 0.15000000000000002 Lambda2 0.2    [dLambda 0.04999999999999999]
TCL: Setting parameter firsttimestep to 0
TCL: Setting parameter alchLambda to 0.15000000000000002
Info: NONBONDED TABLE R-SQUARED SPACING: 0.0625
Info: NONBONDED TABLE SIZE: 705 POINTS
TCL: Setting parameter alchLambda2 to 0.2
Info: NONBONDED TABLE R-SQUARED SPACING: 0.0625
Info: NONBONDED TABLE SIZE: 705 POINTS
TCL: Running for 1500000 steps
ETITLE: TS BOND ANGLE DIHED IMPRP ELECT VDW BOUNDARY MISC KINETIC TOTAL TEMP POTENTIAL TOTALAVG TEMPAVG PRESSURE GPRESSURE VOLUME PRESSAVG GPRESSAVG
ENERGY: 0 1.7979 3.5278 1.1078 0.0000 -10651.6517 1466.3467 0.0000 0.0000 1754.1447 -7424.7268 302.1999 -9178.8716 -7424.7268 302.1999 -7.6783 66.7652 30255.2464 -7.6783 66.7652
ENERGY: 300000 0.6909 7.6655 1.6079 0.0000 -10552.8843 1366.9075 0.0000 0.0000 1745.0617 -7430.9510 300.6350 -9176.0126 -7370.9321 303.7772 -507.4421 -403.6169 29979.2086 -27.0844 45.0573
ENERGY: 600000 2.2812 5.9616 0.4501 0.0000 -10550.5575 1404.2709 0.0000 0.0000 1749.9496 -7387.6441 301.4771 -9137.5937 -7377.9701 302.0394 -327.0428 -249.8172 30145.8832 -84.6758 -14.8501
ENERGY: 900000 0.9099 6.5758 0.5796 0.0000 -10658.2213 1497.3614 0.0000 0.0000 1738.0275 -7414.7670 299.4232 -9152.7945 -7378.9855 302.5520 470.3648 489.2367 30057.3574 130.7300 196.2007
ENERGY: 1200000 1.4696 3.6637 1.6405 0.0000 -10552.2854 1384.8270 0.0000 0.0000 1752.9002 -7407.7844 301.9855 -9160.6846 -7388.2649 301.5198 -473.3669 -367.5910 30193.9496 6.1085 74.9404
ENERGY: 1500000 1.1369 5.7164 2.0073 0.0000 -10627.7883 1520.9185 0.0000 0.0000 1722.1888 -7375.8203 296.6946 -9098.0092 -7382.2038 301.5878 986.7076 1010.5910 29991.9697 81.6803 149.6760
TCL: Running FEP window   5: Lambda1 0.2    Lambda2 0.25   [dLambda 0.04999999999999999]
TCL: Setting parameter firsttimestep to 0
TCL: Setting parameter alchLambda to 0.2
Info: NONBONDED TABLE R-SQUARED SPACING: 0.0625
Info: NONBONDED TABLE SIZE: 705 POINTS
TCL: Setting parameter alchLambda2 to 0.25
Info: NONBONDED TABLE R-SQUARED SPACING: 0.0625
Info: NONBONDED TABLE SIZE: 705 POINTS
TCL: Running for 1500000 steps
ETITLE: TS BOND ANGLE DIHED IMPRP ELECT VDW BOUNDARY MISC KINETIC TOTAL TEMP POTENTIAL TOTALAVG TEMPAVG PRESSURE GPRESSURE VOLUME PRESSAVG GPRESSAVG
ENERGY: 0 1.1369 5.7164 2.0073 0.0000 -10627.7876 1520.9661 0.0000 0.0000 1721.2686 -7376.6923 296.5360 -9097.9609 -7376.6923 296.5360 948.3077 1012.3556 29991.9697 948.3077 1012.3556
ENERGY: 300000 0.0544 5.1753 0.8556 0.0000 -10596.4011 1399.9232 0.0000 0.0000 1777.4789 -7412.9137 306.2198 -9190.3925 -7446.4459 297.5201 -116.0805 -99.8206 29857.0209 128.1036 190.1400
ENERGY: 600000 0.8829 3.0434 0.3538 0.0000 -10415.7337 1328.9687 0.0000 0.0000 1769.2107 -7313.2741 304.7954 -9082.4848 -7404.9102 300.6947 -754.6956 -654.5746 30534.6884 48.4474 122.8721
ENERGY: 900000 0.0195 2.7065 0.0863 0.0000 -10607.9839 1405.9430 0.0000 0.0000 1785.5620 -7413.6667 307.6123 -9199.2286 -7401.2988 302.1068 -484.0970 -440.2562 30343.2950 8.4595 76.1458
ENERGY: 1200000 0.2141 3.2783 0.7535 0.0000 -10537.5212 1420.3931 0.0000 0.0000 1744.0398 -7368.8424 300.4590 -9112.8822 -7391.6602 301.8507 -226.3884 -123.6657 30400.4219 -76.8480 -6.4981
ENERGY: 1500000 0.4176 6.1349 0.3633 0.0000 -10599.8557 1446.9529 0.0000 0.0000 1746.0022 -7399.9848 300.7971 -9145.9870 -7396.6370 302.4484 382.6889 464.4262 29488.2709 10.2832 82.5082
TCL: Running FEP window   6: Lambda1 0.25   Lambda2 0.3    [dLambda 0.04999999999999999]
TCL: Setting parameter firsttimestep to 0
TCL: Setting parameter alchLambda to 0.25
Info: NONBONDED TABLE R-SQUARED SPACING: 0.0625
Info: NONBONDED TABLE SIZE: 705 POINTS
TCL: Setting parameter alchLambda2 to 0.3
Info: NONBONDED TABLE R-SQUARED SPACING: 0.0625
Info: NONBONDED TABLE SIZE: 705 POINTS
TCL: Running for 1500000 steps
ETITLE: TS BOND ANGLE DIHED IMPRP ELECT VDW BOUNDARY MISC KINETIC TOTAL TEMP POTENTIAL TOTALAVG TEMPAVG PRESSURE GPRESSURE VOLUME PRESSAVG GPRESSAVG
ENERGY: 0 0.4176 6.1349 0.3633 0.0000 -10599.8561 1447.5234 0.0000 0.0000 1745.1279 -7400.2891 300.6465 -9145.4169 -7400.2891 300.6465 395.9649 470.8671 29488.2709 395.9649 470.8671
ENERGY: 300000 0.3582 1.9696 0.7081 0.0000 -10635.9128 1444.5193 0.0000 0.0000 1737.9003 -7450.4573 299.4013 -9188.3576 -7380.0531 305.2764 130.3993 244.2491 29509.9240 -52.2903 56.0194
ENERGY: 600000 1.2608 5.3177 0.3442 0.0000 -10514.5530 1395.0979 0.0000 0.0000 1770.0120 -7342.5204 304.9334 -9112.5324 -7396.4632 303.1484 -55.9423 -15.3914 30134.0914 -53.6447 28.8613
ENERGY: 900000 2.2111 5.0886 0.2966 0.0000 -10381.7336 1273.7468 0.0000 0.0000 1717.8399 -7382.5506 295.9453 -9100.3905 -7394.3726 301.2339 -970.7140 -947.5268 30138.2121 -153.4228 -78.8651
ENERGY: 1200000 0.9076 7.1993 0.6270 0.0000 -10615.5500 1463.0458 0.0000 0.0000 1782.6975 -7361.0729 307.1189 -9143.7703 -7382.9889 301.8613 288.1740 267.9975 30345.1152 -68.2781 1.6334
ENERGY: 1500000 0.6090 5.5127 0.7487 0.0000 -10640.8489 1401.0630 0.0000 0.0000 1766.6260 -7466.2894 304.3501 -9232.9155 -7396.4233 301.7138 -150.7183 -97.5912 29316.8813 -82.5659 -15.4333
TCL: Running FEP window   7: Lambda1 0.3    Lambda2 0.35   [dLambda 0.04999999999999999]
TCL: Setting parameter firsttimestep to 0
TCL: Setting parameter alchLambda to 0.3
Info: NONBONDED TABLE R-SQUARED SPACING: 0.0625
Info: NONBONDED TABLE SIZE: 705 POINTS
TCL: Setting parameter alchLambda2 to 0.35
Info: NONBONDED TABLE R-SQUARED SPACING: 0.0625
Info: NONBONDED TABLE SIZE: 705 POINTS
TCL: Running for 1500000 steps
ETITLE: TS BOND ANGLE DIHED IMPRP ELECT VDW BOUNDARY MISC KINETIC TOTAL TEMP POTENTIAL TOTALAVG TEMPAVG PRESSURE GPRESSURE VOLUME PRESSAVG GPRESSAVG
ENERGY: 0 0.6090 5.5127 0.7487 0.0000 -10640.8497 1401.4927 0.0000 0.0000 1765.7164 -7466.7702 304.1934 -9232.4866 -7466.7702 304.1934 -173.4705 -92.6411 29316.8813 -173.4705 -92.6411
ENERGY: 300000 1.1166 4.8348 1.0639 0.0000 -10498.9726 1401.5027 0.0000 0.0000 1758.7065 -7331.7481 302.9857 -9090.4546 -7422.2901 301.7248 -205.7156 -169.9688 30192.7907 -10.3832 38.0910
ENERGY: 600000 2.4132 3.4282 0.5537 0.0000 -10609.0610 1437.6363 0.0000 0.0000 1758.1047 -7406.9249 302.8821 -9165.0297 -7425.7432 299.6998 -184.6557 -117.3298 30181.2887 -337.2247 -268.4535
ENERGY: 900000 1.0354 2.4679 0.4506 0.0000 -10604.1221 1436.8032 0.0000 0.0000 1722.3398 -7441.0252 296.7206 -9163.3651 -7427.9239 299.8166 -127.6413 -73.8552 30143.8280 -234.9949 -162.7917
ENERGY: 1200000 0.6275 8.4274 0.3866 0.0000 -10455.7042 1331.6359 0.0000 0.0000 1786.6975 -7327.9292 307.8080 -9114.6267 -7410.3583 300.6021 -933.0555 -885.5711 30763.9325 -301.0514 -233.5989
ENERGY: 1500000 0.0689 3.7016 0.4451 0.0000 -10558.6406 1404.8664 0.0000 0.0000 1758.8247 -7390.7339 303.0061 -9149.5586 -7411.2356 300.8104 -460.7638 -443.8479 30524.9890 -237.8793 -174.3415
TCL: Running FEP window   8: Lambda1 0.35   Lambda2 0.39999999999999997 [dLambda 0.04999999999999999]
TCL: Setting parameter firsttimestep to 0
TCL: Setting parameter alchLambda to 0.35
Info: NONBONDED TABLE R-SQUARED SPACING: 0.0625
Info: NONBONDED TABLE SIZE: 705 POINTS
TCL: Setting parameter alchLambda2 to 0.39999999999999997
Info: NONBONDED TABLE R-SQUARED SPACING: 0.0625
Info: NONBONDED TABLE SIZE: 705 POINTS
TCL: Running for 1500000 steps
ETITLE: TS BOND ANGLE DIHED IMPRP ELECT VDW BOUNDARY MISC KINETIC TOTAL TEMP POTENTIAL TOTALAVG TEMPAVG PRESSURE GPRESSURE VOLUME PRESSAVG GPRESSAVG
ENERGY: 0 0.0689 3.7016 0.4451 0.0000 -10558.6412 1404.6548 0.0000 0.0000 1757.9581 -7391.8127 302.8568 -9149.7708 -7391.8127 302.8568 -521.3751 -441.0397 30524.9890 -521.3751 -441.0397
ENERGY: 300000 0.5161 4.5627 0.5252 0.0000 -10532.6626 1409.2043 0.0000 0.0000 1783.9899 -7333.8644 307.3415 -9117.8543 -7366.1922 303.9577 184.1417 264.6994 29703.4453 -46.5930 34.6358
ENERGY: 600000 0.6928 4.1873 2.5807 0.0000 -10618.4540 1450.0069 0.0000 0.0000 1785.0417 -7375.9445 307.5227 -9160.9862 -7367.6447 303.5539 398.7027 509.5632 29533.8848 72.1590 159.4671
ENERGY: 900000 0.0467 4.0387 0.8793 0.0000 -10656.0332 1469.0905 0.0000 0.0000 1743.5478 -7438.4301 300.3742 -9181.9779 -7386.0732 303.2729 152.3651 228.4077 30115.4448 96.7632 179.2251
ENERGY: 1200000 2.9654 2.1913 1.9114 0.0000 -10647.8096 1478.0088 0.0000 0.0000 1741.5338 -7421.1988 300.0273 -9162.7326 -7383.0783 302.7462 560.2082 666.8453 29413.5608 80.7546 157.7555
ENERGY: 1500000 0.2592 5.3726 1.5981 0.0000 -10603.5065 1439.0415 0.0000 0.0000 1695.3162 -7461.9190 292.0650 -9157.2351 -7395.9734 301.4524 226.5279 264.0570 29673.6371 30.5683 101.6029
TCL: Running FEP window   9: Lambda1 0.39999999999999997 Lambda2 0.44999999999999996 [dLambda 0.04999999999999999]
TCL: Setting parameter firsttimestep to 0
TCL: Setting parameter alchLambda to 0.39999999999999997
Info: NONBONDED TABLE R-SQUARED SPACING: 0.0625
Info: NONBONDED TABLE SIZE: 705 POINTS
TCL: Setting parameter alchLambda2 to 0.44999999999999996
Info: NONBONDED TABLE R-SQUARED SPACING: 0.0625
Info: NONBONDED TABLE SIZE: 705 POINTS
TCL: Running for 1500000 steps
ETITLE: TS BOND ANGLE DIHED IMPRP ELECT VDW BOUNDARY MISC KINETIC TOTAL TEMP POTENTIAL TOTALAVG TEMPAVG PRESSURE GPRESSURE VOLUME PRESSAVG GPRESSAVG
ENERGY: 0 0.2592 5.3726 1.5981 0.0000 -10603.5053 1438.9630 0.0000 0.0000 1694.4213 -7462.8911 291.9108 -9157.3124 -7462.8911 291.9108 194.1019 267.7819 29673.6371 194.1019 267.7819
ENERGY: 300000 1.2208 6.5103 0.3399 0.0000 -10539.7861 1406.9666 0.0000 0.0000 1749.2289 -7375.5197 301.3530 -9124.7486 -7416.3494 300.3335 -85.8700 -47.4103 29960.3443 -206.2109 -162.1626
ENERGY: 600000 0.6395 5.9674 1.1290 0.0000 -10600.6852 1406.8267 0.0000 0.0000 1753.3841 -7432.7384 302.0688 -9186.1225 -7419.1286 300.8214 -424.4883 -372.9619 30098.8489 -259.9537 -215.0767
ENERGY: 900000 0.8893 6.0069 2.2054 0.0000 -10594.5045 1427.2288 0.0000 0.0000 1747.1511 -7411.0231 300.9950 -9158.1743 -7412.4642 300.8168 26.9551 101.0773 29621.4375 -281.7315 -223.9109
ENERGY: 1200000 1.4538 5.0500 1.0719 0.0000 -10594.4096 1423.9629 0.0000 0.0000 1731.1866 -7431.6844 298.2447 -9162.8710 -7412.0381 301.6052 -357.4695 -239.4944 30283.0205 -247.1893 -182.9266
ENERGY: 1500000 0.3470 3.7754 0.6091 0.0000 -10546.1484 1391.9420 0.0000 0.0000 1780.0078 -7369.4671 306.6555 -9149.4749 -7410.3791 302.0939 -303.6929 -150.5312 30068.3388 -265.7490 -189.8858
TCL: Running FEP window  10: Lambda1 0.44999999999999996 Lambda2 0.49999999999999994 [dLambda 0.04999999999999999]
TCL: Setting parameter firsttimestep to 0
TCL: Setting parameter alchLambda to 0.44999999999999996
Info: NONBONDED TABLE R-SQUARED SPACING: 0.0625
Info: NONBONDED TABLE SIZE: 705 POINTS
TCL: Setting parameter alchLambda2 to 0.49999999999999994
Info: NONBONDED TABLE R-SQUARED SPACING: 0.0625
Info: NONBONDED TABLE SIZE: 705 POINTS
TCL: Running for 1500000 steps
ETITLE: TS BOND ANGLE DIHED IMPRP ELECT VDW BOUNDARY MISC KINETIC TOTAL TEMP POTENTIAL TOTALAVG TEMPAVG PRESSURE GPRESSURE VOLUME PRESSAVG GPRESSAVG
ENERGY: 0 0.3470 3.7754 0.6091 0.0000 -10546.1483 1392.8351 0.0000 0.0000 1779.1170 -7369.4648 306.5020 -9148.5818 -7369.4648 306.5020 -218.2109 -137.9478 30068.3388 -218.2109 -137.9478
ENERGY: 300000 1.2636 6.1994 1.9420 0.0000 -10539.6624 1393.7822 0.0000 0.0000 1753.5416 -7382.9337 302.0960 -9136.4753 -7392.3628 303.3492 -23.2617 1.4884 29775.4489 -72.8040 -3.0246
ENERGY: 600000 0.0295 3.2089 0.7969 0.0000 -10515.7234 1365.2018 0.0000 0.0000 1755.2027 -7391.2836 302.3821 -9146.4863 -7368.2595 303.7164 -425.7668 -349.4462 29939.3223 -161.8537 -98.9255
ENERGY: 900000 3.4867 6.3377 0.5930 0.0000 -10649.7326 1491.7599 0.0000 0.0000 1729.1199 -7418.4355 297.8886 -9147.5553 -7384.5890 301.0398 380.3696 462.0716 29931.3366 -57.0372 6.2766
ENERGY: 1200000 1.7547 3.5954 2.7811 0.0000 -10729.0465 1510.0627 0.0000 0.0000 1761.1846 -7449.6680 303.4127 -9210.8526 -7396.7463 300.7918 673.1998 724.3821 29643.1147 80.2353 142.4119
ENERGY: 1500000 1.4748 5.1409 0.2224 0.0000 -10584.6455 1415.6815 0.0000 0.0000 1760.3313 -7401.7947 303.2657 -9162.1259 -7403.5030 300.9423 -18.3138 54.9435 29893.0555 78.0534 136.9531
TCL: Running FEP window  11: Lambda1 0.49999999999999994 Lambda2 0.5499999999999999 [dLambda 0.04999999999999999]
TCL: Setting parameter firsttimestep to 0
TCL: Setting parameter alchLambda to 0.49999999999999994
Info: NONBONDED TABLE R-SQUARED SPACING: 0.0625
Info: NONBONDED TABLE SIZE: 705 POINTS
TCL: Setting parameter alchLambda2 to 0.5499999999999999
Info: NONBONDED TABLE R-SQUARED SPACING: 0.0625
Info: NONBONDED TABLE SIZE: 705 POINTS
TCL: Running for 1500000 steps
ETITLE: TS BOND ANGLE DIHED IMPRP ELECT VDW BOUNDARY MISC KINETIC TOTAL TEMP POTENTIAL TOTALAVG TEMPAVG PRESSURE GPRESSURE VOLUME PRESSAVG GPRESSAVG
ENERGY: 0 1.4748 5.1409 0.2224 0.0000 -10584.6443 1415.5793 0.0000 0.0000 1759.4816 -7402.7454 303.1193 -9162.2269 -7402.7454 303.1193 -37.1426 58.4575 29893.0555 -37.1426 58.4575
ENERGY: 300000 2.0309 4.5115 1.0243 0.0000 -10479.7249 1396.9946 0.0000 0.0000 1775.1805 -7299.9830 305.8239 -9075.1635 -7409.1661 297.9065 213.5412 271.9433 29980.7354 -219.0550 -146.1711
ENERGY: 600000 2.0466 3.8543 0.7132 0.0000 -10523.2381 1331.2545 0.0000 0.0000 1737.7123 -7447.6573 299.3689 -9185.3696 -7435.6743 295.9051 -906.4932 -896.2533 30179.3761 -273.6985 -215.5917
ENERGY: 900000 0.9397 4.6138 1.7867 0.0000 -10521.4019 1329.1748 0.0000 0.0000 1774.2942 -7410.5927 305.6712 -9184.8869 -7432.1052 297.8566 -925.9414 -863.1648 30121.3411 -236.9723 -183.8680
ENERGY: 1200000 0.4319 6.9780 0.8051 0.0000 -10517.6526 1324.3898 0.0000 0.0000 1752.8105 -7432.2372 301.9700 -9185.0478 -7425.0890 298.7344 -957.7866 -815.2497 29995.6496 -371.8405 -305.8005
ENERGY: 1500000 2.1115 6.1836 1.7552 0.0000 -10586.6609 1418.8445 0.0000 0.0000 1773.9578 -7383.8082 305.6132 -9157.7660 -7422.4131 299.9467 -191.7445 -138.5399 30168.6212 -312.5932 -244.9796
TCL: Running FEP window  12: Lambda1 0.5499999999999999 Lambda2 0.6    [dLambda 0.050000000000000044]
TCL: Setting parameter firsttimestep to 0
TCL: Setting parameter alchLambda to 0.5499999999999999
Info: NONBONDED TABLE R-SQUARED SPACING: 0.0625
Info: NONBONDED TABLE SIZE: 705 POINTS
TCL: Setting parameter alchLambda2 to 0.6
Info: NONBONDED TABLE R-SQUARED SPACING: 0.0625
Info: NONBONDED TABLE SIZE: 705 POINTS
TCL: Running for 1500000 steps
ETITLE: TS BOND ANGLE DIHED IMPRP ELECT VDW BOUNDARY MISC KINETIC TOTAL TEMP POTENTIAL TOTALAVG TEMPAVG PRESSURE GPRESSURE VOLUME PRESSAVG GPRESSAVG
ENERGY: 0 2.1115 6.1836 1.7552 0.0000 -10586.2203 1418.9874 0.0000 0.0000 1773.0623 -7384.1203 305.4589 -9157.1826 -7384.1203 305.4589 -220.7274 -131.3707 30168.6212 -220.7274 -131.3707
ENERGY: 300000 2.0735 2.6959 1.0618 0.0000 -10655.6851 1529.9328 0.0000 0.0000 1742.0921 -7377.8290 300.1235 -9119.9211 -7389.3507 304.3197 928.9670 930.1893 30083.5495 372.3566 411.3174
ENERGY: 600000 1.3666 6.7188 0.6200 0.0000 -10533.2950 1408.1330 0.0000 0.0000 1746.3650 -7370.0915 300.8596 -9116.4566 -7390.1148 302.2525 -374.1751 -230.4823 30454.5789 127.5287 181.5106
ENERGY: 900000 0.3023 4.2847 0.4539 0.0000 -10510.1264 1387.8447 0.0000 0.0000 1678.0041 -7439.2367 289.0825 -9117.2408 -7396.8328 300.8409 -584.3356 -509.6461 30722.7738 -8.1294 53.8728
ENERGY: 1200000 1.2497 5.0508 0.5448 0.0000 -10493.2332 1312.1848 0.0000 0.0000 1752.7819 -7421.4212 301.9651 -9174.2032 -7396.9578 300.7899 -1082.2963 -994.4977 30203.2993 -48.7979 15.0488
ENERGY: 1500000 0.2812 7.9766 0.6168 0.0000 -10871.1936 1609.4742 0.0000 0.0000 1764.4956 -7488.3491 303.9831 -9252.8447 -7403.6501 300.6212 1171.9970 1243.1335 29882.5063 69.6183 133.6434
TCL: Running FEP window  13: Lambda1 0.6    Lambda2 0.65   [dLambda 0.050000000000000044]
TCL: Setting parameter firsttimestep to 0
TCL: Setting parameter alchLambda to 0.6
Info: NONBONDED TABLE R-SQUARED SPACING: 0.0625
Info: NONBONDED TABLE SIZE: 705 POINTS
TCL: Setting parameter alchLambda2 to 0.65
Info: NONBONDED TABLE R-SQUARED SPACING: 0.0625
Info: NONBONDED TABLE SIZE: 705 POINTS
TCL: Running for 1500000 steps
ETITLE: TS BOND ANGLE DIHED IMPRP ELECT VDW BOUNDARY MISC KINETIC TOTAL TEMP POTENTIAL TOTALAVG TEMPAVG PRESSURE GPRESSURE VOLUME PRESSAVG GPRESSAVG
ENERGY: 0 0.2812 7.9766 0.6168 0.0000 -10871.4664 1609.6376 0.0000 0.0000 1763.6355 -7489.3185 303.8349 -9252.9541 -7489.3185 303.8349 1165.3534 1250.4538 29882.5063 1165.3534 1250.4538
ENERGY: 300000 3.2749 2.5208 0.4067 0.0000 -10664.8720 1447.8115 0.0000 0.0000 1723.2750 -7487.5832 296.8817 -9210.8582 -7433.7020 300.1011 65.7202 117.3702 29822.8396 574.5631 644.7076
ENERGY: 600000 0.8316 4.7598 2.0546 0.0000 -10490.6035 1380.9021 0.0000 0.0000 1763.8508 -7338.2048 303.8720 -9102.0555 -7432.4103 299.4002 -293.6292 -169.4555 29939.4708 188.2713 270.6913
ENERGY: 900000 1.2349 4.8544 0.6271 0.0000 -10519.3607 1366.0164 0.0000 0.0000 1723.2105 -7423.4174 296.8706 -9146.6280 -7435.8636 298.1880 -388.8371 -347.9146 29627.2756 19.4471 97.9130
ENERGY: 1200000 2.4022 4.7381 0.7545 0.0000 -10585.1670 1484.1954 0.0000 0.0000 1771.3620 -7321.7147 305.1660 -9093.0767 -7414.2069 299.7724 334.2475 404.4770 30595.8019 -44.1843 34.4419
ENERGY: 1500000 0.6571 5.9044 1.2014 0.0000 -10618.5554 1408.9319 0.0000 0.0000 1782.9819 -7418.8787 307.1679 -9201.8606 -7414.3716 300.7412 -294.6479 -210.1240 30040.7493 -18.1330 64.7722
TCL: Running FEP window  14: Lambda1 0.65   Lambda2 0.7000000000000001 [dLambda 0.050000000000000044]
TCL: Setting parameter firsttimestep to 0
TCL: Setting parameter alchLambda to 0.65
Info: NONBONDED TABLE R-SQUARED SPACING: 0.0625
Info: NONBONDED TABLE SIZE: 705 POINTS
TCL: Setting parameter alchLambda2 to 0.7000000000000001
Info: NONBONDED TABLE R-SQUARED SPACING: 0.0625
Info: NONBONDED TABLE SIZE: 705 POINTS
TCL: Running for 1500000 steps
ETITLE: TS BOND ANGLE DIHED IMPRP ELECT VDW BOUNDARY MISC KINETIC TOTAL TEMP POTENTIAL TOTALAVG TEMPAVG PRESSURE GPRESSURE VOLUME PRESSAVG GPRESSAVG
ENERGY: 0 0.6571 5.9044 1.2014 0.0000 -10618.6966 1408.6026 0.0000 0.0000 1782.1038 -7420.2273 307.0166 -9202.3311 -7420.2273 307.0166 -295.2143 -208.5284 30040.7493 -295.2143 -208.5284
ENERGY: 300000 1.2286 4.1289 2.0837 0.0000 -10675.4240 1432.8021 0.0000 0.0000 1745.0082 -7490.1726 300.6258 -9235.1808 -7421.7141 304.8435 -414.0130 -332.1703 30327.8000 -250.4578 -194.3296
ENERGY: 600000 0.6080 5.3859 2.3017 0.0000 -10593.2435 1381.2609 0.0000 0.0000 1720.7692 -7482.9178 296.4500 -9203.6870 -7423.7558 301.2773 -454.7389 -391.0981 29767.4873 -337.1909 -274.7539
ENERGY: 900000 1.9626 2.0417 0.3605 0.0000 -10470.3176 1384.9644 0.0000 0.0000 1700.7858 -7380.2026 293.0073 -9080.9885 -7415.2479 300.2122 -451.5283 -342.3725 30440.9449 -228.7222 -164.5628
ENERGY: 1200000 2.1491 4.9021 0.6688 0.0000 -10516.6995 1407.3852 0.0000 0.0000 1789.4785 -7312.1159 308.2871 -9101.5944 -7408.3931 300.6723 85.9949 119.2763 30286.6625 -132.2015 -71.6930
ENERGY: 1500000 0.6932 2.2379 2.8040 0.0000 -10586.0369 1454.5954 0.0000 0.0000 1713.7099 -7411.9965 295.2338 -9125.7063 -7417.8773 299.8271 423.5589 496.8757 29901.9514 -105.8929 -45.1823
TCL: Running FEP window  15: Lambda1 0.7000000000000001 Lambda2 0.7500000000000001 [dLambda 0.050000000000000044]
TCL: Setting parameter firsttimestep to 0
TCL: Setting parameter alchLambda to 0.7000000000000001
Info: NONBONDED TABLE R-SQUARED SPACING: 0.0625
Info: NONBONDED TABLE SIZE: 705 POINTS
TCL: Setting parameter alchLambda2 to 0.7500000000000001
Info: NONBONDED TABLE R-SQUARED SPACING: 0.0625
Info: NONBONDED TABLE SIZE: 705 POINTS
TCL: Running for 1500000 steps
ETITLE: TS BOND ANGLE DIHED IMPRP ELECT VDW BOUNDARY MISC KINETIC TOTAL TEMP POTENTIAL TOTALAVG TEMPAVG PRESSURE GPRESSURE VOLUME PRESSAVG GPRESSAVG
ENERGY: 0 0.6932 2.2379 2.8040 0.0000 -10585.7893 1455.5384 0.0000 0.0000 1712.8228 -7411.6930 295.0810 -9124.5158 -7411.6930 295.0810 431.0152 513.1110 29901.9514 431.0152 513.1110
ENERGY: 300000 1.0235 5.3593 1.0594 0.0000 -10535.0202 1440.0970 0.0000 0.0000 1755.9022 -7331.5790 302.5026 -9087.4811 -7386.6865 299.6810 306.8517 347.2027 30131.5344 105.0379 161.5533
ENERGY: 600000 1.2376 5.8036 0.2636 0.0000 -10703.3269 1564.9188 0.0000 0.0000 1716.1310 -7414.9724 295.6509 -9131.1034 -7360.1848 300.4368 1119.0448 1146.7744 29973.0761 75.3804 132.8118
ENERGY: 900000 0.5471 5.2412 0.2990 0.0000 -10515.2545 1436.9302 0.0000 0.0000 1747.0116 -7325.2254 300.9710 -9072.2371 -7370.5023 299.4788 125.9034 177.2046 30287.9527 100.3006 159.5912
ENERGY: 1200000 2.0065 3.6298 0.5115 0.0000 -10571.4498 1459.7972 0.0000 0.0000 1697.1739 -7408.3310 292.3851 -9105.5049 -7370.3739 300.2202 350.5091 383.3635 30163.6860 26.9161 87.5258
ENERGY: 1500000 2.7503 3.9680 0.4570 0.0000 -10451.9820 1358.3641 0.0000 0.0000 1737.8396 -7348.6030 299.3909 -9086.4426 -7369.2954 300.3385 -307.5672 -240.6415 30124.6365 -34.4689 21.3668
TCL: Running FEP window  16: Lambda1 0.7500000000000001 Lambda2 0.8000000000000002 [dLambda 0.050000000000000044]
TCL: Setting parameter firsttimestep to 0
TCL: Setting parameter alchLambda to 0.7500000000000001
Info: NONBONDED TABLE R-SQUARED SPACING: 0.0625
Info: NONBONDED TABLE SIZE: 705 POINTS
TCL: Setting parameter alchLambda2 to 0.8000000000000002
Info: NONBONDED TABLE R-SQUARED SPACING: 0.0625
Info: NONBONDED TABLE SIZE: 705 POINTS
TCL: Running for 1500000 steps
ETITLE: TS BOND ANGLE DIHED IMPRP ELECT VDW BOUNDARY MISC KINETIC TOTAL TEMP POTENTIAL TOTALAVG TEMPAVG PRESSURE GPRESSURE VOLUME PRESSAVG GPRESSAVG
ENERGY: 0 2.7503 3.9680 0.4570 0.0000 -10452.7926 1358.1796 0.0000 0.0000 1736.9839 -7350.4538 299.2434 -9087.4378 -7350.4538 299.2434 -324.6785 -239.9412 30124.6365 -324.6785 -239.9412
ENERGY: 300000 0.4322 4.9668 0.4126 0.0000 -10615.1476 1427.0027 0.0000 0.0000 1729.2588 -7453.0746 297.9126 -9182.3333 -7408.2051 300.7707 -147.2860 -41.2130 30080.9551 -322.3766 -247.2667
ENERGY: 600000 0.0967 2.8167 0.3156 0.0000 -10585.2555 1399.9568 0.0000 0.0000 1788.3391 -7393.7307 308.0908 -9182.0698 -7387.3280 301.3422 -174.2141 -140.1953 30043.8870 -307.6340 -236.1988
ENERGY: 900000 1.8996 5.9736 0.9263 0.0000 -10583.6487 1433.1976 0.0000 0.0000 1766.8041 -7374.8475 304.3808 -9141.6515 -7385.8100 300.9515 176.4819 212.1610 29918.8007 -174.2048 -113.8190
ENERGY: 1200000 1.7464 8.9686 1.7742 0.0000 -10552.8606 1409.6028 0.0000 0.0000 1712.9445 -7417.8240 295.1020 -9130.7685 -7387.3987 301.2198 42.5659 26.3639 30100.7860 -173.8427 -123.3141
ENERGY: 1500000 3.2706 3.7277 0.9500 0.0000 -10577.0608 1365.5350 0.0000 0.0000 1752.4447 -7451.1328 301.9070 -9203.5775 -7397.2733 300.3251 -408.3150 -368.1190 29747.6526 -204.4957 -153.3184
TCL: Running FEP window  17: Lambda1 0.8000000000000002 Lambda2 0.8500000000000002 [dLambda 0.050000000000000044]
TCL: Setting parameter firsttimestep to 0
TCL: Setting parameter alchLambda to 0.8000000000000002
Info: NONBONDED TABLE R-SQUARED SPACING: 0.0625
Info: NONBONDED TABLE SIZE: 705 POINTS
TCL: Setting parameter alchLambda2 to 0.8500000000000002
Info: NONBONDED TABLE R-SQUARED SPACING: 0.0625
Info: NONBONDED TABLE SIZE: 705 POINTS
TCL: Running for 1500000 steps
ETITLE: TS BOND ANGLE DIHED IMPRP ELECT VDW BOUNDARY MISC KINETIC TOTAL TEMP POTENTIAL TOTALAVG TEMPAVG PRESSURE GPRESSURE VOLUME PRESSAVG GPRESSAVG
ENERGY: 0 3.2706 3.7277 0.9500 0.0000 -10577.4963 1365.6841 0.0000 0.0000 1751.5928 -7452.2711 301.7602 -9203.8639 -7452.2711 301.7602 -468.6804 -362.6419 29747.6526 -468.6804 -362.6419
ENERGY: 300000 0.3804 3.5594 1.0912 0.0000 -10573.9238 1487.4132 0.0000 0.0000 1718.8471 -7362.6324 296.1189 -9081.4795 -7405.0066 299.5408 562.1491 624.7495 30187.0821 -60.9879 18.3623
ENERGY: 600000 1.1434 5.0578 0.5387 0.0000 -10657.6209 1459.4415 0.0000 0.0000 1703.4742 -7487.9653 293.4705 -9191.4395 -7387.5163 301.4228 214.6510 265.2675 29842.7370 87.0142 156.8966
ENERGY: 900000 1.3623 6.8958 1.0159 0.0000 -10630.5494 1484.1468 0.0000 0.0000 1743.9216 -7393.2071 300.4386 -9137.1287 -7397.8131 301.4687 436.2919 464.5319 30056.2129 168.8525 235.8478
ENERGY: 1200000 0.4389 5.3168 0.4682 0.0000 -10508.3295 1422.4481 0.0000 0.0000 1706.7648 -7372.8927 294.0374 -9079.6575 -7395.7006 300.4848 163.4824 212.5842 30144.3996 167.5827 234.5691
ENERGY: 1500000 0.2836 5.9261 1.1081 0.0000 -10759.3674 1508.5697 0.0000 0.0000 1789.7232 -7453.7567 308.3292 -9243.4799 -7397.8384 301.1225 648.0988 800.6234 29537.2032 227.4297 301.8050
TCL: Running FEP window  18: Lambda1 0.8500000000000002 Lambda2 0.9000000000000002 [dLambda 0.050000000000000044]
TCL: Setting parameter firsttimestep to 0
TCL: Setting parameter alchLambda to 0.8500000000000002
Info: NONBONDED TABLE R-SQUARED SPACING: 0.0625
Info: NONBONDED TABLE SIZE: 705 POINTS
TCL: Setting parameter alchLambda2 to 0.9000000000000002
Info: NONBONDED TABLE R-SQUARED SPACING: 0.0625
Info: NONBONDED TABLE SIZE: 705 POINTS
TCL: Running for 1500000 steps
ETITLE: TS BOND ANGLE DIHED IMPRP ELECT VDW BOUNDARY MISC KINETIC TOTAL TEMP POTENTIAL TOTALAVG TEMPAVG PRESSURE GPRESSURE VOLUME PRESSAVG GPRESSAVG
ENERGY: 0 0.2836 5.9261 1.1081 0.0000 -10759.2866 1508.2040 0.0000 0.0000 1788.8476 -7454.9172 308.1784 -9243.7648 -7454.9172 308.1784 702.6715 806.2874 29537.2032 702.6715 806.2874
ENERGY: 300000 0.6160 6.9922 1.1088 0.0000 -10442.1166 1362.0796 0.0000 0.0000 1741.2575 -7330.0624 299.9797 -9071.3199 -7401.5329 301.6054 -515.2073 -515.0531 30632.2918 80.5393 150.5365
ENERGY: 600000 0.6026 4.9630 1.0041 0.0000 -10582.5458 1472.6424 0.0000 0.0000 1742.4470 -7360.8867 300.1846 -9103.3337 -7410.0913 298.7860 462.9276 540.6034 30115.8058 90.0585 167.6737
ENERGY: 900000 0.4105 2.9296 1.2688 0.0000 -10628.7489 1467.9318 0.0000 0.0000 1722.5798 -7433.6283 296.7619 -9156.2081 -7409.1774 299.1368 415.0550 492.3654 29789.3567 210.3705 286.4898
ENERGY: 1200000 1.9170 4.1547 1.2289 0.0000 -10537.7436 1388.7961 0.0000 0.0000 1747.9273 -7393.7196 301.1287 -9141.6469 -7403.5357 299.3185 -260.0927 -199.9695 30452.6833 48.4642 122.5770
ENERGY: 1500000 0.8243 5.0847 0.8450 0.0000 -10544.9820 1349.1685 0.0000 0.0000 1716.2054 -7472.8540 295.6638 -9189.0595 -7409.9102 299.5682 -740.8040 -694.2014 30117.2316 -59.0233 13.0362
TCL: Running FEP window  19: Lambda1 0.9000000000000002 Lambda2 0.9500000000000003 [dLambda 0.050000000000000044]
TCL: Setting parameter firsttimestep to 0
TCL: Setting parameter alchLambda to 0.9000000000000002
Info: NONBONDED TABLE R-SQUARED SPACING: 0.0625
Info: NONBONDED TABLE SIZE: 705 POINTS
TCL: Setting parameter alchLambda2 to 0.9500000000000003
Info: NONBONDED TABLE R-SQUARED SPACING: 0.0625
Info: NONBONDED TABLE SIZE: 705 POINTS
TCL: Running for 1500000 steps
ETITLE: TS BOND ANGLE DIHED IMPRP ELECT VDW BOUNDARY MISC KINETIC TOTAL TEMP POTENTIAL TOTALAVG TEMPAVG PRESSURE GPRESSURE VOLUME PRESSAVG GPRESSAVG
ENERGY: 0 0.8243 5.0848 0.8450 0.0000 -10545.4008 1349.6578 0.0000 0.0000 1715.3332 -7473.6558 295.5135 -9188.9889 -7473.6558 295.5135 -754.6872 -677.6712 30117.2316 -754.6872 -677.6712
ENERGY: 300000 0.4434 3.7582 0.4705 0.0000 -10435.2426 1365.3933 0.0000 0.0000 1752.2305 -7312.9466 301.8701 -9065.1771 -7408.5788 299.9529 -23.3969 75.0382 29795.3242 -510.9494 -418.3146
ENERGY: 600000 0.0429 4.0028 0.1756 0.0000 -10597.0576 1419.8879 0.0000 0.0000 1741.2369 -7431.7115 299.9761 -9172.9484 -7421.0123 299.4516 -119.2633 -98.4789 30236.2128 -389.9353 -295.7840
ENERGY: 900000 2.1052 3.3237 0.7950 0.0000 -10493.9073 1305.0473 0.0000 0.0000 1787.1836 -7395.4525 307.8917 -9182.6361 -7400.4633 301.9243 -874.2536 -747.5455 29716.4922 -474.2401 -383.5848
ENERGY: 1200000 0.8197 7.1157 1.0556 0.0000 -10608.9419 1468.6103 0.0000 0.0000 1808.4338 -7322.9068 311.5527 -9131.3406 -7400.6439 301.7705 451.3590 506.8445 30152.2374 -292.1935 -202.8087
ENERGY: 1500000 0.7367 3.3516 0.9244 0.0000 -10543.7120 1447.7694 0.0000 0.0000 1712.6441 -7378.2859 295.0502 -9090.9300 -7396.1276 301.5612 571.6938 552.9833 29797.4716 -254.3524 -174.5248
TCL: Running FEP window  20: Lambda1 0.9500000000000003 Lambda2 1.0    [dLambda 0.04999999999999971]
TCL: Setting parameter firsttimestep to 0
TCL: Setting parameter alchLambda to 0.9500000000000003
Info: NONBONDED TABLE R-SQUARED SPACING: 0.0625
Info: NONBONDED TABLE SIZE: 705 POINTS
TCL: Setting parameter alchLambda2 to 1.0
Info: NONBONDED TABLE R-SQUARED SPACING: 0.0625
Info: NONBONDED TABLE SIZE: 705 POINTS
TCL: Running for 1500000 steps
ETITLE: TS BOND ANGLE DIHED IMPRP ELECT VDW BOUNDARY MISC KINETIC TOTAL TEMP POTENTIAL TOTALAVG TEMPAVG PRESSURE GPRESSURE VOLUME PRESSAVG GPRESSAVG
ENERGY: 0 0.7367 3.3516 0.9244 0.0000 -10544.2985 1448.8596 0.0000 0.0000 1711.8057 -7378.6206 294.9058 -9090.4263 -7378.6206 294.9058 510.5540 578.4820 29797.4716 510.5540 578.4820
ENERGY: 300000 0.3300 4.6608 1.2251 0.0000 -10501.1301 1397.2031 0.0000 0.0000 1738.8948 -7358.8163 299.5726 -9097.7112 -7367.1938 296.9667 -167.9029 -43.0592 30155.6003 327.3503 397.1345
ENERGY: 600000 0.8870 9.6483 1.6797 0.0000 -10721.5248 1470.0789 0.0000 0.0000 1737.1379 -7502.0930 299.2700 -9239.2309 -7406.5114 297.1871 101.6098 202.2703 30101.9836 115.3459 178.7993
ENERGY: 900000 0.4362 4.5534 1.6253 0.0000 -10802.8029 1588.1348 0.0000 0.0000 1698.7540 -7509.2992 292.6573 -9208.0532 -7428.8854 296.3321 952.0883 1061.9737 30108.8631 183.6111 248.3033
ENERGY: 1200000 0.2917 2.6278 1.9365 0.0000 -10561.0803 1465.8124 0.0000 0.0000 1713.3941 -7377.0179 295.1794 -9090.4120 -7424.6866 296.4259 377.7839 463.3762 30327.6601 190.0858 245.0855
ENERGY: 1500000 0.4554 5.1577 0.4133 0.0000 -10659.7504 1508.4634 0.0000 0.0000 1714.7535 -7430.5071 295.4136 -9145.2606 -7429.2146 296.4817 562.1620 704.2460 30139.5611 120.4506 180.0254
TCL: Exiting due to exit command.
