Info: SIMULATION PARAMETERS:
Info: TIMESTEP               2
Info: NUMBER OF STEPS        0
Info: STEPS PER CYCLE        10
Info: PERIODIC CELL BASIS 1  30.5645 0 0
Info: PERIODIC CELL BASIS 2  0 31.9841 0
Info: PERIODIC CELL BASIS 3  0 0 31.2083
Info: PERIODIC CELL CENTER   0 0 0
Info: WRAPPING WATERS AROUND PERIODIC BOUNDARIES ON OUTPUT.
Info: WRAPPING ALL CLUSTERS AROUND PERIODIC BOUNDARIES ON OUTPUT.
Info: FIRST LDB TIMESTEP     50
Info: LAST LDB TIMESTEP     -1
Info: HOM BACKGROUND SCALING 1
Info: PME BACKGROUND SCALING 1
Info: MIN ATOMS PER PATCH    40
Info: EMPTY PATCH LOAD       40 ATOMS
Info: VELOCITY FILE          mobley_6334915_equil.vel
Info: CENTER OF MASS MOVING INITIALLY? NO
Info: DIELECTRIC             1
Info: EXCLUDE                SCALED ONE-FOUR
Info: 1-4 ELECTROSTATICS SCALED BY 0.833333
Info: MODIFIED 1-4 VDW PARAMETERS WILL BE USED
Info: DCD FILENAME           mobley_6334915_prod.dcd
Info: DCD FREQUENCY          100000
Info: DCD FIRST STEP         100000
Info: DCD FILE WILL CONTAIN UNIT CELL DATA
Info: XST FILENAME           mobley_6334915_prod.xst
Info: XST FREQUENCY          100000
Info: NO VELOCITY DCD OUTPUT
Info: NO FORCE DCD OUTPUT
Info: OUTPUT FILENAME        mobley_6334915_prod
Info: BINARY OUTPUT FILES WILL BE USED
Info: RESTART FILENAME       mobley_6334915_prod.restart
Info: RESTART FREQUENCY      100000
Info: BINARY RESTART FILES WILL BE USED
Info: CUTOFF                 9
Info: PAIRLIST DISTANCE      11
Info: PAIRLIST SHRINK RATE   0.01
Info: PAIRLIST GROW RATE     0.01
Info: PAIRLIST TRIGGER       0.3
Info: PAIRLISTS PER CYCLE    2
Info: PAIRLISTS ENABLED
Info: MARGIN                 2
Info: HYDROGEN GROUP CUTOFF  2.5
Info: PATCH DIMENSION        15.5
Info: ENERGY OUTPUT STEPS    100000
Info: ENERGY EVALUATION STEPS    100000
Info: OUTPUT ENERGY PRECISION 4
Info: CROSSTERM ENERGY INCLUDED IN DIHEDRAL
Info: TIMING OUTPUT STEPS    1000000
Info: PRESSURE OUTPUT STEPS  100000
Info: ALCHEMICAL FEP ON
Info: FEP CURRENT LAMBDA VALUE     0
Info: FEP COMPARISON LAMBDA VALUE  0.05
Info: FEP INTRA-ALCHEMICAL NON-BONDED INTERACTIONS WILL BE RETAINED
Info: FEP INTRA-ALCHEMICAL BONDED INTERACTIONS WILL BE RETAINED
Info: FEP VDW SHIFTING COEFFICIENT 5
Info: FEP ELEC. ACTIVE FOR ANNIHILATED PARTICLES BETWEEN LAMBDA = 0 AND LAMBDA = 0.5
Info: FEP ELEC. ACTIVE FOR EXNIHILATED PARTICLES BETWEEN LAMBDA = 0.5 AND LAMBDA = 1
Info: FEP VDW ACTIVE FOR ANNIHILATED PARTICLES BETWEEN LAMBDA = 0 AND LAMBDA = 1
Info: FEP VDW ACTIVE FOR EXNIHILATED PARTICLES BETWEEN LAMBDA = 0 AND LAMBDA = 1
Info: FEP BOND ACTIVE FOR ANNIHILATED PARTICLES BETWEEN LAMBDA = 1 AND LAMBDA = 1
Info: FEP BOND ACTIVE FOR EXNIHILATED PARTICLES BETWEEN LAMBDA = 0 AND LAMBDA = 0
Info: LANGEVIN DYNAMICS ACTIVE
Info: LANGEVIN TEMPERATURE   300
Info: LANGEVIN USING BBK INTEGRATOR
Info: LANGEVIN DAMPING COEFFICIENT IS 1 INVERSE PS
Info: LANGEVIN DYNAMICS APPLIED TO HYDROGENS
Info: LANGEVIN PISTON PRESSURE CONTROL ACTIVE
Info:        TARGET PRESSURE IS 1.01325 BAR
Info:     OSCILLATION PERIOD IS 50 FS
Info:             DECAY TIME IS 25 FS
Info:     PISTON TEMPERATURE IS 300 K
Info:       PRESSURE CONTROL IS GROUP-BASED
Info:    INITIAL STRAIN RATE IS -0.000230975 -0.000230975 -0.000230975
Info:       CELL FLUCTUATION IS ISOTROPIC
Info: PARTICLE MESH EWALD (PME) ACTIVE
Info: PME TOLERANCE               1e-06
Info: PME EWALD COEFFICIENT       0.348832
Info: PME INTERPOLATION ORDER     4
Info: PME GRID DIMENSIONS         32 32 32
Info: PME MAXIMUM GRID SPACING    1
Info: PME CALCULATION WILL BE PERFORMED ON GPU
Info: FULL ELECTROSTATIC EVALUATION FREQUENCY      2
Info: USING VERLET I (r-RESPA) MTS SCHEME.
Info: C1 SPLITTING OF LONG RANGE ELECTROSTATICS
Info: PLACING ATOMS IN PATCHES BY HYDROGEN GROUPS
Info: RIGID BONDS TO HYDROGEN : ALL
Info:         ERROR TOLERANCE : 1e-08
Info:          MAX ITERATIONS : 100
Info: RIGID WATER USING SETTLE ALGORITHM
Info: RANDOM NUMBER SEED     1743934389
Info: USE HYDROGEN BONDS?    NO
Info: Using AMBER format force field!
Info: AMBER PARM FILE        mobley_6334915.prmtop
Info: COORDINATE PDB         mobley_6334915.pdb
Info: Exclusions will be read from PARM file!
Info: SCNB (VDW SCALING)     2
Info: USING ARITHMETIC MEAN TO COMBINE L-J SIGMA PARAMETERS
Info: BINARY COORDINATES     mobley_6334915_equil.coor
Info: SUMMARY OF PARAMETERS:
Info: 11 BONDS
Info: 16 ANGLES
Info:   16 HARMONIC
Info:   0 COSINE-BASED
Info: 12 DIHEDRAL
Info: 0 IMPROPER
Info: 0 CROSSTERM
Info: 0 VDW
Info: 45 VDW_PAIRS
Info: 0 NBTHOLE_PAIRS
Info: To read alchdata from file: mobley_6334915.pdb
Info: To read alchflag data from column: 5
Info: STRUCTURE SUMMARY:
Info: 2987 ATOMS
Info: 2986 BONDS
Info: 33 ANGLES
Info: 41 DIHEDRALS
Info: 0 IMPROPERS
Info: 0 CROSSTERMS
Info: 3052 EXCLUSIONS
Info: 2975 RIGID BONDS
Info: ALCH: 0 ATOMS TO DISAPPEAR IN FINAL STATE
Info: ALCH: 20 ATOMS TO APPEAR IN FINAL STATE
Info: 5986 DEGREES OF FREEDOM
Info: 1001 HYDROGEN GROUPS
Info: 4 ATOMS IN LARGEST HYDROGEN GROUP
Info: 1001 MIGRATION GROUPS
Info: 4 ATOMS IN LARGEST MIGRATION GROUP
Info: TOTAL MASS = 18075.2 amu
Info: TOTAL CHARGE = -9.99272e-05 e
Info: MASS DENSITY = 0.983834 g/cm^3
Info: ATOM DENSITY = 0.097907 atoms/A^3
Info: ADDED 0 IMPLICIT EXCLUSIONS
Info: NONBONDED TABLE R-SQUARED SPACING: 0.0625
Info: NONBONDED TABLE SIZE: 705 POINTS
Info: REMOVING COM VELOCITY 0.00369186 -0.0358826 -0.0942197
Info: Use 3D box decompostion in PME FFT.
Info: Updated CUDA force table with 4096 elements.
Info: Updated CUDA LJ table with 9 x 9 elements.
Info: Found 23 unique exclusion lists needing 52 bytes
TCL: Running for 1500000 steps
ETITLE: TS BOND ANGLE DIHED IMPRP ELECT VDW BOUNDARY MISC KINETIC TOTAL TEMP POTENTIAL TOTALAVG TEMPAVG PRESSURE GPRESSURE VOLUME PRESSAVG GPRESSAVG
ENERGY: 0 2.7776 12.1230 10.2497 0.0000 -10756.5316 1405.5587 0.0000 0.0000 1795.7920 -7530.0306 301.9324 -9325.8226 -7530.0306 301.9324 -195.4004 -102.6825 30508.5441 -195.4004 -102.6825
ENERGY: 300000 1.7144 16.7541 9.3644 0.0000 -10756.6455 1408.7212 0.0000 0.0000 1775.7683 -7544.3231 298.5657 -9320.0914 -7540.6864 299.4519 -284.5741 -263.5844 30481.6880 -512.9184 -432.7540
ENERGY: 600000 2.8714 5.9797 6.9844 0.0000 -10867.2328 1427.1325 0.0000 0.0000 1768.6199 -7655.6450 297.3638 -9424.2648 -7594.3981 297.7542 -833.5915 -760.1825 30900.3137 -487.7766 -420.6427
ENERGY: 900000 3.3092 10.8827 9.1776 0.0000 -10819.8268 1464.7004 0.0000 0.0000 1727.2856 -7604.4712 290.4142 -9331.7569 -7577.1784 297.8170 116.0491 140.6781 30243.0507 -374.9563 -314.1904
ENERGY: 1200000 4.1044 8.0430 8.8029 0.0000 -10728.2898 1374.0116 0.0000 0.0000 1787.1541 -7546.1737 300.4801 -9333.3278 -7564.8764 298.4915 -742.8162 -673.9621 30609.0762 -396.8273 -340.1710
ENERGY: 1500000 3.3501 15.9986 7.8742 0.0000 -11085.4397 1622.2840 0.0000 0.0000 1803.0477 -7632.8851 303.1523 -9435.9328 -7561.6110 299.3167 720.5954 783.5395 30902.1242 -311.3410 -252.2781
TCL: Running FEP window   2: Lambda1 0.05   Lambda2 0.1    [dLambda 0.05  ]
TCL: Setting parameter firsttimestep to 0
TCL: Setting parameter alchLambda to 0.05
Info: NONBONDED TABLE R-SQUARED SPACING: 0.0625
Info: NONBONDED TABLE SIZE: 705 POINTS
TCL: Setting parameter alchLambda2 to 0.1
Info: NONBONDED TABLE R-SQUARED SPACING: 0.0625
Info: NONBONDED TABLE SIZE: 705 POINTS
TCL: Running for 1500000 steps
ETITLE: TS BOND ANGLE DIHED IMPRP ELECT VDW BOUNDARY MISC KINETIC TOTAL TEMP POTENTIAL TOTALAVG TEMPAVG PRESSURE GPRESSURE VOLUME PRESSAVG GPRESSAVG
ENERGY: 0 3.3501 15.9986 7.8742 0.0000 -11085.4397 1629.9017 0.0000 0.0000 1802.1649 -7626.1502 303.0039 -9428.3150 -7626.1502 303.0039 706.5613 797.1714 30902.1242 706.5613 797.1714
ENERGY: 300000 3.5734 9.3761 9.9789 0.0000 -10698.6510 1425.7521 0.0000 0.0000 1771.0363 -7478.9342 297.7701 -9249.9705 -7536.6362 302.9216 301.4169 319.6322 30356.9000 109.5366 151.2125
ENERGY: 600000 4.1661 14.8771 8.3438 0.0000 -10767.1878 1413.1869 0.0000 0.0000 1757.3340 -7569.2798 295.4663 -9326.6138 -7532.1761 301.9599 -294.3248 -235.9692 30533.0703 184.9887 235.2181
ENERGY: 900000 2.6316 10.2377 7.7118 0.0000 -10904.9060 1499.1603 0.0000 0.0000 1857.6448 -7527.5197 312.3319 -9385.1645 -7525.9429 302.5949 -178.4686 -136.2638 30988.9324 132.6047 180.4416
ENERGY: 1200000 3.4376 10.6099 7.9520 0.0000 -10677.7529 1343.1766 0.0000 0.0000 1806.9312 -7505.6456 303.8053 -9312.5768 -7519.0685 303.1988 -1008.7699 -995.3585 31104.4338 -56.1527 -15.7130
ENERGY: 1500000 4.7477 7.6157 8.8875 0.0000 -10770.4793 1407.3810 0.0000 0.0000 1803.6343 -7538.2132 303.2509 -9341.8476 -7522.1430 302.9899 -288.8905 -166.1861 30618.0586 -66.7931 -16.0740
TCL: Running FEP window   3: Lambda1 0.1    Lambda2 0.15000000000000002 [dLambda 0.05000000000000002]
TCL: Setting parameter firsttimestep to 0
TCL: Setting parameter alchLambda to 0.1
Info: NONBONDED TABLE R-SQUARED SPACING: 0.0625
Info: NONBONDED TABLE SIZE: 705 POINTS
TCL: Setting parameter alchLambda2 to 0.15000000000000002
Info: NONBONDED TABLE R-SQUARED SPACING: 0.0625
Info: NONBONDED TABLE SIZE: 705 POINTS
TCL: Running for 1500000 steps
ETITLE: TS BOND ANGLE DIHED IMPRP ELECT VDW BOUNDARY MISC KINETIC TOTAL TEMP POTENTIAL TOTALAVG TEMPAVG PRESSURE GPRESSURE VOLUME PRESSAVG GPRESSAVG
ENERGY: 0 4.7477 7.6157 8.8875 0.0000 -10770.4779 1409.2569 0.0000 0.0000 1802.7593 -7537.2109 303.1038 -9339.9702 -7537.2109 303.1038 -245.2163 -156.4985 30618.0586 -245.2163 -156.4985
ENERGY: 300000 5.6125 10.2384 7.5726 0.0000 -10889.6289 1577.7381 0.0000 0.0000 1818.5836 -7469.8836 305.7644 -9288.4672 -7511.7840 305.6460 818.7004 899.1365 30536.2423 219.0604 270.2820
ENERGY: 600000 4.4992 6.8063 7.3534 0.0000 -10768.9289 1473.0455 0.0000 0.0000 1820.0628 -7457.1618 306.0131 -9277.2246 -7496.7483 304.6730 491.6368 545.5793 30638.2275 181.5254 233.8382
ENERGY: 900000 5.0980 14.2846 9.4764 0.0000 -10760.0293 1469.2980 0.0000 0.0000 1841.8002 -7420.0721 309.6679 -9261.8723 -7503.2935 304.8327 52.5336 87.3712 30924.5480 215.8023 257.8176
ENERGY: 1200000 3.8965 12.2024 9.0309 0.0000 -10876.8905 1488.5214 0.0000 0.0000 1795.8051 -7567.4342 301.9346 -9363.2393 -7513.1510 303.3055 282.1832 393.2188 30094.6155 212.8583 262.1214
ENERGY: 1500000 1.7150 8.1150 9.9188 0.0000 -10900.9534 1527.5860 0.0000 0.0000 1783.6194 -7569.9992 299.8858 -9353.6186 -7517.4730 303.7635 850.4788 804.4580 30357.7454 186.8359 232.4982
TCL: Running FEP window   4: Lambda1 0.15000000000000002 Lambda2 0.2    [dLambda 0.04999999999999999]
TCL: Setting parameter firsttimestep to 0
TCL: Setting parameter alchLambda to 0.15000000000000002
Info: NONBONDED TABLE R-SQUARED SPACING: 0.0625
Info: NONBONDED TABLE SIZE: 705 POINTS
TCL: Setting parameter alchLambda2 to 0.2
Info: NONBONDED TABLE R-SQUARED SPACING: 0.0625
Info: NONBONDED TABLE SIZE: 705 POINTS
TCL: Running for 1500000 steps
ETITLE: TS BOND ANGLE DIHED IMPRP ELECT VDW BOUNDARY MISC KINETIC TOTAL TEMP POTENTIAL TOTALAVG TEMPAVG PRESSURE GPRESSURE VOLUME PRESSAVG GPRESSAVG
ENERGY: 0 1.7150 8.1150 9.9188 0.0000 -10900.9531 1528.0372 0.0000 0.0000 1782.7202 -7570.4469 299.7346 -9353.1671 -7570.4469 299.7346 725.9681 809.8872 30357.7454 725.9681 809.8872
ENERGY: 300000 5.8053 7.3182 8.3350 0.0000 -10771.6627 1390.4839 0.0000 0.0000 1794.4426 -7565.2777 301.7055 -9359.7203 -7516.4145 302.5014 -353.0428 -328.0351 30374.9703 11.4898 63.3999
ENERGY: 600000 8.3166 12.0047 7.0302 0.0000 -10722.8374 1369.9287 0.0000 0.0000 1763.8295 -7561.7276 296.5584 -9325.5571 -7518.2558 302.9163 -908.8474 -887.2287 30753.9370 47.0940 103.5276
ENERGY: 900000 4.7400 11.9106 10.4175 0.0000 -10850.7668 1498.7985 0.0000 0.0000 1829.2935 -7495.6066 307.5651 -9324.9001 -7512.1037 302.6461 118.9766 158.3158 30712.7424 7.0270 61.4711
ENERGY: 1200000 2.2857 13.2120 8.8648 0.0000 -10719.4178 1405.0477 0.0000 0.0000 1851.6763 -7438.3312 311.3284 -9290.0075 -7508.0715 302.8038 -340.9248 -259.2652 30586.5144 -52.3442 8.2727
ENERGY: 1500000 2.8884 9.8233 7.7178 0.0000 -10863.5291 1434.5708 0.0000 0.0000 1775.1744 -7633.3544 298.4659 -9408.5288 -7527.2476 301.7052 -233.9942 -128.4511 30252.9853 -56.4646 1.8940
TCL: Running FEP window   5: Lambda1 0.2    Lambda2 0.25   [dLambda 0.04999999999999999]
TCL: Setting parameter firsttimestep to 0
TCL: Setting parameter alchLambda to 0.2
Info: NONBONDED TABLE R-SQUARED SPACING: 0.0625
Info: NONBONDED TABLE SIZE: 705 POINTS
TCL: Setting parameter alchLambda2 to 0.25
Info: NONBONDED TABLE R-SQUARED SPACING: 0.0625
Info: NONBONDED TABLE SIZE: 705 POINTS
TCL: Running for 1500000 steps
ETITLE: TS BOND ANGLE DIHED IMPRP ELECT VDW BOUNDARY MISC KINETIC TOTAL TEMP POTENTIAL TOTALAVG TEMPAVG PRESSURE GPRESSURE VOLUME PRESSAVG GPRESSAVG
ENERGY: 0 2.8884 9.8233 7.7178 0.0000 -10863.5291 1434.3204 0.0000 0.0000 1774.2804 -7634.4988 298.3156 -9408.7792 -7634.4988 298.3156 -209.6896 -127.1312 30252.9853 -209.6896 -127.1312
ENERGY: 300000 3.9361 6.7004 9.2084 0.0000 -10858.6509 1463.5730 0.0000 0.0000 1787.4355 -7587.7975 300.5274 -9375.2330 -7540.9666 303.0121 41.5320 71.6786 30297.1761 -245.6779 -203.5894
ENERGY: 600000 3.3587 7.7857 10.3723 0.0000 -10804.5893 1458.1466 0.0000 0.0000 1747.8496 -7577.0765 293.8717 -9324.9261 -7542.4703 301.5714 2.6794 54.7863 30546.2672 -158.2688 -120.1442
ENERGY: 900000 3.2033 13.7599 9.2636 0.0000 -10686.7808 1424.9666 0.0000 0.0000 1814.6928 -7420.8947 305.1102 -9235.5874 -7541.8402 301.7604 -135.6844 -71.5898 31141.5291 -152.3876 -104.7717
ENERGY: 1200000 3.0168 12.4762 7.7135 0.0000 -10633.0409 1279.8260 0.0000 0.0000 1841.6529 -7488.3555 309.6431 -9330.0084 -7535.5711 302.4796 -1461.9168 -1392.5627 30835.3167 -220.0759 -167.9879
ENERGY: 1500000 5.1710 9.8637 7.9037 0.0000 -10822.1795 1480.9868 0.0000 0.0000 1783.5307 -7534.7237 299.8709 -9318.2544 -7538.7758 301.1951 119.7069 199.5234 30762.6040 -206.3263 -150.3211
TCL: Running FEP window   6: Lambda1 0.25   Lambda2 0.3    [dLambda 0.04999999999999999]
TCL: Setting parameter firsttimestep to 0
TCL: Setting parameter alchLambda to 0.25
Info: NONBONDED TABLE R-SQUARED SPACING: 0.0625
Info: NONBONDED TABLE SIZE: 705 POINTS
TCL: Setting parameter alchLambda2 to 0.3
Info: NONBONDED TABLE R-SQUARED SPACING: 0.0625
Info: NONBONDED TABLE SIZE: 705 POINTS
TCL: Running for 1500000 steps
ETITLE: TS BOND ANGLE DIHED IMPRP ELECT VDW BOUNDARY MISC KINETIC TOTAL TEMP POTENTIAL TOTALAVG TEMPAVG PRESSURE GPRESSURE VOLUME PRESSAVG GPRESSAVG
ENERGY: 0 5.1709 9.8637 7.9037 0.0000 -10822.1783 1481.4397 0.0000 0.0000 1782.6572 -7535.1431 299.7240 -9317.8003 -7535.1431 299.7240 110.5664 203.5456 30762.6040 110.5664 203.5456
ENERGY: 300000 3.5017 11.2326 8.7275 0.0000 -10716.6589 1404.0287 0.0000 0.0000 1765.3102 -7523.8581 296.8074 -9289.1684 -7558.4532 297.5831 -316.1468 -263.7853 30898.9398 -291.0882 -225.9291
ENERGY: 600000 4.1412 16.7406 8.4076 0.0000 -10751.2371 1441.6138 0.0000 0.0000 1779.8067 -7500.5272 299.2447 -9280.3339 -7553.1895 297.7883 -115.4135 -22.4255 30779.9248 -226.0668 -155.8131
ENERGY: 900000 6.7520 14.5532 10.2484 0.0000 -10781.7755 1413.3848 0.0000 0.0000 1790.6386 -7546.1985 301.0659 -9336.8372 -7545.5098 299.1114 -746.4082 -670.0096 31160.1971 -255.8829 -183.5017
ENERGY: 1200000 6.0664 10.3783 8.3289 0.0000 -10629.0428 1347.5174 0.0000 0.0000 1820.7169 -7436.0348 306.1231 -9256.7517 -7537.0556 299.0334 -566.7122 -563.0456 30625.1597 -317.6732 -251.7492
ENERGY: 1500000 2.7103 10.1567 8.9714 0.0000 -10862.2057 1449.7670 0.0000 0.0000 1786.5076 -7604.0928 300.3714 -9390.6004 -7534.9953 299.8666 -226.2883 -101.8241 30600.1458 -233.2992 -165.3130
TCL: Running FEP window   7: Lambda1 0.3    Lambda2 0.35   [dLambda 0.04999999999999999]
TCL: Setting parameter firsttimestep to 0
TCL: Setting parameter alchLambda to 0.3
Info: NONBONDED TABLE R-SQUARED SPACING: 0.0625
Info: NONBONDED TABLE SIZE: 705 POINTS
TCL: Setting parameter alchLambda2 to 0.35
Info: NONBONDED TABLE R-SQUARED SPACING: 0.0625
Info: NONBONDED TABLE SIZE: 705 POINTS
TCL: Running for 1500000 steps
ETITLE: TS BOND ANGLE DIHED IMPRP ELECT VDW BOUNDARY MISC KINETIC TOTAL TEMP POTENTIAL TOTALAVG TEMPAVG PRESSURE GPRESSURE VOLUME PRESSAVG GPRESSAVG
ENERGY: 0 2.7103 10.1567 8.9714 0.0000 -10862.2064 1449.8400 0.0000 0.0000 1785.6271 -7604.9010 300.2233 -9390.5280 -7604.9010 300.2233 -177.9525 -96.1508 30600.1458 -177.9525 -96.1508
ENERGY: 300000 3.3367 8.6138 8.6283 0.0000 -11027.1286 1587.7348 0.0000 0.0000 1734.2084 -7684.6065 291.5781 -9418.8149 -7589.5860 299.6808 940.9710 1104.4156 30032.4351 322.6009 404.1659
ENERGY: 600000 2.6615 13.2079 10.0495 0.0000 -10724.1119 1416.2457 0.0000 0.0000 1774.7646 -7507.1828 298.3970 -9281.9474 -7551.1983 298.9982 -127.7806 -87.8299 30763.3277 11.5045 84.9254
ENERGY: 900000 3.5855 14.0037 8.2129 0.0000 -10768.9234 1390.6528 0.0000 0.0000 1774.2680 -7578.2005 298.3135 -9352.4685 -7553.8499 299.6528 -373.4153 -372.2898 30482.3316 -45.6318 20.3626
ENERGY: 1200000 5.7004 12.0791 9.3372 0.0000 -10824.9896 1482.9913 0.0000 0.0000 1775.8669 -7539.0147 298.5823 -9314.8816 -7545.0078 299.4680 375.1783 396.2137 30407.2950 26.1376 81.8130
ENERGY: 1500000 3.9122 12.2040 9.7888 0.0000 -10780.4967 1432.6561 0.0000 0.0000 1836.7672 -7485.1685 308.8217 -9321.9356 -7532.7761 300.9145 -338.8398 -246.1031 31001.8105 -31.8121 28.2759
TCL: Running FEP window   8: Lambda1 0.35   Lambda2 0.39999999999999997 [dLambda 0.04999999999999999]
TCL: Setting parameter firsttimestep to 0
TCL: Setting parameter alchLambda to 0.35
Info: NONBONDED TABLE R-SQUARED SPACING: 0.0625
Info: NONBONDED TABLE SIZE: 705 POINTS
TCL: Setting parameter alchLambda2 to 0.39999999999999997
Info: NONBONDED TABLE R-SQUARED SPACING: 0.0625
Info: NONBONDED TABLE SIZE: 705 POINTS
TCL: Running for 1500000 steps
ETITLE: TS BOND ANGLE DIHED IMPRP ELECT VDW BOUNDARY MISC KINETIC TOTAL TEMP POTENTIAL TOTALAVG TEMPAVG PRESSURE GPRESSURE VOLUME PRESSAVG GPRESSAVG
ENERGY: 0 3.9122 12.2040 9.7888 0.0000 -10780.4947 1432.7781 0.0000 0.0000 1835.8836 -7485.9280 308.6731 -9321.8116 -7485.9280 308.6731 -331.5716 -237.1473 31001.8105 -331.5716 -237.1473
ENERGY: 300000 2.8447 10.0389 8.5062 0.0000 -10739.9442 1418.2909 0.0000 0.0000 1803.0759 -7497.1877 303.1571 -9300.2636 -7520.9177 302.4421 -155.8951 61.3337 30478.1346 -366.0111 -258.0893
ENERGY: 600000 3.1476 10.5170 10.0011 0.0000 -10779.3054 1516.9880 0.0000 0.0000 1739.1868 -7499.4648 292.4152 -9238.6516 -7523.4069 300.9746 766.5974 800.8385 30594.5376 -135.5088 -54.8414
ENERGY: 900000 4.0968 8.2554 12.5815 0.0000 -10964.3463 1515.6406 0.0000 0.0000 1755.1358 -7668.6362 295.0967 -9423.7720 -7543.5569 299.7210 -4.6012 90.2273 30894.0724 -138.4074 -67.4924
ENERGY: 1200000 2.4788 9.9588 9.4353 0.0000 -10881.2337 1453.8261 0.0000 0.0000 1809.0709 -7596.4638 304.1650 -9405.5347 -7541.7090 301.1073 30.9106 98.5943 30435.4732 -121.8237 -47.8986
ENERGY: 1500000 4.9809 13.6324 8.1241 0.0000 -10949.8320 1538.6897 0.0000 0.0000 1831.3813 -7553.0235 307.9161 -9384.4048 -7550.3598 300.7311 686.3785 728.4823 30577.4131 11.4493 82.8574
TCL: Running FEP window   9: Lambda1 0.39999999999999997 Lambda2 0.44999999999999996 [dLambda 0.04999999999999999]
TCL: Setting parameter firsttimestep to 0
TCL: Setting parameter alchLambda to 0.39999999999999997
Info: NONBONDED TABLE R-SQUARED SPACING: 0.0625
Info: NONBONDED TABLE SIZE: 705 POINTS
TCL: Setting parameter alchLambda2 to 0.44999999999999996
Info: NONBONDED TABLE R-SQUARED SPACING: 0.0625
Info: NONBONDED TABLE SIZE: 705 POINTS
TCL: Running for 1500000 steps
ETITLE: TS BOND ANGLE DIHED IMPRP ELECT VDW BOUNDARY MISC KINETIC TOTAL TEMP POTENTIAL TOTALAVG TEMPAVG PRESSURE GPRESSURE VOLUME PRESSAVG GPRESSAVG
ENERGY: 0 4.9809 13.6324 8.1241 0.0000 -10949.8337 1538.4256 0.0000 0.0000 1830.4929 -7554.1777 307.7668 -9384.6706 -7554.1777 307.7668 667.0525 732.3955 30577.4131 667.0525 732.3955
ENERGY: 300000 3.6207 12.9077 10.5275 0.0000 -10873.4228 1503.2069 0.0000 0.0000 1784.2236 -7558.9363 299.9874 -9343.1599 -7551.0311 304.5821 141.2953 184.8610 30948.0503 100.7638 149.9477
ENERGY: 600000 1.7489 10.9574 8.5154 0.0000 -10813.9300 1468.1618 0.0000 0.0000 1829.2559 -7495.2906 307.5588 -9324.5465 -7544.7505 302.9084 431.4362 506.7929 30206.3577 -60.5092 -2.7660
ENERGY: 900000 3.6299 7.5654 9.3214 0.0000 -10807.0332 1472.6576 0.0000 0.0000 1817.9859 -7495.8730 305.6639 -9313.8589 -7531.3409 303.3662 -6.0306 38.5834 30916.4503 -99.7758 -32.2531
ENERGY: 1200000 6.2893 11.2815 8.9931 0.0000 -10766.7807 1408.2131 0.0000 0.0000 1700.8838 -7631.1199 285.9752 -9332.0037 -7532.6756 302.4004 -425.8139 -362.4854 30601.3480 -65.7610 -4.4699
ENERGY: 1500000 5.1090 9.0019 9.3940 0.0000 -10691.3276 1373.4811 0.0000 0.0000 1761.4060 -7532.9356 296.1510 -9294.3416 -7535.7290 301.9397 -828.1694 -813.6010 31210.6665 -113.7955 -54.7186
TCL: Running FEP window  10: Lambda1 0.44999999999999996 Lambda2 0.49999999999999994 [dLambda 0.04999999999999999]
TCL: Setting parameter firsttimestep to 0
TCL: Setting parameter alchLambda to 0.44999999999999996
Info: NONBONDED TABLE R-SQUARED SPACING: 0.0625
Info: NONBONDED TABLE SIZE: 705 POINTS
TCL: Setting parameter alchLambda2 to 0.49999999999999994
Info: NONBONDED TABLE R-SQUARED SPACING: 0.0625
Info: NONBONDED TABLE SIZE: 705 POINTS
TCL: Running for 1500000 steps
ETITLE: TS BOND ANGLE DIHED IMPRP ELECT VDW BOUNDARY MISC KINETIC TOTAL TEMP POTENTIAL TOTALAVG TEMPAVG PRESSURE GPRESSURE VOLUME PRESSAVG GPRESSAVG
ENERGY: 0 5.1091 9.0019 9.3940 0.0000 -10691.3268 1373.6809 0.0000 0.0000 1760.5093 -7533.6317 296.0002 -9294.1410 -7533.6317 296.0002 -876.7967 -803.2660 31210.6665 -876.7967 -803.2660
ENERGY: 300000 2.8320 6.9813 8.8445 0.0000 -10665.3350 1339.7465 0.0000 0.0000 1810.2898 -7496.6409 304.3700 -9306.9307 -7529.0363 300.1543 -806.7451 -678.8639 30797.2276 -485.0493 -411.9142
ENERGY: 600000 1.8006 6.8015 10.2450 0.0000 -10743.6194 1397.6189 0.0000 0.0000 1805.0724 -7522.0811 303.4927 -9327.1535 -7521.8121 301.4056 -290.3385 -301.4514 30761.2555 -225.8911 -172.8518
ENERGY: 900000 4.0475 11.8732 8.0734 0.0000 -10856.8146 1416.3262 0.0000 0.0000 1823.0028 -7593.4915 306.5074 -9416.4943 -7530.3086 301.8770 -323.4174 -184.7191 29855.9244 -197.2744 -134.5654
ENERGY: 1200000 3.6203 8.7064 11.2344 0.0000 -10777.1624 1429.9654 0.0000 0.0000 1826.4854 -7497.1506 307.0930 -9323.6359 -7526.2106 301.9063 271.0352 385.1254 30105.2314 -202.3772 -134.4552
ENERGY: 1500000 6.1421 10.7059 7.8900 0.0000 -10718.5806 1406.3888 0.0000 0.0000 1764.1045 -7523.3494 296.6047 -9287.4539 -7530.4576 301.0062 -224.1054 -219.9748 30801.2191 -246.7369 -185.7410
TCL: Running FEP window  11: Lambda1 0.49999999999999994 Lambda2 0.5499999999999999 [dLambda 0.04999999999999999]
TCL: Setting parameter firsttimestep to 0
TCL: Setting parameter alchLambda to 0.49999999999999994
Info: NONBONDED TABLE R-SQUARED SPACING: 0.0625
Info: NONBONDED TABLE SIZE: 705 POINTS
TCL: Setting parameter alchLambda2 to 0.5499999999999999
Info: NONBONDED TABLE R-SQUARED SPACING: 0.0625
Info: NONBONDED TABLE SIZE: 705 POINTS
TCL: Running for 1500000 steps
ETITLE: TS BOND ANGLE DIHED IMPRP ELECT VDW BOUNDARY MISC KINETIC TOTAL TEMP POTENTIAL TOTALAVG TEMPAVG PRESSURE GPRESSURE VOLUME PRESSAVG GPRESSAVG
ENERGY: 0 6.1421 10.7059 7.8900 0.0000 -10718.5831 1406.0005 0.0000 0.0000 1763.2217 -7524.6230 296.4562 -9287.8447 -7524.6230 296.4562 -303.8315 -215.3730 30801.2191 -303.8315 -215.3730
ENERGY: 300000 4.1185 8.4929 8.8695 0.0000 -10815.3552 1485.6648 0.0000 0.0000 1807.2052 -7501.0043 303.8513 -9308.2095 -7526.0710 298.5175 239.3221 311.7363 30915.4623 95.1500 149.9405
ENERGY: 600000 4.2299 8.9990 7.9802 0.0000 -10745.8293 1395.5589 0.0000 0.0000 1815.1878 -7513.8735 305.1935 -9329.0614 -7500.8119 302.4406 -302.7937 -307.6135 30504.0023 -252.7798 -201.0938
ENERGY: 900000 1.9504 7.6614 8.9366 0.0000 -10748.3520 1453.8603 0.0000 0.0000 1776.5400 -7499.4032 298.6955 -9275.9432 -7496.8763 301.1663 -237.3181 -165.6375 31551.4847 -211.4754 -162.9556
ENERGY: 1200000 3.9735 17.4150 10.0493 0.0000 -10773.1174 1442.1249 0.0000 0.0000 1756.6981 -7542.8565 295.3594 -9299.5546 -7498.5985 301.3591 -245.2306 -126.9193 30957.2999 -160.3972 -102.2290
ENERGY: 1500000 4.6963 12.6145 9.8922 0.0000 -10756.7185 1464.5876 0.0000 0.0000 1847.8107 -7417.1171 310.6785 -9264.9279 -7494.3050 303.0439 213.6749 219.0659 31079.7882 -123.1635 -70.8990
TCL: Running FEP window  12: Lambda1 0.5499999999999999 Lambda2 0.6    [dLambda 0.050000000000000044]
TCL: Setting parameter firsttimestep to 0
TCL: Setting parameter alchLambda to 0.5499999999999999
Info: NONBONDED TABLE R-SQUARED SPACING: 0.0625
Info: NONBONDED TABLE SIZE: 705 POINTS
TCL: Setting parameter alchLambda2 to 0.6
Info: NONBONDED TABLE R-SQUARED SPACING: 0.0625
Info: NONBONDED TABLE SIZE: 705 POINTS
TCL: Running for 1500000 steps
ETITLE: TS BOND ANGLE DIHED IMPRP ELECT VDW BOUNDARY MISC KINETIC TOTAL TEMP POTENTIAL TOTALAVG TEMPAVG PRESSURE GPRESSURE VOLUME PRESSAVG GPRESSAVG
ENERGY: 0 4.6963 12.6145 9.8922 0.0000 -10756.8414 1465.1583 0.0000 0.0000 1846.9000 -7417.5802 310.5253 -9264.4802 -7417.5802 310.5253 154.9678 229.6528 31079.7882 154.9678 229.6528
ENERGY: 300000 1.8238 10.0715 10.4568 0.0000 -10678.8600 1362.8222 0.0000 0.0000 1767.2251 -7526.4606 297.1293 -9293.6857 -7518.0587 297.4411 -540.5215 -539.8356 31169.0471 -117.1072 -44.2431
ENERGY: 600000 3.7681 9.5448 8.5962 0.0000 -10765.8403 1411.3390 0.0000 0.0000 1772.4614 -7560.1308 298.0097 -9332.5922 -7526.1905 297.4686 -214.7914 -178.1781 30531.4347 -152.6697 -85.8274
ENERGY: 900000 2.4903 6.9671 8.2052 0.0000 -10736.8064 1460.8296 0.0000 0.0000 1791.5070 -7466.8072 301.2119 -9258.3141 -7520.1579 299.3737 45.9729 167.5435 31060.7695 -42.9017 21.5339
ENERGY: 1200000 5.8682 13.0622 9.9939 0.0000 -10743.2416 1393.9669 0.0000 0.0000 1816.4060 -7503.9444 305.3983 -9320.3504 -7527.3279 299.2026 -426.2901 -435.5340 30890.8420 -159.8149 -98.8681
ENERGY: 1500000 2.6298 10.2990 9.2638 0.0000 -10889.5847 1533.8614 0.0000 0.0000 1751.6564 -7581.8743 294.5117 -9333.5307 -7525.1229 298.8121 749.7673 754.0804 30535.9235 -81.2025 -32.7394
TCL: Running FEP window  13: Lambda1 0.6    Lambda2 0.65   [dLambda 0.050000000000000044]
TCL: Setting parameter firsttimestep to 0
TCL: Setting parameter alchLambda to 0.6
Info: NONBONDED TABLE R-SQUARED SPACING: 0.0625
Info: NONBONDED TABLE SIZE: 705 POINTS
TCL: Setting parameter alchLambda2 to 0.65
Info: NONBONDED TABLE R-SQUARED SPACING: 0.0625
Info: NONBONDED TABLE SIZE: 705 POINTS
TCL: Running for 1500000 steps
ETITLE: TS BOND ANGLE DIHED IMPRP ELECT VDW BOUNDARY MISC KINETIC TOTAL TEMP POTENTIAL TOTALAVG TEMPAVG PRESSURE GPRESSURE VOLUME PRESSAVG GPRESSAVG
ENERGY: 0 2.6298 10.2990 9.2638 0.0000 -10890.3797 1533.8848 0.0000 0.0000 1750.7735 -7583.5289 294.3633 -9334.3024 -7583.5289 294.3633 688.2467 766.0833 30535.9235 688.2467 766.0833
ENERGY: 300000 3.0634 9.4939 9.7240 0.0000 -10640.3120 1348.3230 0.0000 0.0000 1744.2551 -7525.4526 293.2673 -9269.7077 -7562.7763 298.5951 -619.7224 -522.6238 30937.0509 20.3429 94.0862
ENERGY: 600000 5.1074 12.2440 8.6983 0.0000 -10786.7070 1483.5146 0.0000 0.0000 1788.0548 -7489.0879 300.6315 -9277.1428 -7523.5436 301.4273 246.6285 270.4769 31097.7816 154.4150 211.4850
ENERGY: 900000 4.4494 12.2715 8.9576 0.0000 -10718.5952 1398.0968 0.0000 0.0000 1785.3615 -7509.4584 300.1787 -9294.8198 -7530.2564 301.0348 -320.0174 -269.5108 30837.2104 -34.3556 27.6873
ENERGY: 1200000 7.4106 10.6048 9.8408 0.0000 -11055.5925 1630.1529 0.0000 0.0000 1833.9206 -7563.6629 308.3431 -9397.5834 -7536.1208 300.4965 1510.9238 1568.6987 30519.5248 38.6035 105.4557
ENERGY: 1500000 2.4722 7.1383 10.3553 0.0000 -10699.1684 1384.2425 0.0000 0.0000 1837.3989 -7457.5611 308.9279 -9294.9600 -7532.7306 301.6110 -536.0033 -516.8436 31103.0150 -47.5882 20.5725
TCL: Running FEP window  14: Lambda1 0.65   Lambda2 0.7000000000000001 [dLambda 0.050000000000000044]
TCL: Setting parameter firsttimestep to 0
TCL: Setting parameter alchLambda to 0.65
Info: NONBONDED TABLE R-SQUARED SPACING: 0.0625
Info: NONBONDED TABLE SIZE: 705 POINTS
TCL: Setting parameter alchLambda2 to 0.7000000000000001
Info: NONBONDED TABLE R-SQUARED SPACING: 0.0625
Info: NONBONDED TABLE SIZE: 705 POINTS
TCL: Running for 1500000 steps
ETITLE: TS BOND ANGLE DIHED IMPRP ELECT VDW BOUNDARY MISC KINETIC TOTAL TEMP POTENTIAL TOTALAVG TEMPAVG PRESSURE GPRESSURE VOLUME PRESSAVG GPRESSAVG
ENERGY: 0 2.4722 7.1383 10.3553 0.0000 -10699.7041 1383.6992 0.0000 0.0000 1836.5431 -7459.4960 308.7840 -9296.0390 -7459.4960 308.7840 -595.6084 -517.6228 31103.0150 -595.6084 -517.6228
ENERGY: 300000 2.6628 18.1627 9.0951 0.0000 -10647.9699 1410.2836 0.0000 0.0000 1758.2962 -7449.4695 295.6281 -9207.7657 -7500.2470 299.9880 185.9534 200.7217 30693.5144 37.4033 90.8960
ENERGY: 600000 3.6260 5.9085 10.3666 0.0000 -10809.7716 1451.2795 0.0000 0.0000 1806.4447 -7532.1463 303.7235 -9338.5909 -7506.9472 301.0210 -183.4629 -113.2344 31138.0120 -114.0047 -56.9925
ENERGY: 900000 2.5696 13.8809 9.1215 0.0000 -10772.6458 1458.9322 0.0000 0.0000 1785.5401 -7502.6014 300.2087 -9288.1416 -7500.6985 300.8330 75.5073 72.1297 31090.2113 -176.1717 -123.1879
ENERGY: 1200000 2.7387 11.1874 7.1730 0.0000 -10748.4673 1356.9148 0.0000 0.0000 1793.1140 -7577.3393 301.4821 -9370.4534 -7519.1871 300.7182 -968.4198 -915.3112 31133.3288 -203.1720 -142.2022
ENERGY: 1500000 5.7380 10.4056 10.5302 0.0000 -10740.2203 1433.4288 0.0000 0.0000 1778.5272 -7501.5905 299.0296 -9280.1177 -7516.5585 301.0248 -109.9811 -75.4860 31004.8048 -103.7204 -38.0691
TCL: Running FEP window  15: Lambda1 0.7000000000000001 Lambda2 0.7500000000000001 [dLambda 0.050000000000000044]
TCL: Setting parameter firsttimestep to 0
TCL: Setting parameter alchLambda to 0.7000000000000001
Info: NONBONDED TABLE R-SQUARED SPACING: 0.0625
Info: NONBONDED TABLE SIZE: 705 POINTS
TCL: Setting parameter alchLambda2 to 0.7500000000000001
Info: NONBONDED TABLE R-SQUARED SPACING: 0.0625
Info: NONBONDED TABLE SIZE: 705 POINTS
TCL: Running for 1500000 steps
ETITLE: TS BOND ANGLE DIHED IMPRP ELECT VDW BOUNDARY MISC KINETIC TOTAL TEMP POTENTIAL TOTALAVG TEMPAVG PRESSURE GPRESSURE VOLUME PRESSAVG GPRESSAVG
ENERGY: 0 5.7380 10.4056 10.5302 0.0000 -10742.4621 1433.7943 0.0000 0.0000 1777.6424 -7504.3517 298.8808 -9281.9941 -7504.3517 298.8808 -159.4079 -66.1595 31004.8048 -159.4079 -66.1595
ENERGY: 300000 7.6747 6.9922 7.7103 0.0000 -10656.8562 1371.7188 0.0000 0.0000 1818.4250 -7444.3353 305.7378 -9262.7603 -7518.7954 300.4923 -763.4459 -642.0932 31326.1592 -409.2586 -346.5950
ENERGY: 600000 5.7480 7.3857 8.2880 0.0000 -10783.4225 1415.7463 0.0000 0.0000 1737.5246 -7608.7299 292.1357 -9346.2545 -7541.7797 297.7366 -130.1777 -76.2152 30371.2484 -426.1456 -364.0343
ENERGY: 900000 3.0739 14.0538 7.6817 0.0000 -10690.1288 1382.8100 0.0000 0.0000 1792.7389 -7489.7704 301.4191 -9282.5094 -7546.3935 297.5545 -558.4483 -525.7070 31033.5024 -382.6110 -319.6955
ENERGY: 1200000 2.5239 10.7771 8.8344 0.0000 -10888.2166 1438.9823 0.0000 0.0000 1770.1464 -7656.9525 297.6205 -9427.0989 -7543.4905 298.5038 -244.1625 -144.9311 30327.8482 -282.3643 -211.2599
ENERGY: 1500000 3.7909 11.2518 10.2619 0.0000 -10784.1978 1507.4846 0.0000 0.0000 1765.3660 -7486.0426 296.8168 -9251.4086 -7537.7803 298.0857 285.1110 379.6328 31104.0904 -235.9982 -171.2757
TCL: Running FEP window  16: Lambda1 0.7500000000000001 Lambda2 0.8000000000000002 [dLambda 0.050000000000000044]
TCL: Setting parameter firsttimestep to 0
TCL: Setting parameter alchLambda to 0.7500000000000001
Info: NONBONDED TABLE R-SQUARED SPACING: 0.0625
Info: NONBONDED TABLE SIZE: 705 POINTS
TCL: Setting parameter alchLambda2 to 0.8000000000000002
Info: NONBONDED TABLE R-SQUARED SPACING: 0.0625
Info: NONBONDED TABLE SIZE: 705 POINTS
TCL: Running for 1500000 steps
ETITLE: TS BOND ANGLE DIHED IMPRP ELECT VDW BOUNDARY MISC KINETIC TOTAL TEMP POTENTIAL TOTALAVG TEMPAVG PRESSURE GPRESSURE VOLUME PRESSAVG GPRESSAVG
ENERGY: 0 3.7909 11.2518 10.2619 0.0000 -10785.4132 1507.5134 0.0000 0.0000 1764.4504 -7488.1448 296.6628 -9252.5953 -7488.1448 296.6628 305.0614 391.7547 31104.0904 305.0614 391.7547
ENERGY: 300000 5.0787 12.5707 8.8773 0.0000 -10893.8442 1505.2675 0.0000 0.0000 1823.8188 -7538.2313 306.6446 -9362.0501 -7526.3551 302.3387 656.5529 752.8154 30634.3860 -120.3055 -20.5241
ENERGY: 600000 2.5869 8.6954 8.3876 0.0000 -10750.6295 1455.3602 0.0000 0.0000 1756.5506 -7519.0488 295.3346 -9275.5993 -7506.6038 301.1960 222.8098 246.0398 30847.4684 -65.9533 20.7526
ENERGY: 900000 4.7423 8.7633 8.9607 0.0000 -10863.9025 1422.5822 0.0000 0.0000 1812.4079 -7606.4461 304.7261 -9418.8540 -7519.2584 302.8134 -656.5257 -563.2215 31189.2645 -165.5805 -85.5661
ENERGY: 1200000 5.1689 14.4588 8.9599 0.0000 -10718.9335 1384.0912 0.0000 0.0000 1741.9817 -7564.2729 292.8851 -9306.2546 -7524.3888 301.9628 -268.5362 -226.7919 30428.5432 -203.0510 -133.8181
ENERGY: 1500000 1.1348 8.0163 9.2306 0.0000 -10713.2221 1400.1679 0.0000 0.0000 1748.1771 -7546.4953 293.9267 -9294.6725 -7526.1204 301.3922 -140.0128 -112.6944 30742.5112 -173.0831 -106.0393
TCL: Running FEP window  17: Lambda1 0.8000000000000002 Lambda2 0.8500000000000002 [dLambda 0.050000000000000044]
TCL: Setting parameter firsttimestep to 0
TCL: Setting parameter alchLambda to 0.8000000000000002
Info: NONBONDED TABLE R-SQUARED SPACING: 0.0625
Info: NONBONDED TABLE SIZE: 705 POINTS
TCL: Setting parameter alchLambda2 to 0.8500000000000002
Info: NONBONDED TABLE R-SQUARED SPACING: 0.0625
Info: NONBONDED TABLE SIZE: 705 POINTS
TCL: Running for 1500000 steps
ETITLE: TS BOND ANGLE DIHED IMPRP ELECT VDW BOUNDARY MISC KINETIC TOTAL TEMP POTENTIAL TOTALAVG TEMPAVG PRESSURE GPRESSURE VOLUME PRESSAVG GPRESSAVG
ENERGY: 0 1.1349 8.0163 9.2306 0.0000 -10716.7425 1402.3148 0.0000 0.0000 1747.2661 -7548.7798 293.7736 -9296.0459 -7548.7798 293.7736 -176.5216 -86.3898 30742.5112 -176.5216 -86.3898
ENERGY: 300000 2.7548 14.4101 10.0643 0.0000 -10717.4028 1424.8779 0.0000 0.0000 1797.0149 -7468.2807 302.1380 -9265.2956 -7508.5014 301.8852 105.2259 179.8441 30755.3111 -162.4382 -84.8111
ENERGY: 600000 1.9012 14.3467 8.9065 0.0000 -10831.0272 1481.2171 0.0000 0.0000 1777.7610 -7546.8946 298.9008 -9324.6556 -7521.6408 301.5943 490.2370 575.3109 30466.4088 -0.8388 64.9825
ENERGY: 900000 6.8541 6.1273 7.4039 0.0000 -10927.4790 1462.7403 0.0000 0.0000 1804.6021 -7639.7514 303.4137 -9444.3534 -7540.7603 302.4346 -223.5360 -140.2706 30536.0140 -65.8358 6.1388
ENERGY: 1200000 4.4375 8.6800 9.0891 0.0000 -10757.0514 1368.6639 0.0000 0.0000 1841.6491 -7524.5317 309.6425 -9366.1808 -7538.2435 302.7618 -871.9169 -793.0936 30900.7423 -190.0848 -113.5239
ENERGY: 1500000 3.5202 13.0705 8.2350 0.0000 -10839.8609 1468.8293 0.0000 0.0000 1819.3024 -7526.9035 305.8853 -9346.2058 -7540.7555 302.5937 389.0510 441.0918 30735.5921 -155.6534 -83.8045
TCL: Running FEP window  18: Lambda1 0.8500000000000002 Lambda2 0.9000000000000002 [dLambda 0.050000000000000044]
TCL: Setting parameter firsttimestep to 0
TCL: Setting parameter alchLambda to 0.8500000000000002
Info: NONBONDED TABLE R-SQUARED SPACING: 0.0625
Info: NONBONDED TABLE SIZE: 705 POINTS
TCL: Setting parameter alchLambda2 to 0.9000000000000002
Info: NONBONDED TABLE R-SQUARED SPACING: 0.0625
Info: NONBONDED TABLE SIZE: 705 POINTS
TCL: Running for 1500000 steps
ETITLE: TS BOND ANGLE DIHED IMPRP ELECT VDW BOUNDARY MISC KINETIC TOTAL TEMP POTENTIAL TOTALAVG TEMPAVG PRESSURE GPRESSURE VOLUME PRESSAVG GPRESSAVG
ENERGY: 0 3.5202 13.0705 8.2350 0.0000 -10844.1938 1471.1193 0.0000 0.0000 1818.3915 -7529.8573 305.7321 -9348.2488 -7529.8573 305.7321 381.9995 470.6100 30735.5921 381.9995 470.6100
ENERGY: 300000 2.0649 7.0686 8.6099 0.0000 -10813.8820 1418.2881 0.0000 0.0000 1738.1448 -7639.7056 292.2400 -9377.8504 -7564.8877 299.0794 -244.3601 -221.3465 30735.6337 -230.2353 -177.4523
ENERGY: 600000 5.9094 8.1836 8.3639 0.0000 -10776.1474 1389.4568 0.0000 0.0000 1792.7769 -7571.4569 301.4254 -9364.2337 -7547.7883 299.3703 -621.6388 -557.9620 30868.8214 -212.4841 -160.6951
ENERGY: 900000 7.0814 15.3680 10.0444 0.0000 -10925.0179 1525.0783 0.0000 0.0000 1809.4112 -7558.0345 304.2222 -9367.4457 -7545.0005 299.0411 642.9351 717.8322 30275.3212 -99.5655 -52.1793
ENERGY: 1200000 3.5221 9.1117 8.7597 0.0000 -10819.4026 1467.8093 0.0000 0.0000 1766.4909 -7563.7089 297.0059 -9330.1998 -7551.9094 299.3387 -9.6143 122.4603 31347.0643 -56.3589 0.0976
ENERGY: 1500000 1.8008 14.0362 7.7627 0.0000 -10689.8353 1345.3117 0.0000 0.0000 1804.5010 -7516.4229 303.3967 -9320.9239 -7544.4091 299.7165 -886.2976 -858.5603 31280.1146 -173.8760 -121.6269
TCL: Running FEP window  19: Lambda1 0.9000000000000002 Lambda2 0.9500000000000003 [dLambda 0.050000000000000044]
TCL: Setting parameter firsttimestep to 0
TCL: Setting parameter alchLambda to 0.9000000000000002
Info: NONBONDED TABLE R-SQUARED SPACING: 0.0625
Info: NONBONDED TABLE SIZE: 705 POINTS
TCL: Setting parameter alchLambda2 to 0.9500000000000003
Info: NONBONDED TABLE R-SQUARED SPACING: 0.0625
Info: NONBONDED TABLE SIZE: 705 POINTS
TCL: Running for 1500000 steps
ETITLE: TS BOND ANGLE DIHED IMPRP ELECT VDW BOUNDARY MISC KINETIC TOTAL TEMP POTENTIAL TOTALAVG TEMPAVG PRESSURE GPRESSURE VOLUME PRESSAVG GPRESSAVG
ENERGY: 0 1.8008 14.0362 7.7627 0.0000 -10693.4129 1347.9333 0.0000 0.0000 1803.6069 -7518.2730 303.2463 -9321.8799 -7518.2730 303.2463 -917.1399 -826.1814 31280.1146 -917.1399 -826.1814
ENERGY: 300000 4.0976 9.0330 9.2194 0.0000 -10818.1104 1421.7962 0.0000 0.0000 1756.0886 -7617.8756 295.2569 -9373.9643 -7568.1094 298.9162 -293.6295 -210.8479 30743.7921 -327.0931 -248.3557
ENERGY: 600000 6.3781 6.1537 8.6115 0.0000 -10725.2828 1328.3085 0.0000 0.0000 1780.4915 -7595.3393 299.3599 -9375.8309 -7578.9345 297.9682 -1229.4288 -1188.7580 30948.8526 -240.8263 -175.6110
ENERGY: 900000 2.7584 11.6234 8.3038 0.0000 -10870.4640 1509.4698 0.0000 0.0000 1777.2015 -7561.1070 298.8067 -9338.3085 -7570.8398 299.2099 766.4036 821.0611 30081.9476 19.5189 78.3248
ENERGY: 1200000 4.5163 16.0295 7.0886 0.0000 -10654.1710 1363.9528 0.0000 0.0000 1822.5061 -7440.0777 306.4239 -9262.5839 -7563.3340 300.4223 -501.9603 -400.7247 31333.2947 1.8084 61.9041
ENERGY: 1500000 5.2464 8.5800 7.6745 0.0000 -10837.0709 1457.5304 0.0000 0.0000 1814.8187 -7543.2210 305.1314 -9358.0397 -7564.8152 300.9352 -16.3851 49.0932 30881.9715 36.5884 95.0707
TCL: Running FEP window  20: Lambda1 0.9500000000000003 Lambda2 1.0    [dLambda 0.04999999999999971]
TCL: Setting parameter firsttimestep to 0
TCL: Setting parameter alchLambda to 0.9500000000000003
Info: NONBONDED TABLE R-SQUARED SPACING: 0.0625
Info: NONBONDED TABLE SIZE: 705 POINTS
TCL: Setting parameter alchLambda2 to 1.0
Info: NONBONDED TABLE R-SQUARED SPACING: 0.0625
Info: NONBONDED TABLE SIZE: 705 POINTS
TCL: Running for 1500000 steps
ETITLE: TS BOND ANGLE DIHED IMPRP ELECT VDW BOUNDARY MISC KINETIC TOTAL TEMP POTENTIAL TOTALAVG TEMPAVG PRESSURE GPRESSURE VOLUME PRESSAVG GPRESSAVG
ENERGY: 0 5.2464 8.5800 7.6745 0.0000 -10840.3640 1458.5521 0.0000 0.0000 1813.9295 -7546.3815 304.9819 -9360.3111 -7546.3815 304.9819 -8.3064 73.0235 30881.9715 -8.3064 73.0235
ENERGY: 300000 5.7643 9.2621 9.4921 0.0000 -10654.0998 1362.3184 0.0000 0.0000 1779.4578 -7487.8051 299.1861 -9267.2629 -7569.7589 301.5374 -236.9986 -140.4797 30554.6183 -5.6687 77.9180
ENERGY: 600000 1.7825 11.2712 7.7220 0.0000 -10846.6770 1461.9783 0.0000 0.0000 1848.9520 -7514.9709 310.8704 -9363.9230 -7566.1845 303.5935 287.5060 300.8479 30575.7186 107.9724 168.3231
ENERGY: 900000 2.2000 9.4967 7.7938 0.0000 -10876.8085 1439.6785 0.0000 0.0000 1797.0734 -7620.5661 302.1478 -9417.6395 -7565.8668 304.7662 -246.7851 -141.4278 30711.9555 129.6812 195.5783
ENERGY: 1200000 2.9221 11.6069 8.4128 0.0000 -10804.5331 1426.1987 0.0000 0.0000 1753.5830 -7601.8095 294.8357 -9355.3926 -7563.6283 304.0928 110.4670 159.4464 30646.6182 142.0749 200.2924
ENERGY: 1500000 3.7497 11.2610 6.7570 0.0000 -10779.0807 1402.8246 0.0000 0.0000 1774.2170 -7580.2713 298.3049 -9354.4883 -7561.7508 302.9206 -560.4178 -511.4436 31093.3263 127.9502 186.4994
TCL: Exiting due to exit command.
