Info: SIMULATION PARAMETERS:
Info: TIMESTEP               2
Info: NUMBER OF STEPS        0
Info: STEPS PER CYCLE        10
Info: PERIODIC CELL BASIS 1  32.3001 0 0
Info: PERIODIC CELL BASIS 2  0 29.6079 0
Info: PERIODIC CELL BASIS 3  0 0 31.6505
Info: PERIODIC CELL CENTER   0 0 0
Info: WRAPPING WATERS AROUND PERIODIC BOUNDARIES ON OUTPUT.
Info: WRAPPING ALL CLUSTERS AROUND PERIODIC BOUNDARIES ON OUTPUT.
Info: FIRST LDB TIMESTEP     50
Info: LAST LDB TIMESTEP     -1
Info: HOM BACKGROUND SCALING 1
Info: PME BACKGROUND SCALING 1
Info: MIN ATOMS PER PATCH    40
Info: EMPTY PATCH LOAD       40 ATOMS
Info: VELOCITY FILE          mobley_194273_equil.vel
Info: CENTER OF MASS MOVING INITIALLY? NO
Info: DIELECTRIC             1
Info: EXCLUDE                SCALED ONE-FOUR
Info: 1-4 ELECTROSTATICS SCALED BY 0.833333
Info: MODIFIED 1-4 VDW PARAMETERS WILL BE USED
Info: DCD FILENAME           mobley_194273_prod.dcd
Info: DCD FREQUENCY          100000
Info: DCD FIRST STEP         100000
Info: DCD FILE WILL CONTAIN UNIT CELL DATA
Info: XST FILENAME           mobley_194273_prod.xst
Info: XST FREQUENCY          100000
Info: NO VELOCITY DCD OUTPUT
Info: NO FORCE DCD OUTPUT
Info: OUTPUT FILENAME        mobley_194273_prod
Info: BINARY OUTPUT FILES WILL BE USED
Info: RESTART FILENAME       mobley_194273_prod.restart
Info: RESTART FREQUENCY      100000
Info: BINARY RESTART FILES WILL BE USED
Info: CUTOFF                 9
Info: PAIRLIST DISTANCE      11
Info: PAIRLIST SHRINK RATE   0.01
Info: PAIRLIST GROW RATE     0.01
Info: PAIRLIST TRIGGER       0.3
Info: PAIRLISTS PER CYCLE    2
Info: PAIRLISTS ENABLED
Info: MARGIN                 2
Info: HYDROGEN GROUP CUTOFF  2.5
Info: PATCH DIMENSION        15.5
Info: ENERGY OUTPUT STEPS    100000
Info: ENERGY EVALUATION STEPS    100000
Info: OUTPUT ENERGY PRECISION 4
Info: CROSSTERM ENERGY INCLUDED IN DIHEDRAL
Info: TIMING OUTPUT STEPS    1000000
Info: PRESSURE OUTPUT STEPS  100000
Info: ALCHEMICAL FEP ON
Info: FEP CURRENT LAMBDA VALUE     0
Info: FEP COMPARISON LAMBDA VALUE  0.05
Info: FEP INTRA-ALCHEMICAL NON-BONDED INTERACTIONS WILL BE RETAINED
Info: FEP INTRA-ALCHEMICAL BONDED INTERACTIONS WILL BE RETAINED
Info: FEP VDW SHIFTING COEFFICIENT 5
Info: FEP ELEC. ACTIVE FOR ANNIHILATED PARTICLES BETWEEN LAMBDA = 0 AND LAMBDA = 0.5
Info: FEP ELEC. ACTIVE FOR EXNIHILATED PARTICLES BETWEEN LAMBDA = 0.5 AND LAMBDA = 1
Info: FEP VDW ACTIVE FOR ANNIHILATED PARTICLES BETWEEN LAMBDA = 0 AND LAMBDA = 1
Info: FEP VDW ACTIVE FOR EXNIHILATED PARTICLES BETWEEN LAMBDA = 0 AND LAMBDA = 1
Info: FEP BOND ACTIVE FOR ANNIHILATED PARTICLES BETWEEN LAMBDA = 1 AND LAMBDA = 1
Info: FEP BOND ACTIVE FOR EXNIHILATED PARTICLES BETWEEN LAMBDA = 0 AND LAMBDA = 0
Info: LANGEVIN DYNAMICS ACTIVE
Info: LANGEVIN TEMPERATURE   300
Info: LANGEVIN USING BBK INTEGRATOR
Info: LANGEVIN DAMPING COEFFICIENT IS 1 INVERSE PS
Info: LANGEVIN DYNAMICS APPLIED TO HYDROGENS
Info: LANGEVIN PISTON PRESSURE CONTROL ACTIVE
Info:        TARGET PRESSURE IS 1.01325 BAR
Info:     OSCILLATION PERIOD IS 50 FS
Info:             DECAY TIME IS 25 FS
Info:     PISTON TEMPERATURE IS 300 K
Info:       PRESSURE CONTROL IS GROUP-BASED
Info:    INITIAL STRAIN RATE IS 0.000271785 0.000271785 0.000271785
Info:       CELL FLUCTUATION IS ISOTROPIC
Info: PARTICLE MESH EWALD (PME) ACTIVE
Info: PME TOLERANCE               1e-06
Info: PME EWALD COEFFICIENT       0.348832
Info: PME INTERPOLATION ORDER     4
Info: PME GRID DIMENSIONS         36 32 32
Info: PME MAXIMUM GRID SPACING    1
Info: PME CALCULATION WILL BE PERFORMED ON GPU
Info: FULL ELECTROSTATIC EVALUATION FREQUENCY      2
Info: USING VERLET I (r-RESPA) MTS SCHEME.
Info: C1 SPLITTING OF LONG RANGE ELECTROSTATICS
Info: PLACING ATOMS IN PATCHES BY HYDROGEN GROUPS
Info: RIGID BONDS TO HYDROGEN : ALL
Info:         ERROR TOLERANCE : 1e-08
Info:          MAX ITERATIONS : 100
Info: RIGID WATER USING SETTLE ALGORITHM
Info: RANDOM NUMBER SEED     1743902081
Info: USE HYDROGEN BONDS?    NO
Info: Using AMBER format force field!
Info: AMBER PARM FILE        mobley_194273.prmtop
Info: COORDINATE PDB         mobley_194273.pdb
Info: Exclusions will be read from PARM file!
Info: SCNB (VDW SCALING)     2
Info: USING ARITHMETIC MEAN TO COMBINE L-J SIGMA PARAMETERS
Info: BINARY COORDINATES     mobley_194273_equil.coor
Info: SUMMARY OF PARAMETERS:
Info: 14 BONDS
Info: 22 ANGLES
Info:   22 HARMONIC
Info:   0 COSINE-BASED
Info: 18 DIHEDRAL
Info: 0 IMPROPER
Info: 0 CROSSTERM
Info: 0 VDW
Info: 55 VDW_PAIRS
Info: 0 NBTHOLE_PAIRS
Info: To read alchdata from file: mobley_194273.pdb
Info: To read alchflag data from column: 5
Info: STRUCTURE SUMMARY:
Info: 2925 ATOMS
Info: 2925 BONDS
Info: 48 ANGLES
Info: 84 DIHEDRALS
Info: 0 IMPROPERS
Info: 0 CROSSTERMS
Info: 3033 EXCLUSIONS
Info: 2911 RIGID BONDS
Info: ALCH: 0 ATOMS TO DISAPPEAR IN FINAL STATE
Info: ALCH: 27 ATOMS TO APPEAR IN FINAL STATE
Info: 5864 DEGREES OF FREEDOM
Info: 980 HYDROGEN GROUPS
Info: 4 ATOMS IN LARGEST HYDROGEN GROUP
Info: 980 MIGRATION GROUPS
Info: 4 ATOMS IN LARGEST MIGRATION GROUP
Info: TOTAL MASS = 17664.6 amu
Info: TOTAL CHARGE = -9.99859e-05 e
Info: MASS DENSITY = 0.969106 g/cm^3
Info: ATOM DENSITY = 0.0966351 atoms/A^3
Info: ADDED 0 IMPLICIT EXCLUSIONS
Info: NONBONDED TABLE R-SQUARED SPACING: 0.0625
Info: NONBONDED TABLE SIZE: 705 POINTS
Info: REMOVING COM VELOCITY 0.0746095 -0.0817266 0.233876
Info: Use 3D box decompostion in PME FFT.
Info: Updated CUDA force table with 4096 elements.
Info: Updated CUDA LJ table with 10 x 10 elements.
Info: Found 30 unique exclusion lists needing 100 bytes
TCL: Running for 1500000 steps
ETITLE: TS BOND ANGLE DIHED IMPRP ELECT VDW BOUNDARY MISC KINETIC TOTAL TEMP POTENTIAL TOTALAVG TEMPAVG PRESSURE GPRESSURE VOLUME PRESSAVG GPRESSAVG
ENERGY: 0 4.8971 11.4393 10.7722 0.0000 -10652.2940 1353.0374 0.0000 0.0000 1762.4530 -7509.6949 302.4921 -9272.1479 -7509.6949 302.4921 -649.5302 -587.4928 30268.5197 -649.5302 -587.4928
ENERGY: 300000 10.2791 16.2267 14.6786 0.0000 -10705.3510 1456.2118 0.0000 0.0000 1711.6927 -7496.2622 293.7800 -9207.9548 -7460.1875 299.0351 -79.4890 -6.6061 30060.0326 -524.7768 -449.3811
ENERGY: 600000 7.5716 15.8450 14.3310 0.0000 -10583.1927 1334.5259 0.0000 0.0000 1755.7252 -7455.1939 301.3374 -9210.9191 -7458.0698 299.6962 -806.2041 -804.5283 29966.0182 -444.1198 -389.4744
ENERGY: 900000 5.4663 12.0578 12.6625 0.0000 -10736.3628 1431.1941 0.0000 0.0000 1732.7593 -7542.2228 297.3957 -9274.9821 -7475.0863 300.1406 -57.9542 -27.2249 29520.8351 -291.6182 -248.0484
ENERGY: 1200000 8.0966 14.1922 14.1863 0.0000 -10691.8662 1417.5680 0.0000 0.0000 1739.5642 -7498.2590 298.5636 -9237.8232 -7472.1834 299.9803 -166.9209 -133.0098 29813.8320 -319.4431 -273.1878
ENERGY: 1500000 6.1299 12.8713 13.6454 0.0000 -10760.0071 1429.6856 0.0000 0.0000 1723.3688 -7574.3061 295.7840 -9297.6749 -7482.5624 299.6799 204.3657 236.9309 29295.2643 -225.4666 -180.1225
TCL: Running FEP window   2: Lambda1 0.05   Lambda2 0.1    [dLambda 0.05  ]
TCL: Setting parameter firsttimestep to 0
TCL: Setting parameter alchLambda to 0.05
Info: NONBONDED TABLE R-SQUARED SPACING: 0.0625
Info: NONBONDED TABLE SIZE: 705 POINTS
TCL: Setting parameter alchLambda2 to 0.1
Info: NONBONDED TABLE R-SQUARED SPACING: 0.0625
Info: NONBONDED TABLE SIZE: 705 POINTS
TCL: Running for 1500000 steps
ETITLE: TS BOND ANGLE DIHED IMPRP ELECT VDW BOUNDARY MISC KINETIC TOTAL TEMP POTENTIAL TOTALAVG TEMPAVG PRESSURE GPRESSURE VOLUME PRESSAVG GPRESSAVG
ENERGY: 0 6.1299 12.8713 13.6454 0.0000 -10760.0079 1435.3539 0.0000 0.0000 1722.4975 -7569.5099 295.6344 -9292.0074 -7569.5099 295.6344 165.6736 251.0481 29295.2643 165.6736 251.0481
ENERGY: 300000 7.3845 16.9106 13.2030 0.0000 -10690.5030 1404.3165 0.0000 0.0000 1700.8499 -7547.8384 291.9190 -9248.6884 -7485.2745 300.9980 -379.0554 -286.4974 29682.6552 -104.6607 -22.6544
ENERGY: 600000 5.4725 14.5942 11.5757 0.0000 -10596.2979 1380.5782 0.0000 0.0000 1719.0387 -7465.0387 295.0408 -9184.0774 -7459.7711 300.4297 -285.4839 -217.7843 29759.1900 -127.6997 -49.7719
ENERGY: 900000 4.2164 15.3121 15.3754 0.0000 -10657.5482 1393.0164 0.0000 0.0000 1722.8815 -7506.7463 295.7003 -9229.6278 -7475.4172 298.0961 -325.9833 -236.4912 29598.6180 -244.2496 -181.8945
ENERGY: 1200000 3.7395 18.5354 11.5677 0.0000 -10725.5782 1414.1241 0.0000 0.0000 1702.5612 -7575.0502 292.2127 -9277.6115 -7492.7968 298.1489 -329.7079 -275.2449 29771.1947 -233.7685 -179.6266
ENERGY: 1500000 5.0892 17.2298 11.8814 0.0000 -10609.8451 1353.2592 0.0000 0.0000 1808.8230 -7413.5625 310.4506 -9222.3855 -7489.7556 299.0228 -740.8477 -689.9601 30080.6615 -240.8320 -186.3467
TCL: Running FEP window   3: Lambda1 0.1    Lambda2 0.15000000000000002 [dLambda 0.05000000000000002]
TCL: Setting parameter firsttimestep to 0
TCL: Setting parameter alchLambda to 0.1
Info: NONBONDED TABLE R-SQUARED SPACING: 0.0625
Info: NONBONDED TABLE SIZE: 705 POINTS
TCL: Setting parameter alchLambda2 to 0.15000000000000002
Info: NONBONDED TABLE R-SQUARED SPACING: 0.0625
Info: NONBONDED TABLE SIZE: 705 POINTS
TCL: Running for 1500000 steps
ETITLE: TS BOND ANGLE DIHED IMPRP ELECT VDW BOUNDARY MISC KINETIC TOTAL TEMP POTENTIAL TOTALAVG TEMPAVG PRESSURE GPRESSURE VOLUME PRESSAVG GPRESSAVG
ENERGY: 0 5.0892 17.2298 11.8814 0.0000 -10609.8459 1353.6866 0.0000 0.0000 1807.9843 -7413.9746 310.3066 -9221.9589 -7413.9746 310.3066 -758.4760 -683.7445 30080.6615 -758.4760 -683.7445
ENERGY: 300000 3.0089 14.5617 13.1809 0.0000 -10811.6505 1534.9110 0.0000 0.0000 1773.5420 -7472.4461 304.3953 -9245.9881 -7453.9170 301.5050 763.5633 807.0659 29762.4553 -66.8904 -6.6930
ENERGY: 600000 4.5845 15.9135 11.3700 0.0000 -10747.9584 1464.7745 0.0000 0.0000 1830.6987 -7420.6172 314.2051 -9251.3159 -7459.1260 303.2344 442.8471 453.1767 29680.9442 -73.3538 -25.0881
ENERGY: 900000 6.6030 9.1858 11.0411 0.0000 -10609.2577 1363.1250 0.0000 0.0000 1790.1654 -7429.1375 307.2484 -9219.3028 -7449.9998 302.8044 -577.6348 -430.9416 29922.3683 -137.7585 -84.2961
ENERGY: 1200000 4.0803 13.4708 14.3536 0.0000 -10670.5628 1364.0649 0.0000 0.0000 1742.3684 -7532.2247 299.0449 -9274.5931 -7467.3225 302.6092 -706.6687 -632.5637 30080.0072 -129.3121 -67.7839
ENERGY: 1500000 3.2120 15.0638 12.5070 0.0000 -10664.8528 1412.1384 0.0000 0.0000 1758.1843 -7463.7472 301.7594 -9221.9315 -7457.6252 302.8700 -390.8355 -308.7489 30363.2614 -195.1932 -133.5819
TCL: Running FEP window   4: Lambda1 0.15000000000000002 Lambda2 0.2    [dLambda 0.04999999999999999]
TCL: Setting parameter firsttimestep to 0
TCL: Setting parameter alchLambda to 0.15000000000000002
Info: NONBONDED TABLE R-SQUARED SPACING: 0.0625
Info: NONBONDED TABLE SIZE: 705 POINTS
TCL: Setting parameter alchLambda2 to 0.2
Info: NONBONDED TABLE R-SQUARED SPACING: 0.0625
Info: NONBONDED TABLE SIZE: 705 POINTS
TCL: Running for 1500000 steps
ETITLE: TS BOND ANGLE DIHED IMPRP ELECT VDW BOUNDARY MISC KINETIC TOTAL TEMP POTENTIAL TOTALAVG TEMPAVG PRESSURE GPRESSURE VOLUME PRESSAVG GPRESSAVG
ENERGY: 0 3.2120 15.0638 12.5070 0.0000 -10664.8526 1414.5587 0.0000 0.0000 1757.3150 -7462.1959 301.6102 -9219.5110 -7462.1959 301.6102 -376.0743 -293.2744 30363.2614 -376.0743 -293.2744
ENERGY: 300000 7.0098 16.0795 12.8890 0.0000 -10725.9876 1469.8616 0.0000 0.0000 1737.7341 -7482.4137 298.2495 -9220.1478 -7471.9685 295.4382 451.4119 513.0841 29822.3441 161.4912 214.5378
ENERGY: 600000 6.5836 11.3477 10.8480 0.0000 -10682.3144 1463.4269 0.0000 0.0000 1732.6694 -7457.4388 297.3803 -9190.1083 -7476.7548 296.9557 115.1145 198.3896 30558.0038 393.5065 433.8225
ENERGY: 900000 13.5706 15.2865 10.7644 0.0000 -10756.3711 1462.8128 0.0000 0.0000 1725.2507 -7528.6862 296.1070 -9253.9368 -7490.5016 296.7682 242.7143 382.9073 29918.1821 281.7753 335.2824
ENERGY: 1200000 6.0152 15.1691 13.3127 0.0000 -10669.0568 1443.0873 0.0000 0.0000 1793.0207 -7398.4518 307.7384 -9191.4725 -7475.8989 298.3733 62.2965 184.3107 30092.6398 319.1229 383.5931
ENERGY: 1500000 5.0900 11.8641 12.6605 0.0000 -10799.3037 1475.1902 0.0000 0.0000 1766.9246 -7527.5743 303.2595 -9294.4989 -7467.1940 300.0182 -26.4905 39.7190 30156.4211 262.7036 321.9754
TCL: Running FEP window   5: Lambda1 0.2    Lambda2 0.25   [dLambda 0.04999999999999999]
TCL: Setting parameter firsttimestep to 0
TCL: Setting parameter alchLambda to 0.2
Info: NONBONDED TABLE R-SQUARED SPACING: 0.0625
Info: NONBONDED TABLE SIZE: 705 POINTS
TCL: Setting parameter alchLambda2 to 0.25
Info: NONBONDED TABLE R-SQUARED SPACING: 0.0625
Info: NONBONDED TABLE SIZE: 705 POINTS
TCL: Running for 1500000 steps
ETITLE: TS BOND ANGLE DIHED IMPRP ELECT VDW BOUNDARY MISC KINETIC TOTAL TEMP POTENTIAL TOTALAVG TEMPAVG PRESSURE GPRESSURE VOLUME PRESSAVG GPRESSAVG
ENERGY: 0 5.0900 11.8640 12.6605 0.0000 -10799.3038 1475.7142 0.0000 0.0000 1766.0825 -7527.8926 303.1150 -9293.9751 -7527.8926 303.1150 -35.5765 43.0099 30156.4211 -35.5765 43.0099
ENERGY: 300000 5.7844 14.9272 11.5157 0.0000 -10705.1876 1465.9991 0.0000 0.0000 1691.3243 -7515.6370 290.2841 -9206.9613 -7462.8263 302.0870 136.6143 221.8652 30198.0357 -35.0221 38.5697
ENERGY: 600000 3.4050 15.8838 13.5897 0.0000 -10744.5840 1450.5127 0.0000 0.0000 1765.1585 -7496.0344 302.9564 -9261.1928 -7478.6856 300.9571 272.4991 309.8778 29790.9995 42.5396 118.2516
ENERGY: 900000 2.2549 11.7818 14.6043 0.0000 -10749.1502 1427.5534 0.0000 0.0000 1717.6756 -7575.2804 294.8068 -9292.9559 -7477.4236 300.6446 72.1802 106.2496 29562.7446 -6.5828 58.7398
ENERGY: 1200000 6.3238 19.3294 12.1650 0.0000 -10530.3370 1261.7846 0.0000 0.0000 1708.2225 -7522.5117 293.1844 -9230.7342 -7480.7343 300.3247 -1255.0185 -1164.0968 30128.6640 -41.6558 19.4220
ENERGY: 1500000 6.3763 7.7848 13.3336 0.0000 -10684.3069 1385.8259 0.0000 0.0000 1755.3094 -7515.6770 301.2660 -9270.9864 -7481.3512 300.3337 -560.2000 -511.6963 30443.5379 -25.9177 28.9445
TCL: Running FEP window   6: Lambda1 0.25   Lambda2 0.3    [dLambda 0.04999999999999999]
TCL: Setting parameter firsttimestep to 0
TCL: Setting parameter alchLambda to 0.25
Info: NONBONDED TABLE R-SQUARED SPACING: 0.0625
Info: NONBONDED TABLE SIZE: 705 POINTS
TCL: Setting parameter alchLambda2 to 0.3
Info: NONBONDED TABLE R-SQUARED SPACING: 0.0625
Info: NONBONDED TABLE SIZE: 705 POINTS
TCL: Running for 1500000 steps
ETITLE: TS BOND ANGLE DIHED IMPRP ELECT VDW BOUNDARY MISC KINETIC TOTAL TEMP POTENTIAL TOTALAVG TEMPAVG PRESSURE GPRESSURE VOLUME PRESSAVG GPRESSAVG
ENERGY: 0 6.3763 7.7847 13.3336 0.0000 -10684.3057 1386.2011 0.0000 0.0000 1754.4817 -7516.1283 301.1239 -9270.6100 -7516.1283 301.1239 -583.0906 -504.4918 30443.5379 -583.0906 -504.4918
ENERGY: 300000 3.1043 20.7143 15.0452 0.0000 -10688.7191 1453.2324 0.0000 0.0000 1771.9195 -7424.7035 304.1168 -9196.6230 -7508.5415 299.1398 344.0581 345.8987 29779.0905 -41.5958 22.3354
ENERGY: 600000 13.3958 13.4013 16.4894 0.0000 -10828.8529 1523.2070 0.0000 0.0000 1711.4387 -7550.9208 293.7364 -9262.3596 -7511.0013 298.4405 880.4273 959.4643 29580.5179 -55.4999 -0.7790
ENERGY: 900000 11.9896 12.9143 12.8243 0.0000 -10665.9213 1388.4146 0.0000 0.0000 1707.2915 -7532.4869 293.0246 -9239.7785 -7502.5202 299.0196 -299.5527 -245.1455 29623.8897 -132.6014 -77.6362
ENERGY: 1200000 9.0991 10.3307 12.9322 0.0000 -10673.1630 1393.8313 0.0000 0.0000 1727.1149 -7519.8548 296.4269 -9246.9697 -7490.3047 299.8348 -486.7759 -457.6407 30451.8270 -144.9101 -95.8499
ENERGY: 1500000 2.6620 13.5991 14.6670 0.0000 -10672.1387 1373.3369 0.0000 0.0000 1681.6489 -7586.2248 288.6235 -9267.8737 -7497.8783 299.4914 -689.3096 -660.6356 30276.7567 -199.9811 -153.0570
TCL: Running FEP window   7: Lambda1 0.3    Lambda2 0.35   [dLambda 0.04999999999999999]
TCL: Setting parameter firsttimestep to 0
TCL: Setting parameter alchLambda to 0.3
Info: NONBONDED TABLE R-SQUARED SPACING: 0.0625
Info: NONBONDED TABLE SIZE: 705 POINTS
TCL: Setting parameter alchLambda2 to 0.35
Info: NONBONDED TABLE R-SQUARED SPACING: 0.0625
Info: NONBONDED TABLE SIZE: 705 POINTS
TCL: Running for 1500000 steps
ETITLE: TS BOND ANGLE DIHED IMPRP ELECT VDW BOUNDARY MISC KINETIC TOTAL TEMP POTENTIAL TOTALAVG TEMPAVG PRESSURE GPRESSURE VOLUME PRESSAVG GPRESSAVG
ENERGY: 0 2.6620 13.5992 14.6670 0.0000 -10672.1380 1373.5180 0.0000 0.0000 1680.8001 -7586.8918 288.4779 -9267.6919 -7586.8918 288.4779 -746.2995 -655.7324 30276.7567 -746.2995 -655.7324
ENERGY: 300000 3.9132 12.1450 11.9793 0.0000 -10772.6618 1430.9921 0.0000 0.0000 1781.6453 -7531.9869 305.7860 -9313.6322 -7536.3466 298.7210 -295.6458 -277.9619 30260.7324 -493.4079 -451.6518
ENERGY: 600000 4.8643 18.5324 12.3835 0.0000 -10554.4681 1325.9578 0.0000 0.0000 1849.2842 -7343.4459 317.3950 -9192.7301 -7493.6433 301.8850 -838.0875 -842.4358 30273.1168 -335.5502 -302.6337
ENERGY: 900000 6.1196 8.2878 12.2149 0.0000 -10616.0133 1361.9200 0.0000 0.0000 1748.5099 -7478.9611 300.0990 -9227.4710 -7493.9003 301.9048 -555.2270 -442.5307 30110.6771 -224.1497 -177.4726
ENERGY: 1200000 3.3598 10.4344 12.2117 0.0000 -10707.1142 1457.5467 0.0000 0.0000 1725.9935 -7497.5682 296.2345 -9223.5617 -7485.5265 301.4961 335.9985 389.3526 29747.0261 -187.5826 -134.9769
ENERGY: 1500000 7.5653 18.2824 12.0399 0.0000 -10718.3499 1430.5284 0.0000 0.0000 1722.3601 -7527.5738 295.6109 -9249.9339 -7489.5691 300.9706 -207.1390 -90.2553 29960.7131 -223.1849 -164.6577
TCL: Running FEP window   8: Lambda1 0.35   Lambda2 0.39999999999999997 [dLambda 0.04999999999999999]
TCL: Setting parameter firsttimestep to 0
TCL: Setting parameter alchLambda to 0.35
Info: NONBONDED TABLE R-SQUARED SPACING: 0.0625
Info: NONBONDED TABLE SIZE: 705 POINTS
TCL: Setting parameter alchLambda2 to 0.39999999999999997
Info: NONBONDED TABLE R-SQUARED SPACING: 0.0625
Info: NONBONDED TABLE SIZE: 705 POINTS
TCL: Running for 1500000 steps
ETITLE: TS BOND ANGLE DIHED IMPRP ELECT VDW BOUNDARY MISC KINETIC TOTAL TEMP POTENTIAL TOTALAVG TEMPAVG PRESSURE GPRESSURE VOLUME PRESSAVG GPRESSAVG
ENERGY: 0 7.5653 18.2825 12.0399 0.0000 -10718.3514 1430.1638 0.0000 0.0000 1721.5183 -7528.7817 295.4664 -9250.3000 -7528.7817 295.4664 -172.7152 -84.6071 29960.7131 -172.7152 -84.6071
ENERGY: 300000 9.7018 13.9486 12.6304 0.0000 -10610.3451 1378.0764 0.0000 0.0000 1741.7677 -7454.2203 298.9418 -9195.9880 -7503.1047 296.1822 -247.2702 -137.8801 30030.2519 -219.2612 -147.1291
ENERGY: 600000 6.9719 11.7761 17.4388 0.0000 -11011.3547 1613.1470 0.0000 0.0000 1748.7447 -7613.2761 300.1393 -9362.0208 -7516.7447 297.5384 1497.3105 1574.9433 29376.1187 58.5461 126.9729
ENERGY: 900000 3.4475 14.0390 16.1368 0.0000 -10804.5094 1447.9594 0.0000 0.0000 1780.1908 -7542.7361 305.5364 -9322.9268 -7510.0968 298.0983 43.7124 126.9280 29700.0846 -6.0192 70.0452
ENERGY: 1200000 7.5647 16.4665 13.5906 0.0000 -10770.8410 1477.4530 0.0000 0.0000 1700.4328 -7555.3335 291.8474 -9255.7662 -7502.7263 298.8008 390.0849 443.3591 29872.8396 68.4399 144.2874
ENERGY: 1500000 2.8765 14.5311 13.0652 0.0000 -10743.1527 1483.6794 0.0000 0.0000 1767.5846 -7461.4159 303.3728 -9229.0005 -7492.2590 299.3262 535.6799 554.3311 30221.3871 169.6189 237.5471
TCL: Running FEP window   9: Lambda1 0.39999999999999997 Lambda2 0.44999999999999996 [dLambda 0.04999999999999999]
TCL: Setting parameter firsttimestep to 0
TCL: Setting parameter alchLambda to 0.39999999999999997
Info: NONBONDED TABLE R-SQUARED SPACING: 0.0625
Info: NONBONDED TABLE SIZE: 705 POINTS
TCL: Setting parameter alchLambda2 to 0.44999999999999996
Info: NONBONDED TABLE R-SQUARED SPACING: 0.0625
Info: NONBONDED TABLE SIZE: 705 POINTS
TCL: Running for 1500000 steps
ETITLE: TS BOND ANGLE DIHED IMPRP ELECT VDW BOUNDARY MISC KINETIC TOTAL TEMP POTENTIAL TOTALAVG TEMPAVG PRESSURE GPRESSURE VOLUME PRESSAVG GPRESSAVG
ENERGY: 0 2.8765 14.5311 13.0652 0.0000 -10743.1530 1483.5133 0.0000 0.0000 1766.7218 -7462.4452 303.2247 -9229.1670 -7462.4452 303.2247 488.3434 564.7682 30221.3871 488.3434 564.7682
ENERGY: 300000 8.5226 15.6155 11.7709 0.0000 -10612.3157 1352.8600 0.0000 0.0000 1755.0226 -7468.5242 301.2168 -9223.5468 -7525.2364 297.4057 -815.6087 -835.9702 30364.6270 9.7024 61.4833
ENERGY: 600000 6.3847 17.0658 10.7209 0.0000 -10692.6963 1370.9114 0.0000 0.0000 1786.1758 -7501.4377 306.5636 -9287.6135 -7515.9145 300.1848 -606.2263 -557.9029 30303.4274 -139.7699 -74.8643
ENERGY: 900000 3.4296 9.2495 12.4947 0.0000 -10840.7385 1567.4032 0.0000 0.0000 1777.9776 -7470.1840 305.1566 -9248.1615 -7516.1240 300.2253 1272.6426 1368.4780 29523.4855 62.8512 140.4404
ENERGY: 1200000 6.3502 12.8660 15.5164 0.0000 -10705.1123 1426.2903 0.0000 0.0000 1771.8454 -7472.2440 304.1041 -9244.0894 -7505.4756 300.0000 -267.4743 -155.8500 29930.4823 58.5946 139.0021
ENERGY: 1500000 3.9102 9.3081 13.0137 0.0000 -10738.4533 1461.0666 0.0000 0.0000 1765.4441 -7485.7107 303.0054 -9251.1548 -7507.6935 299.9321 587.9274 669.7830 29465.8871 91.3923 174.2645
TCL: Running FEP window  10: Lambda1 0.44999999999999996 Lambda2 0.49999999999999994 [dLambda 0.04999999999999999]
TCL: Setting parameter firsttimestep to 0
TCL: Setting parameter alchLambda to 0.44999999999999996
Info: NONBONDED TABLE R-SQUARED SPACING: 0.0625
Info: NONBONDED TABLE SIZE: 705 POINTS
TCL: Setting parameter alchLambda2 to 0.49999999999999994
Info: NONBONDED TABLE R-SQUARED SPACING: 0.0625
Info: NONBONDED TABLE SIZE: 705 POINTS
TCL: Running for 1500000 steps
ETITLE: TS BOND ANGLE DIHED IMPRP ELECT VDW BOUNDARY MISC KINETIC TOTAL TEMP POTENTIAL TOTALAVG TEMPAVG PRESSURE GPRESSURE VOLUME PRESSAVG GPRESSAVG
ENERGY: 0 3.9102 9.3081 13.0137 0.0000 -10738.4552 1461.2560 0.0000 0.0000 1764.5916 -7486.3756 302.8591 -9250.9672 -7486.3756 302.8591 592.2145 681.5327 29465.8871 592.2145 681.5327
ENERGY: 300000 4.8677 11.8083 11.5559 0.0000 -10715.9042 1448.7255 0.0000 0.0000 1770.1714 -7468.7755 303.8168 -9238.9469 -7463.2047 303.3669 47.1685 110.7735 30117.1696 72.1729 110.5084
ENERGY: 600000 6.3374 8.1345 13.3335 0.0000 -10732.5080 1413.4923 0.0000 0.0000 1717.9476 -7573.2627 294.8535 -9291.2103 -7467.0376 301.4444 -385.8452 -356.9744 30248.9715 -88.1529 -38.4329
ENERGY: 900000 7.3025 8.0183 12.4894 0.0000 -10671.4061 1389.6260 0.0000 0.0000 1778.3251 -7475.6447 305.2162 -9253.9698 -7469.0200 302.4781 -63.4699 -29.5724 29979.5229 -136.4826 -90.3917
ENERGY: 1200000 4.9957 16.3085 13.5215 0.0000 -10761.2433 1463.0565 0.0000 0.0000 1686.1873 -7577.1738 289.4025 -9263.3611 -7475.2613 301.4279 62.4111 124.0505 29940.6466 -125.9892 -72.9988
ENERGY: 1500000 2.9363 12.5787 13.9306 0.0000 -10735.9294 1450.8717 0.0000 0.0000 1742.1506 -7513.4615 299.0075 -9255.6120 -7479.6894 300.5850 491.3990 519.6517 29757.4089 -102.9529 -46.7705
TCL: Running FEP window  11: Lambda1 0.49999999999999994 Lambda2 0.5499999999999999 [dLambda 0.04999999999999999]
TCL: Setting parameter firsttimestep to 0
TCL: Setting parameter alchLambda to 0.49999999999999994
Info: NONBONDED TABLE R-SQUARED SPACING: 0.0625
Info: NONBONDED TABLE SIZE: 705 POINTS
TCL: Setting parameter alchLambda2 to 0.5499999999999999
Info: NONBONDED TABLE R-SQUARED SPACING: 0.0625
Info: NONBONDED TABLE SIZE: 705 POINTS
TCL: Running for 1500000 steps
ETITLE: TS BOND ANGLE DIHED IMPRP ELECT VDW BOUNDARY MISC KINETIC TOTAL TEMP POTENTIAL TOTALAVG TEMPAVG PRESSURE GPRESSURE VOLUME PRESSAVG GPRESSAVG
ENERGY: 0 2.9363 12.5787 13.9306 0.0000 -10735.9287 1450.4989 0.0000 0.0000 1741.2700 -7514.7142 298.8564 -9255.9842 -7514.7142 298.8564 434.4750 526.7125 29757.4089 434.4750 526.7125
ENERGY: 300000 3.1756 12.1104 15.7613 0.0000 -10599.9685 1351.4029 0.0000 0.0000 1769.1367 -7448.3816 303.6392 -9217.5183 -7459.2579 301.7656 -502.9863 -460.7966 30422.5318 11.8289 68.8246
ENERGY: 600000 4.7112 10.2855 13.6446 0.0000 -10624.4218 1390.9424 0.0000 0.0000 1699.4046 -7505.4335 291.6710 -9204.8381 -7476.0656 300.4976 -90.9859 -12.2220 30063.9800 78.7754 139.2074
ENERGY: 900000 8.3433 14.7976 13.4917 0.0000 -10866.2361 1535.6456 0.0000 0.0000 1726.5361 -7567.4218 296.3276 -9293.9578 -7493.0430 299.3471 1016.2079 1055.6861 29626.5889 159.6906 215.5045
ENERGY: 1200000 6.3355 12.0288 11.5897 0.0000 -10645.2570 1436.3121 0.0000 0.0000 1799.7004 -7379.2905 308.8849 -9178.9908 -7483.1185 300.1557 52.8783 112.6610 30286.5991 218.2889 282.9748
ENERGY: 1500000 3.5661 13.2654 10.0689 0.0000 -10748.7826 1400.7604 0.0000 0.0000 1748.1280 -7572.9938 300.0334 -9321.1218 -7489.4284 300.1731 -423.1627 -379.8336 30121.9946 113.2166 177.8575
TCL: Running FEP window  12: Lambda1 0.5499999999999999 Lambda2 0.6    [dLambda 0.050000000000000044]
TCL: Setting parameter firsttimestep to 0
TCL: Setting parameter alchLambda to 0.5499999999999999
Info: NONBONDED TABLE R-SQUARED SPACING: 0.0625
Info: NONBONDED TABLE SIZE: 705 POINTS
TCL: Setting parameter alchLambda2 to 0.6
Info: NONBONDED TABLE R-SQUARED SPACING: 0.0625
Info: NONBONDED TABLE SIZE: 705 POINTS
TCL: Running for 1500000 steps
ETITLE: TS BOND ANGLE DIHED IMPRP ELECT VDW BOUNDARY MISC KINETIC TOTAL TEMP POTENTIAL TOTALAVG TEMPAVG PRESSURE GPRESSURE VOLUME PRESSAVG GPRESSAVG
ENERGY: 0 3.5661 13.2654 10.0689 0.0000 -10748.7887 1400.1965 0.0000 0.0000 1747.2005 -7574.4912 299.8742 -9321.6918 -7574.4912 299.8742 -449.2035 -373.7738 30121.9946 -449.2035 -373.7738
ENERGY: 300000 4.3356 12.7338 17.3332 0.0000 -10722.7900 1446.3307 0.0000 0.0000 1784.9612 -7457.0956 306.3552 -9242.0568 -7502.2944 302.4968 -5.8886 88.8065 30313.4328 -172.7926 -89.2116
ENERGY: 600000 4.3693 14.2626 12.6133 0.0000 -10714.0381 1437.8985 0.0000 0.0000 1701.6788 -7543.2157 292.0613 -9244.8944 -7506.7762 301.0677 113.6648 121.9947 30259.7738 -35.7175 36.7796
ENERGY: 900000 5.2667 22.0678 14.0091 0.0000 -10652.2864 1397.1399 0.0000 0.0000 1744.5735 -7469.2294 299.4234 -9213.8029 -7506.3158 299.9852 -316.9012 -246.5866 30436.2771 -90.4504 -20.5718
ENERGY: 1200000 5.3880 14.1393 13.7373 0.0000 -10673.2208 1463.3349 0.0000 0.0000 1783.2761 -7393.3453 306.0659 -9176.6214 -7498.4365 300.7888 784.3152 852.4306 29914.0014 -29.9097 37.0784
ENERGY: 1500000 3.8096 18.8808 13.7062 0.0000 -10635.9122 1372.1528 0.0000 0.0000 1778.0322 -7449.3307 305.1659 -9227.3629 -7497.6044 300.0963 -479.3766 -379.4964 30190.6624 -124.2043 -53.7051
TCL: Running FEP window  13: Lambda1 0.6    Lambda2 0.65   [dLambda 0.050000000000000044]
TCL: Setting parameter firsttimestep to 0
TCL: Setting parameter alchLambda to 0.6
Info: NONBONDED TABLE R-SQUARED SPACING: 0.0625
Info: NONBONDED TABLE SIZE: 705 POINTS
TCL: Setting parameter alchLambda2 to 0.65
Info: NONBONDED TABLE R-SQUARED SPACING: 0.0625
Info: NONBONDED TABLE SIZE: 705 POINTS
TCL: Running for 1500000 steps
ETITLE: TS BOND ANGLE DIHED IMPRP ELECT VDW BOUNDARY MISC KINETIC TOTAL TEMP POTENTIAL TOTALAVG TEMPAVG PRESSURE GPRESSURE VOLUME PRESSAVG GPRESSAVG
ENERGY: 0 3.8096 18.8808 13.7062 0.0000 -10636.2712 1371.9260 0.0000 0.0000 1777.1441 -7450.8046 305.0135 -9227.9487 -7450.8046 305.0135 -447.7823 -372.8827 30190.6624 -447.7823 -372.8827
ENERGY: 300000 2.9833 10.2898 12.8146 0.0000 -10760.7488 1428.6101 0.0000 0.0000 1760.7467 -7545.3044 302.1992 -9306.0510 -7512.0223 299.3300 92.2427 170.5831 29742.3265 -258.8029 -175.4282
ENERGY: 600000 7.1112 15.9630 13.6314 0.0000 -10724.8726 1447.0053 0.0000 0.0000 1745.0602 -7496.1014 299.5069 -9241.1616 -7491.8527 299.7177 350.8052 393.2414 30099.0624 -151.6125 -72.5064
ENERGY: 900000 6.1202 14.6022 13.0050 0.0000 -10799.9296 1500.5171 0.0000 0.0000 1766.8587 -7498.8264 303.2482 -9265.6851 -7478.9805 301.2294 540.6224 507.0984 29799.1423 21.5762 95.5468
ENERGY: 1200000 7.7534 12.6854 11.7081 0.0000 -10775.0346 1487.2204 0.0000 0.0000 1795.9157 -7459.7517 308.2353 -9255.6673 -7466.2461 301.5834 506.5373 585.5060 29923.7509 -59.7836 19.1065
ENERGY: 1500000 6.4533 13.9066 10.5548 0.0000 -10580.8203 1334.1945 0.0000 0.0000 1802.2931 -7413.4180 309.3299 -9215.7110 -7466.0796 302.3590 -830.0361 -721.3292 30432.5848 -137.0160 -55.4810
TCL: Running FEP window  14: Lambda1 0.65   Lambda2 0.7000000000000001 [dLambda 0.050000000000000044]
TCL: Setting parameter firsttimestep to 0
TCL: Setting parameter alchLambda to 0.65
Info: NONBONDED TABLE R-SQUARED SPACING: 0.0625
Info: NONBONDED TABLE SIZE: 705 POINTS
TCL: Setting parameter alchLambda2 to 0.7000000000000001
Info: NONBONDED TABLE R-SQUARED SPACING: 0.0625
Info: NONBONDED TABLE SIZE: 705 POINTS
TCL: Running for 1500000 steps
ETITLE: TS BOND ANGLE DIHED IMPRP ELECT VDW BOUNDARY MISC KINETIC TOTAL TEMP POTENTIAL TOTALAVG TEMPAVG PRESSURE GPRESSURE VOLUME PRESSAVG GPRESSAVG
ENERGY: 0 6.4534 13.9066 10.5548 0.0000 -10582.4458 1334.4094 0.0000 0.0000 1801.4558 -7415.6658 309.1862 -9217.1216 -7415.6658 309.1862 -810.5765 -708.6314 30432.5848 -810.5765 -708.6314
ENERGY: 300000 2.2339 14.5650 13.9402 0.0000 -10702.8499 1368.7340 0.0000 0.0000 1744.8777 -7558.4991 299.4756 -9303.3767 -7507.0637 299.1333 -546.4075 -481.3346 30010.7948 -232.9814 -152.6797
ENERGY: 600000 5.6820 19.0779 15.2987 0.0000 -10633.1897 1344.7576 0.0000 0.0000 1745.5384 -7502.8352 299.5890 -9248.3735 -7513.6990 298.0430 -951.7165 -875.5929 30329.4331 -260.9986 -189.4985
ENERGY: 900000 4.4441 12.9610 12.7824 0.0000 -10675.2856 1382.2650 0.0000 0.0000 1725.5755 -7537.2577 296.1627 -9262.8332 -7519.1940 297.8988 -457.2022 -361.6586 29788.0623 -203.9437 -139.2365
ENERGY: 1200000 6.1909 12.9903 13.9091 0.0000 -10593.2828 1324.1318 0.0000 0.0000 1710.9815 -7525.0791 293.6579 -9236.0606 -7512.3532 297.8922 -968.0557 -811.2975 30193.4963 -275.0827 -204.0520
ENERGY: 1500000 4.2136 11.8896 17.3946 0.0000 -10678.5101 1436.1527 0.0000 0.0000 1773.6527 -7435.2069 304.4143 -9208.8596 -7504.9927 299.1275 271.2732 297.5969 30200.7789 -236.5415 -168.1770
TCL: Running FEP window  15: Lambda1 0.7000000000000001 Lambda2 0.7500000000000001 [dLambda 0.050000000000000044]
TCL: Setting parameter firsttimestep to 0
TCL: Setting parameter alchLambda to 0.7000000000000001
Info: NONBONDED TABLE R-SQUARED SPACING: 0.0625
Info: NONBONDED TABLE SIZE: 705 POINTS
TCL: Setting parameter alchLambda2 to 0.7500000000000001
Info: NONBONDED TABLE R-SQUARED SPACING: 0.0625
Info: NONBONDED TABLE SIZE: 705 POINTS
TCL: Running for 1500000 steps
ETITLE: TS BOND ANGLE DIHED IMPRP ELECT VDW BOUNDARY MISC KINETIC TOTAL TEMP POTENTIAL TOTALAVG TEMPAVG PRESSURE GPRESSURE VOLUME PRESSAVG GPRESSAVG
ENERGY: 0 4.2136 11.8896 17.3946 0.0000 -10680.1162 1436.1293 0.0000 0.0000 1772.7772 -7437.7120 304.2640 -9210.4892 -7437.7120 304.2640 225.9349 309.7386 30200.7789 225.9349 309.7386
ENERGY: 300000 8.1273 13.8992 13.3708 0.0000 -10621.0685 1395.5366 0.0000 0.0000 1722.7271 -7467.4075 295.6738 -9190.1346 -7462.3170 302.4048 -145.3601 -41.2781 30358.6376 -160.8795 -88.2917
ENERGY: 600000 3.4729 10.6567 12.1425 0.0000 -10670.3082 1411.0686 0.0000 0.0000 1770.5146 -7462.4529 303.8757 -9232.9675 -7475.4323 300.7679 283.7585 351.3539 29929.0185 -110.7134 -32.5455
ENERGY: 900000 3.4458 18.3573 13.7759 0.0000 -10658.9141 1431.2742 0.0000 0.0000 1801.9822 -7390.0788 309.2765 -9192.0610 -7475.5952 301.6876 -190.9873 -110.2738 30730.1957 -87.3713 -10.4944
ENERGY: 1200000 6.8030 10.8396 16.1286 0.0000 -10716.6366 1489.8578 0.0000 0.0000 1758.0820 -7434.9255 301.7419 -9193.0076 -7465.8185 301.5530 484.5004 594.8175 30344.1150 -75.3990 5.2912
ENERGY: 1500000 4.4757 15.0908 13.9756 0.0000 -10700.0935 1424.5098 0.0000 0.0000 1725.0559 -7516.9858 296.0735 -9242.0417 -7470.7053 301.2687 81.8548 116.6339 30148.1106 11.8400 85.3025
TCL: Running FEP window  16: Lambda1 0.7500000000000001 Lambda2 0.8000000000000002 [dLambda 0.050000000000000044]
TCL: Setting parameter firsttimestep to 0
TCL: Setting parameter alchLambda to 0.7500000000000001
Info: NONBONDED TABLE R-SQUARED SPACING: 0.0625
Info: NONBONDED TABLE SIZE: 705 POINTS
TCL: Setting parameter alchLambda2 to 0.8000000000000002
Info: NONBONDED TABLE R-SQUARED SPACING: 0.0625
Info: NONBONDED TABLE SIZE: 705 POINTS
TCL: Running for 1500000 steps
ETITLE: TS BOND ANGLE DIHED IMPRP ELECT VDW BOUNDARY MISC KINETIC TOTAL TEMP POTENTIAL TOTALAVG TEMPAVG PRESSURE GPRESSURE VOLUME PRESSAVG GPRESSAVG
ENERGY: 0 4.4757 15.0908 13.9756 0.0000 -10701.2996 1424.3837 0.0000 0.0000 1724.2260 -7519.1478 295.9311 -9243.3738 -7519.1478 295.9311 43.7442 128.6573 30148.1106 43.7442 128.6573
ENERGY: 300000 6.7341 14.9765 17.4371 0.0000 -10814.4635 1490.7166 0.0000 0.0000 1679.3950 -7605.2043 288.2367 -9284.5993 -7525.1219 295.6851 597.9083 619.4303 29657.8575 109.5561 146.4171
ENERGY: 600000 3.5336 15.0007 13.7793 0.0000 -10717.0462 1452.8956 0.0000 0.0000 1731.2580 -7500.5789 297.1380 -9231.8370 -7514.6533 296.4847 327.8843 393.8735 30067.6659 29.9610 66.2015
ENERGY: 900000 2.2914 16.6401 13.3072 0.0000 -10742.5721 1416.8689 0.0000 0.0000 1734.3095 -7559.1550 297.6617 -9293.4645 -7510.2114 297.9618 -158.2124 -77.3596 30153.3569 11.9306 50.7471
ENERGY: 1200000 2.2294 19.1658 15.5122 0.0000 -10654.3535 1391.7899 0.0000 0.0000 1733.9575 -7491.6988 297.6013 -9225.6563 -7494.7974 298.4400 -252.9643 -215.0308 30243.7242 64.4642 105.5384
ENERGY: 1500000 12.0920 11.5573 15.1248 0.0000 -10792.0856 1449.8803 0.0000 0.0000 1778.0109 -7525.4202 305.1623 -9303.4311 -7504.6351 298.7860 -98.0393 -89.9904 30220.8961 68.2703 109.0313
TCL: Running FEP window  17: Lambda1 0.8000000000000002 Lambda2 0.8500000000000002 [dLambda 0.050000000000000044]
TCL: Setting parameter firsttimestep to 0
TCL: Setting parameter alchLambda to 0.8000000000000002
Info: NONBONDED TABLE R-SQUARED SPACING: 0.0625
Info: NONBONDED TABLE SIZE: 705 POINTS
TCL: Setting parameter alchLambda2 to 0.8500000000000002
Info: NONBONDED TABLE R-SQUARED SPACING: 0.0625
Info: NONBONDED TABLE SIZE: 705 POINTS
TCL: Running for 1500000 steps
ETITLE: TS BOND ANGLE DIHED IMPRP ELECT VDW BOUNDARY MISC KINETIC TOTAL TEMP POTENTIAL TOTALAVG TEMPAVG PRESSURE GPRESSURE VOLUME PRESSAVG GPRESSAVG
ENERGY: 0 12.0920 11.5573 15.1248 0.0000 -10794.9715 1450.0500 0.0000 0.0000 1777.1514 -7528.9959 305.0148 -9306.1473 -7528.9959 305.0148 -151.7873 -78.8879 30220.8961 -151.7873 -78.8879
ENERGY: 300000 5.3623 16.4081 13.6747 0.0000 -10716.7495 1401.5963 0.0000 0.0000 1742.0894 -7537.6186 298.9970 -9279.7081 -7510.5176 305.1215 -60.0999 -39.0749 29816.4104 104.6687 179.4045
ENERGY: 600000 2.7177 8.2538 11.7368 0.0000 -10567.1040 1309.2456 0.0000 0.0000 1727.9675 -7507.1826 296.5733 -9235.1501 -7544.8158 297.8570 -704.8719 -645.9594 30125.1761 21.0170 79.9494
ENERGY: 900000 2.6905 16.1938 12.2821 0.0000 -10684.8514 1429.0891 0.0000 0.0000 1801.1357 -7423.4601 309.1312 -9224.5959 -7522.7513 300.0267 279.3577 329.9934 30052.9419 -67.6466 0.5172
ENERGY: 1200000 3.5151 14.8154 12.3761 0.0000 -10614.4975 1363.4424 0.0000 0.0000 1746.7205 -7473.6280 299.7919 -9220.3486 -7508.1588 300.5991 -348.8513 -286.0399 30112.6951 -256.0652 -194.4973
ENERGY: 1500000 7.6132 12.0446 16.1612 0.0000 -10748.5020 1409.0513 0.0000 0.0000 1763.8192 -7539.8126 302.7265 -9303.6318 -7508.4033 300.9899 -107.4337 -13.1375 29473.0584 -216.2675 -152.7746
TCL: Running FEP window  18: Lambda1 0.8500000000000002 Lambda2 0.9000000000000002 [dLambda 0.050000000000000044]
TCL: Setting parameter firsttimestep to 0
TCL: Setting parameter alchLambda to 0.8500000000000002
Info: NONBONDED TABLE R-SQUARED SPACING: 0.0625
Info: NONBONDED TABLE SIZE: 705 POINTS
TCL: Setting parameter alchLambda2 to 0.9000000000000002
Info: NONBONDED TABLE R-SQUARED SPACING: 0.0625
Info: NONBONDED TABLE SIZE: 705 POINTS
TCL: Running for 1500000 steps
ETITLE: TS BOND ANGLE DIHED IMPRP ELECT VDW BOUNDARY MISC KINETIC TOTAL TEMP POTENTIAL TOTALAVG TEMPAVG PRESSURE GPRESSURE VOLUME PRESSAVG GPRESSAVG
ENERGY: 0 7.6132 12.0446 16.1612 0.0000 -10751.2260 1409.5931 0.0000 0.0000 1762.9493 -7542.8646 302.5772 -9305.8139 -7542.8646 302.5772 -83.5704 7.7301 29473.0584 -83.5704 7.7301
ENERGY: 300000 2.5585 16.8891 13.1873 0.0000 -10780.7355 1418.4974 0.0000 0.0000 1719.0456 -7610.5576 295.0420 -9329.6032 -7569.1097 298.4360 -295.2570 -222.1690 30059.0958 -476.5115 -418.2639
ENERGY: 600000 5.7149 14.9522 13.9973 0.0000 -10764.2907 1418.1203 0.0000 0.0000 1851.7755 -7459.7305 317.8226 -9311.5060 -7534.1933 304.2438 -114.5243 -58.3306 30098.1862 -149.1489 -103.8942
ENERGY: 900000 4.5615 13.2861 13.4821 0.0000 -10775.2005 1463.1792 0.0000 0.0000 1740.6172 -7540.0744 298.7443 -9280.6916 -7531.5399 303.9532 754.5885 734.7865 29636.2706 13.2217 51.8200
ENERGY: 1200000 5.9416 9.7018 13.8013 0.0000 -10780.6579 1466.9975 0.0000 0.0000 1783.7019 -7500.5138 306.1390 -9284.2158 -7534.5022 302.6815 603.7871 663.7017 29825.8932 31.7944 74.8093
ENERGY: 1500000 6.2580 18.3546 11.0601 0.0000 -10907.8102 1538.3402 0.0000 0.0000 1733.2081 -7600.5891 297.4727 -9333.7973 -7532.1838 302.2064 858.5169 928.5040 29790.9597 41.7568 85.4227
TCL: Running FEP window  19: Lambda1 0.9000000000000002 Lambda2 0.9500000000000003 [dLambda 0.050000000000000044]
TCL: Setting parameter firsttimestep to 0
TCL: Setting parameter alchLambda to 0.9000000000000002
Info: NONBONDED TABLE R-SQUARED SPACING: 0.0625
Info: NONBONDED TABLE SIZE: 705 POINTS
TCL: Setting parameter alchLambda2 to 0.9500000000000003
Info: NONBONDED TABLE R-SQUARED SPACING: 0.0625
Info: NONBONDED TABLE SIZE: 705 POINTS
TCL: Running for 1500000 steps
ETITLE: TS BOND ANGLE DIHED IMPRP ELECT VDW BOUNDARY MISC KINETIC TOTAL TEMP POTENTIAL TOTALAVG TEMPAVG PRESSURE GPRESSURE VOLUME PRESSAVG GPRESSAVG
ENERGY: 0 6.2580 18.3546 11.0601 0.0000 -10909.9506 1537.7832 0.0000 0.0000 1732.3351 -7604.1595 297.3229 -9336.4947 -7604.1595 297.3229 837.9436 937.5809 29790.9597 837.9436 937.5809
ENERGY: 300000 2.9464 8.3557 12.7906 0.0000 -10615.7679 1369.3103 0.0000 0.0000 1758.5598 -7463.8052 301.8239 -9222.3650 -7547.5989 296.8108 -191.2622 -137.1754 30241.7230 -233.0442 -162.4801
ENERGY: 600000 5.9048 20.1318 11.7841 0.0000 -10670.3948 1386.4149 0.0000 0.0000 1732.1006 -7514.0587 297.2826 -9246.1593 -7520.8284 300.0880 -278.4024 -173.0876 29976.1479 -262.3300 -184.6641
ENERGY: 900000 4.5241 12.6346 14.6351 0.0000 -10679.8526 1384.5203 0.0000 0.0000 1696.4487 -7567.0898 291.1637 -9263.5386 -7523.4771 299.1443 -136.3173 -114.8955 29509.1557 -316.6677 -244.0513
ENERGY: 1200000 2.5913 19.8387 13.7783 0.0000 -10749.2231 1404.4869 0.0000 0.0000 1766.7983 -7541.7296 303.2378 -9308.5279 -7532.9060 299.2973 -181.6504 -135.5674 30304.8235 -333.3089 -271.6823
ENERGY: 1500000 6.1215 17.8279 11.8225 0.0000 -10630.0528 1374.4559 0.0000 0.0000 1748.7856 -7471.0394 300.1463 -9219.8250 -7525.9756 299.3095 -388.9751 -331.3095 30338.9143 -246.6545 -187.0241
TCL: Running FEP window  20: Lambda1 0.9500000000000003 Lambda2 1.0    [dLambda 0.04999999999999971]
TCL: Setting parameter firsttimestep to 0
TCL: Setting parameter alchLambda to 0.9500000000000003
Info: NONBONDED TABLE R-SQUARED SPACING: 0.0625
Info: NONBONDED TABLE SIZE: 705 POINTS
TCL: Setting parameter alchLambda2 to 1.0
Info: NONBONDED TABLE R-SQUARED SPACING: 0.0625
Info: NONBONDED TABLE SIZE: 705 POINTS
TCL: Running for 1500000 steps
ETITLE: TS BOND ANGLE DIHED IMPRP ELECT VDW BOUNDARY MISC KINETIC TOTAL TEMP POTENTIAL TOTALAVG TEMPAVG PRESSURE GPRESSURE VOLUME PRESSAVG GPRESSAVG
ENERGY: 0 6.1215 17.8279 11.8225 0.0000 -10633.4630 1375.2025 0.0000 0.0000 1747.8984 -7474.5902 299.9940 -9222.4886 -7474.5902 299.9940 -381.3144 -305.8140 30338.9143 -381.3144 -305.8140
ENERGY: 300000 7.7562 19.8297 15.6785 0.0000 -10751.2068 1443.3584 0.0000 0.0000 1775.6708 -7488.9132 304.7606 -9264.5840 -7502.8425 301.7255 310.2307 394.6867 30054.5423 16.9287 87.7852
ENERGY: 600000 8.8165 12.3267 11.6360 0.0000 -10727.2281 1437.8444 0.0000 0.0000 1719.2319 -7537.3726 295.0740 -9256.6045 -7512.8817 299.6492 120.5902 186.1448 30167.7511 -14.3051 53.6666
ENERGY: 900000 4.8899 13.5643 15.3301 0.0000 -10743.0905 1420.3341 0.0000 0.0000 1730.2481 -7558.7241 296.9647 -9288.9721 -7522.8086 299.1026 -126.3390 -62.2708 30167.0519 -41.3124 26.5109
ENERGY: 1200000 6.0882 14.7323 14.6111 0.0000 -10794.6214 1503.8328 0.0000 0.0000 1750.6992 -7504.6578 300.4747 -9255.3570 -7518.5795 299.0890 606.6102 724.8910 30049.5013 -75.8742 -5.5723
ENERGY: 1500000 3.9387 11.6342 12.0127 0.0000 -10736.8580 1451.8747 0.0000 0.0000 1796.2643 -7461.1333 308.2951 -9257.3976 -7512.7865 299.6032 323.1609 355.5195 29915.0437 -10.8351 63.8158
TCL: Exiting due to exit command.
