Info: SIMULATION PARAMETERS:
Info: TIMESTEP               2
Info: NUMBER OF STEPS        0
Info: STEPS PER CYCLE        10
Info: PERIODIC CELL BASIS 1  29.7157 0 0
Info: PERIODIC CELL BASIS 2  0 31.6651 0
Info: PERIODIC CELL BASIS 3  0 0 30.8963
Info: PERIODIC CELL CENTER   0 0 0
Info: WRAPPING WATERS AROUND PERIODIC BOUNDARIES ON OUTPUT.
Info: WRAPPING ALL CLUSTERS AROUND PERIODIC BOUNDARIES ON OUTPUT.
Info: FIRST LDB TIMESTEP     50
Info: LAST LDB TIMESTEP     -1
Info: HOM BACKGROUND SCALING 1
Info: PME BACKGROUND SCALING 1
Info: MIN ATOMS PER PATCH    40
Info: EMPTY PATCH LOAD       40 ATOMS
Info: VELOCITY FILE          mobley_9534740_equil.vel
Info: CENTER OF MASS MOVING INITIALLY? NO
Info: DIELECTRIC             1
Info: EXCLUDE                SCALED ONE-FOUR
Info: 1-4 ELECTROSTATICS SCALED BY 0.833333
Info: MODIFIED 1-4 VDW PARAMETERS WILL BE USED
Info: DCD FILENAME           mobley_9534740_prod.dcd
Info: DCD FREQUENCY          100000
Info: DCD FIRST STEP         100000
Info: DCD FILE WILL CONTAIN UNIT CELL DATA
Info: XST FILENAME           mobley_9534740_prod.xst
Info: XST FREQUENCY          100000
Info: NO VELOCITY DCD OUTPUT
Info: NO FORCE DCD OUTPUT
Info: OUTPUT FILENAME        mobley_9534740_prod
Info: BINARY OUTPUT FILES WILL BE USED
Info: RESTART FILENAME       mobley_9534740_prod.restart
Info: RESTART FREQUENCY      100000
Info: BINARY RESTART FILES WILL BE USED
Info: CUTOFF                 9
Info: PAIRLIST DISTANCE      11
Info: PAIRLIST SHRINK RATE   0.01
Info: PAIRLIST GROW RATE     0.01
Info: PAIRLIST TRIGGER       0.3
Info: PAIRLISTS PER CYCLE    2
Info: PAIRLISTS ENABLED
Info: MARGIN                 2
Info: HYDROGEN GROUP CUTOFF  2.5
Info: PATCH DIMENSION        15.5
Info: ENERGY OUTPUT STEPS    100000
Info: ENERGY EVALUATION STEPS    100000
Info: OUTPUT ENERGY PRECISION 4
Info: CROSSTERM ENERGY INCLUDED IN DIHEDRAL
Info: TIMING OUTPUT STEPS    1000000
Info: PRESSURE OUTPUT STEPS  100000
Info: ALCHEMICAL FEP ON
Info: FEP CURRENT LAMBDA VALUE     1
Info: FEP COMPARISON LAMBDA VALUE  0.95
Info: FEP INTRA-ALCHEMICAL NON-BONDED INTERACTIONS WILL BE RETAINED
Info: FEP INTRA-ALCHEMICAL BONDED INTERACTIONS WILL BE RETAINED
Info: FEP VDW SHIFTING COEFFICIENT 5
Info: FEP ELEC. ACTIVE FOR ANNIHILATED PARTICLES BETWEEN LAMBDA = 0 AND LAMBDA = 0.5
Info: FEP ELEC. ACTIVE FOR EXNIHILATED PARTICLES BETWEEN LAMBDA = 0.5 AND LAMBDA = 1
Info: FEP VDW ACTIVE FOR ANNIHILATED PARTICLES BETWEEN LAMBDA = 0 AND LAMBDA = 1
Info: FEP VDW ACTIVE FOR EXNIHILATED PARTICLES BETWEEN LAMBDA = 0 AND LAMBDA = 1
Info: FEP BOND ACTIVE FOR ANNIHILATED PARTICLES BETWEEN LAMBDA = 1 AND LAMBDA = 1
Info: FEP BOND ACTIVE FOR EXNIHILATED PARTICLES BETWEEN LAMBDA = 0 AND LAMBDA = 0
Info: LANGEVIN DYNAMICS ACTIVE
Info: LANGEVIN TEMPERATURE   300
Info: LANGEVIN USING BBK INTEGRATOR
Info: LANGEVIN DAMPING COEFFICIENT IS 1 INVERSE PS
Info: LANGEVIN DYNAMICS APPLIED TO HYDROGENS
Info: LANGEVIN PISTON PRESSURE CONTROL ACTIVE
Info:        TARGET PRESSURE IS 1.01325 BAR
Info:     OSCILLATION PERIOD IS 50 FS
Info:             DECAY TIME IS 25 FS
Info:     PISTON TEMPERATURE IS 300 K
Info:       PRESSURE CONTROL IS GROUP-BASED
Info:    INITIAL STRAIN RATE IS 0.000551994 0.000551994 0.000551994
Info:       CELL FLUCTUATION IS ISOTROPIC
Info: PARTICLE MESH EWALD (PME) ACTIVE
Info: PME TOLERANCE               1e-06
Info: PME EWALD COEFFICIENT       0.348832
Info: PME INTERPOLATION ORDER     4
Info: PME GRID DIMENSIONS         32 32 32
Info: PME MAXIMUM GRID SPACING    1
Info: PME CALCULATION WILL BE PERFORMED ON GPU
Info: FULL ELECTROSTATIC EVALUATION FREQUENCY      2
Info: USING VERLET I (r-RESPA) MTS SCHEME.
Info: C1 SPLITTING OF LONG RANGE ELECTROSTATICS
Info: PLACING ATOMS IN PATCHES BY HYDROGEN GROUPS
Info: RIGID BONDS TO HYDROGEN : ALL
Info:         ERROR TOLERANCE : 1e-08
Info:          MAX ITERATIONS : 100
Info: RIGID WATER USING SETTLE ALGORITHM
Info: RANDOM NUMBER SEED     1743813289
Info: USE HYDROGEN BONDS?    NO
Info: Using AMBER format force field!
Info: AMBER PARM FILE        mobley_9534740.prmtop
Info: COORDINATE PDB         mobley_9534740.pdb
Info: Exclusions will be read from PARM file!
Info: SCNB (VDW SCALING)     2
Info: USING ARITHMETIC MEAN TO COMBINE L-J SIGMA PARAMETERS
Info: BINARY COORDINATES     mobley_9534740_equil.coor
Info: SUMMARY OF PARAMETERS:
Info: 8 BONDS
Info: 13 ANGLES
Info:   13 HARMONIC
Info:   0 COSINE-BASED
Info: 13 DIHEDRAL
Info: 0 IMPROPER
Info: 0 CROSSTERM
Info: 0 VDW
Info: 28 VDW_PAIRS
Info: 0 NBTHOLE_PAIRS
Info: To read alchdata from file: mobley_9534740.pdb
Info: To read alchflag data from column: 5
Info: STRUCTURE SUMMARY:
Info: 2901 ATOMS
Info: 2901 BONDS
Info: 42 ANGLES
Info: 100 DIHEDRALS
Info: 0 IMPROPERS
Info: 0 CROSSTERMS
Info: 3006 EXCLUSIONS
Info: 2889 RIGID BONDS
Info: ALCH: 0 ATOMS TO DISAPPEAR IN FINAL STATE
Info: ALCH: 24 ATOMS TO APPEAR IN FINAL STATE
Info: 5814 DEGREES OF FREEDOM
Info: 971 HYDROGEN GROUPS
Info: 3 ATOMS IN LARGEST HYDROGEN GROUP
Info: 971 MIGRATION GROUPS
Info: 3 ATOMS IN LARGEST MIGRATION GROUP
Info: TOTAL MASS = 17457.5 amu
Info: TOTAL CHARGE = 4.84288e-08 e
Info: MASS DENSITY = 0.99717 g/cm^3
Info: ATOM DENSITY = 0.0997874 atoms/A^3
Info: ADDED 0 IMPLICIT EXCLUSIONS
Info: NONBONDED TABLE R-SQUARED SPACING: 0.0625
Info: NONBONDED TABLE SIZE: 705 POINTS
Info: REMOVING COM VELOCITY 0.028769 0.132854 0.0200971
Info: Use 3D box decompostion in PME FFT.
Info: Updated CUDA force table with 4096 elements.
Info: Updated CUDA LJ table with 7 x 7 elements.
Info: Found 27 unique exclusion lists needing 84 bytes
TCL: Running for 1500000 steps
ETITLE: TS BOND ANGLE DIHED IMPRP ELECT VDW BOUNDARY MISC KINETIC TOTAL TEMP POTENTIAL TOTALAVG TEMPAVG PRESSURE GPRESSURE VOLUME PRESSAVG GPRESSAVG
ENERGY: 0 3.9253 8.2100 15.6317 0.0000 -10553.2246 1431.6630 0.0000 0.0000 1691.2902 -7402.5044 292.7747 -9093.7946 -7402.5044 292.7747 334.7446 408.3871 29071.8100 334.7446 408.3871
ENERGY: 300000 3.9559 12.0148 14.6878 0.0000 -10369.1774 1318.9558 0.0000 0.0000 1754.1843 -7265.3788 303.6621 -9019.5631 -7334.0379 298.0705 -774.7955 -639.1433 29821.5692 -270.4299 -185.8904
ENERGY: 600000 4.9855 17.6644 15.9240 0.0000 -10498.6173 1450.5158 0.0000 0.0000 1710.1291 -7299.3985 296.0358 -9009.5276 -7318.1906 298.7891 82.4876 192.1681 29991.9490 -265.4131 -184.1890
ENERGY: 900000 5.7705 10.5999 14.9971 0.0000 -10447.1167 1377.2474 0.0000 0.0000 1793.3985 -7245.1032 310.4504 -9038.5017 -7315.7013 299.1543 167.5207 228.0789 29469.1038 -65.4364 5.9843
ENERGY: 1200000 4.5832 7.8608 14.8921 0.0000 -10474.6944 1409.5407 0.0000 0.0000 1724.9123 -7312.9053 298.5949 -9037.8176 -7330.1541 299.0405 -61.2234 26.4235 29806.6170 22.5206 93.6929
ENERGY: 1500000 2.6591 6.4720 16.7376 0.0000 -10518.6273 1518.2817 0.0000 0.0000 1738.7186 -7235.7582 300.9849 -8974.4769 -7314.5283 299.7033 1204.2489 1312.7151 29771.6641 95.5408 167.7351
TCL: Running FEP window   2: Lambda1 0.95   Lambda2 0.8999999999999999 [dLambda -0.050000000000000044]
TCL: Setting parameter firsttimestep to 0
TCL: Setting parameter alchLambda to 0.95
Info: NONBONDED TABLE R-SQUARED SPACING: 0.0625
Info: NONBONDED TABLE SIZE: 705 POINTS
TCL: Setting parameter alchLambda2 to 0.8999999999999999
Info: NONBONDED TABLE R-SQUARED SPACING: 0.0625
Info: NONBONDED TABLE SIZE: 705 POINTS
TCL: Running for 1500000 steps
ETITLE: TS BOND ANGLE DIHED IMPRP ELECT VDW BOUNDARY MISC KINETIC TOTAL TEMP POTENTIAL TOTALAVG TEMPAVG PRESSURE GPRESSURE VOLUME PRESSAVG GPRESSAVG
ENERGY: 0 2.6591 6.4720 16.7376 0.0000 -10512.0805 1514.8791 0.0000 0.0000 1737.8707 -7233.4620 300.8381 -8971.3327 -7233.4620 300.8381 1197.4456 1270.8643 29771.6641 1197.4456 1270.8643
ENERGY: 300000 3.4986 12.4672 15.4409 0.0000 -10547.2369 1460.9232 0.0000 0.0000 1742.6224 -7312.2846 301.6606 -9054.9070 -7297.8810 299.4781 753.0193 850.0124 29175.6684 587.4240 642.2809
ENERGY: 600000 7.0640 17.0493 16.3895 0.0000 -10473.0524 1403.1499 0.0000 0.0000 1727.6795 -7301.7201 299.0739 -9029.3996 -7303.0203 299.3268 -197.3443 -130.4546 29924.0946 441.7653 505.4085
ENERGY: 900000 6.1636 10.8488 15.5941 0.0000 -10516.6939 1439.9186 0.0000 0.0000 1732.5682 -7311.6006 299.9202 -9044.1689 -7306.7708 300.1925 173.1215 264.9943 29561.5410 246.9076 308.3866
ENERGY: 1200000 6.4954 9.6818 15.3061 0.0000 -10403.4243 1367.1943 0.0000 0.0000 1761.1261 -7243.6206 304.8638 -9004.7467 -7298.7695 300.5044 -437.3936 -403.7329 30146.4138 128.4253 184.9684
ENERGY: 1500000 3.6206 7.1374 16.1780 0.0000 -10281.0953 1363.8874 0.0000 0.0000 1710.3611 -7179.9107 296.0760 -8890.2718 -7290.1680 300.6493 -59.7131 20.3446 30025.3086 69.5158 129.8161
TCL: Running FEP window   3: Lambda1 0.8999999999999999 Lambda2 0.8499999999999999 [dLambda -0.050000000000000044]
TCL: Setting parameter firsttimestep to 0
TCL: Setting parameter alchLambda to 0.8999999999999999
Info: NONBONDED TABLE R-SQUARED SPACING: 0.0625
Info: NONBONDED TABLE SIZE: 705 POINTS
TCL: Setting parameter alchLambda2 to 0.8499999999999999
Info: NONBONDED TABLE R-SQUARED SPACING: 0.0625
Info: NONBONDED TABLE SIZE: 705 POINTS
TCL: Running for 1500000 steps
ETITLE: TS BOND ANGLE DIHED IMPRP ELECT VDW BOUNDARY MISC KINETIC TOTAL TEMP POTENTIAL TOTALAVG TEMPAVG PRESSURE GPRESSURE VOLUME PRESSAVG GPRESSAVG
ENERGY: 0 3.6206 7.1374 16.1780 0.0000 -10276.7227 1362.6087 0.0000 0.0000 1709.5037 -7177.6743 295.9275 -8887.1780 -7177.6743 295.9275 -92.6834 -0.0788 30025.3086 -92.6834 -0.0788
ENERGY: 300000 3.2495 10.0954 13.8115 0.0000 -10356.9129 1295.8805 0.0000 0.0000 1776.9445 -7256.9315 307.6020 -9033.8759 -7251.8352 300.8175 -927.6977 -865.1107 29979.7101 -132.9501 -99.4371
ENERGY: 600000 5.3241 10.3073 15.1211 0.0000 -10597.1512 1456.6682 0.0000 0.0000 1792.6715 -7317.0591 310.3245 -9109.7306 -7288.7700 301.3384 156.0171 212.7402 29651.7607 -150.8993 -93.2577
ENERGY: 900000 1.7877 12.1900 19.5562 0.0000 -10418.0766 1336.0664 0.0000 0.0000 1672.2713 -7376.2051 289.4824 -9048.4764 -7300.8684 299.3901 -1032.9103 -932.1975 30619.6534 -225.8516 -176.0140
ENERGY: 1200000 1.3460 12.0839 16.2361 0.0000 -10521.4244 1405.8153 0.0000 0.0000 1720.1998 -7365.7433 297.7791 -9085.9431 -7303.7142 299.3957 -83.4422 -49.9155 29814.7073 -193.3563 -147.1438
ENERGY: 1500000 4.7531 9.5042 16.8317 0.0000 -10550.0731 1452.9554 0.0000 0.0000 1715.1098 -7350.9190 296.8980 -9066.0288 -7307.0847 298.9831 209.8068 240.4329 29775.5315 -122.4964 -70.5602
TCL: Running FEP window   4: Lambda1 0.8499999999999999 Lambda2 0.7999999999999998 [dLambda -0.050000000000000044]
TCL: Setting parameter firsttimestep to 0
TCL: Setting parameter alchLambda to 0.8499999999999999
Info: NONBONDED TABLE R-SQUARED SPACING: 0.0625
Info: NONBONDED TABLE SIZE: 705 POINTS
TCL: Setting parameter alchLambda2 to 0.7999999999999998
Info: NONBONDED TABLE R-SQUARED SPACING: 0.0625
Info: NONBONDED TABLE SIZE: 705 POINTS
TCL: Running for 1500000 steps
ETITLE: TS BOND ANGLE DIHED IMPRP ELECT VDW BOUNDARY MISC KINETIC TOTAL TEMP POTENTIAL TOTALAVG TEMPAVG PRESSURE GPRESSURE VOLUME PRESSAVG GPRESSAVG
ENERGY: 0 4.7531 9.5042 16.8317 0.0000 -10545.9657 1451.2859 0.0000 0.0000 1714.2567 -7349.3341 296.7503 -9063.5908 -7349.3341 296.7503 132.7911 216.3031 29775.5315 132.7911 216.3031
ENERGY: 300000 4.1282 11.9638 16.1144 0.0000 -10509.1545 1365.9792 0.0000 0.0000 1644.5529 -7466.4161 284.6841 -9110.9690 -7345.7861 295.9168 -444.5248 -342.4027 29565.0393 236.9306 336.2051
ENERGY: 600000 6.4762 11.4571 14.6380 0.0000 -10513.6709 1436.8537 0.0000 0.0000 1713.4079 -7330.8379 296.6034 -9044.2458 -7332.5043 295.8868 -82.8552 -4.3467 29871.2426 -115.2157 -26.6521
ENERGY: 900000 2.6275 9.6457 14.2475 0.0000 -10617.2446 1457.0938 0.0000 0.0000 1724.8281 -7408.8020 298.5803 -9133.6301 -7320.7533 297.6835 193.5003 281.6992 29651.1919 -183.4585 -106.2067
ENERGY: 1200000 3.5368 6.2706 14.8579 0.0000 -10178.3799 1273.2262 0.0000 0.0000 1731.7972 -7148.6912 299.7867 -8880.4884 -7294.4732 297.5739 -808.5414 -751.9205 30249.5653 -328.0869 -252.1411
ENERGY: 1500000 4.0595 12.9570 15.3636 0.0000 -10342.2010 1311.7398 0.0000 0.0000 1754.4390 -7243.6421 303.7062 -8998.0811 -7299.2766 298.0675 -641.5655 -496.3856 29741.6195 -171.9091 -93.5135
TCL: Running FEP window   5: Lambda1 0.7999999999999998 Lambda2 0.7499999999999998 [dLambda -0.050000000000000044]
TCL: Setting parameter firsttimestep to 0
TCL: Setting parameter alchLambda to 0.7999999999999998
Info: NONBONDED TABLE R-SQUARED SPACING: 0.0625
Info: NONBONDED TABLE SIZE: 705 POINTS
TCL: Setting parameter alchLambda2 to 0.7499999999999998
Info: NONBONDED TABLE R-SQUARED SPACING: 0.0625
Info: NONBONDED TABLE SIZE: 705 POINTS
TCL: Running for 1500000 steps
ETITLE: TS BOND ANGLE DIHED IMPRP ELECT VDW BOUNDARY MISC KINETIC TOTAL TEMP POTENTIAL TOTALAVG TEMPAVG PRESSURE GPRESSURE VOLUME PRESSAVG GPRESSAVG
ENERGY: 0 4.0595 12.9570 15.3636 0.0000 -10337.1942 1308.3623 0.0000 0.0000 1753.6056 -7242.8463 303.5619 -8996.4519 -7242.8463 303.5619 -631.5272 -535.5531 29741.6195 -631.5272 -535.5531
ENERGY: 300000 6.2605 13.3798 15.8170 0.0000 -10415.5817 1348.9896 0.0000 0.0000 1756.0064 -7275.1284 303.9775 -9031.1347 -7318.7772 300.0623 -654.5138 -613.4818 30253.5116 -437.9704 -346.4432
ENERGY: 600000 1.8120 9.8002 14.8952 0.0000 -10562.4183 1402.2774 0.0000 0.0000 1749.0224 -7384.6111 302.7685 -9133.6335 -7314.1063 300.5765 -291.3248 -240.8575 29900.0222 -241.9234 -179.4485
ENERGY: 900000 3.8241 7.7954 17.8893 0.0000 -10454.3755 1370.1729 0.0000 0.0000 1761.8950 -7292.7988 304.9969 -9054.6938 -7282.0908 301.6862 -582.6328 -441.7376 29903.8072 -285.3838 -209.6975
ENERGY: 1200000 2.8571 7.0971 14.8172 0.0000 -10607.2417 1509.7737 0.0000 0.0000 1773.3585 -7299.3380 306.9813 -9072.6966 -7296.9803 300.8351 711.9304 752.8015 29780.4584 -220.7671 -153.2467
ENERGY: 1500000 1.7205 8.6985 15.0986 0.0000 -10339.0159 1340.5913 0.0000 0.0000 1693.4560 -7279.4511 293.1496 -8972.9071 -7290.0713 300.6445 -444.1417 -361.5486 29876.2336 -211.7314 -141.3076
TCL: Running FEP window   6: Lambda1 0.7499999999999998 Lambda2 0.6999999999999997 [dLambda -0.050000000000000044]
TCL: Setting parameter firsttimestep to 0
TCL: Setting parameter alchLambda to 0.7499999999999998
Info: NONBONDED TABLE R-SQUARED SPACING: 0.0625
Info: NONBONDED TABLE SIZE: 705 POINTS
TCL: Setting parameter alchLambda2 to 0.6999999999999997
Info: NONBONDED TABLE R-SQUARED SPACING: 0.0625
Info: NONBONDED TABLE SIZE: 705 POINTS
TCL: Running for 1500000 steps
ETITLE: TS BOND ANGLE DIHED IMPRP ELECT VDW BOUNDARY MISC KINETIC TOTAL TEMP POTENTIAL TOTALAVG TEMPAVG PRESSURE GPRESSURE VOLUME PRESSAVG GPRESSAVG
ENERGY: 0 1.7205 8.6985 15.0986 0.0000 -10333.8804 1337.9623 0.0000 0.0000 1692.5774 -7277.8231 292.9975 -8970.4005 -7277.8231 292.9975 -473.7606 -390.0910 29876.2336 -473.7606 -390.0910
ENERGY: 300000 1.6964 12.7257 14.5097 0.0000 -10395.4451 1445.8920 0.0000 0.0000 1684.6692 -7235.9521 291.6285 -8920.6213 -7251.2048 299.7908 299.2780 422.3267 30034.7390 -52.1208 40.5452
ENERGY: 600000 4.3246 14.4003 14.6430 0.0000 -10531.5439 1390.4955 0.0000 0.0000 1694.0853 -7413.5951 293.2585 -9107.6804 -7275.8519 298.4311 -232.8550 -197.2578 29317.6963 -20.5232 54.6062
ENERGY: 900000 4.9190 7.2510 14.3429 0.0000 -10529.8312 1418.2828 0.0000 0.0000 1767.5312 -7317.5042 305.9725 -9085.0354 -7277.4596 300.4305 -163.0871 -79.5145 30079.3832 -119.2476 -54.9679
ENERGY: 1200000 3.2576 13.1008 14.9168 0.0000 -10415.9798 1376.8845 0.0000 0.0000 1785.8460 -7221.9741 309.1430 -9007.8201 -7288.0378 300.5668 131.8863 221.4028 29403.1576 -98.5017 -30.7112
ENERGY: 1500000 3.2778 8.8828 15.6437 0.0000 -10336.2794 1302.1770 0.0000 0.0000 1712.6555 -7293.6426 296.4732 -9006.2982 -7297.6329 299.8452 -802.1111 -768.3009 29987.3012 -142.4116 -77.3064
TCL: Running FEP window   7: Lambda1 0.6999999999999997 Lambda2 0.6499999999999997 [dLambda -0.050000000000000044]
TCL: Setting parameter firsttimestep to 0
TCL: Setting parameter alchLambda to 0.6999999999999997
Info: NONBONDED TABLE R-SQUARED SPACING: 0.0625
Info: NONBONDED TABLE SIZE: 705 POINTS
TCL: Setting parameter alchLambda2 to 0.6499999999999997
Info: NONBONDED TABLE R-SQUARED SPACING: 0.0625
Info: NONBONDED TABLE SIZE: 705 POINTS
TCL: Running for 1500000 steps
ETITLE: TS BOND ANGLE DIHED IMPRP ELECT VDW BOUNDARY MISC KINETIC TOTAL TEMP POTENTIAL TOTALAVG TEMPAVG PRESSURE GPRESSURE VOLUME PRESSAVG GPRESSAVG
ENERGY: 0 3.2778 8.8828 15.6437 0.0000 -10332.8856 1301.9961 0.0000 0.0000 1711.8246 -7291.2607 296.3293 -9003.0852 -7291.2607 296.3293 -845.2037 -777.8301 29987.3012 -845.2037 -777.8301
ENERGY: 300000 5.3932 9.9044 17.1921 0.0000 -10509.0629 1462.5442 0.0000 0.0000 1738.1883 -7275.8408 300.8931 -9014.0291 -7288.4652 300.3110 261.5668 346.5839 29885.1325 -25.1913 53.4942
ENERGY: 600000 2.7942 13.6896 14.9868 0.0000 -10353.6941 1362.3576 0.0000 0.0000 1688.6741 -7271.1918 292.3218 -8959.8659 -7296.6525 299.1477 -173.1082 -85.0609 29796.1881 -88.6323 -14.5768
ENERGY: 900000 1.1405 11.7431 15.3547 0.0000 -10461.8853 1396.3661 0.0000 0.0000 1726.9236 -7310.3572 298.9431 -9037.2808 -7291.2111 298.7779 -114.3115 -12.0149 29899.9299 32.6283 109.5679
ENERGY: 1200000 2.6125 10.7088 15.1164 0.0000 -10453.9537 1413.8289 0.0000 0.0000 1719.9281 -7291.7590 297.7321 -9011.6871 -7288.5829 300.1251 47.0037 86.5168 29983.1124 21.5229 93.2392
ENERGY: 1500000 2.8689 6.1214 16.9555 0.0000 -10415.7428 1359.8667 0.0000 0.0000 1737.6439 -7292.2863 300.7988 -9029.9302 -7290.6436 299.6019 -476.0860 -485.2960 29872.5015 35.7592 96.2244
TCL: Running FEP window   8: Lambda1 0.6499999999999997 Lambda2 0.5999999999999996 [dLambda -0.050000000000000044]
TCL: Setting parameter firsttimestep to 0
TCL: Setting parameter alchLambda to 0.6499999999999997
Info: NONBONDED TABLE R-SQUARED SPACING: 0.0625
Info: NONBONDED TABLE SIZE: 705 POINTS
TCL: Setting parameter alchLambda2 to 0.5999999999999996
Info: NONBONDED TABLE R-SQUARED SPACING: 0.0625
Info: NONBONDED TABLE SIZE: 705 POINTS
TCL: Running for 1500000 steps
ETITLE: TS BOND ANGLE DIHED IMPRP ELECT VDW BOUNDARY MISC KINETIC TOTAL TEMP POTENTIAL TOTALAVG TEMPAVG PRESSURE GPRESSURE VOLUME PRESSAVG GPRESSAVG
ENERGY: 0 2.8689 6.1214 16.9555 0.0000 -10411.5231 1359.7040 0.0000 0.0000 1736.7760 -7289.0972 300.6486 -9025.8732 -7289.0972 300.6486 -559.7110 -482.2321 29872.5015 -559.7110 -482.2321
ENERGY: 300000 4.6127 12.2254 17.2750 0.0000 -10505.1729 1383.7679 0.0000 0.0000 1726.1491 -7361.1428 298.8090 -9087.2919 -7300.0499 298.8944 107.3669 105.4680 28907.2355 -229.4659 -201.3351
ENERGY: 600000 4.5352 10.4156 17.4755 0.0000 -10388.6226 1389.9319 0.0000 0.0000 1785.3135 -7180.9508 309.0508 -8966.2644 -7293.9529 299.1954 -98.8941 34.0226 29662.0712 -128.4943 -76.1290
ENERGY: 900000 2.7481 5.8853 15.1195 0.0000 -10413.2812 1411.0475 0.0000 0.0000 1715.4647 -7263.0161 296.9594 -8978.4808 -7286.7307 298.3788 -177.9881 -21.4889 30434.5061 -112.8980 -53.1833
ENERGY: 1200000 4.7460 12.2925 15.7921 0.0000 -10371.4680 1343.2119 0.0000 0.0000 1749.2789 -7246.1467 302.8129 -8995.4256 -7288.4306 298.7261 -544.8517 -479.7762 30104.0979 -159.0653 -104.1000
ENERGY: 1500000 5.2276 11.5349 17.4977 0.0000 -10317.6473 1327.4583 0.0000 0.0000 1756.7361 -7199.1927 304.1038 -8955.9288 -7276.4550 299.9228 -447.4344 -366.4453 29923.7011 -241.8270 -182.1600
TCL: Running FEP window   9: Lambda1 0.5999999999999996 Lambda2 0.5499999999999996 [dLambda -0.050000000000000044]
TCL: Setting parameter firsttimestep to 0
TCL: Setting parameter alchLambda to 0.5999999999999996
Info: NONBONDED TABLE R-SQUARED SPACING: 0.0625
Info: NONBONDED TABLE SIZE: 705 POINTS
TCL: Setting parameter alchLambda2 to 0.5499999999999996
Info: NONBONDED TABLE R-SQUARED SPACING: 0.0625
Info: NONBONDED TABLE SIZE: 705 POINTS
TCL: Running for 1500000 steps
ETITLE: TS BOND ANGLE DIHED IMPRP ELECT VDW BOUNDARY MISC KINETIC TOTAL TEMP POTENTIAL TOTALAVG TEMPAVG PRESSURE GPRESSURE VOLUME PRESSAVG GPRESSAVG
ENERGY: 0 5.2276 11.5349 17.4977 0.0000 -10315.9070 1327.7867 0.0000 0.0000 1755.8740 -7197.9861 303.9546 -8953.8601 -7197.9861 303.9546 -456.4177 -366.6239 29923.7011 -456.4177 -366.6239
ENERGY: 300000 6.0371 11.0940 14.7277 0.0000 -10471.4592 1362.2874 0.0000 0.0000 1725.2833 -7352.0298 298.6591 -9077.3131 -7273.6559 301.9832 -558.1408 -468.7771 29503.2855 18.9082 84.2144
ENERGY: 600000 6.2874 9.1497 15.4985 0.0000 -10422.9077 1349.1355 0.0000 0.0000 1738.1704 -7304.6661 300.8900 -9042.8365 -7275.2473 300.4899 -288.5038 -301.3354 29645.2188 -181.4193 -119.3309
ENERGY: 900000 2.3274 11.1307 17.0791 0.0000 -10258.4363 1304.7711 0.0000 0.0000 1765.8567 -7157.2713 305.6827 -8923.1280 -7259.2810 300.2934 -582.1275 -524.3218 30044.0928 -200.3161 -139.3498
ENERGY: 1200000 5.8102 11.1192 15.6344 0.0000 -10503.8336 1450.9093 0.0000 0.0000 1748.2465 -7272.1140 302.6342 -9020.3604 -7251.5350 300.1878 477.7626 540.0881 29481.1339 -100.5098 -43.1114
ENERGY: 1500000 4.6165 10.3850 16.2588 0.0000 -10446.3392 1456.2408 0.0000 0.0000 1700.9549 -7257.8832 294.4477 -8958.8381 -7257.3361 300.2885 199.5631 305.3451 30100.5066 -62.0368 -0.8206
TCL: Running FEP window  10: Lambda1 0.5499999999999996 Lambda2 0.4999999999999996 [dLambda -0.04999999999999999]
TCL: Setting parameter firsttimestep to 0
TCL: Setting parameter alchLambda to 0.5499999999999996
Info: NONBONDED TABLE R-SQUARED SPACING: 0.0625
Info: NONBONDED TABLE SIZE: 705 POINTS
TCL: Setting parameter alchLambda2 to 0.4999999999999996
Info: NONBONDED TABLE R-SQUARED SPACING: 0.0625
Info: NONBONDED TABLE SIZE: 705 POINTS
TCL: Running for 1500000 steps
ETITLE: TS BOND ANGLE DIHED IMPRP ELECT VDW BOUNDARY MISC KINETIC TOTAL TEMP POTENTIAL TOTALAVG TEMPAVG PRESSURE GPRESSURE VOLUME PRESSAVG GPRESSAVG
ENERGY: 0 4.6165 10.3850 16.2588 0.0000 -10442.3722 1455.4564 0.0000 0.0000 1700.1027 -7255.5528 294.3002 -8955.6555 -7255.5528 294.3002 208.1154 300.0068 30100.5066 208.1154 300.0068
ENERGY: 300000 6.6056 13.4788 15.3468 0.0000 -10122.4347 1228.1885 0.0000 0.0000 1694.7615 -7164.0535 293.3756 -8858.8150 -7240.5380 295.9614 -1453.6995 -1404.5287 30618.8394 -926.9158 -862.3869
ENERGY: 600000 6.9541 11.6990 16.2205 0.0000 -10535.1695 1390.5828 0.0000 0.0000 1710.9467 -7398.7664 296.1773 -9109.7131 -7272.0128 298.9875 -222.9322 -220.1437 29647.3313 -482.7020 -421.3921
ENERGY: 900000 4.5708 12.9094 15.4359 0.0000 -10599.4717 1480.7257 0.0000 0.0000 1680.8741 -7404.9558 290.9716 -9085.8299 -7295.3097 298.8872 376.7858 420.4854 29479.9091 -333.7827 -275.5696
ENERGY: 1200000 2.6756 10.6104 15.0670 0.0000 -10434.9422 1378.3175 0.0000 0.0000 1741.3701 -7286.9017 301.4439 -9028.2718 -7295.8115 300.1003 -452.2382 -333.4952 30382.8290 -326.9422 -263.7400
ENERGY: 1500000 1.6046 10.6915 14.9488 0.0000 -10376.2211 1395.1835 0.0000 0.0000 1660.6295 -7293.1631 287.4671 -8953.7927 -7285.0965 299.7617 90.9587 116.0537 29789.5835 -285.7369 -226.8714
TCL: Running FEP window  11: Lambda1 0.4999999999999996 Lambda2 0.4499999999999996 [dLambda -0.04999999999999999]
TCL: Setting parameter firsttimestep to 0
TCL: Setting parameter alchLambda to 0.4999999999999996
Info: NONBONDED TABLE R-SQUARED SPACING: 0.0625
Info: NONBONDED TABLE SIZE: 705 POINTS
TCL: Setting parameter alchLambda2 to 0.4499999999999996
Info: NONBONDED TABLE R-SQUARED SPACING: 0.0625
Info: NONBONDED TABLE SIZE: 705 POINTS
TCL: Running for 1500000 steps
ETITLE: TS BOND ANGLE DIHED IMPRP ELECT VDW BOUNDARY MISC KINETIC TOTAL TEMP POTENTIAL TOTALAVG TEMPAVG PRESSURE GPRESSURE VOLUME PRESSAVG GPRESSAVG
ENERGY: 0 1.6046 10.6915 14.9488 0.0000 -10375.8563 1395.8984 0.0000 0.0000 1659.7670 -7292.9459 287.3178 -8952.7130 -7292.9459 287.3178 30.2688 117.9950 29789.5835 30.2688 117.9950
ENERGY: 300000 3.5571 18.5285 18.0948 0.0000 -10456.5271 1415.9850 0.0000 0.0000 1719.6901 -7280.6716 297.6909 -9000.3617 -7254.7890 300.3364 50.3067 132.6100 29825.9177 -244.0124 -171.5817
ENERGY: 600000 5.7468 12.6867 16.2006 0.0000 -10475.7544 1422.1464 0.0000 0.0000 1711.1962 -7307.7778 296.2205 -9018.9739 -7252.6185 300.8434 361.0571 446.9545 29544.4197 -276.6436 -214.2758
ENERGY: 900000 2.6419 9.6665 14.6885 0.0000 -10409.1161 1381.1857 0.0000 0.0000 1732.9238 -7268.0098 299.9817 -9000.9336 -7265.8400 300.0016 -274.4574 -238.2889 30024.3803 -261.0175 -200.9486
ENERGY: 1200000 5.7933 16.2275 18.0845 0.0000 -10314.6307 1331.4883 0.0000 0.0000 1762.7901 -7180.2470 305.1518 -8943.0370 -7273.9434 300.7273 -438.0449 -411.8485 29935.0636 -252.2671 -190.7212
ENERGY: 1500000 4.1272 12.0438 15.9850 0.0000 -10630.8786 1571.4013 0.0000 0.0000 1772.0498 -7255.2715 306.7547 -9027.3213 -7267.8858 301.0130 1330.5579 1411.9346 29365.1362 -141.7019 -83.2834
TCL: Running FEP window  12: Lambda1 0.4499999999999996 Lambda2 0.39999999999999963 [dLambda -0.04999999999999999]
TCL: Setting parameter firsttimestep to 0
TCL: Setting parameter alchLambda to 0.4499999999999996
Info: NONBONDED TABLE R-SQUARED SPACING: 0.0625
Info: NONBONDED TABLE SIZE: 705 POINTS
TCL: Setting parameter alchLambda2 to 0.39999999999999963
Info: NONBONDED TABLE R-SQUARED SPACING: 0.0625
Info: NONBONDED TABLE SIZE: 705 POINTS
TCL: Running for 1500000 steps
ETITLE: TS BOND ANGLE DIHED IMPRP ELECT VDW BOUNDARY MISC KINETIC TOTAL TEMP POTENTIAL TOTALAVG TEMPAVG PRESSURE GPRESSURE VOLUME PRESSAVG GPRESSAVG
ENERGY: 0 4.1272 12.0438 15.9850 0.0000 -10630.8795 1572.0408 0.0000 0.0000 1771.2422 -7255.4405 306.6149 -9026.6827 -7255.4405 306.6149 1323.1506 1412.8643 29365.1362 1323.1506 1412.8643
ENERGY: 300000 1.2022 12.6129 16.1494 0.0000 -10392.2891 1382.3409 0.0000 0.0000 1691.6679 -7288.3157 292.8401 -8979.9836 -7287.8890 299.8282 117.0722 168.6058 29544.7109 152.9719 214.2044
ENERGY: 600000 4.3950 14.9372 14.2547 0.0000 -10268.5957 1257.4059 0.0000 0.0000 1685.8090 -7291.7939 291.8258 -8977.6029 -7295.2390 297.4075 -1341.3290 -1289.2760 30564.9421 -55.2389 1.8574
ENERGY: 900000 3.3168 11.7142 16.0108 0.0000 -10471.3525 1437.8305 0.0000 0.0000 1727.7256 -7274.7547 299.0819 -9002.4802 -7279.8649 297.9990 90.6526 197.9996 30029.2867 -94.5620 -32.0843
ENERGY: 1200000 4.5261 18.3220 14.9445 0.0000 -10414.6168 1433.5375 0.0000 0.0000 1711.2550 -7232.0316 296.2307 -8943.2867 -7277.5275 298.3988 421.5932 503.0322 29687.3475 -9.5321 58.2429
ENERGY: 1500000 3.7473 13.0506 15.8773 0.0000 -10476.5104 1423.9218 0.0000 0.0000 1714.5356 -7305.3779 296.7986 -9019.9134 -7286.6131 298.0571 -97.9562 -61.6118 29787.0731 3.3575 65.4273
TCL: Running FEP window  13: Lambda1 0.39999999999999963 Lambda2 0.34999999999999964 [dLambda -0.04999999999999999]
TCL: Setting parameter firsttimestep to 0
TCL: Setting parameter alchLambda to 0.39999999999999963
Info: NONBONDED TABLE R-SQUARED SPACING: 0.0625
Info: NONBONDED TABLE SIZE: 705 POINTS
TCL: Setting parameter alchLambda2 to 0.34999999999999964
Info: NONBONDED TABLE R-SQUARED SPACING: 0.0625
Info: NONBONDED TABLE SIZE: 705 POINTS
TCL: Running for 1500000 steps
ETITLE: TS BOND ANGLE DIHED IMPRP ELECT VDW BOUNDARY MISC KINETIC TOTAL TEMP POTENTIAL TOTALAVG TEMPAVG PRESSURE GPRESSURE VOLUME PRESSAVG GPRESSAVG
ENERGY: 0 3.7473 13.0506 15.8773 0.0000 -10476.5096 1424.0085 0.0000 0.0000 1713.6791 -7306.1468 296.6503 -9019.8259 -7306.1468 296.6503 -133.1751 -66.1777 29787.0731 -133.1751 -66.1777
ENERGY: 300000 6.1783 14.7843 15.2591 0.0000 -10477.4633 1445.6075 0.0000 0.0000 1747.4612 -7248.1729 302.4983 -8995.6341 -7239.4958 300.9288 229.1952 302.1518 29957.6154 100.1449 154.0316
ENERGY: 600000 3.5454 10.4127 14.1428 0.0000 -10313.2577 1304.2081 0.0000 0.0000 1706.6980 -7274.2508 295.4419 -8980.9487 -7256.2515 299.7918 -610.9976 -491.7536 29511.0152 -31.6873 31.6288
ENERGY: 900000 5.0552 11.9920 17.3354 0.0000 -10464.2448 1392.0437 0.0000 0.0000 1700.6363 -7337.1822 294.3925 -9037.8185 -7267.8344 299.3415 13.5941 16.6080 29509.3381 -57.3818 -2.7024
ENERGY: 1200000 3.9560 13.1871 18.5174 0.0000 -10433.4691 1376.5269 0.0000 0.0000 1755.4141 -7265.8676 303.8750 -9021.2816 -7268.4335 300.5431 -269.1888 -180.4075 29563.2943 22.7674 88.4343
ENERGY: 1500000 7.6912 17.0763 14.1405 0.0000 -10396.9203 1390.3668 0.0000 0.0000 1761.0105 -7206.6350 304.8438 -8967.6455 -7270.4404 300.8767 -259.9458 -229.6160 30162.7597 10.4636 75.0982
TCL: Running FEP window  14: Lambda1 0.34999999999999964 Lambda2 0.29999999999999966 [dLambda -0.04999999999999999]
TCL: Setting parameter firsttimestep to 0
TCL: Setting parameter alchLambda to 0.34999999999999964
Info: NONBONDED TABLE R-SQUARED SPACING: 0.0625
Info: NONBONDED TABLE SIZE: 705 POINTS
TCL: Setting parameter alchLambda2 to 0.29999999999999966
Info: NONBONDED TABLE R-SQUARED SPACING: 0.0625
Info: NONBONDED TABLE SIZE: 705 POINTS
TCL: Running for 1500000 steps
ETITLE: TS BOND ANGLE DIHED IMPRP ELECT VDW BOUNDARY MISC KINETIC TOTAL TEMP POTENTIAL TOTALAVG TEMPAVG PRESSURE GPRESSURE VOLUME PRESSAVG GPRESSAVG
ENERGY: 0 7.6912 17.0763 14.1405 0.0000 -10396.9207 1390.9917 0.0000 0.0000 1760.1332 -7206.8878 304.6919 -8967.0210 -7206.8878 304.6919 -307.2630 -229.1066 30162.7597 -307.2630 -229.1066
ENERGY: 300000 4.9040 12.9826 14.9827 0.0000 -10427.2134 1433.0265 0.0000 0.0000 1779.5389 -7181.7788 308.0512 -8961.3177 -7228.8506 302.4736 53.3430 150.6869 30112.5046 -41.0814 8.0530
ENERGY: 600000 3.2289 12.4651 15.1652 0.0000 -10430.2792 1407.5532 0.0000 0.0000 1703.0879 -7288.7789 294.8169 -8991.8668 -7232.1384 303.4329 -32.6187 -8.4767 29815.6682 -175.1513 -128.9899
ENERGY: 900000 2.1470 12.5995 17.7046 0.0000 -10497.3749 1393.1030 0.0000 0.0000 1691.8546 -7379.9662 292.8724 -9071.8208 -7261.1634 300.6876 -258.2597 -266.9292 29567.2308 -130.4295 -84.4608
ENERGY: 1200000 3.3364 10.1071 16.8845 0.0000 -10448.6502 1415.2168 0.0000 0.0000 1720.9635 -7282.1421 297.9113 -9003.1056 -7257.0992 300.3910 89.3021 147.8095 29522.2899 14.2450 63.0596
ENERGY: 1500000 2.5289 17.9387 18.1281 0.0000 -10446.1389 1376.9873 0.0000 0.0000 1768.6531 -7261.9029 306.1667 -9030.5560 -7257.9139 300.9790 -179.2287 -113.6981 29815.1448 -45.5306 5.2743
TCL: Running FEP window  15: Lambda1 0.29999999999999966 Lambda2 0.24999999999999967 [dLambda -0.04999999999999999]
TCL: Setting parameter firsttimestep to 0
TCL: Setting parameter alchLambda to 0.29999999999999966
Info: NONBONDED TABLE R-SQUARED SPACING: 0.0625
Info: NONBONDED TABLE SIZE: 705 POINTS
TCL: Setting parameter alchLambda2 to 0.24999999999999967
Info: NONBONDED TABLE R-SQUARED SPACING: 0.0625
Info: NONBONDED TABLE SIZE: 705 POINTS
TCL: Running for 1500000 steps
ETITLE: TS BOND ANGLE DIHED IMPRP ELECT VDW BOUNDARY MISC KINETIC TOTAL TEMP POTENTIAL TOTALAVG TEMPAVG PRESSURE GPRESSURE VOLUME PRESSAVG GPRESSAVG
ENERGY: 0 2.5289 17.9387 18.1281 0.0000 -10446.1392 1377.3211 0.0000 0.0000 1767.8374 -7262.3850 306.0255 -9030.2224 -7262.3850 306.0255 -199.0835 -119.4093 29815.1448 -199.0835 -119.4093
ENERGY: 300000 2.9238 12.7304 14.6163 0.0000 -10501.3446 1401.8355 0.0000 0.0000 1764.9462 -7304.2923 305.5250 -9069.2385 -7285.5883 299.4579 -193.9286 -163.8749 29789.3868 58.0390 135.2813
ENERGY: 600000 4.1087 6.1222 16.7779 0.0000 -10439.1382 1361.6149 0.0000 0.0000 1752.3046 -7298.2099 303.3367 -9050.5145 -7295.5733 298.8175 -433.3763 -368.2980 29701.2468 24.3955 93.2203
ENERGY: 900000 4.2952 12.2200 16.4049 0.0000 -10507.8312 1421.6702 0.0000 0.0000 1780.1500 -7273.0910 308.1569 -9053.2410 -7283.2454 300.0222 -24.0467 91.6015 29477.3438 3.9230 76.2231
ENERGY: 1200000 1.5749 8.2258 15.9964 0.0000 -10345.9993 1342.1924 0.0000 0.0000 1781.6088 -7196.4010 308.4095 -8978.0098 -7290.5050 300.4485 -593.5234 -503.5389 30141.7423 -66.2061 3.9495
ENERGY: 1500000 3.8426 11.0833 16.5439 0.0000 -10419.2595 1405.2759 0.0000 0.0000 1739.9567 -7242.5569 301.1992 -8982.5137 -7295.8391 299.9102 -53.9808 -61.2811 29835.7643 -75.3513 -5.6447
TCL: Running FEP window  16: Lambda1 0.24999999999999967 Lambda2 0.19999999999999968 [dLambda -0.04999999999999999]
TCL: Setting parameter firsttimestep to 0
TCL: Setting parameter alchLambda to 0.24999999999999967
Info: NONBONDED TABLE R-SQUARED SPACING: 0.0625
Info: NONBONDED TABLE SIZE: 705 POINTS
TCL: Setting parameter alchLambda2 to 0.19999999999999968
Info: NONBONDED TABLE R-SQUARED SPACING: 0.0625
Info: NONBONDED TABLE SIZE: 705 POINTS
TCL: Running for 1500000 steps
ETITLE: TS BOND ANGLE DIHED IMPRP ELECT VDW BOUNDARY MISC KINETIC TOTAL TEMP POTENTIAL TOTALAVG TEMPAVG PRESSURE GPRESSURE VOLUME PRESSAVG GPRESSAVG
ENERGY: 0 3.8426 11.0833 16.5439 0.0000 -10419.2606 1405.6338 0.0000 0.0000 1739.1272 -7243.0298 301.0556 -8982.1570 -7243.0298 301.0556 -142.0808 -64.7674 29835.7643 -142.0808 -64.7674
ENERGY: 300000 4.6390 12.6067 17.1448 0.0000 -10366.4249 1363.7160 0.0000 0.0000 1717.4668 -7250.8516 297.3060 -8968.3183 -7261.5199 301.1081 -461.4914 -379.5526 29702.5302 -15.7032 26.9862
ENERGY: 600000 2.2361 8.6381 16.8455 0.0000 -10444.5230 1466.2275 0.0000 0.0000 1730.9603 -7219.6155 299.6419 -8950.5758 -7268.6268 300.0823 641.4556 661.8894 29691.2252 -69.9431 -24.1222
ENERGY: 900000 1.9953 7.9447 15.4911 0.0000 -10524.0796 1451.8468 0.0000 0.0000 1736.0058 -7310.7958 300.5153 -9046.8016 -7267.4945 300.4339 111.0925 221.1458 29674.1828 -24.9533 32.2550
ENERGY: 1200000 2.6045 7.9252 15.9132 0.0000 -10284.0923 1313.9714 0.0000 0.0000 1763.2933 -7180.3847 305.2389 -8943.6780 -7247.2189 301.5247 -645.8122 -618.8492 30093.0465 -77.5475 -25.5777
ENERGY: 1500000 3.4252 8.2179 16.7916 0.0000 -10518.7443 1471.7567 0.0000 0.0000 1772.5195 -7246.0334 306.8360 -9018.5529 -7257.8247 301.6694 629.3165 683.2034 29740.7238 -8.8900 45.8797
TCL: Running FEP window  17: Lambda1 0.19999999999999968 Lambda2 0.1499999999999997 [dLambda -0.04999999999999999]
TCL: Setting parameter firsttimestep to 0
TCL: Setting parameter alchLambda to 0.19999999999999968
Info: NONBONDED TABLE R-SQUARED SPACING: 0.0625
Info: NONBONDED TABLE SIZE: 705 POINTS
TCL: Setting parameter alchLambda2 to 0.1499999999999997
Info: NONBONDED TABLE R-SQUARED SPACING: 0.0625
Info: NONBONDED TABLE SIZE: 705 POINTS
TCL: Running for 1500000 steps
ETITLE: TS BOND ANGLE DIHED IMPRP ELECT VDW BOUNDARY MISC KINETIC TOTAL TEMP POTENTIAL TOTALAVG TEMPAVG PRESSURE GPRESSURE VOLUME PRESSAVG GPRESSAVG
ENERGY: 0 3.4252 8.2179 16.7916 0.0000 -10518.7458 1472.3457 0.0000 0.0000 1771.6688 -7246.2966 306.6888 -9017.9655 -7246.2966 306.6888 588.2094 682.9849 29740.7238 588.2094 682.9849
ENERGY: 300000 1.2478 12.7419 16.0185 0.0000 -10348.7172 1354.4418 0.0000 0.0000 1763.6822 -7200.5849 305.3063 -8964.2671 -7225.2566 303.9596 -182.4025 -112.7812 29405.9530 -146.8277 -64.9214
ENERGY: 600000 6.8260 14.9680 16.6483 0.0000 -10351.1068 1283.6179 0.0000 0.0000 1691.2168 -7337.8298 292.7620 -9029.0467 -7233.8056 302.4141 -1257.2806 -1236.5459 29936.3796 -310.8952 -245.7923
ENERGY: 900000 7.6369 11.3531 16.2543 0.0000 -10425.1228 1400.4358 0.0000 0.0000 1742.3877 -7247.0552 301.6200 -8989.4429 -7250.1810 300.6063 -263.9092 -132.5022 30090.2307 -243.0431 -162.8517
ENERGY: 1200000 2.6623 10.9239 15.1095 0.0000 -10354.0113 1359.0041 0.0000 0.0000 1705.2584 -7261.0531 295.1927 -8966.3115 -7251.4989 300.8941 -284.9871 -257.2606 29751.9004 -271.9467 -200.3138
ENERGY: 1500000 8.3574 12.5570 15.9923 0.0000 -10277.1576 1292.2121 0.0000 0.0000 1733.3986 -7214.6401 300.0639 -8948.0388 -7242.8996 301.4081 -694.0017 -580.7120 29578.9435 -268.3367 -192.8561
TCL: Running FEP window  18: Lambda1 0.1499999999999997 Lambda2 0.09999999999999969 [dLambda -0.05 ]
TCL: Setting parameter firsttimestep to 0
TCL: Setting parameter alchLambda to 0.1499999999999997
Info: NONBONDED TABLE R-SQUARED SPACING: 0.0625
Info: NONBONDED TABLE SIZE: 705 POINTS
TCL: Setting parameter alchLambda2 to 0.09999999999999969
Info: NONBONDED TABLE R-SQUARED SPACING: 0.0625
Info: NONBONDED TABLE SIZE: 705 POINTS
TCL: Running for 1500000 steps
ETITLE: TS BOND ANGLE DIHED IMPRP ELECT VDW BOUNDARY MISC KINETIC TOTAL TEMP POTENTIAL TOTALAVG TEMPAVG PRESSURE GPRESSURE VOLUME PRESSAVG GPRESSAVG
ENERGY: 0 8.3574 12.5570 15.9923 0.0000 -10277.1566 1291.7755 0.0000 0.0000 1732.5056 -7215.9688 299.9093 -8948.4744 -7215.9688 299.9093 -683.3409 -586.7928 29578.9435 -683.3409 -586.7928
ENERGY: 300000 3.7021 14.0054 15.9054 0.0000 -10329.4022 1345.1675 0.0000 0.0000 1682.7409 -7267.8810 291.2947 -8950.6219 -7265.4534 300.1874 -564.4186 -515.0840 29897.1631 -429.5674 -343.3866
ENERGY: 600000 3.4965 8.4623 18.6467 0.0000 -10465.1293 1423.2432 0.0000 0.0000 1759.7022 -7251.5783 304.6173 -9011.2806 -7291.7087 299.4518 238.3702 314.6121 29612.3525 -268.0302 -189.9411
ENERGY: 900000 2.5916 9.6548 17.3721 0.0000 -10602.8549 1469.2086 0.0000 0.0000 1764.7133 -7339.3144 305.4847 -9104.0276 -7299.2564 299.0883 362.4174 416.4702 29543.4605 -235.8651 -164.3553
ENERGY: 1200000 3.2934 15.4426 17.2934 0.0000 -10481.9234 1366.1266 0.0000 0.0000 1773.3481 -7306.4194 306.9795 -9079.7675 -7296.9783 299.3911 -631.1396 -591.9333 29879.1450 -208.5993 -145.1586
ENERGY: 1500000 3.6744 15.8574 17.7371 0.0000 -10425.2554 1377.1433 0.0000 0.0000 1703.4675 -7307.3757 294.8826 -9010.8432 -7295.4659 298.9441 -124.5863 -90.6677 29538.3613 -229.4896 -169.1181
TCL: Running FEP window  19: Lambda1 0.09999999999999969 Lambda2 0.049999999999999684 [dLambda -0.05 ]
TCL: Setting parameter firsttimestep to 0
TCL: Setting parameter alchLambda to 0.09999999999999969
Info: NONBONDED TABLE R-SQUARED SPACING: 0.0625
Info: NONBONDED TABLE SIZE: 705 POINTS
TCL: Setting parameter alchLambda2 to 0.049999999999999684
Info: NONBONDED TABLE R-SQUARED SPACING: 0.0625
Info: NONBONDED TABLE SIZE: 705 POINTS
TCL: Running for 1500000 steps
ETITLE: TS BOND ANGLE DIHED IMPRP ELECT VDW BOUNDARY MISC KINETIC TOTAL TEMP POTENTIAL TOTALAVG TEMPAVG PRESSURE GPRESSURE VOLUME PRESSAVG GPRESSAVG
ENERGY: 0 3.6744 15.8574 17.7371 0.0000 -10425.2550 1377.8541 0.0000 0.0000 1702.5743 -7307.5578 294.7280 -9010.1321 -7307.5578 294.7280 -169.8162 -93.4306 29538.3613 -169.8162 -93.4306
ENERGY: 300000 3.3175 15.9535 16.2641 0.0000 -10400.0693 1372.4894 0.0000 0.0000 1731.0089 -7261.0360 299.6503 -8992.0448 -7314.3984 296.8611 -371.6254 -308.0862 29672.3349 106.9250 168.6859
ENERGY: 600000 2.0385 9.1863 15.4592 0.0000 -10316.5367 1280.4875 0.0000 0.0000 1692.8880 -7316.4772 293.0513 -9009.3652 -7277.2729 298.1641 -1121.7801 -1074.4753 29566.9940 -305.5266 -265.0231
ENERGY: 900000 4.7171 15.7766 16.2646 0.0000 -10474.9194 1421.8306 0.0000 0.0000 1701.4068 -7314.9237 294.5259 -9016.3305 -7289.5109 298.0925 -68.2004 -18.6302 29704.1034 -197.7340 -145.5858
ENERGY: 1200000 4.0255 12.0496 16.3425 0.0000 -10363.9671 1278.3714 0.0000 0.0000 1718.9522 -7334.2258 297.5632 -9053.1780 -7292.1236 298.6904 -1289.8365 -1264.1422 29646.4319 -370.0152 -314.9323
ENERGY: 1500000 3.9811 6.8463 15.3080 0.0000 -10314.5022 1360.7032 0.0000 0.0000 1711.5022 -7216.1616 296.2735 -8927.6637 -7290.4026 297.5567 -199.6123 -114.7654 29731.7636 -329.5216 -281.9361
TCL: Running FEP window  20: Lambda1 0.049999999999999684 Lambda2 0.0    [dLambda -0.049999999999999684]
TCL: Setting parameter firsttimestep to 0
TCL: Setting parameter alchLambda to 0.049999999999999684
Info: NONBONDED TABLE R-SQUARED SPACING: 0.0625
Info: NONBONDED TABLE SIZE: 705 POINTS
TCL: Setting parameter alchLambda2 to 0.0
Info: NONBONDED TABLE R-SQUARED SPACING: 0.0625
Info: NONBONDED TABLE SIZE: 705 POINTS
TCL: Running for 1500000 steps
ETITLE: TS BOND ANGLE DIHED IMPRP ELECT VDW BOUNDARY MISC KINETIC TOTAL TEMP POTENTIAL TOTALAVG TEMPAVG PRESSURE GPRESSURE VOLUME PRESSAVG GPRESSAVG
ENERGY: 0 3.9811 6.8463 15.3080 0.0000 -10314.5021 1360.3803 0.0000 0.0000 1710.6598 -7217.3266 296.1277 -8927.9865 -7217.3266 296.1277 -204.4779 -120.0601 29731.7636 -204.4779 -120.0601
ENERGY: 300000 3.2005 11.3709 15.0882 0.0000 -10388.9639 1337.6528 0.0000 0.0000 1737.6281 -7284.0234 300.7961 -9021.6514 -7274.3388 299.1619 -978.9638 -809.6679 29929.9669 -26.1719 35.8713
ENERGY: 600000 4.5730 15.3296 14.4423 0.0000 -10500.4127 1440.6825 0.0000 0.0000 1766.5942 -7258.7910 305.8103 -9025.3853 -7304.4340 299.8778 122.3838 246.1564 29344.0286 -85.7304 -8.8813
ENERGY: 900000 5.3888 15.6049 16.0862 0.0000 -10449.3435 1355.1755 0.0000 0.0000 1732.3833 -7324.7047 299.8882 -9057.0880 -7292.5826 301.3754 -497.5038 -458.1435 29446.4459 -104.3512 -23.7167
ENERGY: 1200000 5.8984 14.4115 16.0640 0.0000 -10314.6554 1390.3602 0.0000 0.0000 1766.7284 -7121.1929 305.8336 -8887.9213 -7269.8965 301.0381 87.5913 139.0228 29708.2895 -154.0494 -72.7080
ENERGY: 1500000 2.8932 20.4939 15.6842 0.0000 -10376.1419 1391.7997 0.0000 0.0000 1681.5040 -7263.7669 291.0806 -8945.2710 -7267.9984 300.3580 -66.7186 8.9082 29714.3461 -160.6663 -77.3626
TCL: Exiting due to exit command.
