Info: SIMULATION PARAMETERS:
Info: TIMESTEP               2
Info: NUMBER OF STEPS        0
Info: STEPS PER CYCLE        10
Info: PERIODIC CELL BASIS 1  29.1507 0 0
Info: PERIODIC CELL BASIS 2  0 31.6487 0
Info: PERIODIC CELL BASIS 3  0 0 33.1276
Info: PERIODIC CELL CENTER   0 0 0
Info: WRAPPING WATERS AROUND PERIODIC BOUNDARIES ON OUTPUT.
Info: WRAPPING ALL CLUSTERS AROUND PERIODIC BOUNDARIES ON OUTPUT.
Info: FIRST LDB TIMESTEP     50
Info: LAST LDB TIMESTEP     -1
Info: HOM BACKGROUND SCALING 1
Info: PME BACKGROUND SCALING 1
Info: MIN ATOMS PER PATCH    40
Info: EMPTY PATCH LOAD       40 ATOMS
Info: VELOCITY FILE          mobley_4479135_equil.vel
Info: CENTER OF MASS MOVING INITIALLY? NO
Info: DIELECTRIC             1
Info: EXCLUDE                SCALED ONE-FOUR
Info: 1-4 ELECTROSTATICS SCALED BY 0.833333
Info: MODIFIED 1-4 VDW PARAMETERS WILL BE USED
Info: DCD FILENAME           mobley_4479135_prod.dcd
Info: DCD FREQUENCY          100000
Info: DCD FIRST STEP         100000
Info: DCD FILE WILL CONTAIN UNIT CELL DATA
Info: XST FILENAME           mobley_4479135_prod.xst
Info: XST FREQUENCY          100000
Info: NO VELOCITY DCD OUTPUT
Info: NO FORCE DCD OUTPUT
Info: OUTPUT FILENAME        mobley_4479135_prod
Info: BINARY OUTPUT FILES WILL BE USED
Info: RESTART FILENAME       mobley_4479135_prod.restart
Info: RESTART FREQUENCY      100000
Info: BINARY RESTART FILES WILL BE USED
Info: CUTOFF                 9
Info: PAIRLIST DISTANCE      11
Info: PAIRLIST SHRINK RATE   0.01
Info: PAIRLIST GROW RATE     0.01
Info: PAIRLIST TRIGGER       0.3
Info: PAIRLISTS PER CYCLE    2
Info: PAIRLISTS ENABLED
Info: MARGIN                 2
Info: HYDROGEN GROUP CUTOFF  2.5
Info: PATCH DIMENSION        15.5
Info: ENERGY OUTPUT STEPS    100000
Info: ENERGY EVALUATION STEPS    100000
Info: OUTPUT ENERGY PRECISION 4
Info: CROSSTERM ENERGY INCLUDED IN DIHEDRAL
Info: TIMING OUTPUT STEPS    1000000
Info: PRESSURE OUTPUT STEPS  100000
Info: ALCHEMICAL FEP ON
Info: FEP CURRENT LAMBDA VALUE     1
Info: FEP COMPARISON LAMBDA VALUE  0.95
Info: FEP INTRA-ALCHEMICAL NON-BONDED INTERACTIONS WILL BE RETAINED
Info: FEP INTRA-ALCHEMICAL BONDED INTERACTIONS WILL BE RETAINED
Info: FEP VDW SHIFTING COEFFICIENT 5
Info: FEP ELEC. ACTIVE FOR ANNIHILATED PARTICLES BETWEEN LAMBDA = 0 AND LAMBDA = 0.5
Info: FEP ELEC. ACTIVE FOR EXNIHILATED PARTICLES BETWEEN LAMBDA = 0.5 AND LAMBDA = 1
Info: FEP VDW ACTIVE FOR ANNIHILATED PARTICLES BETWEEN LAMBDA = 0 AND LAMBDA = 1
Info: FEP VDW ACTIVE FOR EXNIHILATED PARTICLES BETWEEN LAMBDA = 0 AND LAMBDA = 1
Info: FEP BOND ACTIVE FOR ANNIHILATED PARTICLES BETWEEN LAMBDA = 1 AND LAMBDA = 1
Info: FEP BOND ACTIVE FOR EXNIHILATED PARTICLES BETWEEN LAMBDA = 0 AND LAMBDA = 0
Info: LANGEVIN DYNAMICS ACTIVE
Info: LANGEVIN TEMPERATURE   300
Info: LANGEVIN USING BBK INTEGRATOR
Info: LANGEVIN DAMPING COEFFICIENT IS 1 INVERSE PS
Info: LANGEVIN DYNAMICS APPLIED TO HYDROGENS
Info: LANGEVIN PISTON PRESSURE CONTROL ACTIVE
Info:        TARGET PRESSURE IS 1.01325 BAR
Info:     OSCILLATION PERIOD IS 50 FS
Info:             DECAY TIME IS 25 FS
Info:     PISTON TEMPERATURE IS 300 K
Info:       PRESSURE CONTROL IS GROUP-BASED
Info:    INITIAL STRAIN RATE IS 3.4406e-06 3.4406e-06 3.4406e-06
Info:       CELL FLUCTUATION IS ISOTROPIC
Info: PARTICLE MESH EWALD (PME) ACTIVE
Info: PME TOLERANCE               1e-06
Info: PME EWALD COEFFICIENT       0.348832
Info: PME INTERPOLATION ORDER     4
Info: PME GRID DIMENSIONS         32 32 36
Info: PME MAXIMUM GRID SPACING    1
Info: PME CALCULATION WILL BE PERFORMED ON GPU
Info: FULL ELECTROSTATIC EVALUATION FREQUENCY      2
Info: USING VERLET I (r-RESPA) MTS SCHEME.
Info: C1 SPLITTING OF LONG RANGE ELECTROSTATICS
Info: PLACING ATOMS IN PATCHES BY HYDROGEN GROUPS
Info: RIGID BONDS TO HYDROGEN : ALL
Info:         ERROR TOLERANCE : 1e-08
Info:          MAX ITERATIONS : 100
Info: RIGID WATER USING SETTLE ALGORITHM
Info: RANDOM NUMBER SEED     1743896684
Info: USE HYDROGEN BONDS?    NO
Info: Using AMBER format force field!
Info: AMBER PARM FILE        mobley_4479135.prmtop
Info: COORDINATE PDB         mobley_4479135.pdb
Info: Exclusions will be read from PARM file!
Info: SCNB (VDW SCALING)     2
Info: USING ARITHMETIC MEAN TO COMBINE L-J SIGMA PARAMETERS
Info: BINARY COORDINATES     mobley_4479135_equil.coor
Info: SUMMARY OF PARAMETERS:
Info: 7 BONDS
Info: 7 ANGLES
Info:   7 HARMONIC
Info:   0 COSINE-BASED
Info: 4 DIHEDRAL
Info: 0 IMPROPER
Info: 0 CROSSTERM
Info: 0 VDW
Info: 10 VDW_PAIRS
Info: 0 NBTHOLE_PAIRS
Info: To read alchdata from file: mobley_4479135.pdb
Info: To read alchflag data from column: 5
Info: STRUCTURE SUMMARY:
Info: 2990 ATOMS
Info: 2991 BONDS
Info: 42 ANGLES
Info: 74 DIHEDRALS
Info: 0 IMPROPERS
Info: 0 CROSSTERMS
Info: 3087 EXCLUSIONS
Info: 2976 RIGID BONDS
Info: ALCH: 0 ATOMS TO DISAPPEAR IN FINAL STATE
Info: ALCH: 26 ATOMS TO APPEAR IN FINAL STATE
Info: 5994 DEGREES OF FREEDOM
Info: 1002 HYDROGEN GROUPS
Info: 3 ATOMS IN LARGEST HYDROGEN GROUP
Info: 1002 MIGRATION GROUPS
Info: 3 ATOMS IN LARGEST MIGRATION GROUP
Info: TOTAL MASS = 17980 amu
Info: TOTAL CHARGE = 0.00040002 e
Info: MASS DENSITY = 0.976912 g/cm^3
Info: ATOM DENSITY = 0.0978311 atoms/A^3
Info: ADDED 0 IMPLICIT EXCLUSIONS
Info: NONBONDED TABLE R-SQUARED SPACING: 0.0625
Info: NONBONDED TABLE SIZE: 705 POINTS
Info: REMOVING COM VELOCITY 0.134496 0.0811319 0.0477826
Info: Use 3D box decompostion in PME FFT.
Info: Updated CUDA force table with 4096 elements.
Info: Updated CUDA LJ table with 4 x 4 elements.
Info: Found 21 unique exclusion lists needing 72 bytes
TCL: Running for 1500000 steps
ETITLE: TS BOND ANGLE DIHED IMPRP ELECT VDW BOUNDARY MISC KINETIC TOTAL TEMP POTENTIAL TOTALAVG TEMPAVG PRESSURE GPRESSURE VOLUME PRESSAVG GPRESSAVG
ENERGY: 0 4.7173 8.2645 11.8308 0.0000 -10759.6749 1404.5025 0.0000 0.0000 1742.6414 -7587.7183 292.6050 -9330.3597 -7587.7183 292.6050 -414.9886 -327.8284 30562.8922 -414.9886 -327.8284
ENERGY: 300000 2.5656 6.7762 10.2590 0.0000 -10757.6438 1421.1604 0.0000 0.0000 1739.9474 -7576.9351 292.1526 -9316.8825 -7591.3007 293.7579 -299.2361 -243.7331 30910.6082 -444.5322 -371.8408
ENERGY: 600000 6.5951 7.5652 12.7981 0.0000 -10814.1801 1518.6595 0.0000 0.0000 1796.5663 -7471.9960 301.6594 -9268.5622 -7557.5065 297.4070 759.3860 812.8598 30508.4088 -50.1539 5.0883
ENERGY: 900000 8.4325 7.8699 12.6762 0.0000 -10746.9701 1468.0310 0.0000 0.0000 1754.1128 -7495.8477 294.5311 -9249.9605 -7537.8795 297.8552 88.8877 137.4962 31041.3506 -44.3570 3.1517
ENERGY: 1200000 8.5392 7.6697 16.9420 0.0000 -10835.1342 1445.4294 0.0000 0.0000 1800.0051 -7556.5488 302.2368 -9356.5539 -7535.2259 297.9982 127.4214 168.2522 30745.3549 10.6169 62.0337
ENERGY: 1500000 3.3241 7.0411 10.3149 0.0000 -10579.2428 1278.5779 0.0000 0.0000 1712.7579 -7567.2269 287.5872 -9279.9848 -7543.4881 297.0614 -1087.0780 -998.4336 30980.4145 -120.4309 -68.3374
TCL: Running FEP window   2: Lambda1 0.95   Lambda2 0.8999999999999999 [dLambda -0.050000000000000044]
TCL: Setting parameter firsttimestep to 0
TCL: Setting parameter alchLambda to 0.95
Info: NONBONDED TABLE R-SQUARED SPACING: 0.0625
Info: NONBONDED TABLE SIZE: 705 POINTS
TCL: Setting parameter alchLambda2 to 0.8999999999999999
Info: NONBONDED TABLE R-SQUARED SPACING: 0.0625
Info: NONBONDED TABLE SIZE: 705 POINTS
TCL: Running for 1500000 steps
ETITLE: TS BOND ANGLE DIHED IMPRP ELECT VDW BOUNDARY MISC KINETIC TOTAL TEMP POTENTIAL TOTALAVG TEMPAVG PRESSURE GPRESSURE VOLUME PRESSAVG GPRESSAVG
ENERGY: 0 3.3241 7.0411 10.3149 0.0000 -10578.0083 1279.0292 0.0000 0.0000 1711.8984 -7566.4006 287.4429 -9278.2990 -7566.4006 287.4429 -1085.5402 -1008.9136 30980.4145 -1085.5402 -1008.9136
ENERGY: 300000 5.0508 6.8746 12.6355 0.0000 -10899.3634 1493.0087 0.0000 0.0000 1756.4082 -7625.3857 294.9165 -9381.7938 -7560.0761 297.0878 126.2590 131.6464 30568.6750 -309.5268 -265.7395
ENERGY: 600000 7.8689 7.5945 12.9040 0.0000 -10780.1165 1462.6432 0.0000 0.0000 1787.3134 -7501.7925 300.1058 -9289.1059 -7554.9909 297.1500 -122.6074 -51.7839 30781.6464 -254.4050 -194.3878
ENERGY: 900000 2.0777 5.5207 13.6446 0.0000 -10894.8721 1529.0493 0.0000 0.0000 1768.8236 -7575.7563 297.0012 -9344.5799 -7546.7238 298.2730 683.4388 682.2793 30862.4541 -231.1661 -177.6298
ENERGY: 1200000 3.1890 5.4659 9.7255 0.0000 -10735.1508 1486.5319 0.0000 0.0000 1791.5820 -7438.6566 300.8225 -9230.2386 -7531.1662 299.4326 512.2168 546.6690 31116.7436 -154.4023 -103.7705
ENERGY: 1500000 4.3138 5.3333 14.5380 0.0000 -10899.3983 1489.9289 0.0000 0.0000 1781.1844 -7604.0999 299.0767 -9385.2844 -7535.3339 298.6374 98.6830 193.1056 30803.2256 -142.6992 -78.4335
TCL: Running FEP window   3: Lambda1 0.8999999999999999 Lambda2 0.8499999999999999 [dLambda -0.050000000000000044]
TCL: Setting parameter firsttimestep to 0
TCL: Setting parameter alchLambda to 0.8999999999999999
Info: NONBONDED TABLE R-SQUARED SPACING: 0.0625
Info: NONBONDED TABLE SIZE: 705 POINTS
TCL: Setting parameter alchLambda2 to 0.8499999999999999
Info: NONBONDED TABLE R-SQUARED SPACING: 0.0625
Info: NONBONDED TABLE SIZE: 705 POINTS
TCL: Running for 1500000 steps
ETITLE: TS BOND ANGLE DIHED IMPRP ELECT VDW BOUNDARY MISC KINETIC TOTAL TEMP POTENTIAL TOTALAVG TEMPAVG PRESSURE GPRESSURE VOLUME PRESSAVG GPRESSAVG
ENERGY: 0 4.3138 5.3333 14.5380 0.0000 -10898.6252 1489.5445 0.0000 0.0000 1780.3148 -7604.5809 298.9306 -9384.8957 -7604.5809 298.9306 92.7145 171.0305 30803.2256 92.7145 171.0305
ENERGY: 300000 5.6488 3.6244 12.6651 0.0000 -10584.3427 1316.5802 0.0000 0.0000 1774.8538 -7470.9704 298.0137 -9245.8242 -7509.8094 299.6006 -730.9157 -665.8742 30855.9420 -182.6560 -115.4422
ENERGY: 600000 5.6986 8.9171 6.4772 0.0000 -10906.6513 1510.3483 0.0000 0.0000 1819.9921 -7555.2180 305.5928 -9375.2102 -7508.3905 301.6772 352.2551 334.0958 30702.1725 51.3187 100.6714
ENERGY: 900000 5.1053 6.6825 13.1206 0.0000 -10747.4340 1371.6935 0.0000 0.0000 1762.1815 -7588.6507 295.8859 -9350.8322 -7525.5194 300.9905 -569.1124 -497.7457 30610.1411 73.6207 122.3050
ENERGY: 1200000 3.5446 10.7626 13.2009 0.0000 -10912.5513 1507.5582 0.0000 0.0000 1763.7474 -7613.7375 296.1488 -9377.4850 -7526.8560 300.5146 88.0382 203.7325 30966.2441 -9.1093 53.2088
ENERGY: 1500000 2.5758 5.9303 16.9787 0.0000 -10752.3485 1394.3735 0.0000 0.0000 1794.2805 -7538.2097 301.2756 -9332.4902 -7534.7743 299.7793 -533.1912 -501.4251 31248.2311 -64.9847 -6.9614
TCL: Running FEP window   4: Lambda1 0.8499999999999999 Lambda2 0.7999999999999998 [dLambda -0.050000000000000044]
TCL: Setting parameter firsttimestep to 0
TCL: Setting parameter alchLambda to 0.8499999999999999
Info: NONBONDED TABLE R-SQUARED SPACING: 0.0625
Info: NONBONDED TABLE SIZE: 705 POINTS
TCL: Setting parameter alchLambda2 to 0.7999999999999998
Info: NONBONDED TABLE R-SQUARED SPACING: 0.0625
Info: NONBONDED TABLE SIZE: 705 POINTS
TCL: Running for 1500000 steps
ETITLE: TS BOND ANGLE DIHED IMPRP ELECT VDW BOUNDARY MISC KINETIC TOTAL TEMP POTENTIAL TOTALAVG TEMPAVG PRESSURE GPRESSURE VOLUME PRESSAVG GPRESSAVG
ENERGY: 0 2.5758 5.9303 16.9787 0.0000 -10751.1501 1394.2618 0.0000 0.0000 1793.4095 -7537.9940 301.1294 -9331.4036 -7537.9940 301.1294 -586.8474 -514.0401 31248.2311 -586.8474 -514.0401
ENERGY: 300000 5.6672 6.8629 11.6332 0.0000 -10969.0554 1545.0828 0.0000 0.0000 1791.3667 -7608.4426 300.7864 -9399.8092 -7565.2606 300.5668 419.1981 580.9104 30466.0606 127.9386 230.1591
ENERGY: 600000 8.5758 6.0270 13.6892 0.0000 -10668.3112 1415.3069 0.0000 0.0000 1782.4593 -7442.2530 299.2907 -9224.7123 -7549.0424 299.2556 -480.4572 -413.3033 31351.8477 53.8283 129.8851
ENERGY: 900000 4.8964 5.7346 10.5795 0.0000 -10838.6935 1499.6674 0.0000 0.0000 1814.3383 -7503.4773 304.6435 -9317.8156 -7534.6520 300.7706 294.5291 343.8236 30854.5940 89.0368 168.2909
ENERGY: 1200000 3.5099 6.3671 9.7279 0.0000 -10837.6544 1445.3555 0.0000 0.0000 1767.0306 -7605.6635 296.7001 -9372.6940 -7534.0116 301.4297 -245.0663 -195.7070 30672.3113 53.0091 130.5033
ENERGY: 1500000 5.0183 5.1631 15.5176 0.0000 -10828.4364 1473.8819 0.0000 0.0000 1801.7557 -7527.0998 302.5308 -9328.8555 -7529.5824 301.9402 184.8502 185.2448 30992.4713 53.4738 125.0134
TCL: Running FEP window   5: Lambda1 0.7999999999999998 Lambda2 0.7499999999999998 [dLambda -0.050000000000000044]
TCL: Setting parameter firsttimestep to 0
TCL: Setting parameter alchLambda to 0.7999999999999998
Info: NONBONDED TABLE R-SQUARED SPACING: 0.0625
Info: NONBONDED TABLE SIZE: 705 POINTS
TCL: Setting parameter alchLambda2 to 0.7499999999999998
Info: NONBONDED TABLE R-SQUARED SPACING: 0.0625
Info: NONBONDED TABLE SIZE: 705 POINTS
TCL: Running for 1500000 steps
ETITLE: TS BOND ANGLE DIHED IMPRP ELECT VDW BOUNDARY MISC KINETIC TOTAL TEMP POTENTIAL TOTALAVG TEMPAVG PRESSURE GPRESSURE VOLUME PRESSAVG GPRESSAVG
ENERGY: 0 5.0183 5.1631 15.5176 0.0000 -10827.2708 1474.0665 0.0000 0.0000 1800.8869 -7526.6183 302.3849 -9327.5053 -7526.6183 302.3849 95.0776 172.9307 30992.4713 95.0776 172.9307
ENERGY: 300000 2.8286 5.9764 9.4246 0.0000 -10795.1222 1447.2338 0.0000 0.0000 1852.4246 -7477.2340 311.0385 -9329.6586 -7508.8770 305.3953 5.2421 121.0482 30604.8316 103.1026 161.4990
ENERGY: 600000 7.2424 8.9286 8.4426 0.0000 -10623.5421 1312.9877 0.0000 0.0000 1803.4653 -7482.4756 302.8178 -9285.9409 -7509.9539 304.5158 -1478.2611 -1425.4057 31388.6729 -376.0764 -318.8577
ENERGY: 900000 4.0139 4.8785 10.8726 0.0000 -10710.3228 1440.5857 0.0000 0.0000 1786.5333 -7463.4388 299.9748 -9249.9721 -7519.5984 303.3434 -24.9575 55.6215 31026.7457 -231.0525 -169.8088
ENERGY: 1200000 6.3913 6.9849 12.8300 0.0000 -10808.0304 1459.4712 0.0000 0.0000 1697.5460 -7624.8072 285.0330 -9322.3531 -7525.9828 301.2577 -324.9176 -192.7911 31090.6185 -161.1873 -91.5107
ENERGY: 1500000 4.3461 5.4721 11.6397 0.0000 -10829.0784 1462.4890 0.0000 0.0000 1766.8860 -7578.2455 296.6758 -9345.1315 -7528.5463 300.4226 149.7504 105.4292 30709.9010 -121.4642 -58.8119
TCL: Running FEP window   6: Lambda1 0.7499999999999998 Lambda2 0.6999999999999997 [dLambda -0.050000000000000044]
TCL: Setting parameter firsttimestep to 0
TCL: Setting parameter alchLambda to 0.7499999999999998
Info: NONBONDED TABLE R-SQUARED SPACING: 0.0625
Info: NONBONDED TABLE SIZE: 705 POINTS
TCL: Setting parameter alchLambda2 to 0.6999999999999997
Info: NONBONDED TABLE R-SQUARED SPACING: 0.0625
Info: NONBONDED TABLE SIZE: 705 POINTS
TCL: Running for 1500000 steps
ETITLE: TS BOND ANGLE DIHED IMPRP ELECT VDW BOUNDARY MISC KINETIC TOTAL TEMP POTENTIAL TOTALAVG TEMPAVG PRESSURE GPRESSURE VOLUME PRESSAVG GPRESSAVG
ENERGY: 0 4.3461 5.4721 11.6397 0.0000 -10828.0312 1461.9212 0.0000 0.0000 1765.9875 -7578.6646 296.5250 -9344.6521 -7578.6646 296.5250 14.3730 84.7938 30709.9010 14.3730 84.7938
ENERGY: 300000 7.8012 6.0478 8.8024 0.0000 -10777.9834 1439.1607 0.0000 0.0000 1772.4988 -7543.6725 297.6183 -9316.1713 -7531.2620 296.9021 -100.1230 -49.7697 30617.4733 -306.5109 -239.6019
ENERGY: 600000 8.2523 8.3522 11.3442 0.0000 -10742.4362 1409.1253 0.0000 0.0000 1780.8850 -7524.4773 299.0264 -9305.3622 -7510.6771 297.4849 -401.4174 -338.9373 31153.0145 -131.3193 -51.9640
ENERGY: 900000 4.5277 7.7822 13.8987 0.0000 -10960.4523 1641.8178 0.0000 0.0000 1720.9242 -7571.5017 288.9584 -9292.4258 -7522.6958 297.3362 1676.0361 1727.2821 30450.2028 66.9983 138.1357
ENERGY: 1200000 4.8563 5.8644 13.6163 0.0000 -10698.7559 1351.2575 0.0000 0.0000 1760.2047 -7562.9566 295.5540 -9323.1613 -7528.8300 298.2062 -1067.6874 -1000.0980 31113.6631 10.7178 81.4440
ENERGY: 1500000 7.3852 6.0308 12.6732 0.0000 -10742.8147 1411.3384 0.0000 0.0000 1807.3811 -7498.0060 303.4753 -9305.3871 -7532.1619 298.5062 -269.6385 -308.5357 31147.0131 2.5607 58.2830
TCL: Running FEP window   7: Lambda1 0.6999999999999997 Lambda2 0.6499999999999997 [dLambda -0.050000000000000044]
TCL: Setting parameter firsttimestep to 0
TCL: Setting parameter alchLambda to 0.6999999999999997
Info: NONBONDED TABLE R-SQUARED SPACING: 0.0625
Info: NONBONDED TABLE SIZE: 705 POINTS
TCL: Setting parameter alchLambda2 to 0.6499999999999997
Info: NONBONDED TABLE R-SQUARED SPACING: 0.0625
Info: NONBONDED TABLE SIZE: 705 POINTS
TCL: Running for 1500000 steps
ETITLE: TS BOND ANGLE DIHED IMPRP ELECT VDW BOUNDARY MISC KINETIC TOTAL TEMP POTENTIAL TOTALAVG TEMPAVG PRESSURE GPRESSURE VOLUME PRESSAVG GPRESSAVG
ENERGY: 0 7.3851 6.0308 12.6732 0.0000 -10742.1206 1411.1823 0.0000 0.0000 1806.4823 -7498.3669 303.3244 -9304.8492 -7498.3669 303.3244 -396.7386 -317.6875 31147.0131 -396.7386 -317.6875
ENERGY: 300000 5.1297 9.6276 16.5519 0.0000 -10726.9223 1426.4418 0.0000 0.0000 1745.4819 -7523.6894 293.0819 -9269.1714 -7504.6532 300.4058 67.7304 111.6293 30886.0191 -37.2729 10.4146
ENERGY: 600000 3.3415 6.8141 12.7058 0.0000 -10636.4188 1400.5371 0.0000 0.0000 1820.9371 -7392.0832 305.7515 -9213.0203 -7478.8710 302.9357 -152.9694 -95.0616 31213.1118 34.0989 82.2666
ENERGY: 900000 3.3400 6.6995 12.6936 0.0000 -10778.4435 1467.0261 0.0000 0.0000 1771.9274 -7516.7569 297.5223 -9288.6843 -7493.6795 301.5932 -37.6715 0.1857 31085.2486 -11.8016 31.9699
ENERGY: 1200000 5.2923 9.9415 10.5136 0.0000 -10813.2533 1457.1555 0.0000 0.0000 1789.0727 -7541.2776 300.4012 -9330.3503 -7501.2476 301.5327 -18.3003 51.6041 30791.9833 -84.5903 -29.6133
ENERGY: 1500000 7.7609 10.0652 10.2583 0.0000 -10719.7203 1390.6872 0.0000 0.0000 1725.0472 -7575.9016 289.6507 -9300.9488 -7518.0437 300.8343 -774.6698 -744.1567 30895.6436 -206.3277 -152.0352
TCL: Running FEP window   8: Lambda1 0.6499999999999997 Lambda2 0.5999999999999996 [dLambda -0.050000000000000044]
TCL: Setting parameter firsttimestep to 0
TCL: Setting parameter alchLambda to 0.6499999999999997
Info: NONBONDED TABLE R-SQUARED SPACING: 0.0625
Info: NONBONDED TABLE SIZE: 705 POINTS
TCL: Setting parameter alchLambda2 to 0.5999999999999996
Info: NONBONDED TABLE R-SQUARED SPACING: 0.0625
Info: NONBONDED TABLE SIZE: 705 POINTS
TCL: Running for 1500000 steps
ETITLE: TS BOND ANGLE DIHED IMPRP ELECT VDW BOUNDARY MISC KINETIC TOTAL TEMP POTENTIAL TOTALAVG TEMPAVG PRESSURE GPRESSURE VOLUME PRESSAVG GPRESSAVG
ENERGY: 0 7.7609 10.0652 10.2583 0.0000 -10719.1172 1390.6237 0.0000 0.0000 1724.2147 -7576.1945 289.5109 -9300.4092 -7576.1945 289.5109 -839.1865 -756.6917 30895.6436 -839.1865 -756.6917
ENERGY: 300000 2.2734 7.1503 9.0613 0.0000 -10540.0225 1335.5294 0.0000 0.0000 1785.1645 -7400.8436 299.7450 -9186.0080 -7538.2204 295.6482 -784.1652 -722.7980 31305.0762 108.7748 173.1295
ENERGY: 600000 9.7833 8.4274 11.0603 0.0000 -10702.6794 1381.2950 0.0000 0.0000 1842.9735 -7449.1399 309.4516 -9292.1134 -7540.3547 298.7335 -576.5888 -452.0343 30798.8337 -96.6276 -15.5574
ENERGY: 900000 7.2142 5.6670 14.6707 0.0000 -10704.0371 1420.0251 0.0000 0.0000 1778.2217 -7478.2383 298.5792 -9256.4600 -7522.4280 299.7041 -41.4003 -1.5329 30636.0715 -104.7136 -40.6244
ENERGY: 1200000 3.1563 8.5166 9.6061 0.0000 -10791.2850 1478.2167 0.0000 0.0000 1782.2319 -7509.5576 299.2525 -9291.7895 -7520.5272 299.8216 160.9657 204.5834 30827.9531 -48.2991 10.6204
ENERGY: 1500000 3.4280 6.0305 12.2713 0.0000 -10921.5561 1530.3330 0.0000 0.0000 1802.4604 -7567.0329 302.6491 -9369.4933 -7525.2283 300.8441 660.3024 692.2733 30669.0189 -98.1488 -40.7411
TCL: Running FEP window   9: Lambda1 0.5999999999999996 Lambda2 0.5499999999999996 [dLambda -0.050000000000000044]
TCL: Setting parameter firsttimestep to 0
TCL: Setting parameter alchLambda to 0.5999999999999996
Info: NONBONDED TABLE R-SQUARED SPACING: 0.0625
Info: NONBONDED TABLE SIZE: 705 POINTS
TCL: Setting parameter alchLambda2 to 0.5499999999999996
Info: NONBONDED TABLE R-SQUARED SPACING: 0.0625
Info: NONBONDED TABLE SIZE: 705 POINTS
TCL: Running for 1500000 steps
ETITLE: TS BOND ANGLE DIHED IMPRP ELECT VDW BOUNDARY MISC KINETIC TOTAL TEMP POTENTIAL TOTALAVG TEMPAVG PRESSURE GPRESSURE VOLUME PRESSAVG GPRESSAVG
ENERGY: 0 3.4280 6.0305 12.2713 0.0000 -10921.0982 1531.0879 0.0000 0.0000 1801.5593 -7566.7212 302.4978 -9368.2805 -7566.7212 302.4978 603.1013 688.4710 30669.0189 603.1013 688.4710
ENERGY: 300000 4.3638 3.7880 11.0613 0.0000 -10790.8301 1427.8963 0.0000 0.0000 1813.8275 -7529.8931 304.5577 -9343.7207 -7511.8978 299.8320 35.9549 172.5263 30213.9338 190.4559 284.2349
ENERGY: 600000 5.2261 12.2781 11.5645 0.0000 -10753.0493 1452.0777 0.0000 0.0000 1744.1535 -7527.7493 292.8589 -9271.9029 -7519.2022 299.7077 -101.0722 -68.1144 30902.4405 -20.4031 61.4379
ENERGY: 900000 4.9257 6.8997 10.2265 0.0000 -10748.2954 1407.2250 0.0000 0.0000 1781.1165 -7537.9019 299.0653 -9319.0185 -7530.7729 299.5883 -330.9817 -285.6875 30592.4231 -41.5911 33.1373
ENERGY: 1200000 5.3743 9.1587 10.5940 0.0000 -10736.7301 1346.5190 0.0000 0.0000 1811.7803 -7553.3039 304.2140 -9365.0842 -7534.6571 300.1646 -1048.7451 -1014.3321 30965.8065 -96.5694 -23.3914
ENERGY: 1500000 4.8029 3.6320 16.8654 0.0000 -10869.0433 1504.6788 0.0000 0.0000 1818.7520 -7520.3121 305.3846 -9339.0641 -7531.7662 300.9144 684.2079 780.1284 30104.4459 44.1517 120.5694
TCL: Running FEP window  10: Lambda1 0.5499999999999996 Lambda2 0.4999999999999996 [dLambda -0.04999999999999999]
TCL: Setting parameter firsttimestep to 0
TCL: Setting parameter alchLambda to 0.5499999999999996
Info: NONBONDED TABLE R-SQUARED SPACING: 0.0625
Info: NONBONDED TABLE SIZE: 705 POINTS
TCL: Setting parameter alchLambda2 to 0.4999999999999996
Info: NONBONDED TABLE R-SQUARED SPACING: 0.0625
Info: NONBONDED TABLE SIZE: 705 POINTS
TCL: Running for 1500000 steps
ETITLE: TS BOND ANGLE DIHED IMPRP ELECT VDW BOUNDARY MISC KINETIC TOTAL TEMP POTENTIAL TOTALAVG TEMPAVG PRESSURE GPRESSURE VOLUME PRESSAVG GPRESSAVG
ENERGY: 0 4.8029 3.6320 16.8654 0.0000 -10868.4106 1504.6922 0.0000 0.0000 1817.8676 -7520.5504 305.2361 -9338.4180 -7520.5504 305.2361 676.3389 774.1573 30104.4459 676.3389 774.1573
ENERGY: 300000 6.6259 8.0324 10.5587 0.0000 -10886.5667 1490.0943 0.0000 0.0000 1831.1658 -7540.0896 307.4690 -9371.2554 -7574.9988 299.7886 -163.7112 -116.7856 30725.1098 99.2634 167.0172
ENERGY: 600000 4.8054 4.6914 14.1571 0.0000 -10777.7160 1414.2257 0.0000 0.0000 1756.1536 -7583.6827 294.8738 -9339.8363 -7569.2920 298.8967 -348.1541 -306.4967 30988.4136 -90.6890 -7.6820
ENERGY: 900000 3.8273 6.8566 13.8997 0.0000 -10731.6202 1485.5628 0.0000 0.0000 1756.3694 -7465.1044 294.9100 -9221.4739 -7550.6874 299.1512 769.0274 902.2380 30251.8433 148.2475 230.8120
ENERGY: 1200000 4.2013 4.9753 12.2247 0.0000 -10722.7410 1426.0861 0.0000 0.0000 1768.7718 -7506.4817 296.9925 -9275.2535 -7533.3264 299.7293 -173.3611 -79.9059 30866.8605 66.6568 143.0309
ENERGY: 1500000 3.2780 5.7866 12.0524 0.0000 -10849.7901 1451.4381 0.0000 0.0000 1812.0903 -7565.1446 304.2660 -9377.2349 -7533.6000 299.9255 -2.3058 62.9599 30250.4762 121.5591 184.8569
TCL: Running FEP window  11: Lambda1 0.4999999999999996 Lambda2 0.4499999999999996 [dLambda -0.04999999999999999]
TCL: Setting parameter firsttimestep to 0
TCL: Setting parameter alchLambda to 0.4999999999999996
Info: NONBONDED TABLE R-SQUARED SPACING: 0.0625
Info: NONBONDED TABLE SIZE: 705 POINTS
TCL: Setting parameter alchLambda2 to 0.4499999999999996
Info: NONBONDED TABLE R-SQUARED SPACING: 0.0625
Info: NONBONDED TABLE SIZE: 705 POINTS
TCL: Running for 1500000 steps
ETITLE: TS BOND ANGLE DIHED IMPRP ELECT VDW BOUNDARY MISC KINETIC TOTAL TEMP POTENTIAL TOTALAVG TEMPAVG PRESSURE GPRESSURE VOLUME PRESSAVG GPRESSAVG
ENERGY: 0 3.2780 5.7866 12.0524 0.0000 -10849.0834 1451.6713 0.0000 0.0000 1811.1959 -7565.0991 304.1159 -9376.2950 -7565.0991 304.1159 -43.2586 56.2630 30250.4762 -43.2586 56.2630
ENERGY: 300000 3.0876 4.1059 11.4360 0.0000 -10740.3271 1438.3682 0.0000 0.0000 1785.4501 -7497.8793 299.7929 -9283.3294 -7518.0031 300.4018 -93.6804 -130.9012 31273.7444 -65.9292 -2.7949
ENERGY: 600000 4.4367 7.9139 8.1032 0.0000 -10947.1231 1575.9773 0.0000 0.0000 1834.1009 -7516.5910 307.9618 -9350.6919 -7516.3368 301.7983 1263.8130 1280.7995 30066.5632 -6.6548 50.8001
ENERGY: 900000 4.8122 7.6881 13.5843 0.0000 -10777.1792 1435.7050 0.0000 0.0000 1793.3095 -7522.0801 301.1126 -9315.3896 -7520.3817 300.9306 -219.8169 -158.3906 30958.1905 -53.7491 3.8315
ENERGY: 1200000 2.7465 8.4726 16.6015 0.0000 -10773.3364 1505.2702 0.0000 0.0000 1752.3479 -7487.8977 294.2348 -9240.2456 -7520.3374 300.0031 608.8102 622.0415 30925.4029 -20.0438 31.8235
ENERGY: 1500000 6.5411 10.8369 12.2522 0.0000 -10829.1414 1456.4607 0.0000 0.0000 1755.6298 -7587.4208 294.7858 -9343.0506 -7534.3153 299.5610 -140.0834 -5.1006 30431.4186 -47.9361 12.5448
TCL: Running FEP window  12: Lambda1 0.4499999999999996 Lambda2 0.39999999999999963 [dLambda -0.04999999999999999]
TCL: Setting parameter firsttimestep to 0
TCL: Setting parameter alchLambda to 0.4499999999999996
Info: NONBONDED TABLE R-SQUARED SPACING: 0.0625
Info: NONBONDED TABLE SIZE: 705 POINTS
TCL: Setting parameter alchLambda2 to 0.39999999999999963
Info: NONBONDED TABLE R-SQUARED SPACING: 0.0625
Info: NONBONDED TABLE SIZE: 705 POINTS
TCL: Running for 1500000 steps
ETITLE: TS BOND ANGLE DIHED IMPRP ELECT VDW BOUNDARY MISC KINETIC TOTAL TEMP POTENTIAL TOTALAVG TEMPAVG PRESSURE GPRESSURE VOLUME PRESSAVG GPRESSAVG
ENERGY: 0 6.5411 10.8369 12.2522 0.0000 -10829.1424 1456.3713 0.0000 0.0000 1754.7240 -7588.4169 294.6337 -9343.1410 -7588.4169 294.6337 -97.3963 -16.7682 30431.4186 -97.3963 -16.7682
ENERGY: 300000 4.2182 6.9223 10.6816 0.0000 -11039.1592 1605.6432 0.0000 0.0000 1820.6310 -7591.0630 305.7001 -9411.6939 -7495.7756 303.9194 648.6664 698.0553 31256.5825 393.6187 478.7911
ENERGY: 600000 6.1490 4.3990 14.6406 0.0000 -10767.7243 1429.2208 0.0000 0.0000 1815.5163 -7497.7986 304.8413 -9313.3149 -7502.9250 301.6984 -289.4342 -265.5044 30778.7201 164.6930 238.0793
ENERGY: 900000 7.1872 7.5539 10.0357 0.0000 -10694.9985 1302.1987 0.0000 0.0000 1785.2705 -7582.7524 299.7628 -9368.0230 -7525.2017 300.4553 -1516.5466 -1404.8690 30354.2681 -32.6322 36.0688
ENERGY: 1200000 9.5970 6.2997 13.4255 0.0000 -10623.8134 1435.4691 0.0000 0.0000 1800.5045 -7358.5176 302.3207 -9159.0220 -7515.0723 301.0918 -245.7075 -241.9997 31647.6797 -172.2425 -112.9987
ENERGY: 1500000 7.2243 6.1930 9.0730 0.0000 -10697.4801 1350.2464 0.0000 0.0000 1765.7019 -7559.0414 296.4770 -9324.7433 -7528.6544 299.9442 -735.7351 -688.5581 30342.3316 -172.5558 -116.0224
TCL: Running FEP window  13: Lambda1 0.39999999999999963 Lambda2 0.34999999999999964 [dLambda -0.04999999999999999]
TCL: Setting parameter firsttimestep to 0
TCL: Setting parameter alchLambda to 0.39999999999999963
Info: NONBONDED TABLE R-SQUARED SPACING: 0.0625
Info: NONBONDED TABLE SIZE: 705 POINTS
TCL: Setting parameter alchLambda2 to 0.34999999999999964
Info: NONBONDED TABLE R-SQUARED SPACING: 0.0625
Info: NONBONDED TABLE SIZE: 705 POINTS
TCL: Running for 1500000 steps
ETITLE: TS BOND ANGLE DIHED IMPRP ELECT VDW BOUNDARY MISC KINETIC TOTAL TEMP POTENTIAL TOTALAVG TEMPAVG PRESSURE GPRESSURE VOLUME PRESSAVG GPRESSAVG
ENERGY: 0 7.2243 6.1931 9.0730 0.0000 -10697.4812 1350.1173 0.0000 0.0000 1764.8090 -7560.0646 296.3271 -9324.8735 -7560.0646 296.3271 -795.4946 -700.6873 30342.3316 -795.4946 -700.6873
ENERGY: 300000 6.2629 3.8424 15.8643 0.0000 -10920.6008 1533.8036 0.0000 0.0000 1758.4558 -7602.3720 295.2603 -9360.8277 -7549.2655 297.2460 575.4777 625.5476 30438.2749 378.0654 434.1266
ENERGY: 600000 5.3622 7.8460 14.4952 0.0000 -10845.0504 1466.6157 0.0000 0.0000 1802.9711 -7547.7602 302.7348 -9350.7313 -7529.8356 298.6244 -147.1431 -50.6017 30813.8350 -66.0217 -8.2344
ENERGY: 900000 4.0804 7.6737 13.0570 0.0000 -10761.1215 1415.6890 0.0000 0.0000 1793.9720 -7526.6493 301.2238 -9320.6214 -7525.1148 299.0578 -176.9206 -115.2971 30616.9879 17.3173 79.2691
ENERGY: 1200000 4.4297 9.9412 14.4590 0.0000 -10817.4570 1498.2875 0.0000 0.0000 1780.4876 -7509.8518 298.9597 -9290.3395 -7530.5431 298.5109 300.3429 382.0468 30680.9655 3.6381 71.9134
ENERGY: 1500000 4.7544 4.9720 16.7709 0.0000 -10788.4201 1478.5454 0.0000 0.0000 1803.1778 -7480.1995 302.7696 -9283.3773 -7526.2088 299.0806 356.8275 405.9584 30833.1018 24.7363 95.6534
TCL: Running FEP window  14: Lambda1 0.34999999999999964 Lambda2 0.29999999999999966 [dLambda -0.04999999999999999]
TCL: Setting parameter firsttimestep to 0
TCL: Setting parameter alchLambda to 0.34999999999999964
Info: NONBONDED TABLE R-SQUARED SPACING: 0.0625
Info: NONBONDED TABLE SIZE: 705 POINTS
TCL: Setting parameter alchLambda2 to 0.29999999999999966
Info: NONBONDED TABLE R-SQUARED SPACING: 0.0625
Info: NONBONDED TABLE SIZE: 705 POINTS
TCL: Running for 1500000 steps
ETITLE: TS BOND ANGLE DIHED IMPRP ELECT VDW BOUNDARY MISC KINETIC TOTAL TEMP POTENTIAL TOTALAVG TEMPAVG PRESSURE GPRESSURE VOLUME PRESSAVG GPRESSAVG
ENERGY: 0 4.7544 4.9720 16.7710 0.0000 -10788.4216 1479.5047 0.0000 0.0000 1802.2652 -7480.1544 302.6163 -9282.4196 -7480.1544 302.6163 304.6425 404.9729 30833.1018 304.6425 404.9729
ENERGY: 300000 4.8266 6.3540 12.2743 0.0000 -10717.1137 1378.0572 0.0000 0.0000 1804.4358 -7511.1657 302.9808 -9315.6015 -7523.2232 300.4627 -792.2155 -744.7805 31002.4733 237.4581 298.1385
ENERGY: 600000 5.4475 9.7261 9.7179 0.0000 -10696.0995 1402.0731 0.0000 0.0000 1770.9832 -7498.1518 297.3638 -9269.1349 -7508.2293 299.8834 -602.9143 -435.5421 31456.4746 -101.6492 -38.6759
ENERGY: 900000 7.0838 4.3150 14.3797 0.0000 -10824.3780 1486.9804 0.0000 0.0000 1802.4699 -7509.1492 302.6507 -9311.6191 -7497.2617 300.5652 335.4948 459.2815 30348.4849 95.3217 160.6602
ENERGY: 1200000 8.5967 4.1638 16.4856 0.0000 -10828.5811 1465.7752 0.0000 0.0000 1865.0770 -7468.4829 313.1630 -9333.5599 -7502.4019 302.1643 199.0689 247.3580 30057.7433 123.4678 189.3283
ENERGY: 1500000 5.2338 7.0453 14.5935 0.0000 -10760.0920 1429.8558 0.0000 0.0000 1830.3386 -7473.0250 307.3301 -9303.3635 -7495.3885 302.2797 -108.3487 -117.5704 30772.5992 74.8659 132.3944
TCL: Running FEP window  15: Lambda1 0.29999999999999966 Lambda2 0.24999999999999967 [dLambda -0.04999999999999999]
TCL: Setting parameter firsttimestep to 0
TCL: Setting parameter alchLambda to 0.29999999999999966
Info: NONBONDED TABLE R-SQUARED SPACING: 0.0625
Info: NONBONDED TABLE SIZE: 705 POINTS
TCL: Setting parameter alchLambda2 to 0.24999999999999967
Info: NONBONDED TABLE R-SQUARED SPACING: 0.0625
Info: NONBONDED TABLE SIZE: 705 POINTS
TCL: Running for 1500000 steps
ETITLE: TS BOND ANGLE DIHED IMPRP ELECT VDW BOUNDARY MISC KINETIC TOTAL TEMP POTENTIAL TOTALAVG TEMPAVG PRESSURE GPRESSURE VOLUME PRESSAVG GPRESSAVG
ENERGY: 0 5.2338 7.0453 14.5935 0.0000 -10760.0925 1430.6016 0.0000 0.0000 1829.4916 -7473.1265 307.1879 -9302.6182 -7473.1265 307.1879 -200.7037 -116.8366 30772.5992 -200.7037 -116.8366
ENERGY: 300000 3.3344 5.8326 9.8709 0.0000 -10853.3200 1524.4304 0.0000 0.0000 1765.9539 -7543.8978 296.5193 -9309.8517 -7515.5925 301.3910 587.7505 667.1926 30570.4729 102.7237 174.1575
ENERGY: 600000 9.7554 6.9135 10.0107 0.0000 -10733.7501 1438.4814 0.0000 0.0000 1786.4028 -7482.1862 299.9529 -9268.5890 -7506.1056 298.5652 -82.4156 -7.6699 30622.7530 -183.6472 -108.2102
ENERGY: 900000 4.0837 6.4408 13.4499 0.0000 -10713.8370 1384.8142 0.0000 0.0000 1783.6755 -7521.3730 299.4949 -9305.0484 -7500.3225 298.7212 -694.6049 -643.6029 31194.8731 -227.1567 -161.7429
ENERGY: 1200000 4.2849 4.0742 14.6787 0.0000 -10826.9085 1525.1621 0.0000 0.0000 1806.9333 -7471.7752 303.4001 -9278.7085 -7511.1113 298.8239 339.8315 467.7464 30945.1238 -194.1940 -125.7637
ENERGY: 1500000 6.1862 9.2640 11.3143 0.0000 -10774.7655 1509.4575 0.0000 0.0000 1765.5459 -7472.9975 296.4508 -9238.5434 -7504.4058 299.2544 443.2035 471.3512 30843.9587 -192.0022 -122.7344
TCL: Running FEP window  16: Lambda1 0.24999999999999967 Lambda2 0.19999999999999968 [dLambda -0.04999999999999999]
TCL: Setting parameter firsttimestep to 0
TCL: Setting parameter alchLambda to 0.24999999999999967
Info: NONBONDED TABLE R-SQUARED SPACING: 0.0625
Info: NONBONDED TABLE SIZE: 705 POINTS
TCL: Setting parameter alchLambda2 to 0.19999999999999968
Info: NONBONDED TABLE R-SQUARED SPACING: 0.0625
Info: NONBONDED TABLE SIZE: 705 POINTS
TCL: Running for 1500000 steps
ETITLE: TS BOND ANGLE DIHED IMPRP ELECT VDW BOUNDARY MISC KINETIC TOTAL TEMP POTENTIAL TOTALAVG TEMPAVG PRESSURE GPRESSURE VOLUME PRESSAVG GPRESSAVG
ENERGY: 0 6.1862 9.2640 11.3143 0.0000 -10774.7657 1510.0527 0.0000 0.0000 1764.6837 -7473.2648 296.3061 -9237.9485 -7473.2648 296.3061 375.4123 469.2307 30843.9587 375.4123 469.2307
ENERGY: 300000 7.0572 5.0135 9.5768 0.0000 -10820.2878 1461.4978 0.0000 0.0000 1792.8831 -7544.2593 301.0410 -9337.1424 -7526.2219 300.3915 -193.9427 -88.7905 30746.3847 150.7404 247.6226
ENERGY: 600000 2.3972 7.5373 12.5934 0.0000 -10807.6220 1444.6450 0.0000 0.0000 1776.3284 -7564.1208 298.2613 -9340.4492 -7526.4209 300.6393 -97.3151 -20.1758 30383.2321 -60.6826 18.3282
ENERGY: 900000 7.4085 6.7958 12.9827 0.0000 -10686.3573 1398.0770 0.0000 0.0000 1771.8347 -7489.2587 297.5068 -9261.0934 -7517.5516 299.5541 -203.4712 -113.9989 30826.4180 -190.7421 -118.5458
ENERGY: 1200000 6.2600 6.8768 10.2122 0.0000 -10780.5507 1424.8057 0.0000 0.0000 1806.3874 -7526.0086 303.3085 -9332.3960 -7519.4725 299.7015 -406.8948 -335.6163 30533.4887 -224.4331 -154.1778
ENERGY: 1500000 6.0556 6.7862 12.8058 0.0000 -10814.9493 1444.9513 0.0000 0.0000 1737.2726 -7607.0779 291.7035 -9344.3505 -7526.8509 298.4507 -279.0381 -218.3489 30326.5466 -244.6868 -180.1814
TCL: Running FEP window  17: Lambda1 0.19999999999999968 Lambda2 0.1499999999999997 [dLambda -0.04999999999999999]
TCL: Setting parameter firsttimestep to 0
TCL: Setting parameter alchLambda to 0.19999999999999968
Info: NONBONDED TABLE R-SQUARED SPACING: 0.0625
Info: NONBONDED TABLE SIZE: 705 POINTS
TCL: Setting parameter alchLambda2 to 0.1499999999999997
Info: NONBONDED TABLE R-SQUARED SPACING: 0.0625
Info: NONBONDED TABLE SIZE: 705 POINTS
TCL: Running for 1500000 steps
ETITLE: TS BOND ANGLE DIHED IMPRP ELECT VDW BOUNDARY MISC KINETIC TOTAL TEMP POTENTIAL TOTALAVG TEMPAVG PRESSURE GPRESSURE VOLUME PRESSAVG GPRESSAVG
ENERGY: 0 6.0556 6.7862 12.8058 0.0000 -10814.9480 1445.5990 0.0000 0.0000 1736.4047 -7607.2966 291.5578 -9343.7014 -7607.2966 291.5578 -306.8344 -218.9907 30326.5466 -306.8344 -218.9907
ENERGY: 300000 4.4653 7.9994 10.2416 0.0000 -10789.6517 1501.5513 0.0000 0.0000 1820.5012 -7444.8929 305.6783 -9265.3940 -7493.8188 298.0577 645.6759 702.8867 30471.2037 2.5371 60.2880
ENERGY: 600000 5.8047 6.4882 10.5223 0.0000 -10877.6747 1447.4042 0.0000 0.0000 1780.4684 -7626.9869 298.9564 -9407.4553 -7508.6355 299.4456 -621.2829 -523.5308 30678.1124 -174.3879 -116.4748
ENERGY: 900000 4.5406 7.4081 13.2658 0.0000 -10736.2661 1419.4798 0.0000 0.0000 1759.4986 -7532.0732 295.4354 -9291.5717 -7518.8946 299.4933 33.0391 102.6402 30371.7300 -150.9489 -89.6409
ENERGY: 1200000 4.7249 4.3483 11.7397 0.0000 -10902.8562 1539.0485 0.0000 0.0000 1794.4479 -7548.5470 301.3037 -9342.9949 -7508.6514 301.5004 299.7405 315.8730 30541.8620 -177.7934 -123.7701
ENERGY: 1500000 7.5650 10.5477 15.5719 0.0000 -10755.7622 1465.2040 0.0000 0.0000 1785.5087 -7471.3648 299.8027 -9256.8735 -7512.7780 301.2008 595.9534 648.2650 30021.3197 -99.2358 -43.6484
TCL: Running FEP window  18: Lambda1 0.1499999999999997 Lambda2 0.09999999999999969 [dLambda -0.05 ]
TCL: Setting parameter firsttimestep to 0
TCL: Setting parameter alchLambda to 0.1499999999999997
Info: NONBONDED TABLE R-SQUARED SPACING: 0.0625
Info: NONBONDED TABLE SIZE: 705 POINTS
TCL: Setting parameter alchLambda2 to 0.09999999999999969
Info: NONBONDED TABLE R-SQUARED SPACING: 0.0625
Info: NONBONDED TABLE SIZE: 705 POINTS
TCL: Running for 1500000 steps
ETITLE: TS BOND ANGLE DIHED IMPRP ELECT VDW BOUNDARY MISC KINETIC TOTAL TEMP POTENTIAL TOTALAVG TEMPAVG PRESSURE GPRESSURE VOLUME PRESSAVG GPRESSAVG
ENERGY: 0 7.5650 10.5477 15.5719 0.0000 -10755.7630 1464.4068 0.0000 0.0000 1784.5791 -7473.0926 299.6467 -9257.6717 -7473.0926 299.6467 564.7189 637.6480 30021.3197 564.7189 637.6480
ENERGY: 300000 5.2495 4.7569 10.9627 0.0000 -10839.1555 1538.3807 0.0000 0.0000 1776.6809 -7503.1246 298.3205 -9279.8055 -7481.9347 299.7858 693.9575 763.8766 30551.9491 467.6864 552.0138
ENERGY: 600000 4.2897 7.9211 16.0851 0.0000 -10800.6276 1454.2286 0.0000 0.0000 1783.0747 -7535.0283 299.3941 -9318.1030 -7497.6963 298.6843 -152.4273 -66.2733 30982.2468 222.6275 292.9578
ENERGY: 900000 7.5659 3.7330 12.3747 0.0000 -10679.1209 1451.5308 0.0000 0.0000 1807.5027 -7396.4137 303.4957 -9203.9164 -7487.5977 300.3122 187.3118 214.5729 30693.0303 169.8579 234.5194
ENERGY: 1200000 8.1436 7.5824 12.5574 0.0000 -10730.8440 1383.8576 0.0000 0.0000 1773.5441 -7545.1589 297.7938 -9318.7031 -7500.5880 299.9393 -552.4025 -471.4437 30600.8553 63.9220 127.6771
ENERGY: 1500000 8.5114 5.5105 11.6425 0.0000 -10811.1954 1414.4772 0.0000 0.0000 1750.0394 -7621.0144 293.8471 -9371.0538 -7511.9306 299.1253 -598.8198 -565.3556 30511.0104 0.1113 63.3655
TCL: Running FEP window  19: Lambda1 0.09999999999999969 Lambda2 0.049999999999999684 [dLambda -0.05 ]
TCL: Setting parameter firsttimestep to 0
TCL: Setting parameter alchLambda to 0.09999999999999969
Info: NONBONDED TABLE R-SQUARED SPACING: 0.0625
Info: NONBONDED TABLE SIZE: 705 POINTS
TCL: Setting parameter alchLambda2 to 0.049999999999999684
Info: NONBONDED TABLE R-SQUARED SPACING: 0.0625
Info: NONBONDED TABLE SIZE: 705 POINTS
TCL: Running for 1500000 steps
ETITLE: TS BOND ANGLE DIHED IMPRP ELECT VDW BOUNDARY MISC KINETIC TOTAL TEMP POTENTIAL TOTALAVG TEMPAVG PRESSURE GPRESSURE VOLUME PRESSAVG GPRESSAVG
ENERGY: 0 8.5114 5.5105 11.6425 0.0000 -10811.1954 1413.8427 0.0000 0.0000 1749.1658 -7622.5226 293.7005 -9371.6883 -7622.5226 293.7005 -659.3719 -574.7036 30511.0104 -659.3719 -574.7036
ENERGY: 300000 6.4222 8.3110 13.4868 0.0000 -10813.4941 1497.0175 0.0000 0.0000 1770.4751 -7517.7815 297.2785 -9288.2566 -7529.8247 296.5821 400.5241 532.0100 30196.7740 -402.3203 -313.7901
ENERGY: 600000 1.9494 3.4086 8.4627 0.0000 -10786.1610 1478.0408 0.0000 0.0000 1764.8103 -7529.4892 296.3273 -9294.2995 -7509.2080 297.3666 151.9096 287.8555 30536.8411 -413.2174 -323.2250
ENERGY: 900000 6.4243 4.7461 9.8001 0.0000 -10855.6958 1467.5591 0.0000 0.0000 1793.5893 -7573.5769 301.1596 -9367.1663 -7518.3292 298.8529 -18.6071 89.8618 30349.9989 -298.6768 -209.0303
ENERGY: 1200000 4.6557 6.3548 12.7751 0.0000 -10750.2389 1426.0874 0.0000 0.0000 1816.1471 -7484.2190 304.9472 -9300.3661 -7526.1135 299.0392 -264.2181 -171.1179 30326.4443 -206.3708 -111.3355
ENERGY: 1500000 7.0562 3.9984 10.2724 0.0000 -10759.6516 1467.2071 0.0000 0.0000 1732.4311 -7538.6864 290.8905 -9271.1175 -7529.6921 298.5761 12.7322 86.9675 30478.4060 -203.6036 -107.9865
TCL: Running FEP window  20: Lambda1 0.049999999999999684 Lambda2 0.0    [dLambda -0.049999999999999684]
TCL: Setting parameter firsttimestep to 0
TCL: Setting parameter alchLambda to 0.049999999999999684
Info: NONBONDED TABLE R-SQUARED SPACING: 0.0625
Info: NONBONDED TABLE SIZE: 705 POINTS
TCL: Setting parameter alchLambda2 to 0.0
Info: NONBONDED TABLE R-SQUARED SPACING: 0.0625
Info: NONBONDED TABLE SIZE: 705 POINTS
TCL: Running for 1500000 steps
ETITLE: TS BOND ANGLE DIHED IMPRP ELECT VDW BOUNDARY MISC KINETIC TOTAL TEMP POTENTIAL TOTALAVG TEMPAVG PRESSURE GPRESSURE VOLUME PRESSAVG GPRESSAVG
ENERGY: 0 7.0562 3.9984 10.2724 0.0000 -10759.6531 1466.7663 0.0000 0.0000 1731.5181 -7540.0417 290.7373 -9271.5598 -7540.0417 290.7373 -11.2027 83.9237 30478.4060 -11.2027 83.9237
ENERGY: 300000 8.7641 5.5352 9.6096 0.0000 -10734.6151 1438.6076 0.0000 0.0000 1830.6734 -7441.4253 307.3863 -9272.0987 -7518.7393 300.6771 -22.8272 -2.0838 30625.4607 31.1876 83.2981
ENERGY: 600000 9.6526 3.9943 12.0372 0.0000 -10769.8566 1416.8359 0.0000 0.0000 1744.1325 -7583.2041 292.8553 -9327.3367 -7531.7848 299.7649 -751.5943 -672.8020 30716.6394 -307.6246 -231.7926
ENERGY: 900000 4.6722 7.7329 12.1216 0.0000 -10854.1301 1529.8767 0.0000 0.0000 1839.2935 -7460.4332 308.8337 -9299.7267 -7526.5059 302.0346 415.4337 445.6165 30644.6787 -18.2807 48.6745
ENERGY: 1200000 4.2274 6.0708 11.5727 0.0000 -10878.0862 1516.5947 0.0000 0.0000 1704.3721 -7635.2484 286.1792 -9339.6206 -7540.4763 299.8008 290.5340 343.5513 30446.6731 -19.0572 43.4229
ENERGY: 1500000 4.0864 10.1950 10.7076 0.0000 -10912.0739 1565.8298 0.0000 0.0000 1802.5422 -7518.7130 302.6628 -9321.2551 -7532.4295 300.9213 912.4939 926.4293 30250.3272 30.7133 91.6722
TCL: Exiting due to exit command.
