Info: SIMULATION PARAMETERS:
Info: TIMESTEP               2
Info: NUMBER OF STEPS        0
Info: STEPS PER CYCLE        10
Info: PERIODIC CELL BASIS 1  31.0051 0 0
Info: PERIODIC CELL BASIS 2  0 29.5987 0
Info: PERIODIC CELL BASIS 3  0 0 33.3554
Info: PERIODIC CELL CENTER   0 0 0
Info: WRAPPING WATERS AROUND PERIODIC BOUNDARIES ON OUTPUT.
Info: WRAPPING ALL CLUSTERS AROUND PERIODIC BOUNDARIES ON OUTPUT.
Info: FIRST LDB TIMESTEP     50
Info: LAST LDB TIMESTEP     -1
Info: HOM BACKGROUND SCALING 1
Info: PME BACKGROUND SCALING 1
Info: MIN ATOMS PER PATCH    40
Info: EMPTY PATCH LOAD       40 ATOMS
Info: VELOCITY FILE          mobley_7774695_equil.vel
Info: CENTER OF MASS MOVING INITIALLY? NO
Info: DIELECTRIC             1
Info: EXCLUDE                SCALED ONE-FOUR
Info: 1-4 ELECTROSTATICS SCALED BY 0.833333
Info: MODIFIED 1-4 VDW PARAMETERS WILL BE USED
Info: DCD FILENAME           mobley_7774695_prod.dcd
Info: DCD FREQUENCY          100000
Info: DCD FIRST STEP         100000
Info: DCD FILE WILL CONTAIN UNIT CELL DATA
Info: XST FILENAME           mobley_7774695_prod.xst
Info: XST FREQUENCY          100000
Info: NO VELOCITY DCD OUTPUT
Info: NO FORCE DCD OUTPUT
Info: OUTPUT FILENAME        mobley_7774695_prod
Info: BINARY OUTPUT FILES WILL BE USED
Info: RESTART FILENAME       mobley_7774695_prod.restart
Info: RESTART FREQUENCY      100000
Info: BINARY RESTART FILES WILL BE USED
Info: CUTOFF                 9
Info: PAIRLIST DISTANCE      11
Info: PAIRLIST SHRINK RATE   0.01
Info: PAIRLIST GROW RATE     0.01
Info: PAIRLIST TRIGGER       0.3
Info: PAIRLISTS PER CYCLE    2
Info: PAIRLISTS ENABLED
Info: MARGIN                 2
Info: HYDROGEN GROUP CUTOFF  2.5
Info: PATCH DIMENSION        15.5
Info: ENERGY OUTPUT STEPS    100000
Info: ENERGY EVALUATION STEPS    100000
Info: OUTPUT ENERGY PRECISION 4
Info: CROSSTERM ENERGY INCLUDED IN DIHEDRAL
Info: TIMING OUTPUT STEPS    1000000
Info: PRESSURE OUTPUT STEPS  100000
Info: ALCHEMICAL FEP ON
Info: FEP CURRENT LAMBDA VALUE     0
Info: FEP COMPARISON LAMBDA VALUE  0.05
Info: FEP INTRA-ALCHEMICAL NON-BONDED INTERACTIONS WILL BE RETAINED
Info: FEP INTRA-ALCHEMICAL BONDED INTERACTIONS WILL BE RETAINED
Info: FEP VDW SHIFTING COEFFICIENT 5
Info: FEP ELEC. ACTIVE FOR ANNIHILATED PARTICLES BETWEEN LAMBDA = 0 AND LAMBDA = 0.5
Info: FEP ELEC. ACTIVE FOR EXNIHILATED PARTICLES BETWEEN LAMBDA = 0.5 AND LAMBDA = 1
Info: FEP VDW ACTIVE FOR ANNIHILATED PARTICLES BETWEEN LAMBDA = 0 AND LAMBDA = 1
Info: FEP VDW ACTIVE FOR EXNIHILATED PARTICLES BETWEEN LAMBDA = 0 AND LAMBDA = 1
Info: FEP BOND ACTIVE FOR ANNIHILATED PARTICLES BETWEEN LAMBDA = 1 AND LAMBDA = 1
Info: FEP BOND ACTIVE FOR EXNIHILATED PARTICLES BETWEEN LAMBDA = 0 AND LAMBDA = 0
Info: LANGEVIN DYNAMICS ACTIVE
Info: LANGEVIN TEMPERATURE   300
Info: LANGEVIN USING BBK INTEGRATOR
Info: LANGEVIN DAMPING COEFFICIENT IS 1 INVERSE PS
Info: LANGEVIN DYNAMICS APPLIED TO HYDROGENS
Info: LANGEVIN PISTON PRESSURE CONTROL ACTIVE
Info:        TARGET PRESSURE IS 1.01325 BAR
Info:     OSCILLATION PERIOD IS 50 FS
Info:             DECAY TIME IS 25 FS
Info:     PISTON TEMPERATURE IS 300 K
Info:       PRESSURE CONTROL IS GROUP-BASED
Info:    INITIAL STRAIN RATE IS -0.000621548 -0.000621548 -0.000621548
Info:       CELL FLUCTUATION IS ISOTROPIC
Info: PARTICLE MESH EWALD (PME) ACTIVE
Info: PME TOLERANCE               1e-06
Info: PME EWALD COEFFICIENT       0.348832
Info: PME INTERPOLATION ORDER     4
Info: PME GRID DIMENSIONS         32 32 36
Info: PME MAXIMUM GRID SPACING    1
Info: PME CALCULATION WILL BE PERFORMED ON GPU
Info: FULL ELECTROSTATIC EVALUATION FREQUENCY      2
Info: USING VERLET I (r-RESPA) MTS SCHEME.
Info: C1 SPLITTING OF LONG RANGE ELECTROSTATICS
Info: PLACING ATOMS IN PATCHES BY HYDROGEN GROUPS
Info: RIGID BONDS TO HYDROGEN : ALL
Info:         ERROR TOLERANCE : 1e-08
Info:          MAX ITERATIONS : 100
Info: RIGID WATER USING SETTLE ALGORITHM
Info: RANDOM NUMBER SEED     1743774225
Info: USE HYDROGEN BONDS?    NO
Info: Using AMBER format force field!
Info: AMBER PARM FILE        mobley_7774695.prmtop
Info: COORDINATE PDB         mobley_7774695.pdb
Info: Exclusions will be read from PARM file!
Info: SCNB (VDW SCALING)     2
Info: USING ARITHMETIC MEAN TO COMBINE L-J SIGMA PARAMETERS
Info: BINARY COORDINATES     mobley_7774695_equil.coor
Info: SUMMARY OF PARAMETERS:
Info: 8 BONDS
Info: 8 ANGLES
Info:   8 HARMONIC
Info:   0 COSINE-BASED
Info: 4 DIHEDRAL
Info: 0 IMPROPER
Info: 0 CROSSTERM
Info: 0 VDW
Info: 36 VDW_PAIRS
Info: 0 NBTHOLE_PAIRS
Info: To read alchdata from file: mobley_7774695.pdb
Info: To read alchflag data from column: 5
Info: STRUCTURE SUMMARY:
Info: 2966 ATOMS
Info: 2966 BONDS
Info: 27 ANGLES
Info: 41 DIHEDRALS
Info: 0 IMPROPERS
Info: 0 CROSSTERMS
Info: 3024 EXCLUSIONS
Info: 2958 RIGID BONDS
Info: ALCH: 0 ATOMS TO DISAPPEAR IN FINAL STATE
Info: ALCH: 17 ATOMS TO APPEAR IN FINAL STATE
Info: 5940 DEGREES OF FREEDOM
Info: 991 HYDROGEN GROUPS
Info: 4 ATOMS IN LARGEST HYDROGEN GROUP
Info: 991 MIGRATION GROUPS
Info: 4 ATOMS IN LARGEST MIGRATION GROUP
Info: TOTAL MASS = 17816.9 amu
Info: TOTAL CHARGE = -0.000199948 e
Info: MASS DENSITY = 0.966537 g/cm^3
Info: ATOM DENSITY = 0.0968944 atoms/A^3
Info: ADDED 0 IMPLICIT EXCLUSIONS
Info: NONBONDED TABLE R-SQUARED SPACING: 0.0625
Info: NONBONDED TABLE SIZE: 705 POINTS
Info: REMOVING COM VELOCITY 0.209012 0.127295 -0.0195045
Info: Use 3D box decompostion in PME FFT.
Info: Updated CUDA force table with 4096 elements.
Info: Updated CUDA LJ table with 8 x 8 elements.
Info: Found 16 unique exclusion lists needing 40 bytes
TCL: Running for 1500000 steps
ETITLE: TS BOND ANGLE DIHED IMPRP ELECT VDW BOUNDARY MISC KINETIC TOTAL TEMP POTENTIAL TOTALAVG TEMPAVG PRESSURE GPRESSURE VOLUME PRESSAVG GPRESSAVG
ENERGY: 0 3.4400 5.2348 1.9690 0.0000 -10815.8143 1516.3717 0.0000 0.0000 1767.3300 -7521.4687 299.4481 -9288.7988 -7521.4687 299.4481 311.7814 402.5335 30610.6397 311.7814 402.5335
ENERGY: 300000 2.3458 5.8105 5.8972 0.0000 -10716.9180 1440.4126 0.0000 0.0000 1794.0340 -7468.4179 303.9727 -9262.4520 -7496.9999 300.2324 -72.9656 28.8143 30532.0399 74.1944 179.1807
ENERGY: 600000 6.8988 7.6534 3.9711 0.0000 -10644.5994 1445.5175 0.0000 0.0000 1790.1727 -7390.3859 303.3185 -9180.5587 -7484.3106 301.5294 301.1195 312.2037 30580.2351 2.1788 73.8928
ENERGY: 900000 2.2471 7.1611 2.9630 0.0000 -10726.4418 1360.0364 0.0000 0.0000 1790.7013 -7563.3330 303.4080 -9354.0342 -7505.6139 301.0440 -890.3848 -848.8821 30618.4888 -138.3143 -73.9752
ENERGY: 1200000 2.5937 3.5423 2.1921 0.0000 -10571.1024 1317.2329 0.0000 0.0000 1730.5576 -7514.9838 293.2176 -9245.5414 -7507.1624 300.3375 -877.7760 -793.9515 30324.2228 -150.2052 -83.1038
ENERGY: 1500000 2.6724 4.9716 4.8085 0.0000 -10869.6263 1474.5963 0.0000 0.0000 1761.8940 -7620.6833 298.5271 -9382.5773 -7523.2038 300.3048 -18.5083 63.5995 30126.5535 -122.7823 -55.4118
TCL: Running FEP window   2: Lambda1 0.05   Lambda2 0.1    [dLambda 0.05  ]
TCL: Setting parameter firsttimestep to 0
TCL: Setting parameter alchLambda to 0.05
Info: NONBONDED TABLE R-SQUARED SPACING: 0.0625
Info: NONBONDED TABLE SIZE: 705 POINTS
TCL: Setting parameter alchLambda2 to 0.1
Info: NONBONDED TABLE R-SQUARED SPACING: 0.0625
Info: NONBONDED TABLE SIZE: 705 POINTS
TCL: Running for 1500000 steps
ETITLE: TS BOND ANGLE DIHED IMPRP ELECT VDW BOUNDARY MISC KINETIC TOTAL TEMP POTENTIAL TOTALAVG TEMPAVG PRESSURE GPRESSURE VOLUME PRESSAVG GPRESSAVG
ENERGY: 0 2.6724 4.9716 4.8085 0.0000 -10869.6271 1476.3873 0.0000 0.0000 1761.0543 -7619.7329 298.3848 -9380.7872 -7619.7329 298.3848 -11.1973 71.2620 30126.5535 -11.1973 71.2620
ENERGY: 300000 1.7903 3.7141 5.5606 0.0000 -10849.2124 1471.6555 0.0000 0.0000 1795.9223 -7570.5697 304.2927 -9366.4919 -7579.9782 299.7158 -64.0410 -13.8136 30329.3507 -403.3036 -318.4941
ENERGY: 600000 5.0892 4.7705 6.0794 0.0000 -10930.0930 1541.9972 0.0000 0.0000 1792.4475 -7579.7092 303.7039 -9372.1567 -7578.0344 300.5729 816.2011 890.2940 29814.0659 -85.7217 -18.3666
ENERGY: 900000 1.7150 7.1742 4.7460 0.0000 -10597.8817 1332.9876 0.0000 0.0000 1739.2032 -7512.0558 294.6824 -9251.2589 -7555.5407 299.9145 -813.8206 -740.4433 30412.1302 -145.4834 -71.5432
ENERGY: 1200000 2.0456 5.7498 1.7233 0.0000 -10752.8361 1359.1021 0.0000 0.0000 1795.5879 -7588.6274 304.2360 -9384.2153 -7553.0075 299.2165 -886.2204 -829.0894 30386.5906 -205.5355 -146.4980
ENERGY: 1500000 2.1820 2.7290 6.4593 0.0000 -10627.5751 1389.4082 0.0000 0.0000 1784.9438 -7441.8528 302.4325 -9226.7966 -7544.0843 299.2616 -121.5575 -77.7589 30236.6166 -164.8249 -104.5940
TCL: Running FEP window   3: Lambda1 0.1    Lambda2 0.15000000000000002 [dLambda 0.05000000000000002]
TCL: Setting parameter firsttimestep to 0
TCL: Setting parameter alchLambda to 0.1
Info: NONBONDED TABLE R-SQUARED SPACING: 0.0625
Info: NONBONDED TABLE SIZE: 705 POINTS
TCL: Setting parameter alchLambda2 to 0.15000000000000002
Info: NONBONDED TABLE R-SQUARED SPACING: 0.0625
Info: NONBONDED TABLE SIZE: 705 POINTS
TCL: Running for 1500000 steps
ETITLE: TS BOND ANGLE DIHED IMPRP ELECT VDW BOUNDARY MISC KINETIC TOTAL TEMP POTENTIAL TOTALAVG TEMPAVG PRESSURE GPRESSURE VOLUME PRESSAVG GPRESSAVG
ENERGY: 0 2.1820 2.7290 6.4593 0.0000 -10627.5760 1391.5479 0.0000 0.0000 1784.0886 -7440.5692 302.2876 -9224.6578 -7440.5692 302.2876 -150.6321 -69.4624 30236.6166 -150.6321 -69.4624
ENERGY: 300000 6.1565 3.7871 2.3609 0.0000 -10751.4294 1421.1293 0.0000 0.0000 1752.0350 -7565.9606 296.8566 -9317.9956 -7501.7544 301.1675 -599.6633 -554.6702 31039.7069 23.3105 79.4850
ENERGY: 600000 4.2372 5.7939 1.6992 0.0000 -10749.2193 1450.1920 0.0000 0.0000 1750.7892 -7536.5078 296.6455 -9287.2970 -7504.7561 300.2358 -211.7535 -138.3282 30148.5615 -80.2536 -22.2764
ENERGY: 900000 6.1713 6.7553 1.4506 0.0000 -10708.3149 1426.0714 0.0000 0.0000 1728.3237 -7539.5426 292.8391 -9267.8663 -7484.4110 300.9988 -278.3522 -185.0519 30511.8056 -148.0410 -80.7540
ENERGY: 1200000 0.7757 4.3208 4.0140 0.0000 -10864.0199 1505.8361 0.0000 0.0000 1755.9879 -7593.0853 297.5264 -9349.0732 -7488.1330 300.1542 470.5351 602.9280 29863.0938 -48.1429 18.1669
ENERGY: 1500000 3.3470 6.4582 2.6061 0.0000 -10808.4398 1445.4798 0.0000 0.0000 1789.1465 -7561.4023 303.1446 -9350.5488 -7492.5637 300.7873 -115.8325 -115.4091 30354.6022 -65.0864 -6.3886
TCL: Running FEP window   4: Lambda1 0.15000000000000002 Lambda2 0.2    [dLambda 0.04999999999999999]
TCL: Setting parameter firsttimestep to 0
TCL: Setting parameter alchLambda to 0.15000000000000002
Info: NONBONDED TABLE R-SQUARED SPACING: 0.0625
Info: NONBONDED TABLE SIZE: 705 POINTS
TCL: Setting parameter alchLambda2 to 0.2
Info: NONBONDED TABLE R-SQUARED SPACING: 0.0625
Info: NONBONDED TABLE SIZE: 705 POINTS
TCL: Running for 1500000 steps
ETITLE: TS BOND ANGLE DIHED IMPRP ELECT VDW BOUNDARY MISC KINETIC TOTAL TEMP POTENTIAL TOTALAVG TEMPAVG PRESSURE GPRESSURE VOLUME PRESSAVG GPRESSAVG
ENERGY: 0 3.3470 6.4582 2.6061 0.0000 -10808.4401 1445.8273 0.0000 0.0000 1788.3017 -7561.8998 303.0015 -9350.2016 -7561.8998 303.0015 -198.8328 -108.9534 30354.6022 -198.8328 -108.9534
ENERGY: 300000 0.9117 10.9068 4.0547 0.0000 -10712.6742 1403.8365 0.0000 0.0000 1764.0149 -7528.9497 298.8864 -9292.9646 -7545.0776 300.2620 -327.7877 -285.6089 30415.1959 -58.2674 10.7549
ENERGY: 600000 1.7039 4.1354 4.6000 0.0000 -10773.9822 1440.8203 0.0000 0.0000 1724.5639 -7598.1587 292.2020 -9322.7226 -7543.2234 299.1878 -289.2218 -242.1503 30476.8050 -55.9299 14.9191
ENERGY: 900000 1.5235 5.2617 2.7919 0.0000 -10827.2049 1470.1592 0.0000 0.0000 1735.9718 -7611.4968 294.1349 -9347.4686 -7549.4068 298.9558 -151.5032 -34.9724 30748.6678 -164.8644 -94.2981
ENERGY: 1200000 2.5319 3.7006 3.2940 0.0000 -10711.1115 1426.0472 0.0000 0.0000 1745.0012 -7530.5365 295.6648 -9275.5377 -7554.1700 297.9387 -145.6982 3.2432 30454.7200 -99.3350 -22.0834
ENERGY: 1500000 1.8065 6.4697 5.1957 0.0000 -10840.5969 1533.0591 0.0000 0.0000 1718.1535 -7575.9124 291.1159 -9294.0659 -7554.3807 297.7080 348.7342 522.8867 30670.6999 -59.0178 24.8235
TCL: Running FEP window   5: Lambda1 0.2    Lambda2 0.25   [dLambda 0.04999999999999999]
TCL: Setting parameter firsttimestep to 0
TCL: Setting parameter alchLambda to 0.2
Info: NONBONDED TABLE R-SQUARED SPACING: 0.0625
Info: NONBONDED TABLE SIZE: 705 POINTS
TCL: Setting parameter alchLambda2 to 0.25
Info: NONBONDED TABLE R-SQUARED SPACING: 0.0625
Info: NONBONDED TABLE SIZE: 705 POINTS
TCL: Running for 1500000 steps
ETITLE: TS BOND ANGLE DIHED IMPRP ELECT VDW BOUNDARY MISC KINETIC TOTAL TEMP POTENTIAL TOTALAVG TEMPAVG PRESSURE GPRESSURE VOLUME PRESSAVG GPRESSAVG
ENERGY: 0 1.8065 6.4697 5.1957 0.0000 -10840.5971 1533.8630 0.0000 0.0000 1717.3002 -7575.9620 290.9713 -9293.2622 -7575.9620 290.9713 446.8175 529.1151 30670.6999 446.8175 529.1151
ENERGY: 300000 3.0975 4.7272 3.4770 0.0000 -10867.7493 1529.3260 0.0000 0.0000 1770.4111 -7556.7104 299.9702 -9327.1215 -7562.5659 296.7354 562.5060 640.8593 30342.4733 230.1759 306.0666
ENERGY: 600000 1.1479 3.7367 3.8037 0.0000 -10749.4540 1460.7337 0.0000 0.0000 1696.9230 -7583.1090 287.5187 -9280.0320 -7559.9202 294.8944 346.1923 425.0329 30197.5489 117.4443 193.0818
ENERGY: 900000 1.7827 4.5184 3.8068 0.0000 -10872.1895 1530.1614 0.0000 0.0000 1770.3735 -7561.5468 299.9638 -9331.9203 -7546.3308 296.3826 370.9224 434.4131 30586.1130 -13.7442 54.5497
ENERGY: 1200000 5.0837 9.5119 4.3643 0.0000 -10688.3447 1441.3573 0.0000 0.0000 1778.9448 -7449.0826 301.4161 -9228.0274 -7536.6639 297.0607 261.9303 313.6133 30452.2061 29.6169 90.0959
ENERGY: 1500000 1.6802 2.6526 3.6701 0.0000 -10978.6064 1564.2497 0.0000 0.0000 1759.7711 -7646.5828 298.1674 -9406.3539 -7542.5694 297.5887 901.6706 936.2176 29724.4510 58.1002 123.7293
TCL: Running FEP window   6: Lambda1 0.25   Lambda2 0.3    [dLambda 0.04999999999999999]
TCL: Setting parameter firsttimestep to 0
TCL: Setting parameter alchLambda to 0.25
Info: NONBONDED TABLE R-SQUARED SPACING: 0.0625
Info: NONBONDED TABLE SIZE: 705 POINTS
TCL: Setting parameter alchLambda2 to 0.3
Info: NONBONDED TABLE R-SQUARED SPACING: 0.0625
Info: NONBONDED TABLE SIZE: 705 POINTS
TCL: Running for 1500000 steps
ETITLE: TS BOND ANGLE DIHED IMPRP ELECT VDW BOUNDARY MISC KINETIC TOTAL TEMP POTENTIAL TOTALAVG TEMPAVG PRESSURE GPRESSURE VOLUME PRESSAVG GPRESSAVG
ENERGY: 0 1.6802 2.6526 3.6701 0.0000 -10978.6083 1564.1000 0.0000 0.0000 1758.8919 -7647.6136 298.0184 -9406.5055 -7647.6136 298.0184 849.7465 940.4180 29724.4510 849.7465 940.4180
ENERGY: 300000 2.7510 6.0990 5.4984 0.0000 -10654.5572 1376.7328 0.0000 0.0000 1746.5145 -7516.9616 295.9212 -9263.4760 -7579.0430 295.4162 -542.4408 -472.1143 30701.5496 63.7793 144.0767
ENERGY: 600000 3.9203 9.0903 3.5407 0.0000 -10780.7519 1473.2045 0.0000 0.0000 1769.5742 -7521.4219 299.8284 -9290.9961 -7556.5042 297.1739 147.0322 157.1390 30267.9082 75.9966 141.7954
ENERGY: 900000 4.8159 5.4907 2.9622 0.0000 -10644.7031 1329.9941 0.0000 0.0000 1804.0570 -7497.3833 305.6710 -9301.4403 -7531.6679 298.9568 -981.8240 -923.5184 30587.7500 -57.1338 5.2026
ENERGY: 1200000 2.3005 5.6498 1.9165 0.0000 -10814.2448 1514.2055 0.0000 0.0000 1756.0326 -7534.1400 297.5339 -9290.1726 -7527.2600 300.3678 478.3881 585.7129 30412.9507 -94.2568 -22.4789
ENERGY: 1500000 3.9828 5.3464 4.2337 0.0000 -10791.7621 1486.9206 0.0000 0.0000 1775.2099 -7516.0687 300.7832 -9291.2785 -7523.8251 300.9264 176.4444 219.3697 30511.0356 -31.2758 35.6215
TCL: Running FEP window   7: Lambda1 0.3    Lambda2 0.35   [dLambda 0.04999999999999999]
TCL: Setting parameter firsttimestep to 0
TCL: Setting parameter alchLambda to 0.3
Info: NONBONDED TABLE R-SQUARED SPACING: 0.0625
Info: NONBONDED TABLE SIZE: 705 POINTS
TCL: Setting parameter alchLambda2 to 0.35
Info: NONBONDED TABLE R-SQUARED SPACING: 0.0625
Info: NONBONDED TABLE SIZE: 705 POINTS
TCL: Running for 1500000 steps
ETITLE: TS BOND ANGLE DIHED IMPRP ELECT VDW BOUNDARY MISC KINETIC TOTAL TEMP POTENTIAL TOTALAVG TEMPAVG PRESSURE GPRESSURE VOLUME PRESSAVG GPRESSAVG
ENERGY: 0 3.9828 5.3464 4.2337 0.0000 -10791.7621 1487.3442 0.0000 0.0000 1774.2975 -7516.5575 300.6287 -9290.8550 -7516.5575 300.6287 138.9638 226.0306 30511.0356 138.9638 226.0306
ENERGY: 300000 0.7793 8.6048 4.4575 0.0000 -10617.0387 1389.1084 0.0000 0.0000 1777.7790 -7436.3096 301.2185 -9214.0886 -7494.1355 299.4303 -258.0764 -233.2755 30504.0713 -148.7190 -90.0712
ENERGY: 600000 2.0987 5.1848 5.7398 0.0000 -10796.8326 1445.3889 0.0000 0.0000 1762.7306 -7575.6897 298.6688 -9338.4203 -7519.1211 300.5455 -58.8858 -5.0796 30335.2805 -294.0956 -234.0719
ENERGY: 900000 2.0244 7.4063 4.7429 0.0000 -10743.6140 1414.4384 0.0000 0.0000 1706.5224 -7608.4796 289.1452 -9315.0021 -7531.1797 299.0844 -333.0624 -269.1270 30374.2781 -318.8287 -256.4950
ENERGY: 1200000 4.5997 7.1498 3.9419 0.0000 -10743.7004 1441.6117 0.0000 0.0000 1794.5421 -7491.8553 304.0588 -9286.3974 -7527.7599 298.3054 19.2585 114.0472 30587.4146 -363.3472 -302.8306
ENERGY: 1500000 0.9188 5.4618 7.6319 0.0000 -10808.7749 1530.0564 0.0000 0.0000 1775.9494 -7488.7567 300.9085 -9264.7061 -7530.9977 298.3379 920.6172 926.7611 30159.8416 -200.2964 -143.6180
TCL: Running FEP window   8: Lambda1 0.35   Lambda2 0.39999999999999997 [dLambda 0.04999999999999999]
TCL: Setting parameter firsttimestep to 0
TCL: Setting parameter alchLambda to 0.35
Info: NONBONDED TABLE R-SQUARED SPACING: 0.0625
Info: NONBONDED TABLE SIZE: 705 POINTS
TCL: Setting parameter alchLambda2 to 0.39999999999999997
Info: NONBONDED TABLE R-SQUARED SPACING: 0.0625
Info: NONBONDED TABLE SIZE: 705 POINTS
TCL: Running for 1500000 steps
ETITLE: TS BOND ANGLE DIHED IMPRP ELECT VDW BOUNDARY MISC KINETIC TOTAL TEMP POTENTIAL TOTALAVG TEMPAVG PRESSURE GPRESSURE VOLUME PRESSAVG GPRESSAVG
ENERGY: 0 0.9188 5.4618 7.6319 0.0000 -10808.7745 1530.3000 0.0000 0.0000 1775.0221 -7489.4399 300.7514 -9264.4620 -7489.4399 300.7514 851.3286 934.7425 30159.8416 851.3286 934.7425
ENERGY: 300000 3.3373 4.4141 2.7215 0.0000 -10712.5724 1384.8872 0.0000 0.0000 1781.6573 -7535.5550 301.8757 -9317.2123 -7488.1676 300.4116 -586.6938 -539.6125 30304.8823 73.0522 142.5868
ENERGY: 600000 0.5891 3.5421 1.7306 0.0000 -10649.1878 1420.1841 0.0000 0.0000 1798.7260 -7424.4159 304.7677 -9223.1419 -7486.9231 302.4837 -15.4108 80.2082 30852.7570 -55.3387 11.8249
ENERGY: 900000 2.9945 6.7539 3.6971 0.0000 -10635.6562 1322.9939 0.0000 0.0000 1806.8580 -7492.3588 306.1456 -9299.2168 -7500.1201 303.1097 -942.7848 -884.8567 30506.5203 -260.4188 -194.0553
ENERGY: 1200000 0.8021 6.4276 7.0343 0.0000 -10775.1774 1481.3361 0.0000 0.0000 1754.3097 -7525.2676 297.2420 -9279.5773 -7506.5100 303.1554 454.3827 415.7285 30330.9142 -243.1328 -194.1309
ENERGY: 1500000 2.8483 4.8171 2.2131 0.0000 -10665.6784 1351.1671 0.0000 0.0000 1802.6540 -7501.9788 305.4333 -9304.6328 -7513.2136 302.6040 -594.5194 -623.2231 30243.9856 -290.1188 -244.5103
TCL: Running FEP window   9: Lambda1 0.39999999999999997 Lambda2 0.44999999999999996 [dLambda 0.04999999999999999]
TCL: Setting parameter firsttimestep to 0
TCL: Setting parameter alchLambda to 0.39999999999999997
Info: NONBONDED TABLE R-SQUARED SPACING: 0.0625
Info: NONBONDED TABLE SIZE: 705 POINTS
TCL: Setting parameter alchLambda2 to 0.44999999999999996
Info: NONBONDED TABLE R-SQUARED SPACING: 0.0625
Info: NONBONDED TABLE SIZE: 705 POINTS
TCL: Running for 1500000 steps
ETITLE: TS BOND ANGLE DIHED IMPRP ELECT VDW BOUNDARY MISC KINETIC TOTAL TEMP POTENTIAL TOTALAVG TEMPAVG PRESSURE GPRESSURE VOLUME PRESSAVG GPRESSAVG
ENERGY: 0 2.8483 4.8171 2.2131 0.0000 -10665.6789 1350.9813 0.0000 0.0000 1801.7777 -7503.0414 305.2848 -9304.8191 -7503.0414 305.2848 -698.3458 -619.0437 30243.9856 -698.3458 -619.0437
ENERGY: 300000 2.8287 4.4562 2.8521 0.0000 -10869.9082 1473.2886 0.0000 0.0000 1727.5762 -7658.9063 292.7124 -9386.4825 -7555.9609 300.0596 -287.7312 -201.5080 30482.6016 -115.5587 -57.4600
ENERGY: 600000 1.6766 5.4274 2.7243 0.0000 -10697.8017 1374.4616 0.0000 0.0000 1785.2962 -7528.2156 302.4922 -9313.5119 -7550.0051 301.2503 -755.9540 -702.7662 31234.1465 -34.2548 13.4735
ENERGY: 900000 4.0462 4.0094 2.3914 0.0000 -10783.4907 1443.9779 0.0000 0.0000 1768.6073 -7560.4584 299.6645 -9329.0657 -7540.5290 301.4689 -104.8890 -79.4714 30485.9421 2.4854 55.9050
ENERGY: 1200000 1.9935 3.0463 1.1599 0.0000 -10629.8530 1350.6662 0.0000 0.0000 1835.1644 -7437.8226 310.9417 -9272.9871 -7529.7797 301.6141 -860.4730 -786.7199 30945.0037 -57.3285 1.4514
ENERGY: 1500000 2.2866 8.2358 2.5319 0.0000 -10669.0224 1422.1089 0.0000 0.0000 1771.1493 -7462.7099 300.0952 -9233.8592 -7528.3919 300.5576 -99.4440 -38.2877 30383.6623 -57.4039 1.8097
TCL: Running FEP window  10: Lambda1 0.44999999999999996 Lambda2 0.49999999999999994 [dLambda 0.04999999999999999]
TCL: Setting parameter firsttimestep to 0
TCL: Setting parameter alchLambda to 0.44999999999999996
Info: NONBONDED TABLE R-SQUARED SPACING: 0.0625
Info: NONBONDED TABLE SIZE: 705 POINTS
TCL: Setting parameter alchLambda2 to 0.49999999999999994
Info: NONBONDED TABLE R-SQUARED SPACING: 0.0625
Info: NONBONDED TABLE SIZE: 705 POINTS
TCL: Running for 1500000 steps
ETITLE: TS BOND ANGLE DIHED IMPRP ELECT VDW BOUNDARY MISC KINETIC TOTAL TEMP POTENTIAL TOTALAVG TEMPAVG PRESSURE GPRESSURE VOLUME PRESSAVG GPRESSAVG
ENERGY: 0 2.2866 8.2358 2.5319 0.0000 -10669.0237 1422.8878 0.0000 0.0000 1770.3109 -7462.7707 299.9532 -9233.0816 -7462.7707 299.9532 -110.0604 -24.3026 30383.6623 -110.0604 -24.3026
ENERGY: 300000 2.8561 8.1285 2.4039 0.0000 -10761.8861 1460.8432 0.0000 0.0000 1760.4723 -7527.1822 298.2862 -9287.6545 -7528.7708 298.0312 -46.5203 -0.2247 30518.8605 -345.0451 -302.7657
ENERGY: 600000 4.4794 3.6431 5.5778 0.0000 -10803.3876 1441.4175 0.0000 0.0000 1748.8905 -7599.3793 296.3238 -9348.2698 -7552.7093 297.9794 -335.3035 -247.7589 30504.3842 -289.9845 -250.2260
ENERGY: 900000 4.2844 5.2785 3.0574 0.0000 -10887.3607 1499.4358 0.0000 0.0000 1761.6930 -7613.6116 298.4930 -9375.3046 -7548.6806 298.6312 187.8876 227.3537 30009.2454 -120.3025 -78.1387
ENERGY: 1200000 3.3892 3.3012 8.7774 0.0000 -10775.0653 1466.7985 0.0000 0.0000 1758.8645 -7533.9346 298.0138 -9292.7991 -7546.8808 298.1017 98.2257 141.9523 30778.3583 -158.1087 -107.5854
ENERGY: 1500000 3.5574 3.1014 5.4310 0.0000 -10792.1152 1438.7898 0.0000 0.0000 1758.4604 -7582.7751 297.9453 -9341.2355 -7549.5254 297.7154 -245.5832 -212.9750 30682.1469 -175.3519 -129.7679
TCL: Running FEP window  11: Lambda1 0.49999999999999994 Lambda2 0.5499999999999999 [dLambda 0.04999999999999999]
TCL: Setting parameter firsttimestep to 0
TCL: Setting parameter alchLambda to 0.49999999999999994
Info: NONBONDED TABLE R-SQUARED SPACING: 0.0625
Info: NONBONDED TABLE SIZE: 705 POINTS
TCL: Setting parameter alchLambda2 to 0.5499999999999999
Info: NONBONDED TABLE R-SQUARED SPACING: 0.0625
Info: NONBONDED TABLE SIZE: 705 POINTS
TCL: Running for 1500000 steps
ETITLE: TS BOND ANGLE DIHED IMPRP ELECT VDW BOUNDARY MISC KINETIC TOTAL TEMP POTENTIAL TOTALAVG TEMPAVG PRESSURE GPRESSURE VOLUME PRESSAVG GPRESSAVG
ENERGY: 0 3.5574 3.1014 5.4310 0.0000 -10792.1146 1439.5331 0.0000 0.0000 1757.5667 -7582.9249 297.7939 -9340.4916 -7582.9249 297.7939 -278.4507 -202.9230 30682.1469 -278.4507 -202.9230
ENERGY: 300000 1.4787 9.1966 4.0598 0.0000 -10823.7754 1494.7085 0.0000 0.0000 1774.7503 -7539.5816 300.7054 -9314.3319 -7542.7594 299.6760 467.0677 532.9866 30014.8311 -302.6205 -242.6983
ENERGY: 600000 1.2438 5.0102 2.9254 0.0000 -10766.1310 1463.7555 0.0000 0.0000 1754.0213 -7539.1748 297.1932 -9293.1961 -7536.2953 299.5913 287.6330 357.0752 30091.0813 -92.1449 -21.0476
ENERGY: 900000 1.2696 5.9323 5.0015 0.0000 -10776.0318 1557.5645 0.0000 0.0000 1825.6674 -7380.5966 309.3325 -9206.2640 -7542.1795 299.0400 1222.5301 1259.2665 30596.4074 59.1724 118.6268
ENERGY: 1200000 3.0789 4.6982 2.0740 0.0000 -10978.7439 1579.5206 0.0000 0.0000 1724.1913 -7665.1809 292.1389 -9389.3721 -7548.8395 298.2887 906.0994 968.2406 30029.6367 59.9074 115.0099
ENERGY: 1500000 4.6320 4.6766 3.4106 0.0000 -10730.8431 1441.1831 0.0000 0.0000 1726.7403 -7550.2005 292.5708 -9276.9408 -7552.7251 297.6867 67.4369 109.1998 30130.0060 38.3842 97.4070
TCL: Running FEP window  12: Lambda1 0.5499999999999999 Lambda2 0.6    [dLambda 0.050000000000000044]
TCL: Setting parameter firsttimestep to 0
TCL: Setting parameter alchLambda to 0.5499999999999999
Info: NONBONDED TABLE R-SQUARED SPACING: 0.0625
Info: NONBONDED TABLE SIZE: 705 POINTS
TCL: Setting parameter alchLambda2 to 0.6
Info: NONBONDED TABLE R-SQUARED SPACING: 0.0625
Info: NONBONDED TABLE SIZE: 705 POINTS
TCL: Running for 1500000 steps
ETITLE: TS BOND ANGLE DIHED IMPRP ELECT VDW BOUNDARY MISC KINETIC TOTAL TEMP POTENTIAL TOTALAVG TEMPAVG PRESSURE GPRESSURE VOLUME PRESSAVG GPRESSAVG
ENERGY: 0 4.6320 4.6766 3.4106 0.0000 -10730.9178 1441.0380 0.0000 0.0000 1725.8582 -7551.3023 292.4213 -9277.1605 -7551.3023 292.4213 22.3726 116.2152 30130.0060 22.3726 116.2152
ENERGY: 300000 3.3549 5.8685 4.5036 0.0000 -10738.2972 1401.3520 0.0000 0.0000 1756.7437 -7566.4745 297.6544 -9323.2182 -7524.9275 300.7023 -703.9918 -576.8557 30759.4654 129.0964 170.3788
ENERGY: 600000 2.5160 4.3187 0.8465 0.0000 -10904.5527 1499.5400 0.0000 0.0000 1724.8947 -7672.4368 292.2581 -9397.3315 -7552.6960 298.7855 366.8867 428.4407 29903.8655 231.2652 290.6901
ENERGY: 900000 3.8641 4.6775 5.9669 0.0000 -10834.8755 1479.9351 0.0000 0.0000 1714.3468 -7626.0851 290.4709 -9340.4319 -7546.4237 298.6832 203.9956 242.6466 30450.5135 108.1700 164.3555
ENERGY: 1200000 2.3462 3.8031 3.0609 0.0000 -10643.1307 1396.9913 0.0000 0.0000 1786.4338 -7450.4954 302.6850 -9236.9291 -7543.9172 298.7957 -524.6942 -446.7681 30989.4387 64.8063 126.7510
ENERGY: 1500000 1.1107 2.2104 3.3819 0.0000 -10762.4276 1428.9193 0.0000 0.0000 1727.5261 -7599.2792 292.7039 -9326.8053 -7546.9780 298.4944 -225.8170 -177.4562 30509.0087 105.5159 167.8584
TCL: Running FEP window  13: Lambda1 0.6    Lambda2 0.65   [dLambda 0.050000000000000044]
TCL: Setting parameter firsttimestep to 0
TCL: Setting parameter alchLambda to 0.6
Info: NONBONDED TABLE R-SQUARED SPACING: 0.0625
Info: NONBONDED TABLE SIZE: 705 POINTS
TCL: Setting parameter alchLambda2 to 0.65
Info: NONBONDED TABLE R-SQUARED SPACING: 0.0625
Info: NONBONDED TABLE SIZE: 705 POINTS
TCL: Running for 1500000 steps
ETITLE: TS BOND ANGLE DIHED IMPRP ELECT VDW BOUNDARY MISC KINETIC TOTAL TEMP POTENTIAL TOTALAVG TEMPAVG PRESSURE GPRESSURE VOLUME PRESSAVG GPRESSAVG
ENERGY: 0 1.1107 2.2104 3.3819 0.0000 -10762.9245 1430.0956 0.0000 0.0000 1726.6529 -7599.4730 292.5560 -9326.1259 -7599.4730 292.5560 -243.2089 -157.3415 30509.0087 -243.2089 -157.3415
ENERGY: 300000 4.2545 3.8575 4.6251 0.0000 -10625.8628 1355.5425 0.0000 0.0000 1741.9428 -7515.6403 295.1466 -9257.5831 -7558.1655 294.8222 -516.5474 -509.0833 30301.0410 -238.5461 -201.0642
ENERGY: 600000 0.8534 5.8477 4.6569 0.0000 -10805.6693 1434.0661 0.0000 0.0000 1760.9686 -7599.2765 298.3703 -9360.2451 -7570.7941 296.8922 -62.0208 -22.6745 30180.5572 -121.0509 -60.1358
ENERGY: 900000 3.6270 4.5621 3.2246 0.0000 -10803.6792 1475.6312 0.0000 0.0000 1789.4539 -7527.1805 303.1967 -9316.6343 -7552.6097 298.3388 399.2872 466.4234 30219.0569 -110.5977 -58.9660
ENERGY: 1200000 2.3739 6.5429 9.5893 0.0000 -10813.0544 1516.3086 0.0000 0.0000 1754.5272 -7523.7124 297.2789 -9278.2396 -7542.6591 298.6190 538.8493 578.5181 30491.4396 -89.0874 -39.5137
ENERGY: 1500000 1.2389 5.6263 6.5905 0.0000 -10807.2458 1456.9864 0.0000 0.0000 1806.6469 -7530.1569 306.1098 -9336.8038 -7537.8097 299.4041 -124.0564 -136.7371 30778.5540 -61.4706 -15.6983
TCL: Running FEP window  14: Lambda1 0.65   Lambda2 0.7000000000000001 [dLambda 0.050000000000000044]
TCL: Setting parameter firsttimestep to 0
TCL: Setting parameter alchLambda to 0.65
Info: NONBONDED TABLE R-SQUARED SPACING: 0.0625
Info: NONBONDED TABLE SIZE: 705 POINTS
TCL: Setting parameter alchLambda2 to 0.7000000000000001
Info: NONBONDED TABLE R-SQUARED SPACING: 0.0625
Info: NONBONDED TABLE SIZE: 705 POINTS
TCL: Running for 1500000 steps
ETITLE: TS BOND ANGLE DIHED IMPRP ELECT VDW BOUNDARY MISC KINETIC TOTAL TEMP POTENTIAL TOTALAVG TEMPAVG PRESSURE GPRESSURE VOLUME PRESSAVG GPRESSAVG
ENERGY: 0 1.2389 5.6263 6.5905 0.0000 -10807.5200 1456.5640 0.0000 0.0000 1805.7811 -7531.7193 305.9631 -9337.5003 -7531.7193 305.9631 -205.2178 -134.9021 30778.5540 -205.2178 -134.9021
ENERGY: 300000 1.7933 3.4792 3.5450 0.0000 -10753.8352 1513.1747 0.0000 0.0000 1759.2486 -7472.5944 298.0788 -9231.8430 -7514.5208 299.6754 933.1434 1025.6544 30251.5611 142.6178 224.4878
ENERGY: 600000 1.5057 3.7624 2.2705 0.0000 -10704.7554 1417.4619 0.0000 0.0000 1755.3508 -7524.4042 297.4184 -9279.7549 -7523.8166 299.0879 -124.5944 -62.1568 30671.7741 -33.2146 29.3607
ENERGY: 900000 2.8542 4.1475 3.6188 0.0000 -10784.2397 1486.7874 0.0000 0.0000 1790.7714 -7496.0602 303.4199 -9286.8317 -7524.0610 300.8973 385.3392 426.0789 30229.1168 -21.0148 37.2715
ENERGY: 1200000 2.7333 4.8728 2.9345 0.0000 -10740.6791 1469.8588 0.0000 0.0000 1839.2389 -7421.0407 311.6320 -9260.2796 -7507.4278 301.9354 272.3524 330.4691 30492.1328 -86.4253 -27.2904
ENERGY: 1500000 1.4315 6.8325 2.7050 0.0000 -10783.3299 1451.6994 0.0000 0.0000 1751.6838 -7568.9778 296.7971 -9320.6616 -7517.3920 301.2322 72.5257 150.7437 30314.8631 -40.0859 18.5378
TCL: Running FEP window  15: Lambda1 0.7000000000000001 Lambda2 0.7500000000000001 [dLambda 0.050000000000000044]
TCL: Setting parameter firsttimestep to 0
TCL: Setting parameter alchLambda to 0.7000000000000001
Info: NONBONDED TABLE R-SQUARED SPACING: 0.0625
Info: NONBONDED TABLE SIZE: 705 POINTS
TCL: Setting parameter alchLambda2 to 0.7500000000000001
Info: NONBONDED TABLE R-SQUARED SPACING: 0.0625
Info: NONBONDED TABLE SIZE: 705 POINTS
TCL: Running for 1500000 steps
ETITLE: TS BOND ANGLE DIHED IMPRP ELECT VDW BOUNDARY MISC KINETIC TOTAL TEMP POTENTIAL TOTALAVG TEMPAVG PRESSURE GPRESSURE VOLUME PRESSAVG GPRESSAVG
ENERGY: 0 1.4315 6.8325 2.7050 0.0000 -10785.1786 1451.9748 0.0000 0.0000 1750.8192 -7571.4155 296.6506 -9322.2347 -7571.4155 296.6506 91.2926 158.6306 30314.8631 91.2926 158.6306
ENERGY: 300000 4.1423 4.2887 2.7176 0.0000 -10808.8209 1460.8163 0.0000 0.0000 1866.0329 -7470.8229 316.1719 -9336.8559 -7516.8124 302.4440 295.5516 379.5483 30108.1342 -180.9264 -100.4822
ENERGY: 600000 2.5369 4.7464 2.7708 0.0000 -10638.9729 1364.9593 0.0000 0.0000 1754.2413 -7509.7181 297.2304 -9263.9594 -7527.1394 301.0189 -473.9887 -451.8981 30829.0565 -53.3152 19.7303
ENERGY: 900000 2.1453 5.1318 3.5900 0.0000 -10786.3458 1507.8655 0.0000 0.0000 1750.4470 -7517.1661 296.5875 -9267.6131 -7539.3104 300.2000 461.2336 552.3498 30435.5875 125.9453 190.7252
ENERGY: 1200000 1.5454 5.8304 3.0457 0.0000 -10888.8447 1501.3705 0.0000 0.0000 1783.3310 -7593.7218 302.1593 -9377.0528 -7543.3554 300.6038 413.7586 421.4951 30246.4605 144.2022 200.8516
ENERGY: 1500000 3.0765 6.6152 4.8863 0.0000 -10853.5806 1502.9799 0.0000 0.0000 1772.9136 -7563.1092 300.3942 -9336.0228 -7538.8459 300.3391 502.8888 584.1686 30130.6091 135.0367 189.2984
TCL: Running FEP window  16: Lambda1 0.7500000000000001 Lambda2 0.8000000000000002 [dLambda 0.050000000000000044]
TCL: Setting parameter firsttimestep to 0
TCL: Setting parameter alchLambda to 0.7500000000000001
Info: NONBONDED TABLE R-SQUARED SPACING: 0.0625
Info: NONBONDED TABLE SIZE: 705 POINTS
TCL: Setting parameter alchLambda2 to 0.8000000000000002
Info: NONBONDED TABLE R-SQUARED SPACING: 0.0625
Info: NONBONDED TABLE SIZE: 705 POINTS
TCL: Running for 1500000 steps
ETITLE: TS BOND ANGLE DIHED IMPRP ELECT VDW BOUNDARY MISC KINETIC TOTAL TEMP POTENTIAL TOTALAVG TEMPAVG PRESSURE GPRESSURE VOLUME PRESSAVG GPRESSAVG
ENERGY: 0 3.0765 6.6151 4.8863 0.0000 -10854.8296 1503.3948 0.0000 0.0000 1771.9783 -7564.8786 300.2357 -9336.8569 -7564.8786 300.2357 499.8483 595.5458 30130.6091 499.8483 595.5458
ENERGY: 300000 1.8938 5.9814 4.6139 0.0000 -10848.5586 1524.4690 0.0000 0.0000 1796.0967 -7515.5038 304.3222 -9311.6005 -7550.9120 298.5396 550.6375 627.6179 30528.5365 42.8745 128.4468
ENERGY: 600000 3.0872 5.1781 7.5220 0.0000 -10852.6794 1516.1069 0.0000 0.0000 1730.6984 -7590.0868 293.2414 -9320.7852 -7560.7638 297.4699 336.9005 365.7934 30761.3552 79.4791 142.7885
ENERGY: 900000 4.4750 4.4313 1.3120 0.0000 -10767.4593 1447.7420 0.0000 0.0000 1802.2664 -7507.2326 305.3676 -9309.4990 -7527.5700 299.3744 -69.7739 -37.6045 30354.5488 19.7794 74.9237
ENERGY: 1200000 1.4356 5.3268 3.4448 0.0000 -10746.2040 1449.5366 0.0000 0.0000 1769.1583 -7517.3019 299.7579 -9286.4602 -7523.9862 299.1427 5.6249 102.4492 30439.3851 -71.7826 -6.8192
ENERGY: 1500000 0.8297 5.9407 6.1007 0.0000 -10871.8170 1461.4091 0.0000 0.0000 1828.3282 -7569.2086 309.7834 -9397.5368 -7526.8395 299.7371 -81.5722 8.5022 30401.7902 -159.0696 -93.2148
TCL: Running FEP window  17: Lambda1 0.8000000000000002 Lambda2 0.8500000000000002 [dLambda 0.050000000000000044]
TCL: Setting parameter firsttimestep to 0
TCL: Setting parameter alchLambda to 0.8000000000000002
Info: NONBONDED TABLE R-SQUARED SPACING: 0.0625
Info: NONBONDED TABLE SIZE: 705 POINTS
TCL: Setting parameter alchLambda2 to 0.8500000000000002
Info: NONBONDED TABLE R-SQUARED SPACING: 0.0625
Info: NONBONDED TABLE SIZE: 705 POINTS
TCL: Running for 1500000 steps
ETITLE: TS BOND ANGLE DIHED IMPRP ELECT VDW BOUNDARY MISC KINETIC TOTAL TEMP POTENTIAL TOTALAVG TEMPAVG PRESSURE GPRESSURE VOLUME PRESSAVG GPRESSAVG
ENERGY: 0 0.8297 5.9407 6.1007 0.0000 -10873.7469 1462.3193 0.0000 0.0000 1827.4265 -7571.1300 309.6306 -9398.5565 -7571.1300 309.6306 -50.6398 25.7568 30401.7902 -50.6398 25.7568
ENERGY: 300000 1.0352 4.3906 4.5611 0.0000 -10695.2729 1433.6972 0.0000 0.0000 1716.4432 -7535.1456 290.8261 -9251.5888 -7527.3216 302.5344 -119.2616 -34.5876 30949.7078 -228.0878 -141.9403
ENERGY: 600000 1.3120 5.6884 4.2090 0.0000 -10792.5425 1459.5949 0.0000 0.0000 1765.6938 -7556.0443 299.1709 -9321.7381 -7525.6734 302.3698 82.6583 143.0944 30405.4633 -339.1359 -262.4252
ENERGY: 900000 3.7582 6.4279 3.2831 0.0000 -10683.4151 1450.8935 0.0000 0.0000 1719.8546 -7499.1978 291.4041 -9219.0524 -7512.7147 301.5151 142.5692 240.6670 30714.9714 -222.3780 -142.8188
ENERGY: 1200000 1.3936 4.0972 3.0973 0.0000 -10796.0955 1464.7471 0.0000 0.0000 1769.4292 -7553.3311 299.8038 -9322.7603 -7514.3412 301.7332 98.5713 113.0442 30588.8860 -222.0785 -147.7157
ENERGY: 1500000 1.5705 4.0568 3.9789 0.0000 -10786.9156 1448.1526 0.0000 0.0000 1823.9457 -7505.2110 309.0408 -9329.1567 -7520.9541 301.6198 366.4002 446.8621 29776.6311 -239.8433 -166.5641
TCL: Running FEP window  18: Lambda1 0.8500000000000002 Lambda2 0.9000000000000002 [dLambda 0.050000000000000044]
TCL: Setting parameter firsttimestep to 0
TCL: Setting parameter alchLambda to 0.8500000000000002
Info: NONBONDED TABLE R-SQUARED SPACING: 0.0625
Info: NONBONDED TABLE SIZE: 705 POINTS
TCL: Setting parameter alchLambda2 to 0.9000000000000002
Info: NONBONDED TABLE R-SQUARED SPACING: 0.0625
Info: NONBONDED TABLE SIZE: 705 POINTS
TCL: Running for 1500000 steps
ETITLE: TS BOND ANGLE DIHED IMPRP ELECT VDW BOUNDARY MISC KINETIC TOTAL TEMP POTENTIAL TOTALAVG TEMPAVG PRESSURE GPRESSURE VOLUME PRESSAVG GPRESSAVG
ENERGY: 0 1.5705 4.0568 3.9789 0.0000 -10788.1192 1448.7419 0.0000 0.0000 1823.0502 -7506.7209 308.8891 -9329.7710 -7506.7209 308.8891 377.3424 464.5374 29776.6311 377.3424 464.5374
ENERGY: 300000 1.6573 8.2963 4.2444 0.0000 -10628.2884 1339.5239 0.0000 0.0000 1685.5992 -7588.9674 285.6000 -9274.5666 -7523.6655 300.6301 -748.2054 -702.8576 30592.4970 -45.9125 16.0474
ENERGY: 600000 2.2838 2.8690 1.7109 0.0000 -10821.6197 1531.4858 0.0000 0.0000 1799.2225 -7484.0477 304.8518 -9283.2703 -7513.0050 301.9715 774.0005 817.9274 30470.7777 109.3975 159.7981
ENERGY: 900000 3.3625 7.8018 5.1096 0.0000 -10650.5264 1337.1051 0.0000 0.0000 1721.7981 -7575.3493 291.7334 -9297.1474 -7511.6484 301.6454 -906.7616 -896.1476 30649.8399 -12.6050 40.8357
ENERGY: 1200000 1.1438 4.8967 4.3549 0.0000 -10718.2862 1393.5130 0.0000 0.0000 1733.5454 -7580.8323 293.7238 -9314.3777 -7521.2342 301.1752 -291.1269 -189.9549 30188.3158 -108.1293 -40.3093
ENERGY: 1500000 2.0400 5.2111 5.1655 0.0000 -10752.7222 1448.3569 0.0000 0.0000 1781.8509 -7510.0979 301.9085 -9291.9487 -7524.5116 301.0597 30.0130 79.5618 30425.7084 -141.0447 -74.1567
TCL: Running FEP window  19: Lambda1 0.9000000000000002 Lambda2 0.9500000000000003 [dLambda 0.050000000000000044]
TCL: Setting parameter firsttimestep to 0
TCL: Setting parameter alchLambda to 0.9000000000000002
Info: NONBONDED TABLE R-SQUARED SPACING: 0.0625
Info: NONBONDED TABLE SIZE: 705 POINTS
TCL: Setting parameter alchLambda2 to 0.9500000000000003
Info: NONBONDED TABLE R-SQUARED SPACING: 0.0625
Info: NONBONDED TABLE SIZE: 705 POINTS
TCL: Running for 1500000 steps
ETITLE: TS BOND ANGLE DIHED IMPRP ELECT VDW BOUNDARY MISC KINETIC TOTAL TEMP POTENTIAL TOTALAVG TEMPAVG PRESSURE GPRESSURE VOLUME PRESSAVG GPRESSAVG
ENERGY: 0 2.0400 5.2111 5.1654 0.0000 -10753.8441 1448.5463 0.0000 0.0000 1780.9880 -7511.8932 301.7623 -9292.8812 -7511.8932 301.7623 2.6706 95.4509 30425.7084 2.6706 95.4509
ENERGY: 300000 0.9864 7.0870 2.1423 0.0000 -10712.5035 1461.2980 0.0000 0.0000 1716.4634 -7524.5263 290.8295 -9240.9898 -7537.4853 299.0948 31.3686 129.9313 31187.1916 241.8142 340.0363
ENERGY: 600000 1.9911 3.9064 7.6195 0.0000 -10806.4069 1459.7393 0.0000 0.0000 1797.1673 -7535.9834 304.5036 -9333.1507 -7514.6322 302.0438 27.9467 67.4667 30786.0198 68.8745 146.9820
ENERGY: 900000 4.5970 3.4270 4.1312 0.0000 -10793.2146 1494.7241 0.0000 0.0000 1772.0698 -7514.2656 300.2512 -9286.3354 -7521.0461 301.6280 420.8580 446.6307 30300.9738 90.3131 161.9495
ENERGY: 1200000 2.5768 3.9476 2.8208 0.0000 -10660.9393 1409.8760 0.0000 0.0000 1775.1856 -7466.5326 300.7791 -9241.7181 -7510.1958 302.0420 -249.3107 -160.8087 30681.4401 64.9842 130.2194
ENERGY: 1500000 3.9482 6.5925 5.4206 0.0000 -10768.0802 1424.4221 0.0000 0.0000 1767.7907 -7559.9060 299.5262 -9327.6967 -7516.4615 301.7250 -73.1504 -74.1239 30550.9220 11.7844 72.5299
TCL: Running FEP window  20: Lambda1 0.9500000000000003 Lambda2 1.0    [dLambda 0.04999999999999971]
TCL: Setting parameter firsttimestep to 0
TCL: Setting parameter alchLambda to 0.9500000000000003
Info: NONBONDED TABLE R-SQUARED SPACING: 0.0625
Info: NONBONDED TABLE SIZE: 705 POINTS
TCL: Setting parameter alchLambda2 to 1.0
Info: NONBONDED TABLE R-SQUARED SPACING: 0.0625
Info: NONBONDED TABLE SIZE: 705 POINTS
TCL: Running for 1500000 steps
ETITLE: TS BOND ANGLE DIHED IMPRP ELECT VDW BOUNDARY MISC KINETIC TOTAL TEMP POTENTIAL TOTALAVG TEMPAVG PRESSURE GPRESSURE VOLUME PRESSAVG GPRESSAVG
ENERGY: 0 3.9482 6.5925 5.4206 0.0000 -10769.1852 1424.6358 0.0000 0.0000 1766.8936 -7561.6945 299.3742 -9328.5881 -7561.6945 299.3742 -129.3626 -64.3934 30550.9220 -129.3626 -64.3934
ENERGY: 300000 2.7478 5.7628 5.7242 0.0000 -10876.5191 1550.3759 0.0000 0.0000 1756.8228 -7555.0856 297.6678 -9311.9084 -7548.7439 298.5576 666.5309 731.2563 30635.9282 -21.4954 34.9908
ENERGY: 600000 1.4995 2.9837 7.9891 0.0000 -10770.8500 1426.1151 0.0000 0.0000 1715.0954 -7617.1671 290.5977 -9332.2625 -7546.3272 298.7968 -204.5813 -194.1119 30641.8431 -228.4516 -170.3869
ENERGY: 900000 1.9593 3.8951 5.1706 0.0000 -10881.9498 1485.1622 0.0000 0.0000 1776.4684 -7609.2942 300.9965 -9385.7626 -7542.2356 300.5758 124.9602 205.7501 30516.4210 -183.7670 -128.9010
ENERGY: 1200000 2.4815 7.9468 3.9882 0.0000 -10600.5242 1318.8699 0.0000 0.0000 1797.8135 -7469.4244 304.6131 -9267.2379 -7534.8336 301.1073 -898.7227 -914.8308 31190.9487 -211.8988 -168.8495
ENERGY: 1500000 1.9790 4.2683 1.4409 0.0000 -10876.9035 1523.1246 0.0000 0.0000 1771.9848 -7574.1058 300.2368 -9346.0907 -7531.0455 300.4046 668.3992 755.4385 30415.8374 -191.9468 -142.7523
TCL: Exiting due to exit command.
