Info: SIMULATION PARAMETERS:
Info: TIMESTEP               2
Info: NUMBER OF STEPS        0
Info: STEPS PER CYCLE        10
Info: PERIODIC CELL BASIS 1  30.6474 0 0
Info: PERIODIC CELL BASIS 2  0 29.67 0
Info: PERIODIC CELL BASIS 3  0 0 32.9013
Info: PERIODIC CELL CENTER   0 0 0
Info: WRAPPING WATERS AROUND PERIODIC BOUNDARIES ON OUTPUT.
Info: WRAPPING ALL CLUSTERS AROUND PERIODIC BOUNDARIES ON OUTPUT.
Info: FIRST LDB TIMESTEP     50
Info: LAST LDB TIMESTEP     -1
Info: HOM BACKGROUND SCALING 1
Info: PME BACKGROUND SCALING 1
Info: MIN ATOMS PER PATCH    40
Info: EMPTY PATCH LOAD       40 ATOMS
Info: VELOCITY FILE          mobley_2484519_equil.vel
Info: CENTER OF MASS MOVING INITIALLY? NO
Info: DIELECTRIC             1
Info: EXCLUDE                SCALED ONE-FOUR
Info: 1-4 ELECTROSTATICS SCALED BY 0.833333
Info: MODIFIED 1-4 VDW PARAMETERS WILL BE USED
Info: DCD FILENAME           mobley_2484519_prod.dcd
Info: DCD FREQUENCY          100000
Info: DCD FIRST STEP         100000
Info: DCD FILE WILL CONTAIN UNIT CELL DATA
Info: XST FILENAME           mobley_2484519_prod.xst
Info: XST FREQUENCY          100000
Info: NO VELOCITY DCD OUTPUT
Info: NO FORCE DCD OUTPUT
Info: OUTPUT FILENAME        mobley_2484519_prod
Info: BINARY OUTPUT FILES WILL BE USED
Info: RESTART FILENAME       mobley_2484519_prod.restart
Info: RESTART FREQUENCY      100000
Info: BINARY RESTART FILES WILL BE USED
Info: CUTOFF                 9
Info: PAIRLIST DISTANCE      11
Info: PAIRLIST SHRINK RATE   0.01
Info: PAIRLIST GROW RATE     0.01
Info: PAIRLIST TRIGGER       0.3
Info: PAIRLISTS PER CYCLE    2
Info: PAIRLISTS ENABLED
Info: MARGIN                 2
Info: HYDROGEN GROUP CUTOFF  2.5
Info: PATCH DIMENSION        15.5
Info: ENERGY OUTPUT STEPS    100000
Info: ENERGY EVALUATION STEPS    100000
Info: OUTPUT ENERGY PRECISION 4
Info: CROSSTERM ENERGY INCLUDED IN DIHEDRAL
Info: TIMING OUTPUT STEPS    1000000
Info: PRESSURE OUTPUT STEPS  100000
Info: ALCHEMICAL FEP ON
Info: FEP CURRENT LAMBDA VALUE     0
Info: FEP COMPARISON LAMBDA VALUE  0.05
Info: FEP INTRA-ALCHEMICAL NON-BONDED INTERACTIONS WILL BE RETAINED
Info: FEP INTRA-ALCHEMICAL BONDED INTERACTIONS WILL BE RETAINED
Info: FEP VDW SHIFTING COEFFICIENT 5
Info: FEP ELEC. ACTIVE FOR ANNIHILATED PARTICLES BETWEEN LAMBDA = 0 AND LAMBDA = 0.5
Info: FEP ELEC. ACTIVE FOR EXNIHILATED PARTICLES BETWEEN LAMBDA = 0.5 AND LAMBDA = 1
Info: FEP VDW ACTIVE FOR ANNIHILATED PARTICLES BETWEEN LAMBDA = 0 AND LAMBDA = 1
Info: FEP VDW ACTIVE FOR EXNIHILATED PARTICLES BETWEEN LAMBDA = 0 AND LAMBDA = 1
Info: FEP BOND ACTIVE FOR ANNIHILATED PARTICLES BETWEEN LAMBDA = 1 AND LAMBDA = 1
Info: FEP BOND ACTIVE FOR EXNIHILATED PARTICLES BETWEEN LAMBDA = 0 AND LAMBDA = 0
Info: LANGEVIN DYNAMICS ACTIVE
Info: LANGEVIN TEMPERATURE   300
Info: LANGEVIN USING BBK INTEGRATOR
Info: LANGEVIN DAMPING COEFFICIENT IS 1 INVERSE PS
Info: LANGEVIN DYNAMICS APPLIED TO HYDROGENS
Info: LANGEVIN PISTON PRESSURE CONTROL ACTIVE
Info:        TARGET PRESSURE IS 1.01325 BAR
Info:     OSCILLATION PERIOD IS 50 FS
Info:             DECAY TIME IS 25 FS
Info:     PISTON TEMPERATURE IS 300 K
Info:       PRESSURE CONTROL IS GROUP-BASED
Info:    INITIAL STRAIN RATE IS -0.000386384 -0.000386384 -0.000386384
Info:       CELL FLUCTUATION IS ISOTROPIC
Info: PARTICLE MESH EWALD (PME) ACTIVE
Info: PME TOLERANCE               1e-06
Info: PME EWALD COEFFICIENT       0.348832
Info: PME INTERPOLATION ORDER     4
Info: PME GRID DIMENSIONS         32 32 36
Info: PME MAXIMUM GRID SPACING    1
Info: PME CALCULATION WILL BE PERFORMED ON GPU
Info: FULL ELECTROSTATIC EVALUATION FREQUENCY      2
Info: USING VERLET I (r-RESPA) MTS SCHEME.
Info: C1 SPLITTING OF LONG RANGE ELECTROSTATICS
Info: PLACING ATOMS IN PATCHES BY HYDROGEN GROUPS
Info: RIGID BONDS TO HYDROGEN : ALL
Info:         ERROR TOLERANCE : 1e-08
Info:          MAX ITERATIONS : 100
Info: RIGID WATER USING SETTLE ALGORITHM
Info: RANDOM NUMBER SEED     1743743179
Info: USE HYDROGEN BONDS?    NO
Info: Using AMBER format force field!
Info: AMBER PARM FILE        mobley_2484519.prmtop
Info: COORDINATE PDB         mobley_2484519.pdb
Info: Exclusions will be read from PARM file!
Info: SCNB (VDW SCALING)     2
Info: USING ARITHMETIC MEAN TO COMBINE L-J SIGMA PARAMETERS
Info: BINARY COORDINATES     mobley_2484519_equil.coor
Info: SUMMARY OF PARAMETERS:
Info: 7 BONDS
Info: 7 ANGLES
Info:   7 HARMONIC
Info:   0 COSINE-BASED
Info: 3 DIHEDRAL
Info: 0 IMPROPER
Info: 0 CROSSTERM
Info: 0 VDW
Info: 28 VDW_PAIRS
Info: 0 NBTHOLE_PAIRS
Info: To read alchdata from file: mobley_2484519.pdb
Info: To read alchflag data from column: 5
Info: STRUCTURE SUMMARY:
Info: 2931 ATOMS
Info: 2931 BONDS
Info: 24 ANGLES
Info: 36 DIHEDRALS
Info: 0 IMPROPERS
Info: 0 CROSSTERMS
Info: 2982 EXCLUSIONS
Info: 2923 RIGID BONDS
Info: ALCH: 0 ATOMS TO DISAPPEAR IN FINAL STATE
Info: ALCH: 15 ATOMS TO APPEAR IN FINAL STATE
Info: 5870 DEGREES OF FREEDOM
Info: 980 HYDROGEN GROUPS
Info: 3 ATOMS IN LARGEST HYDROGEN GROUP
Info: 980 MIGRATION GROUPS
Info: 3 ATOMS IN LARGEST MIGRATION GROUP
Info: TOTAL MASS = 17638.1 amu
Info: TOTAL CHARGE = -9.99719e-05 e
Info: MASS DENSITY = 0.979011 g/cm^3
Info: ATOM DENSITY = 0.0979696 atoms/A^3
Info: ADDED 0 IMPLICIT EXCLUSIONS
Info: NONBONDED TABLE R-SQUARED SPACING: 0.0625
Info: NONBONDED TABLE SIZE: 705 POINTS
Info: REMOVING COM VELOCITY -0.0354062 -0.0897032 -0.0685859
Info: Use 3D box decompostion in PME FFT.
Info: Updated CUDA force table with 4096 elements.
Info: Updated CUDA LJ table with 7 x 7 elements.
Info: Found 17 unique exclusion lists needing 36 bytes
TCL: Running for 1500000 steps
ETITLE: TS BOND ANGLE DIHED IMPRP ELECT VDW BOUNDARY MISC KINETIC TOTAL TEMP POTENTIAL TOTALAVG TEMPAVG PRESSURE GPRESSURE VOLUME PRESSAVG GPRESSAVG
ENERGY: 0 4.5215 7.3908 2.1880 0.0000 -10481.1165 1380.7237 0.0000 0.0000 1743.1374 -7343.1551 298.8711 -9086.2925 -7343.1551 298.8711 -173.3856 -78.9399 29917.4341 -173.3856 -78.9399
ENERGY: 300000 0.6010 4.9766 2.7232 0.0000 -10456.5841 1339.1503 0.0000 0.0000 1795.8587 -7313.2743 307.9105 -9109.1330 -7390.9629 299.5376 -310.2576 -283.6394 29884.7493 -282.5267 -208.1970
ENERGY: 600000 2.2950 4.0847 2.4902 0.0000 -10727.4207 1472.3539 0.0000 0.0000 1743.0514 -7503.1456 298.8563 -9246.1970 -7421.8798 300.1381 37.5909 42.7988 29945.3450 -53.1593 7.6416
ENERGY: 900000 1.9486 4.1446 4.3831 0.0000 -10522.2292 1345.0582 0.0000 0.0000 1787.8915 -7378.8032 306.5444 -9166.6947 -7419.2844 301.0159 -444.8208 -442.0589 29938.2009 -1.9631 51.6877
ENERGY: 1200000 1.7109 3.1170 2.9225 0.0000 -10634.2928 1444.5763 0.0000 0.0000 1761.2382 -7420.7280 301.9746 -9181.9661 -7427.4254 300.3773 186.6354 258.1279 30076.0594 160.3196 219.5185
ENERGY: 1500000 1.1125 3.6579 3.0805 0.0000 -10582.1795 1490.0185 0.0000 0.0000 1771.9092 -7312.4009 303.8042 -9084.3101 -7410.9739 301.1552 666.0543 686.6128 30059.2805 130.9401 188.7619
TCL: Running FEP window   2: Lambda1 0.05   Lambda2 0.1    [dLambda 0.05  ]
TCL: Setting parameter firsttimestep to 0
TCL: Setting parameter alchLambda to 0.05
Info: NONBONDED TABLE R-SQUARED SPACING: 0.0625
Info: NONBONDED TABLE SIZE: 705 POINTS
TCL: Setting parameter alchLambda2 to 0.1
Info: NONBONDED TABLE R-SQUARED SPACING: 0.0625
Info: NONBONDED TABLE SIZE: 705 POINTS
TCL: Running for 1500000 steps
ETITLE: TS BOND ANGLE DIHED IMPRP ELECT VDW BOUNDARY MISC KINETIC TOTAL TEMP POTENTIAL TOTALAVG TEMPAVG PRESSURE GPRESSURE VOLUME PRESSAVG GPRESSAVG
ENERGY: 0 1.1125 3.6579 3.0805 0.0000 -10582.1795 1493.3802 0.0000 0.0000 1771.0148 -7309.9334 303.6508 -9080.9483 -7309.9334 303.6508 621.0330 695.3403 30059.2805 621.0330 695.3403
ENERGY: 300000 3.4184 4.9834 3.0708 0.0000 -10608.8002 1447.7991 0.0000 0.0000 1726.5703 -7422.9582 296.0306 -9149.5285 -7390.1321 299.3656 124.4994 116.3105 30170.7827 78.4587 134.2261
ENERGY: 600000 2.9568 4.9348 2.3586 0.0000 -10701.2092 1503.5485 0.0000 0.0000 1745.9408 -7441.4697 299.3517 -9187.4105 -7419.0968 301.3207 250.6718 390.1238 30378.1210 -86.1571 -14.1018
ENERGY: 900000 5.1391 4.7018 2.9702 0.0000 -10619.0431 1424.5714 0.0000 0.0000 1720.3391 -7461.3215 294.9622 -9181.6606 -7416.0583 300.5006 -389.4122 -284.6812 30065.0170 -170.2482 -98.1083
ENERGY: 1200000 2.0908 4.1032 2.8983 0.0000 -10527.5461 1369.7353 0.0000 0.0000 1717.5592 -7431.1593 294.4856 -9148.7185 -7415.9034 299.7847 -506.0935 -393.2784 29731.4651 -233.6429 -159.6607
ENERGY: 1500000 4.8910 4.6772 2.4285 0.0000 -10587.4519 1408.1844 0.0000 0.0000 1745.2782 -7421.9926 299.2381 -9167.2708 -7413.8750 299.4751 -496.7594 -425.6422 30154.2638 -334.3653 -268.7006
TCL: Running FEP window   3: Lambda1 0.1    Lambda2 0.15000000000000002 [dLambda 0.05000000000000002]
TCL: Setting parameter firsttimestep to 0
TCL: Setting parameter alchLambda to 0.1
Info: NONBONDED TABLE R-SQUARED SPACING: 0.0625
Info: NONBONDED TABLE SIZE: 705 POINTS
TCL: Setting parameter alchLambda2 to 0.15000000000000002
Info: NONBONDED TABLE R-SQUARED SPACING: 0.0625
Info: NONBONDED TABLE SIZE: 705 POINTS
TCL: Running for 1500000 steps
ETITLE: TS BOND ANGLE DIHED IMPRP ELECT VDW BOUNDARY MISC KINETIC TOTAL TEMP POTENTIAL TOTALAVG TEMPAVG PRESSURE GPRESSURE VOLUME PRESSAVG GPRESSAVG
ENERGY: 0 4.8910 4.6772 2.4285 0.0000 -10587.4529 1408.3663 0.0000 0.0000 1744.3970 -7422.6928 299.0871 -9167.0899 -7422.6928 299.0871 -515.8036 -422.9955 30154.2638 -515.8036 -422.9955
ENERGY: 300000 3.7794 6.4457 4.5806 0.0000 -10518.7139 1401.9057 0.0000 0.0000 1742.7810 -7359.2215 298.8100 -9102.0025 -7408.0031 297.6702 -599.1863 -486.8429 30672.5020 -388.1971 -314.9028
ENERGY: 600000 1.2254 1.9696 5.3721 0.0000 -10642.3689 1440.7825 0.0000 0.0000 1755.5361 -7437.4833 300.9969 -9193.0193 -7419.9432 298.5753 -109.0265 -17.1874 30037.6863 -366.3262 -287.7443
ENERGY: 900000 4.1916 2.8201 4.1752 0.0000 -10361.5490 1336.8323 0.0000 0.0000 1787.2550 -7226.2747 306.4353 -9013.5297 -7391.8771 298.9852 -470.3286 -455.9320 30420.8829 -374.6090 -305.9361
ENERGY: 1200000 1.6880 6.6520 1.8676 0.0000 -10839.6939 1588.8900 0.0000 0.0000 1735.9919 -7504.6043 297.6460 -9240.5963 -7402.9453 298.4583 1085.2880 1172.5654 29747.7475 -155.1868 -91.1926
ENERGY: 1500000 3.4363 3.7732 2.8966 0.0000 -10511.8742 1320.0224 0.0000 0.0000 1754.2733 -7427.4724 300.7804 -9181.7457 -7404.0382 299.1857 -1071.3388 -980.4461 30315.6175 -205.0824 -145.6507
TCL: Running FEP window   4: Lambda1 0.15000000000000002 Lambda2 0.2    [dLambda 0.04999999999999999]
TCL: Setting parameter firsttimestep to 0
TCL: Setting parameter alchLambda to 0.15000000000000002
Info: NONBONDED TABLE R-SQUARED SPACING: 0.0625
Info: NONBONDED TABLE SIZE: 705 POINTS
TCL: Setting parameter alchLambda2 to 0.2
Info: NONBONDED TABLE R-SQUARED SPACING: 0.0625
Info: NONBONDED TABLE SIZE: 705 POINTS
TCL: Running for 1500000 steps
ETITLE: TS BOND ANGLE DIHED IMPRP ELECT VDW BOUNDARY MISC KINETIC TOTAL TEMP POTENTIAL TOTALAVG TEMPAVG PRESSURE GPRESSURE VOLUME PRESSAVG GPRESSAVG
ENERGY: 0 3.4363 3.7732 2.8966 0.0000 -10511.8741 1320.2739 0.0000 0.0000 1753.3895 -7428.1045 300.6289 -9181.4940 -7428.1045 300.6289 -1059.9115 -975.8389 30315.6175 -1059.9115 -975.8389
ENERGY: 300000 2.9384 4.8770 1.4767 0.0000 -10618.0829 1428.3070 0.0000 0.0000 1688.5583 -7491.9255 289.5132 -9180.4837 -7411.1845 297.0946 -160.9838 -130.1528 30436.9382 -477.7258 -432.4499
ENERGY: 600000 2.7123 4.8757 1.9156 0.0000 -10685.5198 1445.2588 0.0000 0.0000 1718.2463 -7512.5111 294.6034 -9230.7574 -7412.5104 298.6007 111.8333 149.4512 29691.2923 -226.1007 -187.0792
ENERGY: 900000 2.1551 5.2756 2.8840 0.0000 -10604.2942 1414.3809 0.0000 0.0000 1711.8353 -7467.7633 293.5042 -9179.5986 -7418.3237 297.8794 -185.1088 -74.3801 29798.7662 -121.1630 -56.5648
ENERGY: 1200000 1.9494 3.6201 2.3412 0.0000 -10635.5733 1445.1565 0.0000 0.0000 1701.3587 -7481.1475 291.7079 -9182.5061 -7421.9329 296.7934 -17.6403 62.4198 29986.7348 -89.3849 -16.2455
ENERGY: 1500000 1.6060 5.7631 2.4816 0.0000 -10783.7089 1490.3398 0.0000 0.0000 1741.2157 -7542.3026 298.5416 -9283.5183 -7427.1223 297.8895 298.4924 404.7318 29489.2177 5.5898 79.6272
TCL: Running FEP window   5: Lambda1 0.2    Lambda2 0.25   [dLambda 0.04999999999999999]
TCL: Setting parameter firsttimestep to 0
TCL: Setting parameter alchLambda to 0.2
Info: NONBONDED TABLE R-SQUARED SPACING: 0.0625
Info: NONBONDED TABLE SIZE: 705 POINTS
TCL: Setting parameter alchLambda2 to 0.25
Info: NONBONDED TABLE R-SQUARED SPACING: 0.0625
Info: NONBONDED TABLE SIZE: 705 POINTS
TCL: Running for 1500000 steps
ETITLE: TS BOND ANGLE DIHED IMPRP ELECT VDW BOUNDARY MISC KINETIC TOTAL TEMP POTENTIAL TOTALAVG TEMPAVG PRESSURE GPRESSURE VOLUME PRESSAVG GPRESSAVG
ENERGY: 0 1.6060 5.7631 2.4816 0.0000 -10783.7066 1490.5744 0.0000 0.0000 1740.3135 -7542.9679 298.3869 -9283.2814 -7542.9679 298.3869 320.5550 407.1048 29489.2177 320.5550 407.1048
ENERGY: 300000 2.6390 4.5635 1.7438 0.0000 -10618.4550 1448.4533 0.0000 0.0000 1767.7967 -7393.2587 303.0991 -9161.0554 -7446.6331 299.0553 -67.7598 10.9173 30221.1319 50.0202 135.0714
ENERGY: 600000 2.6379 3.8722 3.3156 0.0000 -10740.9770 1522.1706 0.0000 0.0000 1767.1803 -7441.8002 302.9934 -9208.9805 -7464.7666 298.0684 656.6085 776.6629 29894.7229 263.1240 345.7480
ENERGY: 900000 5.0742 3.6648 0.7670 0.0000 -10573.6204 1410.1090 0.0000 0.0000 1723.3109 -7430.6947 295.4717 -9154.0056 -7448.9160 298.6692 -596.0830 -514.2888 30489.7499 169.5979 252.1835
ENERGY: 1200000 2.6373 3.8551 4.1538 0.0000 -10773.5301 1477.7746 0.0000 0.0000 1791.1241 -7493.9850 307.0987 -9285.1091 -7440.7810 300.1799 191.0649 249.8351 29853.5665 98.3029 174.1053
ENERGY: 1500000 4.2562 6.5808 3.7429 0.0000 -10608.6965 1439.9531 0.0000 0.0000 1720.1325 -7434.0311 294.9268 -9154.1636 -7434.3145 299.7242 -238.9958 -140.7771 30242.8912 116.9055 196.1145
TCL: Running FEP window   6: Lambda1 0.25   Lambda2 0.3    [dLambda 0.04999999999999999]
TCL: Setting parameter firsttimestep to 0
TCL: Setting parameter alchLambda to 0.25
Info: NONBONDED TABLE R-SQUARED SPACING: 0.0625
Info: NONBONDED TABLE SIZE: 705 POINTS
TCL: Setting parameter alchLambda2 to 0.3
Info: NONBONDED TABLE R-SQUARED SPACING: 0.0625
Info: NONBONDED TABLE SIZE: 705 POINTS
TCL: Running for 1500000 steps
ETITLE: TS BOND ANGLE DIHED IMPRP ELECT VDW BOUNDARY MISC KINETIC TOTAL TEMP POTENTIAL TOTALAVG TEMPAVG PRESSURE GPRESSURE VOLUME PRESSAVG GPRESSAVG
ENERGY: 0 4.2562 6.5808 3.7429 0.0000 -10608.6968 1442.0020 0.0000 0.0000 1719.3057 -7432.8092 294.7850 -9152.1149 -7432.8092 294.7850 -201.4448 -128.2376 30242.8912 -201.4448 -128.2376
ENERGY: 300000 3.1511 4.5950 4.1458 0.0000 -10723.3014 1508.1717 0.0000 0.0000 1755.3256 -7447.9122 300.9608 -9203.2378 -7451.8971 296.3154 447.0946 550.6544 29973.6878 19.8052 98.2661
ENERGY: 600000 1.9108 3.3544 1.7278 0.0000 -10665.3314 1488.0387 0.0000 0.0000 1761.2399 -7409.0599 301.9749 -9170.2998 -7420.2446 297.4004 755.0826 743.0609 29845.4026 135.0405 186.8677
ENERGY: 900000 2.5401 4.7308 3.3753 0.0000 -10501.7723 1387.5844 0.0000 0.0000 1758.3930 -7345.1487 301.4868 -9103.5417 -7411.3481 298.0096 -253.2954 -197.4473 30368.2045 67.6893 120.2274
ENERGY: 1200000 1.3905 3.9347 3.8698 0.0000 -10566.1862 1423.3953 0.0000 0.0000 1748.6813 -7384.9146 299.8216 -9133.5959 -7412.0924 298.5075 101.7205 166.7153 30177.0270 84.9472 142.3831
ENERGY: 1500000 1.8645 3.8182 3.1280 0.0000 -10653.2612 1397.7453 0.0000 0.0000 1778.2229 -7468.4823 304.8867 -9246.7052 -7417.3766 299.2615 -423.5094 -357.8063 29993.6599 32.4390 89.7173
TCL: Running FEP window   7: Lambda1 0.3    Lambda2 0.35   [dLambda 0.04999999999999999]
TCL: Setting parameter firsttimestep to 0
TCL: Setting parameter alchLambda to 0.3
Info: NONBONDED TABLE R-SQUARED SPACING: 0.0625
Info: NONBONDED TABLE SIZE: 705 POINTS
TCL: Setting parameter alchLambda2 to 0.35
Info: NONBONDED TABLE R-SQUARED SPACING: 0.0625
Info: NONBONDED TABLE SIZE: 705 POINTS
TCL: Running for 1500000 steps
ETITLE: TS BOND ANGLE DIHED IMPRP ELECT VDW BOUNDARY MISC KINETIC TOTAL TEMP POTENTIAL TOTALAVG TEMPAVG PRESSURE GPRESSURE VOLUME PRESSAVG GPRESSAVG
ENERGY: 0 1.8645 3.8182 3.1280 0.0000 -10653.2604 1397.5011 0.0000 0.0000 1777.3728 -7469.5757 304.7410 -9246.9485 -7469.5757 304.7410 -442.2941 -355.7291 29993.6599 -442.2941 -355.7291
ENERGY: 300000 2.9199 6.2997 4.4030 0.0000 -10713.4413 1450.8512 0.0000 0.0000 1752.3809 -7496.5865 300.4559 -9248.9675 -7444.3110 298.7771 -109.9667 3.9512 29745.3242 -173.8971 -95.2280
ENERGY: 600000 3.4738 5.7513 1.4957 0.0000 -10634.0375 1451.9992 0.0000 0.0000 1739.2650 -7432.0525 298.2071 -9171.3175 -7435.5483 298.1854 288.5295 319.8069 29995.2922 -190.9315 -128.1082
ENERGY: 900000 3.8102 5.6569 2.8138 0.0000 -10644.5362 1396.6661 0.0000 0.0000 1771.9909 -7463.5984 303.8182 -9235.5893 -7434.5980 299.0219 -529.8088 -495.9218 30009.5541 -191.0035 -141.9745
ENERGY: 1200000 1.3966 3.0499 4.6691 0.0000 -10531.2230 1322.3328 0.0000 0.0000 1714.1983 -7485.5763 293.9093 -9199.7746 -7432.9854 299.2786 -1108.7327 -1054.4684 30405.9854 -313.1530 -262.6141
ENERGY: 1500000 0.8345 2.5714 4.0152 0.0000 -10513.2584 1376.9911 0.0000 0.0000 1775.5323 -7353.3138 304.4254 -9128.8461 -7431.7461 299.5106 -182.7033 -138.8888 30036.4170 -279.4081 -228.0712
TCL: Running FEP window   8: Lambda1 0.35   Lambda2 0.39999999999999997 [dLambda 0.04999999999999999]
TCL: Setting parameter firsttimestep to 0
TCL: Setting parameter alchLambda to 0.35
Info: NONBONDED TABLE R-SQUARED SPACING: 0.0625
Info: NONBONDED TABLE SIZE: 705 POINTS
TCL: Setting parameter alchLambda2 to 0.39999999999999997
Info: NONBONDED TABLE R-SQUARED SPACING: 0.0625
Info: NONBONDED TABLE SIZE: 705 POINTS
TCL: Running for 1500000 steps
ETITLE: TS BOND ANGLE DIHED IMPRP ELECT VDW BOUNDARY MISC KINETIC TOTAL TEMP POTENTIAL TOTALAVG TEMPAVG PRESSURE GPRESSURE VOLUME PRESSAVG GPRESSAVG
ENERGY: 0 0.8345 2.5714 4.0152 0.0000 -10513.2569 1376.5901 0.0000 0.0000 1774.6269 -7354.6187 304.2701 -9129.2456 -7354.6187 304.2701 -225.4735 -136.9213 30036.4170 -225.4735 -136.9213
ENERGY: 300000 1.5512 6.9281 1.9107 0.0000 -10476.9899 1344.4317 0.0000 0.0000 1760.4242 -7361.7440 301.8350 -9122.1682 -7400.2218 303.8260 -515.2677 -448.6485 29993.2407 -89.6042 -27.0702
ENERGY: 600000 4.0126 3.5473 2.0251 0.0000 -10624.5343 1470.1266 0.0000 0.0000 1689.6843 -7455.1382 289.7062 -9144.8225 -7403.4524 300.8733 211.0130 308.2315 30143.1263 -7.3957 64.5583
ENERGY: 900000 3.4037 6.6165 2.1831 0.0000 -10754.4244 1558.0116 0.0000 0.0000 1770.2016 -7414.0078 303.5114 -9184.2095 -7417.3207 300.2503 1250.7561 1306.0841 29682.6850 57.0483 126.4998
ENERGY: 1200000 2.2535 4.4698 1.2102 0.0000 -10555.0485 1388.5928 0.0000 0.0000 1733.5608 -7424.9614 297.2291 -9158.5222 -7420.5065 300.1821 -174.0877 -93.0772 29986.8975 102.1815 165.9362
ENERGY: 1500000 4.9086 4.2448 1.7408 0.0000 -10578.2636 1430.6717 0.0000 0.0000 1817.9021 -7318.7957 311.6899 -9136.6978 -7414.1725 301.0628 103.8879 145.8914 30133.3353 96.4688 160.3897
TCL: Running FEP window   9: Lambda1 0.39999999999999997 Lambda2 0.44999999999999996 [dLambda 0.04999999999999999]
TCL: Setting parameter firsttimestep to 0
TCL: Setting parameter alchLambda to 0.39999999999999997
Info: NONBONDED TABLE R-SQUARED SPACING: 0.0625
Info: NONBONDED TABLE SIZE: 705 POINTS
TCL: Setting parameter alchLambda2 to 0.44999999999999996
Info: NONBONDED TABLE R-SQUARED SPACING: 0.0625
Info: NONBONDED TABLE SIZE: 705 POINTS
TCL: Running for 1500000 steps
ETITLE: TS BOND ANGLE DIHED IMPRP ELECT VDW BOUNDARY MISC KINETIC TOTAL TEMP POTENTIAL TOTALAVG TEMPAVG PRESSURE GPRESSURE VOLUME PRESSAVG GPRESSAVG
ENERGY: 0 4.9086 4.2448 1.7408 0.0000 -10578.2617 1430.7109 0.0000 0.0000 1817.0527 -7319.6039 311.5443 -9136.6566 -7319.6039 311.5443 86.3458 153.1575 30133.3353 86.3458 153.1575
ENERGY: 300000 3.3587 2.3503 3.8497 0.0000 -10671.9483 1488.7977 0.0000 0.0000 1789.9053 -7383.6865 306.8897 -9173.5918 -7363.5989 308.1530 448.1086 514.5070 30523.0789 296.8481 355.2397
ENERGY: 600000 2.0818 6.6708 3.9346 0.0000 -10562.1950 1439.6631 0.0000 0.0000 1762.4681 -7347.3764 302.1855 -9109.8445 -7390.0975 304.2205 185.0378 247.2544 30122.8872 222.8149 289.7990
ENERGY: 900000 4.8779 5.0969 2.2172 0.0000 -10530.0649 1365.1553 0.0000 0.0000 1703.9640 -7448.7535 292.1546 -9152.7176 -7396.5809 302.3998 -704.4111 -659.3539 30045.3824 75.0580 134.6219
ENERGY: 1200000 5.5664 4.0659 1.7233 0.0000 -10584.6716 1396.6847 0.0000 0.0000 1816.0898 -7360.5414 311.3792 -9176.6312 -7401.5257 302.4130 -412.4591 -415.8478 30582.1658 45.9897 100.3310
ENERGY: 1500000 2.9001 4.1093 6.2365 0.0000 -10713.7904 1491.0812 0.0000 0.0000 1776.8200 -7432.6433 304.6462 -9209.4633 -7409.2100 302.0879 388.9631 527.9778 29678.0485 70.0140 131.6734
TCL: Running FEP window  10: Lambda1 0.44999999999999996 Lambda2 0.49999999999999994 [dLambda 0.04999999999999999]
TCL: Setting parameter firsttimestep to 0
TCL: Setting parameter alchLambda to 0.44999999999999996
Info: NONBONDED TABLE R-SQUARED SPACING: 0.0625
Info: NONBONDED TABLE SIZE: 705 POINTS
TCL: Setting parameter alchLambda2 to 0.49999999999999994
Info: NONBONDED TABLE R-SQUARED SPACING: 0.0625
Info: NONBONDED TABLE SIZE: 705 POINTS
TCL: Running for 1500000 steps
ETITLE: TS BOND ANGLE DIHED IMPRP ELECT VDW BOUNDARY MISC KINETIC TOTAL TEMP POTENTIAL TOTALAVG TEMPAVG PRESSURE GPRESSURE VOLUME PRESSAVG GPRESSAVG
ENERGY: 0 2.9001 4.1093 6.2365 0.0000 -10713.7902 1491.2208 0.0000 0.0000 1775.9379 -7433.3856 304.4949 -9209.3235 -7433.3856 304.4949 439.1923 532.2864 29678.0485 439.1923 532.2864
ENERGY: 300000 2.1592 4.7811 1.7503 0.0000 -10476.3165 1375.9566 0.0000 0.0000 1730.9977 -7360.6716 296.7897 -9091.6693 -7390.4800 300.6276 -71.5817 -60.8418 30244.6511 33.7667 99.7734
ENERGY: 600000 3.1485 4.5988 2.5840 0.0000 -10625.8683 1398.7967 0.0000 0.0000 1775.3459 -7441.3944 304.3934 -9216.7403 -7393.8038 301.3364 -378.9307 -331.6767 30012.4894 -6.1577 51.2910
ENERGY: 900000 2.3083 3.6925 4.7030 0.0000 -10666.0070 1469.5546 0.0000 0.0000 1717.7721 -7467.9765 294.5221 -9185.7486 -7401.8076 300.6901 317.7536 402.7997 29849.2312 41.2075 102.2960
ENERGY: 1200000 0.8872 7.1724 3.7046 0.0000 -10446.2834 1357.1176 0.0000 0.0000 1768.5969 -7308.8048 303.2363 -9077.4017 -7406.0807 299.9562 -546.2537 -473.0801 30518.6846 25.9366 83.7073
ENERGY: 1500000 2.1691 4.2474 2.2952 0.0000 -10627.9277 1444.6634 0.0000 0.0000 1796.0781 -7378.4744 307.9481 -9174.5525 -7404.9757 300.4363 291.0682 335.8254 30068.4122 44.7445 102.3498
TCL: Running FEP window  11: Lambda1 0.49999999999999994 Lambda2 0.5499999999999999 [dLambda 0.04999999999999999]
TCL: Setting parameter firsttimestep to 0
TCL: Setting parameter alchLambda to 0.49999999999999994
Info: NONBONDED TABLE R-SQUARED SPACING: 0.0625
Info: NONBONDED TABLE SIZE: 705 POINTS
TCL: Setting parameter alchLambda2 to 0.5499999999999999
Info: NONBONDED TABLE R-SQUARED SPACING: 0.0625
Info: NONBONDED TABLE SIZE: 705 POINTS
TCL: Running for 1500000 steps
ETITLE: TS BOND ANGLE DIHED IMPRP ELECT VDW BOUNDARY MISC KINETIC TOTAL TEMP POTENTIAL TOTALAVG TEMPAVG PRESSURE GPRESSURE VOLUME PRESSAVG GPRESSAVG
ENERGY: 0 2.1691 4.2474 2.2952 0.0000 -10627.9268 1444.7881 0.0000 0.0000 1795.1939 -7379.2331 307.7965 -9174.4270 -7379.2331 307.7965 273.6003 343.6520 30068.4122 273.6003 343.6520
ENERGY: 300000 1.8692 3.2854 7.6723 0.0000 -10640.9264 1454.3516 0.0000 0.0000 1670.1399 -7503.6080 286.3552 -9173.7479 -7443.0825 294.4320 341.2081 399.7850 29757.6089 296.7824 355.4042
ENERGY: 600000 3.7121 2.1884 1.8600 0.0000 -10653.0989 1414.9504 0.0000 0.0000 1771.7639 -7458.6240 303.7793 -9230.3879 -7438.3441 297.9066 -472.4659 -517.8160 30705.6613 141.5716 183.2211
ENERGY: 900000 2.6680 3.4483 1.8549 0.0000 -10585.9499 1439.4293 0.0000 0.0000 1818.4330 -7320.1163 311.7810 -9138.5493 -7415.8466 300.4225 455.9110 565.9610 30059.8557 133.3960 182.5433
ENERGY: 1200000 4.3155 6.4647 2.3529 0.0000 -10805.0577 1541.8771 0.0000 0.0000 1760.0146 -7490.0329 301.7648 -9250.0475 -7426.9957 299.7908 824.4411 871.3322 30083.7968 66.5902 113.7974
ENERGY: 1500000 1.5268 10.4212 2.9324 0.0000 -10617.3413 1463.1472 0.0000 0.0000 1729.1190 -7410.1947 296.4676 -9139.3137 -7430.5736 299.0682 256.7052 303.7291 30240.3536 125.3903 175.3692
TCL: Running FEP window  12: Lambda1 0.5499999999999999 Lambda2 0.6    [dLambda 0.050000000000000044]
TCL: Setting parameter firsttimestep to 0
TCL: Setting parameter alchLambda to 0.5499999999999999
Info: NONBONDED TABLE R-SQUARED SPACING: 0.0625
Info: NONBONDED TABLE SIZE: 705 POINTS
TCL: Setting parameter alchLambda2 to 0.6
Info: NONBONDED TABLE R-SQUARED SPACING: 0.0625
Info: NONBONDED TABLE SIZE: 705 POINTS
TCL: Running for 1500000 steps
ETITLE: TS BOND ANGLE DIHED IMPRP ELECT VDW BOUNDARY MISC KINETIC TOTAL TEMP POTENTIAL TOTALAVG TEMPAVG PRESSURE GPRESSURE VOLUME PRESSAVG GPRESSAVG
ENERGY: 0 1.5268 10.4212 2.9324 0.0000 -10617.1587 1463.8403 0.0000 0.0000 1728.2611 -7410.1771 296.3205 -9138.4381 -7410.1771 296.3205 244.3940 318.5744 30240.3536 244.3940 318.5744
ENERGY: 300000 1.6452 1.9633 1.8884 0.0000 -10628.0475 1432.5423 0.0000 0.0000 1768.8399 -7421.1684 303.2779 -9190.0083 -7397.2494 302.6176 -112.3702 -59.1829 30167.9046 49.8796 117.2251
ENERGY: 600000 1.0848 3.1675 2.5506 0.0000 -10706.5171 1477.8037 0.0000 0.0000 1723.0966 -7498.8139 295.4350 -9221.9105 -7411.3397 301.1635 395.7361 464.8472 29815.9972 4.1221 71.8410
ENERGY: 900000 3.6073 3.2909 2.9501 0.0000 -10594.6472 1437.5078 0.0000 0.0000 1753.6391 -7393.6520 300.6717 -9147.2911 -7406.3025 301.9060 286.9600 312.1262 29776.1492 12.7146 75.3697
ENERGY: 1200000 2.0944 6.3583 2.5282 0.0000 -10629.7830 1442.0407 0.0000 0.0000 1763.1448 -7413.6167 302.3015 -9176.7615 -7406.0355 301.5262 8.5275 7.7828 30455.3981 -34.4801 21.9069
ENERGY: 1500000 1.9653 2.8316 4.4598 0.0000 -10691.9550 1526.5010 0.0000 0.0000 1781.1599 -7375.0374 305.3903 -9156.1973 -7399.9446 302.0890 1135.7226 1256.7566 29562.8819 21.4980 79.6463
TCL: Running FEP window  13: Lambda1 0.6    Lambda2 0.65   [dLambda 0.050000000000000044]
TCL: Setting parameter firsttimestep to 0
TCL: Setting parameter alchLambda to 0.6
Info: NONBONDED TABLE R-SQUARED SPACING: 0.0625
Info: NONBONDED TABLE SIZE: 705 POINTS
TCL: Setting parameter alchLambda2 to 0.65
Info: NONBONDED TABLE R-SQUARED SPACING: 0.0625
Info: NONBONDED TABLE SIZE: 705 POINTS
TCL: Running for 1500000 steps
ETITLE: TS BOND ANGLE DIHED IMPRP ELECT VDW BOUNDARY MISC KINETIC TOTAL TEMP POTENTIAL TOTALAVG TEMPAVG PRESSURE GPRESSURE VOLUME PRESSAVG GPRESSAVG
ENERGY: 0 1.9653 2.8316 4.4598 0.0000 -10691.7742 1526.0367 0.0000 0.0000 1780.3066 -7376.1742 305.2440 -9156.4808 -7376.1742 305.2440 1164.5916 1258.3915 29562.8819 1164.5916 1258.3915
ENERGY: 300000 2.7640 2.2895 2.6045 0.0000 -10682.2183 1446.1684 0.0000 0.0000 1713.8983 -7514.4936 293.8579 -9228.3919 -7415.7197 300.7598 -65.6465 48.6331 29792.9822 270.6402 360.9435
ENERGY: 600000 1.1755 6.0973 6.0038 0.0000 -10569.1222 1389.4010 0.0000 0.0000 1715.9825 -7450.4621 294.2152 -9166.4446 -7414.7373 300.0726 -492.1010 -358.8970 30509.3695 -80.1738 -6.8625
ENERGY: 900000 0.5564 3.7991 2.9899 0.0000 -10657.9687 1423.2250 0.0000 0.0000 1713.1297 -7514.2686 293.7261 -9227.3982 -7419.3659 300.9701 -225.5244 -101.0537 29932.8701 -78.7027 9.1753
ENERGY: 1200000 3.6517 5.0697 2.9864 0.0000 -10632.6580 1392.7511 0.0000 0.0000 1713.2211 -7514.9780 293.7418 -9228.1991 -7431.8918 299.6827 -544.5861 -473.4185 30215.9138 -214.2259 -132.5268
ENERGY: 1500000 1.6152 5.9145 1.3147 0.0000 -10550.4399 1405.2745 0.0000 0.0000 1707.9147 -7428.4064 292.8319 -9136.3211 -7433.8010 298.7661 -283.7294 -222.0351 30515.9567 -194.2952 -120.8514
TCL: Running FEP window  14: Lambda1 0.65   Lambda2 0.7000000000000001 [dLambda 0.050000000000000044]
TCL: Setting parameter firsttimestep to 0
TCL: Setting parameter alchLambda to 0.65
Info: NONBONDED TABLE R-SQUARED SPACING: 0.0625
Info: NONBONDED TABLE SIZE: 705 POINTS
TCL: Setting parameter alchLambda2 to 0.7000000000000001
Info: NONBONDED TABLE R-SQUARED SPACING: 0.0625
Info: NONBONDED TABLE SIZE: 705 POINTS
TCL: Running for 1500000 steps
ETITLE: TS BOND ANGLE DIHED IMPRP ELECT VDW BOUNDARY MISC KINETIC TOTAL TEMP POTENTIAL TOTALAVG TEMPAVG PRESSURE GPRESSURE VOLUME PRESSAVG GPRESSAVG
ENERGY: 0 1.6152 5.9145 1.3147 0.0000 -10550.9523 1406.4349 0.0000 0.0000 1707.0563 -7428.6168 292.6848 -9135.6730 -7428.6168 292.6848 -268.0637 -200.7232 30515.9567 -268.0637 -200.7232
ENERGY: 300000 1.3277 6.1728 4.2681 0.0000 -10675.6249 1494.2305 0.0000 0.0000 1792.8414 -7376.7845 307.3931 -9169.6259 -7418.3074 298.1835 378.0774 432.3964 30458.6809 108.7887 189.7106
ENERGY: 600000 3.5323 4.2522 1.9319 0.0000 -10561.8300 1407.1314 0.0000 0.0000 1780.4713 -7364.5109 305.2722 -9144.9822 -7421.0267 301.2276 -341.4284 -285.1847 30560.0801 -88.9607 -18.0917
ENERGY: 900000 2.3111 5.6520 2.5258 0.0000 -10673.6336 1472.8138 0.0000 0.0000 1751.2819 -7439.0489 300.2675 -9190.3308 -7424.4088 300.4296 265.3196 272.3841 30312.5624 7.0429 65.7412
ENERGY: 1200000 2.7123 2.5569 4.1384 0.0000 -10531.4663 1391.1820 0.0000 0.0000 1785.2389 -7345.6377 306.0896 -9130.8767 -7411.9161 300.7778 -276.5068 -231.6647 30599.8714 -20.0875 32.9101
ENERGY: 1500000 1.8586 5.4597 0.8809 0.0000 -10674.8051 1455.9575 0.0000 0.0000 1778.1465 -7432.5019 304.8736 -9210.6484 -7412.0992 301.0377 457.6902 432.7234 29816.6865 7.9850 58.1448
TCL: Running FEP window  15: Lambda1 0.7000000000000001 Lambda2 0.7500000000000001 [dLambda 0.050000000000000044]
TCL: Setting parameter firsttimestep to 0
TCL: Setting parameter alchLambda to 0.7000000000000001
Info: NONBONDED TABLE R-SQUARED SPACING: 0.0625
Info: NONBONDED TABLE SIZE: 705 POINTS
TCL: Setting parameter alchLambda2 to 0.7500000000000001
Info: NONBONDED TABLE R-SQUARED SPACING: 0.0625
Info: NONBONDED TABLE SIZE: 705 POINTS
TCL: Running for 1500000 steps
ETITLE: TS BOND ANGLE DIHED IMPRP ELECT VDW BOUNDARY MISC KINETIC TOTAL TEMP POTENTIAL TOTALAVG TEMPAVG PRESSURE GPRESSURE VOLUME PRESSAVG GPRESSAVG
ENERGY: 0 1.8586 5.4597 0.8809 0.0000 -10675.0457 1456.6427 0.0000 0.0000 1777.3028 -7432.9010 304.7289 -9210.2038 -7432.9010 304.7289 365.2285 447.1769 29816.6865 365.2285 447.1769
ENERGY: 300000 1.3962 4.8024 1.5300 0.0000 -10564.3960 1360.2866 0.0000 0.0000 1774.5277 -7421.8531 304.2531 -9196.3808 -7409.3988 303.3594 -447.4094 -385.1452 30052.4435 51.6864 114.0965
ENERGY: 600000 5.1514 7.3556 1.4397 0.0000 -10753.5408 1575.3020 0.0000 0.0000 1726.2018 -7438.0902 295.9674 -9164.2921 -7431.3395 300.2780 1487.4030 1564.8285 29530.1821 150.5990 229.2503
ENERGY: 900000 1.4469 4.5605 3.5176 0.0000 -10579.4070 1453.4183 0.0000 0.0000 1699.2267 -7417.2369 291.3423 -9116.4637 -7429.4201 298.9099 347.7726 364.1957 30020.6025 34.3692 104.3580
ENERGY: 1200000 1.4047 4.5707 2.8994 0.0000 -10675.9692 1509.9786 0.0000 0.0000 1687.1635 -7469.9522 289.2740 -9157.1157 -7433.4504 298.3154 843.7431 847.4308 29808.9330 134.4153 194.2331
ENERGY: 1500000 2.5167 6.4948 3.3069 0.0000 -10321.2195 1240.3693 0.0000 0.0000 1756.3097 -7312.2221 301.1295 -9068.5317 -7420.8125 298.0091 -1283.4525 -1230.2751 30434.9832 2.5586 58.1731
TCL: Running FEP window  16: Lambda1 0.7500000000000001 Lambda2 0.8000000000000002 [dLambda 0.050000000000000044]
TCL: Setting parameter firsttimestep to 0
TCL: Setting parameter alchLambda to 0.7500000000000001
Info: NONBONDED TABLE R-SQUARED SPACING: 0.0625
Info: NONBONDED TABLE SIZE: 705 POINTS
TCL: Setting parameter alchLambda2 to 0.8000000000000002
Info: NONBONDED TABLE R-SQUARED SPACING: 0.0625
Info: NONBONDED TABLE SIZE: 705 POINTS
TCL: Running for 1500000 steps
ETITLE: TS BOND ANGLE DIHED IMPRP ELECT VDW BOUNDARY MISC KINETIC TOTAL TEMP POTENTIAL TOTALAVG TEMPAVG PRESSURE GPRESSURE VOLUME PRESSAVG GPRESSAVG
ENERGY: 0 2.5167 6.4948 3.3069 0.0000 -10321.5170 1241.3878 0.0000 0.0000 1755.4679 -7312.3429 300.9852 -9067.8108 -7312.3429 300.9852 -1290.0732 -1209.4559 30434.9832 -1290.0732 -1209.4559
ENERGY: 300000 2.9820 7.6751 4.1423 0.0000 -10615.3868 1476.8021 0.0000 0.0000 1765.4694 -7358.3160 302.7000 -9123.7854 -7369.8202 302.3720 190.4918 278.1436 30462.4081 -527.4410 -458.2717
ENERGY: 600000 2.7415 6.4653 1.5418 0.0000 -10619.0393 1435.7167 0.0000 0.0000 1751.3702 -7421.2037 300.2827 -9172.5739 -7386.0748 302.3546 313.7252 388.9162 30035.2033 -239.5074 -175.0008
ENERGY: 900000 1.7920 4.9348 2.5821 0.0000 -10662.7282 1464.7044 0.0000 0.0000 1775.3933 -7413.3217 304.4015 -9188.7149 -7392.7223 302.4026 138.6621 188.3187 30361.5249 -117.9739 -56.7622
ENERGY: 1200000 2.0193 2.5274 1.6643 0.0000 -10458.7900 1363.8705 0.0000 0.0000 1761.5160 -7327.1925 302.0222 -9088.7085 -7393.3429 302.2439 -461.4779 -393.6420 30309.5545 -160.5244 -97.5177
ENERGY: 1500000 2.5441 4.3481 2.6720 0.0000 -10600.3168 1483.6256 0.0000 0.0000 1752.0694 -7355.0576 300.4025 -9107.1271 -7392.7532 301.9770 543.8687 598.7233 30386.9355 -148.0949 -80.9793
TCL: Running FEP window  17: Lambda1 0.8000000000000002 Lambda2 0.8500000000000002 [dLambda 0.050000000000000044]
TCL: Setting parameter firsttimestep to 0
TCL: Setting parameter alchLambda to 0.8000000000000002
Info: NONBONDED TABLE R-SQUARED SPACING: 0.0625
Info: NONBONDED TABLE SIZE: 705 POINTS
TCL: Setting parameter alchLambda2 to 0.8500000000000002
Info: NONBONDED TABLE R-SQUARED SPACING: 0.0625
Info: NONBONDED TABLE SIZE: 705 POINTS
TCL: Running for 1500000 steps
ETITLE: TS BOND ANGLE DIHED IMPRP ELECT VDW BOUNDARY MISC KINETIC TOTAL TEMP POTENTIAL TOTALAVG TEMPAVG PRESSURE GPRESSURE VOLUME PRESSAVG GPRESSAVG
ENERGY: 0 2.5441 4.3481 2.6720 0.0000 -10601.1940 1483.6075 0.0000 0.0000 1751.2060 -7356.8163 300.2545 -9108.0223 -7356.8163 300.2545 522.3621 609.9932 30386.9355 522.3621 609.9932
ENERGY: 300000 0.3834 5.9285 3.3177 0.0000 -10555.8678 1423.6437 0.0000 0.0000 1709.0321 -7413.5624 293.0235 -9122.5945 -7430.7367 296.0534 143.4060 241.2390 30233.7826 50.1317 153.2874
ENERGY: 600000 4.8019 3.4609 2.4383 0.0000 -10656.9357 1450.8714 0.0000 0.0000 1680.1835 -7515.1798 288.0773 -9195.3633 -7435.5495 296.1860 143.7192 177.3111 29956.9505 154.6510 223.8571
ENERGY: 900000 3.0074 2.3606 2.3323 0.0000 -10625.0215 1491.8258 0.0000 0.0000 1762.7224 -7362.7731 302.2291 -9125.4955 -7431.7274 297.0934 460.9217 543.4008 30453.5443 235.4809 301.2625
ENERGY: 1200000 2.9687 4.6088 2.3714 0.0000 -10779.3255 1559.5314 0.0000 0.0000 1802.4949 -7407.3502 309.0483 -9209.8451 -7434.1482 297.9158 1217.9045 1286.9487 29642.2405 351.0642 415.0244
ENERGY: 1500000 2.4201 2.9649 2.4537 0.0000 -10419.6889 1375.7310 0.0000 0.0000 1783.1251 -7252.9941 305.7272 -9036.1192 -7425.8031 299.5033 -412.4858 -311.2892 31075.8687 302.0247 367.7300
TCL: Running FEP window  18: Lambda1 0.8500000000000002 Lambda2 0.9000000000000002 [dLambda 0.050000000000000044]
TCL: Setting parameter firsttimestep to 0
TCL: Setting parameter alchLambda to 0.8500000000000002
Info: NONBONDED TABLE R-SQUARED SPACING: 0.0625
Info: NONBONDED TABLE SIZE: 705 POINTS
TCL: Setting parameter alchLambda2 to 0.9000000000000002
Info: NONBONDED TABLE R-SQUARED SPACING: 0.0625
Info: NONBONDED TABLE SIZE: 705 POINTS
TCL: Running for 1500000 steps
ETITLE: TS BOND ANGLE DIHED IMPRP ELECT VDW BOUNDARY MISC KINETIC TOTAL TEMP POTENTIAL TOTALAVG TEMPAVG PRESSURE GPRESSURE VOLUME PRESSAVG GPRESSAVG
ENERGY: 0 2.4201 2.9649 2.4537 0.0000 -10420.2480 1377.0656 0.0000 0.0000 1782.2455 -7253.0982 305.5764 -9035.3437 -7253.0982 305.5764 -368.0764 -282.9959 31075.8687 -368.0764 -282.9959
ENERGY: 300000 1.8258 3.3162 2.6790 0.0000 -10650.0312 1451.2767 0.0000 0.0000 1763.3397 -7427.5937 302.3349 -9190.9334 -7406.0730 298.2908 181.4841 267.2768 30193.8893 -237.1258 -156.8476
ENERGY: 600000 1.7547 2.4337 1.5633 0.0000 -10596.0574 1389.8996 0.0000 0.0000 1715.8897 -7484.5164 294.1993 -9200.4061 -7399.4493 299.3214 -131.6360 -29.2515 29733.7075 -44.4475 29.8325
ENERGY: 900000 4.4196 3.4410 3.4074 0.0000 -10448.3182 1333.1780 0.0000 0.0000 1798.4934 -7305.3789 308.3622 -9103.8722 -7378.8273 301.4734 -617.2497 -485.1141 30338.3283 -163.4088 -87.8462
ENERGY: 1200000 2.2425 7.7557 6.0678 0.0000 -10758.0684 1491.9220 0.0000 0.0000 1744.7607 -7505.3196 299.1494 -9250.0804 -7407.3117 300.8391 538.5171 609.3575 29693.3103 -123.8110 -56.9167
ENERGY: 1500000 2.8067 2.2493 4.2529 0.0000 -10800.7535 1506.9772 0.0000 0.0000 1702.4888 -7581.9785 291.9017 -9284.4673 -7420.1941 299.9246 150.2252 251.9082 30185.0835 -107.5725 -33.7540
TCL: Running FEP window  19: Lambda1 0.9000000000000002 Lambda2 0.9500000000000003 [dLambda 0.050000000000000044]
TCL: Setting parameter firsttimestep to 0
TCL: Setting parameter alchLambda to 0.9000000000000002
Info: NONBONDED TABLE R-SQUARED SPACING: 0.0625
Info: NONBONDED TABLE SIZE: 705 POINTS
TCL: Setting parameter alchLambda2 to 0.9500000000000003
Info: NONBONDED TABLE R-SQUARED SPACING: 0.0625
Info: NONBONDED TABLE SIZE: 705 POINTS
TCL: Running for 1500000 steps
ETITLE: TS BOND ANGLE DIHED IMPRP ELECT VDW BOUNDARY MISC KINETIC TOTAL TEMP POTENTIAL TOTALAVG TEMPAVG PRESSURE GPRESSURE VOLUME PRESSAVG GPRESSAVG
ENERGY: 0 2.8067 2.2493 4.2529 0.0000 -10801.0235 1506.9792 0.0000 0.0000 1701.6322 -7583.1031 291.7548 -9284.7354 -7583.1031 291.7548 182.6092 263.4288 30185.0835 182.6092 263.4288
ENERGY: 300000 2.6327 1.6844 2.6798 0.0000 -10667.7871 1435.9556 0.0000 0.0000 1769.0237 -7455.8109 303.3095 -9224.8346 -7471.3332 297.9686 65.4328 91.4964 29836.2460 -199.4637 -130.3500
ENERGY: 600000 2.6831 4.3962 1.2374 0.0000 -10601.1759 1394.5719 0.0000 0.0000 1720.3463 -7477.9410 294.9634 -9198.2874 -7464.7748 297.7928 -317.0336 -299.7557 30219.0223 -255.8892 -203.4173
ENERGY: 900000 0.9157 4.8510 1.5218 0.0000 -10550.0100 1386.3302 0.0000 0.0000 1736.3118 -7420.0794 297.7008 -9156.3913 -7448.1289 297.8999 -116.0181 -79.1483 30121.6919 -226.6043 -180.0064
ENERGY: 1200000 2.8135 4.9560 2.6222 0.0000 -10601.0265 1416.1689 0.0000 0.0000 1785.3958 -7389.0701 306.1165 -9174.4659 -7447.3690 298.2245 -325.8264 -250.2157 30539.6235 -182.1667 -130.4654
ENERGY: 1500000 3.7620 5.7446 3.2798 0.0000 -10614.8534 1485.7333 0.0000 0.0000 1723.0574 -7393.2762 295.4283 -9116.3336 -7432.6736 298.5657 576.6825 651.1236 30345.8689 -103.2215 -52.9391
TCL: Running FEP window  20: Lambda1 0.9500000000000003 Lambda2 1.0    [dLambda 0.04999999999999971]
TCL: Setting parameter firsttimestep to 0
TCL: Setting parameter alchLambda to 0.9500000000000003
Info: NONBONDED TABLE R-SQUARED SPACING: 0.0625
Info: NONBONDED TABLE SIZE: 705 POINTS
TCL: Setting parameter alchLambda2 to 1.0
Info: NONBONDED TABLE R-SQUARED SPACING: 0.0625
Info: NONBONDED TABLE SIZE: 705 POINTS
TCL: Running for 1500000 steps
ETITLE: TS BOND ANGLE DIHED IMPRP ELECT VDW BOUNDARY MISC KINETIC TOTAL TEMP POTENTIAL TOTALAVG TEMPAVG PRESSURE GPRESSURE VOLUME PRESSAVG GPRESSAVG
ENERGY: 0 3.7620 5.7446 3.2798 0.0000 -10615.7407 1485.6193 0.0000 0.0000 1722.2007 -7395.1342 295.2814 -9117.3350 -7395.1342 295.2814 580.5161 659.3457 30345.8689 580.5161 659.3457
ENERGY: 300000 2.1853 3.9143 0.7922 0.0000 -10383.3980 1248.9108 0.0000 0.0000 1738.0374 -7389.5580 297.9967 -9127.5954 -7409.1055 297.9133 -1183.9592 -1172.1342 30423.2018 -134.7734 -54.4981
ENERGY: 600000 0.9005 5.9027 2.6709 0.0000 -10437.5918 1280.1699 0.0000 0.0000 1717.9486 -7429.9993 294.5523 -9147.9479 -7418.5758 296.8902 -1099.2539 -1041.7268 30402.6359 -143.0596 -73.7423
ENERGY: 900000 2.0443 5.9866 3.1091 0.0000 -10644.0591 1419.3788 0.0000 0.0000 1785.3085 -7428.2317 306.1016 -9213.5403 -7436.2169 297.8738 -140.7527 8.3601 30091.6845 -97.7362 -23.8065
ENERGY: 1200000 1.8955 4.9260 3.7454 0.0000 -10572.6320 1400.4376 0.0000 0.0000 1745.5870 -7416.0406 299.2911 -9161.6275 -7432.9624 298.0116 56.4623 47.3155 30212.9335 -90.8485 -24.2752
ENERGY: 1500000 2.1098 3.1891 2.3149 0.0000 -10493.0367 1344.2275 0.0000 0.0000 1747.3158 -7393.8796 299.5875 -9141.1954 -7423.9551 298.8725 -586.6918 -542.9495 30311.3633 -154.4959 -90.0091
TCL: Exiting due to exit command.
