Info: SIMULATION PARAMETERS:
Info: TIMESTEP               2
Info: NUMBER OF STEPS        0
Info: STEPS PER CYCLE        10
Info: PERIODIC CELL BASIS 1  30.1408 0 0
Info: PERIODIC CELL BASIS 2  0 33.3032 0
Info: PERIODIC CELL BASIS 3  0 0 30.7991
Info: PERIODIC CELL CENTER   0 0 0
Info: WRAPPING WATERS AROUND PERIODIC BOUNDARIES ON OUTPUT.
Info: WRAPPING ALL CLUSTERS AROUND PERIODIC BOUNDARIES ON OUTPUT.
Info: FIRST LDB TIMESTEP     50
Info: LAST LDB TIMESTEP     -1
Info: HOM BACKGROUND SCALING 1
Info: PME BACKGROUND SCALING 1
Info: MIN ATOMS PER PATCH    40
Info: EMPTY PATCH LOAD       40 ATOMS
Info: VELOCITY FILE          mobley_3414356_equil.vel
Info: CENTER OF MASS MOVING INITIALLY? NO
Info: DIELECTRIC             1
Info: EXCLUDE                SCALED ONE-FOUR
Info: 1-4 ELECTROSTATICS SCALED BY 0.833333
Info: MODIFIED 1-4 VDW PARAMETERS WILL BE USED
Info: DCD FILENAME           mobley_3414356_prod.dcd
Info: DCD FREQUENCY          100000
Info: DCD FIRST STEP         100000
Info: DCD FILE WILL CONTAIN UNIT CELL DATA
Info: XST FILENAME           mobley_3414356_prod.xst
Info: XST FREQUENCY          100000
Info: NO VELOCITY DCD OUTPUT
Info: NO FORCE DCD OUTPUT
Info: OUTPUT FILENAME        mobley_3414356_prod
Info: BINARY OUTPUT FILES WILL BE USED
Info: RESTART FILENAME       mobley_3414356_prod.restart
Info: RESTART FREQUENCY      100000
Info: BINARY RESTART FILES WILL BE USED
Info: CUTOFF                 9
Info: PAIRLIST DISTANCE      11
Info: PAIRLIST SHRINK RATE   0.01
Info: PAIRLIST GROW RATE     0.01
Info: PAIRLIST TRIGGER       0.3
Info: PAIRLISTS PER CYCLE    2
Info: PAIRLISTS ENABLED
Info: MARGIN                 2
Info: HYDROGEN GROUP CUTOFF  2.5
Info: PATCH DIMENSION        15.5
Info: ENERGY OUTPUT STEPS    100000
Info: ENERGY EVALUATION STEPS    100000
Info: OUTPUT ENERGY PRECISION 4
Info: CROSSTERM ENERGY INCLUDED IN DIHEDRAL
Info: TIMING OUTPUT STEPS    1000000
Info: PRESSURE OUTPUT STEPS  100000
Info: ALCHEMICAL FEP ON
Info: FEP CURRENT LAMBDA VALUE     0
Info: FEP COMPARISON LAMBDA VALUE  0.05
Info: FEP INTRA-ALCHEMICAL NON-BONDED INTERACTIONS WILL BE RETAINED
Info: FEP INTRA-ALCHEMICAL BONDED INTERACTIONS WILL BE RETAINED
Info: FEP VDW SHIFTING COEFFICIENT 5
Info: FEP ELEC. ACTIVE FOR ANNIHILATED PARTICLES BETWEEN LAMBDA = 0 AND LAMBDA = 0.5
Info: FEP ELEC. ACTIVE FOR EXNIHILATED PARTICLES BETWEEN LAMBDA = 0.5 AND LAMBDA = 1
Info: FEP VDW ACTIVE FOR ANNIHILATED PARTICLES BETWEEN LAMBDA = 0 AND LAMBDA = 1
Info: FEP VDW ACTIVE FOR EXNIHILATED PARTICLES BETWEEN LAMBDA = 0 AND LAMBDA = 1
Info: FEP BOND ACTIVE FOR ANNIHILATED PARTICLES BETWEEN LAMBDA = 1 AND LAMBDA = 1
Info: FEP BOND ACTIVE FOR EXNIHILATED PARTICLES BETWEEN LAMBDA = 0 AND LAMBDA = 0
Info: LANGEVIN DYNAMICS ACTIVE
Info: LANGEVIN TEMPERATURE   300
Info: LANGEVIN USING BBK INTEGRATOR
Info: LANGEVIN DAMPING COEFFICIENT IS 1 INVERSE PS
Info: LANGEVIN DYNAMICS APPLIED TO HYDROGENS
Info: LANGEVIN PISTON PRESSURE CONTROL ACTIVE
Info:        TARGET PRESSURE IS 1.01325 BAR
Info:     OSCILLATION PERIOD IS 50 FS
Info:             DECAY TIME IS 25 FS
Info:     PISTON TEMPERATURE IS 300 K
Info:       PRESSURE CONTROL IS GROUP-BASED
Info:    INITIAL STRAIN RATE IS 0.000226623 0.000226623 0.000226623
Info:       CELL FLUCTUATION IS ISOTROPIC
Info: PARTICLE MESH EWALD (PME) ACTIVE
Info: PME TOLERANCE               1e-06
Info: PME EWALD COEFFICIENT       0.348832
Info: PME INTERPOLATION ORDER     4
Info: PME GRID DIMENSIONS         32 36 32
Info: PME MAXIMUM GRID SPACING    1
Info: PME CALCULATION WILL BE PERFORMED ON GPU
Info: FULL ELECTROSTATIC EVALUATION FREQUENCY      2
Info: USING VERLET I (r-RESPA) MTS SCHEME.
Info: C1 SPLITTING OF LONG RANGE ELECTROSTATICS
Info: PLACING ATOMS IN PATCHES BY HYDROGEN GROUPS
Info: RIGID BONDS TO HYDROGEN : ALL
Info:         ERROR TOLERANCE : 1e-08
Info:          MAX ITERATIONS : 100
Info: RIGID WATER USING SETTLE ALGORITHM
Info: RANDOM NUMBER SEED     1743865058
Info: USE HYDROGEN BONDS?    NO
Info: Using AMBER format force field!
Info: AMBER PARM FILE        mobley_3414356.prmtop
Info: COORDINATE PDB         mobley_3414356.pdb
Info: Exclusions will be read from PARM file!
Info: SCNB (VDW SCALING)     2
Info: USING ARITHMETIC MEAN TO COMBINE L-J SIGMA PARAMETERS
Info: BINARY COORDINATES     mobley_3414356_equil.coor
Info: SUMMARY OF PARAMETERS:
Info: 6 BONDS
Info: 5 ANGLES
Info:   5 HARMONIC
Info:   0 COSINE-BASED
Info: 8 DIHEDRAL
Info: 0 IMPROPER
Info: 0 CROSSTERM
Info: 0 VDW
Info: 15 VDW_PAIRS
Info: 0 NBTHOLE_PAIRS
Info: To read alchdata from file: mobley_3414356.pdb
Info: To read alchflag data from column: 5
Info: STRUCTURE SUMMARY:
Info: 2970 ATOMS
Info: 2969 BONDS
Info: 37 ANGLES
Info: 65 DIHEDRALS
Info: 0 IMPROPERS
Info: 0 CROSSTERMS
Info: 3054 EXCLUSIONS
Info: 2963 RIGID BONDS
Info: ALCH: 0 ATOMS TO DISAPPEAR IN FINAL STATE
Info: ALCH: 21 ATOMS TO APPEAR IN FINAL STATE
Info: 5947 DEGREES OF FREEDOM
Info: 990 HYDROGEN GROUPS
Info: 4 ATOMS IN LARGEST HYDROGEN GROUP
Info: 990 MIGRATION GROUPS
Info: 4 ATOMS IN LARGEST MIGRATION GROUP
Info: TOTAL MASS = 17811.9 amu
Info: TOTAL CHARGE = 0.00029999 e
Info: MASS DENSITY = 0.956732 g/cm^3
Info: ATOM DENSITY = 0.0960677 atoms/A^3
Info: ADDED 0 IMPLICIT EXCLUSIONS
Info: NONBONDED TABLE R-SQUARED SPACING: 0.0625
Info: NONBONDED TABLE SIZE: 705 POINTS
Info: REMOVING COM VELOCITY 0.033849 -0.045906 0.0645543
Info: Use 3D box decompostion in PME FFT.
Info: Updated CUDA force table with 4096 elements.
Info: Updated CUDA LJ table with 5 x 5 elements.
Info: Found 24 unique exclusion lists needing 72 bytes
TCL: Running for 1500000 steps
ETITLE: TS BOND ANGLE DIHED IMPRP ELECT VDW BOUNDARY MISC KINETIC TOTAL TEMP POTENTIAL TOTALAVG TEMPAVG PRESSURE GPRESSURE VOLUME PRESSAVG GPRESSAVG
ENERGY: 0 2.2875 9.5375 5.9279 0.0000 -10641.0576 1392.6508 0.0000 0.0000 1792.9306 -7437.7232 303.4282 -9230.6539 -7437.7232 303.4282 -625.1039 -538.1103 30915.7106 -625.1039 -538.1103
ENERGY: 300000 1.3918 8.2305 5.4043 0.0000 -10721.2906 1515.3763 0.0000 0.0000 1764.1748 -7426.7128 298.5617 -9190.8876 -7481.1396 297.2202 770.0006 900.9539 30419.7612 -251.8376 -179.4511
ENERGY: 600000 2.9666 11.1082 4.8371 0.0000 -10815.9305 1501.1694 0.0000 0.0000 1780.7678 -7515.0813 301.3698 -9295.8491 -7477.3350 298.8888 145.5934 230.9586 30465.0692 -109.1194 -35.6779
ENERGY: 900000 2.9496 10.9580 5.7854 0.0000 -10761.4500 1482.8690 0.0000 0.0000 1764.9647 -7493.9233 298.6954 -9258.8880 -7504.2361 298.0842 374.5607 379.9892 30176.3956 -62.6902 2.9933
ENERGY: 1200000 1.2493 11.1351 5.1512 0.0000 -10792.8387 1437.1610 0.0000 0.0000 1851.2679 -7486.8743 313.3009 -9338.1422 -7501.8529 299.7799 -122.6266 -116.6302 30275.8552 -50.0084 2.6727
ENERGY: 1500000 2.4045 9.6285 5.8521 0.0000 -10693.7799 1373.3807 0.0000 0.0000 1759.8121 -7542.7019 297.8234 -9302.5140 -7507.4583 299.0113 -802.5550 -703.2211 30671.1686 -74.5860 -19.1781
TCL: Running FEP window   2: Lambda1 0.05   Lambda2 0.1    [dLambda 0.05  ]
TCL: Setting parameter firsttimestep to 0
TCL: Setting parameter alchLambda to 0.05
Info: NONBONDED TABLE R-SQUARED SPACING: 0.0625
Info: NONBONDED TABLE SIZE: 705 POINTS
TCL: Setting parameter alchLambda2 to 0.1
Info: NONBONDED TABLE R-SQUARED SPACING: 0.0625
Info: NONBONDED TABLE SIZE: 705 POINTS
TCL: Running for 1500000 steps
ETITLE: TS BOND ANGLE DIHED IMPRP ELECT VDW BOUNDARY MISC KINETIC TOTAL TEMP POTENTIAL TOTALAVG TEMPAVG PRESSURE GPRESSURE VOLUME PRESSAVG GPRESSAVG
ENERGY: 0 2.4045 9.6285 5.8521 0.0000 -10693.7788 1375.6169 0.0000 0.0000 1758.9474 -7541.3293 297.6770 -9300.2767 -7541.3293 297.6770 -769.1595 -696.4005 30671.1686 -769.1595 -696.4005
ENERGY: 300000 1.3686 10.3732 5.0797 0.0000 -10750.6549 1468.9449 0.0000 0.0000 1779.2162 -7485.6723 301.1072 -9264.8885 -7523.5446 299.1466 140.1796 254.7219 30412.0837 -18.2100 62.0939
ENERGY: 600000 1.7073 11.7491 4.8189 0.0000 -10751.7172 1419.7573 0.0000 0.0000 1747.0769 -7566.6077 295.6681 -9313.6847 -7518.1092 299.2041 -376.8728 -244.9854 30246.8678 -27.9799 56.7310
ENERGY: 900000 3.4041 8.9294 5.6097 0.0000 -10825.9051 1498.7392 0.0000 0.0000 1824.3951 -7484.8276 308.7531 -9309.2227 -7516.6349 300.9547 337.5521 433.3852 30212.0267 185.9791 273.2226
ENERGY: 1200000 1.1758 9.5675 5.6408 0.0000 -10657.5601 1398.2816 0.0000 0.0000 1783.8891 -7459.0053 301.8980 -9242.8943 -7511.4208 300.6343 -287.9136 -255.7532 30537.1074 88.0913 168.1121
ENERGY: 1500000 4.7634 11.6650 6.9756 0.0000 -10830.7655 1498.5475 0.0000 0.0000 1755.6488 -7553.1652 297.1188 -9308.8140 -7516.9814 299.7763 776.7451 762.2892 29703.0697 125.5777 204.7280
TCL: Running FEP window   3: Lambda1 0.1    Lambda2 0.15000000000000002 [dLambda 0.05000000000000002]
TCL: Setting parameter firsttimestep to 0
TCL: Setting parameter alchLambda to 0.1
Info: NONBONDED TABLE R-SQUARED SPACING: 0.0625
Info: NONBONDED TABLE SIZE: 705 POINTS
TCL: Setting parameter alchLambda2 to 0.15000000000000002
Info: NONBONDED TABLE R-SQUARED SPACING: 0.0625
Info: NONBONDED TABLE SIZE: 705 POINTS
TCL: Running for 1500000 steps
ETITLE: TS BOND ANGLE DIHED IMPRP ELECT VDW BOUNDARY MISC KINETIC TOTAL TEMP POTENTIAL TOTALAVG TEMPAVG PRESSURE GPRESSURE VOLUME PRESSAVG GPRESSAVG
ENERGY: 0 4.7634 11.6650 6.9756 0.0000 -10830.7655 1498.6079 0.0000 0.0000 1754.7663 -7553.9872 296.9694 -9308.7535 -7553.9872 296.9694 689.9864 763.5617 29703.0697 689.9864 763.5617
ENERGY: 300000 2.7150 10.7335 4.9045 0.0000 -10860.8186 1522.9180 0.0000 0.0000 1789.7327 -7529.8148 302.8870 -9319.5475 -7547.5434 298.4686 423.5978 533.7548 30396.9867 227.3751 307.9616
ENERGY: 600000 1.6722 16.0960 5.4070 0.0000 -10739.6157 1410.5012 0.0000 0.0000 1773.3832 -7532.5561 300.1201 -9305.9393 -7512.2718 298.2267 -405.8826 -276.4673 30089.8887 -74.2031 2.4426
ENERGY: 900000 1.9516 6.1500 7.0216 0.0000 -10704.5889 1497.4168 0.0000 0.0000 1673.9119 -7518.1370 283.2860 -9192.0489 -7510.2197 297.0071 326.1910 411.2379 30901.7673 -112.4308 -35.0977
ENERGY: 1200000 2.6660 10.1129 6.8429 0.0000 -10623.3344 1328.9464 0.0000 0.0000 1721.5412 -7553.2250 291.3465 -9274.7662 -7519.8883 296.5088 -1222.1157 -1138.4160 30667.2827 -216.2025 -143.5482
ENERGY: 1500000 1.4815 11.4524 5.1231 0.0000 -10676.3953 1333.0606 0.0000 0.0000 1754.6234 -7570.6543 296.9452 -9325.2777 -7525.5809 297.4361 -998.4134 -903.4030 30117.3337 -187.5583 -114.0556
TCL: Running FEP window   4: Lambda1 0.15000000000000002 Lambda2 0.2    [dLambda 0.04999999999999999]
TCL: Setting parameter firsttimestep to 0
TCL: Setting parameter alchLambda to 0.15000000000000002
Info: NONBONDED TABLE R-SQUARED SPACING: 0.0625
Info: NONBONDED TABLE SIZE: 705 POINTS
TCL: Setting parameter alchLambda2 to 0.2
Info: NONBONDED TABLE R-SQUARED SPACING: 0.0625
Info: NONBONDED TABLE SIZE: 705 POINTS
TCL: Running for 1500000 steps
ETITLE: TS BOND ANGLE DIHED IMPRP ELECT VDW BOUNDARY MISC KINETIC TOTAL TEMP POTENTIAL TOTALAVG TEMPAVG PRESSURE GPRESSURE VOLUME PRESSAVG GPRESSAVG
ENERGY: 0 1.4815 11.4524 5.1231 0.0000 -10676.3948 1333.2514 0.0000 0.0000 1753.7597 -7571.3267 296.7991 -9325.0865 -7571.3267 296.7991 -989.0397 -897.3260 30117.3337 -989.0397 -897.3260
ENERGY: 300000 2.9751 7.4104 5.4220 0.0000 -10836.1120 1491.2072 0.0000 0.0000 1798.3030 -7530.7943 304.3374 -9329.0973 -7561.0694 299.2064 323.6048 368.9796 30139.7035 124.2324 184.4787
ENERGY: 600000 2.1297 10.9038 4.9308 0.0000 -10839.6326 1477.2465 0.0000 0.0000 1778.9038 -7565.5181 301.0543 -9344.4218 -7540.5906 300.1240 166.3649 277.4742 29976.4703 29.5503 98.4874
ENERGY: 900000 3.5030 12.6129 6.7772 0.0000 -10747.5528 1480.4132 0.0000 0.0000 1778.4099 -7465.8366 300.9708 -9244.2465 -7522.2428 301.6451 534.7660 593.1633 30192.4091 -55.6730 16.3075
ENERGY: 1200000 1.6136 7.8239 4.9470 0.0000 -10778.1570 1455.7846 0.0000 0.0000 1750.7128 -7557.2751 296.2834 -9307.9879 -7541.5669 300.0272 165.4919 199.7792 30197.7597 -96.9477 -28.8774
ENERGY: 1500000 2.9033 9.9127 5.7920 0.0000 -10742.0147 1441.5829 0.0000 0.0000 1823.2314 -7458.5925 308.5562 -9281.8238 -7535.4111 300.8554 -461.7521 -318.3425 30777.2731 -121.7097 -45.4340
TCL: Running FEP window   5: Lambda1 0.2    Lambda2 0.25   [dLambda 0.04999999999999999]
TCL: Setting parameter firsttimestep to 0
TCL: Setting parameter alchLambda to 0.2
Info: NONBONDED TABLE R-SQUARED SPACING: 0.0625
Info: NONBONDED TABLE SIZE: 705 POINTS
TCL: Setting parameter alchLambda2 to 0.25
Info: NONBONDED TABLE R-SQUARED SPACING: 0.0625
Info: NONBONDED TABLE SIZE: 705 POINTS
TCL: Running for 1500000 steps
ETITLE: TS BOND ANGLE DIHED IMPRP ELECT VDW BOUNDARY MISC KINETIC TOTAL TEMP POTENTIAL TOTALAVG TEMPAVG PRESSURE GPRESSURE VOLUME PRESSAVG GPRESSAVG
ENERGY: 0 2.9033 9.9127 5.7920 0.0000 -10742.0132 1442.0101 0.0000 0.0000 1822.3580 -7459.0372 308.4084 -9281.3952 -7459.0372 308.4084 -370.7733 -309.3326 30777.2731 -370.7733 -309.3326
ENERGY: 300000 3.1497 11.2774 5.3266 0.0000 -10704.0287 1383.5749 0.0000 0.0000 1759.5328 -7541.1674 297.7761 -9300.7002 -7506.6038 300.0242 -587.1792 -494.1091 30367.3886 -222.1656 -171.7790
ENERGY: 600000 1.6210 10.2624 5.5401 0.0000 -10827.4384 1491.5491 0.0000 0.0000 1812.5838 -7505.8822 306.7542 -9318.4659 -7501.5386 300.8764 -16.5085 133.4274 30759.9749 -234.2238 -162.7544
ENERGY: 900000 2.0046 12.1747 6.7295 0.0000 -10754.9820 1396.8502 0.0000 0.0000 1781.7650 -7555.4581 301.5386 -9337.2231 -7511.0408 299.7523 -542.8349 -445.1149 30472.9884 -134.0869 -55.1866
ENERGY: 1200000 0.7692 9.5276 4.5091 0.0000 -10776.6200 1492.2379 0.0000 0.0000 1819.3457 -7450.2304 307.8986 -9269.5762 -7504.7730 300.6686 399.3770 543.7865 30445.0471 -44.1801 39.1520
ENERGY: 1500000 0.5382 11.8310 5.8386 0.0000 -10689.0029 1331.8670 0.0000 0.0000 1741.8756 -7597.0526 294.7878 -9338.9282 -7511.0777 300.9615 -1118.1049 -1016.0807 30341.8255 -96.1393 -12.3692
TCL: Running FEP window   6: Lambda1 0.25   Lambda2 0.3    [dLambda 0.04999999999999999]
TCL: Setting parameter firsttimestep to 0
TCL: Setting parameter alchLambda to 0.25
Info: NONBONDED TABLE R-SQUARED SPACING: 0.0625
Info: NONBONDED TABLE SIZE: 705 POINTS
TCL: Setting parameter alchLambda2 to 0.3
Info: NONBONDED TABLE R-SQUARED SPACING: 0.0625
Info: NONBONDED TABLE SIZE: 705 POINTS
TCL: Running for 1500000 steps
ETITLE: TS BOND ANGLE DIHED IMPRP ELECT VDW BOUNDARY MISC KINETIC TOTAL TEMP POTENTIAL TOTALAVG TEMPAVG PRESSURE GPRESSURE VOLUME PRESSAVG GPRESSAVG
ENERGY: 0 0.5382 11.8310 5.8386 0.0000 -10689.0041 1331.7264 0.0000 0.0000 1740.9872 -7598.0828 294.6375 -9339.0699 -7598.0828 294.6375 -1104.9302 -1011.2990 30341.8255 -1104.9302 -1011.2990
ENERGY: 300000 1.9047 8.9828 5.2435 0.0000 -10746.2375 1474.9064 0.0000 0.0000 1825.7059 -7429.4942 308.9750 -9255.2002 -7533.7782 298.1359 139.5641 201.0820 30744.0647 -612.8740 -543.7418
ENERGY: 600000 0.6591 6.9250 4.5456 0.0000 -10763.1906 1452.5484 0.0000 0.0000 1807.8934 -7490.6191 305.9604 -9298.5125 -7514.8767 298.0402 34.5559 65.9134 30412.4827 -315.5879 -253.6607
ENERGY: 900000 2.2940 7.8960 5.4252 0.0000 -10785.1087 1466.5360 0.0000 0.0000 1761.6943 -7541.2633 298.1419 -9302.9575 -7510.5689 299.3410 176.1593 230.8123 30203.9571 -339.6468 -268.3683
ENERGY: 1200000 2.5748 10.4751 5.0374 0.0000 -10703.8344 1441.2901 0.0000 0.0000 1747.0076 -7497.4493 295.6564 -9244.4569 -7505.7400 299.2888 -23.3093 81.1501 30251.8101 -301.2498 -224.7382
ENERGY: 1500000 0.9913 11.1247 5.9429 0.0000 -10546.8098 1340.7198 0.0000 0.0000 1810.8953 -7377.1357 306.4685 -9188.0310 -7498.8061 299.2795 -603.9076 -569.9881 30551.1534 -300.7821 -226.7700
TCL: Running FEP window   7: Lambda1 0.3    Lambda2 0.35   [dLambda 0.04999999999999999]
TCL: Setting parameter firsttimestep to 0
TCL: Setting parameter alchLambda to 0.3
Info: NONBONDED TABLE R-SQUARED SPACING: 0.0625
Info: NONBONDED TABLE SIZE: 705 POINTS
TCL: Setting parameter alchLambda2 to 0.35
Info: NONBONDED TABLE R-SQUARED SPACING: 0.0625
Info: NONBONDED TABLE SIZE: 705 POINTS
TCL: Running for 1500000 steps
ETITLE: TS BOND ANGLE DIHED IMPRP ELECT VDW BOUNDARY MISC KINETIC TOTAL TEMP POTENTIAL TOTALAVG TEMPAVG PRESSURE GPRESSURE VOLUME PRESSAVG GPRESSAVG
ENERGY: 0 0.9913 11.1247 5.9429 0.0000 -10546.8094 1340.4072 0.0000 0.0000 1810.0095 -7378.3337 306.3186 -9188.3432 -7378.3337 306.3186 -653.2165 -567.0361 30551.1534 -653.2165 -567.0361
ENERGY: 300000 0.1898 11.5281 4.5444 0.0000 -10771.4420 1414.1145 0.0000 0.0000 1705.9230 -7635.1422 288.7034 -9341.0652 -7523.1629 298.8272 -356.2849 -273.1014 30273.4574 -35.2861 35.0965
ENERGY: 600000 1.5996 8.1939 4.9249 0.0000 -10773.4667 1414.7047 0.0000 0.0000 1794.2801 -7549.7634 303.6566 -9344.0435 -7538.5258 297.1503 -473.8581 -445.4247 30431.1508 -221.6880 -160.1267
ENERGY: 900000 1.5185 9.6081 6.4662 0.0000 -10706.6903 1438.1101 0.0000 0.0000 1733.3584 -7517.6290 293.3464 -9250.9874 -7534.6164 297.8882 -42.2223 -18.5852 30602.9569 -196.5616 -133.4891
ENERGY: 1200000 0.9596 11.5145 5.6815 0.0000 -10746.7701 1397.6063 0.0000 0.0000 1781.6613 -7549.3468 301.5210 -9331.0081 -7541.6822 298.3008 -335.2178 -305.7754 30523.9319 -227.1526 -171.1934
ENERGY: 1500000 1.5166 17.3307 4.6680 0.0000 -10608.7825 1315.7353 0.0000 0.0000 1804.1284 -7465.4035 305.3233 -9269.5319 -7536.4704 298.3601 -847.3282 -838.1990 30283.9212 -302.3880 -256.1885
TCL: Running FEP window   8: Lambda1 0.35   Lambda2 0.39999999999999997 [dLambda 0.04999999999999999]
TCL: Setting parameter firsttimestep to 0
TCL: Setting parameter alchLambda to 0.35
Info: NONBONDED TABLE R-SQUARED SPACING: 0.0625
Info: NONBONDED TABLE SIZE: 705 POINTS
TCL: Setting parameter alchLambda2 to 0.39999999999999997
Info: NONBONDED TABLE R-SQUARED SPACING: 0.0625
Info: NONBONDED TABLE SIZE: 705 POINTS
TCL: Running for 1500000 steps
ETITLE: TS BOND ANGLE DIHED IMPRP ELECT VDW BOUNDARY MISC KINETIC TOTAL TEMP POTENTIAL TOTALAVG TEMPAVG PRESSURE GPRESSURE VOLUME PRESSAVG GPRESSAVG
ENERGY: 0 1.5166 17.3307 4.6680 0.0000 -10608.7826 1315.6480 0.0000 0.0000 1803.2648 -7466.3546 305.1771 -9269.6194 -7466.3546 305.1771 -910.2733 -831.4923 30283.9212 -910.2733 -831.4923
ENERGY: 300000 2.0221 12.1352 5.4298 0.0000 -10815.4951 1498.5359 0.0000 0.0000 1771.7887 -7525.5833 299.8502 -9297.3720 -7555.3862 299.5560 500.5018 587.3802 30117.7767 13.7785 96.4281
ENERGY: 600000 1.3289 6.3549 4.8081 0.0000 -10674.8350 1438.1913 0.0000 0.0000 1789.2215 -7434.9302 302.8005 -9224.1517 -7508.1927 301.3279 165.4745 209.7779 30448.0062 68.5647 132.7624
ENERGY: 900000 2.1372 11.6522 5.1013 0.0000 -10755.1411 1444.8339 0.0000 0.0000 1822.9891 -7468.4276 308.5152 -9291.4167 -7512.8126 301.4711 218.5499 277.0964 30409.3467 95.3246 155.3142
ENERGY: 1200000 0.4793 8.0766 7.9393 0.0000 -10698.8707 1403.2781 0.0000 0.0000 1782.1646 -7496.9328 301.6062 -9279.0974 -7510.5168 301.0171 -499.2671 -448.0251 30965.0863 67.0381 125.0735
ENERGY: 1500000 1.4832 9.1741 4.9328 0.0000 -10726.9590 1470.2963 0.0000 0.0000 1753.8550 -7487.2177 296.8152 -9241.0727 -7509.7091 300.5622 229.5362 293.1572 30317.1227 62.8865 117.9027
TCL: Running FEP window   9: Lambda1 0.39999999999999997 Lambda2 0.44999999999999996 [dLambda 0.04999999999999999]
TCL: Setting parameter firsttimestep to 0
TCL: Setting parameter alchLambda to 0.39999999999999997
Info: NONBONDED TABLE R-SQUARED SPACING: 0.0625
Info: NONBONDED TABLE SIZE: 705 POINTS
TCL: Setting parameter alchLambda2 to 0.44999999999999996
Info: NONBONDED TABLE R-SQUARED SPACING: 0.0625
Info: NONBONDED TABLE SIZE: 705 POINTS
TCL: Running for 1500000 steps
ETITLE: TS BOND ANGLE DIHED IMPRP ELECT VDW BOUNDARY MISC KINETIC TOTAL TEMP POTENTIAL TOTALAVG TEMPAVG PRESSURE GPRESSURE VOLUME PRESSAVG GPRESSAVG
ENERGY: 0 1.4832 9.1740 4.9328 0.0000 -10726.9582 1470.6843 0.0000 0.0000 1753.0051 -7487.6787 296.6714 -9240.6838 -7487.6787 296.6714 207.5460 301.1592 30317.1227 207.5460 301.1592
ENERGY: 300000 0.5844 7.3655 6.2941 0.0000 -10674.4746 1426.5338 0.0000 0.0000 1797.5844 -7436.1123 304.2158 -9233.6967 -7457.7800 304.2249 126.4953 145.1720 30313.0555 30.7667 79.1944
ENERGY: 600000 1.5460 14.6201 5.0663 0.0000 -10821.5874 1504.6926 0.0000 0.0000 1774.3050 -7521.3574 300.2761 -9295.6624 -7495.6499 302.6714 288.4726 373.0485 30517.2000 135.3673 178.8854
ENERGY: 900000 1.7022 11.2686 6.2663 0.0000 -10825.5683 1474.3086 0.0000 0.0000 1812.0254 -7519.9972 306.6597 -9332.0227 -7501.1686 302.7986 93.3433 122.3457 30466.8082 62.7733 103.5718
ENERGY: 1200000 2.3865 11.6225 6.3977 0.0000 -10726.4686 1427.9067 0.0000 0.0000 1720.0902 -7558.0650 291.1010 -9278.1552 -7511.2288 301.0538 -122.3820 -74.1109 30304.8927 0.9154 44.4754
ENERGY: 1500000 1.8334 9.5604 4.9863 0.0000 -10956.7585 1610.8065 0.0000 0.0000 1768.8282 -7560.7438 299.3492 -9329.5719 -7520.5995 299.9340 1685.7972 1696.5234 29747.9172 61.9128 100.8074
TCL: Running FEP window  10: Lambda1 0.44999999999999996 Lambda2 0.49999999999999994 [dLambda 0.04999999999999999]
TCL: Setting parameter firsttimestep to 0
TCL: Setting parameter alchLambda to 0.44999999999999996
Info: NONBONDED TABLE R-SQUARED SPACING: 0.0625
Info: NONBONDED TABLE SIZE: 705 POINTS
TCL: Setting parameter alchLambda2 to 0.49999999999999994
Info: NONBONDED TABLE R-SQUARED SPACING: 0.0625
Info: NONBONDED TABLE SIZE: 705 POINTS
TCL: Running for 1500000 steps
ETITLE: TS BOND ANGLE DIHED IMPRP ELECT VDW BOUNDARY MISC KINETIC TOTAL TEMP POTENTIAL TOTALAVG TEMPAVG PRESSURE GPRESSURE VOLUME PRESSAVG GPRESSAVG
ENERGY: 0 1.8334 9.5604 4.9863 0.0000 -10956.7589 1611.7083 0.0000 0.0000 1767.9226 -7560.7480 299.1959 -9328.6706 -7560.7480 299.1959 1631.3071 1710.9069 29747.9172 1631.3071 1710.9069
ENERGY: 300000 1.0575 11.6322 5.7944 0.0000 -10712.4005 1404.7805 0.0000 0.0000 1760.4931 -7528.6429 297.9386 -9289.1359 -7523.8776 301.8843 -376.4523 -268.9398 30490.2188 125.5879 186.0646
ENERGY: 600000 2.7317 8.5507 6.1730 0.0000 -10718.4844 1403.1031 0.0000 0.0000 1740.4438 -7557.4822 294.5455 -9297.9260 -7516.3356 300.8388 -503.6244 -425.2515 30496.2812 -54.8871 8.5945
ENERGY: 900000 0.8417 7.4906 5.3913 0.0000 -10686.1300 1332.8745 0.0000 0.0000 1782.1052 -7557.4266 301.5961 -9339.5318 -7523.7510 300.5586 -871.8658 -761.9778 30248.4196 -121.6877 -59.6256
ENERGY: 1200000 2.3829 8.0520 5.4031 0.0000 -10755.8616 1503.7730 0.0000 0.0000 1789.9334 -7446.3173 302.9210 -9236.2507 -7509.6200 300.6906 429.8845 532.1479 30593.4002 -53.9251 13.6993
ENERGY: 1500000 4.2650 9.4353 5.5953 0.0000 -10664.4248 1383.5949 0.0000 0.0000 1769.3973 -7492.1369 299.4455 -9261.5342 -7507.3374 300.9049 -442.9706 -392.1641 30534.2792 -12.3705 52.8945
TCL: Running FEP window  11: Lambda1 0.49999999999999994 Lambda2 0.5499999999999999 [dLambda 0.04999999999999999]
TCL: Setting parameter firsttimestep to 0
TCL: Setting parameter alchLambda to 0.49999999999999994
Info: NONBONDED TABLE R-SQUARED SPACING: 0.0625
Info: NONBONDED TABLE SIZE: 705 POINTS
TCL: Setting parameter alchLambda2 to 0.5499999999999999
Info: NONBONDED TABLE R-SQUARED SPACING: 0.0625
Info: NONBONDED TABLE SIZE: 705 POINTS
TCL: Running for 1500000 steps
ETITLE: TS BOND ANGLE DIHED IMPRP ELECT VDW BOUNDARY MISC KINETIC TOTAL TEMP POTENTIAL TOTALAVG TEMPAVG PRESSURE GPRESSURE VOLUME PRESSAVG GPRESSAVG
ENERGY: 0 4.2650 9.4353 5.5953 0.0000 -10664.4250 1383.8625 0.0000 0.0000 1768.4960 -7492.7708 299.2930 -9261.2668 -7492.7708 299.2930 -473.3503 -383.6063 30534.2792 -473.3503 -383.6063
ENERGY: 300000 1.9668 9.2204 6.3708 0.0000 -10840.4671 1498.5842 0.0000 0.0000 1773.1186 -7551.2063 300.0753 -9324.3249 -7513.9832 299.7575 438.2836 478.0905 30320.5368 -73.9979 -10.1919
ENERGY: 600000 1.5256 8.1916 5.2479 0.0000 -10610.4414 1330.6699 0.0000 0.0000 1781.4500 -7483.3565 301.4853 -9264.8065 -7505.8297 302.2776 -842.7913 -794.8520 30753.5870 -8.8582 62.1649
ENERGY: 900000 1.9410 13.2891 7.0617 0.0000 -10698.7980 1437.5983 0.0000 0.0000 1802.8896 -7436.0182 305.1136 -9238.9079 -7501.2499 301.9754 -63.2262 -2.9488 30754.2256 66.3639 138.5302
ENERGY: 1200000 2.9813 6.7662 4.1227 0.0000 -10671.8488 1386.1373 0.0000 0.0000 1770.3485 -7501.4928 299.6065 -9271.8413 -7504.9314 302.2054 -623.9183 -566.0263 31077.7902 74.8342 138.3379
ENERGY: 1500000 1.8666 5.1085 4.6771 0.0000 -10750.4337 1446.6573 0.0000 0.0000 1796.7744 -7495.3497 304.0787 -9292.1241 -7498.6358 302.1797 -192.6895 -75.9023 30817.5720 28.0740 89.9356
TCL: Running FEP window  12: Lambda1 0.5499999999999999 Lambda2 0.6    [dLambda 0.050000000000000044]
TCL: Setting parameter firsttimestep to 0
TCL: Setting parameter alchLambda to 0.5499999999999999
Info: NONBONDED TABLE R-SQUARED SPACING: 0.0625
Info: NONBONDED TABLE SIZE: 705 POINTS
TCL: Setting parameter alchLambda2 to 0.6
Info: NONBONDED TABLE R-SQUARED SPACING: 0.0625
Info: NONBONDED TABLE SIZE: 705 POINTS
TCL: Running for 1500000 steps
ETITLE: TS BOND ANGLE DIHED IMPRP ELECT VDW BOUNDARY MISC KINETIC TOTAL TEMP POTENTIAL TOTALAVG TEMPAVG PRESSURE GPRESSURE VOLUME PRESSAVG GPRESSAVG
ENERGY: 0 1.8666 5.1085 4.6771 0.0000 -10750.3084 1446.6702 0.0000 0.0000 1795.8814 -7496.1044 303.9276 -9291.9859 -7496.1044 303.9276 -164.2691 -68.4715 30817.5720 -164.2691 -68.4715
ENERGY: 300000 1.7226 10.9907 5.9899 0.0000 -10776.5037 1499.8944 0.0000 0.0000 1787.9528 -7469.9533 302.5858 -9257.9061 -7479.5296 303.9222 562.2636 596.6142 30601.8314 409.5099 463.4252
ENERGY: 600000 2.4478 8.9293 6.0091 0.0000 -10700.0889 1377.8980 0.0000 0.0000 1740.1296 -7564.6751 294.4924 -9304.8047 -7488.0818 301.1509 -609.1379 -568.7069 30706.1287 19.7885 73.3530
ENERGY: 900000 1.7858 9.8576 4.5600 0.0000 -10691.5729 1384.5923 0.0000 0.0000 1781.4623 -7509.3149 301.4873 -9290.7771 -7504.7873 300.5805 -624.2975 -597.9020 31018.8331 -23.3333 22.9065
ENERGY: 1200000 1.5669 8.7185 5.1192 0.0000 -10855.1324 1481.0816 0.0000 0.0000 1778.7232 -7579.9229 301.0238 -9358.6461 -7505.6384 300.1334 195.7166 284.0086 30148.0213 56.3495 109.8086
ENERGY: 1500000 0.2494 13.8378 5.8767 0.0000 -10643.5134 1372.1601 0.0000 0.0000 1782.9092 -7468.4801 301.7322 -9251.3893 -7496.6777 300.6225 -711.0455 -658.1213 31122.4460 2.0876 59.2613
TCL: Running FEP window  13: Lambda1 0.6    Lambda2 0.65   [dLambda 0.050000000000000044]
TCL: Setting parameter firsttimestep to 0
TCL: Setting parameter alchLambda to 0.6
Info: NONBONDED TABLE R-SQUARED SPACING: 0.0625
Info: NONBONDED TABLE SIZE: 705 POINTS
TCL: Setting parameter alchLambda2 to 0.65
Info: NONBONDED TABLE R-SQUARED SPACING: 0.0625
Info: NONBONDED TABLE SIZE: 705 POINTS
TCL: Running for 1500000 steps
ETITLE: TS BOND ANGLE DIHED IMPRP ELECT VDW BOUNDARY MISC KINETIC TOTAL TEMP POTENTIAL TOTALAVG TEMPAVG PRESSURE GPRESSURE VOLUME PRESSAVG GPRESSAVG
ENERGY: 0 0.2495 13.8378 5.8767 0.0000 -10643.6008 1372.0108 0.0000 0.0000 1782.0602 -7469.5659 301.5885 -9251.6261 -7469.5659 301.5885 -732.5574 -651.5155 31122.4460 -732.5574 -651.5155
ENERGY: 300000 1.3521 7.2226 4.5596 0.0000 -10620.2083 1388.2381 0.0000 0.0000 1804.4967 -7414.3393 305.3856 -9218.8360 -7484.4827 302.2345 -167.8511 -106.4415 30620.2354 -313.7365 -262.1943
ENERGY: 600000 0.8288 13.8164 6.3660 0.0000 -10708.4030 1392.1952 0.0000 0.0000 1792.2203 -7502.9763 303.3080 -9295.1966 -7509.0483 301.2902 -274.8946 -185.1214 30254.2587 -285.9555 -242.7885
ENERGY: 900000 1.9014 11.3511 7.5948 0.0000 -10826.1611 1468.3193 0.0000 0.0000 1767.8275 -7569.1670 299.1798 -9336.9946 -7519.9453 300.2776 52.4757 82.0791 30386.2305 -128.9979 -91.7445
ENERGY: 1200000 3.2692 15.2643 4.8383 0.0000 -10607.6712 1312.6929 0.0000 0.0000 1796.8779 -7474.7285 304.0962 -9271.6065 -7507.7518 300.1443 -989.3564 -969.9186 30638.7831 -114.1990 -82.0137
ENERGY: 1500000 2.0254 12.5028 4.7682 0.0000 -10708.5174 1402.6095 0.0000 0.0000 1814.2784 -7472.3332 307.0410 -9286.6116 -7496.1569 300.9832 -272.9377 -206.6491 30555.4496 -204.9923 -166.9890
TCL: Running FEP window  14: Lambda1 0.65   Lambda2 0.7000000000000001 [dLambda 0.050000000000000044]
TCL: Setting parameter firsttimestep to 0
TCL: Setting parameter alchLambda to 0.65
Info: NONBONDED TABLE R-SQUARED SPACING: 0.0625
Info: NONBONDED TABLE SIZE: 705 POINTS
TCL: Setting parameter alchLambda2 to 0.7000000000000001
Info: NONBONDED TABLE R-SQUARED SPACING: 0.0625
Info: NONBONDED TABLE SIZE: 705 POINTS
TCL: Running for 1500000 steps
ETITLE: TS BOND ANGLE DIHED IMPRP ELECT VDW BOUNDARY MISC KINETIC TOTAL TEMP POTENTIAL TOTALAVG TEMPAVG PRESSURE GPRESSURE VOLUME PRESSAVG GPRESSAVG
ENERGY: 0 2.0254 12.5028 4.7682 0.0000 -10708.2031 1402.5154 0.0000 0.0000 1813.4046 -7472.9868 306.8931 -9286.3914 -7472.9868 306.8931 -283.8444 -198.1418 30555.4496 -283.8444 -198.1418
ENERGY: 300000 4.2663 9.3412 4.7568 0.0000 -10855.4724 1505.4944 0.0000 0.0000 1782.9811 -7548.6325 301.7444 -9331.6136 -7520.2169 300.8244 221.3694 223.6981 30625.5284 -213.0563 -134.8369
ENERGY: 600000 1.3470 10.7115 5.3070 0.0000 -10780.2851 1539.7664 0.0000 0.0000 1791.1123 -7432.0409 303.1205 -9223.1531 -7495.9314 300.6809 917.5217 909.6665 30602.8290 -171.9800 -116.9964
ENERGY: 900000 1.5043 11.0709 5.6334 0.0000 -10824.3540 1526.2422 0.0000 0.0000 1720.9019 -7559.0012 291.2384 -9279.9031 -7486.4762 300.7385 874.1874 897.8571 30125.9439 64.9470 122.7112
ENERGY: 1200000 2.4034 8.9160 5.2943 0.0000 -10709.2506 1422.2501 0.0000 0.0000 1765.3634 -7505.0234 298.7628 -9270.3868 -7493.1366 300.2315 -232.4890 -160.3268 30575.2296 88.1548 143.5681
ENERGY: 1500000 1.6385 11.2168 4.4263 0.0000 -10709.8623 1426.1422 0.0000 0.0000 1761.0368 -7505.4017 298.0306 -9266.4384 -7502.9700 300.6215 -96.9036 -11.1949 30553.8822 131.1063 181.6235
TCL: Running FEP window  15: Lambda1 0.7000000000000001 Lambda2 0.7500000000000001 [dLambda 0.050000000000000044]
TCL: Setting parameter firsttimestep to 0
TCL: Setting parameter alchLambda to 0.7000000000000001
Info: NONBONDED TABLE R-SQUARED SPACING: 0.0625
Info: NONBONDED TABLE SIZE: 705 POINTS
TCL: Setting parameter alchLambda2 to 0.7500000000000001
Info: NONBONDED TABLE R-SQUARED SPACING: 0.0625
Info: NONBONDED TABLE SIZE: 705 POINTS
TCL: Running for 1500000 steps
ETITLE: TS BOND ANGLE DIHED IMPRP ELECT VDW BOUNDARY MISC KINETIC TOTAL TEMP POTENTIAL TOTALAVG TEMPAVG PRESSURE GPRESSURE VOLUME PRESSAVG GPRESSAVG
ENERGY: 0 1.6385 11.2168 4.4263 0.0000 -10711.0755 1426.7240 0.0000 0.0000 1760.2068 -7506.8630 297.8902 -9267.0698 -7506.8630 297.8902 -91.1996 -4.0729 30553.8822 -91.1996 -4.0729
ENERGY: 300000 2.6705 12.4037 7.3505 0.0000 -10692.8814 1431.7245 0.0000 0.0000 1776.7162 -7462.0159 300.6841 -9238.7321 -7500.7001 298.0993 91.9621 62.2324 30677.3419 -55.8560 -14.6847
ENERGY: 600000 5.3399 7.6471 5.2309 0.0000 -10776.0743 1456.1439 0.0000 0.0000 1776.8729 -7524.8396 300.7107 -9301.7125 -7513.8167 299.2532 102.2824 110.4403 30438.8654 -140.6770 -98.9524
ENERGY: 900000 2.1961 7.6858 6.4506 0.0000 -10742.4662 1416.2387 0.0000 0.0000 1819.7601 -7490.1350 307.9687 -9309.8951 -7509.0192 300.6617 88.1468 152.5179 29980.9342 -115.7907 -70.2280
ENERGY: 1200000 3.3143 8.4101 4.6558 0.0000 -10849.0994 1481.9274 0.0000 0.0000 1753.3233 -7597.4685 296.7252 -9350.7918 -7522.3440 299.8927 277.6291 301.7025 30366.8215 -67.7187 -16.3190
ENERGY: 1500000 0.4674 7.8139 4.9901 0.0000 -10703.7421 1422.7482 0.0000 0.0000 1712.3380 -7555.3846 289.7890 -9267.7226 -7521.5964 299.2485 53.7141 145.0930 30333.9055 -55.5732 -1.1406
TCL: Running FEP window  16: Lambda1 0.7500000000000001 Lambda2 0.8000000000000002 [dLambda 0.050000000000000044]
TCL: Setting parameter firsttimestep to 0
TCL: Setting parameter alchLambda to 0.7500000000000001
Info: NONBONDED TABLE R-SQUARED SPACING: 0.0625
Info: NONBONDED TABLE SIZE: 705 POINTS
TCL: Setting parameter alchLambda2 to 0.8000000000000002
Info: NONBONDED TABLE R-SQUARED SPACING: 0.0625
Info: NONBONDED TABLE SIZE: 705 POINTS
TCL: Running for 1500000 steps
ETITLE: TS BOND ANGLE DIHED IMPRP ELECT VDW BOUNDARY MISC KINETIC TOTAL TEMP POTENTIAL TOTALAVG TEMPAVG PRESSURE GPRESSURE VOLUME PRESSAVG GPRESSAVG
ENERGY: 0 0.4674 7.8139 4.9901 0.0000 -10704.4203 1422.8765 0.0000 0.0000 1711.4887 -7556.7839 289.6453 -9268.2725 -7556.7839 289.6453 69.1047 157.9587 30333.9055 69.1047 157.9587
ENERGY: 300000 1.7228 7.2660 5.4261 0.0000 -10659.4313 1351.5482 0.0000 0.0000 1748.3152 -7545.1530 295.8777 -9293.4682 -7547.8845 297.6970 -1026.2588 -910.4443 30992.5231 -274.6581 -195.6768
ENERGY: 600000 0.8048 12.0431 7.6722 0.0000 -10776.2990 1460.9681 0.0000 0.0000 1811.2795 -7483.5315 306.5335 -9294.8109 -7528.0944 299.8921 31.3719 112.7659 30816.3589 -221.6726 -153.8765
ENERGY: 900000 1.0941 12.3011 6.0410 0.0000 -10717.8638 1477.2443 0.0000 0.0000 1811.0255 -7410.1578 306.4905 -9221.1833 -7513.2340 300.0965 335.1430 335.9660 30720.6044 -62.9706 -9.2339
ENERGY: 1200000 0.4635 10.9316 5.3980 0.0000 -10758.5661 1433.1812 0.0000 0.0000 1763.3255 -7545.2663 298.4179 -9308.5918 -7513.3036 300.3987 -111.9039 -106.2662 30799.8056 -80.0951 -31.6167
ENERGY: 1500000 1.8433 7.3203 4.4880 0.0000 -10745.2643 1406.8361 0.0000 0.0000 1747.2436 -7577.5329 295.6963 -9324.7766 -7513.0613 300.3579 -539.6041 -523.8817 30965.6308 -46.5179 -5.0360
TCL: Running FEP window  17: Lambda1 0.8000000000000002 Lambda2 0.8500000000000002 [dLambda 0.050000000000000044]
TCL: Setting parameter firsttimestep to 0
TCL: Setting parameter alchLambda to 0.8000000000000002
Info: NONBONDED TABLE R-SQUARED SPACING: 0.0625
Info: NONBONDED TABLE SIZE: 705 POINTS
TCL: Setting parameter alchLambda2 to 0.8500000000000002
Info: NONBONDED TABLE R-SQUARED SPACING: 0.0625
Info: NONBONDED TABLE SIZE: 705 POINTS
TCL: Running for 1500000 steps
ETITLE: TS BOND ANGLE DIHED IMPRP ELECT VDW BOUNDARY MISC KINETIC TOTAL TEMP POTENTIAL TOTALAVG TEMPAVG PRESSURE GPRESSURE VOLUME PRESSAVG GPRESSAVG
ENERGY: 0 1.8433 7.3203 4.4880 0.0000 -10745.5012 1406.4335 0.0000 0.0000 1746.3382 -7579.0779 295.5431 -9325.4161 -7579.0779 295.5431 -588.0521 -516.9007 30965.6308 -588.0521 -516.9007
ENERGY: 300000 1.6987 9.1738 5.8165 0.0000 -10714.9179 1350.7911 0.0000 0.0000 1789.8063 -7557.6315 302.8995 -9347.4379 -7536.4907 299.5399 -914.3054 -833.8163 30743.1015 -195.1075 -141.5603
ENERGY: 600000 0.9705 6.7681 5.9554 0.0000 -10716.4554 1438.5926 0.0000 0.0000 1798.5789 -7465.5899 304.3841 -9264.1688 -7523.7695 300.0843 16.3377 87.9537 30613.6257 13.1221 70.9779
ENERGY: 900000 1.6451 8.2760 4.5733 0.0000 -10672.9679 1383.3918 0.0000 0.0000 1809.5328 -7465.5489 306.2379 -9275.0817 -7520.9033 300.6881 -614.3011 -550.3372 31051.2338 42.5870 99.8488
ENERGY: 1200000 1.4258 13.9307 6.1563 0.0000 -10863.6289 1516.1358 0.0000 0.0000 1738.3920 -7587.5883 294.1983 -9325.9803 -7522.9004 300.6914 672.0485 671.2702 30320.5750 49.7800 101.6361
ENERGY: 1500000 4.3652 9.5114 4.9508 0.0000 -10659.2515 1383.0269 0.0000 0.0000 1748.9734 -7508.4239 295.9890 -9257.3972 -7517.8932 300.8996 -835.7182 -774.9288 31157.2122 -2.9061 53.4557
TCL: Running FEP window  18: Lambda1 0.8500000000000002 Lambda2 0.9000000000000002 [dLambda 0.050000000000000044]
TCL: Setting parameter firsttimestep to 0
TCL: Setting parameter alchLambda to 0.8500000000000002
Info: NONBONDED TABLE R-SQUARED SPACING: 0.0625
Info: NONBONDED TABLE SIZE: 705 POINTS
TCL: Setting parameter alchLambda2 to 0.9000000000000002
Info: NONBONDED TABLE R-SQUARED SPACING: 0.0625
Info: NONBONDED TABLE SIZE: 705 POINTS
TCL: Running for 1500000 steps
ETITLE: TS BOND ANGLE DIHED IMPRP ELECT VDW BOUNDARY MISC KINETIC TOTAL TEMP POTENTIAL TOTALAVG TEMPAVG PRESSURE GPRESSURE VOLUME PRESSAVG GPRESSAVG
ENERGY: 0 4.3652 9.5114 4.9508 0.0000 -10659.9132 1383.2158 0.0000 0.0000 1748.0836 -7509.7864 295.8385 -9257.8700 -7509.7864 295.8385 -837.0224 -766.1403 31157.2122 -837.0224 -766.1403
ENERGY: 300000 0.8460 7.4115 7.2935 0.0000 -10788.7560 1448.6077 0.0000 0.0000 1774.6110 -7549.9863 300.3279 -9324.5973 -7516.6316 296.7442 -21.6030 33.8687 30728.5315 -302.0219 -244.1284
ENERGY: 600000 0.9554 11.4729 4.8654 0.0000 -10810.0121 1506.6762 0.0000 0.0000 1702.7143 -7583.3280 288.1604 -9286.0423 -7518.9597 298.3931 141.3317 221.3963 30980.3069 -190.0270 -128.5849
ENERGY: 900000 1.0149 10.9383 5.0345 0.0000 -10793.6365 1501.5587 0.0000 0.0000 1815.9233 -7459.1667 307.3194 -9275.0901 -7516.9989 299.0090 699.8668 724.2932 30415.2780 -145.1621 -88.7899
ENERGY: 1200000 3.2334 8.7789 5.6371 0.0000 -10777.4689 1464.6844 0.0000 0.0000 1800.9225 -7494.2125 304.7807 -9295.1350 -7506.0900 299.8743 -34.5944 13.3109 30958.9719 -108.7303 -52.9403
ENERGY: 1500000 1.6091 7.6133 7.2718 0.0000 -10714.9654 1406.9993 0.0000 0.0000 1735.1439 -7556.3280 293.6486 -9291.4719 -7513.6158 299.1590 -299.7674 -345.5429 30895.6073 -82.2084 -33.2535
TCL: Running FEP window  19: Lambda1 0.9000000000000002 Lambda2 0.9500000000000003 [dLambda 0.050000000000000044]
TCL: Setting parameter firsttimestep to 0
TCL: Setting parameter alchLambda to 0.9000000000000002
Info: NONBONDED TABLE R-SQUARED SPACING: 0.0625
Info: NONBONDED TABLE SIZE: 705 POINTS
TCL: Setting parameter alchLambda2 to 0.9500000000000003
Info: NONBONDED TABLE R-SQUARED SPACING: 0.0625
Info: NONBONDED TABLE SIZE: 705 POINTS
TCL: Running for 1500000 steps
ETITLE: TS BOND ANGLE DIHED IMPRP ELECT VDW BOUNDARY MISC KINETIC TOTAL TEMP POTENTIAL TOTALAVG TEMPAVG PRESSURE GPRESSURE VOLUME PRESSAVG GPRESSAVG
ENERGY: 0 1.6091 7.6133 7.2718 0.0000 -10716.1206 1408.7771 0.0000 0.0000 1734.2395 -7556.6098 293.4955 -9290.8492 -7556.6098 293.4955 -398.3412 -315.9190 30895.6073 -398.3412 -315.9190
ENERGY: 300000 3.4570 7.8937 5.9280 0.0000 -10640.6481 1374.5374 0.0000 0.0000 1810.6191 -7438.2129 306.4217 -9248.8321 -7513.4348 301.9516 -355.1909 -365.5973 30423.0125 -31.5337 1.5737
ENERGY: 600000 3.1280 7.9052 5.2207 0.0000 -10869.4449 1523.2822 0.0000 0.0000 1807.3644 -7522.5443 305.8709 -9329.9087 -7543.9483 300.3275 6.2055 135.4646 31161.5498 -0.8830 51.4922
ENERGY: 900000 2.1313 6.6798 6.5493 0.0000 -10693.7536 1427.7328 0.0000 0.0000 1806.1015 -7444.5588 305.6572 -9250.6604 -7524.8535 300.5763 182.5961 231.3617 30443.3656 51.3623 97.8371
ENERGY: 1200000 3.7842 7.7382 4.9272 0.0000 -10679.4686 1414.5385 0.0000 0.0000 1800.7674 -7447.7131 304.7545 -9248.4805 -7527.4138 299.7013 -131.2974 -99.5082 30435.5353 33.0512 83.6766
ENERGY: 1500000 1.2065 14.0489 5.7391 0.0000 -10681.1211 1334.2542 0.0000 0.0000 1762.9814 -7562.8911 298.3597 -9325.8725 -7533.4913 299.2672 -1046.6462 -939.5316 30525.5659 -80.0446 -27.9157
TCL: Running FEP window  20: Lambda1 0.9500000000000003 Lambda2 1.0    [dLambda 0.04999999999999971]
TCL: Setting parameter firsttimestep to 0
TCL: Setting parameter alchLambda to 0.9500000000000003
Info: NONBONDED TABLE R-SQUARED SPACING: 0.0625
Info: NONBONDED TABLE SIZE: 705 POINTS
TCL: Setting parameter alchLambda2 to 1.0
Info: NONBONDED TABLE R-SQUARED SPACING: 0.0625
Info: NONBONDED TABLE SIZE: 705 POINTS
TCL: Running for 1500000 steps
ETITLE: TS BOND ANGLE DIHED IMPRP ELECT VDW BOUNDARY MISC KINETIC TOTAL TEMP POTENTIAL TOTALAVG TEMPAVG PRESSURE GPRESSURE VOLUME PRESSAVG GPRESSAVG
ENERGY: 0 1.2065 14.0489 5.7391 0.0000 -10682.5963 1335.1558 0.0000 0.0000 1762.0916 -7564.3544 298.2091 -9326.4460 -7564.3544 298.2091 -999.2044 -918.6677 30525.5659 -999.2044 -918.6677
ENERGY: 300000 1.0815 11.8648 4.7394 0.0000 -10797.6547 1458.1991 0.0000 0.0000 1822.9979 -7498.7721 308.5167 -9321.7700 -7526.0750 301.7279 -68.1886 -59.7511 30985.8316 -109.9703 -93.2650
ENERGY: 600000 1.9410 9.7249 5.0778 0.0000 -10697.5984 1402.1757 0.0000 0.0000 1792.0982 -7486.5808 303.2873 -9278.6790 -7551.9996 300.2613 -375.2227 -270.0272 30784.9433 -209.1200 -164.0615
ENERGY: 900000 1.4535 13.5120 5.3301 0.0000 -10687.4551 1369.3497 0.0000 0.0000 1813.2697 -7484.5401 306.8703 -9297.8098 -7532.1326 301.6938 -380.5448 -296.1126 30415.9554 -73.7756 -16.1873
ENERGY: 1200000 1.7445 14.5489 4.9810 0.0000 -10767.9418 1456.9466 0.0000 0.0000 1754.1925 -7535.5283 296.8723 -9289.7208 -7542.1074 299.2997 515.5873 587.5514 30217.3822 -47.5350 7.0054
ENERGY: 1500000 1.5475 12.4838 4.6368 0.0000 -10799.5147 1498.2711 0.0000 0.0000 1751.0691 -7531.5064 296.3437 -9282.5755 -7531.6666 299.2680 392.3048 469.2989 30414.8199 -5.8410 46.2171
TCL: Exiting due to exit command.
