Info: SIMULATION PARAMETERS:
Info: TIMESTEP               2
Info: NUMBER OF STEPS        0
Info: STEPS PER CYCLE        10
Info: PERIODIC CELL BASIS 1  31.9799 0 0
Info: PERIODIC CELL BASIS 2  0 31.3288 0
Info: PERIODIC CELL BASIS 3  0 0 30.1262
Info: PERIODIC CELL CENTER   0 0 0
Info: WRAPPING WATERS AROUND PERIODIC BOUNDARIES ON OUTPUT.
Info: WRAPPING ALL CLUSTERS AROUND PERIODIC BOUNDARIES ON OUTPUT.
Info: FIRST LDB TIMESTEP     50
Info: LAST LDB TIMESTEP     -1
Info: HOM BACKGROUND SCALING 1
Info: PME BACKGROUND SCALING 1
Info: MIN ATOMS PER PATCH    40
Info: EMPTY PATCH LOAD       40 ATOMS
Info: VELOCITY FILE          mobley_8449031_equil.vel
Info: CENTER OF MASS MOVING INITIALLY? NO
Info: DIELECTRIC             1
Info: EXCLUDE                SCALED ONE-FOUR
Info: 1-4 ELECTROSTATICS SCALED BY 0.833333
Info: MODIFIED 1-4 VDW PARAMETERS WILL BE USED
Info: DCD FILENAME           mobley_8449031_prod.dcd
Info: DCD FREQUENCY          100000
Info: DCD FIRST STEP         100000
Info: DCD FILE WILL CONTAIN UNIT CELL DATA
Info: XST FILENAME           mobley_8449031_prod.xst
Info: XST FREQUENCY          100000
Info: NO VELOCITY DCD OUTPUT
Info: NO FORCE DCD OUTPUT
Info: OUTPUT FILENAME        mobley_8449031_prod
Info: BINARY OUTPUT FILES WILL BE USED
Info: RESTART FILENAME       mobley_8449031_prod.restart
Info: RESTART FREQUENCY      100000
Info: BINARY RESTART FILES WILL BE USED
Info: CUTOFF                 9
Info: PAIRLIST DISTANCE      11
Info: PAIRLIST SHRINK RATE   0.01
Info: PAIRLIST GROW RATE     0.01
Info: PAIRLIST TRIGGER       0.3
Info: PAIRLISTS PER CYCLE    2
Info: PAIRLISTS ENABLED
Info: MARGIN                 2
Info: HYDROGEN GROUP CUTOFF  2.5
Info: PATCH DIMENSION        15.5
Info: ENERGY OUTPUT STEPS    100000
Info: ENERGY EVALUATION STEPS    100000
Info: OUTPUT ENERGY PRECISION 4
Info: CROSSTERM ENERGY INCLUDED IN DIHEDRAL
Info: TIMING OUTPUT STEPS    1000000
Info: PRESSURE OUTPUT STEPS  100000
Info: ALCHEMICAL FEP ON
Info: FEP CURRENT LAMBDA VALUE     1
Info: FEP COMPARISON LAMBDA VALUE  0.95
Info: FEP INTRA-ALCHEMICAL NON-BONDED INTERACTIONS WILL BE RETAINED
Info: FEP INTRA-ALCHEMICAL BONDED INTERACTIONS WILL BE RETAINED
Info: FEP VDW SHIFTING COEFFICIENT 5
Info: FEP ELEC. ACTIVE FOR ANNIHILATED PARTICLES BETWEEN LAMBDA = 0 AND LAMBDA = 0.5
Info: FEP ELEC. ACTIVE FOR EXNIHILATED PARTICLES BETWEEN LAMBDA = 0.5 AND LAMBDA = 1
Info: FEP VDW ACTIVE FOR ANNIHILATED PARTICLES BETWEEN LAMBDA = 0 AND LAMBDA = 1
Info: FEP VDW ACTIVE FOR EXNIHILATED PARTICLES BETWEEN LAMBDA = 0 AND LAMBDA = 1
Info: FEP BOND ACTIVE FOR ANNIHILATED PARTICLES BETWEEN LAMBDA = 1 AND LAMBDA = 1
Info: FEP BOND ACTIVE FOR EXNIHILATED PARTICLES BETWEEN LAMBDA = 0 AND LAMBDA = 0
Info: LANGEVIN DYNAMICS ACTIVE
Info: LANGEVIN TEMPERATURE   300
Info: LANGEVIN USING BBK INTEGRATOR
Info: LANGEVIN DAMPING COEFFICIENT IS 1 INVERSE PS
Info: LANGEVIN DYNAMICS APPLIED TO HYDROGENS
Info: LANGEVIN PISTON PRESSURE CONTROL ACTIVE
Info:        TARGET PRESSURE IS 1.01325 BAR
Info:     OSCILLATION PERIOD IS 50 FS
Info:             DECAY TIME IS 25 FS
Info:     PISTON TEMPERATURE IS 300 K
Info:       PRESSURE CONTROL IS GROUP-BASED
Info:    INITIAL STRAIN RATE IS 0.000308254 0.000308254 0.000308254
Info:       CELL FLUCTUATION IS ISOTROPIC
Info: PARTICLE MESH EWALD (PME) ACTIVE
Info: PME TOLERANCE               1e-06
Info: PME EWALD COEFFICIENT       0.348832
Info: PME INTERPOLATION ORDER     4
Info: PME GRID DIMENSIONS         32 32 32
Info: PME MAXIMUM GRID SPACING    1
Info: PME CALCULATION WILL BE PERFORMED ON GPU
Info: FULL ELECTROSTATIC EVALUATION FREQUENCY      2
Info: USING VERLET I (r-RESPA) MTS SCHEME.
Info: C1 SPLITTING OF LONG RANGE ELECTROSTATICS
Info: PLACING ATOMS IN PATCHES BY HYDROGEN GROUPS
Info: RIGID BONDS TO HYDROGEN : ALL
Info:         ERROR TOLERANCE : 1e-08
Info:          MAX ITERATIONS : 100
Info: RIGID WATER USING SETTLE ALGORITHM
Info: RANDOM NUMBER SEED     1743936908
Info: USE HYDROGEN BONDS?    NO
Info: Using AMBER format force field!
Info: AMBER PARM FILE        mobley_8449031.prmtop
Info: COORDINATE PDB         mobley_8449031.pdb
Info: Exclusions will be read from PARM file!
Info: SCNB (VDW SCALING)     2
Info: USING ARITHMETIC MEAN TO COMBINE L-J SIGMA PARAMETERS
Info: BINARY COORDINATES     mobley_8449031_equil.coor
Info: SUMMARY OF PARAMETERS:
Info: 6 BONDS
Info: 7 ANGLES
Info:   7 HARMONIC
Info:   0 COSINE-BASED
Info: 3 DIHEDRAL
Info: 0 IMPROPER
Info: 0 CROSSTERM
Info: 0 VDW
Info: 21 VDW_PAIRS
Info: 0 NBTHOLE_PAIRS
Info: To read alchdata from file: mobley_8449031.pdb
Info: To read alchflag data from column: 5
Info: STRUCTURE SUMMARY:
Info: 2965 ATOMS
Info: 2964 BONDS
Info: 39 ANGLES
Info: 51 DIHEDRALS
Info: 0 IMPROPERS
Info: 0 CROSSTERMS
Info: 3048 EXCLUSIONS
Info: 2958 RIGID BONDS
Info: ALCH: 0 ATOMS TO DISAPPEAR IN FINAL STATE
Info: ALCH: 22 ATOMS TO APPEAR IN FINAL STATE
Info: 5937 DEGREES OF FREEDOM
Info: 988 HYDROGEN GROUPS
Info: 4 ATOMS IN LARGEST HYDROGEN GROUP
Info: 988 MIGRATION GROUPS
Info: 4 ATOMS IN LARGEST MIGRATION GROUP
Info: TOTAL MASS = 17774.9 amu
Info: TOTAL CHARGE = -0.000100035 e
Info: MASS DENSITY = 0.977912 g/cm^3
Info: ATOM DENSITY = 0.0982332 atoms/A^3
Info: ADDED 0 IMPLICIT EXCLUSIONS
Info: NONBONDED TABLE R-SQUARED SPACING: 0.0625
Info: NONBONDED TABLE SIZE: 705 POINTS
Info: REDUCING NUMBER OF PATCHES TO IMPROVE LOAD BALANCE
Info: REMOVING COM VELOCITY -0.00172579 0.0673855 0.0854855
Info: Use 3D box decompostion in PME FFT.
Info: Updated CUDA force table with 4096 elements.
Info: Updated CUDA LJ table with 6 x 6 elements.
Info: Found 23 unique exclusion lists needing 68 bytes
TCL: Running for 1500000 steps
ETITLE: TS BOND ANGLE DIHED IMPRP ELECT VDW BOUNDARY MISC KINETIC TOTAL TEMP POTENTIAL TOTALAVG TEMPAVG PRESSURE GPRESSURE VOLUME PRESSAVG GPRESSAVG
ENERGY: 0 1.4442 8.0441 4.2707 0.0000 -10746.7602 1432.1982 0.0000 0.0000 1739.7448 -7561.0583 294.9232 -9300.8031 -7561.0583 294.9232 -14.8947 63.5859 30183.2710 -14.8947 63.5859
ENERGY: 300000 0.9645 14.8179 4.5088 0.0000 -10758.8801 1456.8604 0.0000 0.0000 1768.5425 -7513.1860 299.8050 -9281.7285 -7528.8043 295.4369 -103.0131 29.9489 30928.9684 -56.0882 20.5401
ENERGY: 600000 3.5741 13.4478 7.1513 0.0000 -10617.9627 1349.4110 0.0000 0.0000 1763.1414 -7481.2371 298.8894 -9244.3785 -7530.7325 295.2598 -979.1209 -884.6076 30956.5452 -160.4951 -93.8516
ENERGY: 900000 3.6042 6.2431 5.0512 0.0000 -10813.4007 1496.9548 0.0000 0.0000 1787.9631 -7513.5842 303.0972 -9301.5474 -7516.3191 296.3876 54.3194 96.6354 30925.0885 -167.7162 -102.0527
ENERGY: 1200000 3.2711 12.2944 4.6017 0.0000 -10731.3233 1449.7913 0.0000 0.0000 1755.8131 -7505.5517 297.6471 -9261.3648 -7513.7641 297.8737 245.9685 314.1188 30251.1198 -199.2469 -134.6381
ENERGY: 1500000 3.6344 10.6676 3.7849 0.0000 -10866.8557 1532.0133 0.0000 0.0000 1748.7402 -7568.0152 296.4481 -9316.7554 -7512.9411 298.3426 397.7951 438.7597 30584.6994 -68.3956 -1.2158
TCL: Running FEP window   2: Lambda1 0.95   Lambda2 0.8999999999999999 [dLambda -0.050000000000000044]
TCL: Setting parameter firsttimestep to 0
TCL: Setting parameter alchLambda to 0.95
Info: NONBONDED TABLE R-SQUARED SPACING: 0.0625
Info: NONBONDED TABLE SIZE: 705 POINTS
TCL: Setting parameter alchLambda2 to 0.8999999999999999
Info: NONBONDED TABLE R-SQUARED SPACING: 0.0625
Info: NONBONDED TABLE SIZE: 705 POINTS
TCL: Running for 1500000 steps
ETITLE: TS BOND ANGLE DIHED IMPRP ELECT VDW BOUNDARY MISC KINETIC TOTAL TEMP POTENTIAL TOTALAVG TEMPAVG PRESSURE GPRESSURE VOLUME PRESSAVG GPRESSAVG
ENERGY: 0 3.6344 10.6676 3.7849 0.0000 -10865.7083 1531.1513 0.0000 0.0000 1747.8720 -7568.5982 296.3009 -9316.4701 -7568.5982 296.3009 336.7491 416.1883 30584.6994 336.7491 416.1883
ENERGY: 300000 2.8250 12.8331 4.0763 0.0000 -10614.0181 1369.0515 0.0000 0.0000 1825.6731 -7399.5591 309.4898 -9225.2322 -7487.9903 303.5358 -539.9137 -475.0885 30708.2387 -56.0215 -1.4454
ENERGY: 600000 0.7614 12.9448 4.9420 0.0000 -10623.0678 1395.7247 0.0000 0.0000 1773.7514 -7434.9436 300.6880 -9208.6949 -7472.7279 301.7908 -337.7009 -281.1253 30778.1990 -20.3711 23.4120
ENERGY: 900000 2.2399 11.2085 6.5906 0.0000 -10725.3456 1437.7111 0.0000 0.0000 1743.6421 -7523.9534 295.5838 -9267.5955 -7491.9275 299.6968 133.9836 181.6624 30179.8023 2.0765 52.4512
ENERGY: 1200000 6.3897 10.0109 3.4872 0.0000 -10707.9418 1389.2756 0.0000 0.0000 1810.3456 -7488.4328 306.8915 -9298.7784 -7503.7480 300.2775 -598.1191 -534.7728 30394.4740 -148.8198 -92.4840
ENERGY: 1500000 1.3399 8.0045 5.6958 0.0000 -10666.0761 1403.0017 0.0000 0.0000 1752.2673 -7495.7670 297.0460 -9248.0343 -7497.3356 300.6480 -298.1660 -239.3316 30795.8287 -80.1569 -28.6943
TCL: Running FEP window   3: Lambda1 0.8999999999999999 Lambda2 0.8499999999999999 [dLambda -0.050000000000000044]
TCL: Setting parameter firsttimestep to 0
TCL: Setting parameter alchLambda to 0.8999999999999999
Info: NONBONDED TABLE R-SQUARED SPACING: 0.0625
Info: NONBONDED TABLE SIZE: 705 POINTS
TCL: Setting parameter alchLambda2 to 0.8499999999999999
Info: NONBONDED TABLE R-SQUARED SPACING: 0.0625
Info: NONBONDED TABLE SIZE: 705 POINTS
TCL: Running for 1500000 steps
ETITLE: TS BOND ANGLE DIHED IMPRP ELECT VDW BOUNDARY MISC KINETIC TOTAL TEMP POTENTIAL TOTALAVG TEMPAVG PRESSURE GPRESSURE VOLUME PRESSAVG GPRESSAVG
ENERGY: 0 1.3399 8.0045 5.6958 0.0000 -10665.3009 1402.4751 0.0000 0.0000 1751.3846 -7496.4011 296.8964 -9247.7857 -7496.4011 296.8964 -337.0429 -257.4337 30795.8287 -337.0429 -257.4337
ENERGY: 300000 2.9149 16.0787 4.2765 0.0000 -10631.5927 1405.9200 0.0000 0.0000 1754.8511 -7447.5514 297.4840 -9202.4025 -7496.6921 298.9868 -18.4707 61.7237 30402.1800 73.2394 141.4830
ENERGY: 600000 2.3519 7.0396 7.3967 0.0000 -10717.2153 1434.1478 0.0000 0.0000 1785.9906 -7480.2887 302.7628 -9266.2793 -7491.9441 299.3989 11.6006 84.4987 30313.4945 46.4894 109.2035
ENERGY: 900000 0.5447 9.0589 6.3406 0.0000 -10825.7692 1478.2835 0.0000 0.0000 1679.9366 -7651.6049 284.7844 -9331.5415 -7520.2182 297.0722 219.2439 315.4976 29955.8037 61.7883 132.5816
ENERGY: 1200000 1.5593 14.4104 8.6841 0.0000 -10753.3425 1454.4613 0.0000 0.0000 1732.2488 -7541.9784 293.6524 -9274.2273 -7525.7720 296.3715 24.8654 85.0247 30367.7557 48.0199 115.4855
ENERGY: 1500000 2.0513 7.7389 5.5358 0.0000 -10612.4269 1395.2137 0.0000 0.0000 1758.5784 -7443.3088 298.1159 -9201.8873 -7517.6960 297.2298 -280.5783 -193.0003 30541.0731 -9.8569 51.7401
TCL: Running FEP window   4: Lambda1 0.8499999999999999 Lambda2 0.7999999999999998 [dLambda -0.050000000000000044]
TCL: Setting parameter firsttimestep to 0
TCL: Setting parameter alchLambda to 0.8499999999999999
Info: NONBONDED TABLE R-SQUARED SPACING: 0.0625
Info: NONBONDED TABLE SIZE: 705 POINTS
TCL: Setting parameter alchLambda2 to 0.7999999999999998
Info: NONBONDED TABLE R-SQUARED SPACING: 0.0625
Info: NONBONDED TABLE SIZE: 705 POINTS
TCL: Running for 1500000 steps
ETITLE: TS BOND ANGLE DIHED IMPRP ELECT VDW BOUNDARY MISC KINETIC TOTAL TEMP POTENTIAL TOTALAVG TEMPAVG PRESSURE GPRESSURE VOLUME PRESSAVG GPRESSAVG
ENERGY: 0 2.0513 7.7389 5.5358 0.0000 -10611.1094 1394.3332 0.0000 0.0000 1757.6630 -7443.7872 297.9607 -9201.4502 -7443.7872 297.9607 -288.5397 -210.1424 30541.0731 -288.5397 -210.1424
ENERGY: 300000 0.6217 11.6560 4.7295 0.0000 -10829.1976 1515.8227 0.0000 0.0000 1758.0902 -7538.2774 298.0331 -9296.3677 -7499.7175 299.9809 377.6398 494.9067 30792.7038 118.1287 158.1206
ENERGY: 600000 5.3259 13.3164 4.0229 0.0000 -10876.4977 1531.7228 0.0000 0.0000 1782.6126 -7539.4971 302.1901 -9322.1097 -7506.6558 299.0569 777.0121 813.3519 29858.7885 178.1247 223.4256
ENERGY: 900000 0.9129 12.6330 4.6930 0.0000 -10698.4935 1420.7047 0.0000 0.0000 1758.7417 -7500.8082 298.1435 -9259.5499 -7498.9597 299.2319 3.6875 56.5853 30290.5826 137.7148 179.3904
ENERGY: 1200000 0.6385 10.6557 5.1238 0.0000 -10928.2613 1514.1668 0.0000 0.0000 1728.0445 -7669.6320 292.9397 -9397.6765 -7505.3961 298.4389 298.2701 419.3697 30223.3305 203.8199 251.8506
ENERGY: 1500000 3.8004 11.4808 5.5532 0.0000 -10667.0843 1439.1658 0.0000 0.0000 1791.3225 -7415.7616 303.6667 -9207.0840 -7501.1395 298.4994 62.9363 195.7507 30254.5226 212.7903 265.7922
TCL: Running FEP window   5: Lambda1 0.7999999999999998 Lambda2 0.7499999999999998 [dLambda -0.050000000000000044]
TCL: Setting parameter firsttimestep to 0
TCL: Setting parameter alchLambda to 0.7999999999999998
Info: NONBONDED TABLE R-SQUARED SPACING: 0.0625
Info: NONBONDED TABLE SIZE: 705 POINTS
TCL: Setting parameter alchLambda2 to 0.7499999999999998
Info: NONBONDED TABLE R-SQUARED SPACING: 0.0625
Info: NONBONDED TABLE SIZE: 705 POINTS
TCL: Running for 1500000 steps
ETITLE: TS BOND ANGLE DIHED IMPRP ELECT VDW BOUNDARY MISC KINETIC TOTAL TEMP POTENTIAL TOTALAVG TEMPAVG PRESSURE GPRESSURE VOLUME PRESSAVG GPRESSAVG
ENERGY: 0 3.8004 11.4808 5.5532 0.0000 -10665.5056 1438.4498 0.0000 0.0000 1790.4096 -7415.8118 303.5119 -9206.2214 -7415.8118 303.5119 97.3625 181.4620 30254.5226 97.3625 181.4620
ENERGY: 300000 3.3780 6.4522 3.9543 0.0000 -10766.7927 1430.4134 0.0000 0.0000 1747.8797 -7574.7151 296.3022 -9322.5948 -7473.1615 300.9606 -396.8477 -310.2155 30474.3460 -286.6138 -191.8230
ENERGY: 600000 5.6005 11.8941 3.9833 0.0000 -10853.9706 1485.5130 0.0000 0.0000 1749.7361 -7597.2436 296.6169 -9346.9797 -7509.1585 299.3369 -144.6463 -109.7447 30740.7375 -161.5272 -92.3756
ENERGY: 900000 3.2455 12.8675 5.4323 0.0000 -10692.7657 1429.9186 0.0000 0.0000 1826.5223 -7414.7794 309.6338 -9241.3017 -7494.0109 300.0988 -72.6243 9.9340 30626.0714 -158.8967 -99.1320
ENERGY: 1200000 2.5636 10.7896 5.1057 0.0000 -10690.3964 1411.7428 0.0000 0.0000 1715.3254 -7544.8693 290.7836 -9260.1946 -7505.5814 299.0476 -326.2072 -304.6939 30528.4977 -241.8755 -189.0097
ENERGY: 1500000 0.9921 11.9943 5.1397 0.0000 -10739.4641 1423.7093 0.0000 0.0000 1767.0651 -7530.5636 299.5545 -9297.6287 -7511.9022 298.6845 -192.5532 -91.7275 30550.6544 -313.0626 -252.2261
TCL: Running FEP window   6: Lambda1 0.7499999999999998 Lambda2 0.6999999999999997 [dLambda -0.050000000000000044]
TCL: Setting parameter firsttimestep to 0
TCL: Setting parameter alchLambda to 0.7499999999999998
Info: NONBONDED TABLE R-SQUARED SPACING: 0.0625
Info: NONBONDED TABLE SIZE: 705 POINTS
TCL: Setting parameter alchLambda2 to 0.6999999999999997
Info: NONBONDED TABLE R-SQUARED SPACING: 0.0625
Info: NONBONDED TABLE SIZE: 705 POINTS
TCL: Running for 1500000 steps
ETITLE: TS BOND ANGLE DIHED IMPRP ELECT VDW BOUNDARY MISC KINETIC TOTAL TEMP POTENTIAL TOTALAVG TEMPAVG PRESSURE GPRESSURE VOLUME PRESSAVG GPRESSAVG
ENERGY: 0 0.9921 11.9943 5.1397 0.0000 -10738.0242 1422.6455 0.0000 0.0000 1766.1860 -7531.0665 299.4055 -9297.2525 -7531.0665 299.4055 -189.3406 -113.2735 30550.6544 -189.3406 -113.2735
ENERGY: 300000 5.0759 9.5544 5.2671 0.0000 -10833.8271 1507.2855 0.0000 0.0000 1753.1463 -7553.4980 297.1950 -9306.6443 -7537.3873 298.2549 434.1859 505.0334 30158.3280 80.1107 160.3286
ENERGY: 600000 2.5173 8.5260 5.0819 0.0000 -10685.5852 1414.6178 0.0000 0.0000 1761.1521 -7493.6901 298.5521 -9254.8422 -7521.2324 299.2993 -477.6824 -427.1238 31180.3491 -166.7390 -84.5402
ENERGY: 900000 2.0144 9.4176 5.1607 0.0000 -10651.7591 1435.1407 0.0000 0.0000 1751.1707 -7448.8549 296.8601 -9200.0256 -7503.4820 299.0856 332.2050 403.3731 30438.9656 27.0651 101.2536
ENERGY: 1200000 2.9528 8.7663 3.3401 0.0000 -10608.1979 1322.2238 0.0000 0.0000 1780.9393 -7489.9756 301.9065 -9270.9149 -7517.9318 297.4721 -729.8304 -701.7230 30144.5580 -41.2064 33.8351
ENERGY: 1500000 1.0273 9.4629 3.1060 0.0000 -10597.6647 1387.9476 0.0000 0.0000 1799.1327 -7396.9881 304.9907 -9196.1208 -7511.8522 297.9563 -249.3824 -163.4679 30664.7982 -115.6193 -37.6807
TCL: Running FEP window   7: Lambda1 0.6999999999999997 Lambda2 0.6499999999999997 [dLambda -0.050000000000000044]
TCL: Setting parameter firsttimestep to 0
TCL: Setting parameter alchLambda to 0.6999999999999997
Info: NONBONDED TABLE R-SQUARED SPACING: 0.0625
Info: NONBONDED TABLE SIZE: 705 POINTS
TCL: Setting parameter alchLambda2 to 0.6499999999999997
Info: NONBONDED TABLE R-SQUARED SPACING: 0.0625
Info: NONBONDED TABLE SIZE: 705 POINTS
TCL: Running for 1500000 steps
ETITLE: TS BOND ANGLE DIHED IMPRP ELECT VDW BOUNDARY MISC KINETIC TOTAL TEMP POTENTIAL TOTALAVG TEMPAVG PRESSURE GPRESSURE VOLUME PRESSAVG GPRESSAVG
ENERGY: 0 1.0273 9.4629 3.1060 0.0000 -10596.8696 1387.9801 0.0000 0.0000 1798.2313 -7397.0620 304.8379 -9195.2933 -7397.0620 304.8379 -253.8493 -175.7563 30664.7982 -253.8493 -175.7563
ENERGY: 300000 1.2178 12.8979 3.9237 0.0000 -10804.8404 1490.8520 0.0000 0.0000 1768.1426 -7527.8064 299.7372 -9295.9490 -7497.0519 301.1562 287.3764 328.5570 30417.2631 -85.8937 -9.5377
ENERGY: 600000 2.5382 14.2808 6.7136 0.0000 -10596.0798 1369.5078 0.0000 0.0000 1834.7292 -7368.3102 311.0250 -9203.0394 -7494.7632 301.6060 -396.3529 -357.1304 30740.2757 58.5029 120.5155
ENERGY: 900000 0.8952 13.9097 4.8914 0.0000 -10752.5939 1455.5776 0.0000 0.0000 1756.6437 -7520.6762 297.7879 -9277.3199 -7481.2651 301.7995 -39.4829 84.9238 30624.0671 5.9183 64.3581
ENERGY: 1200000 1.3442 9.2359 4.6852 0.0000 -10632.2581 1428.9200 0.0000 0.0000 1745.5286 -7442.5443 295.9036 -9188.0729 -7486.6532 300.4808 -7.3536 49.5892 30972.2373 -20.6774 40.0092
ENERGY: 1500000 0.5193 13.7169 8.1680 0.0000 -10604.6320 1327.2962 0.0000 0.0000 1792.1382 -7462.7933 303.8049 -9254.9315 -7482.2321 301.6690 -730.5747 -670.6294 30387.5007 -55.2026 7.7090
TCL: Running FEP window   8: Lambda1 0.6499999999999997 Lambda2 0.5999999999999996 [dLambda -0.050000000000000044]
TCL: Setting parameter firsttimestep to 0
TCL: Setting parameter alchLambda to 0.6499999999999997
Info: NONBONDED TABLE R-SQUARED SPACING: 0.0625
Info: NONBONDED TABLE SIZE: 705 POINTS
TCL: Setting parameter alchLambda2 to 0.5999999999999996
Info: NONBONDED TABLE R-SQUARED SPACING: 0.0625
Info: NONBONDED TABLE SIZE: 705 POINTS
TCL: Running for 1500000 steps
ETITLE: TS BOND ANGLE DIHED IMPRP ELECT VDW BOUNDARY MISC KINETIC TOTAL TEMP POTENTIAL TOTALAVG TEMPAVG PRESSURE GPRESSURE VOLUME PRESSAVG GPRESSAVG
ENERGY: 0 0.5193 13.7169 8.1680 0.0000 -10603.4932 1326.8886 0.0000 0.0000 1791.2799 -7462.9205 303.6594 -9254.2004 -7462.9205 303.6594 -771.1070 -681.4106 30387.5007 -771.1070 -681.4106
ENERGY: 300000 1.2405 6.4350 9.7518 0.0000 -10755.4645 1446.7777 0.0000 0.0000 1755.2819 -7535.9776 297.5570 -9291.2595 -7458.8488 303.6220 25.6341 33.5612 30289.5565 -295.6049 -250.8354
ENERGY: 600000 3.3280 10.1212 5.0217 0.0000 -10465.0041 1317.7993 0.0000 0.0000 1719.9138 -7408.8201 291.5614 -9128.7339 -7452.6970 300.4235 -760.8152 -741.4388 31005.3492 -383.0022 -337.9975
ENERGY: 900000 0.9092 8.3871 3.7842 0.0000 -10635.3724 1431.0104 0.0000 0.0000 1756.4714 -7434.8101 297.7587 -9191.2815 -7463.2876 300.4236 -166.9852 -64.4019 30942.4004 -219.7049 -159.6133
ENERGY: 1200000 0.5437 12.3330 8.5972 0.0000 -10706.9873 1435.0634 0.0000 0.0000 1736.4616 -7513.9884 294.3666 -9250.4499 -7466.0761 300.5042 -38.1735 -2.4104 30560.6957 -130.8430 -67.5821
ENERGY: 1500000 2.4882 10.3189 5.8194 0.0000 -10737.3773 1422.3904 0.0000 0.0000 1752.5891 -7543.7711 297.1005 -9296.3603 -7471.1937 300.1424 -483.5889 -368.8918 30772.7548 -218.4586 -152.7158
TCL: Running FEP window   9: Lambda1 0.5999999999999996 Lambda2 0.5499999999999996 [dLambda -0.050000000000000044]
TCL: Setting parameter firsttimestep to 0
TCL: Setting parameter alchLambda to 0.5999999999999996
Info: NONBONDED TABLE R-SQUARED SPACING: 0.0625
Info: NONBONDED TABLE SIZE: 705 POINTS
TCL: Setting parameter alchLambda2 to 0.5499999999999996
Info: NONBONDED TABLE R-SQUARED SPACING: 0.0625
Info: NONBONDED TABLE SIZE: 705 POINTS
TCL: Running for 1500000 steps
ETITLE: TS BOND ANGLE DIHED IMPRP ELECT VDW BOUNDARY MISC KINETIC TOTAL TEMP POTENTIAL TOTALAVG TEMPAVG PRESSURE GPRESSURE VOLUME PRESSAVG GPRESSAVG
ENERGY: 0 2.4882 10.3189 5.8194 0.0000 -10737.3419 1421.5360 0.0000 0.0000 1751.7413 -7545.4380 296.9568 -9297.1793 -7545.4380 296.9568 -476.9353 -386.4882 30772.7548 -476.9353 -386.4882
ENERGY: 300000 1.1219 11.0544 5.2110 0.0000 -10832.5093 1479.1342 0.0000 0.0000 1784.1358 -7551.8520 302.4484 -9335.9878 -7536.2776 297.7965 329.5699 358.4618 29985.0596 -482.0485 -418.9517
ENERGY: 600000 2.1563 9.8940 7.6896 0.0000 -10622.0086 1416.3797 0.0000 0.0000 1785.2285 -7400.6606 302.6336 -9185.8891 -7503.8687 298.4594 -84.0320 -29.9930 30910.4516 -283.4543 -215.4665
ENERGY: 900000 1.0423 14.0835 7.1830 0.0000 -10692.3009 1439.4683 0.0000 0.0000 1730.8998 -7499.6240 293.4238 -9230.5239 -7499.5509 298.5433 75.1413 122.0934 30646.8055 -301.5737 -238.2809
ENERGY: 1200000 1.5671 15.3678 5.9783 0.0000 -10811.9395 1530.6888 0.0000 0.0000 1693.9018 -7564.4358 287.1518 -9258.3376 -7492.9103 298.2683 541.5674 645.4617 30642.5762 -225.3674 -155.0355
ENERGY: 1500000 2.1344 5.5787 4.5885 0.0000 -10821.8480 1496.6829 0.0000 0.0000 1728.6958 -7584.1677 293.0501 -9312.8635 -7492.2028 298.6939 22.7655 52.2530 30799.0737 -154.0383 -86.9123
TCL: Running FEP window  10: Lambda1 0.5499999999999996 Lambda2 0.4999999999999996 [dLambda -0.04999999999999999]
TCL: Setting parameter firsttimestep to 0
TCL: Setting parameter alchLambda to 0.5499999999999996
Info: NONBONDED TABLE R-SQUARED SPACING: 0.0625
Info: NONBONDED TABLE SIZE: 705 POINTS
TCL: Setting parameter alchLambda2 to 0.4999999999999996
Info: NONBONDED TABLE R-SQUARED SPACING: 0.0625
Info: NONBONDED TABLE SIZE: 705 POINTS
TCL: Running for 1500000 steps
ETITLE: TS BOND ANGLE DIHED IMPRP ELECT VDW BOUNDARY MISC KINETIC TOTAL TEMP POTENTIAL TOTALAVG TEMPAVG PRESSURE GPRESSURE VOLUME PRESSAVG GPRESSAVG
ENERGY: 0 2.1344 5.5787 4.5885 0.0000 -10822.0143 1497.2713 0.0000 0.0000 1727.7814 -7584.6601 292.8951 -9312.4415 -7584.6601 292.8951 -35.2345 50.4280 30799.0737 -35.2345 50.4280
ENERGY: 300000 1.0050 12.0545 5.0355 0.0000 -10855.0006 1512.0024 0.0000 0.0000 1737.8596 -7587.0436 294.6036 -9324.9031 -7518.8823 296.9367 507.8345 547.0519 29944.5743 377.3413 451.4197
ENERGY: 600000 2.7273 12.2543 3.6477 0.0000 -10897.3344 1548.6539 0.0000 0.0000 1797.4055 -7532.6457 304.6979 -9330.0512 -7522.1241 299.4229 745.9371 784.9982 30041.9821 362.7292 427.9077
ENERGY: 900000 1.0761 11.7871 5.9219 0.0000 -10801.9065 1474.0173 0.0000 0.0000 1703.1862 -7605.9179 288.7257 -9309.1041 -7512.4841 298.4697 117.2012 185.7584 30412.5248 245.7785 320.9833
ENERGY: 1200000 1.3591 14.2098 5.6355 0.0000 -10564.9906 1346.2975 0.0000 0.0000 1780.0270 -7417.4618 301.7518 -9197.4888 -7503.0682 299.1165 -700.5548 -641.2050 30543.7843 99.8495 177.9386
ENERGY: 1500000 3.0372 12.7042 6.8137 0.0000 -10714.4373 1448.6330 0.0000 0.0000 1716.7143 -7526.5349 291.0190 -9243.2492 -7503.7028 298.7869 146.0420 183.2188 30352.2404 79.3245 158.3958
TCL: Running FEP window  11: Lambda1 0.4999999999999996 Lambda2 0.4499999999999996 [dLambda -0.04999999999999999]
TCL: Setting parameter firsttimestep to 0
TCL: Setting parameter alchLambda to 0.4999999999999996
Info: NONBONDED TABLE R-SQUARED SPACING: 0.0625
Info: NONBONDED TABLE SIZE: 705 POINTS
TCL: Setting parameter alchLambda2 to 0.4499999999999996
Info: NONBONDED TABLE R-SQUARED SPACING: 0.0625
Info: NONBONDED TABLE SIZE: 705 POINTS
TCL: Running for 1500000 steps
ETITLE: TS BOND ANGLE DIHED IMPRP ELECT VDW BOUNDARY MISC KINETIC TOTAL TEMP POTENTIAL TOTALAVG TEMPAVG PRESSURE GPRESSURE VOLUME PRESSAVG GPRESSAVG
ENERGY: 0 3.0372 12.7042 6.8137 0.0000 -10714.4353 1449.0671 0.0000 0.0000 1715.8278 -7526.9853 290.8687 -9242.8131 -7526.9853 290.8687 98.1853 181.0854 30352.2404 98.1853 181.0854
ENERGY: 300000 1.7008 10.6699 7.7472 0.0000 -10770.1813 1494.4301 0.0000 0.0000 1706.4620 -7549.1712 289.2810 -9255.6333 -7512.5582 296.3971 390.2924 456.0410 30332.8745 167.9102 242.0459
ENERGY: 600000 3.3336 10.9079 9.1394 0.0000 -10638.2053 1377.0555 0.0000 0.0000 1809.3442 -7428.4247 306.7217 -9237.7688 -7493.7799 298.1334 -411.7084 -305.7434 30538.0225 -52.2183 21.2275
ENERGY: 900000 0.9366 13.1836 6.3784 0.0000 -10710.9772 1380.2629 0.0000 0.0000 1755.3814 -7554.8343 297.5739 -9310.2157 -7517.3967 297.2646 -542.8311 -512.0080 30597.4760 -131.8423 -62.5944
ENERGY: 1200000 2.7306 10.5021 4.6055 0.0000 -10659.0788 1391.7144 0.0000 0.0000 1772.9577 -7476.5684 300.5534 -9249.5261 -7515.9734 298.6555 -439.8064 -347.5283 30350.2313 -222.1688 -141.3034
ENERGY: 1500000 2.3892 9.9948 3.4309 0.0000 -10693.8625 1399.4791 0.0000 0.0000 1780.6126 -7497.9559 301.8511 -9278.5685 -7514.1067 298.9617 -390.1459 -336.6327 30195.0420 -183.1887 -109.0531
TCL: Running FEP window  12: Lambda1 0.4499999999999996 Lambda2 0.39999999999999963 [dLambda -0.04999999999999999]
TCL: Setting parameter firsttimestep to 0
TCL: Setting parameter alchLambda to 0.4499999999999996
Info: NONBONDED TABLE R-SQUARED SPACING: 0.0625
Info: NONBONDED TABLE SIZE: 705 POINTS
TCL: Setting parameter alchLambda2 to 0.39999999999999963
Info: NONBONDED TABLE R-SQUARED SPACING: 0.0625
Info: NONBONDED TABLE SIZE: 705 POINTS
TCL: Running for 1500000 steps
ETITLE: TS BOND ANGLE DIHED IMPRP ELECT VDW BOUNDARY MISC KINETIC TOTAL TEMP POTENTIAL TOTALAVG TEMPAVG PRESSURE GPRESSURE VOLUME PRESSAVG GPRESSAVG
ENERGY: 0 2.3892 9.9948 3.4309 0.0000 -10693.8627 1399.3102 0.0000 0.0000 1779.7287 -7499.0089 301.7013 -9278.7376 -7499.0089 301.7013 -439.1311 -349.7542 30195.0420 -439.1311 -349.7542
ENERGY: 300000 0.3943 15.4504 6.2925 0.0000 -10790.6758 1498.9468 0.0000 0.0000 1783.7199 -7485.8718 302.3779 -9269.5918 -7493.2231 301.2343 325.5304 352.6000 30593.2559 -379.0463 -333.9178
ENERGY: 600000 5.9098 11.7609 4.8144 0.0000 -10633.7274 1401.5700 0.0000 0.0000 1744.0310 -7465.6413 295.6498 -9209.6723 -7451.4172 302.2616 -776.5068 -738.2652 31052.8128 -235.1106 -184.9593
ENERGY: 900000 0.9226 10.3801 4.7834 0.0000 -10774.3234 1470.3599 0.0000 0.0000 1765.9358 -7521.9416 299.3631 -9287.8774 -7471.2817 301.3467 149.6479 239.9013 30234.9701 -318.4307 -268.3733
ENERGY: 1200000 0.3526 16.6293 8.1696 0.0000 -10652.4555 1416.9005 0.0000 0.0000 1746.8193 -7463.5843 296.1224 -9210.4036 -7467.4099 301.2607 4.3777 104.4941 30247.3595 -249.8513 -191.7036
ENERGY: 1500000 0.0510 10.6440 6.9632 0.0000 -10722.9790 1465.9536 0.0000 0.0000 1713.7916 -7525.5756 290.5236 -9239.3672 -7475.4386 299.9825 143.5917 201.5577 30648.6975 -221.3972 -158.3685
TCL: Running FEP window  13: Lambda1 0.39999999999999963 Lambda2 0.34999999999999964 [dLambda -0.04999999999999999]
TCL: Setting parameter firsttimestep to 0
TCL: Setting parameter alchLambda to 0.39999999999999963
Info: NONBONDED TABLE R-SQUARED SPACING: 0.0625
Info: NONBONDED TABLE SIZE: 705 POINTS
TCL: Setting parameter alchLambda2 to 0.34999999999999964
Info: NONBONDED TABLE R-SQUARED SPACING: 0.0625
Info: NONBONDED TABLE SIZE: 705 POINTS
TCL: Running for 1500000 steps
ETITLE: TS BOND ANGLE DIHED IMPRP ELECT VDW BOUNDARY MISC KINETIC TOTAL TEMP POTENTIAL TOTALAVG TEMPAVG PRESSURE GPRESSURE VOLUME PRESSAVG GPRESSAVG
ENERGY: 0 0.0510 10.6440 6.9632 0.0000 -10722.9803 1466.5024 0.0000 0.0000 1712.9181 -7525.9017 290.3755 -9238.8198 -7525.9017 290.3755 99.8534 200.6954 30648.6975 99.8534 200.6954
ENERGY: 300000 1.0413 9.9163 5.3127 0.0000 -10770.7379 1433.2613 0.0000 0.0000 1701.8833 -7619.3229 288.5049 -9321.2063 -7539.7654 295.4071 -241.8860 -195.5208 30156.4980 25.3392 93.7849
ENERGY: 600000 1.9350 10.4236 6.9366 0.0000 -10621.8957 1435.7040 0.0000 0.0000 1766.0119 -7400.8847 299.3760 -9166.8966 -7513.2574 297.3658 20.0897 8.8032 30776.9006 -13.8778 33.6908
ENERGY: 900000 3.7175 12.5035 4.3363 0.0000 -10534.0001 1330.8764 0.0000 0.0000 1764.5550 -7418.0113 299.1290 -9182.5664 -7497.7051 298.3216 -853.8097 -826.3198 30965.3504 -92.7438 -44.9001
ENERGY: 1200000 2.5501 8.6358 4.8421 0.0000 -10536.2185 1346.8639 0.0000 0.0000 1820.9330 -7352.3935 308.6863 -9173.3265 -7481.9183 299.5769 -519.8185 -440.7392 30652.4166 -126.6616 -79.2533
ENERGY: 1500000 5.4854 11.9574 7.0306 0.0000 -10735.5765 1411.8876 0.0000 0.0000 1755.3391 -7543.8765 297.5667 -9299.2155 -7482.9818 299.1610 -322.3806 -187.0051 30032.2720 -160.3482 -108.0092
TCL: Running FEP window  14: Lambda1 0.34999999999999964 Lambda2 0.29999999999999966 [dLambda -0.04999999999999999]
TCL: Setting parameter firsttimestep to 0
TCL: Setting parameter alchLambda to 0.34999999999999964
Info: NONBONDED TABLE R-SQUARED SPACING: 0.0625
Info: NONBONDED TABLE SIZE: 705 POINTS
TCL: Setting parameter alchLambda2 to 0.29999999999999966
Info: NONBONDED TABLE R-SQUARED SPACING: 0.0625
Info: NONBONDED TABLE SIZE: 705 POINTS
TCL: Running for 1500000 steps
ETITLE: TS BOND ANGLE DIHED IMPRP ELECT VDW BOUNDARY MISC KINETIC TOTAL TEMP POTENTIAL TOTALAVG TEMPAVG PRESSURE GPRESSURE VOLUME PRESSAVG GPRESSAVG
ENERGY: 0 5.4854 11.9574 7.0306 0.0000 -10735.5787 1412.3439 0.0000 0.0000 1754.4516 -7544.3099 297.4163 -9298.7615 -7544.3099 297.4163 -285.5130 -186.2667 30032.2720 -285.5130 -186.2667
ENERGY: 300000 2.5750 9.9213 8.0850 0.0000 -10683.2791 1401.8153 0.0000 0.0000 1764.8069 -7496.0755 299.1717 -9260.8825 -7523.6694 300.6462 -425.8206 -347.6109 30324.8216 -252.2177 -158.5332
ENERGY: 600000 2.2643 6.9995 5.3093 0.0000 -10655.3235 1435.3447 0.0000 0.0000 1762.4685 -7442.9372 298.7753 -9205.4057 -7503.2538 300.0776 -487.2684 -382.7019 31177.9981 -292.5103 -220.3457
ENERGY: 900000 0.4819 13.3040 5.1914 0.0000 -10669.0590 1391.6288 0.0000 0.0000 1722.2961 -7536.1569 291.9652 -9258.4530 -7491.0239 299.8324 -386.7540 -358.5000 30364.0698 -176.9015 -105.0601
ENERGY: 1200000 0.5115 9.7097 5.9114 0.0000 -10520.4596 1302.1192 0.0000 0.0000 1746.5796 -7455.6283 296.0818 -9202.2078 -7485.9952 299.3070 -1111.7668 -1070.5507 31204.6936 -290.9003 -221.3894
ENERGY: 1500000 3.3616 10.5520 4.9754 0.0000 -10610.2477 1406.9417 0.0000 0.0000 1772.7222 -7411.6948 300.5135 -9184.4170 -7484.0518 299.1718 -140.1131 -174.2953 30738.6405 -204.5347 -146.2622
TCL: Running FEP window  15: Lambda1 0.29999999999999966 Lambda2 0.24999999999999967 [dLambda -0.04999999999999999]
TCL: Setting parameter firsttimestep to 0
TCL: Setting parameter alchLambda to 0.29999999999999966
Info: NONBONDED TABLE R-SQUARED SPACING: 0.0625
Info: NONBONDED TABLE SIZE: 705 POINTS
TCL: Setting parameter alchLambda2 to 0.24999999999999967
Info: NONBONDED TABLE R-SQUARED SPACING: 0.0625
Info: NONBONDED TABLE SIZE: 705 POINTS
TCL: Running for 1500000 steps
ETITLE: TS BOND ANGLE DIHED IMPRP ELECT VDW BOUNDARY MISC KINETIC TOTAL TEMP POTENTIAL TOTALAVG TEMPAVG PRESSURE GPRESSURE VOLUME PRESSAVG GPRESSAVG
ENERGY: 0 3.3616 10.5520 4.9754 0.0000 -10610.2463 1407.3943 0.0000 0.0000 1771.8087 -7412.1542 300.3587 -9183.9629 -7412.1542 300.3587 -258.5827 -173.5235 30738.6405 -258.5827 -173.5235
ENERGY: 300000 2.4037 10.9859 4.7691 0.0000 -10628.0894 1405.5412 0.0000 0.0000 1740.9439 -7463.4456 295.1264 -9204.3896 -7478.1240 300.2677 -205.6315 -162.3139 30371.8128 -267.9810 -234.1625
ENERGY: 600000 0.5292 9.1121 6.4930 0.0000 -10697.8994 1449.8736 0.0000 0.0000 1763.4153 -7468.4762 298.9358 -9231.8915 -7457.9918 302.4224 100.7559 200.3337 30314.3585 6.2011 60.0407
ENERGY: 900000 3.1960 10.7505 8.6726 0.0000 -10655.7079 1407.4269 0.0000 0.0000 1755.0179 -7470.6440 297.5123 -9225.6619 -7459.5910 301.0087 -201.5872 -120.0533 30301.5041 54.3636 104.2289
ENERGY: 1200000 1.4751 12.2586 4.3802 0.0000 -10519.5948 1298.7198 0.0000 0.0000 1775.7245 -7427.0367 301.0225 -9202.7612 -7464.3357 301.0260 -1081.9856 -999.1891 30952.4324 -123.2988 -71.0499
ENERGY: 1500000 1.7669 10.7704 8.8470 0.0000 -10763.4371 1482.9763 0.0000 0.0000 1739.2817 -7519.7948 294.8447 -9259.0765 -7466.7258 300.4727 305.7463 425.5091 30255.9385 -107.7646 -53.3548
TCL: Running FEP window  16: Lambda1 0.24999999999999967 Lambda2 0.19999999999999968 [dLambda -0.04999999999999999]
TCL: Setting parameter firsttimestep to 0
TCL: Setting parameter alchLambda to 0.24999999999999967
Info: NONBONDED TABLE R-SQUARED SPACING: 0.0625
Info: NONBONDED TABLE SIZE: 705 POINTS
TCL: Setting parameter alchLambda2 to 0.19999999999999968
Info: NONBONDED TABLE R-SQUARED SPACING: 0.0625
Info: NONBONDED TABLE SIZE: 705 POINTS
TCL: Running for 1500000 steps
ETITLE: TS BOND ANGLE DIHED IMPRP ELECT VDW BOUNDARY MISC KINETIC TOTAL TEMP POTENTIAL TOTALAVG TEMPAVG PRESSURE GPRESSURE VOLUME PRESSAVG GPRESSAVG
ENERGY: 0 1.7669 10.7704 8.8470 0.0000 -10763.4382 1483.3353 0.0000 0.0000 1738.4086 -7520.3100 294.6966 -9258.7185 -7520.3100 294.6966 326.7847 423.6958 30255.9385 326.7847 423.6958
ENERGY: 300000 6.6413 5.1308 6.6392 0.0000 -10693.4037 1432.5173 0.0000 0.0000 1815.9132 -7426.5618 307.8353 -9242.4751 -7494.7545 300.0608 -227.4395 -145.3113 30463.2298 161.4551 261.3274
ENERGY: 600000 1.5123 11.0367 7.2362 0.0000 -10520.5057 1342.9346 0.0000 0.0000 1728.8279 -7428.9580 293.0725 -9157.7859 -7482.4194 298.1605 -578.0296 -476.7932 30458.1148 -23.5185 74.8958
ENERGY: 900000 1.6460 10.4453 4.3623 0.0000 -10723.1425 1379.4145 0.0000 0.0000 1821.5567 -7505.7178 308.7920 -9327.2744 -7491.4392 298.1628 -805.4906 -707.9942 30749.2397 -22.9584 67.8526
ENERGY: 1200000 1.4683 6.4943 5.9142 0.0000 -10670.5386 1432.6955 0.0000 0.0000 1779.9045 -7444.0618 301.7311 -9223.9663 -7482.4872 299.0234 -109.4575 35.1421 30474.4435 -45.2521 41.2252
ENERGY: 1500000 2.7644 9.7655 6.8522 0.0000 -10788.6816 1501.0445 0.0000 0.0000 1765.3292 -7502.9259 299.2603 -9268.2551 -7477.8326 299.6059 81.9359 167.2325 30833.6337 -30.2781 54.8441
TCL: Running FEP window  17: Lambda1 0.19999999999999968 Lambda2 0.1499999999999997 [dLambda -0.04999999999999999]
TCL: Setting parameter firsttimestep to 0
TCL: Setting parameter alchLambda to 0.19999999999999968
Info: NONBONDED TABLE R-SQUARED SPACING: 0.0625
Info: NONBONDED TABLE SIZE: 705 POINTS
TCL: Setting parameter alchLambda2 to 0.1499999999999997
Info: NONBONDED TABLE R-SQUARED SPACING: 0.0625
Info: NONBONDED TABLE SIZE: 705 POINTS
TCL: Running for 1500000 steps
ETITLE: TS BOND ANGLE DIHED IMPRP ELECT VDW BOUNDARY MISC KINETIC TOTAL TEMP POTENTIAL TOTALAVG TEMPAVG PRESSURE GPRESSURE VOLUME PRESSAVG GPRESSAVG
ENERGY: 0 2.7644 9.7655 6.8522 0.0000 -10788.6820 1501.1640 0.0000 0.0000 1764.4307 -7503.7053 299.1079 -9268.1359 -7503.7053 299.1079 89.0439 166.1763 30833.6337 89.0439 166.1763
ENERGY: 300000 2.3363 13.7253 7.7999 0.0000 -10688.9858 1382.9070 0.0000 0.0000 1810.2927 -7471.9246 306.8825 -9282.2173 -7466.5256 303.7407 -357.3857 -208.4302 30110.0495 -104.5837 -3.9477
ENERGY: 600000 2.7251 8.2080 5.8368 0.0000 -10771.9283 1428.2715 0.0000 0.0000 1801.6272 -7525.2597 305.4135 -9326.8869 -7497.6811 303.2907 -134.4948 -118.1026 29929.5421 -247.7757 -165.2213
ENERGY: 900000 1.3600 11.8904 9.8434 0.0000 -10668.7539 1368.2680 0.0000 0.0000 1749.1797 -7528.2125 296.5226 -9277.3922 -7500.5056 301.1468 -826.4749 -790.8589 30833.4986 -203.6674 -133.5647
ENERGY: 1200000 1.1131 8.7668 3.8189 0.0000 -10705.2369 1381.3423 0.0000 0.0000 1764.0185 -7546.1773 299.0381 -9310.1958 -7506.4869 300.5326 -611.8649 -531.9338 30484.5145 -306.6769 -235.5101
ENERGY: 1500000 2.9027 15.6629 4.8830 0.0000 -10609.2218 1319.1981 0.0000 0.0000 1789.7296 -7476.8455 303.3966 -9266.5751 -7503.9873 300.9050 -1084.2447 -1041.0803 30471.4852 -378.6701 -309.2681
TCL: Running FEP window  18: Lambda1 0.1499999999999997 Lambda2 0.09999999999999969 [dLambda -0.05 ]
TCL: Setting parameter firsttimestep to 0
TCL: Setting parameter alchLambda to 0.1499999999999997
Info: NONBONDED TABLE R-SQUARED SPACING: 0.0625
Info: NONBONDED TABLE SIZE: 705 POINTS
TCL: Setting parameter alchLambda2 to 0.09999999999999969
Info: NONBONDED TABLE R-SQUARED SPACING: 0.0625
Info: NONBONDED TABLE SIZE: 705 POINTS
TCL: Running for 1500000 steps
ETITLE: TS BOND ANGLE DIHED IMPRP ELECT VDW BOUNDARY MISC KINETIC TOTAL TEMP POTENTIAL TOTALAVG TEMPAVG PRESSURE GPRESSURE VOLUME PRESSAVG GPRESSAVG
ENERGY: 0 2.9027 15.6629 4.8830 0.0000 -10609.2232 1319.1103 0.0000 0.0000 1788.8364 -7477.8279 303.2452 -9266.6643 -7477.8279 303.2452 -1123.4236 -1045.9378 30471.4852 -1123.4236 -1045.9378
ENERGY: 300000 2.3719 13.0630 6.1172 0.0000 -10660.5696 1398.9693 0.0000 0.0000 1793.9346 -7446.1136 304.1095 -9240.0482 -7450.7500 305.0874 -101.1563 -23.5580 30188.8656 -418.5972 -379.2951
ENERGY: 600000 1.5047 8.8039 4.3956 0.0000 -10682.3110 1373.2838 0.0000 0.0000 1801.2897 -7493.0333 305.3563 -9294.3229 -7471.3380 303.5436 -527.3135 -520.4076 30301.1054 -406.3110 -356.9485
ENERGY: 900000 2.1398 11.8101 5.8199 0.0000 -10856.3258 1512.0873 0.0000 0.0000 1814.3719 -7510.0969 307.5740 -9324.4687 -7462.7618 303.6502 252.1367 313.2285 30379.8526 -239.6285 -196.9494
ENERGY: 1200000 0.5560 12.5985 5.4838 0.0000 -10723.7632 1493.7670 0.0000 0.0000 1807.3755 -7403.9824 306.3880 -9211.3578 -7454.7096 304.3364 662.0803 708.6759 30306.9179 -159.2583 -115.2717
ENERGY: 1500000 0.4960 16.5905 9.3024 0.0000 -10555.0542 1333.1627 0.0000 0.0000 1756.1548 -7439.3478 297.7050 -9195.5026 -7455.5595 303.0108 -897.2942 -795.5072 30684.7187 -234.4553 -182.3460
TCL: Running FEP window  19: Lambda1 0.09999999999999969 Lambda2 0.049999999999999684 [dLambda -0.05 ]
TCL: Setting parameter firsttimestep to 0
TCL: Setting parameter alchLambda to 0.09999999999999969
Info: NONBONDED TABLE R-SQUARED SPACING: 0.0625
Info: NONBONDED TABLE SIZE: 705 POINTS
TCL: Setting parameter alchLambda2 to 0.049999999999999684
Info: NONBONDED TABLE R-SQUARED SPACING: 0.0625
Info: NONBONDED TABLE SIZE: 705 POINTS
TCL: Running for 1500000 steps
ETITLE: TS BOND ANGLE DIHED IMPRP ELECT VDW BOUNDARY MISC KINETIC TOTAL TEMP POTENTIAL TOTALAVG TEMPAVG PRESSURE GPRESSURE VOLUME PRESSAVG GPRESSAVG
ENERGY: 0 0.4960 16.5905 9.3024 0.0000 -10555.0556 1332.8907 0.0000 0.0000 1755.3072 -7440.4688 297.5613 -9195.7761 -7440.4688 297.5613 -886.0311 -799.8988 30684.7187 -886.0311 -799.8988
ENERGY: 300000 3.3877 9.5749 6.4689 0.0000 -10750.2518 1454.0253 0.0000 0.0000 1806.1561 -7470.6387 306.1813 -9276.7948 -7483.8936 301.5055 -3.0479 66.5881 30257.4823 -582.7609 -503.7780
ENERGY: 600000 2.6190 6.5966 6.8076 0.0000 -10744.2875 1492.3702 0.0000 0.0000 1779.3740 -7456.5201 301.6411 -9235.8941 -7479.0596 302.1351 361.0746 475.8019 30435.5828 -315.3079 -229.4557
ENERGY: 900000 5.8829 14.8596 7.4237 0.0000 -10838.4903 1514.7381 0.0000 0.0000 1739.6062 -7555.9799 294.8997 -9295.5861 -7498.4538 301.6491 392.6411 439.7732 30330.0440 -97.5778 -29.7552
ENERGY: 1200000 0.4750 12.0305 7.2435 0.0000 -10752.5953 1479.3455 0.0000 0.0000 1772.8298 -7480.6710 300.5318 -9253.5008 -7497.1762 301.4268 106.0863 200.8385 30638.4139 -102.1884 -31.1354
ENERGY: 1500000 2.7412 8.5859 5.7795 0.0000 -10802.1322 1507.3513 0.0000 0.0000 1756.3035 -7521.3708 297.7302 -9277.6743 -7495.0111 301.0805 182.6031 242.9092 30529.3190 -88.8920 -17.6516
TCL: Running FEP window  20: Lambda1 0.049999999999999684 Lambda2 0.0    [dLambda -0.049999999999999684]
TCL: Setting parameter firsttimestep to 0
TCL: Setting parameter alchLambda to 0.049999999999999684
Info: NONBONDED TABLE R-SQUARED SPACING: 0.0625
Info: NONBONDED TABLE SIZE: 705 POINTS
TCL: Setting parameter alchLambda2 to 0.0
Info: NONBONDED TABLE R-SQUARED SPACING: 0.0625
Info: NONBONDED TABLE SIZE: 705 POINTS
TCL: Running for 1500000 steps
ETITLE: TS BOND ANGLE DIHED IMPRP ELECT VDW BOUNDARY MISC KINETIC TOTAL TEMP POTENTIAL TOTALAVG TEMPAVG PRESSURE GPRESSURE VOLUME PRESSAVG GPRESSAVG
ENERGY: 0 2.7412 8.5859 5.7795 0.0000 -10802.1339 1506.3047 0.0000 0.0000 1755.4224 -7523.3002 297.5808 -9278.7226 -7523.3002 297.5808 161.6568 236.3121 30529.3190 161.6568 236.3121
ENERGY: 300000 4.9461 12.0155 7.3247 0.0000 -10650.0653 1413.9357 0.0000 0.0000 1786.7439 -7425.0994 302.8905 -9211.8433 -7473.2927 300.2836 -273.2954 -149.0078 30336.9327 -239.8419 -160.1557
ENERGY: 600000 1.0743 10.9285 6.2362 0.0000 -10677.9315 1398.9321 0.0000 0.0000 1774.2883 -7486.4722 300.7790 -9260.7605 -7487.7997 300.3385 -242.8445 -120.4274 30208.6675 -194.2964 -116.5855
ENERGY: 900000 0.8896 9.6920 10.2442 0.0000 -10712.6628 1428.3603 0.0000 0.0000 1719.5123 -7543.9643 291.4933 -9263.4766 -7496.2554 300.4660 -28.6163 12.2893 30181.9606 -140.2279 -62.2843
ENERGY: 1200000 2.1197 12.8087 7.1929 0.0000 -10856.6836 1502.4395 0.0000 0.0000 1765.4462 -7566.6767 299.2801 -9332.1228 -7498.9316 300.1606 253.3266 268.0567 30225.6629 -97.1005 -34.2161
ENERGY: 1500000 1.3870 8.4760 8.5213 0.0000 -10899.3094 1519.5211 0.0000 0.0000 1746.2719 -7615.1321 296.0296 -9361.4040 -7512.2737 299.7184 577.3056 658.1702 29854.9029 -2.7978 64.1691
TCL: Exiting due to exit command.
