Info: SIMULATION PARAMETERS:
Info: TIMESTEP               2
Info: NUMBER OF STEPS        0
Info: STEPS PER CYCLE        10
Info: PERIODIC CELL BASIS 1  31.7684 0 0
Info: PERIODIC CELL BASIS 2  0 29.5952 0
Info: PERIODIC CELL BASIS 3  0 0 31.9395
Info: PERIODIC CELL CENTER   0 0 0
Info: WRAPPING WATERS AROUND PERIODIC BOUNDARIES ON OUTPUT.
Info: WRAPPING ALL CLUSTERS AROUND PERIODIC BOUNDARIES ON OUTPUT.
Info: FIRST LDB TIMESTEP     50
Info: LAST LDB TIMESTEP     -1
Info: HOM BACKGROUND SCALING 1
Info: PME BACKGROUND SCALING 1
Info: MIN ATOMS PER PATCH    40
Info: EMPTY PATCH LOAD       40 ATOMS
Info: VELOCITY FILE          mobley_5917842_equil.vel
Info: CENTER OF MASS MOVING INITIALLY? NO
Info: DIELECTRIC             1
Info: EXCLUDE                SCALED ONE-FOUR
Info: 1-4 ELECTROSTATICS SCALED BY 0.833333
Info: MODIFIED 1-4 VDW PARAMETERS WILL BE USED
Info: DCD FILENAME           mobley_5917842_prod.dcd
Info: DCD FREQUENCY          100000
Info: DCD FIRST STEP         100000
Info: DCD FILE WILL CONTAIN UNIT CELL DATA
Info: XST FILENAME           mobley_5917842_prod.xst
Info: XST FREQUENCY          100000
Info: NO VELOCITY DCD OUTPUT
Info: NO FORCE DCD OUTPUT
Info: OUTPUT FILENAME        mobley_5917842_prod
Info: BINARY OUTPUT FILES WILL BE USED
Info: RESTART FILENAME       mobley_5917842_prod.restart
Info: RESTART FREQUENCY      100000
Info: BINARY RESTART FILES WILL BE USED
Info: CUTOFF                 9
Info: PAIRLIST DISTANCE      11
Info: PAIRLIST SHRINK RATE   0.01
Info: PAIRLIST GROW RATE     0.01
Info: PAIRLIST TRIGGER       0.3
Info: PAIRLISTS PER CYCLE    2
Info: PAIRLISTS ENABLED
Info: MARGIN                 2
Info: HYDROGEN GROUP CUTOFF  2.5
Info: PATCH DIMENSION        15.5
Info: ENERGY OUTPUT STEPS    100000
Info: ENERGY EVALUATION STEPS    100000
Info: OUTPUT ENERGY PRECISION 4
Info: CROSSTERM ENERGY INCLUDED IN DIHEDRAL
Info: TIMING OUTPUT STEPS    1000000
Info: PRESSURE OUTPUT STEPS  100000
Info: ALCHEMICAL FEP ON
Info: FEP CURRENT LAMBDA VALUE     0
Info: FEP COMPARISON LAMBDA VALUE  0.05
Info: FEP INTRA-ALCHEMICAL NON-BONDED INTERACTIONS WILL BE RETAINED
Info: FEP INTRA-ALCHEMICAL BONDED INTERACTIONS WILL BE RETAINED
Info: FEP VDW SHIFTING COEFFICIENT 5
Info: FEP ELEC. ACTIVE FOR ANNIHILATED PARTICLES BETWEEN LAMBDA = 0 AND LAMBDA = 0.5
Info: FEP ELEC. ACTIVE FOR EXNIHILATED PARTICLES BETWEEN LAMBDA = 0.5 AND LAMBDA = 1
Info: FEP VDW ACTIVE FOR ANNIHILATED PARTICLES BETWEEN LAMBDA = 0 AND LAMBDA = 1
Info: FEP VDW ACTIVE FOR EXNIHILATED PARTICLES BETWEEN LAMBDA = 0 AND LAMBDA = 1
Info: FEP BOND ACTIVE FOR ANNIHILATED PARTICLES BETWEEN LAMBDA = 1 AND LAMBDA = 1
Info: FEP BOND ACTIVE FOR EXNIHILATED PARTICLES BETWEEN LAMBDA = 0 AND LAMBDA = 0
Info: LANGEVIN DYNAMICS ACTIVE
Info: LANGEVIN TEMPERATURE   300
Info: LANGEVIN USING BBK INTEGRATOR
Info: LANGEVIN DAMPING COEFFICIENT IS 1 INVERSE PS
Info: LANGEVIN DYNAMICS APPLIED TO HYDROGENS
Info: LANGEVIN PISTON PRESSURE CONTROL ACTIVE
Info:        TARGET PRESSURE IS 1.01325 BAR
Info:     OSCILLATION PERIOD IS 50 FS
Info:             DECAY TIME IS 25 FS
Info:     PISTON TEMPERATURE IS 300 K
Info:       PRESSURE CONTROL IS GROUP-BASED
Info:    INITIAL STRAIN RATE IS -0.000154785 -0.000154785 -0.000154785
Info:       CELL FLUCTUATION IS ISOTROPIC
Info: PARTICLE MESH EWALD (PME) ACTIVE
Info: PME TOLERANCE               1e-06
Info: PME EWALD COEFFICIENT       0.348832
Info: PME INTERPOLATION ORDER     4
Info: PME GRID DIMENSIONS         32 32 32
Info: PME MAXIMUM GRID SPACING    1
Info: PME CALCULATION WILL BE PERFORMED ON GPU
Info: FULL ELECTROSTATIC EVALUATION FREQUENCY      2
Info: USING VERLET I (r-RESPA) MTS SCHEME.
Info: C1 SPLITTING OF LONG RANGE ELECTROSTATICS
Info: PLACING ATOMS IN PATCHES BY HYDROGEN GROUPS
Info: RIGID BONDS TO HYDROGEN : ALL
Info:         ERROR TOLERANCE : 1e-08
Info:          MAX ITERATIONS : 100
Info: RIGID WATER USING SETTLE ALGORITHM
Info: RANDOM NUMBER SEED     1743793743
Info: USE HYDROGEN BONDS?    NO
Info: Using AMBER format force field!
Info: AMBER PARM FILE        mobley_5917842.prmtop
Info: COORDINATE PDB         mobley_5917842.pdb
Info: Exclusions will be read from PARM file!
Info: SCNB (VDW SCALING)     2
Info: USING ARITHMETIC MEAN TO COMBINE L-J SIGMA PARAMETERS
Info: BINARY COORDINATES     mobley_5917842_equil.coor
Info: SUMMARY OF PARAMETERS:
Info: 11 BONDS
Info: 11 ANGLES
Info:   11 HARMONIC
Info:   0 COSINE-BASED
Info: 5 DIHEDRAL
Info: 0 IMPROPER
Info: 0 CROSSTERM
Info: 0 VDW
Info: 45 VDW_PAIRS
Info: 0 NBTHOLE_PAIRS
Info: To read alchdata from file: mobley_5917842.pdb
Info: To read alchflag data from column: 5
Info: STRUCTURE SUMMARY:
Info: 2936 ATOMS
Info: 2936 BONDS
Info: 32 ANGLES
Info: 43 DIHEDRALS
Info: 0 IMPROPERS
Info: 0 CROSSTERMS
Info: 3002 EXCLUSIONS
Info: 2926 RIGID BONDS
Info: ALCH: 0 ATOMS TO DISAPPEAR IN FINAL STATE
Info: ALCH: 20 ATOMS TO APPEAR IN FINAL STATE
Info: 5882 DEGREES OF FREEDOM
Info: 982 HYDROGEN GROUPS
Info: 4 ATOMS IN LARGEST HYDROGEN GROUP
Info: 982 MIGRATION GROUPS
Info: 4 ATOMS IN LARGEST MIGRATION GROUP
Info: TOTAL MASS = 17649.7 amu
Info: TOTAL CHARGE = -1.49012e-08 e
Info: MASS DENSITY = 0.976005 g/cm^3
Info: ATOM DENSITY = 0.0977713 atoms/A^3
Info: ADDED 0 IMPLICIT EXCLUSIONS
Info: NONBONDED TABLE R-SQUARED SPACING: 0.0625
Info: NONBONDED TABLE SIZE: 705 POINTS
Info: REMOVING COM VELOCITY -0.252744 -0.0921659 -0.139335
Info: Use 3D box decompostion in PME FFT.
Info: Updated CUDA force table with 4096 elements.
Info: Updated CUDA LJ table with 9 x 9 elements.
Info: Found 22 unique exclusion lists needing 60 bytes
TCL: Running for 1500000 steps
ETITLE: TS BOND ANGLE DIHED IMPRP ELECT VDW BOUNDARY MISC KINETIC TOTAL TEMP POTENTIAL TOTALAVG TEMPAVG PRESSURE GPRESSURE VOLUME PRESSAVG GPRESSAVG
ENERGY: 0 3.6284 4.0448 2.7164 0.0000 -10699.3467 1495.8642 0.0000 0.0000 1814.8602 -7378.2325 310.5336 -9193.0928 -7378.2325 310.5336 489.3640 563.5203 30029.2767 489.3640 563.5203
ENERGY: 300000 2.6554 8.6657 5.5960 0.0000 -10631.5800 1462.9287 0.0000 0.0000 1738.8528 -7412.8814 297.5282 -9151.7342 -7432.1036 302.4092 134.0266 246.2666 30230.1625 199.7060 267.7703
ENERGY: 600000 2.6147 4.3454 6.8329 0.0000 -10683.6270 1487.8039 0.0000 0.0000 1735.6790 -7446.3510 296.9852 -9182.0300 -7434.3766 298.8661 463.7242 495.0300 29925.4746 99.2192 167.4590
ENERGY: 900000 3.0198 6.3673 3.9012 0.0000 -10468.7139 1318.2763 0.0000 0.0000 1753.6228 -7383.5264 300.0555 -9137.1492 -7426.6229 299.2566 -837.2838 -799.5328 30222.4020 -64.0463 6.3971
ENERGY: 1200000 8.8791 3.7335 5.6969 0.0000 -10618.8034 1453.0169 0.0000 0.0000 1731.1221 -7416.3549 296.2055 -9147.4769 -7431.0327 299.0085 333.1043 387.4633 30123.2656 -57.7094 0.9539
ENERGY: 1500000 4.1577 9.3247 2.3061 0.0000 -10599.4090 1381.7927 0.0000 0.0000 1708.1957 -7493.6322 292.2826 -9201.8279 -7440.5851 298.9316 -388.4924 -323.6901 29758.7875 -101.7369 -45.4601
TCL: Running FEP window   2: Lambda1 0.05   Lambda2 0.1    [dLambda 0.05  ]
TCL: Setting parameter firsttimestep to 0
TCL: Setting parameter alchLambda to 0.05
Info: NONBONDED TABLE R-SQUARED SPACING: 0.0625
Info: NONBONDED TABLE SIZE: 705 POINTS
TCL: Setting parameter alchLambda2 to 0.1
Info: NONBONDED TABLE R-SQUARED SPACING: 0.0625
Info: NONBONDED TABLE SIZE: 705 POINTS
TCL: Running for 1500000 steps
ETITLE: TS BOND ANGLE DIHED IMPRP ELECT VDW BOUNDARY MISC KINETIC TOTAL TEMP POTENTIAL TOTALAVG TEMPAVG PRESSURE GPRESSURE VOLUME PRESSAVG GPRESSAVG
ENERGY: 0 4.1577 9.3247 2.3061 0.0000 -10599.4081 1384.7815 0.0000 0.0000 1707.3648 -7491.4733 292.1404 -9198.8381 -7491.4733 292.1404 -386.2716 -313.7922 29758.7875 -386.2716 -313.7922
ENERGY: 300000 3.5640 12.7602 5.1013 0.0000 -10807.1850 1563.6895 0.0000 0.0000 1731.2449 -7490.8252 296.2265 -9222.0700 -7476.5378 295.9575 901.9255 949.4576 30011.4613 159.8811 210.1311
ENERGY: 600000 2.7843 7.6918 4.7655 0.0000 -10762.9964 1556.4090 0.0000 0.0000 1680.7246 -7510.6212 287.5821 -9191.3458 -7473.3123 296.4091 761.0954 809.2037 30064.5366 138.5193 190.6206
ENERGY: 900000 3.4579 8.1698 6.0491 0.0000 -10574.5751 1411.1106 0.0000 0.0000 1768.3701 -7377.4176 302.5788 -9145.7877 -7433.2581 299.0745 92.8657 162.5793 29524.4996 172.7161 226.3246
ENERGY: 1200000 2.6963 8.4789 3.2070 0.0000 -10686.9734 1439.7312 0.0000 0.0000 1797.3931 -7435.4669 307.5448 -9232.8600 -7438.2677 299.9079 43.3466 45.7478 30020.0764 41.1723 84.9915
ENERGY: 1500000 1.1621 5.1632 5.1667 0.0000 -10737.2186 1535.8733 0.0000 0.0000 1705.0411 -7484.8122 291.7429 -9189.8533 -7443.0884 298.8349 886.5115 973.5043 29763.2665 46.2085 102.4778
TCL: Running FEP window   3: Lambda1 0.1    Lambda2 0.15000000000000002 [dLambda 0.05000000000000002]
TCL: Setting parameter firsttimestep to 0
TCL: Setting parameter alchLambda to 0.1
Info: NONBONDED TABLE R-SQUARED SPACING: 0.0625
Info: NONBONDED TABLE SIZE: 705 POINTS
TCL: Setting parameter alchLambda2 to 0.15000000000000002
Info: NONBONDED TABLE R-SQUARED SPACING: 0.0625
Info: NONBONDED TABLE SIZE: 705 POINTS
TCL: Running for 1500000 steps
ETITLE: TS BOND ANGLE DIHED IMPRP ELECT VDW BOUNDARY MISC KINETIC TOTAL TEMP POTENTIAL TOTALAVG TEMPAVG PRESSURE GPRESSURE VOLUME PRESSAVG GPRESSAVG
ENERGY: 0 1.1621 5.1632 5.1667 0.0000 -10737.2185 1536.2782 0.0000 0.0000 1704.1764 -7485.2719 291.5949 -9189.4483 -7485.2719 291.5949 891.7330 980.4372 29763.2665 891.7330 980.4372
ENERGY: 300000 6.3867 8.4881 8.2399 0.0000 -10714.5128 1448.3414 0.0000 0.0000 1743.3715 -7499.6852 298.3014 -9243.0567 -7458.3318 299.6787 -247.7035 -99.3577 29861.5356 39.6706 141.2684
ENERGY: 600000 4.2994 8.6597 3.3656 0.0000 -10583.7394 1414.0313 0.0000 0.0000 1765.6927 -7387.6907 302.1207 -9153.3834 -7437.7697 300.8250 -520.8731 -459.9474 30674.1989 -111.0256 -25.4615
ENERGY: 900000 3.1756 8.9744 6.9056 0.0000 -10567.1927 1383.5300 0.0000 0.0000 1722.3427 -7442.2644 294.7032 -9164.6071 -7433.5404 300.6504 -286.5539 -259.8977 29845.8703 -233.6399 -163.1763
ENERGY: 1200000 2.5200 8.0971 2.1583 0.0000 -10706.2191 1513.1402 0.0000 0.0000 1753.6454 -7426.6581 300.0593 -9180.3035 -7440.2395 299.8166 486.7215 564.9613 30300.9567 -89.8036 -10.6751
ENERGY: 1500000 3.9050 7.8289 3.3737 0.0000 -10689.3988 1508.9565 0.0000 0.0000 1723.4731 -7441.8617 294.8967 -9165.3348 -7442.3938 299.2331 800.2627 914.0112 29414.8870 -121.6022 -45.2061
TCL: Running FEP window   4: Lambda1 0.15000000000000002 Lambda2 0.2    [dLambda 0.04999999999999999]
TCL: Setting parameter firsttimestep to 0
TCL: Setting parameter alchLambda to 0.15000000000000002
Info: NONBONDED TABLE R-SQUARED SPACING: 0.0625
Info: NONBONDED TABLE SIZE: 705 POINTS
TCL: Setting parameter alchLambda2 to 0.2
Info: NONBONDED TABLE R-SQUARED SPACING: 0.0625
Info: NONBONDED TABLE SIZE: 705 POINTS
TCL: Running for 1500000 steps
ETITLE: TS BOND ANGLE DIHED IMPRP ELECT VDW BOUNDARY MISC KINETIC TOTAL TEMP POTENTIAL TOTALAVG TEMPAVG PRESSURE GPRESSURE VOLUME PRESSAVG GPRESSAVG
ENERGY: 0 3.9050 7.8289 3.3737 0.0000 -10689.4012 1511.8499 0.0000 0.0000 1722.5849 -7439.8588 294.7447 -9162.4437 -7439.8588 294.7447 851.1244 935.1248 29414.8870 851.1244 935.1248
ENERGY: 300000 4.5410 7.3043 6.3584 0.0000 -10508.6187 1429.1999 0.0000 0.0000 1703.5001 -7357.7151 291.4792 -9061.2151 -7462.1338 296.0130 -140.9371 -27.0446 30311.6356 605.4952 680.5772
ENERGY: 600000 3.6454 5.2832 5.4470 0.0000 -10670.2734 1450.2699 0.0000 0.0000 1817.2595 -7388.3683 310.9441 -9205.6278 -7442.7408 298.7833 -4.6188 47.6742 30179.1136 212.1261 281.5193
ENERGY: 900000 2.2161 7.1337 5.2729 0.0000 -10666.7597 1462.0201 0.0000 0.0000 1698.6806 -7491.4363 290.6545 -9190.1169 -7435.6246 299.0048 203.5556 300.4979 30108.8261 239.7947 300.7629
ENERGY: 1200000 5.7593 11.6670 2.7110 0.0000 -10706.2274 1462.1398 0.0000 0.0000 1771.9113 -7452.0390 303.1847 -9223.9502 -7443.8931 298.9741 155.5676 219.1822 29869.8212 90.9633 149.0743
ENERGY: 1500000 3.1843 12.5252 1.2182 0.0000 -10679.8763 1442.3514 0.0000 0.0000 1741.3593 -7479.2379 297.9571 -9220.5972 -7442.4998 299.1339 -140.6832 -9.8378 29900.2818 6.9933 73.0553
TCL: Running FEP window   5: Lambda1 0.2    Lambda2 0.25   [dLambda 0.04999999999999999]
TCL: Setting parameter firsttimestep to 0
TCL: Setting parameter alchLambda to 0.2
Info: NONBONDED TABLE R-SQUARED SPACING: 0.0625
Info: NONBONDED TABLE SIZE: 705 POINTS
TCL: Setting parameter alchLambda2 to 0.25
Info: NONBONDED TABLE R-SQUARED SPACING: 0.0625
Info: NONBONDED TABLE SIZE: 705 POINTS
TCL: Running for 1500000 steps
ETITLE: TS BOND ANGLE DIHED IMPRP ELECT VDW BOUNDARY MISC KINETIC TOTAL TEMP POTENTIAL TOTALAVG TEMPAVG PRESSURE GPRESSURE VOLUME PRESSAVG GPRESSAVG
ENERGY: 0 3.1843 12.5252 1.2182 0.0000 -10679.8779 1441.9363 0.0000 0.0000 1740.5245 -7480.4894 297.8143 -9221.0139 -7480.4894 297.8143 -85.7739 -6.5748 29900.2818 -85.7739 -6.5748
ENERGY: 300000 4.5499 8.0959 2.1342 0.0000 -10549.6114 1417.7455 0.0000 0.0000 1708.0529 -7409.0332 292.2582 -9117.0860 -7481.4587 296.4176 339.2172 311.8507 29964.9681 -79.4821 -38.9097
ENERGY: 600000 2.2843 7.3584 6.8619 0.0000 -10586.2500 1400.7824 0.0000 0.0000 1796.8500 -7372.1131 307.4519 -9168.9631 -7457.4686 298.1618 -395.2358 -318.4865 30545.2329 -216.4468 -166.5670
ENERGY: 900000 4.8930 5.5940 4.6408 0.0000 -10622.1491 1456.7664 0.0000 0.0000 1769.4245 -7380.8305 302.7592 -9150.2549 -7451.0179 298.3916 -2.3087 79.5035 30256.0413 -159.7647 -96.7637
ENERGY: 1200000 5.3135 8.9722 5.1500 0.0000 -10638.0401 1447.0805 0.0000 0.0000 1704.5999 -7466.9240 291.6674 -9171.5239 -7446.0109 297.7301 99.6764 98.6370 29898.1187 -233.8880 -175.5263
ENERGY: 1500000 2.5755 8.4689 2.9278 0.0000 -10494.6103 1357.1827 0.0000 0.0000 1736.5637 -7386.8917 297.1366 -9123.4554 -7440.7904 297.1423 -525.8634 -422.0435 30260.2242 -221.5175 -156.2369
TCL: Running FEP window   6: Lambda1 0.25   Lambda2 0.3    [dLambda 0.04999999999999999]
TCL: Setting parameter firsttimestep to 0
TCL: Setting parameter alchLambda to 0.25
Info: NONBONDED TABLE R-SQUARED SPACING: 0.0625
Info: NONBONDED TABLE SIZE: 705 POINTS
TCL: Setting parameter alchLambda2 to 0.3
Info: NONBONDED TABLE R-SQUARED SPACING: 0.0625
Info: NONBONDED TABLE SIZE: 705 POINTS
TCL: Running for 1500000 steps
ETITLE: TS BOND ANGLE DIHED IMPRP ELECT VDW BOUNDARY MISC KINETIC TOTAL TEMP POTENTIAL TOTALAVG TEMPAVG PRESSURE GPRESSURE VOLUME PRESSAVG GPRESSAVG
ENERGY: 0 2.5755 8.4689 2.9278 0.0000 -10494.6105 1357.2953 0.0000 0.0000 1735.7059 -7387.6371 296.9898 -9123.3430 -7387.6371 296.9898 -505.3971 -417.4202 30260.2242 -505.3971 -417.4202
ENERGY: 300000 2.2244 8.4731 6.9203 0.0000 -10721.1849 1503.5702 0.0000 0.0000 1791.2906 -7408.7063 306.5007 -9199.9969 -7422.1564 301.3337 541.4073 633.6533 30058.5050 -367.4647 -275.6574
ENERGY: 600000 3.0190 5.1674 3.5873 0.0000 -10610.2571 1404.0347 0.0000 0.0000 1719.4841 -7474.9646 294.2141 -9194.4487 -7441.9611 298.5585 -107.7869 -59.6245 29682.6514 -137.1200 -70.2826
ENERGY: 900000 4.2840 9.8451 3.2874 0.0000 -10722.0878 1478.7368 0.0000 0.0000 1796.7584 -7429.1760 307.4362 -9225.9344 -7429.3078 299.4942 186.0794 195.6088 30574.9711 -81.5995 -21.5499
ENERGY: 1200000 2.5124 11.0452 4.5271 0.0000 -10560.4760 1430.3277 0.0000 0.0000 1775.7104 -7336.3532 303.8348 -9112.0636 -7419.2371 299.7027 32.0462 113.5484 30222.3105 -97.3462 -34.9775
ENERGY: 1500000 3.4722 6.5836 2.4810 0.0000 -10710.5244 1457.4980 0.0000 0.0000 1747.2476 -7493.2420 298.9646 -9240.4896 -7425.2989 299.5279 81.7517 124.0557 30056.8165 -61.8806 4.0642
TCL: Running FEP window   7: Lambda1 0.3    Lambda2 0.35   [dLambda 0.04999999999999999]
TCL: Setting parameter firsttimestep to 0
TCL: Setting parameter alchLambda to 0.3
Info: NONBONDED TABLE R-SQUARED SPACING: 0.0625
Info: NONBONDED TABLE SIZE: 705 POINTS
TCL: Setting parameter alchLambda2 to 0.35
Info: NONBONDED TABLE R-SQUARED SPACING: 0.0625
Info: NONBONDED TABLE SIZE: 705 POINTS
TCL: Running for 1500000 steps
ETITLE: TS BOND ANGLE DIHED IMPRP ELECT VDW BOUNDARY MISC KINETIC TOTAL TEMP POTENTIAL TOTALAVG TEMPAVG PRESSURE GPRESSURE VOLUME PRESSAVG GPRESSAVG
ENERGY: 0 3.4722 6.5836 2.4810 0.0000 -10710.5249 1457.6146 0.0000 0.0000 1746.3716 -7494.0020 298.8147 -9240.3736 -7494.0020 298.8147 60.5527 128.4602 30056.8165 60.5527 128.4602
ENERGY: 300000 1.7230 10.1452 3.0089 0.0000 -10632.6186 1422.0089 0.0000 0.0000 1726.2461 -7469.4865 295.3711 -9195.7326 -7439.1169 300.1267 87.1031 105.4394 29836.6787 174.8687 206.6351
ENERGY: 600000 2.9469 5.4510 7.7358 0.0000 -10524.0759 1412.9975 0.0000 0.0000 1779.5422 -7315.4024 304.4904 -9094.9446 -7420.1818 298.6987 111.3795 168.0040 30117.0668 -27.4681 20.9327
ENERGY: 900000 2.9985 5.4154 3.6592 0.0000 -10641.4439 1406.2466 0.0000 0.0000 1755.7276 -7467.3967 300.4156 -9223.1243 -7416.8962 299.2089 -227.2317 -150.4642 29978.5662 -171.1589 -120.7022
ENERGY: 1200000 2.8017 10.1711 7.9304 0.0000 -10602.7082 1466.4808 0.0000 0.0000 1791.8577 -7323.4666 306.5977 -9115.3243 -7402.8617 299.7227 586.1128 723.4273 29736.2386 -101.1261 -42.1292
ENERGY: 1500000 2.4096 9.2555 5.3142 0.0000 -10585.1901 1423.5349 0.0000 0.0000 1781.2483 -7363.4276 304.7824 -9144.6759 -7404.5268 299.9765 -51.3797 16.2967 30267.4073 -67.9369 -7.8531
TCL: Running FEP window   8: Lambda1 0.35   Lambda2 0.39999999999999997 [dLambda 0.04999999999999999]
TCL: Setting parameter firsttimestep to 0
TCL: Setting parameter alchLambda to 0.35
Info: NONBONDED TABLE R-SQUARED SPACING: 0.0625
Info: NONBONDED TABLE SIZE: 705 POINTS
TCL: Setting parameter alchLambda2 to 0.39999999999999997
Info: NONBONDED TABLE R-SQUARED SPACING: 0.0625
Info: NONBONDED TABLE SIZE: 705 POINTS
TCL: Running for 1500000 steps
ETITLE: TS BOND ANGLE DIHED IMPRP ELECT VDW BOUNDARY MISC KINETIC TOTAL TEMP POTENTIAL TOTALAVG TEMPAVG PRESSURE GPRESSURE VOLUME PRESSAVG GPRESSAVG
ENERGY: 0 2.4096 9.2555 5.3142 0.0000 -10585.1905 1423.1706 0.0000 0.0000 1780.4056 -7364.6351 304.6382 -9145.0407 -7364.6351 304.6382 -58.7585 17.6951 30267.4073 -58.7585 17.6951
ENERGY: 300000 4.1859 5.4484 5.1835 0.0000 -10672.8756 1489.3271 0.0000 0.0000 1734.6298 -7434.1009 296.8057 -9168.7307 -7418.5364 299.8983 42.2416 143.2066 30525.1372 -394.2834 -306.4324
ENERGY: 600000 1.6992 4.1376 7.1733 0.0000 -10781.4914 1501.9047 0.0000 0.0000 1728.4796 -7538.0969 295.7533 -9266.5765 -7415.5519 301.9444 391.7314 443.2274 29795.2646 -218.7912 -146.7874
ENERGY: 900000 6.5985 8.0364 2.9688 0.0000 -10655.0821 1440.4806 0.0000 0.0000 1733.3803 -7463.6175 296.5919 -9196.9978 -7415.0715 300.0156 -127.5575 -77.9819 29958.6775 -247.1490 -186.6253
ENERGY: 1200000 1.4728 5.1254 7.8835 0.0000 -10443.6533 1363.9066 0.0000 0.0000 1744.0472 -7321.2180 298.4170 -9065.2651 -7420.4761 299.8287 -227.2932 -148.9065 30233.8049 -126.3658 -67.9915
ENERGY: 1500000 6.0424 11.2838 5.1520 0.0000 -10674.9184 1453.6628 0.0000 0.0000 1741.7197 -7457.0577 298.0188 -9198.7775 -7422.3922 299.6301 209.5561 222.7401 30039.5917 -127.3716 -70.7153
TCL: Running FEP window   9: Lambda1 0.39999999999999997 Lambda2 0.44999999999999996 [dLambda 0.04999999999999999]
TCL: Setting parameter firsttimestep to 0
TCL: Setting parameter alchLambda to 0.39999999999999997
Info: NONBONDED TABLE R-SQUARED SPACING: 0.0625
Info: NONBONDED TABLE SIZE: 705 POINTS
TCL: Setting parameter alchLambda2 to 0.44999999999999996
Info: NONBONDED TABLE R-SQUARED SPACING: 0.0625
Info: NONBONDED TABLE SIZE: 705 POINTS
TCL: Running for 1500000 steps
ETITLE: TS BOND ANGLE DIHED IMPRP ELECT VDW BOUNDARY MISC KINETIC TOTAL TEMP POTENTIAL TOTALAVG TEMPAVG PRESSURE GPRESSURE VOLUME PRESSAVG GPRESSAVG
ENERGY: 0 6.0424 11.2838 5.1520 0.0000 -10674.9181 1453.2640 0.0000 0.0000 1740.8322 -7458.3437 297.8669 -9199.1759 -7458.3437 297.8669 139.4229 225.6557 30039.5917 139.4229 225.6557
ENERGY: 300000 2.5010 10.7651 2.9136 0.0000 -10727.2900 1455.3657 0.0000 0.0000 1794.3083 -7461.4363 307.0170 -9255.7446 -7450.8647 303.1466 -19.2231 79.3114 29903.7782 274.5959 340.9552
ENERGY: 600000 4.4149 7.4111 6.7876 0.0000 -10656.5177 1487.7407 0.0000 0.0000 1739.3921 -7410.7713 297.6205 -9150.1634 -7433.8919 302.9123 321.1989 384.4300 30198.5357 161.2358 225.5628
ENERGY: 900000 6.8582 10.5224 1.9910 0.0000 -10677.2226 1412.4684 0.0000 0.0000 1731.4461 -7513.9364 296.2609 -9245.3826 -7443.3960 301.5301 -358.3448 -311.9594 30069.4093 -52.2262 7.5565
ENERGY: 1200000 2.7534 7.7622 6.2472 0.0000 -10681.8267 1493.4149 0.0000 0.0000 1774.5542 -7397.0948 303.6370 -9171.6490 -7431.2168 302.3879 693.4005 740.1743 29800.0916 32.6976 87.2190
ENERGY: 1500000 2.3969 3.7750 4.4594 0.0000 -10674.7647 1466.6565 0.0000 0.0000 1722.5944 -7474.8825 294.7463 -9197.4769 -7430.5039 301.5212 517.4282 614.0697 29623.9182 73.1312 129.0328
TCL: Running FEP window  10: Lambda1 0.44999999999999996 Lambda2 0.49999999999999994 [dLambda 0.04999999999999999]
TCL: Setting parameter firsttimestep to 0
TCL: Setting parameter alchLambda to 0.44999999999999996
Info: NONBONDED TABLE R-SQUARED SPACING: 0.0625
Info: NONBONDED TABLE SIZE: 705 POINTS
TCL: Setting parameter alchLambda2 to 0.49999999999999994
Info: NONBONDED TABLE R-SQUARED SPACING: 0.0625
Info: NONBONDED TABLE SIZE: 705 POINTS
TCL: Running for 1500000 steps
ETITLE: TS BOND ANGLE DIHED IMPRP ELECT VDW BOUNDARY MISC KINETIC TOTAL TEMP POTENTIAL TOTALAVG TEMPAVG PRESSURE GPRESSURE VOLUME PRESSAVG GPRESSAVG
ENERGY: 0 2.3969 3.7750 4.4594 0.0000 -10674.7654 1466.9343 0.0000 0.0000 1721.7675 -7475.4324 294.6048 -9197.1999 -7475.4324 294.6048 529.4562 625.2349 29623.9182 529.4562 625.2349
ENERGY: 300000 3.2694 5.7394 1.6364 0.0000 -10636.7689 1421.6891 0.0000 0.0000 1740.0181 -7464.4164 297.7276 -9204.4346 -7434.1197 297.5658 -281.8980 -180.4996 30136.9270 -113.2406 -22.0655
ENERGY: 600000 0.6566 5.5655 8.1858 0.0000 -10683.6302 1424.3143 0.0000 0.0000 1753.2572 -7491.6509 299.9929 -9244.9081 -7424.8815 299.3641 -395.3205 -306.4328 30337.4421 -122.2095 -26.1660
ENERGY: 900000 2.1071 7.0376 2.7224 0.0000 -10647.2704 1423.2899 0.0000 0.0000 1692.5942 -7519.5192 289.6131 -9212.1134 -7436.1504 299.6208 -48.1676 -34.9023 29953.0234 -148.4828 -71.5225
ENERGY: 1200000 2.0304 6.2524 3.0551 0.0000 -10567.9312 1329.1911 0.0000 0.0000 1746.3039 -7481.0982 298.8032 -9227.4021 -7445.8459 298.1741 -1049.6805 -1026.6886 30376.0967 -245.2109 -174.5788
ENERGY: 1500000 3.5514 7.4406 4.5338 0.0000 -10732.6340 1495.4359 0.0000 0.0000 1765.2593 -7456.4129 302.0466 -9221.6723 -7445.6380 298.2666 35.2723 143.3175 30307.8751 -114.6270 -41.2193
TCL: Running FEP window  11: Lambda1 0.49999999999999994 Lambda2 0.5499999999999999 [dLambda 0.04999999999999999]
TCL: Setting parameter firsttimestep to 0
TCL: Setting parameter alchLambda to 0.49999999999999994
Info: NONBONDED TABLE R-SQUARED SPACING: 0.0625
Info: NONBONDED TABLE SIZE: 705 POINTS
TCL: Setting parameter alchLambda2 to 0.5499999999999999
Info: NONBONDED TABLE R-SQUARED SPACING: 0.0625
Info: NONBONDED TABLE SIZE: 705 POINTS
TCL: Running for 1500000 steps
ETITLE: TS BOND ANGLE DIHED IMPRP ELECT VDW BOUNDARY MISC KINETIC TOTAL TEMP POTENTIAL TOTALAVG TEMPAVG PRESSURE GPRESSURE VOLUME PRESSAVG GPRESSAVG
ENERGY: 0 3.5514 7.4406 4.5338 0.0000 -10732.6360 1495.2399 0.0000 0.0000 1764.3958 -7457.4745 301.8988 -9221.8703 -7457.4745 301.8988 56.0498 148.3654 30307.8751 56.0498 148.3654
ENERGY: 300000 2.1566 5.3027 2.5843 0.0000 -10569.8926 1399.5923 0.0000 0.0000 1741.1104 -7419.1464 297.9145 -9160.2568 -7431.5495 301.6066 76.4378 160.8546 29805.3843 102.6754 139.7291
ENERGY: 600000 6.0179 6.5458 4.9443 0.0000 -10720.7054 1487.0306 0.0000 0.0000 1761.7905 -7454.3762 301.4530 -9216.1667 -7417.1223 302.0979 183.9448 263.0255 29898.2161 165.4369 206.1725
ENERGY: 900000 1.4612 6.0140 4.5201 0.0000 -10617.4864 1419.9220 0.0000 0.0000 1786.4466 -7399.1226 305.6718 -9185.5691 -7434.2685 301.6047 -40.2893 -0.1994 30559.4485 100.6090 148.5645
ENERGY: 1200000 3.7797 10.5196 1.7401 0.0000 -10690.0213 1482.3425 0.0000 0.0000 1782.4381 -7409.2014 304.9859 -9191.6395 -7428.9608 301.8385 209.2623 332.7447 30208.5786 69.8505 131.4404
ENERGY: 1500000 6.0824 8.1143 3.7535 0.0000 -10585.5388 1338.1648 0.0000 0.0000 1762.4871 -7466.9367 301.5722 -9229.4238 -7426.0963 302.0038 -747.6426 -709.9789 29807.6875 73.8376 133.1578
TCL: Running FEP window  12: Lambda1 0.5499999999999999 Lambda2 0.6    [dLambda 0.050000000000000044]
TCL: Setting parameter firsttimestep to 0
TCL: Setting parameter alchLambda to 0.5499999999999999
Info: NONBONDED TABLE R-SQUARED SPACING: 0.0625
Info: NONBONDED TABLE SIZE: 705 POINTS
TCL: Setting parameter alchLambda2 to 0.6
Info: NONBONDED TABLE R-SQUARED SPACING: 0.0625
Info: NONBONDED TABLE SIZE: 705 POINTS
TCL: Running for 1500000 steps
ETITLE: TS BOND ANGLE DIHED IMPRP ELECT VDW BOUNDARY MISC KINETIC TOTAL TEMP POTENTIAL TOTALAVG TEMPAVG PRESSURE GPRESSURE VOLUME PRESSAVG GPRESSAVG
ENERGY: 0 6.0824 8.1143 3.7535 0.0000 -10585.3266 1339.3001 0.0000 0.0000 1761.6139 -7466.4624 301.4228 -9228.0763 -7466.4624 301.4228 -766.6559 -689.3637 29807.6875 -766.6559 -689.3637
ENERGY: 300000 3.3656 8.0520 5.1698 0.0000 -10661.0667 1458.3181 0.0000 0.0000 1780.4780 -7405.6832 304.6506 -9186.1612 -7440.2587 304.2342 17.5610 66.1546 30430.8514 -418.8591 -364.6690
ENERGY: 600000 3.2090 11.1310 5.1149 0.0000 -10655.4273 1468.4771 0.0000 0.0000 1716.4353 -7451.0600 293.6925 -9167.4953 -7421.9289 302.3983 249.7533 282.8850 30326.8733 -194.1766 -154.3720
ENERGY: 900000 4.5144 6.2129 3.4591 0.0000 -10546.3167 1459.1570 0.0000 0.0000 1710.6274 -7362.3459 292.6987 -9072.9733 -7417.0897 300.7262 348.6988 424.3854 30345.5628 -29.8260 29.0607
ENERGY: 1200000 2.6961 11.5203 2.5524 0.0000 -10566.8292 1413.4132 0.0000 0.0000 1777.0278 -7359.6193 304.0602 -9136.6471 -7407.1452 300.6763 -448.8330 -360.9980 30736.0280 -47.2419 12.9427
ENERGY: 1500000 4.3787 9.7067 1.4025 0.0000 -10551.0950 1417.5625 0.0000 0.0000 1795.6010 -7322.4437 307.2382 -9118.0447 -7411.4962 300.9498 38.1377 155.2376 30273.7017 -93.3453 -31.5300
TCL: Running FEP window  13: Lambda1 0.6    Lambda2 0.65   [dLambda 0.050000000000000044]
TCL: Setting parameter firsttimestep to 0
TCL: Setting parameter alchLambda to 0.6
Info: NONBONDED TABLE R-SQUARED SPACING: 0.0625
Info: NONBONDED TABLE SIZE: 705 POINTS
TCL: Setting parameter alchLambda2 to 0.65
Info: NONBONDED TABLE R-SQUARED SPACING: 0.0625
Info: NONBONDED TABLE SIZE: 705 POINTS
TCL: Running for 1500000 steps
ETITLE: TS BOND ANGLE DIHED IMPRP ELECT VDW BOUNDARY MISC KINETIC TOTAL TEMP POTENTIAL TOTALAVG TEMPAVG PRESSURE GPRESSURE VOLUME PRESSAVG GPRESSAVG
ENERGY: 0 4.3787 9.7067 1.4025 0.0000 -10551.1954 1416.9373 0.0000 0.0000 1794.7308 -7324.0394 307.0893 -9118.7703 -7324.0394 307.0893 73.7688 157.3526 30273.7017 73.7688 157.3526
ENERGY: 300000 4.0361 7.6305 3.1377 0.0000 -10625.5867 1514.8463 0.0000 0.0000 1798.5228 -7297.4133 307.7381 -9095.9361 -7397.1075 302.3504 1088.6966 1145.8158 29921.5631 15.6431 83.0901
ENERGY: 600000 3.2514 5.7670 2.9931 0.0000 -10477.2123 1324.2267 0.0000 0.0000 1737.5121 -7403.4620 297.2988 -9140.9741 -7404.3253 300.8079 -632.1778 -577.4297 30365.9077 -105.9933 -43.5025
ENERGY: 900000 3.0828 5.8156 6.5564 0.0000 -10694.7652 1471.7071 0.0000 0.0000 1751.7190 -7455.8844 299.7297 -9207.6033 -7406.3357 301.1670 384.8646 441.3324 30034.9382 -74.9482 -11.2668
ENERGY: 1200000 2.8859 10.7335 2.5557 0.0000 -10597.3736 1380.5037 0.0000 0.0000 1759.7352 -7440.9596 301.1013 -9200.6948 -7410.7785 301.0856 -579.4669 -529.7101 30686.1998 -121.4753 -51.7487
ENERGY: 1500000 4.7925 4.5412 5.6169 0.0000 -10709.0229 1448.9629 0.0000 0.0000 1783.3124 -7461.7969 305.1355 -9245.1093 -7411.2581 301.0806 -265.4554 -117.9176 30034.6525 -117.1367 -47.2907
TCL: Running FEP window  14: Lambda1 0.65   Lambda2 0.7000000000000001 [dLambda 0.050000000000000044]
TCL: Setting parameter firsttimestep to 0
TCL: Setting parameter alchLambda to 0.65
Info: NONBONDED TABLE R-SQUARED SPACING: 0.0625
Info: NONBONDED TABLE SIZE: 705 POINTS
TCL: Setting parameter alchLambda2 to 0.7000000000000001
Info: NONBONDED TABLE R-SQUARED SPACING: 0.0625
Info: NONBONDED TABLE SIZE: 705 POINTS
TCL: Running for 1500000 steps
ETITLE: TS BOND ANGLE DIHED IMPRP ELECT VDW BOUNDARY MISC KINETIC TOTAL TEMP POTENTIAL TOTALAVG TEMPAVG PRESSURE GPRESSURE VOLUME PRESSAVG GPRESSAVG
ENERGY: 0 4.7925 4.5412 5.6169 0.0000 -10709.3643 1449.1392 0.0000 0.0000 1782.4515 -7462.8230 304.9882 -9245.2745 -7462.8230 304.9882 -193.4612 -107.1966 30034.6525 -193.4612 -107.1966
ENERGY: 300000 2.9825 8.2548 5.7568 0.0000 -10674.2883 1438.4956 0.0000 0.0000 1785.8537 -7432.9449 305.5704 -9218.7986 -7428.7942 304.1646 272.4802 268.9192 29887.3375 222.3627 273.0582
ENERGY: 600000 5.4157 4.9913 5.7133 0.0000 -10597.1858 1440.6276 0.0000 0.0000 1781.9920 -7358.4460 304.9096 -9140.4379 -7436.7949 303.1121 380.1023 354.9273 30113.1437 111.3866 161.0451
ENERGY: 900000 4.6042 8.8805 7.5221 0.0000 -10531.3728 1405.1597 0.0000 0.0000 1796.3636 -7308.8427 307.3687 -9105.2063 -7423.4315 303.4674 175.5354 240.4981 30291.1627 197.9081 249.4084
ENERGY: 1200000 3.2893 4.6125 2.1731 0.0000 -10585.9848 1373.4039 0.0000 0.0000 1762.4218 -7440.0842 301.5610 -9202.5060 -7428.9931 302.2413 -634.6429 -529.2727 30497.7413 134.3174 198.4257
ENERGY: 1500000 4.2350 9.7973 3.2829 0.0000 -10676.1406 1444.0598 0.0000 0.0000 1748.4093 -7466.3563 299.1634 -9214.7656 -7425.9008 301.7418 114.5667 208.5656 29749.3506 130.6955 199.0217
TCL: Running FEP window  15: Lambda1 0.7000000000000001 Lambda2 0.7500000000000001 [dLambda 0.050000000000000044]
TCL: Setting parameter firsttimestep to 0
TCL: Setting parameter alchLambda to 0.7000000000000001
Info: NONBONDED TABLE R-SQUARED SPACING: 0.0625
Info: NONBONDED TABLE SIZE: 705 POINTS
TCL: Setting parameter alchLambda2 to 0.7500000000000001
Info: NONBONDED TABLE R-SQUARED SPACING: 0.0625
Info: NONBONDED TABLE SIZE: 705 POINTS
TCL: Running for 1500000 steps
ETITLE: TS BOND ANGLE DIHED IMPRP ELECT VDW BOUNDARY MISC KINETIC TOTAL TEMP POTENTIAL TOTALAVG TEMPAVG PRESSURE GPRESSURE VOLUME PRESSAVG GPRESSAVG
ENERGY: 0 4.2350 9.7973 3.2829 0.0000 -10677.1300 1443.8600 0.0000 0.0000 1747.5186 -7468.4361 299.0110 -9215.9548 -7468.4361 299.0110 120.4361 216.1025 29749.3506 120.4361 216.1025
ENERGY: 300000 6.1349 7.6317 3.5831 0.0000 -10605.2127 1403.2661 0.0000 0.0000 1792.6622 -7391.9347 306.7353 -9184.5969 -7475.3515 300.2158 -56.6616 -20.5287 29992.0952 -15.2549 56.1547
ENERGY: 600000 4.2859 10.9389 5.3252 0.0000 -10653.0238 1427.0497 0.0000 0.0000 1752.5061 -7452.9179 299.8644 -9205.4241 -7443.3912 300.2117 -323.4205 -283.9741 30539.7076 174.9560 238.7596
ENERGY: 900000 4.6176 4.7289 3.0355 0.0000 -10620.6615 1412.2653 0.0000 0.0000 1684.8877 -7511.1265 288.2945 -9196.0142 -7442.5595 299.3109 -180.4082 -145.1945 30034.4322 56.2499 118.5628
ENERGY: 1200000 3.9228 7.1466 3.3855 0.0000 -10459.8076 1277.2911 0.0000 0.0000 1709.9244 -7458.1371 292.5784 -9168.0615 -7443.7279 299.0031 -1286.6169 -1230.6644 30548.3799 -147.1299 -91.9888
ENERGY: 1500000 1.9008 9.9550 2.6149 0.0000 -10558.9106 1404.7379 0.0000 0.0000 1781.8332 -7357.8689 304.8824 -9139.7021 -7433.5304 299.5850 -248.5533 -123.7436 30492.4989 -140.4647 -79.7511
TCL: Running FEP window  16: Lambda1 0.7500000000000001 Lambda2 0.8000000000000002 [dLambda 0.050000000000000044]
TCL: Setting parameter firsttimestep to 0
TCL: Setting parameter alchLambda to 0.7500000000000001
Info: NONBONDED TABLE R-SQUARED SPACING: 0.0625
Info: NONBONDED TABLE SIZE: 705 POINTS
TCL: Setting parameter alchLambda2 to 0.8000000000000002
Info: NONBONDED TABLE R-SQUARED SPACING: 0.0625
Info: NONBONDED TABLE SIZE: 705 POINTS
TCL: Running for 1500000 steps
ETITLE: TS BOND ANGLE DIHED IMPRP ELECT VDW BOUNDARY MISC KINETIC TOTAL TEMP POTENTIAL TOTALAVG TEMPAVG PRESSURE GPRESSURE VOLUME PRESSAVG GPRESSAVG
ENERGY: 0 1.9007 9.9550 2.6149 0.0000 -10560.1462 1404.9794 0.0000 0.0000 1780.9765 -7359.7198 304.7358 -9140.6963 -7359.7198 304.7358 -197.3439 -113.6964 30492.4989 -197.3439 -113.6964
ENERGY: 300000 4.7344 7.7368 3.3975 0.0000 -10629.6754 1439.3147 0.0000 0.0000 1768.1165 -7406.3755 302.5354 -9174.4920 -7413.8357 299.9319 -50.7715 21.0687 30211.3185 -240.1930 -166.8256
ENERGY: 600000 4.1405 5.9673 2.1380 0.0000 -10687.1483 1446.3853 0.0000 0.0000 1759.6930 -7468.8243 301.0941 -9228.5172 -7409.9021 302.2184 -162.4976 -108.8368 30423.9130 -206.2599 -139.9021
ENERGY: 900000 1.8361 8.0310 3.1379 0.0000 -10546.7771 1354.1025 0.0000 0.0000 1769.7823 -7409.8873 302.8205 -9179.6696 -7407.4907 302.0134 -316.6825 -231.3945 29727.9723 -201.7662 -127.5133
ENERGY: 1200000 2.8766 8.9386 4.2752 0.0000 -10488.4520 1349.1071 0.0000 0.0000 1786.8686 -7336.3860 305.7440 -9123.2546 -7398.2174 302.1133 -449.2182 -445.5317 30299.8813 -251.6222 -181.5914
ENERGY: 1500000 4.5508 7.7507 2.6935 0.0000 -10605.7169 1408.9653 0.0000 0.0000 1760.4479 -7421.3087 301.2233 -9181.7566 -7412.1514 301.7894 75.0109 38.2950 29831.9777 -156.3745 -92.4983
TCL: Running FEP window  17: Lambda1 0.8000000000000002 Lambda2 0.8500000000000002 [dLambda 0.050000000000000044]
TCL: Setting parameter firsttimestep to 0
TCL: Setting parameter alchLambda to 0.8000000000000002
Info: NONBONDED TABLE R-SQUARED SPACING: 0.0625
Info: NONBONDED TABLE SIZE: 705 POINTS
TCL: Setting parameter alchLambda2 to 0.8500000000000002
Info: NONBONDED TABLE R-SQUARED SPACING: 0.0625
Info: NONBONDED TABLE SIZE: 705 POINTS
TCL: Running for 1500000 steps
ETITLE: TS BOND ANGLE DIHED IMPRP ELECT VDW BOUNDARY MISC KINETIC TOTAL TEMP POTENTIAL TOTALAVG TEMPAVG PRESSURE GPRESSURE VOLUME PRESSAVG GPRESSAVG
ENERGY: 0 4.5508 7.7507 2.6935 0.0000 -10607.2845 1409.2896 0.0000 0.0000 1759.6056 -7423.3943 301.0792 -9182.9999 -7423.3943 301.0792 -18.2553 53.2763 29831.9777 -18.2553 53.2763
ENERGY: 300000 4.0635 4.2092 7.1714 0.0000 -10657.3384 1476.3249 0.0000 0.0000 1705.2395 -7460.3299 291.7768 -9165.5694 -7428.3717 297.3937 356.5142 395.1435 30246.4294 43.4847 80.3593
ENERGY: 600000 3.4828 5.6284 7.4022 0.0000 -10590.3248 1379.9703 0.0000 0.0000 1742.7818 -7451.0594 298.2005 -9193.8411 -7441.9583 298.0952 -429.6658 -355.5476 30018.7792 22.8184 74.2249
ENERGY: 900000 2.4861 10.1449 3.6051 0.0000 -10537.4113 1366.5616 0.0000 0.0000 1755.4664 -7399.1472 300.3709 -9154.6137 -7432.7847 298.4869 -509.9408 -438.2213 30368.2245 -148.3558 -81.3083
ENERGY: 1200000 3.8416 8.2367 8.3192 0.0000 -10651.5221 1414.2025 0.0000 0.0000 1779.2121 -7437.7100 304.4340 -9216.9221 -7439.4175 299.6962 -271.5452 -246.8210 30391.7804 -179.6783 -111.9971
ENERGY: 1500000 1.6624 8.3524 3.8375 0.0000 -10614.0646 1365.0718 0.0000 0.0000 1758.5752 -7476.5654 300.9028 -9235.1405 -7442.8417 299.5212 -456.2467 -422.2865 29969.4998 -275.9462 -207.4382
TCL: Running FEP window  18: Lambda1 0.8500000000000002 Lambda2 0.9000000000000002 [dLambda 0.050000000000000044]
TCL: Setting parameter firsttimestep to 0
TCL: Setting parameter alchLambda to 0.8500000000000002
Info: NONBONDED TABLE R-SQUARED SPACING: 0.0625
Info: NONBONDED TABLE SIZE: 705 POINTS
TCL: Setting parameter alchLambda2 to 0.9000000000000002
Info: NONBONDED TABLE R-SQUARED SPACING: 0.0625
Info: NONBONDED TABLE SIZE: 705 POINTS
TCL: Running for 1500000 steps
ETITLE: TS BOND ANGLE DIHED IMPRP ELECT VDW BOUNDARY MISC KINETIC TOTAL TEMP POTENTIAL TOTALAVG TEMPAVG PRESSURE GPRESSURE VOLUME PRESSAVG GPRESSAVG
ENERGY: 0 1.6624 8.3524 3.8375 0.0000 -10615.2640 1365.0483 0.0000 0.0000 1757.7338 -7478.6297 300.7589 -9236.3634 -7478.6297 300.7589 -487.4337 -412.4935 29969.4998 -487.4337 -412.4935
ENERGY: 300000 3.2391 5.4775 3.6587 0.0000 -10699.6797 1451.5972 0.0000 0.0000 1730.5911 -7505.1161 296.1146 -9235.7072 -7435.8512 302.3957 -141.4920 -68.4062 30290.4551 -98.8563 -36.3413
ENERGY: 600000 3.3404 6.5041 4.8770 0.0000 -10686.3408 1481.5625 0.0000 0.0000 1779.2832 -7410.7736 304.4461 -9190.0568 -7432.1543 302.0977 272.3191 358.8924 30497.2511 155.7794 220.3833
ENERGY: 900000 4.6934 6.6885 6.2024 0.0000 -10539.6410 1397.9738 0.0000 0.0000 1721.3636 -7402.7193 294.5357 -9124.0829 -7430.9944 301.3972 -425.2383 -373.5471 30824.6859 123.7198 180.8897
ENERGY: 1200000 1.8610 6.7109 3.9614 0.0000 -10770.0028 1500.8711 0.0000 0.0000 1752.7904 -7503.8080 299.9130 -9256.5984 -7434.5169 301.3264 114.5123 148.6904 30620.8008 159.1414 215.1719
ENERGY: 1500000 2.1267 7.7672 5.4641 0.0000 -10617.0367 1440.6783 0.0000 0.0000 1754.4476 -7406.5528 300.1966 -9161.0004 -7428.6312 301.6162 481.5330 494.8085 29942.7013 193.9355 245.0768
TCL: Running FEP window  19: Lambda1 0.9000000000000002 Lambda2 0.9500000000000003 [dLambda 0.050000000000000044]
TCL: Setting parameter firsttimestep to 0
TCL: Setting parameter alchLambda to 0.9000000000000002
Info: NONBONDED TABLE R-SQUARED SPACING: 0.0625
Info: NONBONDED TABLE SIZE: 705 POINTS
TCL: Setting parameter alchLambda2 to 0.9500000000000003
Info: NONBONDED TABLE R-SQUARED SPACING: 0.0625
Info: NONBONDED TABLE SIZE: 705 POINTS
TCL: Running for 1500000 steps
ETITLE: TS BOND ANGLE DIHED IMPRP ELECT VDW BOUNDARY MISC KINETIC TOTAL TEMP POTENTIAL TOTALAVG TEMPAVG PRESSURE GPRESSURE VOLUME PRESSAVG GPRESSAVG
ENERGY: 0 2.1267 7.7672 5.4641 0.0000 -10618.2670 1441.3227 0.0000 0.0000 1753.6093 -7407.9770 300.0532 -9161.5863 -7407.9770 300.0532 432.1733 515.2427 29942.7013 432.1733 515.2427
ENERGY: 300000 1.4993 7.7252 3.6973 0.0000 -10620.1465 1401.9185 0.0000 0.0000 1801.0031 -7404.3029 308.1625 -9205.3060 -7400.6297 303.8872 -194.4219 -162.7414 30368.6943 -78.3694 -20.6634
ENERGY: 600000 3.5182 7.2678 2.7903 0.0000 -10530.2436 1351.4247 0.0000 0.0000 1752.8606 -7412.3820 299.9251 -9165.2426 -7390.1102 300.8827 -328.7412 -290.6677 29960.6602 -433.1784 -379.9534
ENERGY: 900000 3.9322 7.1354 1.4209 0.0000 -10436.7960 1343.1900 0.0000 0.0000 1712.8400 -7368.2774 293.0773 -9081.1175 -7380.2002 300.6186 -290.2934 -147.2566 30294.0067 -354.4036 -291.2981
ENERGY: 1200000 3.6489 7.3791 2.8695 0.0000 -10475.4584 1364.2822 0.0000 0.0000 1772.7207 -7324.5580 303.3232 -9097.2786 -7378.2543 300.4205 -440.3579 -301.8695 30305.2060 -379.9012 -313.2132
ENERGY: 1500000 2.3633 5.3721 3.5685 0.0000 -10580.8298 1446.0265 0.0000 0.0000 1782.7539 -7340.7455 305.0400 -9123.4994 -7375.9607 301.0182 288.2156 372.3853 30306.4413 -260.2174 -193.2929
TCL: Running FEP window  20: Lambda1 0.9500000000000003 Lambda2 1.0    [dLambda 0.04999999999999971]
TCL: Setting parameter firsttimestep to 0
TCL: Setting parameter alchLambda to 0.9500000000000003
Info: NONBONDED TABLE R-SQUARED SPACING: 0.0625
Info: NONBONDED TABLE SIZE: 705 POINTS
TCL: Setting parameter alchLambda2 to 1.0
Info: NONBONDED TABLE R-SQUARED SPACING: 0.0625
Info: NONBONDED TABLE SIZE: 705 POINTS
TCL: Running for 1500000 steps
ETITLE: TS BOND ANGLE DIHED IMPRP ELECT VDW BOUNDARY MISC KINETIC TOTAL TEMP POTENTIAL TOTALAVG TEMPAVG PRESSURE GPRESSURE VOLUME PRESSAVG GPRESSAVG
ENERGY: 0 2.3633 5.3721 3.5685 0.0000 -10581.5716 1446.9412 0.0000 0.0000 1781.8885 -7341.4380 304.8919 -9123.3265 -7341.4380 304.8919 329.3706 400.2096 30306.4413 329.3706 400.2096
ENERGY: 300000 2.7629 8.2764 5.1555 0.0000 -10639.7436 1444.2609 0.0000 0.0000 1741.0917 -7438.1962 297.9113 -9179.2879 -7433.6526 300.8731 304.6093 346.1988 30204.9987 354.1565 415.7964
ENERGY: 600000 3.1953 4.9719 8.9603 0.0000 -10720.6570 1554.1562 0.0000 0.0000 1818.8457 -7330.5276 311.2155 -9149.3733 -7430.5265 301.8407 1085.3357 1160.4074 30107.6432 504.2012 557.4397
ENERGY: 900000 1.2464 9.9728 5.2106 0.0000 -10542.9522 1387.0612 0.0000 0.0000 1707.3158 -7432.1454 292.1321 -9139.4612 -7427.6907 301.4579 -86.8878 -15.9801 30076.4082 302.7287 359.8588
ENERGY: 1200000 4.0274 7.1357 3.4217 0.0000 -10660.8901 1494.2486 0.0000 0.0000 1756.7145 -7395.3422 300.5845 -9152.0567 -7441.0106 300.0254 636.0055 688.2907 30061.9732 252.0106 308.1448
ENERGY: 1500000 5.1267 10.7872 5.0489 0.0000 -10696.5283 1435.9602 0.0000 0.0000 1759.0768 -7480.5285 300.9887 -9239.6053 -7449.8091 299.3948 224.3916 276.5745 29923.5455 220.0928 275.7529
TCL: Exiting due to exit command.
