Info: SIMULATION PARAMETERS:
Info: TIMESTEP               2
Info: NUMBER OF STEPS        0
Info: STEPS PER CYCLE        10
Info: PERIODIC CELL BASIS 1  31.6319 0 0
Info: PERIODIC CELL BASIS 2  0 29.7304 0
Info: PERIODIC CELL BASIS 3  0 0 31.2614
Info: PERIODIC CELL CENTER   0 0 0
Info: WRAPPING WATERS AROUND PERIODIC BOUNDARIES ON OUTPUT.
Info: WRAPPING ALL CLUSTERS AROUND PERIODIC BOUNDARIES ON OUTPUT.
Info: FIRST LDB TIMESTEP     50
Info: LAST LDB TIMESTEP     -1
Info: HOM BACKGROUND SCALING 1
Info: PME BACKGROUND SCALING 1
Info: MIN ATOMS PER PATCH    40
Info: EMPTY PATCH LOAD       40 ATOMS
Info: VELOCITY FILE          mobley_6082662_equil.vel
Info: CENTER OF MASS MOVING INITIALLY? NO
Info: DIELECTRIC             1
Info: EXCLUDE                SCALED ONE-FOUR
Info: 1-4 ELECTROSTATICS SCALED BY 0.833333
Info: MODIFIED 1-4 VDW PARAMETERS WILL BE USED
Info: DCD FILENAME           mobley_6082662_prod.dcd
Info: DCD FREQUENCY          100000
Info: DCD FIRST STEP         100000
Info: DCD FILE WILL CONTAIN UNIT CELL DATA
Info: XST FILENAME           mobley_6082662_prod.xst
Info: XST FREQUENCY          100000
Info: NO VELOCITY DCD OUTPUT
Info: NO FORCE DCD OUTPUT
Info: OUTPUT FILENAME        mobley_6082662_prod
Info: BINARY OUTPUT FILES WILL BE USED
Info: RESTART FILENAME       mobley_6082662_prod.restart
Info: RESTART FREQUENCY      100000
Info: BINARY RESTART FILES WILL BE USED
Info: CUTOFF                 9
Info: PAIRLIST DISTANCE      11
Info: PAIRLIST SHRINK RATE   0.01
Info: PAIRLIST GROW RATE     0.01
Info: PAIRLIST TRIGGER       0.3
Info: PAIRLISTS PER CYCLE    2
Info: PAIRLISTS ENABLED
Info: MARGIN                 2
Info: HYDROGEN GROUP CUTOFF  2.5
Info: PATCH DIMENSION        15.5
Info: ENERGY OUTPUT STEPS    100000
Info: ENERGY EVALUATION STEPS    100000
Info: OUTPUT ENERGY PRECISION 4
Info: CROSSTERM ENERGY INCLUDED IN DIHEDRAL
Info: TIMING OUTPUT STEPS    1000000
Info: PRESSURE OUTPUT STEPS  100000
Info: ALCHEMICAL FEP ON
Info: FEP CURRENT LAMBDA VALUE     1
Info: FEP COMPARISON LAMBDA VALUE  0.95
Info: FEP INTRA-ALCHEMICAL NON-BONDED INTERACTIONS WILL BE RETAINED
Info: FEP INTRA-ALCHEMICAL BONDED INTERACTIONS WILL BE RETAINED
Info: FEP VDW SHIFTING COEFFICIENT 5
Info: FEP ELEC. ACTIVE FOR ANNIHILATED PARTICLES BETWEEN LAMBDA = 0 AND LAMBDA = 0.5
Info: FEP ELEC. ACTIVE FOR EXNIHILATED PARTICLES BETWEEN LAMBDA = 0.5 AND LAMBDA = 1
Info: FEP VDW ACTIVE FOR ANNIHILATED PARTICLES BETWEEN LAMBDA = 0 AND LAMBDA = 1
Info: FEP VDW ACTIVE FOR EXNIHILATED PARTICLES BETWEEN LAMBDA = 0 AND LAMBDA = 1
Info: FEP BOND ACTIVE FOR ANNIHILATED PARTICLES BETWEEN LAMBDA = 1 AND LAMBDA = 1
Info: FEP BOND ACTIVE FOR EXNIHILATED PARTICLES BETWEEN LAMBDA = 0 AND LAMBDA = 0
Info: LANGEVIN DYNAMICS ACTIVE
Info: LANGEVIN TEMPERATURE   300
Info: LANGEVIN USING BBK INTEGRATOR
Info: LANGEVIN DAMPING COEFFICIENT IS 1 INVERSE PS
Info: LANGEVIN DYNAMICS APPLIED TO HYDROGENS
Info: LANGEVIN PISTON PRESSURE CONTROL ACTIVE
Info:        TARGET PRESSURE IS 1.01325 BAR
Info:     OSCILLATION PERIOD IS 50 FS
Info:             DECAY TIME IS 25 FS
Info:     PISTON TEMPERATURE IS 300 K
Info:       PRESSURE CONTROL IS GROUP-BASED
Info:    INITIAL STRAIN RATE IS -0.000283378 -0.000283378 -0.000283378
Info:       CELL FLUCTUATION IS ISOTROPIC
Info: PARTICLE MESH EWALD (PME) ACTIVE
Info: PME TOLERANCE               1e-06
Info: PME EWALD COEFFICIENT       0.348832
Info: PME INTERPOLATION ORDER     4
Info: PME GRID DIMENSIONS         32 32 32
Info: PME MAXIMUM GRID SPACING    1
Info: PME CALCULATION WILL BE PERFORMED ON GPU
Info: FULL ELECTROSTATIC EVALUATION FREQUENCY      2
Info: USING VERLET I (r-RESPA) MTS SCHEME.
Info: C1 SPLITTING OF LONG RANGE ELECTROSTATICS
Info: PLACING ATOMS IN PATCHES BY HYDROGEN GROUPS
Info: RIGID BONDS TO HYDROGEN : ALL
Info:         ERROR TOLERANCE : 1e-08
Info:          MAX ITERATIONS : 100
Info: RIGID WATER USING SETTLE ALGORITHM
Info: RANDOM NUMBER SEED     1743759270
Info: USE HYDROGEN BONDS?    NO
Info: Using AMBER format force field!
Info: AMBER PARM FILE        mobley_6082662.prmtop
Info: COORDINATE PDB         mobley_6082662.pdb
Info: Exclusions will be read from PARM file!
Info: SCNB (VDW SCALING)     2
Info: USING ARITHMETIC MEAN TO COMBINE L-J SIGMA PARAMETERS
Info: BINARY COORDINATES     mobley_6082662_equil.coor
Info: SUMMARY OF PARAMETERS:
Info: 8 BONDS
Info: 8 ANGLES
Info:   8 HARMONIC
Info:   0 COSINE-BASED
Info: 4 DIHEDRAL
Info: 0 IMPROPER
Info: 0 CROSSTERM
Info: 0 VDW
Info: 28 VDW_PAIRS
Info: 0 NBTHOLE_PAIRS
Info: To read alchdata from file: mobley_6082662.pdb
Info: To read alchflag data from column: 5
Info: STRUCTURE SUMMARY:
Info: 2917 ATOMS
Info: 2917 BONDS
Info: 24 ANGLES
Info: 39 DIHEDRALS
Info: 0 IMPROPERS
Info: 0 CROSSTERMS
Info: 2970 EXCLUSIONS
Info: 2907 RIGID BONDS
Info: ALCH: 0 ATOMS TO DISAPPEAR IN FINAL STATE
Info: ALCH: 16 ATOMS TO APPEAR IN FINAL STATE
Info: 5844 DEGREES OF FREEDOM
Info: 977 HYDROGEN GROUPS
Info: 3 ATOMS IN LARGEST HYDROGEN GROUP
Info: 977 MIGRATION GROUPS
Info: 3 ATOMS IN LARGEST MIGRATION GROUP
Info: TOTAL MASS = 17559.6 amu
Info: TOTAL CHARGE = -0.00010008 e
Info: MASS DENSITY = 0.991835 g/cm^3
Info: ATOM DENSITY = 0.0992207 atoms/A^3
Info: ADDED 0 IMPLICIT EXCLUSIONS
Info: NONBONDED TABLE R-SQUARED SPACING: 0.0625
Info: NONBONDED TABLE SIZE: 705 POINTS
Info: REMOVING COM VELOCITY -0.120135 0.0546354 -0.195797
Info: Use 3D box decompostion in PME FFT.
Info: Updated CUDA force table with 4096 elements.
Info: Updated CUDA LJ table with 7 x 7 elements.
Info: Found 18 unique exclusion lists needing 40 bytes
TCL: Running for 1500000 steps
ETITLE: TS BOND ANGLE DIHED IMPRP ELECT VDW BOUNDARY MISC KINETIC TOTAL TEMP POTENTIAL TOTALAVG TEMPAVG PRESSURE GPRESSURE VOLUME PRESSAVG GPRESSAVG
ENERGY: 0 2.8657 7.0362 4.6646 0.0000 -10688.0135 1438.6893 0.0000 0.0000 1729.0339 -7505.7238 297.7719 -9234.7578 -7505.7238 297.7719 197.3284 280.4161 29399.1209 197.3284 280.4161
ENERGY: 300000 3.2836 5.4260 2.2524 0.0000 -10598.7769 1428.5188 0.0000 0.0000 1720.5123 -7438.7838 296.3043 -9159.2961 -7461.8616 299.8090 -18.3645 72.0124 30117.3971 -213.1567 -118.3328
ENERGY: 600000 2.2507 2.6125 7.2367 0.0000 -10625.2181 1449.3047 0.0000 0.0000 1698.6426 -7465.1710 292.5379 -9163.8136 -7434.2639 301.8353 449.4648 567.7054 29781.8563 -144.8568 -55.9840
ENERGY: 900000 4.8250 3.3259 6.1127 0.0000 -10562.4469 1401.2990 0.0000 0.0000 1739.8113 -7407.0730 299.6279 -9146.8842 -7440.9387 300.5341 231.6176 316.1250 29500.1708 -68.9196 18.0813
ENERGY: 1200000 1.0663 4.6456 2.1847 0.0000 -10605.8176 1397.3274 0.0000 0.0000 1718.8173 -7481.7763 296.0124 -9200.5936 -7438.1460 299.9648 -327.0164 -263.8384 30209.1375 -128.6704 -47.9392
ENERGY: 1500000 3.9527 4.5317 4.2683 0.0000 -10514.2901 1289.5115 0.0000 0.0000 1813.0663 -7398.9595 312.2438 -9212.0258 -7426.7432 301.1164 -1039.1649 -1002.9765 30334.1139 -125.5193 -47.9970
TCL: Running FEP window   2: Lambda1 0.95   Lambda2 0.8999999999999999 [dLambda -0.050000000000000044]
TCL: Setting parameter firsttimestep to 0
TCL: Setting parameter alchLambda to 0.95
Info: NONBONDED TABLE R-SQUARED SPACING: 0.0625
Info: NONBONDED TABLE SIZE: 705 POINTS
TCL: Setting parameter alchLambda2 to 0.8999999999999999
Info: NONBONDED TABLE R-SQUARED SPACING: 0.0625
Info: NONBONDED TABLE SIZE: 705 POINTS
TCL: Running for 1500000 steps
ETITLE: TS BOND ANGLE DIHED IMPRP ELECT VDW BOUNDARY MISC KINETIC TOTAL TEMP POTENTIAL TOTALAVG TEMPAVG PRESSURE GPRESSURE VOLUME PRESSAVG GPRESSAVG
ENERGY: 0 3.9527 4.5317 4.2683 0.0000 -10512.5122 1289.5701 0.0000 0.0000 1812.2099 -7397.9794 312.0963 -9210.1893 -7397.9794 312.0963 -1093.9033 -1014.3620 30334.1139 -1093.9033 -1014.3620
ENERGY: 300000 2.1511 2.7060 4.7262 0.0000 -10518.2824 1381.4837 0.0000 0.0000 1845.1092 -7282.1063 317.7622 -9127.2154 -7419.9215 306.0182 -232.8205 -133.0901 30455.8353 -469.8127 -383.2389
ENERGY: 600000 3.0295 4.8634 5.0480 0.0000 -10668.2329 1447.6211 0.0000 0.0000 1776.7984 -7430.8726 305.9978 -9207.6710 -7416.0249 306.8819 255.6605 352.1258 29924.3749 -258.9509 -170.8736
ENERGY: 900000 1.3096 5.5966 4.5329 0.0000 -10747.1381 1475.4000 0.0000 0.0000 1757.9745 -7502.3244 302.7560 -9260.2989 -7426.8602 303.7384 358.9531 410.6913 29739.4596 -178.0232 -97.6145
ENERGY: 1200000 2.6094 4.8461 2.0465 0.0000 -10694.9802 1440.8102 0.0000 0.0000 1757.1624 -7487.5056 302.6161 -9244.6680 -7440.6853 302.2218 -101.4408 31.3849 30008.5296 -165.3316 -87.4710
ENERGY: 1500000 2.5704 5.0576 6.2020 0.0000 -10546.2840 1404.3995 0.0000 0.0000 1725.6852 -7402.3692 297.1952 -9128.0544 -7437.7888 301.9085 103.4246 114.9546 30099.5312 -158.7031 -86.6111
TCL: Running FEP window   3: Lambda1 0.8999999999999999 Lambda2 0.8499999999999999 [dLambda -0.050000000000000044]
TCL: Setting parameter firsttimestep to 0
TCL: Setting parameter alchLambda to 0.8999999999999999
Info: NONBONDED TABLE R-SQUARED SPACING: 0.0625
Info: NONBONDED TABLE SIZE: 705 POINTS
TCL: Setting parameter alchLambda2 to 0.8499999999999999
Info: NONBONDED TABLE R-SQUARED SPACING: 0.0625
Info: NONBONDED TABLE SIZE: 705 POINTS
TCL: Running for 1500000 steps
ETITLE: TS BOND ANGLE DIHED IMPRP ELECT VDW BOUNDARY MISC KINETIC TOTAL TEMP POTENTIAL TOTALAVG TEMPAVG PRESSURE GPRESSURE VOLUME PRESSAVG GPRESSAVG
ENERGY: 0 2.5704 5.0576 6.2020 0.0000 -10543.9871 1403.7541 0.0000 0.0000 1724.7842 -7401.6187 297.0400 -9126.4029 -7401.6187 297.0400 11.2625 98.4347 30099.5312 11.2625 98.4347
ENERGY: 300000 3.2674 6.0836 2.1935 0.0000 -10600.7957 1376.8477 0.0000 0.0000 1737.9983 -7474.4050 299.3157 -9212.4034 -7438.8974 294.6745 -579.2556 -504.8331 30270.1865 -265.0749 -176.3242
ENERGY: 600000 4.9304 3.1854 2.4813 0.0000 -10529.4407 1387.3324 0.0000 0.0000 1816.5103 -7315.0010 312.8370 -9131.5113 -7420.1048 298.4854 -70.3328 13.9677 29961.2574 -269.7492 -192.4524
ENERGY: 900000 2.6753 5.2743 4.7980 0.0000 -10695.4944 1466.1085 0.0000 0.0000 1748.4353 -7468.2030 301.1132 -9216.6383 -7431.1613 298.4142 303.5720 350.4818 29994.6988 -231.9487 -164.1086
ENERGY: 1200000 4.4717 3.6602 5.4336 0.0000 -10561.8244 1348.5902 0.0000 0.0000 1783.9520 -7415.7166 307.2298 -9199.6686 -7427.3409 299.4346 -681.4190 -607.1476 30306.9018 -184.8922 -123.6400
ENERGY: 1500000 2.0557 1.9663 5.3367 0.0000 -10647.8567 1439.4255 0.0000 0.0000 1798.8594 -7400.2131 309.7971 -9199.0725 -7423.3741 300.3533 148.9456 139.9119 30021.4053 -163.4848 -114.0771
TCL: Running FEP window   4: Lambda1 0.8499999999999999 Lambda2 0.7999999999999998 [dLambda -0.050000000000000044]
TCL: Setting parameter firsttimestep to 0
TCL: Setting parameter alchLambda to 0.8499999999999999
Info: NONBONDED TABLE R-SQUARED SPACING: 0.0625
Info: NONBONDED TABLE SIZE: 705 POINTS
TCL: Setting parameter alchLambda2 to 0.7999999999999998
Info: NONBONDED TABLE R-SQUARED SPACING: 0.0625
Info: NONBONDED TABLE SIZE: 705 POINTS
TCL: Running for 1500000 steps
ETITLE: TS BOND ANGLE DIHED IMPRP ELECT VDW BOUNDARY MISC KINETIC TOTAL TEMP POTENTIAL TOTALAVG TEMPAVG PRESSURE GPRESSURE VOLUME PRESSAVG GPRESSAVG
ENERGY: 0 2.0557 1.9663 5.3367 0.0000 -10645.8447 1438.6131 0.0000 0.0000 1798.0065 -7399.8665 309.6503 -9197.8730 -7399.8665 309.6503 47.1263 121.3345 30021.4053 47.1263 121.3345
ENERGY: 300000 6.1475 2.9834 4.4365 0.0000 -10630.5274 1396.4640 0.0000 0.0000 1756.6627 -7463.8333 302.5301 -9220.4960 -7426.7592 303.4155 -395.3714 -334.7542 29846.4949 3.9522 86.0508
ENERGY: 600000 3.6289 3.5269 3.0030 0.0000 -10640.8672 1439.1792 0.0000 0.0000 1723.8933 -7467.6359 296.8866 -9191.5292 -7427.0045 303.3886 51.4081 81.9402 30067.9433 -82.7622 -17.4252
ENERGY: 900000 2.6595 4.5512 3.3352 0.0000 -10540.9021 1407.6391 0.0000 0.0000 1731.9825 -7390.7347 298.2797 -9122.7172 -7423.7303 302.4731 -126.3086 -32.8823 30196.8715 27.1373 91.9144
ENERGY: 1200000 2.0159 1.7498 3.7949 0.0000 -10707.2726 1454.8580 0.0000 0.0000 1789.8659 -7454.9880 308.2483 -9244.8539 -7439.1906 301.9741 178.9814 252.5057 29838.3170 60.8551 126.8595
ENERGY: 1500000 4.2171 4.5320 9.5888 0.0000 -10649.3824 1451.9474 0.0000 0.0000 1740.8528 -7438.2444 299.8073 -9179.0972 -7438.7127 301.5311 136.5545 159.5386 29942.8237 -26.4557 38.1909
TCL: Running FEP window   5: Lambda1 0.7999999999999998 Lambda2 0.7499999999999998 [dLambda -0.050000000000000044]
TCL: Setting parameter firsttimestep to 0
TCL: Setting parameter alchLambda to 0.7999999999999998
Info: NONBONDED TABLE R-SQUARED SPACING: 0.0625
Info: NONBONDED TABLE SIZE: 705 POINTS
TCL: Setting parameter alchLambda2 to 0.7499999999999998
Info: NONBONDED TABLE R-SQUARED SPACING: 0.0625
Info: NONBONDED TABLE SIZE: 705 POINTS
TCL: Running for 1500000 steps
ETITLE: TS BOND ANGLE DIHED IMPRP ELECT VDW BOUNDARY MISC KINETIC TOTAL TEMP POTENTIAL TOTALAVG TEMPAVG PRESSURE GPRESSURE VOLUME PRESSAVG GPRESSAVG
ENERGY: 0 4.2171 4.5320 9.5888 0.0000 -10647.0767 1451.2169 0.0000 0.0000 1739.9859 -7437.5360 299.6580 -9177.5220 -7437.5360 299.6580 87.0591 142.4932 29942.8237 87.0591 142.4932
ENERGY: 300000 2.2366 6.5082 6.2597 0.0000 -10486.5719 1310.3753 0.0000 0.0000 1796.7933 -7364.3988 309.4413 -9161.1920 -7404.2047 303.0380 -1005.0097 -936.9163 30295.2276 -302.1611 -223.6722
ENERGY: 600000 4.9344 5.1399 4.4922 0.0000 -10636.6313 1461.7843 0.0000 0.0000 1810.9212 -7349.3592 311.8744 -9160.2805 -7391.9496 303.1067 429.3291 468.3781 29827.8017 -79.6926 -11.1778
ENERGY: 900000 2.2917 3.0844 7.7492 0.0000 -10628.8254 1480.2485 0.0000 0.0000 1698.8727 -7436.5789 292.5776 -9135.4516 -7405.0735 299.8745 403.4862 481.5634 30071.1324 -8.6803 67.7065
ENERGY: 1200000 3.2138 9.5679 5.3704 0.0000 -10605.4945 1391.1688 0.0000 0.0000 1738.5090 -7457.6646 299.4037 -9196.1736 -7411.7484 301.1126 -202.9369 -120.2742 29801.7922 -73.7522 9.3506
ENERGY: 1500000 4.3928 4.1032 7.4155 0.0000 -10715.4317 1500.2196 0.0000 0.0000 1713.8333 -7485.4673 295.1541 -9199.3006 -7416.6262 301.0208 797.6271 870.5530 29520.2100 -47.2412 33.2934
TCL: Running FEP window   6: Lambda1 0.7499999999999998 Lambda2 0.6999999999999997 [dLambda -0.050000000000000044]
TCL: Setting parameter firsttimestep to 0
TCL: Setting parameter alchLambda to 0.7499999999999998
Info: NONBONDED TABLE R-SQUARED SPACING: 0.0625
Info: NONBONDED TABLE SIZE: 705 POINTS
TCL: Setting parameter alchLambda2 to 0.6999999999999997
Info: NONBONDED TABLE R-SQUARED SPACING: 0.0625
Info: NONBONDED TABLE SIZE: 705 POINTS
TCL: Running for 1500000 steps
ETITLE: TS BOND ANGLE DIHED IMPRP ELECT VDW BOUNDARY MISC KINETIC TOTAL TEMP POTENTIAL TOTALAVG TEMPAVG PRESSURE GPRESSURE VOLUME PRESSAVG GPRESSAVG
ENERGY: 0 4.3928 4.1032 7.4155 0.0000 -10713.5797 1499.3040 0.0000 0.0000 1712.9859 -7485.3783 295.0081 -9198.3642 -7485.3783 295.0081 768.7803 855.2472 29520.2100 768.7803 855.2472
ENERGY: 300000 1.4290 4.2427 3.7672 0.0000 -10674.4285 1408.2860 0.0000 0.0000 1698.3435 -7558.3601 292.4864 -9256.7036 -7456.3845 296.7830 -473.4049 -469.3477 30185.4468 -200.7006 -135.5211
ENERGY: 600000 2.8130 1.9789 5.0018 0.0000 -10632.9541 1466.4413 0.0000 0.0000 1747.5551 -7409.1641 300.9616 -9156.7192 -7444.4696 299.0075 461.8096 548.6895 29862.9151 -13.6304 44.9147
ENERGY: 900000 2.5281 7.3324 4.0190 0.0000 -10803.0154 1529.8058 0.0000 0.0000 1788.2879 -7471.0422 307.9765 -9259.3300 -7445.7839 300.0315 740.9450 816.9016 29696.3036 147.3926 200.5012
ENERGY: 1200000 3.6234 4.9425 4.2797 0.0000 -10561.8745 1356.4212 0.0000 0.0000 1806.6623 -7385.9454 311.1409 -9192.6077 -7443.3301 300.7339 -712.5691 -567.2790 30370.8913 53.2241 116.9812
ENERGY: 1500000 6.1714 5.0963 2.0481 0.0000 -10689.7573 1450.2656 0.0000 0.0000 1751.1845 -7474.9915 301.5866 -9226.1760 -7444.6912 299.9004 -25.5230 45.6621 30235.2818 35.5175 102.2791
TCL: Running FEP window   7: Lambda1 0.6999999999999997 Lambda2 0.6499999999999997 [dLambda -0.050000000000000044]
TCL: Setting parameter firsttimestep to 0
TCL: Setting parameter alchLambda to 0.6999999999999997
Info: NONBONDED TABLE R-SQUARED SPACING: 0.0625
Info: NONBONDED TABLE SIZE: 705 POINTS
TCL: Setting parameter alchLambda2 to 0.6499999999999997
Info: NONBONDED TABLE R-SQUARED SPACING: 0.0625
Info: NONBONDED TABLE SIZE: 705 POINTS
TCL: Running for 1500000 steps
ETITLE: TS BOND ANGLE DIHED IMPRP ELECT VDW BOUNDARY MISC KINETIC TOTAL TEMP POTENTIAL TOTALAVG TEMPAVG PRESSURE GPRESSURE VOLUME PRESSAVG GPRESSAVG
ENERGY: 0 6.1714 5.0963 2.0481 0.0000 -10688.0666 1450.6155 0.0000 0.0000 1750.3351 -7473.8002 301.4403 -9224.1353 -7473.8002 301.4403 -35.0138 48.0132 30235.2818 -35.0138 48.0132
ENERGY: 300000 4.2177 9.3596 3.9296 0.0000 -10469.9174 1367.5546 0.0000 0.0000 1764.8505 -7320.0054 303.9402 -9084.8559 -7438.8041 296.4585 -135.7988 -118.4909 29980.6681 -153.3987 -116.0745
ENERGY: 600000 2.9961 3.8139 5.2079 0.0000 -10622.3312 1428.9526 0.0000 0.0000 1806.6870 -7374.6737 311.1452 -9181.3607 -7403.2230 298.9704 288.8662 324.7385 29778.0497 -213.0783 -170.1872
ENERGY: 900000 3.2570 2.3738 7.0864 0.0000 -10643.6174 1421.1230 0.0000 0.0000 1753.0035 -7456.7737 301.8999 -9209.7772 -7411.8089 299.7805 -69.9728 -6.1252 30153.5378 -212.4290 -166.9093
ENERGY: 1200000 5.1709 6.3667 6.8192 0.0000 -10469.8229 1358.3956 0.0000 0.0000 1744.1363 -7348.9342 300.3728 -9093.0705 -7407.2213 300.1757 -407.7064 -337.3151 30268.8481 -230.4374 -180.8833
ENERGY: 1500000 4.8390 6.1651 6.0004 0.0000 -10535.1654 1426.2162 0.0000 0.0000 1753.6457 -7338.2990 302.0105 -9091.9447 -7399.1601 300.9811 232.6688 210.9862 30193.2961 -171.0396 -117.4875
TCL: Running FEP window   8: Lambda1 0.6499999999999997 Lambda2 0.5999999999999996 [dLambda -0.050000000000000044]
TCL: Setting parameter firsttimestep to 0
TCL: Setting parameter alchLambda to 0.6499999999999997
Info: NONBONDED TABLE R-SQUARED SPACING: 0.0625
Info: NONBONDED TABLE SIZE: 705 POINTS
TCL: Setting parameter alchLambda2 to 0.5999999999999996
Info: NONBONDED TABLE R-SQUARED SPACING: 0.0625
Info: NONBONDED TABLE SIZE: 705 POINTS
TCL: Running for 1500000 steps
ETITLE: TS BOND ANGLE DIHED IMPRP ELECT VDW BOUNDARY MISC KINETIC TOTAL TEMP POTENTIAL TOTALAVG TEMPAVG PRESSURE GPRESSURE VOLUME PRESSAVG GPRESSAVG
ENERGY: 0 4.8390 6.1651 6.0004 0.0000 -10534.4611 1426.0790 0.0000 0.0000 1752.7954 -7338.5822 301.8641 -9091.3776 -7338.5822 301.8641 128.2918 201.0197 30193.2961 128.2918 201.0197
ENERGY: 300000 2.0709 3.0695 3.3278 0.0000 -10569.7236 1387.0510 0.0000 0.0000 1738.7557 -7435.4488 299.4462 -9174.2045 -7387.1655 305.8600 -26.9363 14.9845 29857.3657 268.2003 309.6848
ENERGY: 600000 7.5219 3.9731 2.4713 0.0000 -10647.0302 1413.6999 0.0000 0.0000 1714.3156 -7505.0483 295.2371 -9219.3639 -7411.6191 303.2302 -317.0532 -256.0351 29963.9797 -56.1681 -5.9799
ENERGY: 900000 5.3488 3.3557 2.9959 0.0000 -10622.9107 1486.9668 0.0000 0.0000 1781.6427 -7342.6008 306.8321 -9124.2435 -7413.0634 303.1658 798.0759 852.8340 29625.4611 49.8788 101.0644
ENERGY: 1200000 3.3018 3.9569 3.0392 0.0000 -10568.7137 1424.3712 0.0000 0.0000 1693.2132 -7440.8313 291.6029 -9134.0445 -7415.4168 301.6466 86.4781 107.8039 29817.2308 8.7956 56.1302
ENERGY: 1500000 2.1265 4.3802 3.8702 0.0000 -10696.9336 1449.7787 0.0000 0.0000 1754.2422 -7482.5358 302.1132 -9236.7780 -7410.4876 302.4718 197.6358 249.5421 29453.9997 76.3845 127.2936
TCL: Running FEP window   9: Lambda1 0.5999999999999996 Lambda2 0.5499999999999996 [dLambda -0.050000000000000044]
TCL: Setting parameter firsttimestep to 0
TCL: Setting parameter alchLambda to 0.5999999999999996
Info: NONBONDED TABLE R-SQUARED SPACING: 0.0625
Info: NONBONDED TABLE SIZE: 705 POINTS
TCL: Setting parameter alchLambda2 to 0.5499999999999996
Info: NONBONDED TABLE R-SQUARED SPACING: 0.0625
Info: NONBONDED TABLE SIZE: 705 POINTS
TCL: Running for 1500000 steps
ETITLE: TS BOND ANGLE DIHED IMPRP ELECT VDW BOUNDARY MISC KINETIC TOTAL TEMP POTENTIAL TOTALAVG TEMPAVG PRESSURE GPRESSURE VOLUME PRESSAVG GPRESSAVG
ENERGY: 0 2.1265 4.3802 3.8702 0.0000 -10696.0147 1450.1527 0.0000 0.0000 1753.3741 -7482.1110 301.9637 -9235.4852 -7482.1110 301.9637 159.4462 245.8087 29453.9997 159.4462 245.8087
ENERGY: 300000 2.3943 4.1528 6.9091 0.0000 -10658.2090 1453.5903 0.0000 0.0000 1745.6294 -7445.5331 300.6299 -9191.1626 -7453.2736 299.4073 360.8320 468.3401 29664.7750 354.0035 451.4589
ENERGY: 600000 5.2570 4.2643 7.5755 0.0000 -10575.2422 1400.2598 0.0000 0.0000 1791.0005 -7366.8850 308.4437 -9157.8856 -7453.3963 298.8939 -141.5117 -66.7491 29987.0996 267.5317 352.3510
ENERGY: 900000 2.0594 6.4196 4.9074 0.0000 -10671.3381 1504.6769 0.0000 0.0000 1809.6363 -7343.6384 311.6531 -9153.2748 -7435.2453 301.4792 521.0570 556.5488 30203.1778 280.1603 352.9626
ENERGY: 1200000 4.8583 4.1640 4.7927 0.0000 -10545.0606 1355.3921 0.0000 0.0000 1698.0343 -7477.8192 292.4332 -9175.8535 -7437.0393 300.2710 -815.0686 -754.3096 30128.1044 201.8825 267.1209
ENERGY: 1500000 1.4579 2.7391 3.2744 0.0000 -10666.0395 1454.9579 0.0000 0.0000 1757.8234 -7445.7869 302.7300 -9203.6103 -7440.1814 299.9100 166.7328 230.3963 29970.4596 171.8008 236.2337
TCL: Running FEP window  10: Lambda1 0.5499999999999996 Lambda2 0.4999999999999996 [dLambda -0.04999999999999999]
TCL: Setting parameter firsttimestep to 0
TCL: Setting parameter alchLambda to 0.5499999999999996
Info: NONBONDED TABLE R-SQUARED SPACING: 0.0625
Info: NONBONDED TABLE SIZE: 705 POINTS
TCL: Setting parameter alchLambda2 to 0.4999999999999996
Info: NONBONDED TABLE R-SQUARED SPACING: 0.0625
Info: NONBONDED TABLE SIZE: 705 POINTS
TCL: Running for 1500000 steps
ETITLE: TS BOND ANGLE DIHED IMPRP ELECT VDW BOUNDARY MISC KINETIC TOTAL TEMP POTENTIAL TOTALAVG TEMPAVG PRESSURE GPRESSURE VOLUME PRESSAVG GPRESSAVG
ENERGY: 0 1.4579 2.7391 3.2744 0.0000 -10665.0668 1454.5086 0.0000 0.0000 1756.9467 -7446.1401 302.5790 -9203.0868 -7446.1401 302.5790 143.1120 219.0713 29970.4596 143.1120 219.0713
ENERGY: 300000 5.7160 3.4385 4.5966 0.0000 -10588.7811 1421.9295 0.0000 0.0000 1704.3471 -7448.7534 293.5204 -9153.1005 -7441.2740 298.6842 -118.6776 16.8368 30001.0931 -200.0461 -121.4252
ENERGY: 600000 2.8703 4.4051 1.8557 0.0000 -10654.9631 1482.5725 0.0000 0.0000 1759.9044 -7403.3550 303.0884 -9163.2594 -7413.8914 300.4341 598.3523 620.6091 29956.1712 53.1407 113.3857
ENERGY: 900000 4.5488 4.8424 3.1631 0.0000 -10572.0482 1398.2457 0.0000 0.0000 1737.3018 -7423.9463 299.1958 -9161.2481 -7415.2440 299.8483 -253.8123 -237.4683 30145.3635 15.8110 79.8140
ENERGY: 1200000 3.2700 1.9428 3.2682 0.0000 -10512.7886 1348.5196 0.0000 0.0000 1729.7282 -7426.0596 297.8915 -9155.7879 -7418.1189 299.8912 -564.6069 -559.5969 29996.4106 -3.1382 57.8775
ENERGY: 1500000 2.8306 4.3664 1.4716 0.0000 -10727.2202 1466.9311 0.0000 0.0000 1709.0938 -7542.5267 294.3378 -9251.6205 -7425.0927 299.8716 1.3902 52.3723 30079.3016 30.9305 88.9091
TCL: Running FEP window  11: Lambda1 0.4999999999999996 Lambda2 0.4499999999999996 [dLambda -0.04999999999999999]
TCL: Setting parameter firsttimestep to 0
TCL: Setting parameter alchLambda to 0.4999999999999996
Info: NONBONDED TABLE R-SQUARED SPACING: 0.0625
Info: NONBONDED TABLE SIZE: 705 POINTS
TCL: Setting parameter alchLambda2 to 0.4499999999999996
Info: NONBONDED TABLE R-SQUARED SPACING: 0.0625
Info: NONBONDED TABLE SIZE: 705 POINTS
TCL: Running for 1500000 steps
ETITLE: TS BOND ANGLE DIHED IMPRP ELECT VDW BOUNDARY MISC KINETIC TOTAL TEMP POTENTIAL TOTALAVG TEMPAVG PRESSURE GPRESSURE VOLUME PRESSAVG GPRESSAVG
ENERGY: 0 2.8306 4.3664 1.4716 0.0000 -10726.9085 1467.6548 0.0000 0.0000 1708.1897 -7542.3954 294.1821 -9250.5850 -7542.3954 294.1821 -23.9098 53.6590 30079.3016 -23.9098 53.6590
ENERGY: 300000 3.9352 4.7485 6.9135 0.0000 -10607.2080 1409.8087 0.0000 0.0000 1730.0527 -7451.7494 297.9473 -9181.8021 -7456.4685 296.9834 -459.8023 -363.6222 30549.0640 -146.5080 -68.9363
ENERGY: 600000 4.9649 7.5039 3.3604 0.0000 -10524.9010 1386.9601 0.0000 0.0000 1732.0260 -7390.0857 298.2872 -9122.1117 -7460.8513 296.4303 -272.9921 -231.2129 29952.6995 -109.5452 -32.0882
ENERGY: 900000 4.0937 4.5171 6.9131 0.0000 -10558.5367 1407.3486 0.0000 0.0000 1763.0761 -7372.5881 303.6346 -9135.6642 -7435.8400 298.6817 -46.5719 24.9719 30321.0082 -117.4291 -48.3649
ENERGY: 1200000 4.6893 2.2804 4.4174 0.0000 -10529.3246 1391.0826 0.0000 0.0000 1738.8848 -7387.9702 299.4684 -9126.8549 -7427.8228 298.9702 -333.7629 -269.9757 30474.4391 -145.7999 -78.5795
ENERGY: 1500000 3.1899 7.0022 3.9918 0.0000 -10656.2517 1458.6092 0.0000 0.0000 1733.7492 -7449.7094 298.5840 -9183.4587 -7433.8194 298.9851 230.4852 206.3189 29838.8250 -52.1791 8.8121
TCL: Running FEP window  12: Lambda1 0.4499999999999996 Lambda2 0.39999999999999963 [dLambda -0.04999999999999999]
TCL: Setting parameter firsttimestep to 0
TCL: Setting parameter alchLambda to 0.4499999999999996
Info: NONBONDED TABLE R-SQUARED SPACING: 0.0625
Info: NONBONDED TABLE SIZE: 705 POINTS
TCL: Setting parameter alchLambda2 to 0.39999999999999963
Info: NONBONDED TABLE R-SQUARED SPACING: 0.0625
Info: NONBONDED TABLE SIZE: 705 POINTS
TCL: Running for 1500000 steps
ETITLE: TS BOND ANGLE DIHED IMPRP ELECT VDW BOUNDARY MISC KINETIC TOTAL TEMP POTENTIAL TOTALAVG TEMPAVG PRESSURE GPRESSURE VOLUME PRESSAVG GPRESSAVG
ENERGY: 0 3.1899 7.0022 3.9918 0.0000 -10656.2527 1458.3894 0.0000 0.0000 1732.8876 -7450.7918 298.4356 -9183.6794 -7450.7918 298.4356 124.5242 196.7585 29838.8250 124.5242 196.7585
ENERGY: 300000 3.5599 2.7255 9.6344 0.0000 -10683.3211 1479.9222 0.0000 0.0000 1753.2154 -7434.2636 301.9364 -9187.4791 -7428.5812 300.1363 662.3981 686.9004 29635.0606 110.8524 171.7956
ENERGY: 600000 3.8871 3.0077 7.5907 0.0000 -10503.6064 1325.6091 0.0000 0.0000 1711.7754 -7451.7364 294.7996 -9163.5118 -7445.0891 297.9550 -656.8709 -607.6113 29899.5333 -91.2326 -35.3627
ENERGY: 900000 3.8414 4.2682 2.4736 0.0000 -10720.2703 1511.8282 0.0000 0.0000 1752.1498 -7445.7090 301.7529 -9197.8589 -7439.5039 299.2944 529.8518 614.4060 30059.4526 -15.3527 52.7386
ENERGY: 1200000 5.5948 4.7077 4.2463 0.0000 -10486.7384 1379.5255 0.0000 0.0000 1767.0806 -7325.5836 304.3242 -9092.6641 -7430.0786 300.9683 -747.3016 -663.1601 30692.2753 49.6923 114.3711
ENERGY: 1500000 5.3277 3.7386 1.8619 0.0000 -10593.7682 1418.5703 0.0000 0.0000 1704.2675 -7460.0023 293.5066 -9164.2697 -7436.2398 300.0844 -116.2902 -47.3408 30157.3001 -14.4922 44.2182
TCL: Running FEP window  13: Lambda1 0.39999999999999963 Lambda2 0.34999999999999964 [dLambda -0.04999999999999999]
TCL: Setting parameter firsttimestep to 0
TCL: Setting parameter alchLambda to 0.39999999999999963
Info: NONBONDED TABLE R-SQUARED SPACING: 0.0625
Info: NONBONDED TABLE SIZE: 705 POINTS
TCL: Setting parameter alchLambda2 to 0.34999999999999964
Info: NONBONDED TABLE R-SQUARED SPACING: 0.0625
Info: NONBONDED TABLE SIZE: 705 POINTS
TCL: Running for 1500000 steps
ETITLE: TS BOND ANGLE DIHED IMPRP ELECT VDW BOUNDARY MISC KINETIC TOTAL TEMP POTENTIAL TOTALAVG TEMPAVG PRESSURE GPRESSURE VOLUME PRESSAVG GPRESSAVG
ENERGY: 0 5.3277 3.7386 1.8619 0.0000 -10593.7682 1418.2957 0.0000 0.0000 1703.4189 -7461.1253 293.3605 -9164.5443 -7461.1253 293.3605 -135.6102 -57.1154 30157.3001 -135.6102 -57.1154
ENERGY: 300000 3.6734 6.8066 6.5240 0.0000 -10611.2900 1455.9692 0.0000 0.0000 1739.7199 -7398.5969 299.6122 -9138.3168 -7393.7069 302.2728 312.1300 386.9544 29987.6283 -11.4414 56.4042
ENERGY: 600000 4.3443 4.2487 3.4171 0.0000 -10585.2391 1411.3174 0.0000 0.0000 1784.3179 -7377.5937 307.2928 -9161.9116 -7367.6807 304.9000 -69.4983 -48.9316 30029.4579 7.9307 60.9788
ENERGY: 900000 2.2744 1.6191 4.5620 0.0000 -10501.0853 1396.1789 0.0000 0.0000 1743.3905 -7353.0605 300.2444 -9096.4510 -7358.2386 305.5306 -273.0495 -169.4635 30011.4698 79.9084 143.2465
ENERGY: 1200000 3.6314 3.5872 3.4845 0.0000 -10571.1364 1329.1484 0.0000 0.0000 1763.8415 -7467.4434 303.7664 -9231.2849 -7380.9300 304.1239 -569.3432 -536.1266 29755.4025 100.7405 157.0564
ENERGY: 1500000 10.0589 4.4120 5.6533 0.0000 -10530.7150 1384.0861 0.0000 0.0000 1704.4875 -7422.0172 293.5445 -9126.5047 -7383.7351 303.7116 -79.7674 -80.7458 29477.0822 28.6140 84.8908
TCL: Running FEP window  14: Lambda1 0.34999999999999964 Lambda2 0.29999999999999966 [dLambda -0.04999999999999999]
TCL: Setting parameter firsttimestep to 0
TCL: Setting parameter alchLambda to 0.34999999999999964
Info: NONBONDED TABLE R-SQUARED SPACING: 0.0625
Info: NONBONDED TABLE SIZE: 705 POINTS
TCL: Setting parameter alchLambda2 to 0.29999999999999966
Info: NONBONDED TABLE R-SQUARED SPACING: 0.0625
Info: NONBONDED TABLE SIZE: 705 POINTS
TCL: Running for 1500000 steps
ETITLE: TS BOND ANGLE DIHED IMPRP ELECT VDW BOUNDARY MISC KINETIC TOTAL TEMP POTENTIAL TOTALAVG TEMPAVG PRESSURE GPRESSURE VOLUME PRESSAVG GPRESSAVG
ENERGY: 0 10.0589 4.4120 5.6533 0.0000 -10530.7145 1384.4773 0.0000 0.0000 1703.5834 -7422.5297 293.3888 -9126.1131 -7422.5297 293.3888 -162.3228 -87.0310 29477.0822 -162.3228 -87.0310
ENERGY: 300000 8.2812 3.8335 3.8224 0.0000 -10497.8164 1309.5254 0.0000 0.0000 1773.8456 -7398.5084 305.4893 -9172.3539 -7422.1831 302.7885 -1065.0267 -952.2542 29990.0027 -270.2098 -211.9502
ENERGY: 600000 4.3285 1.6379 4.0555 0.0000 -10576.6824 1451.6281 0.0000 0.0000 1757.4254 -7357.6070 302.6614 -9115.0325 -7404.1446 302.8998 337.4797 401.8957 29813.3835 -40.6908 20.5808
ENERGY: 900000 2.1814 2.6618 3.6373 0.0000 -10583.9238 1405.4696 0.0000 0.0000 1728.1383 -7441.8355 297.6176 -9169.9737 -7401.7759 302.9540 -322.8335 -225.3338 30356.0348 -102.9115 -40.5496
ENERGY: 1200000 4.8145 4.3746 5.1395 0.0000 -10606.0671 1443.7001 0.0000 0.0000 1754.0787 -7393.9597 302.0851 -9148.0384 -7390.8549 302.4872 -136.8922 -65.6096 30075.8199 -93.1292 -23.9217
ENERGY: 1500000 1.3622 3.2396 3.4924 0.0000 -10650.4656 1413.9195 0.0000 0.0000 1758.0363 -7470.4156 302.7666 -9228.4519 -7400.2925 301.7918 -435.2671 -353.8231 30347.8796 -113.8264 -45.1777
TCL: Running FEP window  15: Lambda1 0.29999999999999966 Lambda2 0.24999999999999967 [dLambda -0.04999999999999999]
TCL: Setting parameter firsttimestep to 0
TCL: Setting parameter alchLambda to 0.29999999999999966
Info: NONBONDED TABLE R-SQUARED SPACING: 0.0625
Info: NONBONDED TABLE SIZE: 705 POINTS
TCL: Setting parameter alchLambda2 to 0.24999999999999967
Info: NONBONDED TABLE R-SQUARED SPACING: 0.0625
Info: NONBONDED TABLE SIZE: 705 POINTS
TCL: Running for 1500000 steps
ETITLE: TS BOND ANGLE DIHED IMPRP ELECT VDW BOUNDARY MISC KINETIC TOTAL TEMP POTENTIAL TOTALAVG TEMPAVG PRESSURE GPRESSURE VOLUME PRESSAVG GPRESSAVG
ENERGY: 0 1.3622 3.2396 3.4924 0.0000 -10650.4658 1413.9705 0.0000 0.0000 1757.1455 -7471.2556 302.6132 -9228.4011 -7471.2556 302.6132 -436.5772 -358.9006 30347.8796 -436.5772 -358.9006
ENERGY: 300000 3.3854 3.7802 8.5206 0.0000 -10572.7128 1398.7909 0.0000 0.0000 1719.4362 -7438.7995 296.1190 -9158.2357 -7441.1063 298.7088 -315.2111 -254.1546 30146.9598 -524.9796 -450.2034
ENERGY: 600000 4.5779 5.0488 6.5655 0.0000 -10713.7420 1493.1331 0.0000 0.0000 1721.5465 -7482.8702 296.4824 -9204.4167 -7440.2865 299.6310 419.7930 455.3605 29988.5514 -196.6593 -131.6477
ENERGY: 900000 4.2030 2.5910 3.2283 0.0000 -10587.7228 1389.0320 0.0000 0.0000 1750.4671 -7438.2013 301.4631 -9188.6685 -7434.2546 301.3886 -616.8673 -550.8190 30127.3991 -262.3670 -197.9373
ENERGY: 1200000 2.3472 1.4395 3.7300 0.0000 -10464.9879 1309.0516 0.0000 0.0000 1750.2752 -7398.1444 301.4300 -9148.4196 -7424.5629 301.2956 -1136.1839 -1080.9860 30541.4289 -300.1416 -242.4404
ENERGY: 1500000 1.9160 4.1763 8.2069 0.0000 -10622.8481 1468.4083 0.0000 0.0000 1715.1810 -7424.9596 295.3862 -9140.1406 -7429.7430 300.1598 388.5479 459.8778 30260.3562 -249.7290 -193.4606
TCL: Running FEP window  16: Lambda1 0.24999999999999967 Lambda2 0.19999999999999968 [dLambda -0.04999999999999999]
TCL: Setting parameter firsttimestep to 0
TCL: Setting parameter alchLambda to 0.24999999999999967
Info: NONBONDED TABLE R-SQUARED SPACING: 0.0625
Info: NONBONDED TABLE SIZE: 705 POINTS
TCL: Setting parameter alchLambda2 to 0.19999999999999968
Info: NONBONDED TABLE R-SQUARED SPACING: 0.0625
Info: NONBONDED TABLE SIZE: 705 POINTS
TCL: Running for 1500000 steps
ETITLE: TS BOND ANGLE DIHED IMPRP ELECT VDW BOUNDARY MISC KINETIC TOTAL TEMP POTENTIAL TOTALAVG TEMPAVG PRESSURE GPRESSURE VOLUME PRESSAVG GPRESSAVG
ENERGY: 0 1.9160 4.1763 8.2069 0.0000 -10622.8497 1468.8279 0.0000 0.0000 1714.3363 -7425.3864 295.2407 -9139.7227 -7425.3864 295.2407 377.5466 457.4879 30260.3562 377.5466 457.4879
ENERGY: 300000 2.7870 6.1700 2.3503 0.0000 -10452.5593 1309.7271 0.0000 0.0000 1737.4528 -7394.0722 299.2218 -9131.5250 -7402.4392 300.5466 -626.2615 -618.4985 29928.4875 -262.1193 -212.1480
ENERGY: 600000 3.3500 4.7534 3.8629 0.0000 -10457.8280 1368.9718 0.0000 0.0000 1726.3358 -7350.5541 297.3072 -9076.8899 -7421.6682 298.4004 -457.4488 -392.9555 30241.0978 -143.3794 -95.2079
ENERGY: 900000 2.7469 4.5096 2.7561 0.0000 -10625.0570 1441.4656 0.0000 0.0000 1795.6762 -7377.9026 309.2489 -9173.5788 -7422.9403 299.5669 -132.2144 -83.0655 30063.8214 -116.5744 -68.2143
ENERGY: 1200000 2.8385 4.4828 5.0661 0.0000 -10590.5771 1371.9817 0.0000 0.0000 1720.5370 -7485.6709 296.3086 -9206.2080 -7438.2374 298.8224 -305.5590 -346.1113 29656.6984 -77.0743 -36.6482
ENERGY: 1500000 3.1334 4.6484 1.2875 0.0000 -10682.1570 1396.9344 0.0000 0.0000 1708.6402 -7567.5132 294.2597 -9276.1534 -7447.9843 298.5684 -548.6239 -459.0875 29580.2565 -139.6950 -94.9615
TCL: Running FEP window  17: Lambda1 0.19999999999999968 Lambda2 0.1499999999999997 [dLambda -0.04999999999999999]
TCL: Setting parameter firsttimestep to 0
TCL: Setting parameter alchLambda to 0.19999999999999968
Info: NONBONDED TABLE R-SQUARED SPACING: 0.0625
Info: NONBONDED TABLE SIZE: 705 POINTS
TCL: Setting parameter alchLambda2 to 0.1499999999999997
Info: NONBONDED TABLE R-SQUARED SPACING: 0.0625
Info: NONBONDED TABLE SIZE: 705 POINTS
TCL: Running for 1500000 steps
ETITLE: TS BOND ANGLE DIHED IMPRP ELECT VDW BOUNDARY MISC KINETIC TOTAL TEMP POTENTIAL TOTALAVG TEMPAVG PRESSURE GPRESSURE VOLUME PRESSAVG GPRESSAVG
ENERGY: 0 3.1334 4.6484 1.2875 0.0000 -10682.1584 1397.5881 0.0000 0.0000 1707.7720 -7567.7291 294.1102 -9275.5011 -7567.7291 294.1102 -543.5532 -460.3596 29580.2565 -543.5532 -460.3596
ENERGY: 300000 4.0178 5.6516 4.7105 0.0000 -10551.7579 1392.1122 0.0000 0.0000 1709.1243 -7436.1416 294.3431 -9145.2659 -7441.5951 298.3307 -317.0699 -283.3306 29917.7146 -365.4028 -317.9459
ENERGY: 600000 5.3496 2.1712 5.4432 0.0000 -10770.4510 1548.0904 0.0000 0.0000 1699.5227 -7509.8738 292.6895 -9209.3965 -7444.0906 297.4267 802.3374 869.4483 29588.0000 -57.4895 -6.6939
ENERGY: 900000 0.4856 5.7994 5.0154 0.0000 -10759.2242 1451.6547 0.0000 0.0000 1726.3104 -7569.9588 297.3028 -9296.2691 -7434.9254 299.2918 359.3198 401.9054 29092.9039 -7.9740 38.2763
ENERGY: 1200000 4.5691 3.3055 9.2571 0.0000 -10795.8537 1544.0576 0.0000 0.0000 1726.3274 -7508.3370 297.3058 -9234.6644 -7441.6540 298.4134 736.5268 780.1846 29776.9089 -81.5612 -30.7733
ENERGY: 1500000 2.0786 5.6058 6.0195 0.0000 -10557.6189 1415.3233 0.0000 0.0000 1724.1256 -7404.4660 296.9266 -9128.5917 -7427.9766 299.1236 19.1258 106.5796 29879.2535 -5.3703 39.8605
TCL: Running FEP window  18: Lambda1 0.1499999999999997 Lambda2 0.09999999999999969 [dLambda -0.05 ]
TCL: Setting parameter firsttimestep to 0
TCL: Setting parameter alchLambda to 0.1499999999999997
Info: NONBONDED TABLE R-SQUARED SPACING: 0.0625
Info: NONBONDED TABLE SIZE: 705 POINTS
TCL: Setting parameter alchLambda2 to 0.09999999999999969
Info: NONBONDED TABLE R-SQUARED SPACING: 0.0625
Info: NONBONDED TABLE SIZE: 705 POINTS
TCL: Running for 1500000 steps
ETITLE: TS BOND ANGLE DIHED IMPRP ELECT VDW BOUNDARY MISC KINETIC TOTAL TEMP POTENTIAL TOTALAVG TEMPAVG PRESSURE GPRESSURE VOLUME PRESSAVG GPRESSAVG
ENERGY: 0 2.0786 5.6058 6.0195 0.0000 -10557.6184 1415.9100 0.0000 0.0000 1723.2217 -7404.7828 296.7709 -9128.0045 -7404.7828 296.7709 26.2310 104.7824 29879.2535 26.2310 104.7824
ENERGY: 300000 2.8574 4.9410 4.8177 0.0000 -10497.8780 1399.0154 0.0000 0.0000 1699.7241 -7386.5224 292.7242 -9086.2465 -7427.8899 295.9380 -240.7816 -229.7071 30265.8520 -237.2782 -184.9113
ENERGY: 600000 2.7184 7.6570 1.9185 0.0000 -10626.0767 1472.8929 0.0000 0.0000 1724.7652 -7416.1246 297.0367 -9140.8899 -7394.3579 298.1189 533.8857 561.3579 29814.8726 -91.4987 -55.9279
ENERGY: 900000 3.4628 3.8205 4.7825 0.0000 -10610.9543 1425.6990 0.0000 0.0000 1715.4300 -7457.7595 295.4290 -9173.1896 -7411.2730 298.1015 -93.9826 -60.1577 30250.2957 -152.8840 -113.5110
ENERGY: 1200000 1.4155 3.1639 4.6396 0.0000 -10629.7561 1405.5661 0.0000 0.0000 1724.5137 -7490.4572 296.9934 -9214.9709 -7404.9081 298.0364 -26.9260 18.6060 29198.3021 -222.2751 -182.7584
ENERGY: 1500000 4.8636 7.3350 4.4039 0.0000 -10675.3122 1497.3640 0.0000 0.0000 1770.1044 -7391.2414 304.8450 -9161.3458 -7409.2833 298.5745 673.9834 695.7835 29846.3615 -76.5039 -39.9710
TCL: Running FEP window  19: Lambda1 0.09999999999999969 Lambda2 0.049999999999999684 [dLambda -0.05 ]
TCL: Setting parameter firsttimestep to 0
TCL: Setting parameter alchLambda to 0.09999999999999969
Info: NONBONDED TABLE R-SQUARED SPACING: 0.0625
Info: NONBONDED TABLE SIZE: 705 POINTS
TCL: Setting parameter alchLambda2 to 0.049999999999999684
Info: NONBONDED TABLE R-SQUARED SPACING: 0.0625
Info: NONBONDED TABLE SIZE: 705 POINTS
TCL: Running for 1500000 steps
ETITLE: TS BOND ANGLE DIHED IMPRP ELECT VDW BOUNDARY MISC KINETIC TOTAL TEMP POTENTIAL TOTALAVG TEMPAVG PRESSURE GPRESSURE VOLUME PRESSAVG GPRESSAVG
ENERGY: 0 4.8636 7.3350 4.4039 0.0000 -10675.3117 1496.7008 0.0000 0.0000 1769.2202 -7392.7882 304.6927 -9162.0084 -7392.7882 304.6927 604.9096 690.5599 29846.3615 604.9096 690.5599
ENERGY: 300000 2.4320 3.8366 5.6387 0.0000 -10565.9816 1417.1409 0.0000 0.0000 1736.3687 -7400.5648 299.0351 -9136.9335 -7436.6618 300.6377 -272.9240 -203.8637 30358.9830 277.4268 336.3301
ENERGY: 600000 6.1679 4.4768 1.8660 0.0000 -10759.2697 1540.2902 0.0000 0.0000 1788.9277 -7417.5411 308.0867 -9206.4688 -7432.0623 302.7993 700.6254 803.7051 29446.6407 283.4025 350.0165
ENERGY: 900000 3.0867 7.0948 2.8299 0.0000 -10620.3274 1429.6396 0.0000 0.0000 1746.6994 -7430.9770 300.8142 -9177.6765 -7419.8703 302.0647 -254.8920 -211.6461 29743.3489 75.1525 149.4319
ENERGY: 1200000 1.7072 5.0638 4.5717 0.0000 -10668.7324 1523.4047 0.0000 0.0000 1677.9377 -7456.0473 288.9722 -9133.9850 -7417.7316 300.6521 653.3524 774.8416 29978.9877 68.0982 147.9190
ENERGY: 1500000 3.7789 6.0601 4.1635 0.0000 -10520.1169 1392.0869 0.0000 0.0000 1761.6636 -7352.3640 303.3913 -9114.0275 -7416.2434 300.9268 -367.4607 -382.1748 30172.9556 100.8021 174.0933
TCL: Running FEP window  20: Lambda1 0.049999999999999684 Lambda2 0.0    [dLambda -0.049999999999999684]
TCL: Setting parameter firsttimestep to 0
TCL: Setting parameter alchLambda to 0.049999999999999684
Info: NONBONDED TABLE R-SQUARED SPACING: 0.0625
Info: NONBONDED TABLE SIZE: 705 POINTS
TCL: Setting parameter alchLambda2 to 0.0
Info: NONBONDED TABLE R-SQUARED SPACING: 0.0625
Info: NONBONDED TABLE SIZE: 705 POINTS
TCL: Running for 1500000 steps
ETITLE: TS BOND ANGLE DIHED IMPRP ELECT VDW BOUNDARY MISC KINETIC TOTAL TEMP POTENTIAL TOTALAVG TEMPAVG PRESSURE GPRESSURE VOLUME PRESSAVG GPRESSAVG
ENERGY: 0 3.7788 6.0601 4.1635 0.0000 -10520.1176 1392.1117 0.0000 0.0000 1760.7946 -7353.2088 303.2417 -9114.0034 -7353.2088 303.2417 -468.6449 -384.1174 30172.9556 -468.6449 -384.1174
ENERGY: 300000 5.0556 5.1818 7.3726 0.0000 -10671.3302 1511.5569 0.0000 0.0000 1781.6726 -7360.4908 306.8372 -9142.1634 -7387.3913 301.9150 817.8960 868.6111 29704.5739 164.1476 215.3568
ENERGY: 600000 1.3834 3.1544 2.6503 0.0000 -10522.6103 1390.4340 0.0000 0.0000 1739.2210 -7385.7672 299.5263 -9124.9882 -7391.6305 301.0268 -201.1843 -158.9859 30121.0394 30.8961 82.0168
ENERGY: 900000 3.1280 7.7542 1.1988 0.0000 -10638.3302 1476.8381 0.0000 0.0000 1797.0237 -7352.3875 309.4810 -9149.4112 -7390.3777 300.7068 488.0986 556.5833 30086.2013 66.7413 122.2530
ENERGY: 1200000 3.9951 1.9077 5.1200 0.0000 -10640.3505 1474.8137 0.0000 0.0000 1722.8598 -7431.6543 296.7086 -9154.5141 -7402.1352 300.1141 410.8936 445.0413 29737.1449 108.7637 168.2460
ENERGY: 1500000 3.2132 9.8595 6.2473 0.0000 -10647.1782 1427.4711 0.0000 0.0000 1690.0285 -7510.3586 291.0544 -9200.3871 -7412.2754 299.5366 63.0546 139.4775 29676.4579 146.6142 202.0955
TCL: Exiting due to exit command.
