Info: SIMULATION PARAMETERS:
Info: TIMESTEP               2
Info: NUMBER OF STEPS        0
Info: STEPS PER CYCLE        10
Info: PERIODIC CELL BASIS 1  29.8416 0 0
Info: PERIODIC CELL BASIS 2  0 30.1028 0
Info: PERIODIC CELL BASIS 3  0 0 34.4438
Info: PERIODIC CELL CENTER   0 0 0
Info: WRAPPING WATERS AROUND PERIODIC BOUNDARIES ON OUTPUT.
Info: WRAPPING ALL CLUSTERS AROUND PERIODIC BOUNDARIES ON OUTPUT.
Info: FIRST LDB TIMESTEP     50
Info: LAST LDB TIMESTEP     -1
Info: HOM BACKGROUND SCALING 1
Info: PME BACKGROUND SCALING 1
Info: MIN ATOMS PER PATCH    40
Info: EMPTY PATCH LOAD       40 ATOMS
Info: VELOCITY FILE          mobley_8823527_equil.vel
Info: CENTER OF MASS MOVING INITIALLY? NO
Info: DIELECTRIC             1
Info: EXCLUDE                SCALED ONE-FOUR
Info: 1-4 ELECTROSTATICS SCALED BY 0.833333
Info: MODIFIED 1-4 VDW PARAMETERS WILL BE USED
Info: DCD FILENAME           mobley_8823527_prod.dcd
Info: DCD FREQUENCY          100000
Info: DCD FIRST STEP         100000
Info: DCD FILE WILL CONTAIN UNIT CELL DATA
Info: XST FILENAME           mobley_8823527_prod.xst
Info: XST FREQUENCY          100000
Info: NO VELOCITY DCD OUTPUT
Info: NO FORCE DCD OUTPUT
Info: OUTPUT FILENAME        mobley_8823527_prod
Info: BINARY OUTPUT FILES WILL BE USED
Info: RESTART FILENAME       mobley_8823527_prod.restart
Info: RESTART FREQUENCY      100000
Info: BINARY RESTART FILES WILL BE USED
Info: CUTOFF                 9
Info: PAIRLIST DISTANCE      11
Info: PAIRLIST SHRINK RATE   0.01
Info: PAIRLIST GROW RATE     0.01
Info: PAIRLIST TRIGGER       0.3
Info: PAIRLISTS PER CYCLE    2
Info: PAIRLISTS ENABLED
Info: MARGIN                 2
Info: HYDROGEN GROUP CUTOFF  2.5
Info: PATCH DIMENSION        15.5
Info: ENERGY OUTPUT STEPS    100000
Info: ENERGY EVALUATION STEPS    100000
Info: OUTPUT ENERGY PRECISION 4
Info: CROSSTERM ENERGY INCLUDED IN DIHEDRAL
Info: TIMING OUTPUT STEPS    1000000
Info: PRESSURE OUTPUT STEPS  100000
Info: ALCHEMICAL FEP ON
Info: FEP CURRENT LAMBDA VALUE     0
Info: FEP COMPARISON LAMBDA VALUE  0.05
Info: FEP INTRA-ALCHEMICAL NON-BONDED INTERACTIONS WILL BE RETAINED
Info: FEP INTRA-ALCHEMICAL BONDED INTERACTIONS WILL BE RETAINED
Info: FEP VDW SHIFTING COEFFICIENT 5
Info: FEP ELEC. ACTIVE FOR ANNIHILATED PARTICLES BETWEEN LAMBDA = 0 AND LAMBDA = 0.5
Info: FEP ELEC. ACTIVE FOR EXNIHILATED PARTICLES BETWEEN LAMBDA = 0.5 AND LAMBDA = 1
Info: FEP VDW ACTIVE FOR ANNIHILATED PARTICLES BETWEEN LAMBDA = 0 AND LAMBDA = 1
Info: FEP VDW ACTIVE FOR EXNIHILATED PARTICLES BETWEEN LAMBDA = 0 AND LAMBDA = 1
Info: FEP BOND ACTIVE FOR ANNIHILATED PARTICLES BETWEEN LAMBDA = 1 AND LAMBDA = 1
Info: FEP BOND ACTIVE FOR EXNIHILATED PARTICLES BETWEEN LAMBDA = 0 AND LAMBDA = 0
Info: LANGEVIN DYNAMICS ACTIVE
Info: LANGEVIN TEMPERATURE   300
Info: LANGEVIN USING BBK INTEGRATOR
Info: LANGEVIN DAMPING COEFFICIENT IS 1 INVERSE PS
Info: LANGEVIN DYNAMICS APPLIED TO HYDROGENS
Info: LANGEVIN PISTON PRESSURE CONTROL ACTIVE
Info:        TARGET PRESSURE IS 1.01325 BAR
Info:     OSCILLATION PERIOD IS 50 FS
Info:             DECAY TIME IS 25 FS
Info:     PISTON TEMPERATURE IS 300 K
Info:       PRESSURE CONTROL IS GROUP-BASED
Info:    INITIAL STRAIN RATE IS -0.000223328 -0.000223328 -0.000223328
Info:       CELL FLUCTUATION IS ISOTROPIC
Info: PARTICLE MESH EWALD (PME) ACTIVE
Info: PME TOLERANCE               1e-06
Info: PME EWALD COEFFICIENT       0.348832
Info: PME INTERPOLATION ORDER     4
Info: PME GRID DIMENSIONS         32 32 36
Info: PME MAXIMUM GRID SPACING    1
Info: PME CALCULATION WILL BE PERFORMED ON GPU
Info: FULL ELECTROSTATIC EVALUATION FREQUENCY      2
Info: USING VERLET I (r-RESPA) MTS SCHEME.
Info: C1 SPLITTING OF LONG RANGE ELECTROSTATICS
Info: PLACING ATOMS IN PATCHES BY HYDROGEN GROUPS
Info: RIGID BONDS TO HYDROGEN : ALL
Info:         ERROR TOLERANCE : 1e-08
Info:          MAX ITERATIONS : 100
Info: RIGID WATER USING SETTLE ALGORITHM
Info: RANDOM NUMBER SEED     1743810046
Info: USE HYDROGEN BONDS?    NO
Info: Using AMBER format force field!
Info: AMBER PARM FILE        mobley_8823527.prmtop
Info: COORDINATE PDB         mobley_8823527.pdb
Info: Exclusions will be read from PARM file!
Info: SCNB (VDW SCALING)     2
Info: USING ARITHMETIC MEAN TO COMBINE L-J SIGMA PARAMETERS
Info: BINARY COORDINATES     mobley_8823527_equil.coor
Info: SUMMARY OF PARAMETERS:
Info: 7 BONDS
Info: 8 ANGLES
Info:   8 HARMONIC
Info:   0 COSINE-BASED
Info: 3 DIHEDRAL
Info: 0 IMPROPER
Info: 0 CROSSTERM
Info: 0 VDW
Info: 15 VDW_PAIRS
Info: 0 NBTHOLE_PAIRS
Info: To read alchdata from file: mobley_8823527.pdb
Info: To read alchflag data from column: 5
Info: STRUCTURE SUMMARY:
Info: 2941 ATOMS
Info: 2942 BONDS
Info: 36 ANGLES
Info: 64 DIHEDRALS
Info: 0 IMPROPERS
Info: 0 CROSSTERMS
Info: 3024 EXCLUSIONS
Info: 2924 RIGID BONDS
Info: ALCH: 0 ATOMS TO DISAPPEAR IN FINAL STATE
Info: ALCH: 22 ATOMS TO APPEAR IN FINAL STATE
Info: 5899 DEGREES OF FREEDOM
Info: 990 HYDROGEN GROUPS
Info: 3 ATOMS IN LARGEST HYDROGEN GROUP
Info: 990 MIGRATION GROUPS
Info: 3 ATOMS IN LARGEST MIGRATION GROUP
Info: TOTAL MASS = 17856 amu
Info: TOTAL CHARGE = 2.79397e-08 e
Info: MASS DENSITY = 0.958305 g/cm^3
Info: ATOM DENSITY = 0.0950508 atoms/A^3
Info: ADDED 0 IMPLICIT EXCLUSIONS
Info: NONBONDED TABLE R-SQUARED SPACING: 0.0625
Info: NONBONDED TABLE SIZE: 705 POINTS
Info: REMOVING COM VELOCITY 0.113122 -0.287309 -0.00309704
Info: Use 3D box decompostion in PME FFT.
Info: Updated CUDA force table with 4096 elements.
Info: Updated CUDA LJ table with 5 x 5 elements.
Info: Found 25 unique exclusion lists needing 76 bytes
TCL: Running for 1500000 steps
ETITLE: TS BOND ANGLE DIHED IMPRP ELECT VDW BOUNDARY MISC KINETIC TOTAL TEMP POTENTIAL TOTALAVG TEMPAVG PRESSURE GPRESSURE VOLUME PRESSAVG GPRESSAVG
ENERGY: 0 5.2335 5.8280 12.2915 0.0000 -10580.5824 1453.1668 0.0000 0.0000 1739.6024 -7364.4603 296.7987 -9104.0627 -7364.4603 296.7987 49.6811 133.3902 30941.3482 49.6811 133.3902
ENERGY: 300000 5.0901 5.4892 8.8295 0.0000 -10638.1349 1453.1963 0.0000 0.0000 1739.9637 -7425.5660 296.8603 -9165.5297 -7413.7145 296.8135 210.0813 250.0893 29892.8201 201.4006 253.0935
ENERGY: 600000 6.7764 5.1974 9.2931 0.0000 -10593.5768 1416.7425 0.0000 0.0000 1728.6606 -7426.9069 294.9319 -9155.5674 -7416.1894 297.2973 -140.5021 -176.5716 29960.8557 53.3792 101.0131
ENERGY: 900000 6.2329 4.8446 11.1243 0.0000 -10464.4777 1363.6144 0.0000 0.0000 1769.5180 -7309.1435 301.9027 -9078.6615 -7392.3034 298.1542 -677.4314 -611.3641 30357.9312 -117.5603 -67.6772
ENERGY: 1200000 3.3865 5.4328 13.4245 0.0000 -10710.2543 1496.5601 0.0000 0.0000 1786.7011 -7404.7494 304.8343 -9191.4505 -7393.4740 299.1518 372.2029 441.5057 30000.0056 -42.0114 3.6911
ENERGY: 1500000 2.3986 7.9506 10.8789 0.0000 -10737.4268 1487.4661 0.0000 0.0000 1800.3993 -7428.3333 307.1714 -9228.7326 -7401.7478 299.7513 158.0065 232.0708 29966.0659 -49.2418 -8.7836
TCL: Running FEP window   2: Lambda1 0.05   Lambda2 0.1    [dLambda 0.05  ]
TCL: Setting parameter firsttimestep to 0
TCL: Setting parameter alchLambda to 0.05
Info: NONBONDED TABLE R-SQUARED SPACING: 0.0625
Info: NONBONDED TABLE SIZE: 705 POINTS
TCL: Setting parameter alchLambda2 to 0.1
Info: NONBONDED TABLE R-SQUARED SPACING: 0.0625
Info: NONBONDED TABLE SIZE: 705 POINTS
TCL: Running for 1500000 steps
ETITLE: TS BOND ANGLE DIHED IMPRP ELECT VDW BOUNDARY MISC KINETIC TOTAL TEMP POTENTIAL TOTALAVG TEMPAVG PRESSURE GPRESSURE VOLUME PRESSAVG GPRESSAVG
ENERGY: 0 2.3986 7.9506 10.8789 0.0000 -10737.4280 1495.2734 0.0000 0.0000 1799.5423 -7421.3841 307.0252 -9220.9263 -7421.3841 307.0252 168.9113 248.2815 29966.0659 168.9113 248.2815
ENERGY: 300000 4.7396 3.8288 12.3613 0.0000 -10522.0526 1364.9831 0.0000 0.0000 1735.7750 -7400.3647 296.1457 -9136.1398 -7446.8267 297.9284 -603.5546 -480.2396 30407.7509 42.2934 117.4619
ENERGY: 600000 4.2913 7.5910 11.0161 0.0000 -10752.8168 1507.1950 0.0000 0.0000 1700.6484 -7522.0752 290.1526 -9222.7235 -7447.0753 297.5748 284.4557 422.6770 29767.5577 74.9830 150.1731
ENERGY: 900000 6.3767 3.7123 11.1166 0.0000 -10719.5151 1490.4129 0.0000 0.0000 1759.5846 -7448.3121 300.2079 -9207.8967 -7447.5754 297.9369 128.5321 154.9759 30230.6673 92.9223 155.3911
ENERGY: 1200000 3.6070 3.6064 11.2381 0.0000 -10649.0811 1484.0406 0.0000 0.0000 1780.7009 -7365.8880 303.8106 -9146.5889 -7437.8857 298.1486 506.2179 552.7873 30278.4526 172.7882 230.1834
ENERGY: 1500000 7.4080 6.3285 9.9707 0.0000 -10620.5010 1453.7860 0.0000 0.0000 1738.7697 -7404.2381 296.6566 -9143.0079 -7426.9172 298.7825 -291.6043 -263.3480 30507.7521 163.5110 215.6077
TCL: Running FEP window   3: Lambda1 0.1    Lambda2 0.15000000000000002 [dLambda 0.05000000000000002]
TCL: Setting parameter firsttimestep to 0
TCL: Setting parameter alchLambda to 0.1
Info: NONBONDED TABLE R-SQUARED SPACING: 0.0625
Info: NONBONDED TABLE SIZE: 705 POINTS
TCL: Setting parameter alchLambda2 to 0.15000000000000002
Info: NONBONDED TABLE R-SQUARED SPACING: 0.0625
Info: NONBONDED TABLE SIZE: 705 POINTS
TCL: Running for 1500000 steps
ETITLE: TS BOND ANGLE DIHED IMPRP ELECT VDW BOUNDARY MISC KINETIC TOTAL TEMP POTENTIAL TOTALAVG TEMPAVG PRESSURE GPRESSURE VOLUME PRESSAVG GPRESSAVG
ENERGY: 0 7.4080 6.3285 9.9707 0.0000 -10620.5010 1458.6416 0.0000 0.0000 1737.8853 -7400.2668 296.5057 -9138.1522 -7400.2668 296.5057 -321.3965 -241.2779 30507.7521 -321.3965 -241.2779
ENERGY: 300000 4.9948 6.1044 10.8436 0.0000 -10577.9366 1462.9871 0.0000 0.0000 1755.4215 -7337.5852 299.4976 -9093.0067 -7368.8214 302.4220 418.8004 446.5414 30683.2755 130.9721 165.7948
ENERGY: 600000 8.1080 3.7200 12.1223 0.0000 -10524.8831 1369.0784 0.0000 0.0000 1817.9417 -7313.9128 310.1644 -9131.8545 -7363.8972 302.9484 -592.3414 -494.9801 29962.0372 -123.0983 -74.3758
ENERGY: 900000 5.1989 5.6974 9.2584 0.0000 -10726.0887 1465.2890 0.0000 0.0000 1759.5165 -7481.1284 300.1963 -9240.6449 -7385.9575 302.3755 236.0462 276.7064 29550.5130 -152.2533 -105.1822
ENERGY: 1200000 4.5357 5.5913 10.4820 0.0000 -10558.2668 1409.4674 0.0000 0.0000 1734.5054 -7393.6850 295.9291 -9128.1904 -7387.7866 301.6113 63.5594 82.1230 30346.2009 -180.5402 -135.9639
ENERGY: 1500000 5.5525 6.2255 12.9205 0.0000 -10477.1023 1352.3306 0.0000 0.0000 1760.8973 -7339.1759 300.4319 -9100.0732 -7380.2213 300.7910 -604.2302 -532.4443 30474.8000 -246.5848 -196.9439
TCL: Running FEP window   4: Lambda1 0.15000000000000002 Lambda2 0.2    [dLambda 0.04999999999999999]
TCL: Setting parameter firsttimestep to 0
TCL: Setting parameter alchLambda to 0.15000000000000002
Info: NONBONDED TABLE R-SQUARED SPACING: 0.0625
Info: NONBONDED TABLE SIZE: 705 POINTS
TCL: Setting parameter alchLambda2 to 0.2
Info: NONBONDED TABLE R-SQUARED SPACING: 0.0625
Info: NONBONDED TABLE SIZE: 705 POINTS
TCL: Running for 1500000 steps
ETITLE: TS BOND ANGLE DIHED IMPRP ELECT VDW BOUNDARY MISC KINETIC TOTAL TEMP POTENTIAL TOTALAVG TEMPAVG PRESSURE GPRESSURE VOLUME PRESSAVG GPRESSAVG
ENERGY: 0 5.5525 6.2255 12.9205 0.0000 -10477.1022 1354.6276 0.0000 0.0000 1760.0429 -7337.7332 300.2861 -9097.7761 -7337.7332 300.2861 -611.5226 -515.0164 30474.8000 -611.5226 -515.0164
ENERGY: 300000 3.1645 7.2512 10.4511 0.0000 -10536.3725 1350.2772 0.0000 0.0000 1767.5869 -7397.6416 301.5732 -9165.2285 -7401.4885 301.8560 -415.9565 -393.0964 30143.3884 -299.0162 -252.5913
ENERGY: 600000 5.5395 5.9792 12.6689 0.0000 -10700.0215 1510.0544 0.0000 0.0000 1760.6551 -7405.1244 300.3906 -9165.7794 -7409.1004 300.3290 584.7035 689.4374 30079.8933 -39.6132 15.4033
ENERGY: 900000 5.1181 3.9116 8.0910 0.0000 -10676.3658 1462.6059 0.0000 0.0000 1703.2442 -7493.3950 290.5955 -9196.6392 -7409.7549 299.5500 83.1053 151.3415 30006.7254 -61.0138 -6.7708
ENERGY: 1200000 6.6070 4.4710 11.0471 0.0000 -10595.2716 1424.5236 0.0000 0.0000 1769.3660 -7379.2569 301.8768 -9148.6229 -7401.5736 300.5017 -478.2927 -446.8476 30748.5619 -122.8574 -66.7745
ENERGY: 1500000 4.7766 3.7939 12.0992 0.0000 -10702.1293 1474.6527 0.0000 0.0000 1771.4195 -7435.3873 302.2271 -9206.8068 -7400.6252 300.3243 -35.3858 -20.2203 30411.2021 -146.4232 -92.5712
TCL: Running FEP window   5: Lambda1 0.2    Lambda2 0.25   [dLambda 0.04999999999999999]
TCL: Setting parameter firsttimestep to 0
TCL: Setting parameter alchLambda to 0.2
Info: NONBONDED TABLE R-SQUARED SPACING: 0.0625
Info: NONBONDED TABLE SIZE: 705 POINTS
TCL: Setting parameter alchLambda2 to 0.25
Info: NONBONDED TABLE R-SQUARED SPACING: 0.0625
Info: NONBONDED TABLE SIZE: 705 POINTS
TCL: Running for 1500000 steps
ETITLE: TS BOND ANGLE DIHED IMPRP ELECT VDW BOUNDARY MISC KINETIC TOTAL TEMP POTENTIAL TOTALAVG TEMPAVG PRESSURE GPRESSURE VOLUME PRESSAVG GPRESSAVG
ENERGY: 0 4.7766 3.7939 12.0992 0.0000 -10702.1298 1478.3074 0.0000 0.0000 1770.5674 -7432.5853 302.0817 -9203.1527 -7432.5853 302.0817 -76.7092 6.4348 30411.2021 -76.7092 6.4348
ENERGY: 300000 7.5177 4.8280 12.5436 0.0000 -10616.7928 1427.2644 0.0000 0.0000 1781.9466 -7382.6924 304.0232 -9164.6391 -7424.1814 302.1128 -360.7332 -304.7364 30378.1857 -253.0731 -180.5488
ENERGY: 600000 4.7345 5.4366 13.5217 0.0000 -10747.6898 1497.4661 0.0000 0.0000 1807.8133 -7418.7176 308.4364 -9226.5309 -7382.0586 304.4892 272.3238 369.5554 30154.6933 -61.8319 7.6371
ENERGY: 900000 2.7974 4.5495 13.1366 0.0000 -10641.8134 1496.8914 0.0000 0.0000 1768.1711 -7356.2674 301.6729 -9124.4385 -7380.5026 303.0786 582.1334 611.4166 30330.5121 -10.4706 61.4914
ENERGY: 1200000 4.4932 4.0604 10.2658 0.0000 -10552.7270 1372.2167 0.0000 0.0000 1690.0155 -7471.6755 288.3385 -9161.6909 -7389.8971 300.8383 -595.0588 -516.2939 30577.4009 -6.9820 68.3830
ENERGY: 1500000 9.0353 5.2989 11.2729 0.0000 -10642.1531 1423.7375 0.0000 0.0000 1784.8004 -7408.0080 304.5101 -9192.8083 -7400.2645 300.2070 -402.1558 -312.7128 30401.9182 -170.7345 -91.6280
TCL: Running FEP window   6: Lambda1 0.25   Lambda2 0.3    [dLambda 0.04999999999999999]
TCL: Setting parameter firsttimestep to 0
TCL: Setting parameter alchLambda to 0.25
Info: NONBONDED TABLE R-SQUARED SPACING: 0.0625
Info: NONBONDED TABLE SIZE: 705 POINTS
TCL: Setting parameter alchLambda2 to 0.3
Info: NONBONDED TABLE R-SQUARED SPACING: 0.0625
Info: NONBONDED TABLE SIZE: 705 POINTS
TCL: Running for 1500000 steps
ETITLE: TS BOND ANGLE DIHED IMPRP ELECT VDW BOUNDARY MISC KINETIC TOTAL TEMP POTENTIAL TOTALAVG TEMPAVG PRESSURE GPRESSURE VOLUME PRESSAVG GPRESSAVG
ENERGY: 0 9.0353 5.2989 11.2729 0.0000 -10642.1518 1423.5965 0.0000 0.0000 1783.9182 -7409.0300 304.3595 -9192.9481 -7409.0300 304.3595 -398.6885 -305.5952 30401.9182 -398.6885 -305.5952
ENERGY: 300000 6.4323 5.5144 8.6644 0.0000 -10563.8163 1406.7907 0.0000 0.0000 1761.9337 -7374.4808 300.6087 -9136.4145 -7417.2903 298.9609 -14.9223 5.5261 30167.5890 -145.4987 -92.8085
ENERGY: 600000 7.4826 7.0105 10.1419 0.0000 -10588.8111 1467.6370 0.0000 0.0000 1703.6775 -7392.8616 290.6694 -9096.5391 -7398.0026 298.3415 535.9304 563.7765 30167.7324 -76.3517 -22.3554
ENERGY: 900000 7.3483 7.2469 8.4968 0.0000 -10685.2708 1476.8445 0.0000 0.0000 1711.5630 -7473.7714 292.0148 -9185.3344 -7391.6270 298.3543 257.1639 329.9436 30050.5193 -54.2140 6.1095
ENERGY: 1200000 6.6710 8.4003 8.7008 0.0000 -10510.8333 1322.4714 0.0000 0.0000 1726.7267 -7437.8631 294.6019 -9164.5898 -7391.2721 298.8186 -880.3704 -840.3108 30288.9293 -93.8954 -40.1044
ENERGY: 1500000 4.8006 4.1553 10.8378 0.0000 -10674.4408 1447.3368 0.0000 0.0000 1763.5174 -7443.7929 300.8789 -9207.3103 -7403.2145 298.7809 -293.1502 -218.5611 30449.7256 39.0225 91.5037
TCL: Running FEP window   7: Lambda1 0.3    Lambda2 0.35   [dLambda 0.04999999999999999]
TCL: Setting parameter firsttimestep to 0
TCL: Setting parameter alchLambda to 0.3
Info: NONBONDED TABLE R-SQUARED SPACING: 0.0625
Info: NONBONDED TABLE SIZE: 705 POINTS
TCL: Setting parameter alchLambda2 to 0.35
Info: NONBONDED TABLE R-SQUARED SPACING: 0.0625
Info: NONBONDED TABLE SIZE: 705 POINTS
TCL: Running for 1500000 steps
ETITLE: TS BOND ANGLE DIHED IMPRP ELECT VDW BOUNDARY MISC KINETIC TOTAL TEMP POTENTIAL TOTALAVG TEMPAVG PRESSURE GPRESSURE VOLUME PRESSAVG GPRESSAVG
ENERGY: 0 4.8006 4.1553 10.8378 0.0000 -10674.4374 1447.9181 0.0000 0.0000 1762.6121 -7444.1136 300.7244 -9206.7257 -7444.1136 300.7244 -282.2593 -203.8099 30449.7256 -282.2593 -203.8099
ENERGY: 300000 3.3521 6.4303 12.8145 0.0000 -10742.3568 1510.2498 0.0000 0.0000 1773.8421 -7435.6679 302.6404 -9209.5101 -7433.3750 300.7085 590.6889 676.0473 30061.6475 128.1865 223.6854
ENERGY: 600000 9.6350 3.7380 8.1096 0.0000 -10573.4871 1468.7621 0.0000 0.0000 1796.1179 -7287.1245 306.4410 -9083.2423 -7408.4727 300.7052 458.2975 604.2198 30233.6450 204.9380 290.8608
ENERGY: 900000 2.8561 8.3019 9.7603 0.0000 -10529.7319 1408.9198 0.0000 0.0000 1748.8668 -7351.0269 298.3793 -9099.8937 -7401.2120 298.8147 225.0019 287.5096 30243.7426 242.2108 331.0262
ENERGY: 1200000 6.8215 4.3851 13.6648 0.0000 -10716.3540 1435.3175 0.0000 0.0000 1720.4576 -7535.7074 293.5323 -9256.1650 -7412.7061 298.0370 -552.3105 -478.3453 29996.2981 176.7663 252.8931
ENERGY: 1500000 9.3289 5.4329 7.5622 0.0000 -10512.7757 1370.1110 0.0000 0.0000 1759.0951 -7361.2457 300.1244 -9120.3408 -7412.1199 298.1467 -388.0110 -349.0946 30082.9550 103.1440 180.7916
TCL: Running FEP window   8: Lambda1 0.35   Lambda2 0.39999999999999997 [dLambda 0.04999999999999999]
TCL: Setting parameter firsttimestep to 0
TCL: Setting parameter alchLambda to 0.35
Info: NONBONDED TABLE R-SQUARED SPACING: 0.0625
Info: NONBONDED TABLE SIZE: 705 POINTS
TCL: Setting parameter alchLambda2 to 0.39999999999999997
Info: NONBONDED TABLE R-SQUARED SPACING: 0.0625
Info: NONBONDED TABLE SIZE: 705 POINTS
TCL: Running for 1500000 steps
ETITLE: TS BOND ANGLE DIHED IMPRP ELECT VDW BOUNDARY MISC KINETIC TOTAL TEMP POTENTIAL TOTALAVG TEMPAVG PRESSURE GPRESSURE VOLUME PRESSAVG GPRESSAVG
ENERGY: 0 9.3289 5.4329 7.5622 0.0000 -10512.7764 1370.0297 0.0000 0.0000 1758.2351 -7362.1876 299.9777 -9120.4227 -7362.1876 299.9777 -412.7221 -339.5356 30082.9550 -412.7221 -339.5356
ENERGY: 300000 4.4939 5.6823 10.1457 0.0000 -10587.7820 1429.3418 0.0000 0.0000 1744.2944 -7393.8239 297.5992 -9138.1182 -7421.1423 297.2569 438.3924 513.1313 29983.8160 -326.9191 -263.0043
ENERGY: 600000 5.2307 3.2517 9.3477 0.0000 -10730.7219 1444.8077 0.0000 0.0000 1733.0181 -7535.0660 295.6753 -9268.0841 -7420.7382 298.8575 -121.1910 -57.5103 29994.4861 -155.6010 -82.5746
ENERGY: 900000 3.4961 6.8342 11.7870 0.0000 -10611.9910 1404.3831 0.0000 0.0000 1788.6505 -7396.8400 305.1669 -9185.4905 -7407.3616 300.9778 -100.8487 -115.5171 30009.2413 -86.3531 -17.3196
ENERGY: 1200000 9.5096 7.4183 12.1990 0.0000 -10697.4512 1484.0661 0.0000 0.0000 1743.5569 -7440.7013 297.4734 -9184.2582 -7413.0073 300.7564 125.8268 179.3092 30672.8777 -79.0445 -3.4929
ENERGY: 1500000 4.4470 7.0084 12.0768 0.0000 -10706.1044 1428.4354 0.0000 0.0000 1743.9225 -7510.2142 297.5358 -9254.1367 -7412.1888 300.8904 -89.1596 -42.2762 29954.6323 -85.5399 -8.5148
TCL: Running FEP window   9: Lambda1 0.39999999999999997 Lambda2 0.44999999999999996 [dLambda 0.04999999999999999]
TCL: Setting parameter firsttimestep to 0
TCL: Setting parameter alchLambda to 0.39999999999999997
Info: NONBONDED TABLE R-SQUARED SPACING: 0.0625
Info: NONBONDED TABLE SIZE: 705 POINTS
TCL: Setting parameter alchLambda2 to 0.44999999999999996
Info: NONBONDED TABLE R-SQUARED SPACING: 0.0625
Info: NONBONDED TABLE SIZE: 705 POINTS
TCL: Running for 1500000 steps
ETITLE: TS BOND ANGLE DIHED IMPRP ELECT VDW BOUNDARY MISC KINETIC TOTAL TEMP POTENTIAL TOTALAVG TEMPAVG PRESSURE GPRESSURE VOLUME PRESSAVG GPRESSAVG
ENERGY: 0 4.4470 7.0084 12.0768 0.0000 -10706.1031 1427.7771 0.0000 0.0000 1743.0806 -7511.7132 297.3921 -9254.7937 -7511.7132 297.3921 -130.9347 -34.4181 29954.6323 -130.9347 -34.4181
ENERGY: 300000 5.5692 7.5677 8.7708 0.0000 -10647.0373 1464.2832 0.0000 0.0000 1791.1001 -7369.7463 305.5849 -9160.8464 -7444.1589 300.4739 312.8673 324.0912 30367.8305 186.1777 246.7346
ENERGY: 600000 4.5165 3.7101 7.9450 0.0000 -10675.1742 1475.4740 0.0000 0.0000 1732.2861 -7451.2425 295.5504 -9183.5286 -7423.0648 299.7120 499.5033 546.7272 29970.0999 173.9386 234.1134
ENERGY: 900000 4.1133 4.0859 12.7791 0.0000 -10655.9839 1434.9005 0.0000 0.0000 1780.2745 -7419.8307 303.7379 -9200.1052 -7430.8279 299.7201 16.7975 143.0443 29895.3172 90.0217 159.4307
ENERGY: 1200000 3.8779 4.8106 12.9161 0.0000 -10660.8824 1441.2500 0.0000 0.0000 1752.5761 -7445.4517 299.0122 -9198.0278 -7422.8072 300.0519 -39.0275 18.3942 30410.9138 36.0534 101.8920
ENERGY: 1500000 6.6882 5.1576 10.0531 0.0000 -10654.1297 1458.3174 0.0000 0.0000 1725.6804 -7448.2331 294.4234 -9173.9135 -7417.0635 299.9143 127.6124 206.8955 29902.1267 -28.5969 35.6301
TCL: Running FEP window  10: Lambda1 0.44999999999999996 Lambda2 0.49999999999999994 [dLambda 0.04999999999999999]
TCL: Setting parameter firsttimestep to 0
TCL: Setting parameter alchLambda to 0.44999999999999996
Info: NONBONDED TABLE R-SQUARED SPACING: 0.0625
Info: NONBONDED TABLE SIZE: 705 POINTS
TCL: Setting parameter alchLambda2 to 0.49999999999999994
Info: NONBONDED TABLE R-SQUARED SPACING: 0.0625
Info: NONBONDED TABLE SIZE: 705 POINTS
TCL: Running for 1500000 steps
ETITLE: TS BOND ANGLE DIHED IMPRP ELECT VDW BOUNDARY MISC KINETIC TOTAL TEMP POTENTIAL TOTALAVG TEMPAVG PRESSURE GPRESSURE VOLUME PRESSAVG GPRESSAVG
ENERGY: 0 6.6882 5.1576 10.0531 0.0000 -10654.1283 1457.8007 0.0000 0.0000 1724.8077 -7449.6210 294.2745 -9174.4287 -7449.6210 294.2745 132.3041 212.7406 29902.1267 132.3041 212.7406
ENERGY: 300000 4.9939 5.2953 9.8717 0.0000 -10705.7265 1471.6932 0.0000 0.0000 1768.5750 -7445.2974 301.7418 -9213.8724 -7414.0866 300.9360 149.5661 197.8750 30333.2454 20.0548 65.8273
ENERGY: 600000 3.8631 5.4167 7.6209 0.0000 -10616.7185 1401.9693 0.0000 0.0000 1720.0912 -7477.7572 293.4698 -9197.8485 -7411.7682 298.3184 -518.6329 -356.1173 30168.8733 -230.7915 -156.9124
ENERGY: 900000 7.3171 5.1998 11.4213 0.0000 -10583.7830 1445.4613 0.0000 0.0000 1718.2403 -7396.1432 293.1540 -9114.3835 -7404.6030 298.3705 -17.0721 77.1133 30857.9340 -108.7707 -41.3962
ENERGY: 1200000 5.7809 9.2431 6.5017 0.0000 -10596.1417 1384.7664 0.0000 0.0000 1736.8606 -7452.9890 296.3309 -9189.8497 -7407.4896 299.2015 -615.8297 -574.2120 30367.9544 -130.7441 -72.9413
ENERGY: 1500000 5.3012 4.5678 16.6240 0.0000 -10463.4582 1335.7840 0.0000 0.0000 1770.7418 -7330.4393 302.1115 -9101.1812 -7395.8333 299.2255 -269.7950 -220.8538 30137.2929 -175.4663 -118.8059
TCL: Running FEP window  11: Lambda1 0.49999999999999994 Lambda2 0.5499999999999999 [dLambda 0.04999999999999999]
TCL: Setting parameter firsttimestep to 0
TCL: Setting parameter alchLambda to 0.49999999999999994
Info: NONBONDED TABLE R-SQUARED SPACING: 0.0625
Info: NONBONDED TABLE SIZE: 705 POINTS
TCL: Setting parameter alchLambda2 to 0.5499999999999999
Info: NONBONDED TABLE R-SQUARED SPACING: 0.0625
Info: NONBONDED TABLE SIZE: 705 POINTS
TCL: Running for 1500000 steps
ETITLE: TS BOND ANGLE DIHED IMPRP ELECT VDW BOUNDARY MISC KINETIC TOTAL TEMP POTENTIAL TOTALAVG TEMPAVG PRESSURE GPRESSURE VOLUME PRESSAVG GPRESSAVG
ENERGY: 0 5.3012 4.5678 16.6240 0.0000 -10463.4587 1335.1613 0.0000 0.0000 1769.8280 -7331.9764 301.9556 -9101.8044 -7331.9764 301.9556 -314.5696 -215.2651 30137.2929 -314.5696 -215.2651
ENERGY: 300000 5.4327 7.1456 13.4145 0.0000 -10715.3972 1458.1517 0.0000 0.0000 1821.5291 -7409.7235 310.7765 -9231.2526 -7349.5335 308.9305 103.1744 151.7971 30333.9922 -97.4423 -53.5428
ENERGY: 600000 6.2159 3.6646 17.3126 0.0000 -10711.8636 1531.0316 0.0000 0.0000 1737.2552 -7416.3838 296.3982 -9153.6390 -7392.2508 303.0942 864.9414 983.0763 29850.1214 -83.2772 -24.2847
ENERGY: 900000 5.7703 4.0779 10.2527 0.0000 -10653.6762 1430.5638 0.0000 0.0000 1726.7354 -7476.2761 294.6034 -9203.0115 -7423.8500 300.6974 -275.5000 -243.6640 30396.2117 73.6149 134.9548
ENERGY: 1200000 7.2808 5.1153 10.8749 0.0000 -10685.0135 1464.0924 0.0000 0.0000 1765.0305 -7432.6196 301.1371 -9197.6501 -7422.3226 300.0085 -139.1553 -118.2252 30547.8413 23.8396 79.1971
ENERGY: 1500000 7.4624 7.7933 11.1222 0.0000 -10582.2981 1464.3588 0.0000 0.0000 1782.7770 -7308.7844 304.1648 -9091.5614 -7410.4811 301.0487 364.9549 387.5397 30539.5345 -0.3291 50.0141
TCL: Running FEP window  12: Lambda1 0.5499999999999999 Lambda2 0.6    [dLambda 0.050000000000000044]
TCL: Setting parameter firsttimestep to 0
TCL: Setting parameter alchLambda to 0.5499999999999999
Info: NONBONDED TABLE R-SQUARED SPACING: 0.0625
Info: NONBONDED TABLE SIZE: 705 POINTS
TCL: Setting parameter alchLambda2 to 0.6
Info: NONBONDED TABLE R-SQUARED SPACING: 0.0625
Info: NONBONDED TABLE SIZE: 705 POINTS
TCL: Running for 1500000 steps
ETITLE: TS BOND ANGLE DIHED IMPRP ELECT VDW BOUNDARY MISC KINETIC TOTAL TEMP POTENTIAL TOTALAVG TEMPAVG PRESSURE GPRESSURE VOLUME PRESSAVG GPRESSAVG
ENERGY: 0 7.4624 7.7933 11.1222 0.0000 -10582.0795 1463.8208 0.0000 0.0000 1781.9130 -7309.9678 304.0174 -9091.8808 -7309.9678 304.0174 318.9639 393.3694 30539.5345 318.9639 393.3694
ENERGY: 300000 4.7287 8.0732 7.3834 0.0000 -10575.4574 1380.3395 0.0000 0.0000 1736.2318 -7438.7007 296.2236 -9174.9326 -7396.1952 301.4904 -274.1688 -218.3297 30082.7686 -26.6784 44.1606
ENERGY: 600000 7.1084 5.2306 9.2655 0.0000 -10805.8924 1545.2078 0.0000 0.0000 1807.8043 -7431.2757 308.4348 -9239.0801 -7415.1310 300.2377 794.0160 791.3571 29969.6156 56.5229 112.9328
ENERGY: 900000 7.9867 4.7090 12.6486 0.0000 -10531.6781 1361.1230 0.0000 0.0000 1772.6376 -7372.5732 302.4349 -9145.2108 -7399.5868 301.1754 -672.5175 -634.2746 30545.8057 -50.6789 13.3492
ENERGY: 1200000 6.0970 3.8827 8.3960 0.0000 -10551.1831 1367.9036 0.0000 0.0000 1772.6855 -7392.2184 302.4431 -9164.9039 -7398.7862 300.8292 -477.4722 -390.8732 30192.4968 -1.3406 64.2803
ENERGY: 1500000 5.0720 4.7311 11.0820 0.0000 -10687.4320 1497.4652 0.0000 0.0000 1712.0834 -7456.9982 292.1036 -9169.0816 -7409.4383 299.9759 506.7929 589.0002 30184.3166 -46.7759 21.0785
TCL: Running FEP window  13: Lambda1 0.6    Lambda2 0.65   [dLambda 0.050000000000000044]
TCL: Setting parameter firsttimestep to 0
TCL: Setting parameter alchLambda to 0.6
Info: NONBONDED TABLE R-SQUARED SPACING: 0.0625
Info: NONBONDED TABLE SIZE: 705 POINTS
TCL: Setting parameter alchLambda2 to 0.65
Info: NONBONDED TABLE R-SQUARED SPACING: 0.0625
Info: NONBONDED TABLE SIZE: 705 POINTS
TCL: Running for 1500000 steps
ETITLE: TS BOND ANGLE DIHED IMPRP ELECT VDW BOUNDARY MISC KINETIC TOTAL TEMP POTENTIAL TOTALAVG TEMPAVG PRESSURE GPRESSURE VOLUME PRESSAVG GPRESSAVG
ENERGY: 0 5.0720 4.7311 11.0820 0.0000 -10688.0676 1497.3831 0.0000 0.0000 1711.1963 -7458.6031 291.9523 -9169.7994 -7458.6031 291.9523 527.7925 598.5928 30184.3166 527.7925 598.5928
ENERGY: 300000 10.8126 4.8093 12.3788 0.0000 -10726.3625 1507.3978 0.0000 0.0000 1764.0325 -7426.9316 300.9668 -9190.9641 -7459.9187 295.1658 692.3895 758.6043 30494.0227 181.6444 245.4489
ENERGY: 600000 9.8184 7.6336 8.6998 0.0000 -10694.6788 1469.5649 0.0000 0.0000 1756.5472 -7442.4150 299.6897 -9198.9621 -7442.8677 296.5985 -38.1946 69.0982 30443.5377 134.6501 196.0306
ENERGY: 900000 6.9560 5.4251 11.7444 0.0000 -10577.8552 1418.5608 0.0000 0.0000 1767.2399 -7367.9290 301.5140 -9135.1689 -7423.9125 299.0790 78.6210 104.2218 30726.5771 79.0032 125.4929
ENERGY: 1200000 6.1575 7.2410 10.0721 0.0000 -10671.0091 1418.7249 0.0000 0.0000 1782.9485 -7445.8652 304.1941 -9228.8137 -7413.0015 299.3670 -387.4900 -300.1673 30380.3092 38.6755 84.3032
ENERGY: 1500000 3.1869 7.3600 12.0306 0.0000 -10690.4522 1415.6555 0.0000 0.0000 1821.6702 -7430.5489 310.8005 -9252.2192 -7417.2009 299.6661 -369.2797 -240.7018 30284.7348 -6.6535 48.3261
TCL: Running FEP window  14: Lambda1 0.65   Lambda2 0.7000000000000001 [dLambda 0.050000000000000044]
TCL: Setting parameter firsttimestep to 0
TCL: Setting parameter alchLambda to 0.65
Info: NONBONDED TABLE R-SQUARED SPACING: 0.0625
Info: NONBONDED TABLE SIZE: 705 POINTS
TCL: Setting parameter alchLambda2 to 0.7000000000000001
Info: NONBONDED TABLE R-SQUARED SPACING: 0.0625
Info: NONBONDED TABLE SIZE: 705 POINTS
TCL: Running for 1500000 steps
ETITLE: TS BOND ANGLE DIHED IMPRP ELECT VDW BOUNDARY MISC KINETIC TOTAL TEMP POTENTIAL TOTALAVG TEMPAVG PRESSURE GPRESSURE VOLUME PRESSAVG GPRESSAVG
ENERGY: 0 3.1869 7.3600 12.0306 0.0000 -10690.8692 1416.1321 0.0000 0.0000 1820.8010 -7431.3586 310.6522 -9252.1595 -7431.3586 310.6522 -306.1057 -221.4500 30284.7348 -306.1057 -221.4500
ENERGY: 300000 10.9472 4.2160 8.5881 0.0000 -10655.5148 1427.0907 0.0000 0.0000 1822.6404 -7382.0325 310.9661 -9204.6729 -7405.1550 304.7010 -329.3857 -231.4369 30757.3541 -341.5887 -250.2843
ENERGY: 600000 3.2511 5.7727 11.0570 0.0000 -10607.5734 1457.9631 0.0000 0.0000 1783.2634 -7346.2661 304.2478 -9129.5295 -7406.7529 301.7472 392.8872 432.9772 30482.3636 -126.5643 -51.7130
ENERGY: 900000 5.5615 6.3393 8.3206 0.0000 -10585.4235 1435.2862 0.0000 0.0000 1736.5838 -7393.3321 296.2837 -9129.9159 -7409.9982 300.4192 283.1893 333.7990 30481.6977 -55.7345 13.7634
ENERGY: 1200000 7.4842 3.4942 10.4450 0.0000 -10695.1253 1451.6358 0.0000 0.0000 1758.2395 -7463.8267 299.9784 -9222.0661 -7407.3491 300.5790 -119.9373 -74.6601 30394.2623 53.8521 124.3842
ENERGY: 1500000 8.6662 7.1941 8.1092 0.0000 -10603.2271 1423.6536 0.0000 0.0000 1714.0500 -7441.5541 292.4391 -9155.6041 -7406.2490 299.9797 -156.7929 -65.2306 30441.7153 73.6606 143.0183
TCL: Running FEP window  15: Lambda1 0.7000000000000001 Lambda2 0.7500000000000001 [dLambda 0.050000000000000044]
TCL: Setting parameter firsttimestep to 0
TCL: Setting parameter alchLambda to 0.7000000000000001
Info: NONBONDED TABLE R-SQUARED SPACING: 0.0625
Info: NONBONDED TABLE SIZE: 705 POINTS
TCL: Setting parameter alchLambda2 to 0.7500000000000001
Info: NONBONDED TABLE R-SQUARED SPACING: 0.0625
Info: NONBONDED TABLE SIZE: 705 POINTS
TCL: Running for 1500000 steps
ETITLE: TS BOND ANGLE DIHED IMPRP ELECT VDW BOUNDARY MISC KINETIC TOTAL TEMP POTENTIAL TOTALAVG TEMPAVG PRESSURE GPRESSURE VOLUME PRESSAVG GPRESSAVG
ENERGY: 0 8.6662 7.1941 8.1092 0.0000 -10603.1186 1424.1787 0.0000 0.0000 1713.1935 -7441.7769 292.2930 -9154.9704 -7441.7769 292.2930 -130.1202 -46.8428 30441.7153 -130.1202 -46.8428
ENERGY: 300000 7.1604 7.8779 10.5031 0.0000 -10679.4784 1455.3937 0.0000 0.0000 1709.7672 -7488.7761 291.7084 -9198.5433 -7438.1165 295.3847 -71.9553 3.8446 30260.2319 -146.6798 -59.0369
ENERGY: 600000 5.3450 5.7629 10.5376 0.0000 -10559.3132 1348.8600 0.0000 0.0000 1769.4544 -7419.3533 301.8918 -9188.8077 -7426.7560 299.0288 -758.9748 -687.0463 30524.7185 -367.9316 -290.8758
ENERGY: 900000 7.0567 7.6896 13.7608 0.0000 -10650.3612 1460.4983 0.0000 0.0000 1788.9706 -7372.3853 305.2215 -9161.3559 -7417.8574 300.2055 303.3481 396.9228 30028.2891 -152.3135 -74.5321
ENERGY: 1200000 10.7704 6.6841 12.7691 0.0000 -10657.9337 1547.6532 0.0000 0.0000 1843.7959 -7236.2609 314.5755 -9080.0569 -7401.7611 301.2966 1464.4745 1499.6755 30122.2918 1.0872 71.9430
ENERGY: 1500000 8.8783 3.2053 12.9067 0.0000 -10718.4399 1491.7983 0.0000 0.0000 1730.7187 -7470.9327 295.2830 -9201.6513 -7405.7654 301.0060 586.9972 661.4620 29939.1863 53.6673 121.2334
TCL: Running FEP window  16: Lambda1 0.7500000000000001 Lambda2 0.8000000000000002 [dLambda 0.050000000000000044]
TCL: Setting parameter firsttimestep to 0
TCL: Setting parameter alchLambda to 0.7500000000000001
Info: NONBONDED TABLE R-SQUARED SPACING: 0.0625
Info: NONBONDED TABLE SIZE: 705 POINTS
TCL: Setting parameter alchLambda2 to 0.8000000000000002
Info: NONBONDED TABLE R-SQUARED SPACING: 0.0625
Info: NONBONDED TABLE SIZE: 705 POINTS
TCL: Running for 1500000 steps
ETITLE: TS BOND ANGLE DIHED IMPRP ELECT VDW BOUNDARY MISC KINETIC TOTAL TEMP POTENTIAL TOTALAVG TEMPAVG PRESSURE GPRESSURE VOLUME PRESSAVG GPRESSAVG
ENERGY: 0 8.8783 3.2053 12.9067 0.0000 -10718.5548 1491.2074 0.0000 0.0000 1729.8471 -7472.5100 295.1343 -9202.3571 -7472.5100 295.1343 608.7185 673.7341 29939.1863 608.7185 673.7341
ENERGY: 300000 6.9963 4.8680 10.8442 0.0000 -10614.5800 1410.3361 0.0000 0.0000 1777.5137 -7404.0218 303.2668 -9181.5354 -7400.0630 302.1132 -499.3758 -425.9677 30935.2784 94.0932 175.0080
ENERGY: 600000 5.9210 3.3914 11.0618 0.0000 -10768.9852 1499.7821 0.0000 0.0000 1759.9075 -7488.9215 300.2630 -9248.8290 -7401.6035 300.9974 331.2789 382.5642 30503.7787 -3.9473 63.9455
ENERGY: 900000 4.2251 8.1429 12.6024 0.0000 -10542.2369 1385.1825 0.0000 0.0000 1827.0270 -7305.0570 311.7145 -9132.0840 -7397.7624 300.9532 -218.6934 -179.7731 30693.1106 -114.0210 -49.3320
ENERGY: 1200000 6.0537 3.2592 11.1733 0.0000 -10388.9683 1316.2600 0.0000 0.0000 1794.2557 -7257.9665 306.1232 -9052.2222 -7386.1551 300.9385 -543.4823 -550.5551 31011.3376 -196.1062 -136.6716
ENERGY: 1500000 3.4512 3.6485 12.1825 0.0000 -10703.2927 1506.4920 0.0000 0.0000 1681.3025 -7496.2159 286.8520 -9177.5184 -7392.1927 299.1669 960.4464 1000.8274 29772.4732 -156.4718 -98.6232
TCL: Running FEP window  17: Lambda1 0.8000000000000002 Lambda2 0.8500000000000002 [dLambda 0.050000000000000044]
TCL: Setting parameter firsttimestep to 0
TCL: Setting parameter alchLambda to 0.8000000000000002
Info: NONBONDED TABLE R-SQUARED SPACING: 0.0625
Info: NONBONDED TABLE SIZE: 705 POINTS
TCL: Setting parameter alchLambda2 to 0.8500000000000002
Info: NONBONDED TABLE R-SQUARED SPACING: 0.0625
Info: NONBONDED TABLE SIZE: 705 POINTS
TCL: Running for 1500000 steps
ETITLE: TS BOND ANGLE DIHED IMPRP ELECT VDW BOUNDARY MISC KINETIC TOTAL TEMP POTENTIAL TOTALAVG TEMPAVG PRESSURE GPRESSURE VOLUME PRESSAVG GPRESSAVG
ENERGY: 0 3.4512 3.6485 12.1825 0.0000 -10703.4136 1506.4394 0.0000 0.0000 1680.3965 -7497.2955 286.6974 -9177.6920 -7497.2955 286.6974 925.9684 1017.7118 29772.4732 925.9684 1017.7118
ENERGY: 300000 7.5863 4.5803 10.7618 0.0000 -10636.4306 1384.9166 0.0000 0.0000 1739.0125 -7489.5730 296.6980 -9228.5855 -7493.5652 294.0507 -385.0596 -333.5511 29934.8456 37.4368 122.9396
ENERGY: 600000 10.3735 5.5008 12.7319 0.0000 -10687.5911 1478.7887 0.0000 0.0000 1741.2227 -7438.9735 297.0751 -9180.1962 -7440.3695 298.2239 139.2447 178.0546 30160.9767 144.4142 214.5929
ENERGY: 900000 6.0268 3.8088 10.6876 0.0000 -10684.5163 1453.4881 0.0000 0.0000 1689.7119 -7520.7931 288.2867 -9210.5050 -7446.3370 297.4815 237.3302 292.6756 30236.6042 255.0464 325.9551
ENERGY: 1200000 5.2732 6.6994 11.8063 0.0000 -10625.8054 1408.8585 0.0000 0.0000 1729.0821 -7464.0859 295.0038 -9193.1680 -7433.5554 298.4304 -304.5456 -178.9353 30610.8689 144.2647 222.6214
ENERGY: 1500000 4.5748 4.0662 8.2685 0.0000 -10705.6911 1491.2585 0.0000 0.0000 1721.7867 -7475.7364 293.7591 -9197.5231 -7441.8092 298.0200 247.1498 317.2203 30676.2727 105.8660 186.0243
TCL: Running FEP window  18: Lambda1 0.8500000000000002 Lambda2 0.9000000000000002 [dLambda 0.050000000000000044]
TCL: Setting parameter firsttimestep to 0
TCL: Setting parameter alchLambda to 0.8500000000000002
Info: NONBONDED TABLE R-SQUARED SPACING: 0.0625
Info: NONBONDED TABLE SIZE: 705 POINTS
TCL: Setting parameter alchLambda2 to 0.9000000000000002
Info: NONBONDED TABLE R-SQUARED SPACING: 0.0625
Info: NONBONDED TABLE SIZE: 705 POINTS
TCL: Running for 1500000 steps
ETITLE: TS BOND ANGLE DIHED IMPRP ELECT VDW BOUNDARY MISC KINETIC TOTAL TEMP POTENTIAL TOTALAVG TEMPAVG PRESSURE GPRESSURE VOLUME PRESSAVG GPRESSAVG
ENERGY: 0 4.5748 4.0662 8.2685 0.0000 -10706.0820 1491.2072 0.0000 0.0000 1720.8774 -7477.0879 293.6040 -9197.9653 -7477.0879 293.6040 250.2045 334.0631 30676.2727 250.2045 334.0631
ENERGY: 300000 8.3694 7.6895 11.2555 0.0000 -10519.9692 1405.2886 0.0000 0.0000 1755.8742 -7331.4920 299.5749 -9087.3662 -7422.0086 296.1609 73.1616 166.0456 30503.8853 230.2965 300.7244
ENERGY: 600000 5.2495 5.1431 13.1149 0.0000 -10371.4374 1240.5076 0.0000 0.0000 1756.1776 -7351.2447 299.6266 -9107.4223 -7427.5741 295.7168 -1438.6452 -1332.8908 30693.7861 -82.2109 -20.4130
ENERGY: 900000 4.0955 4.8405 6.9303 0.0000 -10553.2377 1377.5352 0.0000 0.0000 1741.6324 -7418.2039 297.1450 -9159.8362 -7425.1899 297.3573 -249.8292 -229.1462 30416.2232 -147.3942 -87.1793
ENERGY: 1200000 9.7642 7.6545 12.1067 0.0000 -10638.2213 1483.1124 0.0000 0.0000 1723.5507 -7402.0328 294.0601 -9125.5835 -7432.0525 296.8042 564.6292 599.9768 30439.5526 0.7959 52.1306
ENERGY: 1500000 6.0440 5.8390 6.5084 0.0000 -10644.4019 1441.8735 0.0000 0.0000 1727.8271 -7456.3099 294.7897 -9184.1370 -7446.4734 296.5147 -15.9684 101.5235 30547.8349 28.0439 87.1122
TCL: Running FEP window  19: Lambda1 0.9000000000000002 Lambda2 0.9500000000000003 [dLambda 0.050000000000000044]
TCL: Setting parameter firsttimestep to 0
TCL: Setting parameter alchLambda to 0.9000000000000002
Info: NONBONDED TABLE R-SQUARED SPACING: 0.0625
Info: NONBONDED TABLE SIZE: 705 POINTS
TCL: Setting parameter alchLambda2 to 0.9500000000000003
Info: NONBONDED TABLE R-SQUARED SPACING: 0.0625
Info: NONBONDED TABLE SIZE: 705 POINTS
TCL: Running for 1500000 steps
ETITLE: TS BOND ANGLE DIHED IMPRP ELECT VDW BOUNDARY MISC KINETIC TOTAL TEMP POTENTIAL TOTALAVG TEMPAVG PRESSURE GPRESSURE VOLUME PRESSAVG GPRESSAVG
ENERGY: 0 6.0440 5.8390 6.5084 0.0000 -10644.8874 1441.4477 0.0000 0.0000 1726.9412 -7458.1072 294.6385 -9185.0484 -7458.1072 294.6385 16.0056 113.6790 30547.8349 16.0056 113.6790
ENERGY: 300000 3.8979 4.9336 9.3617 0.0000 -10599.0285 1399.9264 0.0000 0.0000 1781.1027 -7399.8062 303.8792 -9180.9089 -7403.3661 300.5788 -87.4998 -29.7430 30381.0371 1.8888 69.1066
ENERGY: 600000 4.4789 3.4794 11.9904 0.0000 -10648.7545 1432.3290 0.0000 0.0000 1770.0809 -7426.3961 301.9987 -9196.4769 -7404.9108 298.9813 -2.3455 -3.9077 30553.3007 62.2591 111.1947
ENERGY: 900000 3.7265 3.9793 14.6931 0.0000 -10762.0285 1481.1296 0.0000 0.0000 1757.4934 -7501.0065 299.8511 -9258.4999 -7429.7875 298.6907 173.2053 288.4080 30636.3519 79.2773 130.8505
ENERGY: 1200000 8.0532 6.4789 19.2954 0.0000 -10572.4306 1353.0467 0.0000 0.0000 1754.9799 -7430.5766 299.4223 -9185.5565 -7424.0010 299.0917 -656.7723 -603.6595 30322.6625 -90.3087 -39.2500
ENERGY: 1500000 7.3808 6.6067 10.5609 0.0000 -10611.9972 1393.2232 0.0000 0.0000 1739.9099 -7454.3158 296.8512 -9194.2257 -7425.3829 299.3990 -365.1480 -301.9937 30151.9302 -103.2613 -50.9382
TCL: Running FEP window  20: Lambda1 0.9500000000000003 Lambda2 1.0    [dLambda 0.04999999999999971]
TCL: Setting parameter firsttimestep to 0
TCL: Setting parameter alchLambda to 0.9500000000000003
Info: NONBONDED TABLE R-SQUARED SPACING: 0.0625
Info: NONBONDED TABLE SIZE: 705 POINTS
TCL: Setting parameter alchLambda2 to 1.0
Info: NONBONDED TABLE R-SQUARED SPACING: 0.0625
Info: NONBONDED TABLE SIZE: 705 POINTS
TCL: Running for 1500000 steps
ETITLE: TS BOND ANGLE DIHED IMPRP ELECT VDW BOUNDARY MISC KINETIC TOTAL TEMP POTENTIAL TOTALAVG TEMPAVG PRESSURE GPRESSURE VOLUME PRESSAVG GPRESSAVG
ENERGY: 0 7.3808 6.6067 10.5609 0.0000 -10612.4792 1393.2270 0.0000 0.0000 1739.0669 -7455.6370 296.7073 -9194.7038 -7455.6370 296.7073 -366.0057 -278.1807 30151.9302 -366.0057 -278.1807
ENERGY: 300000 5.7183 4.9638 8.5188 0.0000 -10538.3973 1397.8495 0.0000 0.0000 1794.8882 -7326.4586 306.2312 -9121.3468 -7384.0971 305.3744 -302.9562 -185.9875 30651.7283 -218.3273 -135.3214
ENERGY: 600000 9.4312 5.7913 11.5033 0.0000 -10637.8400 1368.8718 0.0000 0.0000 1752.1997 -7490.0428 298.9480 -9242.2425 -7394.1955 302.5558 -430.0014 -387.4234 30146.0488 -73.4400 -5.4943
ENERGY: 900000 4.5937 6.2238 8.5169 0.0000 -10613.6375 1424.9596 0.0000 0.0000 1772.4868 -7396.8567 302.4092 -9169.3436 -7407.0423 301.6309 -21.0351 43.6846 30557.8303 50.1820 122.1077
ENERGY: 1200000 3.7650 4.2436 18.6671 0.0000 -10634.4877 1423.4691 0.0000 0.0000 1779.9982 -7404.3448 303.6907 -9184.3430 -7407.9222 300.9649 119.6186 106.3565 30410.2784 71.0427 133.6158
ENERGY: 1500000 8.3367 6.1563 9.9466 0.0000 -10617.8691 1386.9355 0.0000 0.0000 1747.4140 -7459.0799 298.1315 -9206.4940 -7401.7387 301.2082 -538.6172 -441.7189 30531.3951 -36.4554 30.2575
TCL: Exiting due to exit command.
