Info: SIMULATION PARAMETERS:
Info: TIMESTEP               2
Info: NUMBER OF STEPS        0
Info: STEPS PER CYCLE        10
Info: PERIODIC CELL BASIS 1  31.707 0 0
Info: PERIODIC CELL BASIS 2  0 32.3736 0
Info: PERIODIC CELL BASIS 3  0 0 30.5401
Info: PERIODIC CELL CENTER   0 0 0
Info: WRAPPING WATERS AROUND PERIODIC BOUNDARIES ON OUTPUT.
Info: WRAPPING ALL CLUSTERS AROUND PERIODIC BOUNDARIES ON OUTPUT.
Info: FIRST LDB TIMESTEP     50
Info: LAST LDB TIMESTEP     -1
Info: HOM BACKGROUND SCALING 1
Info: PME BACKGROUND SCALING 1
Info: MIN ATOMS PER PATCH    40
Info: EMPTY PATCH LOAD       40 ATOMS
Info: VELOCITY FILE          mobley_6006813_equil.vel
Info: CENTER OF MASS MOVING INITIALLY? NO
Info: DIELECTRIC             1
Info: EXCLUDE                SCALED ONE-FOUR
Info: 1-4 ELECTROSTATICS SCALED BY 0.833333
Info: MODIFIED 1-4 VDW PARAMETERS WILL BE USED
Info: DCD FILENAME           mobley_6006813_prod.dcd
Info: DCD FREQUENCY          100000
Info: DCD FIRST STEP         100000
Info: DCD FILE WILL CONTAIN UNIT CELL DATA
Info: XST FILENAME           mobley_6006813_prod.xst
Info: XST FREQUENCY          100000
Info: NO VELOCITY DCD OUTPUT
Info: NO FORCE DCD OUTPUT
Info: OUTPUT FILENAME        mobley_6006813_prod
Info: BINARY OUTPUT FILES WILL BE USED
Info: RESTART FILENAME       mobley_6006813_prod.restart
Info: RESTART FREQUENCY      100000
Info: BINARY RESTART FILES WILL BE USED
Info: CUTOFF                 9
Info: PAIRLIST DISTANCE      11
Info: PAIRLIST SHRINK RATE   0.01
Info: PAIRLIST GROW RATE     0.01
Info: PAIRLIST TRIGGER       0.3
Info: PAIRLISTS PER CYCLE    2
Info: PAIRLISTS ENABLED
Info: MARGIN                 2
Info: HYDROGEN GROUP CUTOFF  2.5
Info: PATCH DIMENSION        15.5
Info: ENERGY OUTPUT STEPS    100000
Info: ENERGY EVALUATION STEPS    100000
Info: OUTPUT ENERGY PRECISION 4
Info: CROSSTERM ENERGY INCLUDED IN DIHEDRAL
Info: TIMING OUTPUT STEPS    1000000
Info: PRESSURE OUTPUT STEPS  100000
Info: ALCHEMICAL FEP ON
Info: FEP CURRENT LAMBDA VALUE     1
Info: FEP COMPARISON LAMBDA VALUE  0.95
Info: FEP INTRA-ALCHEMICAL NON-BONDED INTERACTIONS WILL BE RETAINED
Info: FEP INTRA-ALCHEMICAL BONDED INTERACTIONS WILL BE RETAINED
Info: FEP VDW SHIFTING COEFFICIENT 5
Info: FEP ELEC. ACTIVE FOR ANNIHILATED PARTICLES BETWEEN LAMBDA = 0 AND LAMBDA = 0.5
Info: FEP ELEC. ACTIVE FOR EXNIHILATED PARTICLES BETWEEN LAMBDA = 0.5 AND LAMBDA = 1
Info: FEP VDW ACTIVE FOR ANNIHILATED PARTICLES BETWEEN LAMBDA = 0 AND LAMBDA = 1
Info: FEP VDW ACTIVE FOR EXNIHILATED PARTICLES BETWEEN LAMBDA = 0 AND LAMBDA = 1
Info: FEP BOND ACTIVE FOR ANNIHILATED PARTICLES BETWEEN LAMBDA = 1 AND LAMBDA = 1
Info: FEP BOND ACTIVE FOR EXNIHILATED PARTICLES BETWEEN LAMBDA = 0 AND LAMBDA = 0
Info: LANGEVIN DYNAMICS ACTIVE
Info: LANGEVIN TEMPERATURE   300
Info: LANGEVIN USING BBK INTEGRATOR
Info: LANGEVIN DAMPING COEFFICIENT IS 1 INVERSE PS
Info: LANGEVIN DYNAMICS APPLIED TO HYDROGENS
Info: LANGEVIN PISTON PRESSURE CONTROL ACTIVE
Info:        TARGET PRESSURE IS 1.01325 BAR
Info:     OSCILLATION PERIOD IS 50 FS
Info:             DECAY TIME IS 25 FS
Info:     PISTON TEMPERATURE IS 300 K
Info:       PRESSURE CONTROL IS GROUP-BASED
Info:    INITIAL STRAIN RATE IS 0.000363591 0.000363591 0.000363591
Info:       CELL FLUCTUATION IS ISOTROPIC
Info: PARTICLE MESH EWALD (PME) ACTIVE
Info: PME TOLERANCE               1e-06
Info: PME EWALD COEFFICIENT       0.348832
Info: PME INTERPOLATION ORDER     4
Info: PME GRID DIMENSIONS         32 36 32
Info: PME MAXIMUM GRID SPACING    1
Info: PME CALCULATION WILL BE PERFORMED ON GPU
Info: FULL ELECTROSTATIC EVALUATION FREQUENCY      2
Info: USING VERLET I (r-RESPA) MTS SCHEME.
Info: C1 SPLITTING OF LONG RANGE ELECTROSTATICS
Info: PLACING ATOMS IN PATCHES BY HYDROGEN GROUPS
Info: RIGID BONDS TO HYDROGEN : ALL
Info:         ERROR TOLERANCE : 1e-08
Info:          MAX ITERATIONS : 100
Info: RIGID WATER USING SETTLE ALGORITHM
Info: RANDOM NUMBER SEED     1743912009
Info: USE HYDROGEN BONDS?    NO
Info: Using AMBER format force field!
Info: AMBER PARM FILE        mobley_6006813.prmtop
Info: COORDINATE PDB         mobley_6006813.pdb
Info: Exclusions will be read from PARM file!
Info: SCNB (VDW SCALING)     2
Info: USING ARITHMETIC MEAN TO COMBINE L-J SIGMA PARAMETERS
Info: BINARY COORDINATES     mobley_6006813_equil.coor
Info: SUMMARY OF PARAMETERS:
Info: 7 BONDS
Info: 9 ANGLES
Info:   9 HARMONIC
Info:   0 COSINE-BASED
Info: 7 DIHEDRAL
Info: 0 IMPROPER
Info: 0 CROSSTERM
Info: 0 VDW
Info: 28 VDW_PAIRS
Info: 0 NBTHOLE_PAIRS
Info: To read alchdata from file: mobley_6006813.pdb
Info: To read alchflag data from column: 5
Info: STRUCTURE SUMMARY:
Info: 2995 ATOMS
Info: 2994 BONDS
Info: 27 ANGLES
Info: 35 DIHEDRALS
Info: 0 IMPROPERS
Info: 0 CROSSTERMS
Info: 3054 EXCLUSIONS
Info: 2988 RIGID BONDS
Info: ALCH: 0 ATOMS TO DISAPPEAR IN FINAL STATE
Info: ALCH: 16 ATOMS TO APPEAR IN FINAL STATE
Info: 5997 DEGREES OF FREEDOM
Info: 1000 HYDROGEN GROUPS
Info: 4 ATOMS IN LARGEST HYDROGEN GROUP
Info: 1000 MIGRATION GROUPS
Info: 4 ATOMS IN LARGEST MIGRATION GROUP
Info: TOTAL MASS = 17993 amu
Info: TOTAL CHARGE = -9.99905e-05 e
Info: MASS DENSITY = 0.953118 g/cm^3
Info: ATOM DENSITY = 0.0955389 atoms/A^3
Info: ADDED 0 IMPLICIT EXCLUSIONS
Info: NONBONDED TABLE R-SQUARED SPACING: 0.0625
Info: NONBONDED TABLE SIZE: 705 POINTS
Info: REDUCING NUMBER OF PATCHES TO IMPROVE LOAD BALANCE
Info: REMOVING COM VELOCITY 0.23003 -0.0500341 -0.165728
Info: Use 3D box decompostion in PME FFT.
Info: Updated CUDA force table with 4096 elements.
Info: Updated CUDA LJ table with 7 x 7 elements.
Info: Found 19 unique exclusion lists needing 44 bytes
TCL: Running for 1500000 steps
ETITLE: TS BOND ANGLE DIHED IMPRP ELECT VDW BOUNDARY MISC KINETIC TOTAL TEMP POTENTIAL TOTALAVG TEMPAVG PRESSURE GPRESSURE VOLUME PRESSAVG GPRESSAVG
ENERGY: 0 3.0095 5.8227 1.0205 0.0000 -10750.2317 1392.2767 0.0000 0.0000 1776.0528 -7572.0496 298.0658 -9348.1024 -7572.0496 298.0658 -685.8507 -596.8420 31348.4788 -685.8507 -596.8420
ENERGY: 300000 0.6802 5.0037 1.8537 0.0000 -10869.1302 1447.0377 0.0000 0.0000 1826.6056 -7587.9493 306.5499 -9414.5549 -7565.4603 303.6027 -134.5356 -109.1672 30993.5178 -62.9107 19.1029
ENERGY: 600000 0.3494 5.4492 0.7216 0.0000 -10685.7031 1316.5625 0.0000 0.0000 1759.1059 -7603.5146 295.2217 -9362.6204 -7571.7007 300.0196 -819.4874 -795.8199 30909.9987 -234.9133 -161.6201
ENERGY: 900000 4.8839 4.5114 1.5374 0.0000 -10819.0302 1505.8675 0.0000 0.0000 1766.8876 -7535.3425 296.5277 -9302.2301 -7583.3302 299.3517 603.9950 690.9018 30875.1845 -70.9920 -3.5750
ENERGY: 1200000 1.2982 6.3821 1.2799 0.0000 -10839.0585 1436.4578 0.0000 0.0000 1794.0675 -7599.5729 301.0892 -9393.6405 -7589.2194 299.6812 -237.8460 -171.5638 31023.9527 -3.1399 62.2670
ENERGY: 1500000 0.2994 8.7685 0.5834 0.0000 -10761.9067 1424.1946 0.0000 0.0000 1781.3954 -7546.6653 298.9625 -9328.0608 -7581.0483 300.5339 -51.2339 -42.0932 30964.5577 23.6312 83.3600
TCL: Running FEP window   2: Lambda1 0.95   Lambda2 0.8999999999999999 [dLambda -0.050000000000000044]
TCL: Setting parameter firsttimestep to 0
TCL: Setting parameter alchLambda to 0.95
Info: NONBONDED TABLE R-SQUARED SPACING: 0.0625
Info: NONBONDED TABLE SIZE: 705 POINTS
TCL: Setting parameter alchLambda2 to 0.8999999999999999
Info: NONBONDED TABLE R-SQUARED SPACING: 0.0625
Info: NONBONDED TABLE SIZE: 705 POINTS
TCL: Running for 1500000 steps
ETITLE: TS BOND ANGLE DIHED IMPRP ELECT VDW BOUNDARY MISC KINETIC TOTAL TEMP POTENTIAL TOTALAVG TEMPAVG PRESSURE GPRESSURE VOLUME PRESSAVG GPRESSAVG
ENERGY: 0 0.2994 8.7685 0.5834 0.0000 -10761.2396 1424.1082 0.0000 0.0000 1780.5166 -7546.9636 298.8150 -9327.4802 -7546.9636 298.8150 -150.2320 -55.5031 30964.5577 -150.2320 -55.5031
ENERGY: 300000 0.9131 3.9952 1.5322 0.0000 -10882.3286 1485.2489 0.0000 0.0000 1798.4958 -7592.1434 301.8323 -9390.6392 -7559.1346 302.5301 113.4725 260.0273 30840.4597 -146.2357 -72.3613
ENERGY: 600000 2.6983 7.0126 1.5055 0.0000 -10934.0730 1497.3720 0.0000 0.0000 1819.3742 -7606.1104 305.3363 -9425.4847 -7568.8077 302.8614 468.0258 539.9548 30552.0589 75.4876 150.2249
ENERGY: 900000 2.9107 7.6942 1.9877 0.0000 -10693.6975 1393.0862 0.0000 0.0000 1772.2342 -7515.7845 297.4250 -9288.0187 -7552.7155 301.9949 -552.5003 -401.8064 31420.7815 -11.9806 66.5095
ENERGY: 1200000 1.4934 9.1723 1.5023 0.0000 -10917.1888 1398.1610 0.0000 0.0000 1794.3263 -7712.5335 301.1326 -9506.8599 -7574.5588 301.3388 -903.0714 -798.4122 30981.9894 -141.0188 -67.8998
ENERGY: 1500000 0.9000 14.6636 1.0488 0.0000 -10891.3106 1495.6642 0.0000 0.0000 1767.4048 -7611.6293 296.6145 -9379.0341 -7577.7152 300.6105 265.3789 309.9877 31072.7440 -71.3406 -1.1589
TCL: Running FEP window   3: Lambda1 0.8999999999999999 Lambda2 0.8499999999999999 [dLambda -0.050000000000000044]
TCL: Setting parameter firsttimestep to 0
TCL: Setting parameter alchLambda to 0.8999999999999999
Info: NONBONDED TABLE R-SQUARED SPACING: 0.0625
Info: NONBONDED TABLE SIZE: 705 POINTS
TCL: Setting parameter alchLambda2 to 0.8499999999999999
Info: NONBONDED TABLE R-SQUARED SPACING: 0.0625
Info: NONBONDED TABLE SIZE: 705 POINTS
TCL: Running for 1500000 steps
ETITLE: TS BOND ANGLE DIHED IMPRP ELECT VDW BOUNDARY MISC KINETIC TOTAL TEMP POTENTIAL TOTALAVG TEMPAVG PRESSURE GPRESSURE VOLUME PRESSAVG GPRESSAVG
ENERGY: 0 0.9000 14.6636 1.0488 0.0000 -10890.8974 1495.7767 0.0000 0.0000 1766.5305 -7611.9778 296.4678 -9378.5083 -7611.9778 296.4678 216.8585 297.9891 31072.7440 216.8585 297.9891
ENERGY: 300000 2.2308 9.3449 2.3037 0.0000 -10778.4911 1381.9236 0.0000 0.0000 1793.7717 -7588.9163 301.0395 -9382.6881 -7595.7024 298.7634 -875.9126 -778.7461 31402.9663 -79.4562 -3.9829
ENERGY: 600000 1.1023 6.0604 0.9166 0.0000 -10807.8470 1498.1785 0.0000 0.0000 1843.2136 -7458.3755 309.3371 -9301.5892 -7571.0944 301.6890 417.0496 532.8284 31002.1214 196.7438 269.9556
ENERGY: 900000 4.9876 4.9118 2.8350 0.0000 -10695.2596 1387.8589 0.0000 0.0000 1803.9774 -7490.6890 302.7523 -9294.6663 -7562.3309 301.5710 -153.2482 -79.3200 31019.9424 82.3810 150.3104
ENERGY: 1200000 1.5357 12.5604 2.5121 0.0000 -10828.6481 1438.2422 0.0000 0.0000 1779.8889 -7593.9088 298.7096 -9373.7977 -7566.6943 301.6399 -278.0719 -194.2037 31335.6811 31.2281 95.9457
ENERGY: 1500000 0.8302 7.7219 0.8578 0.0000 -10734.9681 1376.0450 0.0000 0.0000 1813.4472 -7536.0661 304.3415 -9349.5132 -7575.0403 301.9785 -194.1477 -147.1551 30131.1626 45.9557 105.1994
TCL: Running FEP window   4: Lambda1 0.8499999999999999 Lambda2 0.7999999999999998 [dLambda -0.050000000000000044]
TCL: Setting parameter firsttimestep to 0
TCL: Setting parameter alchLambda to 0.8499999999999999
Info: NONBONDED TABLE R-SQUARED SPACING: 0.0625
Info: NONBONDED TABLE SIZE: 705 POINTS
TCL: Setting parameter alchLambda2 to 0.7999999999999998
Info: NONBONDED TABLE R-SQUARED SPACING: 0.0625
Info: NONBONDED TABLE SIZE: 705 POINTS
TCL: Running for 1500000 steps
ETITLE: TS BOND ANGLE DIHED IMPRP ELECT VDW BOUNDARY MISC KINETIC TOTAL TEMP POTENTIAL TOTALAVG TEMPAVG PRESSURE GPRESSURE VOLUME PRESSAVG GPRESSAVG
ENERGY: 0 0.8302 7.7219 0.8578 0.0000 -10734.7992 1375.9785 0.0000 0.0000 1812.5669 -7536.8439 304.1938 -9349.4109 -7536.8439 304.1938 -241.1041 -158.1482 30131.1626 -241.1041 -158.1482
ENERGY: 300000 1.3012 5.1912 4.3411 0.0000 -10783.6312 1424.9752 0.0000 0.0000 1839.4438 -7508.3787 308.7044 -9347.8225 -7509.2998 302.0338 -254.9306 -186.0917 31063.8163 -143.2927 -78.1806
ENERGY: 600000 5.5544 6.7550 1.0682 0.0000 -10826.1079 1443.5918 0.0000 0.0000 1886.1950 -7482.9435 316.5504 -9369.1385 -7511.1281 303.7495 50.0958 102.3266 30489.6599 -38.8483 14.5202
ENERGY: 900000 2.4414 9.8579 3.2194 0.0000 -10776.9112 1495.5073 0.0000 0.0000 1748.5737 -7517.3115 293.4542 -9265.8852 -7516.7523 302.5873 554.0372 598.7149 30961.7571 -42.6657 10.0216
ENERGY: 1200000 1.7157 4.2392 1.9418 0.0000 -10925.7490 1522.1075 0.0000 0.0000 1744.9465 -7650.7984 292.8454 -9395.7449 -7544.2287 300.7747 689.4846 767.1616 30415.4166 -32.7490 24.8912
ENERGY: 1500000 0.8805 6.4893 0.5266 0.0000 -11040.8027 1517.6104 0.0000 0.0000 1798.4983 -7716.7977 301.8328 -9515.2960 -7560.8315 301.7549 200.5509 219.4170 30503.7839 -72.3207 -19.3388
TCL: Running FEP window   5: Lambda1 0.7999999999999998 Lambda2 0.7499999999999998 [dLambda -0.050000000000000044]
TCL: Setting parameter firsttimestep to 0
TCL: Setting parameter alchLambda to 0.7999999999999998
Info: NONBONDED TABLE R-SQUARED SPACING: 0.0625
Info: NONBONDED TABLE SIZE: 705 POINTS
TCL: Setting parameter alchLambda2 to 0.7499999999999998
Info: NONBONDED TABLE R-SQUARED SPACING: 0.0625
Info: NONBONDED TABLE SIZE: 705 POINTS
TCL: Running for 1500000 steps
ETITLE: TS BOND ANGLE DIHED IMPRP ELECT VDW BOUNDARY MISC KINETIC TOTAL TEMP POTENTIAL TOTALAVG TEMPAVG PRESSURE GPRESSURE VOLUME PRESSAVG GPRESSAVG
ENERGY: 0 0.8805 6.4893 0.5266 0.0000 -11040.0940 1517.8260 0.0000 0.0000 1797.5897 -7716.7819 301.6803 -9514.3715 -7716.7819 301.6803 122.7435 211.9555 30503.7839 122.7435 211.9555
ENERGY: 300000 1.4980 9.0452 2.5327 0.0000 -10958.7200 1507.0490 0.0000 0.0000 1795.7708 -7642.8243 301.3750 -9438.5951 -7662.1060 299.5977 484.6738 602.4198 30141.2811 121.3776 222.6173
ENERGY: 600000 0.8303 6.9179 1.1063 0.0000 -11013.7207 1580.8755 0.0000 0.0000 1807.1153 -7616.8754 303.2789 -9423.9908 -7633.6497 300.4639 913.2794 957.2335 30518.4328 150.4769 227.2629
ENERGY: 900000 0.6037 7.2441 1.7867 0.0000 -10893.3678 1452.3384 0.0000 0.0000 1784.9632 -7646.4316 299.5612 -9431.3948 -7621.0286 300.0102 205.6177 246.6230 30198.5155 20.7369 89.6797
ENERGY: 1200000 0.6256 9.5797 1.0153 0.0000 -10986.9370 1508.0531 0.0000 0.0000 1802.5241 -7665.1392 302.5084 -9467.6633 -7621.4548 300.2528 84.6360 180.4466 30988.3863 14.2190 71.1021
ENERGY: 1500000 1.7426 5.4292 0.5603 0.0000 -10926.9304 1449.9058 0.0000 0.0000 1740.5996 -7728.6930 292.1159 -9469.2926 -7634.9453 298.0733 -360.2945 -280.8038 30831.3182 -151.9473 -85.8326
TCL: Running FEP window   6: Lambda1 0.7499999999999998 Lambda2 0.6999999999999997 [dLambda -0.050000000000000044]
TCL: Setting parameter firsttimestep to 0
TCL: Setting parameter alchLambda to 0.7499999999999998
Info: NONBONDED TABLE R-SQUARED SPACING: 0.0625
Info: NONBONDED TABLE SIZE: 705 POINTS
TCL: Setting parameter alchLambda2 to 0.6999999999999997
Info: NONBONDED TABLE R-SQUARED SPACING: 0.0625
Info: NONBONDED TABLE SIZE: 705 POINTS
TCL: Running for 1500000 steps
ETITLE: TS BOND ANGLE DIHED IMPRP ELECT VDW BOUNDARY MISC KINETIC TOTAL TEMP POTENTIAL TOTALAVG TEMPAVG PRESSURE GPRESSURE VOLUME PRESSAVG GPRESSAVG
ENERGY: 0 1.7426 5.4292 0.5603 0.0000 -10926.7622 1450.6206 0.0000 0.0000 1739.7128 -7728.6968 291.9671 -9468.4096 -7728.6968 291.9671 -376.4201 -279.4114 30831.3182 -376.4201 -279.4114
ENERGY: 300000 1.7496 7.0478 1.0256 0.0000 -10846.3496 1503.3120 0.0000 0.0000 1842.3585 -7490.8561 309.1936 -9333.2146 -7629.1311 301.4001 347.8558 370.8388 30948.8083 -141.2901 -80.7941
ENERGY: 600000 2.0534 6.0879 1.6445 0.0000 -10845.3554 1463.8509 0.0000 0.0000 1838.4935 -7533.2252 308.5450 -9371.7187 -7589.1610 301.3353 389.5983 439.5634 30547.0126 56.7989 108.2296
ENERGY: 900000 1.7000 6.4539 1.4338 0.0000 -10809.4092 1434.0579 0.0000 0.0000 1842.0731 -7523.6904 309.1457 -9365.7636 -7590.7513 302.1484 -125.6445 -74.1435 30938.8616 12.5719 67.6819
ENERGY: 1200000 1.8160 8.4265 0.5639 0.0000 -10751.0400 1352.8225 0.0000 0.0000 1755.7741 -7631.6371 294.6626 -9387.4112 -7601.1716 301.7067 -1151.0441 -1012.3303 31307.3655 -68.5515 -14.3379
ENERGY: 1500000 1.5425 6.5718 0.7591 0.0000 -10900.6644 1436.7183 0.0000 0.0000 1788.1146 -7666.9581 300.0901 -9455.0727 -7613.2718 300.6518 -560.8451 -508.6861 31043.2364 -139.0498 -81.8570
TCL: Running FEP window   7: Lambda1 0.6999999999999997 Lambda2 0.6499999999999997 [dLambda -0.050000000000000044]
TCL: Setting parameter firsttimestep to 0
TCL: Setting parameter alchLambda to 0.6999999999999997
Info: NONBONDED TABLE R-SQUARED SPACING: 0.0625
Info: NONBONDED TABLE SIZE: 705 POINTS
TCL: Setting parameter alchLambda2 to 0.6499999999999997
Info: NONBONDED TABLE R-SQUARED SPACING: 0.0625
Info: NONBONDED TABLE SIZE: 705 POINTS
TCL: Running for 1500000 steps
ETITLE: TS BOND ANGLE DIHED IMPRP ELECT VDW BOUNDARY MISC KINETIC TOTAL TEMP POTENTIAL TOTALAVG TEMPAVG PRESSURE GPRESSURE VOLUME PRESSAVG GPRESSAVG
ENERGY: 0 1.5425 6.5718 0.7591 0.0000 -10900.2217 1437.1101 0.0000 0.0000 1787.2104 -7667.0279 299.9384 -9454.2383 -7667.0279 299.9384 -585.7433 -511.0689 31043.2364 -585.7433 -511.0689
ENERGY: 300000 1.5403 7.9112 1.1211 0.0000 -10759.1152 1497.3038 0.0000 0.0000 1732.3266 -7518.9122 290.7275 -9251.2388 -7580.1795 300.3913 350.5904 414.5160 31398.2031 53.0554 111.7657
ENERGY: 600000 0.7732 6.9406 0.8750 0.0000 -10883.6310 1433.4236 0.0000 0.0000 1788.2941 -7653.3245 300.1202 -9441.6187 -7581.4985 302.9239 -536.2184 -438.2466 31059.1049 -97.2072 -27.0277
ENERGY: 900000 2.7529 9.5559 1.6018 0.0000 -10808.4366 1443.0876 0.0000 0.0000 1831.1416 -7520.2969 307.3111 -9351.4384 -7585.4696 302.7642 18.5473 85.8184 30769.0371 -47.1816 22.3732
ENERGY: 1200000 4.3544 9.0782 1.1300 0.0000 -10733.5801 1339.4144 0.0000 0.0000 1868.6450 -7510.9581 313.6051 -9379.6031 -7577.4049 302.7519 -1016.4505 -966.6649 30675.4286 -152.9224 -83.0238
ENERGY: 1500000 1.9979 6.3131 1.7568 0.0000 -10958.3648 1475.0773 0.0000 0.0000 1791.5977 -7681.6221 300.6747 -9473.2198 -7593.1852 302.1121 -449.8609 -342.6854 31030.6008 -176.5265 -104.6577
TCL: Running FEP window   8: Lambda1 0.6499999999999997 Lambda2 0.5999999999999996 [dLambda -0.050000000000000044]
TCL: Setting parameter firsttimestep to 0
TCL: Setting parameter alchLambda to 0.6499999999999997
Info: NONBONDED TABLE R-SQUARED SPACING: 0.0625
Info: NONBONDED TABLE SIZE: 705 POINTS
TCL: Setting parameter alchLambda2 to 0.5999999999999996
Info: NONBONDED TABLE R-SQUARED SPACING: 0.0625
Info: NONBONDED TABLE SIZE: 705 POINTS
TCL: Running for 1500000 steps
ETITLE: TS BOND ANGLE DIHED IMPRP ELECT VDW BOUNDARY MISC KINETIC TOTAL TEMP POTENTIAL TOTALAVG TEMPAVG PRESSURE GPRESSURE VOLUME PRESSAVG GPRESSAVG
ENERGY: 0 1.9978 6.3131 1.7568 0.0000 -10958.1120 1475.1305 0.0000 0.0000 1790.7026 -7682.2111 300.5244 -9472.9137 -7682.2111 300.5244 -432.9674 -350.0832 31030.6008 -432.9674 -350.0832
ENERGY: 300000 2.8365 6.9345 2.0398 0.0000 -10762.3258 1419.5590 0.0000 0.0000 1775.4617 -7555.4944 297.9666 -9330.9561 -7587.2647 298.0715 -67.8977 19.0499 30591.4900 -25.3414 58.9599
ENERGY: 600000 2.1819 10.9981 1.6864 0.0000 -10741.9890 1350.9016 0.0000 0.0000 1781.4664 -7594.7546 298.9744 -9376.2210 -7605.3913 298.6088 -920.5820 -873.3175 30856.7415 -190.1482 -117.1596
ENERGY: 900000 2.0519 12.7464 2.2710 0.0000 -10924.0079 1475.1545 0.0000 0.0000 1804.3901 -7627.3940 302.8216 -9431.7841 -7590.8276 300.8906 359.4704 403.8357 30207.1955 -108.5516 -32.7141
ENERGY: 1200000 2.8389 5.6656 0.6534 0.0000 -10854.1854 1431.7475 0.0000 0.0000 1837.0862 -7576.1937 308.3088 -9413.2799 -7594.6176 301.0732 -433.7891 -376.8169 30960.6951 -119.7171 -45.9697
ENERGY: 1500000 2.4615 7.9342 3.5769 0.0000 -10783.3391 1426.8070 0.0000 0.0000 1782.3982 -7560.1614 299.1308 -9342.5596 -7603.6331 300.2910 -292.5362 -237.4589 31442.8046 -189.6174 -117.4602
TCL: Running FEP window   9: Lambda1 0.5999999999999996 Lambda2 0.5499999999999996 [dLambda -0.050000000000000044]
TCL: Setting parameter firsttimestep to 0
TCL: Setting parameter alchLambda to 0.5999999999999996
Info: NONBONDED TABLE R-SQUARED SPACING: 0.0625
Info: NONBONDED TABLE SIZE: 705 POINTS
TCL: Setting parameter alchLambda2 to 0.5499999999999996
Info: NONBONDED TABLE R-SQUARED SPACING: 0.0625
Info: NONBONDED TABLE SIZE: 705 POINTS
TCL: Running for 1500000 steps
ETITLE: TS BOND ANGLE DIHED IMPRP ELECT VDW BOUNDARY MISC KINETIC TOTAL TEMP POTENTIAL TOTALAVG TEMPAVG PRESSURE GPRESSURE VOLUME PRESSAVG GPRESSAVG
ENERGY: 0 2.4615 7.9342 3.5769 0.0000 -10783.0557 1427.3091 0.0000 0.0000 1781.5319 -7560.2421 298.9854 -9341.7740 -7560.2421 298.9854 -323.3505 -236.3591 31442.8046 -323.3505 -236.3591
ENERGY: 300000 2.0314 6.7610 0.7861 0.0000 -10791.2745 1447.8247 0.0000 0.0000 1824.5621 -7509.3092 306.2069 -9333.8713 -7565.5762 303.3296 -15.0687 95.1519 30841.0337 -19.3463 66.3089
ENERGY: 600000 2.8625 6.9117 0.9371 0.0000 -10860.5489 1471.7925 0.0000 0.0000 1765.4890 -7612.5561 296.2930 -9378.0451 -7599.6707 299.2219 -133.7221 -142.2687 31010.2481 -110.6871 -46.7641
ENERGY: 900000 5.5227 6.0988 2.4970 0.0000 -10763.8599 1411.3008 0.0000 0.0000 1803.4991 -7534.9415 302.6720 -9338.4406 -7601.1886 299.9469 -272.8188 -249.1995 30990.8830 -68.3799 -10.1539
ENERGY: 1200000 2.2446 7.8520 0.6748 0.0000 -10913.3363 1475.7215 0.0000 0.0000 1829.5014 -7597.3419 307.0358 -9426.8433 -7582.7929 301.5281 543.5166 640.9368 30197.0707 20.1897 79.3552
ENERGY: 1500000 1.2377 5.7915 1.3505 0.0000 -10753.4433 1369.2267 0.0000 0.0000 1835.2161 -7540.6208 307.9949 -9375.8369 -7584.3800 301.4456 -851.3167 -780.6103 31573.7745 -58.9510 -3.0992
TCL: Running FEP window  10: Lambda1 0.5499999999999996 Lambda2 0.4999999999999996 [dLambda -0.04999999999999999]
TCL: Setting parameter firsttimestep to 0
TCL: Setting parameter alchLambda to 0.5499999999999996
Info: NONBONDED TABLE R-SQUARED SPACING: 0.0625
Info: NONBONDED TABLE SIZE: 705 POINTS
TCL: Setting parameter alchLambda2 to 0.4999999999999996
Info: NONBONDED TABLE R-SQUARED SPACING: 0.0625
Info: NONBONDED TABLE SIZE: 705 POINTS
TCL: Running for 1500000 steps
ETITLE: TS BOND ANGLE DIHED IMPRP ELECT VDW BOUNDARY MISC KINETIC TOTAL TEMP POTENTIAL TOTALAVG TEMPAVG PRESSURE GPRESSURE VOLUME PRESSAVG GPRESSAVG
ENERGY: 0 1.2377 5.7915 1.3505 0.0000 -10753.4711 1369.2584 0.0000 0.0000 1834.3412 -7541.4917 307.8481 -9375.8329 -7541.4917 307.8481 -867.1155 -788.0375 31573.7745 -867.1155 -788.0375
ENERGY: 300000 1.1888 6.8491 1.2843 0.0000 -10914.6751 1445.0469 0.0000 0.0000 1717.0281 -7743.2779 288.1600 -9460.3060 -7620.2034 301.6378 -147.1446 -100.9666 30404.3194 -357.0025 -299.4231
ENERGY: 600000 2.9021 9.9101 0.7735 0.0000 -11014.0628 1565.9885 0.0000 0.0000 1783.5112 -7650.9774 299.3176 -9434.4886 -7625.4402 301.7838 838.2444 852.4244 30346.4723 -288.9909 -242.0635
ENERGY: 900000 1.3074 3.9364 0.9323 0.0000 -10913.1174 1474.3915 0.0000 0.0000 1814.0536 -7618.4961 304.4433 -9432.5498 -7616.5728 302.2117 246.5807 320.4686 30216.0748 -193.6900 -142.9267
ENERGY: 1200000 0.6408 8.0374 0.6125 0.0000 -10698.5968 1336.3580 0.0000 0.0000 1774.7286 -7578.2196 297.8436 -9352.9482 -7601.0139 302.0567 -1098.9933 -1041.8365 31467.6227 -189.0438 -135.4748
ENERGY: 1500000 2.8768 7.4300 3.4632 0.0000 -10948.7359 1469.1790 0.0000 0.0000 1791.7514 -7674.0354 300.7005 -9465.7868 -7621.6918 300.8333 -122.0935 -66.8255 30546.8908 -211.4461 -156.4310
TCL: Running FEP window  11: Lambda1 0.4999999999999996 Lambda2 0.4499999999999996 [dLambda -0.04999999999999999]
TCL: Setting parameter firsttimestep to 0
TCL: Setting parameter alchLambda to 0.4999999999999996
Info: NONBONDED TABLE R-SQUARED SPACING: 0.0625
Info: NONBONDED TABLE SIZE: 705 POINTS
TCL: Setting parameter alchLambda2 to 0.4499999999999996
Info: NONBONDED TABLE R-SQUARED SPACING: 0.0625
Info: NONBONDED TABLE SIZE: 705 POINTS
TCL: Running for 1500000 steps
ETITLE: TS BOND ANGLE DIHED IMPRP ELECT VDW BOUNDARY MISC KINETIC TOTAL TEMP POTENTIAL TOTALAVG TEMPAVG PRESSURE GPRESSURE VOLUME PRESSAVG GPRESSAVG
ENERGY: 0 2.8768 7.4300 3.4632 0.0000 -10949.0334 1469.5260 0.0000 0.0000 1790.8334 -7674.9038 300.5464 -9465.7373 -7674.9038 300.5464 -141.6507 -71.5272 30546.8908 -141.6507 -71.5272
ENERGY: 300000 1.0822 6.7302 1.0664 0.0000 -10891.5148 1494.2504 0.0000 0.0000 1814.9810 -7573.4046 304.5990 -9388.3856 -7610.4265 301.0206 507.4745 555.0180 30568.9286 137.9892 189.6330
ENERGY: 600000 0.3275 5.0722 1.7271 0.0000 -10859.8713 1505.3359 0.0000 0.0000 1800.6315 -7546.7772 302.1908 -9347.4087 -7581.8584 303.7222 425.0496 511.8130 30733.5707 1.9039 49.2699
ENERGY: 900000 2.0034 6.2849 0.6786 0.0000 -10882.6805 1494.1774 0.0000 0.0000 1782.1649 -7597.3713 299.0916 -9379.5362 -7579.6296 302.7841 378.8764 420.4581 30598.0523 95.2565 147.9093
ENERGY: 1200000 2.7309 8.2617 1.1891 0.0000 -10868.4031 1513.3909 0.0000 0.0000 1821.5941 -7521.2364 305.7088 -9342.8305 -7575.5367 303.0089 387.1249 554.5331 31064.4074 77.2334 135.7486
ENERGY: 1500000 3.1314 7.6216 0.9546 0.0000 -10940.6759 1464.9940 0.0000 0.0000 1753.3721 -7710.6022 294.2594 -9463.9743 -7583.2628 302.5859 -155.9696 -163.0123 30953.0099 2.0889 54.5774
TCL: Running FEP window  12: Lambda1 0.4499999999999996 Lambda2 0.39999999999999963 [dLambda -0.04999999999999999]
TCL: Setting parameter firsttimestep to 0
TCL: Setting parameter alchLambda to 0.4499999999999996
Info: NONBONDED TABLE R-SQUARED SPACING: 0.0625
Info: NONBONDED TABLE SIZE: 705 POINTS
TCL: Setting parameter alchLambda2 to 0.39999999999999963
Info: NONBONDED TABLE R-SQUARED SPACING: 0.0625
Info: NONBONDED TABLE SIZE: 705 POINTS
TCL: Running for 1500000 steps
ETITLE: TS BOND ANGLE DIHED IMPRP ELECT VDW BOUNDARY MISC KINETIC TOTAL TEMP POTENTIAL TOTALAVG TEMPAVG PRESSURE GPRESSURE VOLUME PRESSAVG GPRESSAVG
ENERGY: 0 3.1314 7.6216 0.9546 0.0000 -10940.6753 1465.4769 0.0000 0.0000 1752.4847 -7711.0062 294.1105 -9463.4908 -7711.0062 294.1105 -241.1283 -165.3124 30953.0099 -241.1283 -165.3124
ENERGY: 300000 1.3235 5.5508 1.6564 0.0000 -10870.4974 1539.0076 0.0000 0.0000 1791.1306 -7531.8285 300.5963 -9322.9591 -7601.6783 301.6377 574.4875 659.7114 30817.9218 262.8062 319.4333
ENERGY: 600000 1.5906 6.7594 0.5312 0.0000 -10825.7865 1405.7295 0.0000 0.0000 1813.7146 -7597.4613 304.3864 -9411.1758 -7590.2270 300.5350 -728.9584 -683.7080 30990.0918 80.1571 140.6431
ENERGY: 900000 3.6539 6.9933 0.5580 0.0000 -11019.5320 1595.7672 0.0000 0.0000 1787.9590 -7624.6006 300.0640 -9412.5596 -7602.1333 300.7170 1049.3450 1129.3282 30665.1308 187.6683 253.2618
ENERGY: 1200000 1.3686 10.0318 1.2507 0.0000 -10934.8755 1505.1845 0.0000 0.0000 1813.0916 -7603.9484 304.2819 -9417.0399 -7611.2139 300.1403 329.4772 364.1135 30380.7763 112.0414 171.9830
ENERGY: 1500000 1.7124 7.5428 3.9282 0.0000 -10754.6780 1370.2938 0.0000 0.0000 1770.0067 -7601.1942 297.0511 -9371.2008 -7618.6568 298.9562 -596.2037 -615.1172 30777.6526 71.6112 131.8362
TCL: Running FEP window  13: Lambda1 0.39999999999999963 Lambda2 0.34999999999999964 [dLambda -0.04999999999999999]
TCL: Setting parameter firsttimestep to 0
TCL: Setting parameter alchLambda to 0.39999999999999963
Info: NONBONDED TABLE R-SQUARED SPACING: 0.0625
Info: NONBONDED TABLE SIZE: 705 POINTS
TCL: Setting parameter alchLambda2 to 0.34999999999999964
Info: NONBONDED TABLE R-SQUARED SPACING: 0.0625
Info: NONBONDED TABLE SIZE: 705 POINTS
TCL: Running for 1500000 steps
ETITLE: TS BOND ANGLE DIHED IMPRP ELECT VDW BOUNDARY MISC KINETIC TOTAL TEMP POTENTIAL TOTALAVG TEMPAVG PRESSURE GPRESSURE VOLUME PRESSAVG GPRESSAVG
ENERGY: 0 1.7124 7.5428 3.9282 0.0000 -10754.6779 1370.7282 0.0000 0.0000 1769.0899 -7601.6763 296.8973 -9370.7663 -7601.6763 296.8973 -687.3697 -617.3471 30777.6526 -687.3697 -617.3471
ENERGY: 300000 1.3898 7.8021 1.3364 0.0000 -10601.1116 1345.2042 0.0000 0.0000 1794.3723 -7451.0068 301.1403 -9245.3791 -7545.2939 299.3825 -512.4423 -491.3971 31155.9691 -487.1476 -431.8159
ENERGY: 600000 1.2637 7.5524 1.4753 0.0000 -10693.4157 1361.8992 0.0000 0.0000 1751.2947 -7569.9306 293.9108 -9321.2253 -7588.2278 297.0528 -686.8657 -650.1368 31003.4447 -539.1264 -488.1437
ENERGY: 900000 1.3459 6.7234 2.5600 0.0000 -10979.4659 1532.7559 0.0000 0.0000 1808.7693 -7627.3114 303.5565 -9436.0807 -7606.8272 298.7128 403.7598 465.0412 30679.0593 -330.3654 -278.6536
ENERGY: 1200000 3.1255 7.1393 1.2977 0.0000 -10837.9520 1475.6616 0.0000 0.0000 1858.9164 -7491.8116 311.9724 -9350.7279 -7600.3457 299.2643 525.6433 583.4563 30377.9428 -197.8212 -148.3167
ENERGY: 1500000 6.5657 5.0845 1.6645 0.0000 -10912.9638 1500.0586 0.0000 0.0000 1786.0072 -7613.5832 299.7364 -9399.5904 -7602.2064 299.1448 204.4999 282.5707 30599.2393 -189.0800 -135.9633
TCL: Running FEP window  14: Lambda1 0.34999999999999964 Lambda2 0.29999999999999966 [dLambda -0.04999999999999999]
TCL: Setting parameter firsttimestep to 0
TCL: Setting parameter alchLambda to 0.34999999999999964
Info: NONBONDED TABLE R-SQUARED SPACING: 0.0625
Info: NONBONDED TABLE SIZE: 705 POINTS
TCL: Setting parameter alchLambda2 to 0.29999999999999966
Info: NONBONDED TABLE R-SQUARED SPACING: 0.0625
Info: NONBONDED TABLE SIZE: 705 POINTS
TCL: Running for 1500000 steps
ETITLE: TS BOND ANGLE DIHED IMPRP ELECT VDW BOUNDARY MISC KINETIC TOTAL TEMP POTENTIAL TOTALAVG TEMPAVG PRESSURE GPRESSURE VOLUME PRESSAVG GPRESSAVG
ENERGY: 0 6.5657 5.0845 1.6645 0.0000 -10912.9638 1500.2782 0.0000 0.0000 1785.0779 -7614.2929 299.5805 -9399.3708 -7614.2929 299.5805 187.2056 278.2492 30599.2393 187.2056 278.2492
ENERGY: 300000 4.1994 5.0911 1.4033 0.0000 -10751.0210 1341.9288 0.0000 0.0000 1795.7485 -7602.6498 301.3713 -9398.3983 -7598.5680 303.1078 -1367.2970 -1305.0132 31477.1845 -182.3570 -127.1386
ENERGY: 600000 2.0145 5.3597 1.2859 0.0000 -10859.2721 1451.3731 0.0000 0.0000 1746.6066 -7652.6323 293.1240 -9399.2389 -7601.6690 298.5432 1.8623 88.8030 30431.8788 -107.2887 -50.2423
ENERGY: 900000 0.5642 5.3596 1.1642 0.0000 -10942.1292 1469.7979 0.0000 0.0000 1815.2602 -7649.9831 304.6458 -9465.2433 -7615.6182 298.8535 32.5853 117.4054 30232.7571 -83.4021 -33.7501
ENERGY: 1200000 1.3390 9.0451 1.3090 0.0000 -11031.9123 1627.6639 0.0000 0.0000 1825.7531 -7566.8022 306.4068 -9392.5553 -7599.5673 300.4120 1561.2266 1567.3968 30167.4547 75.9612 117.8774
ENERGY: 1500000 0.7320 9.3351 0.9552 0.0000 -10841.0618 1479.7928 0.0000 0.0000 1801.3123 -7548.9344 302.3050 -9350.2467 -7590.4510 300.7000 123.1670 214.1254 30899.3501 36.3799 88.4990
TCL: Running FEP window  15: Lambda1 0.29999999999999966 Lambda2 0.24999999999999967 [dLambda -0.04999999999999999]
TCL: Setting parameter firsttimestep to 0
TCL: Setting parameter alchLambda to 0.29999999999999966
Info: NONBONDED TABLE R-SQUARED SPACING: 0.0625
Info: NONBONDED TABLE SIZE: 705 POINTS
TCL: Setting parameter alchLambda2 to 0.24999999999999967
Info: NONBONDED TABLE R-SQUARED SPACING: 0.0625
Info: NONBONDED TABLE SIZE: 705 POINTS
TCL: Running for 1500000 steps
ETITLE: TS BOND ANGLE DIHED IMPRP ELECT VDW BOUNDARY MISC KINETIC TOTAL TEMP POTENTIAL TOTALAVG TEMPAVG PRESSURE GPRESSURE VOLUME PRESSAVG GPRESSAVG
ENERGY: 0 0.7320 9.3351 0.9552 0.0000 -10841.0615 1480.1048 0.0000 0.0000 1800.4475 -7549.4869 302.1599 -9349.9344 -7549.4869 302.1599 132.0331 213.9429 30899.3501 132.0331 213.9429
ENERGY: 300000 2.5076 7.7336 2.0017 0.0000 -10855.2199 1437.3632 0.0000 0.0000 1798.6942 -7606.9196 301.8656 -9405.6139 -7596.0760 299.5199 -517.5250 -422.7609 30968.8181 -317.6144 -243.7119
ENERGY: 600000 3.2408 7.4000 1.5552 0.0000 -10933.3701 1578.0537 0.0000 0.0000 1805.1364 -7537.9840 302.9468 -9343.1204 -7613.9433 296.0350 1045.3366 1111.0825 30661.5347 17.2159 77.1933
ENERGY: 900000 4.5848 6.4799 2.8602 0.0000 -10891.6677 1513.0805 0.0000 0.0000 1814.3423 -7550.3200 304.4918 -9364.6623 -7610.1434 297.7040 477.7032 592.7146 30716.0947 74.8808 151.4821
ENERGY: 1200000 1.0026 7.3547 1.4350 0.0000 -10814.3020 1439.1404 0.0000 0.0000 1732.2004 -7633.1690 290.7063 -9365.3694 -7610.1133 298.5228 -87.9246 -32.7283 30535.7928 151.4836 222.8347
ENERGY: 1500000 2.6530 5.2668 1.1494 0.0000 -10835.2755 1429.6884 0.0000 0.0000 1836.2673 -7560.2506 308.1713 -9396.5179 -7606.9008 299.8115 54.1924 51.4843 30419.3190 70.7188 134.4168
TCL: Running FEP window  16: Lambda1 0.24999999999999967 Lambda2 0.19999999999999968 [dLambda -0.04999999999999999]
TCL: Setting parameter firsttimestep to 0
TCL: Setting parameter alchLambda to 0.24999999999999967
Info: NONBONDED TABLE R-SQUARED SPACING: 0.0625
Info: NONBONDED TABLE SIZE: 705 POINTS
TCL: Setting parameter alchLambda2 to 0.19999999999999968
Info: NONBONDED TABLE R-SQUARED SPACING: 0.0625
Info: NONBONDED TABLE SIZE: 705 POINTS
TCL: Running for 1500000 steps
ETITLE: TS BOND ANGLE DIHED IMPRP ELECT VDW BOUNDARY MISC KINETIC TOTAL TEMP POTENTIAL TOTALAVG TEMPAVG PRESSURE GPRESSURE VOLUME PRESSAVG GPRESSAVG
ENERGY: 0 2.6531 5.2668 1.1494 0.0000 -10835.2753 1429.7823 0.0000 0.0000 1835.4166 -7561.0071 308.0286 -9396.4237 -7561.0071 308.0286 -21.5408 48.0481 30419.3190 -21.5408 48.0481
ENERGY: 300000 2.8306 5.7195 0.6059 0.0000 -10850.1101 1428.8151 0.0000 0.0000 1815.8406 -7596.2984 304.7432 -9412.1390 -7517.4339 306.7876 -510.0391 -422.2484 30868.9670 3.9805 66.1766
ENERGY: 600000 0.2855 10.4956 0.7783 0.0000 -10763.1965 1379.2370 0.0000 0.0000 1805.9982 -7566.4019 303.0914 -9372.4002 -7548.6134 303.3778 -619.6223 -578.9183 30778.7055 -54.8363 2.7938
ENERGY: 900000 2.0020 4.6919 0.7874 0.0000 -10634.3215 1318.1778 0.0000 0.0000 1773.9166 -7534.7458 297.7073 -9308.6624 -7556.2827 302.9001 -830.0232 -790.4968 30976.8331 -163.1851 -110.9107
ENERGY: 1200000 1.4023 6.6438 0.8079 0.0000 -10777.2731 1429.5338 0.0000 0.0000 1791.3067 -7547.5786 300.6258 -9338.8853 -7565.8631 301.6368 -93.1043 -78.2466 30831.8651 -23.6789 29.5504
ENERGY: 1500000 2.1035 4.9561 1.8008 0.0000 -10914.0921 1468.1329 0.0000 0.0000 1776.0646 -7661.0341 298.0678 -9437.0987 -7578.3584 300.5751 -361.7510 -297.0698 31156.6577 -107.3821 -49.6471
TCL: Running FEP window  17: Lambda1 0.19999999999999968 Lambda2 0.1499999999999997 [dLambda -0.04999999999999999]
TCL: Setting parameter firsttimestep to 0
TCL: Setting parameter alchLambda to 0.19999999999999968
Info: NONBONDED TABLE R-SQUARED SPACING: 0.0625
Info: NONBONDED TABLE SIZE: 705 POINTS
TCL: Setting parameter alchLambda2 to 0.1499999999999997
Info: NONBONDED TABLE R-SQUARED SPACING: 0.0625
Info: NONBONDED TABLE SIZE: 705 POINTS
TCL: Running for 1500000 steps
ETITLE: TS BOND ANGLE DIHED IMPRP ELECT VDW BOUNDARY MISC KINETIC TOTAL TEMP POTENTIAL TOTALAVG TEMPAVG PRESSURE GPRESSURE VOLUME PRESSAVG GPRESSAVG
ENERGY: 0 2.1035 4.9561 1.8008 0.0000 -10914.0920 1468.5701 0.0000 0.0000 1775.1482 -7661.5132 297.9140 -9436.6614 -7661.5132 297.9140 -390.2423 -297.3423 31156.6577 -390.2423 -297.3423
ENERGY: 300000 0.8679 4.7201 2.7560 0.0000 -10979.0937 1544.8393 0.0000 0.0000 1771.3198 -7654.5905 297.2715 -9425.9103 -7602.9971 299.1579 446.3286 491.3768 30884.1132 -66.1926 -14.5502
ENERGY: 600000 5.3690 6.9264 0.9218 0.0000 -10742.7878 1341.3161 0.0000 0.0000 1784.8869 -7603.3677 299.5484 -9388.2545 -7588.9386 300.5104 -914.8777 -899.6185 30608.0170 -245.6637 -201.8709
ENERGY: 900000 2.3984 6.8598 2.2655 0.0000 -10826.5116 1570.6491 0.0000 0.0000 1863.4228 -7380.9162 312.7287 -9244.3389 -7566.0739 301.0856 1176.7813 1250.3985 30862.6537 -31.6478 16.9217
ENERGY: 1200000 2.6129 4.7182 1.3131 0.0000 -10917.1538 1502.4672 0.0000 0.0000 1807.7002 -7598.3423 303.3771 -9406.0425 -7574.4663 301.1054 297.3244 374.7271 30355.3259 94.6499 144.4389
ENERGY: 1500000 0.8070 7.9729 2.4988 0.0000 -10716.7648 1386.1594 0.0000 0.0000 1737.8710 -7581.4558 291.6580 -9319.3268 -7582.4745 300.1628 -619.4226 -509.5993 30915.0853 -19.3563 34.5487
TCL: Running FEP window  18: Lambda1 0.1499999999999997 Lambda2 0.09999999999999969 [dLambda -0.05 ]
TCL: Setting parameter firsttimestep to 0
TCL: Setting parameter alchLambda to 0.1499999999999997
Info: NONBONDED TABLE R-SQUARED SPACING: 0.0625
Info: NONBONDED TABLE SIZE: 705 POINTS
TCL: Setting parameter alchLambda2 to 0.09999999999999969
Info: NONBONDED TABLE R-SQUARED SPACING: 0.0625
Info: NONBONDED TABLE SIZE: 705 POINTS
TCL: Running for 1500000 steps
ETITLE: TS BOND ANGLE DIHED IMPRP ELECT VDW BOUNDARY MISC KINETIC TOTAL TEMP POTENTIAL TOTALAVG TEMPAVG PRESSURE GPRESSURE VOLUME PRESSAVG GPRESSAVG
ENERGY: 0 0.8070 7.9729 2.4988 0.0000 -10716.7645 1385.2387 0.0000 0.0000 1736.9758 -7583.2714 291.5078 -9320.2472 -7583.2714 291.5078 -603.2652 -518.7715 30915.0853 -603.2652 -518.7715
ENERGY: 300000 1.7713 8.0624 0.8481 0.0000 -10736.6359 1413.4207 0.0000 0.0000 1810.4072 -7502.1262 303.8314 -9312.5334 -7591.5054 294.4414 -341.8268 -261.4137 31221.7748 -222.7450 -147.6140
ENERGY: 600000 2.7157 4.2842 0.7041 0.0000 -10905.2507 1486.9868 0.0000 0.0000 1804.4337 -7606.1262 302.8289 -9410.5600 -7616.2585 296.5820 176.7422 249.9270 30832.2064 -11.1227 60.1706
ENERGY: 900000 2.7119 10.4893 1.1362 0.0000 -10745.1272 1396.1615 0.0000 0.0000 1796.9093 -7537.7189 301.5661 -9334.6283 -7597.9050 298.3457 -373.1699 -240.8107 30651.1049 -140.1977 -70.0020
ENERGY: 1200000 1.5446 6.7268 1.2985 0.0000 -10861.3999 1436.0941 0.0000 0.0000 1725.7092 -7690.0267 289.6169 -9415.7359 -7602.4446 298.1747 -488.5226 -442.5708 30693.0050 -150.4266 -83.2750
ENERGY: 1500000 1.4466 8.1591 1.1170 0.0000 -10940.8818 1458.6144 0.0000 0.0000 1770.9662 -7700.5786 297.2122 -9471.5447 -7607.0338 297.9873 -356.2648 -282.7850 30483.0361 -150.6143 -86.9702
TCL: Running FEP window  19: Lambda1 0.09999999999999969 Lambda2 0.049999999999999684 [dLambda -0.05 ]
TCL: Setting parameter firsttimestep to 0
TCL: Setting parameter alchLambda to 0.09999999999999969
Info: NONBONDED TABLE R-SQUARED SPACING: 0.0625
Info: NONBONDED TABLE SIZE: 705 POINTS
TCL: Setting parameter alchLambda2 to 0.049999999999999684
Info: NONBONDED TABLE R-SQUARED SPACING: 0.0625
Info: NONBONDED TABLE SIZE: 705 POINTS
TCL: Running for 1500000 steps
ETITLE: TS BOND ANGLE DIHED IMPRP ELECT VDW BOUNDARY MISC KINETIC TOTAL TEMP POTENTIAL TOTALAVG TEMPAVG PRESSURE GPRESSURE VOLUME PRESSAVG GPRESSAVG
ENERGY: 0 1.4466 8.1591 1.1170 0.0000 -10940.8807 1457.7732 0.0000 0.0000 1770.0832 -7702.3017 297.0640 -9472.3848 -7702.3017 297.0640 -372.0021 -287.0046 30483.0361 -372.0021 -287.0046
ENERGY: 300000 1.0953 6.6577 1.0301 0.0000 -10817.6153 1414.2982 0.0000 0.0000 1806.8035 -7587.7306 303.2266 -9394.5340 -7609.5842 300.2634 -501.4977 -462.1209 30909.4176 -179.7202 -117.0261
ENERGY: 600000 1.1962 7.3798 0.6596 0.0000 -10994.3751 1565.3502 0.0000 0.0000 1820.3661 -7599.4233 305.5027 -9419.7895 -7613.9728 300.7400 706.8496 839.5150 30397.8025 -102.6305 -24.0247
ENERGY: 900000 3.0508 7.3512 2.1134 0.0000 -10891.3239 1492.8259 0.0000 0.0000 1810.8594 -7575.1232 303.9073 -9385.9826 -7602.7527 300.2609 530.0483 563.6207 30378.6579 21.0307 95.5515
ENERGY: 1200000 2.7435 6.0885 0.5510 0.0000 -10893.3062 1520.7581 0.0000 0.0000 1825.9653 -7537.1998 306.4424 -9363.1651 -7592.0921 300.7826 477.0112 542.4248 30562.2816 33.2073 100.3049
ENERGY: 1500000 2.1479 12.3993 1.0160 0.0000 -10791.4340 1368.5919 0.0000 0.0000 1753.7089 -7653.5699 294.3160 -9407.2788 -7594.1525 299.9498 -939.8988 -848.4061 30718.7301 -59.0142 5.6112
TCL: Running FEP window  20: Lambda1 0.049999999999999684 Lambda2 0.0    [dLambda -0.049999999999999684]
TCL: Setting parameter firsttimestep to 0
TCL: Setting parameter alchLambda to 0.049999999999999684
Info: NONBONDED TABLE R-SQUARED SPACING: 0.0625
Info: NONBONDED TABLE SIZE: 705 POINTS
TCL: Setting parameter alchLambda2 to 0.0
Info: NONBONDED TABLE R-SQUARED SPACING: 0.0625
Info: NONBONDED TABLE SIZE: 705 POINTS
TCL: Running for 1500000 steps
ETITLE: TS BOND ANGLE DIHED IMPRP ELECT VDW BOUNDARY MISC KINETIC TOTAL TEMP POTENTIAL TOTALAVG TEMPAVG PRESSURE GPRESSURE VOLUME PRESSAVG GPRESSAVG
ENERGY: 0 2.1479 12.3993 1.0160 0.0000 -10791.4347 1368.4680 0.0000 0.0000 1752.8263 -7654.5771 294.1679 -9407.4034 -7654.5771 294.1679 -939.5971 -848.7069 30718.7301 -939.5971 -848.7069
ENERGY: 300000 3.4166 5.8012 1.5740 0.0000 -11063.2339 1579.6377 0.0000 0.0000 1795.4212 -7677.3832 301.3163 -9472.8044 -7638.8161 298.5439 643.1203 807.1929 30486.3074 -345.6737 -256.7111
ENERGY: 600000 1.7858 11.1952 1.3736 0.0000 -10828.5085 1458.1075 0.0000 0.0000 1818.3599 -7537.6863 305.1660 -9356.0463 -7605.4728 300.6611 -338.2104 -276.0475 31529.0735 -147.7534 -57.0040
ENERGY: 900000 1.1067 9.8011 1.4586 0.0000 -10866.0720 1430.7370 0.0000 0.0000 1794.2702 -7628.6985 301.1232 -9422.9687 -7596.1011 300.5730 -534.4305 -461.6967 30850.1226 -144.6294 -67.4459
ENERGY: 1200000 2.9082 8.3317 0.8428 0.0000 -11032.0457 1504.7246 0.0000 0.0000 1858.8927 -7656.3457 311.9684 -9515.2385 -7598.4848 300.7914 68.5614 139.3393 30068.9964 -72.2228 4.7749
ENERGY: 1500000 2.1241 7.6289 1.8246 0.0000 -10821.6653 1456.8601 0.0000 0.0000 1805.6804 -7547.5472 303.0381 -9353.2276 -7588.2211 302.1229 -330.4221 -276.0531 31173.7239 -200.8568 -128.5608
TCL: Exiting due to exit command.
