Info: SIMULATION PARAMETERS:
Info: TIMESTEP               2
Info: NUMBER OF STEPS        0
Info: STEPS PER CYCLE        10
Info: PERIODIC CELL BASIS 1  29.2259 0 0
Info: PERIODIC CELL BASIS 2  0 30.3833 0
Info: PERIODIC CELL BASIS 3  0 0 34.0362
Info: PERIODIC CELL CENTER   0 0 0
Info: WRAPPING WATERS AROUND PERIODIC BOUNDARIES ON OUTPUT.
Info: WRAPPING ALL CLUSTERS AROUND PERIODIC BOUNDARIES ON OUTPUT.
Info: FIRST LDB TIMESTEP     50
Info: LAST LDB TIMESTEP     -1
Info: HOM BACKGROUND SCALING 1
Info: PME BACKGROUND SCALING 1
Info: MIN ATOMS PER PATCH    40
Info: EMPTY PATCH LOAD       40 ATOMS
Info: VELOCITY FILE          mobley_2792521_equil.vel
Info: CENTER OF MASS MOVING INITIALLY? NO
Info: DIELECTRIC             1
Info: EXCLUDE                SCALED ONE-FOUR
Info: 1-4 ELECTROSTATICS SCALED BY 0.833333
Info: MODIFIED 1-4 VDW PARAMETERS WILL BE USED
Info: DCD FILENAME           mobley_2792521_prod.dcd
Info: DCD FREQUENCY          100000
Info: DCD FIRST STEP         100000
Info: DCD FILE WILL CONTAIN UNIT CELL DATA
Info: XST FILENAME           mobley_2792521_prod.xst
Info: XST FREQUENCY          100000
Info: NO VELOCITY DCD OUTPUT
Info: NO FORCE DCD OUTPUT
Info: OUTPUT FILENAME        mobley_2792521_prod
Info: BINARY OUTPUT FILES WILL BE USED
Info: RESTART FILENAME       mobley_2792521_prod.restart
Info: RESTART FREQUENCY      100000
Info: BINARY RESTART FILES WILL BE USED
Info: CUTOFF                 9
Info: PAIRLIST DISTANCE      11
Info: PAIRLIST SHRINK RATE   0.01
Info: PAIRLIST GROW RATE     0.01
Info: PAIRLIST TRIGGER       0.3
Info: PAIRLISTS PER CYCLE    2
Info: PAIRLISTS ENABLED
Info: MARGIN                 2
Info: HYDROGEN GROUP CUTOFF  2.5
Info: PATCH DIMENSION        15.5
Info: ENERGY OUTPUT STEPS    100000
Info: ENERGY EVALUATION STEPS    100000
Info: OUTPUT ENERGY PRECISION 4
Info: CROSSTERM ENERGY INCLUDED IN DIHEDRAL
Info: TIMING OUTPUT STEPS    1000000
Info: PRESSURE OUTPUT STEPS  100000
Info: ALCHEMICAL FEP ON
Info: FEP CURRENT LAMBDA VALUE     0
Info: FEP COMPARISON LAMBDA VALUE  0.05
Info: FEP INTRA-ALCHEMICAL NON-BONDED INTERACTIONS WILL BE RETAINED
Info: FEP INTRA-ALCHEMICAL BONDED INTERACTIONS WILL BE RETAINED
Info: FEP VDW SHIFTING COEFFICIENT 5
Info: FEP ELEC. ACTIVE FOR ANNIHILATED PARTICLES BETWEEN LAMBDA = 0 AND LAMBDA = 0.5
Info: FEP ELEC. ACTIVE FOR EXNIHILATED PARTICLES BETWEEN LAMBDA = 0.5 AND LAMBDA = 1
Info: FEP VDW ACTIVE FOR ANNIHILATED PARTICLES BETWEEN LAMBDA = 0 AND LAMBDA = 1
Info: FEP VDW ACTIVE FOR EXNIHILATED PARTICLES BETWEEN LAMBDA = 0 AND LAMBDA = 1
Info: FEP BOND ACTIVE FOR ANNIHILATED PARTICLES BETWEEN LAMBDA = 1 AND LAMBDA = 1
Info: FEP BOND ACTIVE FOR EXNIHILATED PARTICLES BETWEEN LAMBDA = 0 AND LAMBDA = 0
Info: LANGEVIN DYNAMICS ACTIVE
Info: LANGEVIN TEMPERATURE   300
Info: LANGEVIN USING BBK INTEGRATOR
Info: LANGEVIN DAMPING COEFFICIENT IS 1 INVERSE PS
Info: LANGEVIN DYNAMICS APPLIED TO HYDROGENS
Info: LANGEVIN PISTON PRESSURE CONTROL ACTIVE
Info:        TARGET PRESSURE IS 1.01325 BAR
Info:     OSCILLATION PERIOD IS 50 FS
Info:             DECAY TIME IS 25 FS
Info:     PISTON TEMPERATURE IS 300 K
Info:       PRESSURE CONTROL IS GROUP-BASED
Info:    INITIAL STRAIN RATE IS -0.000195776 -0.000195776 -0.000195776
Info:       CELL FLUCTUATION IS ISOTROPIC
Info: PARTICLE MESH EWALD (PME) ACTIVE
Info: PME TOLERANCE               1e-06
Info: PME EWALD COEFFICIENT       0.348832
Info: PME INTERPOLATION ORDER     4
Info: PME GRID DIMENSIONS         32 32 36
Info: PME MAXIMUM GRID SPACING    1
Info: PME CALCULATION WILL BE PERFORMED ON GPU
Info: FULL ELECTROSTATIC EVALUATION FREQUENCY      2
Info: USING VERLET I (r-RESPA) MTS SCHEME.
Info: C1 SPLITTING OF LONG RANGE ELECTROSTATICS
Info: PLACING ATOMS IN PATCHES BY HYDROGEN GROUPS
Info: RIGID BONDS TO HYDROGEN : ALL
Info:         ERROR TOLERANCE : 1e-08
Info:          MAX ITERATIONS : 100
Info: RIGID WATER USING SETTLE ALGORITHM
Info: RANDOM NUMBER SEED     1743906974
Info: USE HYDROGEN BONDS?    NO
Info: Using AMBER format force field!
Info: AMBER PARM FILE        mobley_2792521.prmtop
Info: COORDINATE PDB         mobley_2792521.pdb
Info: Exclusions will be read from PARM file!
Info: SCNB (VDW SCALING)     2
Info: USING ARITHMETIC MEAN TO COMBINE L-J SIGMA PARAMETERS
Info: BINARY COORDINATES     mobley_2792521_equil.coor
Info: SUMMARY OF PARAMETERS:
Info: 11 BONDS
Info: 14 ANGLES
Info:   14 HARMONIC
Info:   0 COSINE-BASED
Info: 8 DIHEDRAL
Info: 0 IMPROPER
Info: 0 CROSSTERM
Info: 0 VDW
Info: 36 VDW_PAIRS
Info: 0 NBTHOLE_PAIRS
Info: To read alchdata from file: mobley_2792521.pdb
Info: To read alchflag data from column: 5
Info: STRUCTURE SUMMARY:
Info: 2945 ATOMS
Info: 2944 BONDS
Info: 27 ANGLES
Info: 35 DIHEDRALS
Info: 0 IMPROPERS
Info: 0 CROSSTERMS
Info: 3003 EXCLUSIONS
Info: 2938 RIGID BONDS
Info: ALCH: 0 ATOMS TO DISAPPEAR IN FINAL STATE
Info: ALCH: 17 ATOMS TO APPEAR IN FINAL STATE
Info: 5897 DEGREES OF FREEDOM
Info: 983 HYDROGEN GROUPS
Info: 4 ATOMS IN LARGEST HYDROGEN GROUP
Info: 983 MIGRATION GROUPS
Info: 4 ATOMS IN LARGEST MIGRATION GROUP
Info: TOTAL MASS = 17681.8 amu
Info: TOTAL CHARGE = 0.000200035 e
Info: MASS DENSITY = 0.971495 g/cm^3
Info: ATOM DENSITY = 0.0974409 atoms/A^3
Info: ADDED 0 IMPLICIT EXCLUSIONS
Info: NONBONDED TABLE R-SQUARED SPACING: 0.0625
Info: NONBONDED TABLE SIZE: 705 POINTS
Info: REMOVING COM VELOCITY 0.0423345 0.0462177 -0.139557
Info: Use 3D box decompostion in PME FFT.
Info: Updated CUDA force table with 4096 elements.
Info: Updated CUDA LJ table with 8 x 8 elements.
Info: Found 18 unique exclusion lists needing 44 bytes
TCL: Running for 1500000 steps
ETITLE: TS BOND ANGLE DIHED IMPRP ELECT VDW BOUNDARY MISC KINETIC TOTAL TEMP POTENTIAL TOTALAVG TEMPAVG PRESSURE GPRESSURE VOLUME PRESSAVG GPRESSAVG
ENERGY: 0 1.4911 6.0466 2.6476 0.0000 -10685.1676 1450.4952 0.0000 0.0000 1770.7119 -7453.7752 302.2088 -9224.4871 -7453.7752 302.2088 109.9106 198.0129 30223.4628 109.9106 198.0129
ENERGY: 300000 2.9711 6.7031 1.8136 0.0000 -10743.1014 1536.3018 0.0000 0.0000 1801.1326 -7394.1792 307.4008 -9195.3118 -7436.0246 303.6304 616.4974 700.7918 30356.1601 268.5268 337.7583
ENERGY: 600000 1.3102 4.7624 4.7658 0.0000 -10568.6576 1370.7057 0.0000 0.0000 1787.9860 -7399.1276 305.1570 -9187.1136 -7446.4041 301.0341 -558.7012 -510.4252 30474.1981 33.2798 92.8850
ENERGY: 900000 0.4112 6.1506 2.4691 0.0000 -10686.0209 1487.3867 0.0000 0.0000 1747.2092 -7442.3940 298.1976 -9189.6032 -7460.1930 298.6238 333.0352 361.7121 30578.0299 -22.0620 36.3692
ENERGY: 1200000 0.9074 4.6130 2.0439 0.0000 -10656.9697 1471.5651 0.0000 0.0000 1796.1733 -7381.6669 306.5544 -9177.8402 -7452.1246 299.6846 408.3024 538.4538 30138.2738 15.7905 74.9959
ENERGY: 1500000 2.1358 6.1758 2.0309 0.0000 -10652.6965 1356.3563 0.0000 0.0000 1810.7983 -7475.1994 309.0504 -9285.9977 -7453.4938 300.4598 -793.7958 -720.5226 29912.7129 -7.6573 51.0578
TCL: Running FEP window   2: Lambda1 0.05   Lambda2 0.1    [dLambda 0.05  ]
TCL: Setting parameter firsttimestep to 0
TCL: Setting parameter alchLambda to 0.05
Info: NONBONDED TABLE R-SQUARED SPACING: 0.0625
Info: NONBONDED TABLE SIZE: 705 POINTS
TCL: Setting parameter alchLambda2 to 0.1
Info: NONBONDED TABLE R-SQUARED SPACING: 0.0625
Info: NONBONDED TABLE SIZE: 705 POINTS
TCL: Running for 1500000 steps
ETITLE: TS BOND ANGLE DIHED IMPRP ELECT VDW BOUNDARY MISC KINETIC TOTAL TEMP POTENTIAL TOTALAVG TEMPAVG PRESSURE GPRESSURE VOLUME PRESSAVG GPRESSAVG
ENERGY: 0 2.1357 6.1758 2.0309 0.0000 -10652.6966 1357.2641 0.0000 0.0000 1809.9316 -7475.1585 308.9025 -9285.0901 -7475.1585 308.9025 -807.9818 -715.5637 29912.7129 -807.9818 -715.5637
ENERGY: 300000 1.4773 8.2355 1.4444 0.0000 -10678.3130 1484.1246 0.0000 0.0000 1751.4630 -7431.5682 298.9236 -9183.0312 -7418.5568 304.6458 366.0001 460.5376 30139.3685 -267.7643 -185.5793
ENERGY: 600000 3.1586 8.5368 1.6084 0.0000 -10495.0943 1402.0397 0.0000 0.0000 1830.1616 -7249.5893 312.3552 -9079.7509 -7396.1561 306.2823 108.3485 176.3328 30336.0693 -33.5541 25.9299
ENERGY: 900000 1.5744 6.8558 1.4320 0.0000 -10723.1937 1504.0196 0.0000 0.0000 1749.2835 -7460.0284 298.5516 -9209.3118 -7406.6221 305.2148 495.6382 567.7450 30309.7827 -79.0040 -19.8418
ENERGY: 1200000 1.7322 5.0964 3.2017 0.0000 -10550.4572 1324.7615 0.0000 0.0000 1748.1837 -7467.4818 298.3639 -9215.6655 -7418.5812 303.3778 -707.3070 -680.3415 30012.1470 -191.9721 -135.2054
ENERGY: 1500000 3.0323 14.7670 2.6017 0.0000 -10692.9459 1476.7081 0.0000 0.0000 1802.2556 -7393.5812 307.5924 -9195.8368 -7414.5722 303.2943 359.5430 497.0348 29867.5416 -172.8504 -107.0308
TCL: Running FEP window   3: Lambda1 0.1    Lambda2 0.15000000000000002 [dLambda 0.05000000000000002]
TCL: Setting parameter firsttimestep to 0
TCL: Setting parameter alchLambda to 0.1
Info: NONBONDED TABLE R-SQUARED SPACING: 0.0625
Info: NONBONDED TABLE SIZE: 705 POINTS
TCL: Setting parameter alchLambda2 to 0.15000000000000002
Info: NONBONDED TABLE R-SQUARED SPACING: 0.0625
Info: NONBONDED TABLE SIZE: 705 POINTS
TCL: Running for 1500000 steps
ETITLE: TS BOND ANGLE DIHED IMPRP ELECT VDW BOUNDARY MISC KINETIC TOTAL TEMP POTENTIAL TOTALAVG TEMPAVG PRESSURE GPRESSURE VOLUME PRESSAVG GPRESSAVG
ENERGY: 0 3.0323 14.7671 2.6017 0.0000 -10692.9462 1478.7184 0.0000 0.0000 1801.4277 -7392.3990 307.4511 -9193.8266 -7392.3990 307.4511 403.8452 507.7657 29867.5416 403.8452 507.7657
ENERGY: 300000 1.7574 6.1565 3.9485 0.0000 -10617.6341 1402.7895 0.0000 0.0000 1762.3087 -7440.6734 300.7747 -9202.9821 -7437.3572 303.0197 -280.8930 -228.9033 30261.7038 -115.4908 -55.5855
ENERGY: 600000 4.1238 9.0521 1.8773 0.0000 -10630.8490 1377.5819 0.0000 0.0000 1776.3477 -7461.8662 303.1707 -9238.2139 -7434.7325 303.3565 -444.3237 -374.6849 30187.7277 -111.5947 -43.3197
ENERGY: 900000 0.7470 6.1878 1.7236 0.0000 -10468.1157 1331.2579 0.0000 0.0000 1772.5197 -7355.6796 302.5174 -9128.1993 -7432.2504 301.9205 -467.5048 -472.6555 30099.5513 -140.4223 -76.8769
ENERGY: 1200000 1.6236 6.5774 1.0869 0.0000 -10702.7705 1417.3455 0.0000 0.0000 1738.2131 -7537.9241 296.6622 -9276.1371 -7436.8377 302.2660 -311.3942 -279.7504 30026.5486 -158.7897 -97.6266
ENERGY: 1500000 1.1499 8.2792 2.6802 0.0000 -10524.3585 1397.1615 0.0000 0.0000 1713.1122 -7401.9756 292.3782 -9115.0878 -7431.3713 301.9897 -219.0811 -170.5505 30362.3669 -126.7006 -66.8037
TCL: Running FEP window   4: Lambda1 0.15000000000000002 Lambda2 0.2    [dLambda 0.04999999999999999]
TCL: Setting parameter firsttimestep to 0
TCL: Setting parameter alchLambda to 0.15000000000000002
Info: NONBONDED TABLE R-SQUARED SPACING: 0.0625
Info: NONBONDED TABLE SIZE: 705 POINTS
TCL: Setting parameter alchLambda2 to 0.2
Info: NONBONDED TABLE R-SQUARED SPACING: 0.0625
Info: NONBONDED TABLE SIZE: 705 POINTS
TCL: Running for 1500000 steps
ETITLE: TS BOND ANGLE DIHED IMPRP ELECT VDW BOUNDARY MISC KINETIC TOTAL TEMP POTENTIAL TOTALAVG TEMPAVG PRESSURE GPRESSURE VOLUME PRESSAVG GPRESSAVG
ENERGY: 0 1.1499 8.2792 2.6802 0.0000 -10524.3579 1398.3025 0.0000 0.0000 1712.2316 -7401.7145 292.2280 -9113.9461 -7401.7145 292.2280 -239.7162 -160.3444 30362.3669 -239.7162 -160.3444
ENERGY: 300000 1.4227 5.2003 3.5302 0.0000 -10560.9093 1356.2571 0.0000 0.0000 1752.4465 -7442.0525 299.0915 -9194.4990 -7450.9905 296.3908 -525.4405 -478.0657 29953.8165 -506.6303 -424.1773
ENERGY: 600000 0.9532 3.2429 0.7181 0.0000 -10682.3521 1471.8763 0.0000 0.0000 1769.4759 -7436.0857 301.9979 -9205.5616 -7441.1581 298.8850 485.6591 552.4021 29972.2010 -155.6541 -82.1619
ENERGY: 900000 1.9499 5.9712 4.1688 0.0000 -10606.9103 1347.2364 0.0000 0.0000 1718.9589 -7528.6251 293.3761 -9247.5840 -7447.3234 300.6840 -783.7910 -702.9187 30170.4125 -165.7980 -87.6325
ENERGY: 1200000 1.8368 4.7585 3.4585 0.0000 -10579.3103 1393.0469 0.0000 0.0000 1722.1487 -7454.0610 293.9205 -9176.2097 -7448.5772 300.1464 -83.7340 -66.4055 30052.1886 -132.9390 -61.2400
ENERGY: 1500000 1.9561 12.6588 2.1547 0.0000 -10706.5546 1501.7885 0.0000 0.0000 1752.6702 -7435.3263 299.1296 -9187.9965 -7446.6093 299.7802 581.7011 633.6071 30141.2262 -82.7099 -14.5851
TCL: Running FEP window   5: Lambda1 0.2    Lambda2 0.25   [dLambda 0.04999999999999999]
TCL: Setting parameter firsttimestep to 0
TCL: Setting parameter alchLambda to 0.2
Info: NONBONDED TABLE R-SQUARED SPACING: 0.0625
Info: NONBONDED TABLE SIZE: 705 POINTS
TCL: Setting parameter alchLambda2 to 0.25
Info: NONBONDED TABLE R-SQUARED SPACING: 0.0625
Info: NONBONDED TABLE SIZE: 705 POINTS
TCL: Running for 1500000 steps
ETITLE: TS BOND ANGLE DIHED IMPRP ELECT VDW BOUNDARY MISC KINETIC TOTAL TEMP POTENTIAL TOTALAVG TEMPAVG PRESSURE GPRESSURE VOLUME PRESSAVG GPRESSAVG
ENERGY: 0 1.9561 12.6588 2.1547 0.0000 -10706.5546 1503.8371 0.0000 0.0000 1751.7652 -7434.1827 298.9752 -9185.9479 -7434.1827 298.9752 570.6872 644.8852 30141.2262 570.6872 644.8852
ENERGY: 300000 2.3424 6.0814 2.2978 0.0000 -10812.2298 1545.6028 0.0000 0.0000 1727.8615 -7528.0439 294.8955 -9255.9054 -7470.5586 300.0197 883.6604 964.3135 29734.4326 633.3973 683.7679
ENERGY: 600000 1.8678 10.4018 2.2212 0.0000 -10615.2915 1443.3893 0.0000 0.0000 1754.0943 -7403.3170 299.3727 -9157.4114 -7477.5343 297.8049 162.2516 257.9008 30300.5821 438.9229 512.3605
ENERGY: 900000 2.6130 6.2995 2.3448 0.0000 -10620.7741 1364.6346 0.0000 0.0000 1762.4057 -7482.4764 300.7912 -9244.8822 -7479.5144 299.3331 -768.2741 -733.3024 30433.4303 386.7211 449.9449
ENERGY: 1200000 2.0186 5.8260 1.7144 0.0000 -10537.8955 1385.9872 0.0000 0.0000 1810.8534 -7331.4958 309.0598 -9142.3492 -7467.5677 299.3928 -277.0261 -237.0506 30307.0935 236.9542 304.6592
ENERGY: 1500000 1.3533 5.9280 1.0970 0.0000 -10620.5315 1352.4906 0.0000 0.0000 1763.9992 -7495.6634 301.0632 -9259.6626 -7468.0809 299.5017 -894.4132 -805.4440 30493.4364 161.4704 225.5047
TCL: Running FEP window   6: Lambda1 0.25   Lambda2 0.3    [dLambda 0.04999999999999999]
TCL: Setting parameter firsttimestep to 0
TCL: Setting parameter alchLambda to 0.25
Info: NONBONDED TABLE R-SQUARED SPACING: 0.0625
Info: NONBONDED TABLE SIZE: 705 POINTS
TCL: Setting parameter alchLambda2 to 0.3
Info: NONBONDED TABLE R-SQUARED SPACING: 0.0625
Info: NONBONDED TABLE SIZE: 705 POINTS
TCL: Running for 1500000 steps
ETITLE: TS BOND ANGLE DIHED IMPRP ELECT VDW BOUNDARY MISC KINETIC TOTAL TEMP POTENTIAL TOTALAVG TEMPAVG PRESSURE GPRESSURE VOLUME PRESSAVG GPRESSAVG
ENERGY: 0 1.3533 5.9280 1.0970 0.0000 -10620.5310 1352.3172 0.0000 0.0000 1763.1226 -7496.7129 300.9136 -9259.8355 -7496.7129 300.9136 -882.6563 -803.3908 30493.4364 -882.6563 -803.3908
ENERGY: 300000 0.5518 9.1686 1.5936 0.0000 -10672.5079 1439.3890 0.0000 0.0000 1768.0758 -7453.7293 301.7589 -9221.8050 -7436.6412 299.5460 87.2581 111.7873 30592.3491 -302.4282 -247.3452
ENERGY: 600000 0.9551 9.0609 2.0692 0.0000 -10696.5532 1459.3026 0.0000 0.0000 1742.8871 -7482.2782 297.4600 -9225.1653 -7430.0389 299.3209 -9.4354 68.2247 30344.7733 -236.0644 -189.9508
ENERGY: 900000 2.1909 11.0837 1.9948 0.0000 -10587.5373 1410.5818 0.0000 0.0000 1751.2151 -7410.4710 298.8813 -9161.6861 -7443.5451 298.7518 -49.2556 -42.6970 30312.1901 -83.1684 -39.8545
ENERGY: 1200000 2.1348 6.0596 0.8139 0.0000 -10555.2594 1418.6233 0.0000 0.0000 1813.6563 -7313.9714 309.5382 -9127.6277 -7438.3741 300.5440 49.5196 111.6898 30418.8832 -43.2591 4.5837
ENERGY: 1500000 1.7644 7.7801 0.8813 0.0000 -10661.6714 1385.3451 0.0000 0.0000 1728.9631 -7536.9375 295.0835 -9265.9006 -7449.2534 299.7459 -454.4196 -415.9458 29796.4158 -43.5250 2.2449
TCL: Running FEP window   7: Lambda1 0.3    Lambda2 0.35   [dLambda 0.04999999999999999]
TCL: Setting parameter firsttimestep to 0
TCL: Setting parameter alchLambda to 0.3
Info: NONBONDED TABLE R-SQUARED SPACING: 0.0625
Info: NONBONDED TABLE SIZE: 705 POINTS
TCL: Setting parameter alchLambda2 to 0.35
Info: NONBONDED TABLE R-SQUARED SPACING: 0.0625
Info: NONBONDED TABLE SIZE: 705 POINTS
TCL: Running for 1500000 steps
ETITLE: TS BOND ANGLE DIHED IMPRP ELECT VDW BOUNDARY MISC KINETIC TOTAL TEMP POTENTIAL TOTALAVG TEMPAVG PRESSURE GPRESSURE VOLUME PRESSAVG GPRESSAVG
ENERGY: 0 1.7644 7.7801 0.8813 0.0000 -10661.6731 1386.8164 0.0000 0.0000 1728.1159 -7536.3150 294.9389 -9264.4310 -7536.3150 294.9389 -501.5816 -403.4532 29796.4158 -501.5816 -403.4532
ENERGY: 300000 2.4752 4.6741 2.7976 0.0000 -10562.3016 1357.5292 0.0000 0.0000 1734.8713 -7459.9542 296.0919 -9194.8255 -7441.2926 301.8644 -670.3224 -525.8589 30351.0206 -345.5480 -243.5891
ENERGY: 600000 3.9325 12.0554 1.7225 0.0000 -10605.3256 1365.6340 0.0000 0.0000 1765.4904 -7456.4908 301.3177 -9221.9812 -7444.3434 300.8431 -1019.8776 -921.2178 30880.9959 -445.0031 -359.9809
ENERGY: 900000 3.2219 8.4454 2.0687 0.0000 -10711.3685 1541.9670 0.0000 0.0000 1793.3796 -7362.2859 306.0776 -9155.6655 -7440.9451 301.4340 758.4019 779.6498 30617.6194 -233.3661 -171.8996
ENERGY: 1200000 2.6950 5.2724 1.6784 0.0000 -10891.8860 1620.1733 0.0000 0.0000 1733.9247 -7528.1421 295.9303 -9262.0669 -7454.1396 300.7172 1267.2653 1297.0387 29714.9911 -77.8593 -17.2236
ENERGY: 1500000 2.7949 5.6168 0.7931 0.0000 -10701.6998 1492.2088 0.0000 0.0000 1772.2566 -7428.0296 302.4725 -9200.2862 -7445.5038 300.6450 848.6753 890.4509 29853.1334 -5.3534 50.1488
TCL: Running FEP window   8: Lambda1 0.35   Lambda2 0.39999999999999997 [dLambda 0.04999999999999999]
TCL: Setting parameter firsttimestep to 0
TCL: Setting parameter alchLambda to 0.35
Info: NONBONDED TABLE R-SQUARED SPACING: 0.0625
Info: NONBONDED TABLE SIZE: 705 POINTS
TCL: Setting parameter alchLambda2 to 0.39999999999999997
Info: NONBONDED TABLE R-SQUARED SPACING: 0.0625
Info: NONBONDED TABLE SIZE: 705 POINTS
TCL: Running for 1500000 steps
ETITLE: TS BOND ANGLE DIHED IMPRP ELECT VDW BOUNDARY MISC KINETIC TOTAL TEMP POTENTIAL TOTALAVG TEMPAVG PRESSURE GPRESSURE VOLUME PRESSAVG GPRESSAVG
ENERGY: 0 2.7949 5.6168 0.7931 0.0000 -10701.7002 1492.5147 0.0000 0.0000 1771.3869 -7428.5938 302.3240 -9199.9807 -7428.5938 302.3240 809.0749 897.7783 29853.1334 809.0749 897.7783
ENERGY: 300000 1.7758 5.9369 5.6181 0.0000 -10546.9584 1395.4341 0.0000 0.0000 1749.2989 -7388.8947 298.5543 -9138.1935 -7442.1484 301.1756 -128.2158 -88.3466 30591.4671 385.1797 446.1196
ENERGY: 600000 1.7799 9.0481 1.8980 0.0000 -10617.6234 1444.7025 0.0000 0.0000 1714.3932 -7445.8017 292.5969 -9160.1949 -7442.0310 299.8145 19.3019 65.6632 30575.8086 135.9118 174.8343
ENERGY: 900000 3.8120 5.9773 3.2962 0.0000 -10646.3229 1410.2225 0.0000 0.0000 1722.8432 -7500.1716 294.0391 -9223.0149 -7445.9085 299.3117 66.5492 121.2616 30004.2058 -49.9746 1.4303
ENERGY: 1200000 3.9835 6.3868 1.5181 0.0000 -10597.5949 1372.0525 0.0000 0.0000 1737.1777 -7476.4762 296.4855 -9213.6540 -7440.6778 300.8248 -497.4163 -469.2345 30220.6244 23.4241 72.9870
ENERGY: 1500000 1.1240 5.5097 1.4859 0.0000 -10686.6062 1472.6885 0.0000 0.0000 1783.0124 -7422.7858 304.3082 -9205.7982 -7451.4789 300.5185 -68.2503 -0.7553 30884.8935 20.1956 71.4439
TCL: Running FEP window   9: Lambda1 0.39999999999999997 Lambda2 0.44999999999999996 [dLambda 0.04999999999999999]
TCL: Setting parameter firsttimestep to 0
TCL: Setting parameter alchLambda to 0.39999999999999997
Info: NONBONDED TABLE R-SQUARED SPACING: 0.0625
Info: NONBONDED TABLE SIZE: 705 POINTS
TCL: Setting parameter alchLambda2 to 0.44999999999999996
Info: NONBONDED TABLE R-SQUARED SPACING: 0.0625
Info: NONBONDED TABLE SIZE: 705 POINTS
TCL: Running for 1500000 steps
ETITLE: TS BOND ANGLE DIHED IMPRP ELECT VDW BOUNDARY MISC KINETIC TOTAL TEMP POTENTIAL TOTALAVG TEMPAVG PRESSURE GPRESSURE VOLUME PRESSAVG GPRESSAVG
ENERGY: 0 1.1240 5.5097 1.4859 0.0000 -10686.6058 1473.4117 0.0000 0.0000 1782.1535 -7422.9211 304.1616 -9205.0746 -7422.9211 304.1616 -77.7851 8.6749 30884.8935 -77.7851 8.6749
ENERGY: 300000 0.1726 6.2181 2.3663 0.0000 -10658.4710 1447.3893 0.0000 0.0000 1778.5621 -7423.7626 303.5486 -9202.3247 -7423.1420 302.1231 122.4922 148.3808 30460.3095 58.3543 92.4455
ENERGY: 600000 0.6940 5.2060 1.8670 0.0000 -10379.5384 1303.5793 0.0000 0.0000 1760.9478 -7307.2442 300.5424 -9068.1921 -7400.8525 300.9258 -832.2225 -770.2652 30807.1868 -130.1365 -79.8918
ENERGY: 900000 1.1012 6.9405 3.0501 0.0000 -10680.1025 1485.8142 0.0000 0.0000 1826.3608 -7356.8357 311.7065 -9183.1965 -7409.5244 302.8757 785.1709 808.8043 30166.9853 54.8309 108.3614
ENERGY: 1200000 2.8376 4.1869 3.0994 0.0000 -10715.4950 1469.6711 0.0000 0.0000 1755.5034 -7480.1966 299.6132 -9235.7000 -7417.3228 302.4952 98.5657 165.2733 30221.0061 -19.6733 34.3445
ENERGY: 1500000 1.0513 7.2690 1.3671 0.0000 -10753.9225 1442.4539 0.0000 0.0000 1784.8347 -7516.9465 304.6192 -9301.7812 -7427.0973 302.3111 -321.8827 -219.4926 30189.8118 -54.1249 7.7983
TCL: Running FEP window  10: Lambda1 0.44999999999999996 Lambda2 0.49999999999999994 [dLambda 0.04999999999999999]
TCL: Setting parameter firsttimestep to 0
TCL: Setting parameter alchLambda to 0.44999999999999996
Info: NONBONDED TABLE R-SQUARED SPACING: 0.0625
Info: NONBONDED TABLE SIZE: 705 POINTS
TCL: Setting parameter alchLambda2 to 0.49999999999999994
Info: NONBONDED TABLE R-SQUARED SPACING: 0.0625
Info: NONBONDED TABLE SIZE: 705 POINTS
TCL: Running for 1500000 steps
ETITLE: TS BOND ANGLE DIHED IMPRP ELECT VDW BOUNDARY MISC KINETIC TOTAL TEMP POTENTIAL TOTALAVG TEMPAVG PRESSURE GPRESSURE VOLUME PRESSAVG GPRESSAVG
ENERGY: 0 1.0513 7.2690 1.3671 0.0000 -10753.9240 1442.2731 0.0000 0.0000 1783.9674 -7517.9961 304.4712 -9301.9635 -7517.9961 304.4712 -287.6895 -217.3117 30189.8118 -287.6895 -217.3117
ENERGY: 300000 1.3588 9.7308 2.2990 0.0000 -10761.5707 1529.5220 0.0000 0.0000 1819.6547 -7399.0054 310.5619 -9218.6601 -7438.7469 304.5946 1020.4427 1104.0077 29963.1907 389.6784 461.1667
ENERGY: 600000 0.0729 7.2954 1.2586 0.0000 -10679.3007 1407.0657 0.0000 0.0000 1694.0195 -7569.5887 289.1197 -9263.6081 -7451.0637 299.6644 -360.7469 -324.3859 30039.7048 69.6591 144.4816
ENERGY: 900000 5.3105 7.1869 1.8964 0.0000 -10694.6964 1447.5619 0.0000 0.0000 1758.0705 -7474.6701 300.0513 -9232.7407 -7454.1886 300.1429 217.8129 188.9937 30408.7817 69.3770 133.2008
ENERGY: 1200000 2.1009 5.4583 1.8137 0.0000 -10720.5986 1488.5044 0.0000 0.0000 1744.2542 -7478.4671 297.6933 -9222.7213 -7460.4733 300.6217 430.8440 494.5049 30100.2386 26.2383 93.8099
ENERGY: 1500000 1.4923 5.3362 2.0347 0.0000 -10617.7017 1393.3887 0.0000 0.0000 1743.8715 -7471.5783 297.6280 -9215.4498 -7468.8182 300.0904 -390.8711 -434.4360 30371.7806 27.3120 87.4975
TCL: Running FEP window  11: Lambda1 0.49999999999999994 Lambda2 0.5499999999999999 [dLambda 0.04999999999999999]
TCL: Setting parameter firsttimestep to 0
TCL: Setting parameter alchLambda to 0.49999999999999994
Info: NONBONDED TABLE R-SQUARED SPACING: 0.0625
Info: NONBONDED TABLE SIZE: 705 POINTS
TCL: Setting parameter alchLambda2 to 0.5499999999999999
Info: NONBONDED TABLE R-SQUARED SPACING: 0.0625
Info: NONBONDED TABLE SIZE: 705 POINTS
TCL: Running for 1500000 steps
ETITLE: TS BOND ANGLE DIHED IMPRP ELECT VDW BOUNDARY MISC KINETIC TOTAL TEMP POTENTIAL TOTALAVG TEMPAVG PRESSURE GPRESSURE VOLUME PRESSAVG GPRESSAVG
ENERGY: 0 1.4923 5.3362 2.0347 0.0000 -10617.7014 1393.5888 0.0000 0.0000 1742.9817 -7472.2678 297.4761 -9215.2495 -7472.2678 297.4761 -504.5284 -428.2931 30371.7806 -504.5284 -428.2931
ENERGY: 300000 2.1271 7.7659 2.8559 0.0000 -10542.1655 1367.0542 0.0000 0.0000 1777.1664 -7385.1960 303.3104 -9162.3624 -7449.3899 300.0203 -115.5842 -41.5086 30011.8098 -3.4963 72.1459
ENERGY: 600000 1.3384 8.7886 2.2840 0.0000 -10697.4826 1482.8979 0.0000 0.0000 1763.9862 -7438.1876 301.0610 -9202.1738 -7463.7374 298.4933 439.1023 523.8639 30276.9165 358.4778 425.6967
ENERGY: 900000 1.2502 10.7306 1.5810 0.0000 -10652.5821 1401.9133 0.0000 0.0000 1778.7746 -7458.3324 303.5849 -9237.1070 -7464.3757 297.9845 -524.2725 -501.6133 30624.8186 149.8509 212.1007
ENERGY: 1200000 0.9590 4.4843 3.5785 0.0000 -10625.7894 1413.7411 0.0000 0.0000 1820.3294 -7382.6971 310.6771 -9203.0265 -7455.6711 299.9808 -113.2387 -11.6691 30257.0919 125.8017 190.8250
ENERGY: 1500000 2.2467 7.2890 1.0362 0.0000 -10585.1216 1382.1746 0.0000 0.0000 1776.6837 -7415.6913 303.2281 -9192.3750 -7458.0246 299.4985 -388.9928 -290.8963 30376.9671 60.3621 127.7671
TCL: Running FEP window  12: Lambda1 0.5499999999999999 Lambda2 0.6    [dLambda 0.050000000000000044]
TCL: Setting parameter firsttimestep to 0
TCL: Setting parameter alchLambda to 0.5499999999999999
Info: NONBONDED TABLE R-SQUARED SPACING: 0.0625
Info: NONBONDED TABLE SIZE: 705 POINTS
TCL: Setting parameter alchLambda2 to 0.6
Info: NONBONDED TABLE R-SQUARED SPACING: 0.0625
Info: NONBONDED TABLE SIZE: 705 POINTS
TCL: Running for 1500000 steps
ETITLE: TS BOND ANGLE DIHED IMPRP ELECT VDW BOUNDARY MISC KINETIC TOTAL TEMP POTENTIAL TOTALAVG TEMPAVG PRESSURE GPRESSURE VOLUME PRESSAVG GPRESSAVG
ENERGY: 0 2.2468 7.2890 1.0361 0.0000 -10584.6700 1381.8564 0.0000 0.0000 1775.8165 -7416.4252 303.0800 -9192.2417 -7416.4252 303.0800 -359.9800 -287.8174 30376.9671 -359.9800 -287.8174
ENERGY: 300000 2.3290 5.9973 0.4823 0.0000 -10833.8443 1515.2536 0.0000 0.0000 1727.8321 -7581.9500 294.8905 -9309.7821 -7489.2514 298.9548 226.5692 304.3064 30097.5948 547.2741 607.9916
ENERGY: 600000 5.4118 9.4956 3.7185 0.0000 -10478.3261 1306.8449 0.0000 0.0000 1765.6483 -7387.2071 301.3446 -9152.8554 -7473.9752 298.5147 -820.1843 -774.0545 30636.3198 252.9455 306.4027
ENERGY: 900000 1.9490 8.4246 1.4125 0.0000 -10627.6101 1445.7915 0.0000 0.0000 1750.9771 -7419.0554 298.8407 -9170.0325 -7477.0725 298.1637 -114.0486 12.2183 30355.7266 55.7748 112.5722
ENERGY: 1200000 1.1588 4.3235 2.4482 0.0000 -10590.4812 1344.6778 0.0000 0.0000 1779.9500 -7457.9229 303.7855 -9237.8730 -7478.3375 299.3447 -839.6393 -752.5783 30538.6971 6.0979 62.5618
ENERGY: 1500000 3.6270 7.4012 1.9378 0.0000 -10509.0272 1380.0759 0.0000 0.0000 1803.4422 -7312.5430 307.7949 -9115.9852 -7458.1944 300.4220 -286.3100 -181.5235 30534.2598 49.8113 107.8826
TCL: Running FEP window  13: Lambda1 0.6    Lambda2 0.65   [dLambda 0.050000000000000044]
TCL: Setting parameter firsttimestep to 0
TCL: Setting parameter alchLambda to 0.6
Info: NONBONDED TABLE R-SQUARED SPACING: 0.0625
Info: NONBONDED TABLE SIZE: 705 POINTS
TCL: Setting parameter alchLambda2 to 0.65
Info: NONBONDED TABLE R-SQUARED SPACING: 0.0625
Info: NONBONDED TABLE SIZE: 705 POINTS
TCL: Running for 1500000 steps
ETITLE: TS BOND ANGLE DIHED IMPRP ELECT VDW BOUNDARY MISC KINETIC TOTAL TEMP POTENTIAL TOTALAVG TEMPAVG PRESSURE GPRESSURE VOLUME PRESSAVG GPRESSAVG
ENERGY: 0 3.6270 7.4012 1.9378 0.0000 -10508.8316 1380.1862 0.0000 0.0000 1802.5367 -7313.1427 307.6404 -9115.6793 -7313.1427 307.6404 -268.7714 -172.1348 30534.2598 -268.7714 -172.1348
ENERGY: 300000 0.9447 5.5127 0.9406 0.0000 -10739.9733 1444.1532 0.0000 0.0000 1728.8510 -7559.5711 295.0644 -9288.4221 -7427.3375 303.4165 146.5065 233.3212 29773.0536 8.9217 71.2256
ENERGY: 600000 4.9846 6.9124 1.3461 0.0000 -10628.6298 1368.1649 0.0000 0.0000 1753.0392 -7494.1825 299.1926 -9247.2217 -7467.0973 302.4738 -767.0462 -698.7200 30396.7641 -83.1646 -30.0516
ENERGY: 900000 0.9477 10.4855 0.7012 0.0000 -10611.1270 1397.8029 0.0000 0.0000 1724.8628 -7476.3268 294.3837 -9201.1896 -7471.8464 301.6397 -574.3144 -467.7504 30495.0460 30.2970 87.4251
ENERGY: 1200000 0.7631 4.4150 2.4064 0.0000 -10653.8156 1407.4573 0.0000 0.0000 1773.0273 -7465.7465 302.6040 -9238.7737 -7472.6022 300.3398 -284.5752 -244.7698 30424.8019 -60.3407 -6.6151
ENERGY: 1500000 1.4133 4.1346 1.5737 0.0000 -10818.4587 1493.7094 0.0000 0.0000 1738.4897 -7579.1379 296.7095 -9317.6276 -7473.5980 300.7204 123.6321 215.0339 30218.2793 -58.2557 -1.2526
TCL: Running FEP window  14: Lambda1 0.65   Lambda2 0.7000000000000001 [dLambda 0.050000000000000044]
TCL: Setting parameter firsttimestep to 0
TCL: Setting parameter alchLambda to 0.65
Info: NONBONDED TABLE R-SQUARED SPACING: 0.0625
Info: NONBONDED TABLE SIZE: 705 POINTS
TCL: Setting parameter alchLambda2 to 0.7000000000000001
Info: NONBONDED TABLE R-SQUARED SPACING: 0.0625
Info: NONBONDED TABLE SIZE: 705 POINTS
TCL: Running for 1500000 steps
ETITLE: TS BOND ANGLE DIHED IMPRP ELECT VDW BOUNDARY MISC KINETIC TOTAL TEMP POTENTIAL TOTALAVG TEMPAVG PRESSURE GPRESSURE VOLUME PRESSAVG GPRESSAVG
ENERGY: 0 1.4133 4.1346 1.5737 0.0000 -10819.4671 1494.0639 0.0000 0.0000 1737.6154 -7580.6662 296.5602 -9318.2816 -7580.6662 296.5602 149.2993 224.0091 30218.2793 149.2993 224.0091
ENERGY: 300000 0.3568 8.1770 1.8112 0.0000 -10692.6470 1485.1277 0.0000 0.0000 1784.7875 -7412.3868 304.6111 -9197.1743 -7486.6283 299.8840 488.1293 507.3574 30297.5137 -255.5227 -218.0930
ENERGY: 600000 5.5625 6.1195 2.8393 0.0000 -10481.8269 1360.5943 0.0000 0.0000 1748.5523 -7358.1590 298.4268 -9106.7114 -7456.1585 299.2053 -516.3218 -455.4457 30749.9838 -208.1636 -170.4464
ENERGY: 900000 1.2084 5.1290 3.2556 0.0000 -10766.4358 1477.9898 0.0000 0.0000 1755.9162 -7522.9369 299.6836 -9278.8531 -7461.4665 299.2312 221.6081 365.0239 29967.8464 -164.6487 -104.5736
ENERGY: 1200000 1.1935 4.9034 2.5768 0.0000 -10524.8415 1354.9116 0.0000 0.0000 1723.2032 -7438.0529 294.1005 -9161.2561 -7467.5199 299.3561 -401.3365 -341.4166 30006.5090 -150.1434 -91.6899
ENERGY: 1500000 0.7346 5.4052 0.6114 0.0000 -10682.8754 1459.6087 0.0000 0.0000 1793.4231 -7423.0925 306.0850 -9216.5156 -7466.4424 299.5395 602.4788 584.1216 29813.2063 -90.8125 -33.3997
TCL: Running FEP window  15: Lambda1 0.7000000000000001 Lambda2 0.7500000000000001 [dLambda 0.050000000000000044]
TCL: Setting parameter firsttimestep to 0
TCL: Setting parameter alchLambda to 0.7000000000000001
Info: NONBONDED TABLE R-SQUARED SPACING: 0.0625
Info: NONBONDED TABLE SIZE: 705 POINTS
TCL: Setting parameter alchLambda2 to 0.7500000000000001
Info: NONBONDED TABLE R-SQUARED SPACING: 0.0625
Info: NONBONDED TABLE SIZE: 705 POINTS
TCL: Running for 1500000 steps
ETITLE: TS BOND ANGLE DIHED IMPRP ELECT VDW BOUNDARY MISC KINETIC TOTAL TEMP POTENTIAL TOTALAVG TEMPAVG PRESSURE GPRESSURE VOLUME PRESSAVG GPRESSAVG
ENERGY: 0 0.7346 5.4052 0.6114 0.0000 -10683.4594 1459.5442 0.0000 0.0000 1792.5483 -7424.6158 305.9357 -9217.1641 -7424.6158 305.9357 500.9262 593.8316 29813.2063 500.9262 593.8316
ENERGY: 300000 1.4831 5.5239 2.6256 0.0000 -10671.9016 1418.0534 0.0000 0.0000 1742.4958 -7501.7199 297.3932 -9244.2157 -7424.7401 304.8389 -90.0296 -44.1800 30272.8369 -14.2930 40.4895
ENERGY: 600000 0.7939 10.1304 3.8392 0.0000 -10551.0385 1382.3352 0.0000 0.0000 1769.9443 -7383.9956 302.0778 -9153.9398 -7408.9924 304.2996 -365.8892 -241.5867 30626.2649 -209.5852 -140.4275
ENERGY: 900000 4.1270 9.3176 0.6132 0.0000 -10772.3732 1500.8807 0.0000 0.0000 1708.9191 -7548.5156 291.6626 -9257.4347 -7450.2567 300.3070 431.4889 486.9255 29756.4906 -129.7297 -65.3579
ENERGY: 1200000 1.3979 7.7284 3.1564 0.0000 -10875.5948 1600.8368 0.0000 0.0000 1748.8921 -7513.5833 298.4848 -9262.4754 -7471.8837 299.2503 1394.2439 1449.5457 29916.2773 -7.5524 58.8366
ENERGY: 1500000 3.0753 3.9883 1.2634 0.0000 -10720.2597 1443.3299 0.0000 0.0000 1738.9490 -7529.6538 296.7878 -9268.6028 -7474.5679 298.4274 17.0280 76.0396 30102.6086 -101.2428 -32.8540
TCL: Running FEP window  16: Lambda1 0.7500000000000001 Lambda2 0.8000000000000002 [dLambda 0.050000000000000044]
TCL: Setting parameter firsttimestep to 0
TCL: Setting parameter alchLambda to 0.7500000000000001
Info: NONBONDED TABLE R-SQUARED SPACING: 0.0625
Info: NONBONDED TABLE SIZE: 705 POINTS
TCL: Setting parameter alchLambda2 to 0.8000000000000002
Info: NONBONDED TABLE R-SQUARED SPACING: 0.0625
Info: NONBONDED TABLE SIZE: 705 POINTS
TCL: Running for 1500000 steps
ETITLE: TS BOND ANGLE DIHED IMPRP ELECT VDW BOUNDARY MISC KINETIC TOTAL TEMP POTENTIAL TOTALAVG TEMPAVG PRESSURE GPRESSURE VOLUME PRESSAVG GPRESSAVG
ENERGY: 0 3.0753 3.9883 1.2634 0.0000 -10720.9661 1443.2685 0.0000 0.0000 1738.0762 -7531.2943 296.6389 -9269.3705 -7531.2943 296.6389 -5.3892 83.1520 30102.6086 -5.3892 83.1520
ENERGY: 300000 3.7124 6.0197 2.6028 0.0000 -10705.2442 1448.2814 0.0000 0.0000 1746.2345 -7498.3934 298.0313 -9244.6279 -7512.8410 297.5069 63.1085 62.6988 30428.3596 -111.4290 -61.9338
ENERGY: 600000 1.3331 7.4623 5.8404 0.0000 -10680.9513 1441.5458 0.0000 0.0000 1751.0957 -7473.6741 298.8609 -9224.7697 -7490.9375 299.2823 -78.7456 -20.7600 30677.3609 112.8454 169.5360
ENERGY: 900000 3.3257 6.5565 5.1713 0.0000 -10593.3762 1384.8049 0.0000 0.0000 1723.0779 -7470.4399 294.0791 -9193.5178 -7485.1319 298.7753 -473.0022 -373.5841 30665.8230 9.7007 67.1550
ENERGY: 1200000 1.8025 5.8258 1.9009 0.0000 -10768.0115 1505.1944 0.0000 0.0000 1757.8940 -7495.3938 300.0212 -9253.2879 -7489.7614 298.9860 466.1790 555.3717 30026.8671 11.8889 68.4299
ENERGY: 1500000 1.4126 9.5577 1.9034 0.0000 -10658.4735 1459.3370 0.0000 0.0000 1792.0652 -7394.1976 305.8532 -9186.2628 -7491.4285 298.9749 345.5276 423.7575 30084.7892 39.8097 100.1322
TCL: Running FEP window  17: Lambda1 0.8000000000000002 Lambda2 0.8500000000000002 [dLambda 0.050000000000000044]
TCL: Setting parameter firsttimestep to 0
TCL: Setting parameter alchLambda to 0.8000000000000002
Info: NONBONDED TABLE R-SQUARED SPACING: 0.0625
Info: NONBONDED TABLE SIZE: 705 POINTS
TCL: Setting parameter alchLambda2 to 0.8500000000000002
Info: NONBONDED TABLE R-SQUARED SPACING: 0.0625
Info: NONBONDED TABLE SIZE: 705 POINTS
TCL: Running for 1500000 steps
ETITLE: TS BOND ANGLE DIHED IMPRP ELECT VDW BOUNDARY MISC KINETIC TOTAL TEMP POTENTIAL TOTALAVG TEMPAVG PRESSURE GPRESSURE VOLUME PRESSAVG GPRESSAVG
ENERGY: 0 1.4126 9.5577 1.9034 0.0000 -10658.9621 1459.3052 0.0000 0.0000 1791.1957 -7395.5874 305.7048 -9186.7831 -7395.5874 305.7048 343.3478 430.3231 30084.7892 343.3478 430.3231
ENERGY: 300000 3.2482 7.8637 1.8548 0.0000 -10495.5757 1363.0379 0.0000 0.0000 1710.7439 -7408.8271 291.9741 -9119.5710 -7426.7047 299.5438 -454.1558 -350.5478 30331.8920 -0.5887 61.6534
ENERGY: 600000 0.7623 6.4381 1.5051 0.0000 -10590.7571 1393.4469 0.0000 0.0000 1791.4098 -7397.1949 305.7414 -9188.6047 -7419.8512 301.4483 44.4498 102.5744 30195.5137 180.8527 251.7123
ENERGY: 900000 0.8530 5.8900 4.7119 0.0000 -10640.8220 1366.5331 0.0000 0.0000 1727.2384 -7535.5955 294.7892 -9262.8339 -7447.2671 298.2613 -932.4585 -825.3620 30680.2020 -43.6807 29.5820
ENERGY: 1200000 3.4465 7.3977 2.3520 0.0000 -10791.5311 1465.4410 0.0000 0.0000 1805.9043 -7506.9896 308.2151 -9312.8939 -7438.5298 300.4292 84.1423 193.4203 29946.3297 -50.9888 20.4163
ENERGY: 1500000 1.0602 9.9424 1.5517 0.0000 -10764.2193 1468.0088 0.0000 0.0000 1751.5710 -7532.0852 298.9420 -9283.6562 -7450.7327 299.6744 -129.8598 -67.6778 30829.1661 -112.3068 -49.1842
TCL: Running FEP window  18: Lambda1 0.8500000000000002 Lambda2 0.9000000000000002 [dLambda 0.050000000000000044]
TCL: Setting parameter firsttimestep to 0
TCL: Setting parameter alchLambda to 0.8500000000000002
Info: NONBONDED TABLE R-SQUARED SPACING: 0.0625
Info: NONBONDED TABLE SIZE: 705 POINTS
TCL: Setting parameter alchLambda2 to 0.9000000000000002
Info: NONBONDED TABLE R-SQUARED SPACING: 0.0625
Info: NONBONDED TABLE SIZE: 705 POINTS
TCL: Running for 1500000 steps
ETITLE: TS BOND ANGLE DIHED IMPRP ELECT VDW BOUNDARY MISC KINETIC TOTAL TEMP POTENTIAL TOTALAVG TEMPAVG PRESSURE GPRESSURE VOLUME PRESSAVG GPRESSAVG
ENERGY: 0 1.0602 9.9424 1.5517 0.0000 -10765.6361 1468.4461 0.0000 0.0000 1750.7474 -7533.8882 298.8015 -9284.6356 -7533.8882 298.8015 -129.3486 -51.7910 30829.1661 -129.3486 -51.7910
ENERGY: 300000 0.5657 6.9458 1.0397 0.0000 -10689.4930 1442.5831 0.0000 0.0000 1737.7088 -7500.6499 296.5762 -9238.3588 -7465.5202 298.2813 92.0820 128.3021 30327.5055 -6.0580 71.0285
ENERGY: 600000 2.6613 6.4564 1.4512 0.0000 -10714.7846 1475.6394 0.0000 0.0000 1790.2239 -7438.3524 305.5390 -9228.5763 -7454.4423 300.2621 137.5034 256.4436 30284.5273 231.3300 315.2810
ENERGY: 900000 2.3663 7.9756 1.8422 0.0000 -10591.0906 1329.4271 0.0000 0.0000 1769.1272 -7480.3522 301.9384 -9249.4794 -7452.5313 301.2839 -863.0384 -849.3459 30537.7793 59.9420 129.0599
ENERGY: 1200000 0.4721 7.6203 1.3405 0.0000 -10580.5557 1472.4103 0.0000 0.0000 1766.8780 -7331.8345 301.5545 -9098.7126 -7457.2326 300.8299 645.1051 632.8898 30743.1262 161.4209 231.6833
ENERGY: 1500000 1.5577 7.2576 0.6941 0.0000 -10737.9628 1463.0359 0.0000 0.0000 1775.7716 -7489.6459 303.0724 -9265.4175 -7463.9771 300.9371 233.1464 253.7370 30117.4744 191.4346 255.1997
TCL: Running FEP window  19: Lambda1 0.9000000000000002 Lambda2 0.9500000000000003 [dLambda 0.050000000000000044]
TCL: Setting parameter firsttimestep to 0
TCL: Setting parameter alchLambda to 0.9000000000000002
Info: NONBONDED TABLE R-SQUARED SPACING: 0.0625
Info: NONBONDED TABLE SIZE: 705 POINTS
TCL: Setting parameter alchLambda2 to 0.9500000000000003
Info: NONBONDED TABLE R-SQUARED SPACING: 0.0625
Info: NONBONDED TABLE SIZE: 705 POINTS
TCL: Running for 1500000 steps
ETITLE: TS BOND ANGLE DIHED IMPRP ELECT VDW BOUNDARY MISC KINETIC TOTAL TEMP POTENTIAL TOTALAVG TEMPAVG PRESSURE GPRESSURE VOLUME PRESSAVG GPRESSAVG
ENERGY: 0 1.5577 7.2576 0.6941 0.0000 -10738.4154 1463.6482 0.0000 0.0000 1774.8912 -7490.3666 302.9221 -9265.2579 -7490.3666 302.9221 198.1649 272.0555 30117.4744 198.1649 272.0555
ENERGY: 300000 3.7392 7.0772 2.0065 0.0000 -10614.4558 1391.7009 0.0000 0.0000 1758.8900 -7451.0422 300.1912 -9209.9321 -7477.1390 303.8394 -385.2019 -331.6314 30379.1162 -16.9538 30.7275
ENERGY: 600000 2.5874 8.3445 3.6723 0.0000 -10700.3847 1454.2194 0.0000 0.0000 1783.5352 -7448.0257 304.3974 -9231.5610 -7461.3384 304.7941 69.6783 151.6152 30215.2259 -188.9512 -136.5959
ENERGY: 900000 2.6809 5.3163 1.2390 0.0000 -10702.7679 1482.5369 0.0000 0.0000 1747.2387 -7463.7560 298.2027 -9210.9947 -7453.8124 303.8898 666.4812 704.7874 30013.3201 -43.9375 5.5620
ENERGY: 1200000 1.1368 7.3632 0.8336 0.0000 -10638.4096 1427.9582 0.0000 0.0000 1741.1664 -7459.9513 297.1663 -9201.1177 -7453.0224 303.6508 175.2712 264.5526 30119.4532 -31.4297 18.2708
ENERGY: 1500000 0.7051 7.3628 2.9612 0.0000 -10763.4222 1472.3565 0.0000 0.0000 1763.5416 -7516.4951 300.9851 -9280.0366 -7458.5814 302.7898 281.0712 382.4937 29759.4204 -36.3345 23.7220
TCL: Running FEP window  20: Lambda1 0.9500000000000003 Lambda2 1.0    [dLambda 0.04999999999999971]
TCL: Setting parameter firsttimestep to 0
TCL: Setting parameter alchLambda to 0.9500000000000003
Info: NONBONDED TABLE R-SQUARED SPACING: 0.0625
Info: NONBONDED TABLE SIZE: 705 POINTS
TCL: Setting parameter alchLambda2 to 1.0
Info: NONBONDED TABLE R-SQUARED SPACING: 0.0625
Info: NONBONDED TABLE SIZE: 705 POINTS
TCL: Running for 1500000 steps
ETITLE: TS BOND ANGLE DIHED IMPRP ELECT VDW BOUNDARY MISC KINETIC TOTAL TEMP POTENTIAL TOTALAVG TEMPAVG PRESSURE GPRESSURE VOLUME PRESSAVG GPRESSAVG
ENERGY: 0 0.7051 7.3628 2.9612 0.0000 -10764.8274 1472.5682 0.0000 0.0000 1762.6864 -7518.5437 300.8391 -9281.2301 -7518.5437 300.8391 311.9383 395.6556 29759.4204 311.9383 395.6556
ENERGY: 300000 4.3347 7.6588 1.3132 0.0000 -10619.3831 1341.0193 0.0000 0.0000 1737.7348 -7527.3223 296.5806 -9265.0571 -7486.6913 303.6713 -846.5152 -730.6604 30270.5491 150.8066 226.9828
ENERGY: 600000 2.7234 6.7028 3.2813 0.0000 -10671.9699 1421.7588 0.0000 0.0000 1702.3877 -7535.1159 290.5479 -9237.5037 -7471.2358 300.4411 -208.2356 -183.9337 30520.2766 8.5395 80.7637
ENERGY: 900000 3.1961 4.1203 2.4391 0.0000 -10603.9204 1398.8214 0.0000 0.0000 1780.4632 -7414.8802 303.8731 -9195.3434 -7465.8728 301.5470 -94.1071 -22.1258 30215.9602 -9.0390 52.4571
ENERGY: 1200000 0.3303 5.4291 1.6776 0.0000 -10779.9196 1495.8465 0.0000 0.0000 1764.5475 -7512.0885 301.1568 -9276.6360 -7464.9848 301.0082 449.0666 508.9292 30015.3229 82.3661 143.1460
ENERGY: 1500000 3.5732 6.9921 1.6672 0.0000 -10712.5670 1424.7871 0.0000 0.0000 1766.8288 -7508.7186 301.5461 -9275.5473 -7466.3969 300.9700 -69.3274 19.0296 30174.6948 67.4551 131.6239
TCL: Exiting due to exit command.
