Info: SIMULATION PARAMETERS:
Info: TIMESTEP               2
Info: NUMBER OF STEPS        0
Info: STEPS PER CYCLE        10
Info: PERIODIC CELL BASIS 1  29.2831 0 0
Info: PERIODIC CELL BASIS 2  0 29.6777 0
Info: PERIODIC CELL BASIS 3  0 0 34.8954
Info: PERIODIC CELL CENTER   0 0 0
Info: WRAPPING WATERS AROUND PERIODIC BOUNDARIES ON OUTPUT.
Info: WRAPPING ALL CLUSTERS AROUND PERIODIC BOUNDARIES ON OUTPUT.
Info: FIRST LDB TIMESTEP     50
Info: LAST LDB TIMESTEP     -1
Info: HOM BACKGROUND SCALING 1
Info: PME BACKGROUND SCALING 1
Info: MIN ATOMS PER PATCH    40
Info: EMPTY PATCH LOAD       40 ATOMS
Info: VELOCITY FILE          mobley_5456566_equil.vel
Info: CENTER OF MASS MOVING INITIALLY? NO
Info: DIELECTRIC             1
Info: EXCLUDE                SCALED ONE-FOUR
Info: 1-4 ELECTROSTATICS SCALED BY 0.833333
Info: MODIFIED 1-4 VDW PARAMETERS WILL BE USED
Info: DCD FILENAME           mobley_5456566_prod.dcd
Info: DCD FREQUENCY          100000
Info: DCD FIRST STEP         100000
Info: DCD FILE WILL CONTAIN UNIT CELL DATA
Info: XST FILENAME           mobley_5456566_prod.xst
Info: XST FREQUENCY          100000
Info: NO VELOCITY DCD OUTPUT
Info: NO FORCE DCD OUTPUT
Info: OUTPUT FILENAME        mobley_5456566_prod
Info: BINARY OUTPUT FILES WILL BE USED
Info: RESTART FILENAME       mobley_5456566_prod.restart
Info: RESTART FREQUENCY      100000
Info: BINARY RESTART FILES WILL BE USED
Info: CUTOFF                 9
Info: PAIRLIST DISTANCE      11
Info: PAIRLIST SHRINK RATE   0.01
Info: PAIRLIST GROW RATE     0.01
Info: PAIRLIST TRIGGER       0.3
Info: PAIRLISTS PER CYCLE    2
Info: PAIRLISTS ENABLED
Info: MARGIN                 2
Info: HYDROGEN GROUP CUTOFF  2.5
Info: PATCH DIMENSION        15.5
Info: ENERGY OUTPUT STEPS    100000
Info: ENERGY EVALUATION STEPS    100000
Info: OUTPUT ENERGY PRECISION 4
Info: CROSSTERM ENERGY INCLUDED IN DIHEDRAL
Info: TIMING OUTPUT STEPS    1000000
Info: PRESSURE OUTPUT STEPS  100000
Info: ALCHEMICAL FEP ON
Info: FEP CURRENT LAMBDA VALUE     1
Info: FEP COMPARISON LAMBDA VALUE  0.95
Info: FEP INTRA-ALCHEMICAL NON-BONDED INTERACTIONS WILL BE RETAINED
Info: FEP INTRA-ALCHEMICAL BONDED INTERACTIONS WILL BE RETAINED
Info: FEP VDW SHIFTING COEFFICIENT 5
Info: FEP ELEC. ACTIVE FOR ANNIHILATED PARTICLES BETWEEN LAMBDA = 0 AND LAMBDA = 0.5
Info: FEP ELEC. ACTIVE FOR EXNIHILATED PARTICLES BETWEEN LAMBDA = 0.5 AND LAMBDA = 1
Info: FEP VDW ACTIVE FOR ANNIHILATED PARTICLES BETWEEN LAMBDA = 0 AND LAMBDA = 1
Info: FEP VDW ACTIVE FOR EXNIHILATED PARTICLES BETWEEN LAMBDA = 0 AND LAMBDA = 1
Info: FEP BOND ACTIVE FOR ANNIHILATED PARTICLES BETWEEN LAMBDA = 1 AND LAMBDA = 1
Info: FEP BOND ACTIVE FOR EXNIHILATED PARTICLES BETWEEN LAMBDA = 0 AND LAMBDA = 0
Info: LANGEVIN DYNAMICS ACTIVE
Info: LANGEVIN TEMPERATURE   300
Info: LANGEVIN USING BBK INTEGRATOR
Info: LANGEVIN DAMPING COEFFICIENT IS 1 INVERSE PS
Info: LANGEVIN DYNAMICS APPLIED TO HYDROGENS
Info: LANGEVIN PISTON PRESSURE CONTROL ACTIVE
Info:        TARGET PRESSURE IS 1.01325 BAR
Info:     OSCILLATION PERIOD IS 50 FS
Info:             DECAY TIME IS 25 FS
Info:     PISTON TEMPERATURE IS 300 K
Info:       PRESSURE CONTROL IS GROUP-BASED
Info:    INITIAL STRAIN RATE IS -0.000266075 -0.000266075 -0.000266075
Info:       CELL FLUCTUATION IS ISOTROPIC
Info: PARTICLE MESH EWALD (PME) ACTIVE
Info: PME TOLERANCE               1e-06
Info: PME EWALD COEFFICIENT       0.348832
Info: PME INTERPOLATION ORDER     4
Info: PME GRID DIMENSIONS         32 32 36
Info: PME MAXIMUM GRID SPACING    1
Info: PME CALCULATION WILL BE PERFORMED ON GPU
Info: FULL ELECTROSTATIC EVALUATION FREQUENCY      2
Info: USING VERLET I (r-RESPA) MTS SCHEME.
Info: C1 SPLITTING OF LONG RANGE ELECTROSTATICS
Info: PLACING ATOMS IN PATCHES BY HYDROGEN GROUPS
Info: RIGID BONDS TO HYDROGEN : ALL
Info:         ERROR TOLERANCE : 1e-08
Info:          MAX ITERATIONS : 100
Info: RIGID WATER USING SETTLE ALGORITHM
Info: RANDOM NUMBER SEED     1743803523
Info: USE HYDROGEN BONDS?    NO
Info: Using AMBER format force field!
Info: AMBER PARM FILE        mobley_5456566.prmtop
Info: COORDINATE PDB         mobley_5456566.pdb
Info: Exclusions will be read from PARM file!
Info: SCNB (VDW SCALING)     2
Info: USING ARITHMETIC MEAN TO COMBINE L-J SIGMA PARAMETERS
Info: BINARY COORDINATES     mobley_5456566_equil.coor
Info: SUMMARY OF PARAMETERS:
Info: 6 BONDS
Info: 6 ANGLES
Info:   6 HARMONIC
Info:   0 COSINE-BASED
Info: 3 DIHEDRAL
Info: 0 IMPROPER
Info: 0 CROSSTERM
Info: 0 VDW
Info: 10 VDW_PAIRS
Info: 0 NBTHOLE_PAIRS
Info: To read alchdata from file: mobley_5456566.pdb
Info: To read alchflag data from column: 5
Info: STRUCTURE SUMMARY:
Info: 2926 ATOMS
Info: 2927 BONDS
Info: 36 ANGLES
Info: 64 DIHEDRALS
Info: 0 IMPROPERS
Info: 0 CROSSTERMS
Info: 3009 EXCLUSIONS
Info: 2904 RIGID BONDS
Info: ALCH: 0 ATOMS TO DISAPPEAR IN FINAL STATE
Info: ALCH: 22 ATOMS TO APPEAR IN FINAL STATE
Info: 5874 DEGREES OF FREEDOM
Info: 990 HYDROGEN GROUPS
Info: 3 ATOMS IN LARGEST HYDROGEN GROUP
Info: 990 MIGRATION GROUPS
Info: 3 ATOMS IN LARGEST MIGRATION GROUP
Info: TOTAL MASS = 17938.1 amu
Info: TOTAL CHARGE = 0.000100011 e
Info: MASS DENSITY = 0.982245 g/cm^3
Info: ATOM DENSITY = 0.0964847 atoms/A^3
Info: ADDED 0 IMPLICIT EXCLUSIONS
Info: NONBONDED TABLE R-SQUARED SPACING: 0.0625
Info: NONBONDED TABLE SIZE: 705 POINTS
Info: REMOVING COM VELOCITY -0.277839 0.216557 0.0294595
Info: Use 3D box decompostion in PME FFT.
Info: Updated CUDA force table with 4096 elements.
Info: Updated CUDA LJ table with 4 x 4 elements.
Info: Found 17 unique exclusion lists needing 36 bytes
TCL: Running for 1500000 steps
ETITLE: TS BOND ANGLE DIHED IMPRP ELECT VDW BOUNDARY MISC KINETIC TOTAL TEMP POTENTIAL TOTALAVG TEMPAVG PRESSURE GPRESSURE VOLUME PRESSAVG GPRESSAVG
ENERGY: 0 11.6195 3.8499 11.6322 0.0000 -10412.3147 1348.1883 0.0000 0.0000 1802.4119 -7234.6129 308.8236 -9037.0248 -7234.6129 308.8236 -184.2343 -84.2122 30326.0510 -184.2343 -84.2122
ENERGY: 300000 4.8919 2.7010 14.3208 0.0000 -10675.3223 1540.0749 0.0000 0.0000 1715.9136 -7397.4201 294.0031 -9113.3337 -7336.7091 301.7547 1158.4193 1236.4161 30298.2014 322.3222 374.4015
ENERGY: 600000 6.7042 5.6979 15.9564 0.0000 -10529.8448 1358.3133 0.0000 0.0000 1788.4897 -7354.6833 306.4382 -9143.1730 -7342.5215 303.7377 -761.9464 -656.4266 31218.7533 33.7718 98.4380
ENERGY: 900000 8.2525 2.7133 13.5213 0.0000 -10506.3385 1406.8113 0.0000 0.0000 1723.7488 -7351.2913 295.3455 -9075.0401 -7360.5378 300.8045 86.7385 115.8494 30536.2624 27.6777 89.3719
ENERGY: 1200000 9.5496 5.0114 10.6450 0.0000 -10595.3625 1461.7095 0.0000 0.0000 1756.7386 -7351.7083 300.9980 -9108.4469 -7360.9050 300.7705 300.6389 391.6145 30814.8056 10.0270 67.4445
ENERGY: 1500000 10.3900 2.9824 12.9770 0.0000 -10498.4946 1389.8789 0.0000 0.0000 1757.3969 -7324.8694 301.1108 -9082.2663 -7359.1114 300.8786 -183.5072 -135.5806 30827.7092 2.7257 54.5129
TCL: Running FEP window   2: Lambda1 0.95   Lambda2 0.8999999999999999 [dLambda -0.050000000000000044]
TCL: Setting parameter firsttimestep to 0
TCL: Setting parameter alchLambda to 0.95
Info: NONBONDED TABLE R-SQUARED SPACING: 0.0625
Info: NONBONDED TABLE SIZE: 705 POINTS
TCL: Setting parameter alchLambda2 to 0.8999999999999999
Info: NONBONDED TABLE R-SQUARED SPACING: 0.0625
Info: NONBONDED TABLE SIZE: 705 POINTS
TCL: Running for 1500000 steps
ETITLE: TS BOND ANGLE DIHED IMPRP ELECT VDW BOUNDARY MISC KINETIC TOTAL TEMP POTENTIAL TOTALAVG TEMPAVG PRESSURE GPRESSURE VOLUME PRESSAVG GPRESSAVG
ENERGY: 0 10.3900 2.9824 12.9770 0.0000 -10498.3425 1390.3632 0.0000 0.0000 1756.5270 -7325.1029 300.9617 -9081.6299 -7325.1029 300.9617 -249.2933 -153.2384 30827.7092 -249.2933 -153.2384
ENERGY: 300000 9.1458 5.6605 12.1258 0.0000 -10594.7344 1394.9975 0.0000 0.0000 1761.2522 -7411.5525 301.7713 -9172.8048 -7369.9268 298.5953 -113.1519 -39.2744 29994.1839 47.1478 120.1266
ENERGY: 600000 9.5142 6.7299 11.0782 0.0000 -10558.2612 1336.2206 0.0000 0.0000 1739.2590 -7455.4593 298.0030 -9194.7183 -7369.1432 301.1252 -689.3956 -595.6167 29838.0810 -144.7454 -73.0425
ENERGY: 900000 4.9656 3.2468 15.5082 0.0000 -10468.6898 1366.2599 0.0000 0.0000 1770.7513 -7307.9581 303.3989 -9078.7094 -7357.6579 300.7962 -224.5889 -132.8915 30419.6013 -138.0838 -77.8276
ENERGY: 1200000 5.1218 4.1685 13.1750 0.0000 -10509.3956 1400.3932 0.0000 0.0000 1698.5635 -7387.9737 291.0303 -9086.5371 -7356.0607 300.3616 -41.2789 9.3150 30882.7988 -126.3336 -61.7614
ENERGY: 1500000 6.9622 2.6307 12.2960 0.0000 -10586.0770 1369.3604 0.0000 0.0000 1697.3036 -7497.5241 290.8144 -9194.8277 -7370.2781 299.3290 -355.5359 -282.5291 30108.1894 -112.2006 -42.5990
TCL: Running FEP window   3: Lambda1 0.8999999999999999 Lambda2 0.8499999999999999 [dLambda -0.050000000000000044]
TCL: Setting parameter firsttimestep to 0
TCL: Setting parameter alchLambda to 0.8999999999999999
Info: NONBONDED TABLE R-SQUARED SPACING: 0.0625
Info: NONBONDED TABLE SIZE: 705 POINTS
TCL: Setting parameter alchLambda2 to 0.8499999999999999
Info: NONBONDED TABLE R-SQUARED SPACING: 0.0625
Info: NONBONDED TABLE SIZE: 705 POINTS
TCL: Running for 1500000 steps
ETITLE: TS BOND ANGLE DIHED IMPRP ELECT VDW BOUNDARY MISC KINETIC TOTAL TEMP POTENTIAL TOTALAVG TEMPAVG PRESSURE GPRESSURE VOLUME PRESSAVG GPRESSAVG
ENERGY: 0 6.9622 2.6307 12.2960 0.0000 -10586.0380 1370.3424 0.0000 0.0000 1696.4783 -7497.3284 290.6730 -9193.8067 -7497.3284 290.6730 -380.2795 -299.4015 30108.1894 -380.2795 -299.4015
ENERGY: 300000 5.3859 6.3965 12.0663 0.0000 -10639.9462 1442.9504 0.0000 0.0000 1726.2776 -7446.8695 295.7788 -9173.1470 -7413.9688 296.1660 172.3151 169.0862 30082.5862 99.2166 169.3492
ENERGY: 600000 7.6448 8.0684 16.0085 0.0000 -10385.3084 1315.0966 0.0000 0.0000 1787.1388 -7251.3514 306.2067 -9038.4902 -7377.7926 298.3983 -485.0777 -480.4048 30263.0507 52.9493 105.2035
ENERGY: 900000 5.3765 3.8078 14.1030 0.0000 -10560.4947 1439.7062 0.0000 0.0000 1698.6330 -7398.8682 291.0422 -9097.5012 -7390.0521 298.0314 -176.6953 -89.3992 31225.5694 24.3117 88.0919
ENERGY: 1200000 5.0856 2.6663 18.1608 0.0000 -10493.8536 1396.2891 0.0000 0.0000 1726.4022 -7345.2495 295.8002 -9071.6517 -7392.8125 298.1802 -72.0305 -33.7146 30501.4282 -44.3390 21.7859
ENERGY: 1500000 10.4090 5.1902 11.5252 0.0000 -10632.8984 1513.9338 0.0000 0.0000 1714.6597 -7377.1805 293.7882 -9091.8401 -7395.5064 297.1564 613.1761 638.3574 30410.3204 4.4625 63.3000
TCL: Running FEP window   4: Lambda1 0.8499999999999999 Lambda2 0.7999999999999998 [dLambda -0.050000000000000044]
TCL: Setting parameter firsttimestep to 0
TCL: Setting parameter alchLambda to 0.8499999999999999
Info: NONBONDED TABLE R-SQUARED SPACING: 0.0625
Info: NONBONDED TABLE SIZE: 705 POINTS
TCL: Setting parameter alchLambda2 to 0.7999999999999998
Info: NONBONDED TABLE R-SQUARED SPACING: 0.0625
Info: NONBONDED TABLE SIZE: 705 POINTS
TCL: Running for 1500000 steps
ETITLE: TS BOND ANGLE DIHED IMPRP ELECT VDW BOUNDARY MISC KINETIC TOTAL TEMP POTENTIAL TOTALAVG TEMPAVG PRESSURE GPRESSURE VOLUME PRESSAVG GPRESSAVG
ENERGY: 0 10.4090 5.1902 11.5252 0.0000 -10632.8227 1514.8649 0.0000 0.0000 1713.7780 -7377.0554 293.6371 -9090.8333 -7377.0554 293.6371 531.4533 624.6951 30410.3204 531.4533 624.6951
ENERGY: 300000 4.6160 5.6461 9.7822 0.0000 -10528.4656 1452.3993 0.0000 0.0000 1747.8663 -7308.1556 299.4778 -9056.0220 -7365.6144 294.6029 852.0748 884.4313 30088.6171 556.6392 606.8323
ENERGY: 600000 12.4930 2.4349 11.6522 0.0000 -10575.4838 1391.5562 0.0000 0.0000 1779.9319 -7377.4157 304.9719 -9157.3476 -7371.8249 299.1035 -519.7760 -525.8522 30895.0762 215.0596 259.8497
ENERGY: 900000 5.7592 4.2098 10.5858 0.0000 -10553.5993 1412.1031 0.0000 0.0000 1785.9613 -7334.9802 306.0050 -9120.9415 -7366.8839 299.9821 252.5644 276.2687 30016.6393 214.4400 259.2731
ENERGY: 1200000 6.7368 4.1131 9.8073 0.0000 -10561.8639 1455.0933 0.0000 0.0000 1721.8022 -7364.3112 295.0120 -9086.1133 -7367.9044 299.0346 450.9448 444.7331 30669.9518 208.5824 254.4133
ENERGY: 1500000 9.2289 3.7765 14.9883 0.0000 -10572.8736 1369.6134 0.0000 0.0000 1732.2995 -7442.9670 296.8106 -9175.2666 -7368.1048 299.4525 -703.8018 -711.3384 30307.9746 115.0638 152.7414
TCL: Running FEP window   5: Lambda1 0.7999999999999998 Lambda2 0.7499999999999998 [dLambda -0.050000000000000044]
TCL: Setting parameter firsttimestep to 0
TCL: Setting parameter alchLambda to 0.7999999999999998
Info: NONBONDED TABLE R-SQUARED SPACING: 0.0625
Info: NONBONDED TABLE SIZE: 705 POINTS
TCL: Setting parameter alchLambda2 to 0.7499999999999998
Info: NONBONDED TABLE R-SQUARED SPACING: 0.0625
Info: NONBONDED TABLE SIZE: 705 POINTS
TCL: Running for 1500000 steps
ETITLE: TS BOND ANGLE DIHED IMPRP ELECT VDW BOUNDARY MISC KINETIC TOTAL TEMP POTENTIAL TOTALAVG TEMPAVG PRESSURE GPRESSURE VOLUME PRESSAVG GPRESSAVG
ENERGY: 0 9.2289 3.7765 14.9883 0.0000 -10572.8981 1370.8731 0.0000 0.0000 1731.4217 -7442.6097 296.6602 -9174.0314 -7442.6097 296.6602 -804.8449 -718.8515 30307.9746 -804.8449 -718.8515
ENERGY: 300000 10.5849 2.6425 10.8883 0.0000 -10509.8220 1389.4896 0.0000 0.0000 1784.0159 -7312.2007 305.6717 -9096.2166 -7383.9176 300.4049 -310.9774 -228.0765 30470.8079 3.7940 39.6886
ENERGY: 600000 8.7151 3.4669 16.7031 0.0000 -10542.4190 1380.4155 0.0000 0.0000 1708.1341 -7424.9844 292.6701 -9133.1185 -7363.0241 300.9057 -254.0128 -235.9914 30175.9436 -17.3716 27.1410
ENERGY: 900000 9.2154 7.5129 11.6158 0.0000 -10533.9057 1397.6048 0.0000 0.0000 1794.8842 -7313.0727 307.5338 -9107.9569 -7349.3573 301.9973 -206.1837 -160.0631 30160.2275 -99.1525 -45.1606
ENERGY: 1200000 7.9713 4.8093 14.6058 0.0000 -10582.6359 1411.5300 0.0000 0.0000 1784.8063 -7358.9132 305.8071 -9143.7195 -7347.7317 302.4488 -119.6986 4.4117 30425.4867 -139.4647 -85.8190
ENERGY: 1500000 5.2999 8.3992 12.6626 0.0000 -10728.6630 1541.7877 0.0000 0.0000 1753.4404 -7407.0732 300.4329 -9160.5136 -7351.2375 301.9156 923.2989 943.7729 30472.5615 -66.5540 -13.8114
TCL: Running FEP window   6: Lambda1 0.7499999999999998 Lambda2 0.6999999999999997 [dLambda -0.050000000000000044]
TCL: Setting parameter firsttimestep to 0
TCL: Setting parameter alchLambda to 0.7499999999999998
Info: NONBONDED TABLE R-SQUARED SPACING: 0.0625
Info: NONBONDED TABLE SIZE: 705 POINTS
TCL: Setting parameter alchLambda2 to 0.6999999999999997
Info: NONBONDED TABLE R-SQUARED SPACING: 0.0625
Info: NONBONDED TABLE SIZE: 705 POINTS
TCL: Running for 1500000 steps
ETITLE: TS BOND ANGLE DIHED IMPRP ELECT VDW BOUNDARY MISC KINETIC TOTAL TEMP POTENTIAL TOTALAVG TEMPAVG PRESSURE GPRESSURE VOLUME PRESSAVG GPRESSAVG
ENERGY: 0 5.2999 8.3992 12.6626 0.0000 -10728.5798 1542.2679 0.0000 0.0000 1752.5503 -7407.3999 300.2804 -9159.9502 -7407.3999 300.2804 842.1765 931.4651 30472.5615 842.1765 931.4651
ENERGY: 300000 8.6691 4.9710 15.3727 0.0000 -10480.9686 1357.4498 0.0000 0.0000 1706.9923 -7387.5137 292.4745 -9094.5060 -7379.6563 299.0180 -413.0306 -356.5083 30195.3387 -3.2914 78.8236
ENERGY: 600000 8.2536 2.5044 11.6044 0.0000 -10468.3848 1327.1680 0.0000 0.0000 1759.6040 -7359.2505 301.4889 -9118.8545 -7339.6315 301.9997 -659.9866 -584.8534 30260.2729 -59.0318 21.8046
ENERGY: 900000 3.9593 4.5404 10.3832 0.0000 -10455.3433 1385.6309 0.0000 0.0000 1757.4023 -7293.4272 301.1117 -9050.8295 -7349.7626 302.1710 403.6577 419.0621 30200.9663 -80.6066 -10.8043
ENERGY: 1200000 8.1446 2.1435 12.6646 0.0000 -10612.4854 1412.3016 0.0000 0.0000 1733.6338 -7443.5972 297.0392 -9177.2311 -7357.6994 300.6718 -499.0875 -396.2547 30347.0243 -184.0648 -114.0712
ENERGY: 1500000 11.8737 2.8963 11.6733 0.0000 -10583.3457 1376.9472 0.0000 0.0000 1727.9314 -7452.0239 296.0622 -9179.9553 -7354.9673 301.0213 -471.3006 -417.7321 30184.1671 -137.6961 -77.2429
TCL: Running FEP window   7: Lambda1 0.6999999999999997 Lambda2 0.6499999999999997 [dLambda -0.050000000000000044]
TCL: Setting parameter firsttimestep to 0
TCL: Setting parameter alchLambda to 0.6999999999999997
Info: NONBONDED TABLE R-SQUARED SPACING: 0.0625
Info: NONBONDED TABLE SIZE: 705 POINTS
TCL: Setting parameter alchLambda2 to 0.6499999999999997
Info: NONBONDED TABLE R-SQUARED SPACING: 0.0625
Info: NONBONDED TABLE SIZE: 705 POINTS
TCL: Running for 1500000 steps
ETITLE: TS BOND ANGLE DIHED IMPRP ELECT VDW BOUNDARY MISC KINETIC TOTAL TEMP POTENTIAL TOTALAVG TEMPAVG PRESSURE GPRESSURE VOLUME PRESSAVG GPRESSAVG
ENERGY: 0 11.8737 2.8963 11.6733 0.0000 -10583.3143 1376.8813 0.0000 0.0000 1727.0806 -7452.9091 295.9164 -9179.9896 -7452.9091 295.9164 -527.4911 -437.0856 30184.1671 -527.4911 -437.0856
ENERGY: 300000 10.0228 7.1918 12.9385 0.0000 -10470.5875 1374.0822 0.0000 0.0000 1754.8906 -7311.4615 300.6814 -9066.3521 -7365.4127 297.7941 -208.5206 -222.8705 30385.3562 -98.3416 -59.8767
ENERGY: 600000 7.1291 3.5729 11.4541 0.0000 -10501.4754 1418.2156 0.0000 0.0000 1746.4490 -7314.6547 299.2350 -9061.1037 -7360.5778 298.8274 469.9069 555.2533 30477.2713 -43.7463 13.4646
ENERGY: 900000 11.1156 4.5351 13.7060 0.0000 -10661.0585 1493.9308 0.0000 0.0000 1781.3946 -7356.3764 305.2225 -9137.7710 -7352.4873 300.6840 491.1299 614.1118 30066.7316 -137.0947 -75.4983
ENERGY: 1200000 5.8666 4.7315 13.1410 0.0000 -10550.5900 1417.0648 0.0000 0.0000 1773.5005 -7336.2856 303.8700 -9109.7861 -7362.2419 300.5376 -26.4856 48.7617 30623.5217 -175.2772 -109.5658
ENERGY: 1500000 8.1411 5.7292 11.4547 0.0000 -10440.1111 1361.3595 0.0000 0.0000 1745.6288 -7307.7978 299.0944 -9053.4265 -7350.3827 300.5100 -298.1195 -241.6267 30565.6441 -181.3616 -122.0704
TCL: Running FEP window   8: Lambda1 0.6499999999999997 Lambda2 0.5999999999999996 [dLambda -0.050000000000000044]
TCL: Setting parameter firsttimestep to 0
TCL: Setting parameter alchLambda to 0.6499999999999997
Info: NONBONDED TABLE R-SQUARED SPACING: 0.0625
Info: NONBONDED TABLE SIZE: 705 POINTS
TCL: Setting parameter alchLambda2 to 0.5999999999999996
Info: NONBONDED TABLE R-SQUARED SPACING: 0.0625
Info: NONBONDED TABLE SIZE: 705 POINTS
TCL: Running for 1500000 steps
ETITLE: TS BOND ANGLE DIHED IMPRP ELECT VDW BOUNDARY MISC KINETIC TOTAL TEMP POTENTIAL TOTALAVG TEMPAVG PRESSURE GPRESSURE VOLUME PRESSAVG GPRESSAVG
ENERGY: 0 8.1411 5.7292 11.4547 0.0000 -10440.0374 1362.6007 0.0000 0.0000 1744.7616 -7307.3500 298.9459 -9052.1117 -7307.3500 298.9459 -323.6429 -242.7323 30565.6441 -323.6429 -242.7323
ENERGY: 300000 9.2560 6.1010 12.1953 0.0000 -10585.3299 1486.1205 0.0000 0.0000 1744.7641 -7326.8931 298.9463 -9071.6572 -7345.4642 300.8579 780.5384 853.3186 30127.0494 72.1492 117.8334
ENERGY: 600000 7.2762 4.6311 12.9432 0.0000 -10400.1981 1290.1978 0.0000 0.0000 1767.3551 -7317.7948 302.8170 -9085.1499 -7325.6528 302.4218 -1087.7542 -1063.0981 30392.6991 -158.7844 -106.0050
ENERGY: 900000 8.4228 7.3808 14.0021 0.0000 -10519.5579 1410.4990 0.0000 0.0000 1783.2670 -7295.9863 305.5433 -9079.2533 -7335.5610 302.2832 -1.1591 90.6709 30181.8747 50.5542 108.6559
ENERGY: 1200000 9.3200 6.4272 10.8530 0.0000 -10424.9429 1329.3510 0.0000 0.0000 1746.4894 -7322.5024 299.2419 -9068.9917 -7340.7491 300.8504 -892.0800 -813.0842 30564.2725 -163.2313 -107.2825
ENERGY: 1500000 7.1700 4.5804 12.8697 0.0000 -10619.6272 1532.1564 0.0000 0.0000 1727.0501 -7335.8005 295.9112 -9062.8507 -7342.5811 300.5952 770.2740 828.9806 30325.8984 -93.5644 -30.8960
TCL: Running FEP window   9: Lambda1 0.5999999999999996 Lambda2 0.5499999999999996 [dLambda -0.050000000000000044]
TCL: Setting parameter firsttimestep to 0
TCL: Setting parameter alchLambda to 0.5999999999999996
Info: NONBONDED TABLE R-SQUARED SPACING: 0.0625
Info: NONBONDED TABLE SIZE: 705 POINTS
TCL: Setting parameter alchLambda2 to 0.5499999999999996
Info: NONBONDED TABLE R-SQUARED SPACING: 0.0625
Info: NONBONDED TABLE SIZE: 705 POINTS
TCL: Running for 1500000 steps
ETITLE: TS BOND ANGLE DIHED IMPRP ELECT VDW BOUNDARY MISC KINETIC TOTAL TEMP POTENTIAL TOTALAVG TEMPAVG PRESSURE GPRESSURE VOLUME PRESSAVG GPRESSAVG
ENERGY: 0 7.1700 4.5804 12.8697 0.0000 -10619.6083 1532.8396 0.0000 0.0000 1726.2164 -7335.9323 295.7683 -9062.1487 -7335.9323 295.7683 729.8472 820.3800 30325.8984 729.8472 820.3800
ENERGY: 300000 7.0401 2.1269 15.3460 0.0000 -10646.9276 1478.8366 0.0000 0.0000 1746.6066 -7396.9713 299.2620 -9143.5778 -7390.4696 296.9886 493.7353 572.6145 30066.5471 265.7854 333.2220
ENERGY: 600000 5.0333 3.1307 13.6741 0.0000 -10613.3775 1422.1400 0.0000 0.0000 1780.6479 -7388.7516 305.0946 -9169.3995 -7395.4721 297.5129 -57.9058 74.8316 30461.7233 289.2673 355.9918
ENERGY: 900000 6.8843 4.3441 12.6655 0.0000 -10544.8352 1411.2487 0.0000 0.0000 1736.7529 -7372.9397 297.5737 -9109.6926 -7382.0629 299.3384 335.2626 377.5184 30442.6387 282.7983 335.6306
ENERGY: 1200000 10.9885 4.7067 14.1463 0.0000 -10516.0732 1396.3809 0.0000 0.0000 1749.1962 -7340.6545 299.7057 -9089.8507 -7374.7036 299.3876 -156.1101 -124.0406 30268.1496 178.1761 226.0292
ENERGY: 1500000 8.9631 4.5611 10.3169 0.0000 -10450.6842 1346.6614 0.0000 0.0000 1772.4429 -7307.7387 303.6887 -9080.1816 -7370.1742 299.8850 -605.6818 -579.8763 30477.4590 110.6358 159.4901
TCL: Running FEP window  10: Lambda1 0.5499999999999996 Lambda2 0.4999999999999996 [dLambda -0.04999999999999999]
TCL: Setting parameter firsttimestep to 0
TCL: Setting parameter alchLambda to 0.5499999999999996
Info: NONBONDED TABLE R-SQUARED SPACING: 0.0625
Info: NONBONDED TABLE SIZE: 705 POINTS
TCL: Setting parameter alchLambda2 to 0.4999999999999996
Info: NONBONDED TABLE R-SQUARED SPACING: 0.0625
Info: NONBONDED TABLE SIZE: 705 POINTS
TCL: Running for 1500000 steps
ETITLE: TS BOND ANGLE DIHED IMPRP ELECT VDW BOUNDARY MISC KINETIC TOTAL TEMP POTENTIAL TOTALAVG TEMPAVG PRESSURE GPRESSURE VOLUME PRESSAVG GPRESSAVG
ENERGY: 0 8.9631 4.5611 10.3169 0.0000 -10450.4946 1348.0015 0.0000 0.0000 1771.5266 -7307.1252 303.5318 -9078.6519 -7307.1252 303.5318 -665.2378 -580.1257 30477.4590 -665.2378 -580.1257
ENERGY: 300000 7.2362 2.2921 11.8068 0.0000 -10657.7194 1462.1230 0.0000 0.0000 1765.8870 -7408.3743 302.5655 -9174.2613 -7346.3229 301.0688 420.0828 478.8257 30080.6723 -90.3352 -42.9403
ENERGY: 600000 8.2931 4.5868 15.1786 0.0000 -10641.8241 1492.2123 0.0000 0.0000 1777.9993 -7343.5539 304.6408 -9121.5532 -7346.7659 301.7231 265.7497 350.1952 30477.0587 10.5033 62.1537
ENERGY: 900000 7.8622 2.4335 12.6534 0.0000 -10582.2443 1390.7177 0.0000 0.0000 1796.1185 -7372.4590 307.7453 -9168.5775 -7361.7303 301.2758 -388.3702 -294.3807 29929.5201 -192.7545 -131.0423
ENERGY: 1200000 7.9180 3.8402 12.8229 0.0000 -10451.1215 1386.3845 0.0000 0.0000 1781.5664 -7258.5896 305.2520 -9040.1560 -7350.3200 301.9981 -24.0444 11.4115 30416.8998 -151.0756 -85.2284
ENERGY: 1500000 7.2722 5.3913 14.4340 0.0000 -10419.8622 1298.3644 0.0000 0.0000 1729.4270 -7364.9734 296.3184 -9094.4004 -7342.4551 302.1026 -626.3270 -641.6096 30095.7135 -233.6204 -170.0488
TCL: Running FEP window  11: Lambda1 0.4999999999999996 Lambda2 0.4499999999999996 [dLambda -0.04999999999999999]
TCL: Setting parameter firsttimestep to 0
TCL: Setting parameter alchLambda to 0.4999999999999996
Info: NONBONDED TABLE R-SQUARED SPACING: 0.0625
Info: NONBONDED TABLE SIZE: 705 POINTS
TCL: Setting parameter alchLambda2 to 0.4499999999999996
Info: NONBONDED TABLE R-SQUARED SPACING: 0.0625
Info: NONBONDED TABLE SIZE: 705 POINTS
TCL: Running for 1500000 steps
ETITLE: TS BOND ANGLE DIHED IMPRP ELECT VDW BOUNDARY MISC KINETIC TOTAL TEMP POTENTIAL TOTALAVG TEMPAVG PRESSURE GPRESSURE VOLUME PRESSAVG GPRESSAVG
ENERGY: 0 7.2722 5.3913 14.4340 0.0000 -10419.9706 1299.0215 0.0000 0.0000 1728.5250 -7365.3267 296.1639 -9093.8517 -7365.3267 296.1639 -730.4350 -648.5370 30095.7135 -730.4350 -648.5370
ENERGY: 300000 5.6413 4.6068 13.0346 0.0000 -10550.1042 1399.2264 0.0000 0.0000 1746.2347 -7381.3603 299.1983 -9127.5950 -7392.4351 297.6158 -63.6029 58.4133 29762.0363 -294.6554 -222.3874
ENERGY: 600000 8.2427 3.3018 14.4603 0.0000 -10563.4983 1385.6101 0.0000 0.0000 1777.5457 -7374.3377 304.5631 -9151.8834 -7377.1197 299.3163 -644.7785 -554.8488 30439.7520 -115.2244 -54.2238
ENERGY: 900000 9.1205 4.9953 15.2000 0.0000 -10591.6382 1439.8488 0.0000 0.0000 1707.4765 -7414.9971 292.5575 -9122.4736 -7393.2018 298.2087 -94.8494 -50.0241 30363.5730 -76.9174 -26.5659
ENERGY: 1200000 10.2457 4.9452 11.4597 0.0000 -10496.6596 1406.7533 0.0000 0.0000 1729.2460 -7334.0097 296.2874 -9063.2558 -7388.9020 298.0624 -559.1318 -493.4010 30622.6658 -174.1524 -118.6171
ENERGY: 1500000 4.2942 3.1851 13.7138 0.0000 -10552.2407 1446.5932 0.0000 0.0000 1743.6234 -7340.8309 298.7508 -9084.4543 -7378.2603 298.3317 418.2937 448.5830 30394.1496 -119.5141 -64.5038
TCL: Running FEP window  12: Lambda1 0.4499999999999996 Lambda2 0.39999999999999963 [dLambda -0.04999999999999999]
TCL: Setting parameter firsttimestep to 0
TCL: Setting parameter alchLambda to 0.4499999999999996
Info: NONBONDED TABLE R-SQUARED SPACING: 0.0625
Info: NONBONDED TABLE SIZE: 705 POINTS
TCL: Setting parameter alchLambda2 to 0.39999999999999963
Info: NONBONDED TABLE R-SQUARED SPACING: 0.0625
Info: NONBONDED TABLE SIZE: 705 POINTS
TCL: Running for 1500000 steps
ETITLE: TS BOND ANGLE DIHED IMPRP ELECT VDW BOUNDARY MISC KINETIC TOTAL TEMP POTENTIAL TOTALAVG TEMPAVG PRESSURE GPRESSURE VOLUME PRESSAVG GPRESSAVG
ENERGY: 0 4.2942 3.1851 13.7138 0.0000 -10552.2409 1447.2148 0.0000 0.0000 1742.7470 -7341.0859 298.6007 -9083.8329 -7341.0859 298.6007 354.7851 439.8292 30394.1496 354.7851 439.8292
ENERGY: 300000 8.6847 6.3213 13.0704 0.0000 -10543.1432 1416.7783 0.0000 0.0000 1809.6398 -7288.6487 310.0620 -9098.2885 -7344.6533 308.3233 205.6347 267.1327 30160.0917 399.1174 463.8657
ENERGY: 600000 10.0580 3.4792 13.3007 0.0000 -10541.1721 1405.4016 0.0000 0.0000 1750.0761 -7358.8565 299.8564 -9108.9326 -7360.3618 305.6160 -419.0605 -317.5569 30300.1349 94.2325 157.9912
ENERGY: 900000 9.1066 4.6445 15.7966 0.0000 -10371.4754 1306.9368 0.0000 0.0000 1762.1240 -7272.8670 301.9207 -9034.9910 -7350.7788 304.7034 -853.4838 -766.2649 30650.1845 43.7607 105.6746
ENERGY: 1200000 7.2955 5.4655 12.4674 0.0000 -10514.9523 1435.1811 0.0000 0.0000 1693.4633 -7361.0796 290.1565 -9054.5429 -7360.0986 302.8189 37.9034 129.8972 30452.2066 134.3450 198.9177
ENERGY: 1500000 8.5996 3.4181 11.2169 0.0000 -10477.9348 1406.4053 0.0000 0.0000 1767.5691 -7280.7258 302.8537 -9048.2949 -7355.9634 302.5553 -366.7671 -252.1328 30796.5530 80.0823 147.7644
TCL: Running FEP window  13: Lambda1 0.39999999999999963 Lambda2 0.34999999999999964 [dLambda -0.04999999999999999]
TCL: Setting parameter firsttimestep to 0
TCL: Setting parameter alchLambda to 0.39999999999999963
Info: NONBONDED TABLE R-SQUARED SPACING: 0.0625
Info: NONBONDED TABLE SIZE: 705 POINTS
TCL: Setting parameter alchLambda2 to 0.34999999999999964
Info: NONBONDED TABLE R-SQUARED SPACING: 0.0625
Info: NONBONDED TABLE SIZE: 705 POINTS
TCL: Running for 1500000 steps
ETITLE: TS BOND ANGLE DIHED IMPRP ELECT VDW BOUNDARY MISC KINETIC TOTAL TEMP POTENTIAL TOTALAVG TEMPAVG PRESSURE GPRESSURE VOLUME PRESSAVG GPRESSAVG
ENERGY: 0 8.5996 3.4181 11.2169 0.0000 -10477.9330 1406.2424 0.0000 0.0000 1766.6838 -7281.7722 302.7020 -9048.4560 -7281.7722 302.7020 -353.5695 -264.3039 30796.5530 -353.5695 -264.3039
ENERGY: 300000 11.5177 3.0397 14.3733 0.0000 -10516.9723 1411.4301 0.0000 0.0000 1729.0318 -7347.5795 296.2507 -9076.6114 -7360.9091 297.3517 -92.2793 -22.8925 30088.0403 23.5585 95.0468
ENERGY: 600000 11.5816 5.8807 13.1505 0.0000 -10616.8145 1468.4548 0.0000 0.0000 1732.1398 -7385.6072 296.7833 -9117.7470 -7391.4601 296.9959 300.0777 323.3352 30291.9015 69.4321 121.2954
ENERGY: 900000 6.6404 7.3490 14.4917 0.0000 -10495.3150 1374.9689 0.0000 0.0000 1717.8856 -7373.9794 294.3409 -9091.8650 -7386.7073 297.3145 -358.0530 -289.7985 30053.6088 -103.3094 -46.2150
ENERGY: 1200000 10.4442 5.4278 15.9731 0.0000 -10483.5410 1468.6496 0.0000 0.0000 1689.1152 -7293.9311 289.4115 -8983.0463 -7375.2256 296.8005 706.4393 801.8748 30251.4072 41.5050 104.4071
ENERGY: 1500000 6.7506 8.4833 14.2411 0.0000 -10585.1221 1485.8583 0.0000 0.0000 1770.4855 -7299.3034 303.3534 -9069.7889 -7356.7969 298.4999 250.6752 319.5843 31065.2366 11.5656 76.9202
TCL: Running FEP window  14: Lambda1 0.34999999999999964 Lambda2 0.29999999999999966 [dLambda -0.04999999999999999]
TCL: Setting parameter firsttimestep to 0
TCL: Setting parameter alchLambda to 0.34999999999999964
Info: NONBONDED TABLE R-SQUARED SPACING: 0.0625
Info: NONBONDED TABLE SIZE: 705 POINTS
TCL: Setting parameter alchLambda2 to 0.29999999999999966
Info: NONBONDED TABLE R-SQUARED SPACING: 0.0625
Info: NONBONDED TABLE SIZE: 705 POINTS
TCL: Running for 1500000 steps
ETITLE: TS BOND ANGLE DIHED IMPRP ELECT VDW BOUNDARY MISC KINETIC TOTAL TEMP POTENTIAL TOTALAVG TEMPAVG PRESSURE GPRESSURE VOLUME PRESSAVG GPRESSAVG
ENERGY: 0 6.7506 8.4833 14.2411 0.0000 -10585.1225 1487.0540 0.0000 0.0000 1769.6388 -7298.9548 303.2083 -9068.5935 -7298.9548 303.2083 236.0166 318.8361 31065.2366 236.0166 318.8361
ENERGY: 300000 10.8618 4.7413 15.8431 0.0000 -10606.5525 1496.3632 0.0000 0.0000 1757.0470 -7321.6959 301.0508 -9078.7430 -7357.4136 300.3216 246.9906 298.1919 30437.1993 353.7227 418.8995
ENERGY: 600000 8.8064 3.8301 11.8281 0.0000 -10623.4086 1507.9230 0.0000 0.0000 1737.3321 -7353.6891 297.6729 -9091.0212 -7364.4814 300.4059 902.4980 963.0712 29854.4237 558.2284 634.2163
ENERGY: 900000 13.2616 3.3935 13.7124 0.0000 -10623.3478 1441.9718 0.0000 0.0000 1730.2492 -7420.7593 296.4593 -9151.0085 -7373.7518 299.7851 -182.8437 -121.4757 30130.5860 464.1022 531.1109
ENERGY: 1200000 6.8111 2.0825 13.1431 0.0000 -10554.2363 1441.5935 0.0000 0.0000 1782.0606 -7308.5455 305.3366 -9090.6062 -7364.6404 300.3856 -7.5749 25.4133 30617.2270 356.2924 419.2689
ENERGY: 1500000 8.6962 6.6200 12.5678 0.0000 -10529.6210 1391.0321 0.0000 0.0000 1748.0273 -7362.6777 299.5054 -9110.7050 -7365.4946 300.0111 -225.7137 -196.2078 30084.1656 390.1661 449.6884
TCL: Running FEP window  15: Lambda1 0.29999999999999966 Lambda2 0.24999999999999967 [dLambda -0.04999999999999999]
TCL: Setting parameter firsttimestep to 0
TCL: Setting parameter alchLambda to 0.29999999999999966
Info: NONBONDED TABLE R-SQUARED SPACING: 0.0625
Info: NONBONDED TABLE SIZE: 705 POINTS
TCL: Setting parameter alchLambda2 to 0.24999999999999967
Info: NONBONDED TABLE R-SQUARED SPACING: 0.0625
Info: NONBONDED TABLE SIZE: 705 POINTS
TCL: Running for 1500000 steps
ETITLE: TS BOND ANGLE DIHED IMPRP ELECT VDW BOUNDARY MISC KINETIC TOTAL TEMP POTENTIAL TOTALAVG TEMPAVG PRESSURE GPRESSURE VOLUME PRESSAVG GPRESSAVG
ENERGY: 0 8.6962 6.6200 12.5678 0.0000 -10529.6210 1391.3825 0.0000 0.0000 1747.1672 -7363.1872 299.3580 -9110.3545 -7363.1872 299.3580 -288.2121 -204.2181 30084.1656 -288.2121 -204.2181
ENERGY: 300000 3.6578 5.7919 17.0068 0.0000 -10563.2709 1414.7276 0.0000 0.0000 1750.8705 -7371.2163 299.9925 -9122.0868 -7356.2906 298.9460 -158.4417 -53.7718 30384.1087 -130.3987 -51.2530
ENERGY: 600000 4.9842 5.4513 13.6080 0.0000 -10568.7465 1407.7955 0.0000 0.0000 1725.9108 -7410.9967 295.7160 -9136.9075 -7378.4365 301.0060 -131.8935 -10.5974 29886.5474 -10.8348 76.6115
ENERGY: 900000 6.6695 6.3454 12.5953 0.0000 -10559.2197 1471.9325 0.0000 0.0000 1766.1003 -7295.5767 302.6020 -9061.6770 -7380.9143 299.6804 869.0980 829.9110 29761.0605 14.4288 82.7454
ENERGY: 1200000 7.3524 5.9729 11.8641 0.0000 -10438.2596 1325.6931 0.0000 0.0000 1762.7738 -7324.6034 302.0320 -9087.3772 -7368.4731 299.7044 -887.6856 -862.9996 30641.1299 -97.0162 -29.5280
ENERGY: 1500000 10.0662 4.6557 12.9879 0.0000 -10508.0015 1343.6246 0.0000 0.0000 1757.7278 -7378.9394 301.1675 -9136.6672 -7369.0104 299.7066 -771.4749 -679.1761 30161.0540 -251.2391 -187.7341
TCL: Running FEP window  16: Lambda1 0.24999999999999967 Lambda2 0.19999999999999968 [dLambda -0.04999999999999999]
TCL: Setting parameter firsttimestep to 0
TCL: Setting parameter alchLambda to 0.24999999999999967
Info: NONBONDED TABLE R-SQUARED SPACING: 0.0625
Info: NONBONDED TABLE SIZE: 705 POINTS
TCL: Setting parameter alchLambda2 to 0.19999999999999968
Info: NONBONDED TABLE R-SQUARED SPACING: 0.0625
Info: NONBONDED TABLE SIZE: 705 POINTS
TCL: Running for 1500000 steps
ETITLE: TS BOND ANGLE DIHED IMPRP ELECT VDW BOUNDARY MISC KINETIC TOTAL TEMP POTENTIAL TOTALAVG TEMPAVG PRESSURE GPRESSURE VOLUME PRESSAVG GPRESSAVG
ENERGY: 0 10.0662 4.6557 12.9879 0.0000 -10508.0013 1344.2245 0.0000 0.0000 1756.8686 -7379.1985 301.0202 -9136.0671 -7379.1985 301.0202 -764.9278 -687.0623 30161.0540 -764.9278 -687.0623
ENERGY: 300000 6.6626 3.9200 13.5511 0.0000 -10508.4529 1493.4951 0.0000 0.0000 1704.9247 -7285.8994 292.1202 -8990.8241 -7301.1501 303.0457 407.7342 434.2842 30906.8370 -55.9443 -11.8267
ENERGY: 600000 9.2436 5.1199 13.5574 0.0000 -10494.8303 1357.6141 0.0000 0.0000 1810.3658 -7298.9295 310.1864 -9109.2953 -7309.3089 304.9373 -729.3315 -612.0529 29863.0152 -201.9682 -135.4461
ENERGY: 900000 7.0847 3.2620 12.3133 0.0000 -10562.3627 1434.0744 0.0000 0.0000 1747.9954 -7357.6330 299.4999 -9105.6284 -7327.9918 303.8701 40.4424 76.5528 30219.9187 -157.5459 -98.5096
ENERGY: 1200000 7.7617 6.0153 19.1569 0.0000 -10467.7854 1354.9766 0.0000 0.0000 1770.2070 -7309.6679 303.3056 -9079.8749 -7342.6076 301.6639 -478.2383 -433.0680 30092.8293 -133.1554 -72.1869
ENERGY: 1500000 9.8811 4.3875 11.3947 0.0000 -10572.1334 1405.0165 0.0000 0.0000 1745.6215 -7395.8321 299.0932 -9141.4536 -7349.9913 301.1315 -424.3365 -382.7307 30217.4915 -173.8857 -118.1664
TCL: Running FEP window  17: Lambda1 0.19999999999999968 Lambda2 0.1499999999999997 [dLambda -0.04999999999999999]
TCL: Setting parameter firsttimestep to 0
TCL: Setting parameter alchLambda to 0.19999999999999968
Info: NONBONDED TABLE R-SQUARED SPACING: 0.0625
Info: NONBONDED TABLE SIZE: 705 POINTS
TCL: Setting parameter alchLambda2 to 0.1499999999999997
Info: NONBONDED TABLE R-SQUARED SPACING: 0.0625
Info: NONBONDED TABLE SIZE: 705 POINTS
TCL: Running for 1500000 steps
ETITLE: TS BOND ANGLE DIHED IMPRP ELECT VDW BOUNDARY MISC KINETIC TOTAL TEMP POTENTIAL TOTALAVG TEMPAVG PRESSURE GPRESSURE VOLUME PRESSAVG GPRESSAVG
ENERGY: 0 9.8811 4.3875 11.3947 0.0000 -10572.1335 1405.1686 0.0000 0.0000 1744.7416 -7396.5602 298.9424 -9141.3017 -7396.5602 298.9424 -478.3532 -394.0568 30217.4915 -478.3532 -394.0568
ENERGY: 300000 9.8444 4.8670 13.8334 0.0000 -10345.3721 1282.8921 0.0000 0.0000 1827.2135 -7206.7218 313.0731 -9033.9352 -7325.4618 302.5557 -1098.4618 -1067.2435 30312.7606 -336.3526 -278.6606
ENERGY: 600000 6.2805 7.9623 11.1991 0.0000 -10449.3524 1310.2872 0.0000 0.0000 1693.7601 -7419.8631 290.2073 -9113.6233 -7326.6862 301.0112 -1445.0768 -1348.0133 30847.0124 -331.1628 -267.4433
ENERGY: 900000 12.5059 4.7204 11.2459 0.0000 -10513.2973 1411.7139 0.0000 0.0000 1705.2975 -7367.8135 292.1841 -9073.1111 -7338.2436 299.1687 -199.3520 -72.8979 29963.4756 -338.9988 -271.5172
ENERGY: 1200000 4.6747 6.1944 13.1913 0.0000 -10639.3436 1498.3299 0.0000 0.0000 1750.6232 -7366.3302 299.9502 -9116.9533 -7337.3616 299.3904 568.9308 601.0083 30450.5261 -119.8667 -58.5387
ENERGY: 1500000 10.7232 4.2566 11.4828 0.0000 -10475.9859 1405.4629 0.0000 0.0000 1725.9521 -7318.1084 295.7230 -9044.0605 -7329.5274 298.9875 -454.2224 -274.3770 30707.9331 -90.6823 -20.2609
TCL: Running FEP window  18: Lambda1 0.1499999999999997 Lambda2 0.09999999999999969 [dLambda -0.05 ]
TCL: Setting parameter firsttimestep to 0
TCL: Setting parameter alchLambda to 0.1499999999999997
Info: NONBONDED TABLE R-SQUARED SPACING: 0.0625
Info: NONBONDED TABLE SIZE: 705 POINTS
TCL: Setting parameter alchLambda2 to 0.09999999999999969
Info: NONBONDED TABLE R-SQUARED SPACING: 0.0625
Info: NONBONDED TABLE SIZE: 705 POINTS
TCL: Running for 1500000 steps
ETITLE: TS BOND ANGLE DIHED IMPRP ELECT VDW BOUNDARY MISC KINETIC TOTAL TEMP POTENTIAL TOTALAVG TEMPAVG PRESSURE GPRESSURE VOLUME PRESSAVG GPRESSAVG
ENERGY: 0 10.7232 4.2566 11.4828 0.0000 -10475.9849 1405.4467 0.0000 0.0000 1725.0779 -7318.9978 295.5733 -9044.0757 -7318.9978 295.5733 -375.5384 -280.4004 30707.9331 -375.5384 -280.4004
ENERGY: 300000 9.4655 5.1212 11.9545 0.0000 -10518.2278 1444.3517 0.0000 0.0000 1745.6127 -7301.7222 299.0917 -9047.3349 -7297.7424 296.9408 475.4176 578.9334 30118.8751 46.9525 125.6139
ENERGY: 600000 9.0231 3.2412 12.6956 0.0000 -10466.1507 1379.6724 0.0000 0.0000 1744.7185 -7316.7999 298.9385 -9061.5184 -7320.1043 298.7978 -435.8810 -315.5820 30355.0515 43.4534 116.2734
ENERGY: 900000 5.7056 4.2513 11.1623 0.0000 -10609.7816 1419.4828 0.0000 0.0000 1797.7393 -7371.4402 308.0230 -9169.1796 -7343.5322 299.3577 -582.2492 -508.1804 30424.1596 -52.2741 7.6406
ENERGY: 1200000 7.4425 4.8950 13.4171 0.0000 -10505.2890 1375.1426 0.0000 0.0000 1786.8417 -7317.5501 306.1558 -9104.3918 -7346.8868 299.7907 -749.3621 -675.1531 30856.0389 -170.9206 -113.1190
ENERGY: 1500000 4.4822 5.7604 15.3938 0.0000 -10643.5995 1525.1209 0.0000 0.0000 1754.0739 -7338.7682 300.5414 -9092.8421 -7339.1192 300.6803 1017.7853 1105.3923 29691.3134 -65.0456 -4.9865
TCL: Running FEP window  19: Lambda1 0.09999999999999969 Lambda2 0.049999999999999684 [dLambda -0.05 ]
TCL: Setting parameter firsttimestep to 0
TCL: Setting parameter alchLambda to 0.09999999999999969
Info: NONBONDED TABLE R-SQUARED SPACING: 0.0625
Info: NONBONDED TABLE SIZE: 705 POINTS
TCL: Setting parameter alchLambda2 to 0.049999999999999684
Info: NONBONDED TABLE R-SQUARED SPACING: 0.0625
Info: NONBONDED TABLE SIZE: 705 POINTS
TCL: Running for 1500000 steps
ETITLE: TS BOND ANGLE DIHED IMPRP ELECT VDW BOUNDARY MISC KINETIC TOTAL TEMP POTENTIAL TOTALAVG TEMPAVG PRESSURE GPRESSURE VOLUME PRESSAVG GPRESSAVG
ENERGY: 0 4.4822 5.7604 15.3938 0.0000 -10643.5994 1525.6136 0.0000 0.0000 1753.1871 -7339.1622 300.3895 -9092.3494 -7339.1622 300.3895 1021.4972 1100.1402 29691.3134 1021.4972 1100.1402
ENERGY: 300000 7.2620 4.7724 13.1655 0.0000 -10512.6094 1376.7167 0.0000 0.0000 1800.5368 -7310.1560 308.5023 -9110.6927 -7398.7878 299.9448 -454.8419 -361.5208 30040.1798 231.7172 294.4902
ENERGY: 600000 6.6084 4.9080 10.0579 0.0000 -10487.0687 1378.8552 0.0000 0.0000 1782.8670 -7303.7721 305.4748 -9086.6391 -7384.7670 299.5823 -259.7434 -164.0067 29953.9273 159.3061 230.1502
ENERGY: 900000 10.5062 4.2806 12.3247 0.0000 -10512.1305 1431.5033 0.0000 0.0000 1722.7490 -7330.7667 295.1742 -9053.5157 -7363.7447 300.4789 36.8112 98.9188 30066.6059 90.9851 158.0710
ENERGY: 1200000 6.0380 3.0323 13.8337 0.0000 -10584.6276 1421.5448 0.0000 0.0000 1775.7244 -7364.4544 304.2510 -9140.1788 -7369.6220 300.0563 142.0460 180.2601 29776.4414 37.4624 103.7614
ENERGY: 1500000 5.7701 3.6358 12.5627 0.0000 -10403.8031 1320.1360 0.0000 0.0000 1765.1031 -7296.5953 302.4312 -9061.6984 -7362.1663 299.6305 -1008.7346 -918.4665 30384.7875 -34.0606 31.4669
TCL: Running FEP window  20: Lambda1 0.049999999999999684 Lambda2 0.0    [dLambda -0.049999999999999684]
TCL: Setting parameter firsttimestep to 0
TCL: Setting parameter alchLambda to 0.049999999999999684
Info: NONBONDED TABLE R-SQUARED SPACING: 0.0625
Info: NONBONDED TABLE SIZE: 705 POINTS
TCL: Setting parameter alchLambda2 to 0.0
Info: NONBONDED TABLE R-SQUARED SPACING: 0.0625
Info: NONBONDED TABLE SIZE: 705 POINTS
TCL: Running for 1500000 steps
ETITLE: TS BOND ANGLE DIHED IMPRP ELECT VDW BOUNDARY MISC KINETIC TOTAL TEMP POTENTIAL TOTALAVG TEMPAVG PRESSURE GPRESSURE VOLUME PRESSAVG GPRESSAVG
ENERGY: 0 5.7701 3.6358 12.5627 0.0000 -10403.8037 1317.0900 0.0000 0.0000 1764.2335 -7300.5116 302.2822 -9064.7452 -7300.5116 302.2822 -1008.0334 -936.2147 30384.7875 -1008.0334 -936.2147
ENERGY: 300000 4.7786 3.8570 10.9269 0.0000 -10535.0542 1463.5974 0.0000 0.0000 1800.9202 -7250.9741 308.5680 -9051.8943 -7367.9288 301.9305 455.3994 567.1875 29943.1146 -207.3097 -143.3209
ENERGY: 600000 7.7144 4.1754 11.4924 0.0000 -10610.6128 1474.1087 0.0000 0.0000 1753.1415 -7359.9804 300.3817 -9113.1219 -7349.6629 300.8579 284.4117 378.5379 29732.4437 -296.2976 -221.3097
ENERGY: 900000 9.1210 3.6328 14.0204 0.0000 -10590.3290 1497.3409 0.0000 0.0000 1774.1287 -7292.0850 303.9776 -9066.2138 -7352.6302 300.9937 782.4752 849.4403 30315.3214 -114.5548 -39.5196
ENERGY: 1200000 7.2890 5.3504 14.4064 0.0000 -10557.7453 1365.9208 0.0000 0.0000 1759.0171 -7405.7618 301.3884 -9164.7789 -7359.8282 300.3513 -698.6502 -615.4238 29694.6782 -148.4700 -74.9023
ENERGY: 1500000 9.5114 3.2528 13.3700 0.0000 -10631.4259 1387.6627 0.0000 0.0000 1719.5797 -7498.0492 294.6312 -9217.6289 -7368.8534 299.6010 -889.3106 -842.6849 29944.9342 -219.6818 -145.8775
TCL: Exiting due to exit command.
