Info: SIMULATION PARAMETERS:
Info: TIMESTEP               2
Info: NUMBER OF STEPS        0
Info: STEPS PER CYCLE        10
Info: PERIODIC CELL BASIS 1  31.6713 0 0
Info: PERIODIC CELL BASIS 2  0 30.0917 0
Info: PERIODIC CELL BASIS 3  0 0 31.944
Info: PERIODIC CELL CENTER   0 0 0
Info: WRAPPING WATERS AROUND PERIODIC BOUNDARIES ON OUTPUT.
Info: WRAPPING ALL CLUSTERS AROUND PERIODIC BOUNDARIES ON OUTPUT.
Info: FIRST LDB TIMESTEP     50
Info: LAST LDB TIMESTEP     -1
Info: HOM BACKGROUND SCALING 1
Info: PME BACKGROUND SCALING 1
Info: MIN ATOMS PER PATCH    40
Info: EMPTY PATCH LOAD       40 ATOMS
Info: VELOCITY FILE          mobley_5973402_equil.vel
Info: CENTER OF MASS MOVING INITIALLY? NO
Info: DIELECTRIC             1
Info: EXCLUDE                SCALED ONE-FOUR
Info: 1-4 ELECTROSTATICS SCALED BY 0.833333
Info: MODIFIED 1-4 VDW PARAMETERS WILL BE USED
Info: DCD FILENAME           mobley_5973402_prod.dcd
Info: DCD FREQUENCY          100000
Info: DCD FIRST STEP         100000
Info: DCD FILE WILL CONTAIN UNIT CELL DATA
Info: XST FILENAME           mobley_5973402_prod.xst
Info: XST FREQUENCY          100000
Info: NO VELOCITY DCD OUTPUT
Info: NO FORCE DCD OUTPUT
Info: OUTPUT FILENAME        mobley_5973402_prod
Info: BINARY OUTPUT FILES WILL BE USED
Info: RESTART FILENAME       mobley_5973402_prod.restart
Info: RESTART FREQUENCY      100000
Info: BINARY RESTART FILES WILL BE USED
Info: CUTOFF                 9
Info: PAIRLIST DISTANCE      11
Info: PAIRLIST SHRINK RATE   0.01
Info: PAIRLIST GROW RATE     0.01
Info: PAIRLIST TRIGGER       0.3
Info: PAIRLISTS PER CYCLE    2
Info: PAIRLISTS ENABLED
Info: MARGIN                 2
Info: HYDROGEN GROUP CUTOFF  2.5
Info: PATCH DIMENSION        15.5
Info: ENERGY OUTPUT STEPS    100000
Info: ENERGY EVALUATION STEPS    100000
Info: OUTPUT ENERGY PRECISION 4
Info: CROSSTERM ENERGY INCLUDED IN DIHEDRAL
Info: TIMING OUTPUT STEPS    1000000
Info: PRESSURE OUTPUT STEPS  100000
Info: ALCHEMICAL FEP ON
Info: FEP CURRENT LAMBDA VALUE     1
Info: FEP COMPARISON LAMBDA VALUE  0.95
Info: FEP INTRA-ALCHEMICAL NON-BONDED INTERACTIONS WILL BE RETAINED
Info: FEP INTRA-ALCHEMICAL BONDED INTERACTIONS WILL BE RETAINED
Info: FEP VDW SHIFTING COEFFICIENT 5
Info: FEP ELEC. ACTIVE FOR ANNIHILATED PARTICLES BETWEEN LAMBDA = 0 AND LAMBDA = 0.5
Info: FEP ELEC. ACTIVE FOR EXNIHILATED PARTICLES BETWEEN LAMBDA = 0.5 AND LAMBDA = 1
Info: FEP VDW ACTIVE FOR ANNIHILATED PARTICLES BETWEEN LAMBDA = 0 AND LAMBDA = 1
Info: FEP VDW ACTIVE FOR EXNIHILATED PARTICLES BETWEEN LAMBDA = 0 AND LAMBDA = 1
Info: FEP BOND ACTIVE FOR ANNIHILATED PARTICLES BETWEEN LAMBDA = 1 AND LAMBDA = 1
Info: FEP BOND ACTIVE FOR EXNIHILATED PARTICLES BETWEEN LAMBDA = 0 AND LAMBDA = 0
Info: LANGEVIN DYNAMICS ACTIVE
Info: LANGEVIN TEMPERATURE   300
Info: LANGEVIN USING BBK INTEGRATOR
Info: LANGEVIN DAMPING COEFFICIENT IS 1 INVERSE PS
Info: LANGEVIN DYNAMICS APPLIED TO HYDROGENS
Info: LANGEVIN PISTON PRESSURE CONTROL ACTIVE
Info:        TARGET PRESSURE IS 1.01325 BAR
Info:     OSCILLATION PERIOD IS 50 FS
Info:             DECAY TIME IS 25 FS
Info:     PISTON TEMPERATURE IS 300 K
Info:       PRESSURE CONTROL IS GROUP-BASED
Info:    INITIAL STRAIN RATE IS 8.66698e-05 8.66698e-05 8.66698e-05
Info:       CELL FLUCTUATION IS ISOTROPIC
Info: PARTICLE MESH EWALD (PME) ACTIVE
Info: PME TOLERANCE               1e-06
Info: PME EWALD COEFFICIENT       0.348832
Info: PME INTERPOLATION ORDER     4
Info: PME GRID DIMENSIONS         32 32 32
Info: PME MAXIMUM GRID SPACING    1
Info: PME CALCULATION WILL BE PERFORMED ON GPU
Info: FULL ELECTROSTATIC EVALUATION FREQUENCY      2
Info: USING VERLET I (r-RESPA) MTS SCHEME.
Info: C1 SPLITTING OF LONG RANGE ELECTROSTATICS
Info: PLACING ATOMS IN PATCHES BY HYDROGEN GROUPS
Info: RIGID BONDS TO HYDROGEN : ALL
Info:         ERROR TOLERANCE : 1e-08
Info:          MAX ITERATIONS : 100
Info: RIGID WATER USING SETTLE ALGORITHM
Info: RANDOM NUMBER SEED     1743853340
Info: USE HYDROGEN BONDS?    NO
Info: Using AMBER format force field!
Info: AMBER PARM FILE        mobley_5973402.prmtop
Info: COORDINATE PDB         mobley_5973402.pdb
Info: Exclusions will be read from PARM file!
Info: SCNB (VDW SCALING)     2
Info: USING ARITHMETIC MEAN TO COMBINE L-J SIGMA PARAMETERS
Info: BINARY COORDINATES     mobley_5973402_equil.coor
Info: SUMMARY OF PARAMETERS:
Info: 7 BONDS
Info: 8 ANGLES
Info:   8 HARMONIC
Info:   0 COSINE-BASED
Info: 9 DIHEDRAL
Info: 0 IMPROPER
Info: 0 CROSSTERM
Info: 0 VDW
Info: 21 VDW_PAIRS
Info: 0 NBTHOLE_PAIRS
Info: To read alchdata from file: mobley_5973402.pdb
Info: To read alchflag data from column: 5
Info: STRUCTURE SUMMARY:
Info: 2955 ATOMS
Info: 2954 BONDS
Info: 31 ANGLES
Info: 46 DIHEDRALS
Info: 0 IMPROPERS
Info: 0 CROSSTERMS
Info: 3024 EXCLUSIONS
Info: 2949 RIGID BONDS
Info: ALCH: 0 ATOMS TO DISAPPEAR IN FINAL STATE
Info: ALCH: 18 ATOMS TO APPEAR IN FINAL STATE
Info: 5916 DEGREES OF FREEDOM
Info: 985 HYDROGEN GROUPS
Info: 4 ATOMS IN LARGEST HYDROGEN GROUP
Info: 985 MIGRATION GROUPS
Info: 4 ATOMS IN LARGEST MIGRATION GROUP
Info: TOTAL MASS = 17725.8 amu
Info: TOTAL CHARGE = -9.99942e-05 e
Info: MASS DENSITY = 0.966857 g/cm^3
Info: ATOM DENSITY = 0.0970631 atoms/A^3
Info: ADDED 0 IMPLICIT EXCLUSIONS
Info: NONBONDED TABLE R-SQUARED SPACING: 0.0625
Info: NONBONDED TABLE SIZE: 705 POINTS
Info: REMOVING COM VELOCITY 0.044125 0.0344608 0.0631092
Info: Use 3D box decompostion in PME FFT.
Info: Updated CUDA force table with 4096 elements.
Info: Updated CUDA LJ table with 6 x 6 elements.
Info: Found 21 unique exclusion lists needing 56 bytes
TCL: Running for 1500000 steps
ETITLE: TS BOND ANGLE DIHED IMPRP ELECT VDW BOUNDARY MISC KINETIC TOTAL TEMP POTENTIAL TOTALAVG TEMPAVG PRESSURE GPRESSURE VOLUME PRESSAVG GPRESSAVG
ENERGY: 0 1.0365 11.2755 3.4581 0.0000 -10751.6954 1428.4818 0.0000 0.0000 1774.0807 -7533.3628 301.8114 -9307.4435 -7533.3628 301.8114 -236.0385 -141.6288 30444.1055 -236.0385 -141.6288
ENERGY: 300000 2.7517 12.5714 3.1220 0.0000 -10729.8207 1451.2452 0.0000 0.0000 1757.8577 -7502.2726 299.0515 -9260.1303 -7497.5544 300.8753 62.8105 125.4668 30282.7936 -4.7453 53.8874
ENERGY: 600000 2.1941 14.9280 2.3849 0.0000 -10736.2743 1434.7718 0.0000 0.0000 1729.7447 -7552.2508 294.2688 -9281.9955 -7488.9717 300.8594 -260.3857 -239.1179 30302.1811 -1.5836 65.6429
ENERGY: 900000 0.5129 7.1870 3.6724 0.0000 -10745.0362 1437.6025 0.0000 0.0000 1775.5714 -7520.4901 302.0650 -9296.0615 -7484.9154 301.7938 150.9292 169.4723 29928.3785 29.3463 93.6338
ENERGY: 1200000 1.9166 7.0379 4.2621 0.0000 -10751.2702 1478.9046 0.0000 0.0000 1764.8074 -7494.3416 300.2338 -9259.1490 -7482.7714 301.8486 288.7166 359.4576 30165.3358 -30.1624 23.3521
ENERGY: 1500000 1.2590 14.2805 2.7094 0.0000 -10607.8368 1355.6746 0.0000 0.0000 1727.1630 -7506.7503 293.8296 -9233.9132 -7496.1154 300.3749 -731.1215 -617.0724 30585.9192 -108.1758 -55.8788
TCL: Running FEP window   2: Lambda1 0.95   Lambda2 0.8999999999999999 [dLambda -0.050000000000000044]
TCL: Setting parameter firsttimestep to 0
TCL: Setting parameter alchLambda to 0.95
Info: NONBONDED TABLE R-SQUARED SPACING: 0.0625
Info: NONBONDED TABLE SIZE: 705 POINTS
TCL: Setting parameter alchLambda2 to 0.8999999999999999
Info: NONBONDED TABLE R-SQUARED SPACING: 0.0625
Info: NONBONDED TABLE SIZE: 705 POINTS
TCL: Running for 1500000 steps
ETITLE: TS BOND ANGLE DIHED IMPRP ELECT VDW BOUNDARY MISC KINETIC TOTAL TEMP POTENTIAL TOTALAVG TEMPAVG PRESSURE GPRESSURE VOLUME PRESSAVG GPRESSAVG
ENERGY: 0 1.2590 14.2805 2.7094 0.0000 -10606.3677 1354.6357 0.0000 0.0000 1726.2989 -7507.1841 293.6826 -9233.4830 -7507.1841 293.6826 -730.1765 -639.8480 30585.9192 -730.1765 -639.8480
ENERGY: 300000 3.0306 7.8197 2.0290 0.0000 -10692.0508 1390.1363 0.0000 0.0000 1739.2460 -7549.7893 295.8852 -9289.0353 -7519.5870 298.5770 -310.9688 -267.7568 30056.6546 -451.1090 -391.0362
ENERGY: 600000 2.5591 8.8471 3.7978 0.0000 -10619.1952 1395.2582 0.0000 0.0000 1766.0154 -7442.7175 300.4393 -9208.7330 -7509.2672 298.1886 -296.3776 -301.0385 30602.2139 -251.0076 -191.1942
ENERGY: 900000 2.6423 10.8625 2.3581 0.0000 -10685.9352 1379.7184 0.0000 0.0000 1728.7393 -7561.6146 294.0978 -9290.3539 -7502.8397 298.3024 -700.4792 -552.5823 30346.0490 -233.4736 -156.8837
ENERGY: 1200000 1.3767 7.8918 4.6704 0.0000 -10689.8104 1476.7381 0.0000 0.0000 1770.5390 -7428.5945 301.2088 -9199.1335 -7504.0060 297.3277 475.0072 488.4174 30456.7677 -126.1745 -58.4902
ENERGY: 1500000 0.7211 5.3849 3.0727 0.0000 -10726.2412 1432.3281 0.0000 0.0000 1770.6635 -7514.0710 301.2300 -9284.7345 -7508.7566 297.4812 -180.6970 -94.9427 30434.5069 -49.7259 17.4586
TCL: Running FEP window   3: Lambda1 0.8999999999999999 Lambda2 0.8499999999999999 [dLambda -0.050000000000000044]
TCL: Setting parameter firsttimestep to 0
TCL: Setting parameter alchLambda to 0.8999999999999999
Info: NONBONDED TABLE R-SQUARED SPACING: 0.0625
Info: NONBONDED TABLE SIZE: 705 POINTS
TCL: Setting parameter alchLambda2 to 0.8499999999999999
Info: NONBONDED TABLE R-SQUARED SPACING: 0.0625
Info: NONBONDED TABLE SIZE: 705 POINTS
TCL: Running for 1500000 steps
ETITLE: TS BOND ANGLE DIHED IMPRP ELECT VDW BOUNDARY MISC KINETIC TOTAL TEMP POTENTIAL TOTALAVG TEMPAVG PRESSURE GPRESSURE VOLUME PRESSAVG GPRESSAVG
ENERGY: 0 0.7211 5.3849 3.0727 0.0000 -10724.3920 1431.4460 0.0000 0.0000 1769.7399 -7514.0275 301.0729 -9283.7674 -7514.0275 301.0729 -185.2885 -108.5672 30434.5069 -185.2885 -108.5672
ENERGY: 300000 0.9895 8.7765 3.4450 0.0000 -10677.6826 1416.6927 0.0000 0.0000 1743.2542 -7504.5248 296.5671 -9247.7789 -7513.0928 302.2675 -335.1979 -245.2139 30592.5556 -508.0207 -430.7615
ENERGY: 600000 0.8178 8.8426 2.4140 0.0000 -10653.2168 1424.5761 0.0000 0.0000 1726.8852 -7489.6811 293.7823 -9216.5663 -7519.5414 298.7217 128.3104 172.7064 30340.3803 -207.2126 -133.0642
ENERGY: 900000 2.7224 5.0816 3.0947 0.0000 -10734.4086 1437.0329 0.0000 0.0000 1731.8953 -7554.5818 294.6347 -9286.4771 -7529.7335 298.4584 -259.3903 -198.7769 30766.1490 -155.4889 -82.7554
ENERGY: 1200000 0.7626 6.6950 2.8405 0.0000 -10631.0698 1395.3946 0.0000 0.0000 1746.3966 -7478.9804 297.1017 -9225.3770 -7507.1568 299.6264 -92.3604 -115.8836 30343.8564 -188.9944 -116.6092
ENERGY: 1500000 1.2954 5.7826 3.4770 0.0000 -10647.2403 1461.2538 0.0000 0.0000 1758.9867 -7416.4448 299.2435 -9175.4315 -7488.5846 300.5359 434.8193 523.6821 30365.3321 -214.7568 -147.2204
TCL: Running FEP window   4: Lambda1 0.8499999999999999 Lambda2 0.7999999999999998 [dLambda -0.050000000000000044]
TCL: Setting parameter firsttimestep to 0
TCL: Setting parameter alchLambda to 0.8499999999999999
Info: NONBONDED TABLE R-SQUARED SPACING: 0.0625
Info: NONBONDED TABLE SIZE: 705 POINTS
TCL: Setting parameter alchLambda2 to 0.7999999999999998
Info: NONBONDED TABLE R-SQUARED SPACING: 0.0625
Info: NONBONDED TABLE SIZE: 705 POINTS
TCL: Running for 1500000 steps
ETITLE: TS BOND ANGLE DIHED IMPRP ELECT VDW BOUNDARY MISC KINETIC TOTAL TEMP POTENTIAL TOTALAVG TEMPAVG PRESSURE GPRESSURE VOLUME PRESSAVG GPRESSAVG
ENERGY: 0 1.2954 5.7826 3.4770 0.0000 -10646.0409 1460.6455 0.0000 0.0000 1758.1094 -7416.7310 299.0943 -9174.8404 -7416.7310 299.0943 419.2692 504.6892 30365.3321 419.2692 504.6892
ENERGY: 300000 5.6946 9.1918 2.6927 0.0000 -10523.4056 1264.3019 0.0000 0.0000 1734.7680 -7506.7566 295.1234 -9241.5246 -7496.6485 296.9769 -1550.8348 -1455.0828 30586.4132 -360.8989 -278.7977
ENERGY: 600000 0.8972 7.4349 3.4384 0.0000 -10651.2999 1439.6164 0.0000 0.0000 1734.9031 -7465.0099 295.1464 -9199.9130 -7506.4275 296.2762 -489.8385 -399.9999 31500.5507 -453.8425 -379.0430
ENERGY: 900000 1.2403 9.7854 3.0806 0.0000 -10736.3623 1401.1517 0.0000 0.0000 1742.0716 -7579.0328 296.3659 -9321.1044 -7512.4265 297.0369 -560.5023 -544.6183 30612.9091 -503.7270 -439.3139
ENERGY: 1200000 1.3717 8.8374 3.1542 0.0000 -10676.0020 1399.5603 0.0000 0.0000 1735.4051 -7527.6735 295.2318 -9263.0785 -7510.6424 296.6856 -495.8188 -430.2394 30571.4687 -462.4053 -394.3308
ENERGY: 1500000 1.3209 6.9984 2.3350 0.0000 -10683.8879 1364.6302 0.0000 0.0000 1745.1919 -7563.4115 296.8967 -9308.6034 -7514.4549 296.1747 -814.0393 -771.7036 30495.5211 -492.4503 -426.6132
TCL: Running FEP window   5: Lambda1 0.7999999999999998 Lambda2 0.7499999999999998 [dLambda -0.050000000000000044]
TCL: Setting parameter firsttimestep to 0
TCL: Setting parameter alchLambda to 0.7999999999999998
Info: NONBONDED TABLE R-SQUARED SPACING: 0.0625
Info: NONBONDED TABLE SIZE: 705 POINTS
TCL: Setting parameter alchLambda2 to 0.7499999999999998
Info: NONBONDED TABLE R-SQUARED SPACING: 0.0625
Info: NONBONDED TABLE SIZE: 705 POINTS
TCL: Running for 1500000 steps
ETITLE: TS BOND ANGLE DIHED IMPRP ELECT VDW BOUNDARY MISC KINETIC TOTAL TEMP POTENTIAL TOTALAVG TEMPAVG PRESSURE GPRESSURE VOLUME PRESSAVG GPRESSAVG
ENERGY: 0 1.3209 6.9984 2.3350 0.0000 -10682.0958 1363.4860 0.0000 0.0000 1744.3227 -7563.6328 296.7489 -9307.9555 -7563.6328 296.7489 -884.7833 -790.9566 30495.5211 -884.7833 -790.9566
ENERGY: 300000 0.5709 6.1978 5.0125 0.0000 -10681.3576 1470.3448 0.0000 0.0000 1828.9985 -7370.2330 311.1541 -9199.2316 -7477.1469 302.5810 389.1086 382.8596 30620.5151 129.9203 177.3463
ENERGY: 600000 0.6215 4.5933 2.0188 0.0000 -10889.2089 1582.5315 0.0000 0.0000 1742.6090 -7556.8348 296.4573 -9299.4438 -7487.5701 300.7920 1000.4823 1118.4314 30281.9089 287.9718 341.4328
ENERGY: 900000 2.9049 7.0644 1.6005 0.0000 -10646.9643 1405.0740 0.0000 0.0000 1770.5520 -7459.7685 301.2111 -9230.3205 -7475.9121 302.0705 -237.6381 -183.2739 30518.7997 155.7580 213.8747
ENERGY: 1200000 3.6415 7.3375 2.6311 0.0000 -10718.7336 1493.8607 0.0000 0.0000 1734.9210 -7476.3418 295.1494 -9211.2629 -7467.4427 302.3405 522.8330 594.3880 30587.3067 149.7482 211.9996
ENERGY: 1500000 1.5937 10.9167 3.0648 0.0000 -10618.0079 1434.3836 0.0000 0.0000 1702.7940 -7465.2551 289.6839 -9168.0491 -7460.4055 301.9027 169.7318 192.0569 30236.7297 133.8385 201.3528
TCL: Running FEP window   6: Lambda1 0.7499999999999998 Lambda2 0.6999999999999997 [dLambda -0.050000000000000044]
TCL: Setting parameter firsttimestep to 0
TCL: Setting parameter alchLambda to 0.7499999999999998
Info: NONBONDED TABLE R-SQUARED SPACING: 0.0625
Info: NONBONDED TABLE SIZE: 705 POINTS
TCL: Setting parameter alchLambda2 to 0.6999999999999997
Info: NONBONDED TABLE R-SQUARED SPACING: 0.0625
Info: NONBONDED TABLE SIZE: 705 POINTS
TCL: Running for 1500000 steps
ETITLE: TS BOND ANGLE DIHED IMPRP ELECT VDW BOUNDARY MISC KINETIC TOTAL TEMP POTENTIAL TOTALAVG TEMPAVG PRESSURE GPRESSURE VOLUME PRESSAVG GPRESSAVG
ENERGY: 0 1.5937 10.9167 3.0648 0.0000 -10617.6382 1434.9639 0.0000 0.0000 1701.9224 -7465.1767 289.5356 -9167.0991 -7465.1767 289.5356 112.9498 190.6788 30236.7297 112.9498 190.6788
ENERGY: 300000 1.1414 5.8159 3.4995 0.0000 -10644.7927 1389.0574 0.0000 0.0000 1766.3249 -7478.9536 300.4919 -9245.2785 -7451.8830 296.1780 -389.5658 -369.5286 30522.5487 -279.2034 -213.7775
ENERGY: 600000 3.1983 8.1695 3.2035 0.0000 -10657.8514 1423.2801 0.0000 0.0000 1774.1622 -7445.8378 301.8252 -9220.0000 -7459.0208 298.7989 -35.1937 62.3920 30210.5920 -70.0593 -3.4175
ENERGY: 900000 2.4197 7.2157 3.1116 0.0000 -10768.1409 1494.5146 0.0000 0.0000 1818.3348 -7442.5445 309.3400 -9260.8792 -7442.1156 302.1924 424.6994 552.1261 30199.0575 84.7835 156.9819
ENERGY: 1200000 1.5889 6.4605 2.6819 0.0000 -10682.9654 1381.6292 0.0000 0.0000 1753.5640 -7537.0408 298.3210 -9290.6048 -7457.0090 301.8792 -310.3273 -233.8489 29885.7202 105.5613 178.0871
ENERGY: 1500000 0.5906 12.1476 2.0816 0.0000 -10811.1858 1485.7177 0.0000 0.0000 1799.1707 -7511.4776 306.0797 -9310.6483 -7463.6283 302.1500 177.6957 281.1480 30497.5576 84.8272 158.7224
TCL: Running FEP window   7: Lambda1 0.6999999999999997 Lambda2 0.6499999999999997 [dLambda -0.050000000000000044]
TCL: Setting parameter firsttimestep to 0
TCL: Setting parameter alchLambda to 0.6999999999999997
Info: NONBONDED TABLE R-SQUARED SPACING: 0.0625
Info: NONBONDED TABLE SIZE: 705 POINTS
TCL: Setting parameter alchLambda2 to 0.6499999999999997
Info: NONBONDED TABLE R-SQUARED SPACING: 0.0625
Info: NONBONDED TABLE SIZE: 705 POINTS
TCL: Running for 1500000 steps
ETITLE: TS BOND ANGLE DIHED IMPRP ELECT VDW BOUNDARY MISC KINETIC TOTAL TEMP POTENTIAL TOTALAVG TEMPAVG PRESSURE GPRESSURE VOLUME PRESSAVG GPRESSAVG
ENERGY: 0 0.5906 12.1476 2.0816 0.0000 -10810.5102 1485.6367 0.0000 0.0000 1798.2617 -7511.7922 305.9251 -9310.0539 -7511.7922 305.9251 194.8881 269.5675 30497.5576 194.8881 269.5675
ENERGY: 300000 1.3125 7.6284 3.0865 0.0000 -10819.2247 1465.2367 0.0000 0.0000 1788.8921 -7553.0684 304.3311 -9341.9605 -7558.3380 300.5302 250.9617 269.7430 29648.7606 265.0435 319.9852
ENERGY: 600000 1.3400 9.9151 3.2490 0.0000 -10634.8544 1381.1950 0.0000 0.0000 1717.1682 -7521.9869 292.1293 -9239.1551 -7509.6193 301.7403 -458.1736 -342.5233 30428.3905 162.6825 222.6840
ENERGY: 900000 2.5797 10.7387 3.1434 0.0000 -10687.4819 1435.0842 0.0000 0.0000 1807.1379 -7428.7980 307.4351 -9235.9359 -7487.9562 301.7418 5.0552 21.2288 30460.1649 61.3744 111.1349
ENERGY: 1200000 1.0128 6.4113 3.0544 0.0000 -10858.5505 1535.5938 0.0000 0.0000 1781.2239 -7531.2544 303.0266 -9312.4783 -7490.0389 302.3415 655.9751 699.4095 30346.8317 65.8252 123.1857
ENERGY: 1500000 0.3683 4.7243 1.4297 0.0000 -10900.2030 1519.1538 0.0000 0.0000 1752.0073 -7622.5196 298.0562 -9374.5269 -7485.8969 301.5555 385.8408 465.2174 29940.9768 172.0106 231.1145
TCL: Running FEP window   8: Lambda1 0.6499999999999997 Lambda2 0.5999999999999996 [dLambda -0.050000000000000044]
TCL: Setting parameter firsttimestep to 0
TCL: Setting parameter alchLambda to 0.6499999999999997
Info: NONBONDED TABLE R-SQUARED SPACING: 0.0625
Info: NONBONDED TABLE SIZE: 705 POINTS
TCL: Setting parameter alchLambda2 to 0.5999999999999996
Info: NONBONDED TABLE R-SQUARED SPACING: 0.0625
Info: NONBONDED TABLE SIZE: 705 POINTS
TCL: Running for 1500000 steps
ETITLE: TS BOND ANGLE DIHED IMPRP ELECT VDW BOUNDARY MISC KINETIC TOTAL TEMP POTENTIAL TOTALAVG TEMPAVG PRESSURE GPRESSURE VOLUME PRESSAVG GPRESSAVG
ENERGY: 0 0.3683 4.7243 1.4297 0.0000 -10898.8866 1519.2777 0.0000 0.0000 1751.1144 -7621.9723 297.9043 -9373.0867 -7621.9723 297.9043 369.0373 461.3608 29940.9768 369.0373 461.3608
ENERGY: 300000 2.5740 5.1929 2.3204 0.0000 -10685.2888 1469.5481 0.0000 0.0000 1765.7376 -7439.9159 300.3920 -9205.6534 -7543.1570 296.5480 325.5098 309.7143 30328.2544 19.6856 79.9738
ENERGY: 600000 4.6280 12.8051 3.2558 0.0000 -10749.4432 1459.9628 0.0000 0.0000 1725.8360 -7542.9554 293.6039 -9268.7914 -7526.4670 297.0981 125.5079 179.3136 30014.0424 19.5127 84.0279
ENERGY: 900000 1.3947 10.0873 3.9702 0.0000 -10762.6736 1471.1194 0.0000 0.0000 1761.7585 -7514.3434 299.7151 -9276.1020 -7509.2063 298.6789 247.8971 297.6358 30209.3089 63.1789 116.6660
ENERGY: 1200000 1.1959 8.4928 4.8559 0.0000 -10688.3515 1416.4737 0.0000 0.0000 1791.3976 -7465.9355 304.7574 -9257.3332 -7502.3656 298.9283 -334.9088 -207.6370 30591.1960 -12.3616 47.8738
ENERGY: 1500000 1.3036 5.7277 2.3886 0.0000 -10536.2937 1297.1915 0.0000 0.0000 1727.1181 -7502.5642 293.8220 -9229.6823 -7496.6246 298.7458 -1173.1581 -1080.8453 30668.7291 -129.4624 -69.6530
TCL: Running FEP window   9: Lambda1 0.5999999999999996 Lambda2 0.5499999999999996 [dLambda -0.050000000000000044]
TCL: Setting parameter firsttimestep to 0
TCL: Setting parameter alchLambda to 0.5999999999999996
Info: NONBONDED TABLE R-SQUARED SPACING: 0.0625
Info: NONBONDED TABLE SIZE: 705 POINTS
TCL: Setting parameter alchLambda2 to 0.5499999999999996
Info: NONBONDED TABLE R-SQUARED SPACING: 0.0625
Info: NONBONDED TABLE SIZE: 705 POINTS
TCL: Running for 1500000 steps
ETITLE: TS BOND ANGLE DIHED IMPRP ELECT VDW BOUNDARY MISC KINETIC TOTAL TEMP POTENTIAL TOTALAVG TEMPAVG PRESSURE GPRESSURE VOLUME PRESSAVG GPRESSAVG
ENERGY: 0 1.3036 5.7277 2.3886 0.0000 -10535.8577 1297.7577 0.0000 0.0000 1726.2581 -7502.4220 293.6757 -9228.6801 -7502.4220 293.6757 -1171.8545 -1084.1282 30668.7291 -1171.8545 -1084.1282
ENERGY: 300000 0.8535 5.2324 2.7356 0.0000 -10739.5380 1429.2099 0.0000 0.0000 1720.8953 -7580.6114 292.7633 -9301.5067 -7528.4933 293.9114 -221.0109 -226.2557 30525.0822 -411.0962 -354.2896
ENERGY: 600000 3.0541 10.2272 2.8348 0.0000 -10724.1400 1424.7942 0.0000 0.0000 1797.4710 -7485.7588 305.7906 -9283.2297 -7499.7231 297.0343 -554.1140 -471.5967 30899.8689 -403.6312 -335.2334
ENERGY: 900000 4.1028 8.8338 2.9015 0.0000 -10707.8442 1464.0775 0.0000 0.0000 1775.0425 -7452.8860 301.9750 -9227.9286 -7498.9164 297.7437 215.0268 232.1872 30395.0683 -256.8391 -195.1668
ENERGY: 1200000 0.3918 7.5414 4.1431 0.0000 -10756.0023 1477.0039 0.0000 0.0000 1756.7902 -7510.1320 298.8699 -9266.9222 -7496.3129 298.4539 328.9037 457.2897 30055.7292 -198.7281 -130.5774
ENERGY: 1500000 0.8564 9.8148 2.9720 0.0000 -10769.7337 1482.3410 0.0000 0.0000 1789.9727 -7483.7769 304.5150 -9273.7496 -7495.6869 298.3993 413.4669 464.5202 30183.2211 -165.7255 -99.5381
TCL: Running FEP window  10: Lambda1 0.5499999999999996 Lambda2 0.4999999999999996 [dLambda -0.04999999999999999]
TCL: Setting parameter firsttimestep to 0
TCL: Setting parameter alchLambda to 0.5499999999999996
Info: NONBONDED TABLE R-SQUARED SPACING: 0.0625
Info: NONBONDED TABLE SIZE: 705 POINTS
TCL: Setting parameter alchLambda2 to 0.4999999999999996
Info: NONBONDED TABLE R-SQUARED SPACING: 0.0625
Info: NONBONDED TABLE SIZE: 705 POINTS
TCL: Running for 1500000 steps
ETITLE: TS BOND ANGLE DIHED IMPRP ELECT VDW BOUNDARY MISC KINETIC TOTAL TEMP POTENTIAL TOTALAVG TEMPAVG PRESSURE GPRESSURE VOLUME PRESSAVG GPRESSAVG
ENERGY: 0 0.8564 9.8148 2.9720 0.0000 -10769.7925 1482.9178 0.0000 0.0000 1789.0752 -7484.1564 304.3623 -9273.2316 -7484.1564 304.3623 387.0514 462.4670 30183.2211 387.0514 462.4670
ENERGY: 300000 1.8342 7.9014 4.1907 0.0000 -10665.2255 1413.7399 0.0000 0.0000 1819.9762 -7417.5832 309.6192 -9237.5593 -7458.3200 304.7378 -78.5842 -72.8184 30531.1840 162.7179 218.3298
ENERGY: 600000 1.7692 7.7425 3.1661 0.0000 -10759.5452 1449.4869 0.0000 0.0000 1705.8256 -7591.5550 290.1996 -9297.3806 -7461.5100 303.1522 -12.8288 29.9589 30192.9029 46.8908 110.5788
ENERGY: 900000 0.6985 7.9926 2.5414 0.0000 -10859.7138 1542.0098 0.0000 0.0000 1805.1918 -7501.2796 307.1041 -9306.4714 -7462.9626 303.8381 885.1875 906.9825 30045.0071 128.4432 191.5086
ENERGY: 1200000 2.7174 9.6024 4.7124 0.0000 -10616.4490 1411.1481 0.0000 0.0000 1766.5364 -7421.7323 300.5279 -9188.2687 -7466.5907 303.2128 -168.5234 -27.5451 30193.3371 125.9004 187.3217
ENERGY: 1500000 0.9435 7.0713 3.2469 0.0000 -10741.2916 1454.6952 0.0000 0.0000 1845.6503 -7429.6843 313.9870 -9275.3346 -7469.4427 303.2247 151.9095 215.3611 30274.4244 124.6551 185.5103
TCL: Running FEP window  11: Lambda1 0.4999999999999996 Lambda2 0.4499999999999996 [dLambda -0.04999999999999999]
TCL: Setting parameter firsttimestep to 0
TCL: Setting parameter alchLambda to 0.4999999999999996
Info: NONBONDED TABLE R-SQUARED SPACING: 0.0625
Info: NONBONDED TABLE SIZE: 705 POINTS
TCL: Setting parameter alchLambda2 to 0.4499999999999996
Info: NONBONDED TABLE R-SQUARED SPACING: 0.0625
Info: NONBONDED TABLE SIZE: 705 POINTS
TCL: Running for 1500000 steps
ETITLE: TS BOND ANGLE DIHED IMPRP ELECT VDW BOUNDARY MISC KINETIC TOTAL TEMP POTENTIAL TOTALAVG TEMPAVG PRESSURE GPRESSURE VOLUME PRESSAVG GPRESSAVG
ENERGY: 0 0.9435 7.0713 3.2469 0.0000 -10741.0736 1454.8120 0.0000 0.0000 1844.7925 -7430.2074 313.8410 -9274.9999 -7430.2074 313.8410 118.8998 209.2839 30274.4244 118.8998 209.2839
ENERGY: 300000 0.6162 8.0689 3.5175 0.0000 -10567.6180 1369.7911 0.0000 0.0000 1764.0104 -7421.6138 300.0982 -9185.6243 -7431.0414 304.3138 -505.1222 -476.2923 30711.1456 -214.0376 -152.2807
ENERGY: 600000 1.2936 7.8870 3.2333 0.0000 -10464.2701 1291.0080 0.0000 0.0000 1789.0697 -7371.7786 304.3613 -9160.8483 -7439.7782 302.1816 -1160.3633 -946.4459 30406.1848 -428.9452 -357.7690
ENERGY: 900000 1.4638 11.4463 4.3593 0.0000 -10696.3955 1425.5989 0.0000 0.0000 1748.8830 -7504.6441 297.5247 -9253.5272 -7454.1571 300.4688 -296.7821 -181.3134 30459.7466 -390.9266 -322.1649
ENERGY: 1200000 1.7310 8.3488 3.3964 0.0000 -10689.4015 1471.0944 0.0000 0.0000 1784.9530 -7419.8779 303.6610 -9204.8309 -7459.5385 300.8210 199.1383 327.3050 30714.4841 -297.1075 -234.3853
ENERGY: 1500000 0.2713 7.7067 3.3967 0.0000 -10860.2913 1524.3380 0.0000 0.0000 1762.5037 -7562.0748 299.8418 -9324.5785 -7467.2979 300.8546 674.7429 771.6694 29954.2813 -201.4519 -141.5688
TCL: Running FEP window  12: Lambda1 0.4499999999999996 Lambda2 0.39999999999999963 [dLambda -0.04999999999999999]
TCL: Setting parameter firsttimestep to 0
TCL: Setting parameter alchLambda to 0.4499999999999996
Info: NONBONDED TABLE R-SQUARED SPACING: 0.0625
Info: NONBONDED TABLE SIZE: 705 POINTS
TCL: Setting parameter alchLambda2 to 0.39999999999999963
Info: NONBONDED TABLE R-SQUARED SPACING: 0.0625
Info: NONBONDED TABLE SIZE: 705 POINTS
TCL: Running for 1500000 steps
ETITLE: TS BOND ANGLE DIHED IMPRP ELECT VDW BOUNDARY MISC KINETIC TOTAL TEMP POTENTIAL TOTALAVG TEMPAVG PRESSURE GPRESSURE VOLUME PRESSAVG GPRESSAVG
ENERGY: 0 0.2713 7.7067 3.3967 0.0000 -10860.2903 1524.3871 0.0000 0.0000 1761.6151 -7562.9133 299.6907 -9324.5284 -7562.9133 299.6907 686.6171 764.8598 29954.2813 686.6171 764.8598
ENERGY: 300000 0.6296 5.7664 2.7924 0.0000 -10744.9334 1417.3452 0.0000 0.0000 1838.5684 -7479.8314 312.7822 -9318.3999 -7505.6639 302.0949 -496.1287 -488.6000 30569.3934 -35.1990 15.3635
ENERGY: 600000 0.9476 9.5090 6.1725 0.0000 -10690.4897 1399.3023 0.0000 0.0000 1799.8156 -7474.7428 306.1894 -9274.5583 -7486.4959 301.9098 -250.4573 -203.0243 30148.2937 -267.3375 -207.6440
ENERGY: 900000 1.7038 10.0943 3.2770 0.0000 -10760.1387 1478.2636 0.0000 0.0000 1759.8730 -7506.9270 299.3943 -9266.8000 -7496.5811 302.0856 204.3644 225.8176 30107.2957 -174.6486 -118.0708
ENERGY: 1200000 3.3983 9.0010 1.8951 0.0000 -10732.1129 1469.2380 0.0000 0.0000 1811.5588 -7437.0216 308.1872 -9248.5804 -7487.0009 303.2784 358.2506 476.4174 29808.5038 -109.2977 -50.5178
ENERGY: 1500000 0.8395 8.3265 2.8719 0.0000 -10855.5317 1516.0659 0.0000 0.0000 1723.6717 -7603.7562 293.2356 -9327.4279 -7490.2906 302.2469 528.3597 558.1629 30049.0125 -55.4535 2.7028
TCL: Running FEP window  13: Lambda1 0.39999999999999963 Lambda2 0.34999999999999964 [dLambda -0.04999999999999999]
TCL: Setting parameter firsttimestep to 0
TCL: Setting parameter alchLambda to 0.39999999999999963
Info: NONBONDED TABLE R-SQUARED SPACING: 0.0625
Info: NONBONDED TABLE SIZE: 705 POINTS
TCL: Setting parameter alchLambda2 to 0.34999999999999964
Info: NONBONDED TABLE R-SQUARED SPACING: 0.0625
Info: NONBONDED TABLE SIZE: 705 POINTS
TCL: Running for 1500000 steps
ETITLE: TS BOND ANGLE DIHED IMPRP ELECT VDW BOUNDARY MISC KINETIC TOTAL TEMP POTENTIAL TOTALAVG TEMPAVG PRESSURE GPRESSURE VOLUME PRESSAVG GPRESSAVG
ENERGY: 0 0.8395 8.3265 2.8719 0.0000 -10855.5315 1516.1642 0.0000 0.0000 1722.8038 -7604.5256 293.0880 -9327.3294 -7604.5256 293.0880 458.3873 554.7318 30049.0125 458.3873 554.7318
ENERGY: 300000 1.3157 7.5765 3.6505 0.0000 -10718.2955 1453.9773 0.0000 0.0000 1783.7725 -7468.0029 303.4602 -9251.7754 -7542.5803 296.0820 63.0657 106.4193 30255.5311 -171.9058 -114.9739
ENERGY: 600000 1.0560 11.9252 2.1693 0.0000 -10659.4592 1416.8926 0.0000 0.0000 1765.8930 -7461.5231 300.4184 -9227.4161 -7509.6080 298.1283 96.9030 142.1343 30036.5612 -82.8916 -15.1308
ENERGY: 900000 1.7903 7.2728 3.3449 0.0000 -10624.4987 1414.6633 0.0000 0.0000 1790.8847 -7406.5427 304.6701 -9197.4274 -7496.5639 298.3229 -381.0752 -325.1029 31066.7185 -69.7561 -0.9548
ENERGY: 1200000 1.9245 8.0724 3.2919 0.0000 -10610.3558 1398.0023 0.0000 0.0000 1740.3904 -7458.6744 296.0799 -9199.0647 -7493.2880 298.6386 -212.7031 -199.6295 30359.9330 -67.9976 -7.3170
ENERGY: 1500000 1.5910 5.0700 5.1097 0.0000 -10788.8436 1477.4843 0.0000 0.0000 1813.6447 -7485.9439 308.5421 -9299.5886 -7490.2390 299.7359 253.5884 353.2308 29924.4948 -31.1965 33.9671
TCL: Running FEP window  14: Lambda1 0.34999999999999964 Lambda2 0.29999999999999966 [dLambda -0.04999999999999999]
TCL: Setting parameter firsttimestep to 0
TCL: Setting parameter alchLambda to 0.34999999999999964
Info: NONBONDED TABLE R-SQUARED SPACING: 0.0625
Info: NONBONDED TABLE SIZE: 705 POINTS
TCL: Setting parameter alchLambda2 to 0.29999999999999966
Info: NONBONDED TABLE R-SQUARED SPACING: 0.0625
Info: NONBONDED TABLE SIZE: 705 POINTS
TCL: Running for 1500000 steps
ETITLE: TS BOND ANGLE DIHED IMPRP ELECT VDW BOUNDARY MISC KINETIC TOTAL TEMP POTENTIAL TOTALAVG TEMPAVG PRESSURE GPRESSURE VOLUME PRESSAVG GPRESSAVG
ENERGY: 0 1.5910 5.0700 5.1097 0.0000 -10788.8446 1476.7121 0.0000 0.0000 1812.7499 -7487.6119 308.3899 -9300.3617 -7487.6119 308.3899 243.6982 341.4497 29924.4948 243.6982 341.4497
ENERGY: 300000 1.3957 8.8235 3.2919 0.0000 -10673.1605 1439.3616 0.0000 0.0000 1826.6657 -7393.6222 310.7573 -9220.2879 -7423.9313 305.9321 191.9420 227.3730 30175.9884 -74.3510 6.2368
ENERGY: 600000 1.2824 5.2325 2.3735 0.0000 -10738.7132 1437.9158 0.0000 0.0000 1751.4732 -7540.4357 297.9653 -9291.9089 -7471.7253 302.1265 -242.3614 -131.4243 30190.6109 -335.2934 -249.1502
ENERGY: 900000 1.1901 10.7142 4.5930 0.0000 -10696.8148 1502.7031 0.0000 0.0000 1721.3004 -7456.3140 292.8322 -9177.6144 -7473.0777 300.2483 453.3970 497.0212 30607.1077 -211.2104 -144.8893
ENERGY: 1200000 0.6508 9.9131 4.4613 0.0000 -10708.7272 1488.7168 0.0000 0.0000 1761.7182 -7443.2669 299.7082 -9204.9851 -7462.5130 300.5997 288.4462 376.4359 30610.0454 -99.4554 -35.2029
ENERGY: 1500000 0.8803 9.4234 3.1657 0.0000 -10545.3627 1316.6447 0.0000 0.0000 1830.0078 -7385.2407 311.3258 -9215.2486 -7464.9378 301.1675 -877.6932 -843.3215 30776.3556 -153.6729 -89.3859
TCL: Running FEP window  15: Lambda1 0.29999999999999966 Lambda2 0.24999999999999967 [dLambda -0.04999999999999999]
TCL: Setting parameter firsttimestep to 0
TCL: Setting parameter alchLambda to 0.29999999999999966
Info: NONBONDED TABLE R-SQUARED SPACING: 0.0625
Info: NONBONDED TABLE SIZE: 705 POINTS
TCL: Setting parameter alchLambda2 to 0.24999999999999967
Info: NONBONDED TABLE R-SQUARED SPACING: 0.0625
Info: NONBONDED TABLE SIZE: 705 POINTS
TCL: Running for 1500000 steps
ETITLE: TS BOND ANGLE DIHED IMPRP ELECT VDW BOUNDARY MISC KINETIC TOTAL TEMP POTENTIAL TOTALAVG TEMPAVG PRESSURE GPRESSURE VOLUME PRESSAVG GPRESSAVG
ENERGY: 0 0.8803 9.4234 3.1657 0.0000 -10545.3626 1316.8651 0.0000 0.0000 1829.0986 -7385.9294 311.1712 -9215.0280 -7385.9294 311.1712 -912.7664 -847.2662 30776.3556 -912.7664 -847.2662
ENERGY: 300000 1.3945 10.8360 3.1812 0.0000 -10669.8098 1476.9712 0.0000 0.0000 1728.8194 -7448.6074 294.1114 -9177.4268 -7412.4041 305.7441 331.9029 437.8215 30604.3712 93.2357 163.2849
ENERGY: 600000 1.3293 4.9308 4.8262 0.0000 -10751.2026 1425.1404 0.0000 0.0000 1720.3122 -7594.6637 292.6641 -9314.9760 -7440.8590 303.5024 -309.0932 -193.7001 30025.7939 -130.5578 -54.4204
ENERGY: 900000 1.1412 6.7985 3.4550 0.0000 -10735.3779 1486.1123 0.0000 0.0000 1805.2189 -7432.6521 307.1087 -9237.8709 -7438.3995 304.4139 353.0146 456.7700 30361.4300 -60.3257 25.2882
ENERGY: 1200000 2.0580 9.3733 2.9428 0.0000 -10595.8325 1439.4208 0.0000 0.0000 1754.2936 -7387.7441 298.4451 -9142.0377 -7436.0955 304.6012 -71.9668 33.5100 30708.4073 -115.5215 -30.0765
ENERGY: 1500000 2.4736 8.7833 2.4417 0.0000 -10651.5270 1400.3875 0.0000 0.0000 1743.3670 -7494.0739 296.5863 -9237.4409 -7441.7800 303.6225 -176.1755 -71.8383 30029.7989 -149.4597 -61.2778
TCL: Running FEP window  16: Lambda1 0.24999999999999967 Lambda2 0.19999999999999968 [dLambda -0.04999999999999999]
TCL: Setting parameter firsttimestep to 0
TCL: Setting parameter alchLambda to 0.24999999999999967
Info: NONBONDED TABLE R-SQUARED SPACING: 0.0625
Info: NONBONDED TABLE SIZE: 705 POINTS
TCL: Setting parameter alchLambda2 to 0.19999999999999968
Info: NONBONDED TABLE R-SQUARED SPACING: 0.0625
Info: NONBONDED TABLE SIZE: 705 POINTS
TCL: Running for 1500000 steps
ETITLE: TS BOND ANGLE DIHED IMPRP ELECT VDW BOUNDARY MISC KINETIC TOTAL TEMP POTENTIAL TOTALAVG TEMPAVG PRESSURE GPRESSURE VOLUME PRESSAVG GPRESSAVG
ENERGY: 0 2.4736 8.7833 2.4417 0.0000 -10651.5281 1400.6813 0.0000 0.0000 1742.4944 -7494.6538 296.4378 -9237.1482 -7494.6538 296.4378 -162.7916 -75.6300 30029.7989 -162.7916 -75.6300
ENERGY: 300000 4.6948 7.6621 2.7095 0.0000 -10616.8737 1396.5621 0.0000 0.0000 1716.3982 -7488.8470 291.9983 -9205.2453 -7493.3902 297.5911 -220.7829 -119.0077 30039.9416 -163.8951 -94.0544
ENERGY: 600000 2.1387 3.6168 2.8912 0.0000 -10655.1895 1416.6757 0.0000 0.0000 1781.7527 -7448.1145 303.1165 -9229.8671 -7440.8749 300.7766 -8.9326 12.4392 29824.9072 -72.9821 -4.8537
ENERGY: 900000 0.9571 4.5469 1.5922 0.0000 -10641.3172 1386.1989 0.0000 0.0000 1767.5915 -7480.4306 300.7074 -9248.0221 -7433.2226 302.0062 -548.3194 -471.8678 30504.2406 -123.9021 -55.1920
ENERGY: 1200000 3.8685 9.3149 2.2835 0.0000 -10679.2202 1401.3762 0.0000 0.0000 1716.9670 -7545.4102 292.0950 -9262.3772 -7450.3144 300.5915 -501.1375 -432.0263 30408.1169 -107.5553 -41.1329
ENERGY: 1500000 1.5600 7.6118 3.2001 0.0000 -10714.0523 1441.6795 0.0000 0.0000 1770.2872 -7489.7137 301.1660 -9260.0009 -7453.9578 301.1523 -60.3891 55.1783 30215.1539 -64.4537 3.7088
TCL: Running FEP window  17: Lambda1 0.19999999999999968 Lambda2 0.1499999999999997 [dLambda -0.04999999999999999]
TCL: Setting parameter firsttimestep to 0
TCL: Setting parameter alchLambda to 0.19999999999999968
Info: NONBONDED TABLE R-SQUARED SPACING: 0.0625
Info: NONBONDED TABLE SIZE: 705 POINTS
TCL: Setting parameter alchLambda2 to 0.1499999999999997
Info: NONBONDED TABLE R-SQUARED SPACING: 0.0625
Info: NONBONDED TABLE SIZE: 705 POINTS
TCL: Running for 1500000 steps
ETITLE: TS BOND ANGLE DIHED IMPRP ELECT VDW BOUNDARY MISC KINETIC TOTAL TEMP POTENTIAL TOTALAVG TEMPAVG PRESSURE GPRESSURE VOLUME PRESSAVG GPRESSAVG
ENERGY: 0 1.5600 7.6119 3.2001 0.0000 -10714.0529 1441.5735 0.0000 0.0000 1769.4433 -7490.6641 301.0224 -9260.1074 -7490.6641 301.0224 -37.5617 50.3269 30215.1539 -37.5617 50.3269
ENERGY: 300000 4.1451 6.5107 2.2508 0.0000 -10671.1809 1414.0480 0.0000 0.0000 1797.9339 -7446.2924 305.8693 -9244.2264 -7470.1064 300.8973 -93.9407 17.3598 30034.5464 215.9085 303.6145
ENERGY: 600000 3.1784 5.7711 4.1476 0.0000 -10651.9292 1395.6978 0.0000 0.0000 1806.2997 -7436.8348 307.2925 -9243.1345 -7472.3423 302.0297 -414.1826 -385.7827 30396.8755 94.1371 160.5545
ENERGY: 900000 1.0497 6.0235 3.8107 0.0000 -10675.4877 1424.0200 0.0000 0.0000 1765.0511 -7475.5327 300.2752 -9240.5838 -7464.2788 302.5676 -229.4780 -111.5553 30443.3664 -64.8892 1.5417
ENERGY: 1200000 1.6277 4.4686 2.4866 0.0000 -10790.9385 1514.8892 0.0000 0.0000 1755.4815 -7511.9849 298.6472 -9267.4664 -7470.0970 302.7703 232.2361 303.6825 30599.1683 -33.2973 30.9633
ENERGY: 1500000 3.9271 7.6310 3.2753 0.0000 -10737.4760 1415.4005 0.0000 0.0000 1774.9668 -7532.2752 301.9621 -9307.2420 -7463.2489 303.3953 -53.2141 -99.3526 29846.4255 -50.2687 7.3887
TCL: Running FEP window  18: Lambda1 0.1499999999999997 Lambda2 0.09999999999999969 [dLambda -0.05 ]
TCL: Setting parameter firsttimestep to 0
TCL: Setting parameter alchLambda to 0.1499999999999997
Info: NONBONDED TABLE R-SQUARED SPACING: 0.0625
Info: NONBONDED TABLE SIZE: 705 POINTS
TCL: Setting parameter alchLambda2 to 0.09999999999999969
Info: NONBONDED TABLE R-SQUARED SPACING: 0.0625
Info: NONBONDED TABLE SIZE: 705 POINTS
TCL: Running for 1500000 steps
ETITLE: TS BOND ANGLE DIHED IMPRP ELECT VDW BOUNDARY MISC KINETIC TOTAL TEMP POTENTIAL TOTALAVG TEMPAVG PRESSURE GPRESSURE VOLUME PRESSAVG GPRESSAVG
ENERGY: 0 3.9271 7.6310 3.2753 0.0000 -10737.4765 1415.2809 0.0000 0.0000 1774.0612 -7533.3009 301.8081 -9307.3621 -7533.3009 301.8081 -181.1131 -100.8871 29846.4255 -181.1131 -100.8871
ENERGY: 300000 1.2149 8.3358 2.4372 0.0000 -10791.9588 1509.5525 0.0000 0.0000 1744.8725 -7525.5459 296.8424 -9270.4184 -7518.0446 300.3013 617.7105 633.0587 29951.8729 145.6654 170.5503
ENERGY: 600000 2.4362 5.2568 3.7106 0.0000 -10614.0226 1350.0946 0.0000 0.0000 1720.3713 -7532.1530 292.6742 -9252.5244 -7494.6466 300.5220 -743.8653 -695.2861 30341.7630 -15.3442 31.3278
ENERGY: 900000 3.3975 10.1262 2.1047 0.0000 -10772.7581 1472.0466 0.0000 0.0000 1768.5506 -7516.5326 300.8706 -9285.0831 -7495.5731 300.8272 -367.8797 -264.6039 30677.3804 -72.9631 -20.7314
ENERGY: 1200000 1.7449 5.7006 3.1544 0.0000 -10572.9751 1400.3264 0.0000 0.0000 1777.6604 -7384.3884 302.4204 -9162.0488 -7485.5668 300.8270 -138.5021 -89.1632 30531.2937 -173.7603 -119.2891
ENERGY: 1500000 7.6569 4.8903 4.0592 0.0000 -10683.0843 1436.3674 0.0000 0.0000 1818.5808 -7411.5298 309.3818 -9230.1105 -7473.9775 302.3626 136.1062 202.8711 29947.2349 -79.4046 -21.5476
TCL: Running FEP window  19: Lambda1 0.09999999999999969 Lambda2 0.049999999999999684 [dLambda -0.05 ]
TCL: Setting parameter firsttimestep to 0
TCL: Setting parameter alchLambda to 0.09999999999999969
Info: NONBONDED TABLE R-SQUARED SPACING: 0.0625
Info: NONBONDED TABLE SIZE: 705 POINTS
TCL: Setting parameter alchLambda2 to 0.049999999999999684
Info: NONBONDED TABLE R-SQUARED SPACING: 0.0625
Info: NONBONDED TABLE SIZE: 705 POINTS
TCL: Running for 1500000 steps
ETITLE: TS BOND ANGLE DIHED IMPRP ELECT VDW BOUNDARY MISC KINETIC TOTAL TEMP POTENTIAL TOTALAVG TEMPAVG PRESSURE GPRESSURE VOLUME PRESSAVG GPRESSAVG
ENERGY: 0 7.6569 4.8903 4.0592 0.0000 -10683.0859 1436.2050 0.0000 0.0000 1817.6659 -7412.6086 309.2262 -9230.2744 -7412.6086 309.2262 110.2390 203.0212 29947.2349 110.2390 203.0212
ENERGY: 300000 2.8435 10.6921 2.4790 0.0000 -10776.7925 1483.5747 0.0000 0.0000 1698.7236 -7578.4795 288.9914 -9277.2031 -7482.8975 301.8389 105.5915 153.5522 30224.2587 -79.0372 -8.4625
ENERGY: 600000 2.2819 4.1320 3.8521 0.0000 -10594.2123 1321.4423 0.0000 0.0000 1819.4860 -7443.0180 309.5358 -9262.5040 -7488.1207 302.2179 -932.4272 -857.2682 30162.3170 -179.3998 -102.5854
ENERGY: 900000 1.6162 8.0665 5.2675 0.0000 -10806.8337 1511.3637 0.0000 0.0000 1799.9099 -7480.6099 306.2055 -9280.5198 -7466.2306 303.3807 472.5402 529.6033 30179.2733 -81.0180 -8.3953
ENERGY: 1200000 3.5841 8.3131 3.8587 0.0000 -10602.0364 1416.9102 0.0000 0.0000 1783.7390 -7385.6311 303.4545 -9169.3702 -7462.2289 302.6697 -400.6346 -296.9501 30825.4904 -83.2294 -7.1879
ENERGY: 1500000 0.8995 13.1930 2.5979 0.0000 -10639.1504 1442.9182 0.0000 0.0000 1726.6642 -7452.8775 293.7447 -9179.5418 -7465.1626 302.0489 54.4167 138.8265 30349.9461 -111.4409 -33.6960
TCL: Running FEP window  20: Lambda1 0.049999999999999684 Lambda2 0.0    [dLambda -0.049999999999999684]
TCL: Setting parameter firsttimestep to 0
TCL: Setting parameter alchLambda to 0.049999999999999684
Info: NONBONDED TABLE R-SQUARED SPACING: 0.0625
Info: NONBONDED TABLE SIZE: 705 POINTS
TCL: Setting parameter alchLambda2 to 0.0
Info: NONBONDED TABLE R-SQUARED SPACING: 0.0625
Info: NONBONDED TABLE SIZE: 705 POINTS
TCL: Running for 1500000 steps
ETITLE: TS BOND ANGLE DIHED IMPRP ELECT VDW BOUNDARY MISC KINETIC TOTAL TEMP POTENTIAL TOTALAVG TEMPAVG PRESSURE GPRESSURE VOLUME PRESSAVG GPRESSAVG
ENERGY: 0 0.8995 13.1930 2.5979 0.0000 -10639.1508 1443.0243 0.0000 0.0000 1725.7593 -7453.6767 293.5908 -9179.4360 -7453.6767 293.5908 53.1487 135.9483 30349.9461 53.1487 135.9483
ENERGY: 300000 2.1259 9.6103 3.2926 0.0000 -10742.8892 1493.2600 0.0000 0.0000 1729.8211 -7504.7792 294.2818 -9234.6003 -7510.2253 296.4107 411.8254 474.0089 30124.1248 364.7857 425.8821
ENERGY: 600000 2.2130 8.0639 3.6483 0.0000 -10615.0543 1395.2084 0.0000 0.0000 1776.9692 -7428.9515 302.3028 -9205.9207 -7482.4188 297.5894 -233.9452 -174.4366 30009.3063 216.9366 270.3020
ENERGY: 900000 2.6689 7.5191 2.0845 0.0000 -10603.9091 1414.0910 0.0000 0.0000 1743.8232 -7433.7224 296.6639 -9177.5456 -7467.2375 298.8977 -147.0296 -157.0117 30504.2889 154.9526 211.5621
ENERGY: 1200000 5.2418 6.3587 4.7482 0.0000 -10729.8046 1451.3076 0.0000 0.0000 1768.5231 -7493.6252 300.8659 -9262.1483 -7462.3886 300.0702 -368.3106 -316.3717 30632.4881 105.5086 159.7139
ENERGY: 1500000 0.2116 9.6539 2.1246 0.0000 -10724.8458 1510.6256 0.0000 0.0000 1834.8132 -7367.4169 312.1433 -9202.2301 -7462.2437 300.5022 525.6643 627.5937 30608.9850 90.6676 145.8706
TCL: Exiting due to exit command.
