Info: SIMULATION PARAMETERS:
Info: TIMESTEP               2
Info: NUMBER OF STEPS        0
Info: STEPS PER CYCLE        10
Info: PERIODIC CELL BASIS 1  30.4419 0 0
Info: PERIODIC CELL BASIS 2  0 29.8501 0
Info: PERIODIC CELL BASIS 3  0 0 33.3289
Info: PERIODIC CELL CENTER   0 0 0
Info: WRAPPING WATERS AROUND PERIODIC BOUNDARIES ON OUTPUT.
Info: WRAPPING ALL CLUSTERS AROUND PERIODIC BOUNDARIES ON OUTPUT.
Info: FIRST LDB TIMESTEP     50
Info: LAST LDB TIMESTEP     -1
Info: HOM BACKGROUND SCALING 1
Info: PME BACKGROUND SCALING 1
Info: MIN ATOMS PER PATCH    40
Info: EMPTY PATCH LOAD       40 ATOMS
Info: VELOCITY FILE          mobley_7497999_equil.vel
Info: CENTER OF MASS MOVING INITIALLY? NO
Info: DIELECTRIC             1
Info: EXCLUDE                SCALED ONE-FOUR
Info: 1-4 ELECTROSTATICS SCALED BY 0.833333
Info: MODIFIED 1-4 VDW PARAMETERS WILL BE USED
Info: DCD FILENAME           mobley_7497999_prod.dcd
Info: DCD FREQUENCY          100000
Info: DCD FIRST STEP         100000
Info: DCD FILE WILL CONTAIN UNIT CELL DATA
Info: XST FILENAME           mobley_7497999_prod.xst
Info: XST FREQUENCY          100000
Info: NO VELOCITY DCD OUTPUT
Info: NO FORCE DCD OUTPUT
Info: OUTPUT FILENAME        mobley_7497999_prod
Info: BINARY OUTPUT FILES WILL BE USED
Info: RESTART FILENAME       mobley_7497999_prod.restart
Info: RESTART FREQUENCY      100000
Info: BINARY RESTART FILES WILL BE USED
Info: CUTOFF                 9
Info: PAIRLIST DISTANCE      11
Info: PAIRLIST SHRINK RATE   0.01
Info: PAIRLIST GROW RATE     0.01
Info: PAIRLIST TRIGGER       0.3
Info: PAIRLISTS PER CYCLE    2
Info: PAIRLISTS ENABLED
Info: MARGIN                 2
Info: HYDROGEN GROUP CUTOFF  2.5
Info: PATCH DIMENSION        15.5
Info: ENERGY OUTPUT STEPS    100000
Info: ENERGY EVALUATION STEPS    100000
Info: OUTPUT ENERGY PRECISION 4
Info: CROSSTERM ENERGY INCLUDED IN DIHEDRAL
Info: TIMING OUTPUT STEPS    1000000
Info: PRESSURE OUTPUT STEPS  100000
Info: ALCHEMICAL FEP ON
Info: FEP CURRENT LAMBDA VALUE     1
Info: FEP COMPARISON LAMBDA VALUE  0.95
Info: FEP INTRA-ALCHEMICAL NON-BONDED INTERACTIONS WILL BE RETAINED
Info: FEP INTRA-ALCHEMICAL BONDED INTERACTIONS WILL BE RETAINED
Info: FEP VDW SHIFTING COEFFICIENT 5
Info: FEP ELEC. ACTIVE FOR ANNIHILATED PARTICLES BETWEEN LAMBDA = 0 AND LAMBDA = 0.5
Info: FEP ELEC. ACTIVE FOR EXNIHILATED PARTICLES BETWEEN LAMBDA = 0.5 AND LAMBDA = 1
Info: FEP VDW ACTIVE FOR ANNIHILATED PARTICLES BETWEEN LAMBDA = 0 AND LAMBDA = 1
Info: FEP VDW ACTIVE FOR EXNIHILATED PARTICLES BETWEEN LAMBDA = 0 AND LAMBDA = 1
Info: FEP BOND ACTIVE FOR ANNIHILATED PARTICLES BETWEEN LAMBDA = 1 AND LAMBDA = 1
Info: FEP BOND ACTIVE FOR EXNIHILATED PARTICLES BETWEEN LAMBDA = 0 AND LAMBDA = 0
Info: LANGEVIN DYNAMICS ACTIVE
Info: LANGEVIN TEMPERATURE   300
Info: LANGEVIN USING BBK INTEGRATOR
Info: LANGEVIN DAMPING COEFFICIENT IS 1 INVERSE PS
Info: LANGEVIN DYNAMICS APPLIED TO HYDROGENS
Info: LANGEVIN PISTON PRESSURE CONTROL ACTIVE
Info:        TARGET PRESSURE IS 1.01325 BAR
Info:     OSCILLATION PERIOD IS 50 FS
Info:             DECAY TIME IS 25 FS
Info:     PISTON TEMPERATURE IS 300 K
Info:       PRESSURE CONTROL IS GROUP-BASED
Info:    INITIAL STRAIN RATE IS -0.000362459 -0.000362459 -0.000362459
Info:       CELL FLUCTUATION IS ISOTROPIC
Info: PARTICLE MESH EWALD (PME) ACTIVE
Info: PME TOLERANCE               1e-06
Info: PME EWALD COEFFICIENT       0.348832
Info: PME INTERPOLATION ORDER     4
Info: PME GRID DIMENSIONS         32 32 36
Info: PME MAXIMUM GRID SPACING    1
Info: PME CALCULATION WILL BE PERFORMED ON GPU
Info: FULL ELECTROSTATIC EVALUATION FREQUENCY      2
Info: USING VERLET I (r-RESPA) MTS SCHEME.
Info: C1 SPLITTING OF LONG RANGE ELECTROSTATICS
Info: PLACING ATOMS IN PATCHES BY HYDROGEN GROUPS
Info: RIGID BONDS TO HYDROGEN : ALL
Info:         ERROR TOLERANCE : 1e-08
Info:          MAX ITERATIONS : 100
Info: RIGID WATER USING SETTLE ALGORITHM
Info: RANDOM NUMBER SEED     1743776584
Info: USE HYDROGEN BONDS?    NO
Info: Using AMBER format force field!
Info: AMBER PARM FILE        mobley_7497999.prmtop
Info: COORDINATE PDB         mobley_7497999.pdb
Info: Exclusions will be read from PARM file!
Info: SCNB (VDW SCALING)     2
Info: USING ARITHMETIC MEAN TO COMBINE L-J SIGMA PARAMETERS
Info: BINARY COORDINATES     mobley_7497999_equil.coor
Info: SUMMARY OF PARAMETERS:
Info: 8 BONDS
Info: 8 ANGLES
Info:   8 HARMONIC
Info:   0 COSINE-BASED
Info: 8 DIHEDRAL
Info: 0 IMPROPER
Info: 0 CROSSTERM
Info: 0 VDW
Info: 28 VDW_PAIRS
Info: 0 NBTHOLE_PAIRS
Info: To read alchdata from file: mobley_7497999.pdb
Info: To read alchflag data from column: 5
Info: STRUCTURE SUMMARY:
Info: 2945 ATOMS
Info: 2945 BONDS
Info: 27 ANGLES
Info: 47 DIHEDRALS
Info: 0 IMPROPERS
Info: 0 CROSSTERMS
Info: 3003 EXCLUSIONS
Info: 2936 RIGID BONDS
Info: ALCH: 0 ATOMS TO DISAPPEAR IN FINAL STATE
Info: ALCH: 17 ATOMS TO APPEAR IN FINAL STATE
Info: 5899 DEGREES OF FREEDOM
Info: 985 HYDROGEN GROUPS
Info: 4 ATOMS IN LARGEST HYDROGEN GROUP
Info: 985 MIGRATION GROUPS
Info: 4 ATOMS IN LARGEST MIGRATION GROUP
Info: TOTAL MASS = 17703.8 amu
Info: TOTAL CHARGE = 9.99868e-05 e
Info: MASS DENSITY = 0.970701 g/cm^3
Info: ATOM DENSITY = 0.0972402 atoms/A^3
Info: ADDED 0 IMPLICIT EXCLUSIONS
Info: NONBONDED TABLE R-SQUARED SPACING: 0.0625
Info: NONBONDED TABLE SIZE: 705 POINTS
Info: REMOVING COM VELOCITY -0.0266961 0.167199 -0.230581
Info: Use 3D box decompostion in PME FFT.
Info: Updated CUDA force table with 4096 elements.
Info: Updated CUDA LJ table with 7 x 7 elements.
Info: Found 16 unique exclusion lists needing 36 bytes
TCL: Running for 1500000 steps
ETITLE: TS BOND ANGLE DIHED IMPRP ELECT VDW BOUNDARY MISC KINETIC TOTAL TEMP POTENTIAL TOTALAVG TEMPAVG PRESSURE GPRESSURE VOLUME PRESSAVG GPRESSAVG
ENERGY: 0 2.5895 5.6093 5.4163 0.0000 -10623.9550 1387.5115 0.0000 0.0000 1774.8491 -7447.9793 302.8122 -9222.8284 -7447.9793 302.8122 -422.3918 -338.6302 30285.8184 -422.3918 -338.6302
ENERGY: 300000 1.4120 5.5465 4.2208 0.0000 -10604.7179 1390.6397 0.0000 0.0000 1777.6084 -7425.2905 303.2830 -9202.8989 -7467.9736 301.9885 -222.3891 -172.7493 30284.2108 -257.1790 -200.1230
ENERGY: 600000 4.0373 5.6418 7.2522 0.0000 -10608.1448 1360.5418 0.0000 0.0000 1790.4749 -7440.1968 305.4782 -9230.6717 -7457.3682 302.8399 -618.8979 -496.4931 30399.5402 -232.5576 -163.4902
ENERGY: 900000 2.1639 5.8361 7.4870 0.0000 -10704.2761 1490.1590 0.0000 0.0000 1736.2069 -7462.4232 296.2194 -9198.6301 -7456.3343 302.6015 687.0389 777.6383 30090.5292 -93.0350 -17.0308
ENERGY: 1200000 3.1174 6.3505 8.3281 0.0000 -10646.1884 1443.8894 0.0000 0.0000 1781.3492 -7403.1539 303.9212 -9184.5031 -7464.7092 302.2573 -159.5781 -140.1562 30576.4024 -35.2141 38.4095
ENERGY: 1500000 3.8941 7.4420 6.9978 0.0000 -10626.6931 1368.7627 0.0000 0.0000 1740.7205 -7498.8760 296.9895 -9239.5965 -7466.6070 301.7623 -664.7532 -599.4199 30315.7489 -86.4997 -15.5297
TCL: Running FEP window   2: Lambda1 0.95   Lambda2 0.8999999999999999 [dLambda -0.050000000000000044]
TCL: Setting parameter firsttimestep to 0
TCL: Setting parameter alchLambda to 0.95
Info: NONBONDED TABLE R-SQUARED SPACING: 0.0625
Info: NONBONDED TABLE SIZE: 705 POINTS
TCL: Setting parameter alchLambda2 to 0.8999999999999999
Info: NONBONDED TABLE R-SQUARED SPACING: 0.0625
Info: NONBONDED TABLE SIZE: 705 POINTS
TCL: Running for 1500000 steps
ETITLE: TS BOND ANGLE DIHED IMPRP ELECT VDW BOUNDARY MISC KINETIC TOTAL TEMP POTENTIAL TOTALAVG TEMPAVG PRESSURE GPRESSURE VOLUME PRESSAVG GPRESSAVG
ENERGY: 0 3.8941 7.4420 6.9979 0.0000 -10624.2929 1367.6360 0.0000 0.0000 1739.8584 -7498.4646 296.8424 -9238.3230 -7498.4646 296.8424 -719.8475 -618.3100 30315.7489 -719.8475 -618.3100
ENERGY: 300000 3.7760 3.2518 4.4555 0.0000 -10654.7824 1427.7935 0.0000 0.0000 1701.5926 -7513.9129 290.3137 -9215.5056 -7503.5004 294.6373 -245.2033 -106.8043 30443.6325 -383.3938 -303.1067
ENERGY: 600000 0.8803 6.5672 5.2593 0.0000 -10847.4387 1563.5429 0.0000 0.0000 1764.7821 -7506.4070 301.0947 -9271.1891 -7474.0722 298.7753 781.5018 839.8106 30415.2853 -165.9996 -96.1059
ENERGY: 900000 2.7322 2.4878 7.7678 0.0000 -10644.2298 1432.0163 0.0000 0.0000 1704.5430 -7494.6827 290.8171 -9199.2257 -7486.9303 298.6524 -96.5501 -22.7320 30463.3269 -171.0562 -112.0596
ENERGY: 1200000 3.3602 7.5628 6.9772 0.0000 -10616.6763 1401.6287 0.0000 0.0000 1766.3443 -7430.8031 301.3612 -9197.1474 -7491.9412 298.4519 -9.5023 38.7888 30024.5213 -91.7074 -42.5293
ENERGY: 1500000 2.1357 5.9659 5.3288 0.0000 -10619.8612 1396.0361 0.0000 0.0000 1835.3920 -7375.0027 313.1416 -9210.3947 -7474.3793 299.9951 93.6968 186.8685 29816.1944 -55.6574 -4.3693
TCL: Running FEP window   3: Lambda1 0.8999999999999999 Lambda2 0.8499999999999999 [dLambda -0.050000000000000044]
TCL: Setting parameter firsttimestep to 0
TCL: Setting parameter alchLambda to 0.8999999999999999
Info: NONBONDED TABLE R-SQUARED SPACING: 0.0625
Info: NONBONDED TABLE SIZE: 705 POINTS
TCL: Setting parameter alchLambda2 to 0.8499999999999999
Info: NONBONDED TABLE R-SQUARED SPACING: 0.0625
Info: NONBONDED TABLE SIZE: 705 POINTS
TCL: Running for 1500000 steps
ETITLE: TS BOND ANGLE DIHED IMPRP ELECT VDW BOUNDARY MISC KINETIC TOTAL TEMP POTENTIAL TOTALAVG TEMPAVG PRESSURE GPRESSURE VOLUME PRESSAVG GPRESSAVG
ENERGY: 0 2.1357 5.9659 5.3288 0.0000 -10618.6963 1396.5158 0.0000 0.0000 1834.5064 -7374.2437 312.9905 -9208.7501 -7374.2437 312.9905 114.6445 184.7485 29816.1944 114.6445 184.7485
ENERGY: 300000 1.3911 4.2558 5.8725 0.0000 -10747.8561 1495.8279 0.0000 0.0000 1743.4831 -7497.0257 297.4608 -9240.5088 -7465.0671 303.4714 836.3194 798.0892 30021.9919 -109.6437 -68.0046
ENERGY: 600000 5.2683 6.0812 5.5232 0.0000 -10688.6596 1421.2554 0.0000 0.0000 1763.1110 -7487.4207 300.8096 -9250.5316 -7457.4088 302.3124 -41.0229 -39.1250 30047.0201 -108.0866 -62.7666
ENERGY: 900000 3.0816 4.5100 5.9160 0.0000 -10560.6018 1388.9450 0.0000 0.0000 1760.4157 -7397.7336 300.3497 -9158.1492 -7445.6639 301.6597 -91.9331 32.4533 30180.2924 -13.2829 44.3753
ENERGY: 1200000 3.6620 5.7454 4.6219 0.0000 -10658.5133 1425.1660 0.0000 0.0000 1805.4201 -7413.8978 308.0280 -9219.3179 -7446.1454 302.3071 175.6666 217.8041 30244.1330 6.7916 70.7754
ENERGY: 1500000 1.7859 7.2007 4.3972 0.0000 -10659.8528 1419.5455 0.0000 0.0000 1796.3736 -7430.5499 306.4846 -9226.9235 -7449.9298 301.9332 -299.0289 -317.9276 30716.8163 -52.6900 5.8860
TCL: Running FEP window   4: Lambda1 0.8499999999999999 Lambda2 0.7999999999999998 [dLambda -0.050000000000000044]
TCL: Setting parameter firsttimestep to 0
TCL: Setting parameter alchLambda to 0.8499999999999999
Info: NONBONDED TABLE R-SQUARED SPACING: 0.0625
Info: NONBONDED TABLE SIZE: 705 POINTS
TCL: Setting parameter alchLambda2 to 0.7999999999999998
Info: NONBONDED TABLE R-SQUARED SPACING: 0.0625
Info: NONBONDED TABLE SIZE: 705 POINTS
TCL: Running for 1500000 steps
ETITLE: TS BOND ANGLE DIHED IMPRP ELECT VDW BOUNDARY MISC KINETIC TOTAL TEMP POTENTIAL TOTALAVG TEMPAVG PRESSURE GPRESSURE VOLUME PRESSAVG GPRESSAVG
ENERGY: 0 1.7859 7.2007 4.3972 0.0000 -10658.8256 1419.9583 0.0000 0.0000 1795.5124 -7429.9711 306.3377 -9225.4836 -7429.9711 306.3377 -395.7116 -321.7956 30716.8163 -395.7116 -321.7956
ENERGY: 300000 4.9337 5.0899 4.1590 0.0000 -10736.4450 1459.7068 0.0000 0.0000 1785.2463 -7477.3094 304.5861 -9262.5557 -7472.3785 301.9759 133.1389 149.4896 30185.2146 66.0930 116.0686
ENERGY: 600000 2.6966 7.7110 5.6305 0.0000 -10671.5233 1428.5231 0.0000 0.0000 1806.4350 -7420.5272 308.2012 -9226.9622 -7456.3994 303.2787 -17.0936 86.6322 30470.6172 86.9917 139.7463
ENERGY: 900000 3.8480 5.8013 8.0668 0.0000 -10550.0768 1361.8462 0.0000 0.0000 1709.3850 -7461.1294 291.6432 -9170.5144 -7453.9929 301.9482 -386.3822 -324.4870 30468.7143 106.7582 159.7983
ENERGY: 1200000 2.2545 7.6010 6.3276 0.0000 -10667.0280 1424.1921 0.0000 0.0000 1726.5427 -7500.1102 294.5705 -9226.6529 -7450.0498 301.5144 33.3108 -7.8821 30049.5450 116.3734 157.7814
ENERGY: 1500000 4.3374 4.2576 5.7712 0.0000 -10605.2226 1409.3470 0.0000 0.0000 1726.7693 -7454.7401 294.6092 -9181.5095 -7453.2480 301.4128 -190.7167 -145.8823 30637.1024 3.1439 51.6700
TCL: Running FEP window   5: Lambda1 0.7999999999999998 Lambda2 0.7499999999999998 [dLambda -0.050000000000000044]
TCL: Setting parameter firsttimestep to 0
TCL: Setting parameter alchLambda to 0.7999999999999998
Info: NONBONDED TABLE R-SQUARED SPACING: 0.0625
Info: NONBONDED TABLE SIZE: 705 POINTS
TCL: Setting parameter alchLambda2 to 0.7499999999999998
Info: NONBONDED TABLE R-SQUARED SPACING: 0.0625
Info: NONBONDED TABLE SIZE: 705 POINTS
TCL: Running for 1500000 steps
ETITLE: TS BOND ANGLE DIHED IMPRP ELECT VDW BOUNDARY MISC KINETIC TOTAL TEMP POTENTIAL TOTALAVG TEMPAVG PRESSURE GPRESSURE VOLUME PRESSAVG GPRESSAVG
ENERGY: 0 4.3373 4.2576 5.7712 0.0000 -10604.6847 1409.9334 0.0000 0.0000 1725.9090 -7454.4762 294.4624 -9180.3852 -7454.4762 294.4624 -226.1156 -148.8088 30637.1024 -226.1156 -148.8088
ENERGY: 300000 3.6774 7.8644 5.0085 0.0000 -10538.5093 1356.2018 0.0000 0.0000 1753.3191 -7412.4382 299.1389 -9165.7573 -7418.7347 300.0936 -732.8874 -631.5425 30489.1879 -475.6521 -388.0571
ENERGY: 600000 4.3253 3.2426 5.9214 0.0000 -10540.3815 1342.5829 0.0000 0.0000 1756.9692 -7427.3401 299.7617 -9184.3093 -7419.0982 300.6971 -979.7579 -945.8036 30967.4289 -123.7147 -47.4675
ENERGY: 900000 1.6177 3.9078 6.6055 0.0000 -10759.0306 1405.8865 0.0000 0.0000 1790.2254 -7550.7876 305.4356 -9341.0131 -7437.6433 301.7178 -211.2912 -123.2720 29707.0863 -224.9726 -146.3441
ENERGY: 1200000 3.4819 6.0991 5.7285 0.0000 -10723.2530 1438.3734 0.0000 0.0000 1795.8507 -7473.7193 306.3954 -9269.5701 -7445.0932 301.5972 52.9589 141.6360 30298.1157 -152.4656 -67.8971
ENERGY: 1500000 3.1055 3.3055 5.1086 0.0000 -10767.1573 1477.6992 0.0000 0.0000 1749.5537 -7528.3847 298.4965 -9277.9384 -7442.6389 301.3704 187.3240 310.6989 29874.4750 -73.9514 15.4420
TCL: Running FEP window   6: Lambda1 0.7499999999999998 Lambda2 0.6999999999999997 [dLambda -0.050000000000000044]
TCL: Setting parameter firsttimestep to 0
TCL: Setting parameter alchLambda to 0.7499999999999998
Info: NONBONDED TABLE R-SQUARED SPACING: 0.0625
Info: NONBONDED TABLE SIZE: 705 POINTS
TCL: Setting parameter alchLambda2 to 0.6999999999999997
Info: NONBONDED TABLE R-SQUARED SPACING: 0.0625
Info: NONBONDED TABLE SIZE: 705 POINTS
TCL: Running for 1500000 steps
ETITLE: TS BOND ANGLE DIHED IMPRP ELECT VDW BOUNDARY MISC KINETIC TOTAL TEMP POTENTIAL TOTALAVG TEMPAVG PRESSURE GPRESSURE VOLUME PRESSAVG GPRESSAVG
ENERGY: 0 3.1055 3.3055 5.1086 0.0000 -10766.1924 1477.5181 0.0000 0.0000 1748.6614 -7528.4932 298.3443 -9277.1546 -7528.4932 298.3443 222.1395 302.3100 29874.4750 222.1395 302.3100
ENERGY: 300000 2.6076 5.0335 4.6776 0.0000 -10565.5935 1360.5360 0.0000 0.0000 1718.5932 -7474.1456 293.2142 -9192.7387 -7451.1261 302.2750 -793.6734 -736.2442 30885.0987 38.1401 72.2254
ENERGY: 600000 6.5001 5.3848 7.9595 0.0000 -10544.4513 1385.1020 0.0000 0.0000 1769.1612 -7370.3436 301.8418 -9139.5048 -7422.4974 302.7485 -450.2335 -407.3332 30411.5900 -166.8043 -124.5945
ENERGY: 900000 1.2050 6.2207 9.5106 0.0000 -10588.3993 1391.2042 0.0000 0.0000 1822.8559 -7357.4028 311.0028 -9180.2588 -7429.9652 302.5485 61.1129 86.7822 30015.1944 -69.9138 -27.8103
ENERGY: 1200000 1.6522 4.9466 4.6615 0.0000 -10678.5531 1459.3487 0.0000 0.0000 1757.5535 -7450.3906 299.8614 -9207.9441 -7423.4080 302.5957 226.3534 310.0665 30281.2197 -3.0895 46.2186
ENERGY: 1500000 2.9824 3.2416 4.0826 0.0000 -10824.7219 1493.2033 0.0000 0.0000 1802.0341 -7519.1778 307.4504 -9321.2119 -7425.2915 303.1260 73.0672 99.5621 30384.6537 17.4958 70.2642
TCL: Running FEP window   7: Lambda1 0.6999999999999997 Lambda2 0.6499999999999997 [dLambda -0.050000000000000044]
TCL: Setting parameter firsttimestep to 0
TCL: Setting parameter alchLambda to 0.6999999999999997
Info: NONBONDED TABLE R-SQUARED SPACING: 0.0625
Info: NONBONDED TABLE SIZE: 705 POINTS
TCL: Setting parameter alchLambda2 to 0.6499999999999997
Info: NONBONDED TABLE R-SQUARED SPACING: 0.0625
Info: NONBONDED TABLE SIZE: 705 POINTS
TCL: Running for 1500000 steps
ETITLE: TS BOND ANGLE DIHED IMPRP ELECT VDW BOUNDARY MISC KINETIC TOTAL TEMP POTENTIAL TOTALAVG TEMPAVG PRESSURE GPRESSURE VOLUME PRESSAVG GPRESSAVG
ENERGY: 0 2.9824 3.2416 4.0826 0.0000 -10823.4164 1493.2778 0.0000 0.0000 1801.1654 -7518.6665 307.3021 -9319.8319 -7518.6665 307.3021 12.4420 97.0473 30384.6537 12.4420 97.0473
ENERGY: 300000 1.0276 3.6240 8.0955 0.0000 -10544.9754 1357.2440 0.0000 0.0000 1793.3236 -7381.6607 305.9642 -9174.9843 -7487.7824 301.5885 -695.6632 -631.1226 30814.2096 -152.7511 -65.5848
ENERGY: 600000 1.0933 5.9872 4.7628 0.0000 -10638.0895 1419.4042 0.0000 0.0000 1750.5335 -7456.3086 298.6637 -9206.8420 -7465.3915 300.6326 -443.6852 -340.4924 30799.4272 -237.5440 -151.9288
ENERGY: 900000 2.2321 6.1523 5.1911 0.0000 -10775.3942 1499.4455 0.0000 0.0000 1801.9239 -7460.4494 307.4315 -9262.3733 -7471.5148 301.4169 398.7756 429.0007 30375.9328 -244.0810 -162.7418
ENERGY: 1200000 3.6618 8.1446 4.7978 0.0000 -10606.4551 1376.4169 0.0000 0.0000 1755.5547 -7457.8793 299.5204 -9213.4340 -7476.2447 300.1442 -729.8046 -689.1402 30692.0745 -182.3030 -110.9386
ENERGY: 1500000 1.6191 8.3096 5.3514 0.0000 -10682.5655 1483.5274 0.0000 0.0000 1755.2067 -7428.5513 299.4610 -9183.7580 -7469.9453 299.4488 315.6457 410.7857 30492.4968 -161.6690 -85.3321
TCL: Running FEP window   8: Lambda1 0.6499999999999997 Lambda2 0.5999999999999996 [dLambda -0.050000000000000044]
TCL: Setting parameter firsttimestep to 0
TCL: Setting parameter alchLambda to 0.6499999999999997
Info: NONBONDED TABLE R-SQUARED SPACING: 0.0625
Info: NONBONDED TABLE SIZE: 705 POINTS
TCL: Setting parameter alchLambda2 to 0.5999999999999996
Info: NONBONDED TABLE R-SQUARED SPACING: 0.0625
Info: NONBONDED TABLE SIZE: 705 POINTS
TCL: Running for 1500000 steps
ETITLE: TS BOND ANGLE DIHED IMPRP ELECT VDW BOUNDARY MISC KINETIC TOTAL TEMP POTENTIAL TOTALAVG TEMPAVG PRESSURE GPRESSURE VOLUME PRESSAVG GPRESSAVG
ENERGY: 0 1.6191 8.3096 5.3514 0.0000 -10681.3708 1483.4854 0.0000 0.0000 1754.3556 -7428.2497 299.3158 -9182.6053 -7428.2497 299.3158 336.5530 404.4622 30492.4968 336.5530 404.4622
ENERGY: 300000 4.7216 3.6287 8.7335 0.0000 -10658.9489 1458.0178 0.0000 0.0000 1751.2377 -7432.6097 298.7838 -9183.8473 -7445.4365 297.7285 188.5401 236.7445 30680.4060 8.7858 67.3806
ENERGY: 600000 2.8337 2.6027 6.0466 0.0000 -10471.3523 1394.4080 0.0000 0.0000 1744.8309 -7320.6305 297.6907 -9065.4614 -7437.7937 298.7521 267.8168 294.8847 30372.1575 -2.2061 61.0293
ENERGY: 900000 1.8251 4.2627 6.3000 0.0000 -10495.1582 1359.9533 0.0000 0.0000 1735.8338 -7386.9834 296.1557 -9122.8172 -7442.6221 297.7473 -292.9675 -173.2779 30025.7764 173.6891 249.7845
ENERGY: 1200000 4.5328 4.6687 6.1254 0.0000 -10645.6857 1433.1253 0.0000 0.0000 1813.1907 -7384.0428 309.3538 -9197.2335 -7429.6044 299.6900 -156.2171 -90.0558 30801.4259 115.1222 189.1448
ENERGY: 1500000 3.1371 6.3323 5.4348 0.0000 -10613.7358 1411.2017 0.0000 0.0000 1785.6260 -7402.0040 304.6509 -9187.6299 -7430.3704 300.5580 -95.5476 -62.3667 30693.6113 90.7508 158.1195
TCL: Running FEP window   9: Lambda1 0.5999999999999996 Lambda2 0.5499999999999996 [dLambda -0.050000000000000044]
TCL: Setting parameter firsttimestep to 0
TCL: Setting parameter alchLambda to 0.5999999999999996
Info: NONBONDED TABLE R-SQUARED SPACING: 0.0625
Info: NONBONDED TABLE SIZE: 705 POINTS
TCL: Setting parameter alchLambda2 to 0.5499999999999996
Info: NONBONDED TABLE R-SQUARED SPACING: 0.0625
Info: NONBONDED TABLE SIZE: 705 POINTS
TCL: Running for 1500000 steps
ETITLE: TS BOND ANGLE DIHED IMPRP ELECT VDW BOUNDARY MISC KINETIC TOTAL TEMP POTENTIAL TOTALAVG TEMPAVG PRESSURE GPRESSURE VOLUME PRESSAVG GPRESSAVG
ENERGY: 0 3.1371 6.3323 5.4348 0.0000 -10613.2437 1410.9919 0.0000 0.0000 1784.7819 -7402.5657 304.5069 -9187.3476 -7402.5657 304.5069 -154.4864 -72.4293 30693.6113 -154.4864 -72.4293
ENERGY: 300000 3.7928 4.7198 4.2465 0.0000 -10668.0202 1413.2783 0.0000 0.0000 1741.2390 -7500.7437 297.0779 -9241.9828 -7472.4976 300.3268 -35.3583 -11.6258 30106.7168 92.3095 143.8409
ENERGY: 600000 2.5281 2.7684 5.8869 0.0000 -10563.6614 1401.3374 0.0000 0.0000 1786.7245 -7364.4162 304.8383 -9151.1407 -7461.0375 301.7086 -559.0957 -493.7691 31163.6482 -60.1115 2.9818
ENERGY: 900000 4.3706 5.6260 5.3829 0.0000 -10766.5830 1501.3517 0.0000 0.0000 1771.0006 -7478.8512 302.1556 -9249.8518 -7463.2015 300.5357 482.6787 582.6427 29902.5542 -6.1415 62.4348
ENERGY: 1200000 2.1849 6.2693 4.8106 0.0000 -10673.0324 1471.4075 0.0000 0.0000 1761.4978 -7426.8623 300.5343 -9188.3601 -7465.6020 300.3614 162.8683 253.5359 30693.5069 -5.2992 67.7882
ENERGY: 1500000 5.0769 3.9036 4.5075 0.0000 -10653.5251 1475.7934 0.0000 0.0000 1828.6972 -7335.5465 311.9994 -9164.2437 -7443.8011 302.0837 322.3852 404.8789 30572.2735 -6.9588 72.2799
TCL: Running FEP window  10: Lambda1 0.5499999999999996 Lambda2 0.4999999999999996 [dLambda -0.04999999999999999]
TCL: Setting parameter firsttimestep to 0
TCL: Setting parameter alchLambda to 0.5499999999999996
Info: NONBONDED TABLE R-SQUARED SPACING: 0.0625
Info: NONBONDED TABLE SIZE: 705 POINTS
TCL: Setting parameter alchLambda2 to 0.4999999999999996
Info: NONBONDED TABLE R-SQUARED SPACING: 0.0625
Info: NONBONDED TABLE SIZE: 705 POINTS
TCL: Running for 1500000 steps
ETITLE: TS BOND ANGLE DIHED IMPRP ELECT VDW BOUNDARY MISC KINETIC TOTAL TEMP POTENTIAL TOTALAVG TEMPAVG PRESSURE GPRESSURE VOLUME PRESSAVG GPRESSAVG
ENERGY: 0 5.0769 3.9036 4.5075 0.0000 -10652.9650 1476.1196 0.0000 0.0000 1827.8295 -7335.5279 311.8514 -9163.3574 -7335.5279 311.8514 305.7371 401.9305 30572.2735 305.7371 401.9305
ENERGY: 300000 5.3616 3.7637 4.2569 0.0000 -10544.3446 1363.9696 0.0000 0.0000 1733.0152 -7433.9776 295.6748 -9166.9928 -7443.3949 300.3038 -620.0912 -537.2177 30557.5861 -91.5977 -34.4873
ENERGY: 600000 2.2855 3.2346 7.2218 0.0000 -10858.9437 1557.0108 0.0000 0.0000 1741.5830 -7547.6080 297.1366 -9289.1910 -7465.6865 299.8838 1088.5293 1093.0765 29657.9891 207.9103 251.1634
ENERGY: 900000 4.9201 5.8081 6.1940 0.0000 -10746.2778 1416.4999 0.0000 0.0000 1720.8273 -7592.0283 293.5954 -9312.8556 -7458.4535 300.8893 -371.5910 -266.4217 29969.2540 101.6283 151.3251
ENERGY: 1200000 2.2145 4.8798 6.8077 0.0000 -10561.8472 1418.6808 0.0000 0.0000 1734.2332 -7395.0312 295.8826 -9129.2644 -7459.5675 300.4480 -376.3414 -330.1736 31081.3519 -2.1872 44.7906
ENERGY: 1500000 2.3478 5.2081 4.9812 0.0000 -10746.2936 1457.4060 0.0000 0.0000 1722.3173 -7554.0333 293.8496 -9276.3506 -7462.8184 300.2260 -103.7999 -63.7425 30237.1407 72.8104 124.4246
TCL: Running FEP window  11: Lambda1 0.4999999999999996 Lambda2 0.4499999999999996 [dLambda -0.04999999999999999]
TCL: Setting parameter firsttimestep to 0
TCL: Setting parameter alchLambda to 0.4999999999999996
Info: NONBONDED TABLE R-SQUARED SPACING: 0.0625
Info: NONBONDED TABLE SIZE: 705 POINTS
TCL: Setting parameter alchLambda2 to 0.4499999999999996
Info: NONBONDED TABLE R-SQUARED SPACING: 0.0625
Info: NONBONDED TABLE SIZE: 705 POINTS
TCL: Running for 1500000 steps
ETITLE: TS BOND ANGLE DIHED IMPRP ELECT VDW BOUNDARY MISC KINETIC TOTAL TEMP POTENTIAL TOTALAVG TEMPAVG PRESSURE GPRESSURE VOLUME PRESSAVG GPRESSAVG
ENERGY: 0 2.3478 5.2081 4.9812 0.0000 -10745.0746 1457.8534 0.0000 0.0000 1721.4136 -7553.2705 293.6955 -9274.6841 -7553.2705 293.6955 -144.0388 -63.8957 30237.1407 -144.0388 -63.8957
ENERGY: 300000 0.9469 6.5286 5.3496 0.0000 -10727.8416 1499.9892 0.0000 0.0000 1755.6897 -7459.3375 299.5434 -9215.0273 -7490.6335 298.3527 473.2273 557.7047 30327.2055 -37.9350 37.4872
ENERGY: 600000 5.9202 7.4203 8.2178 0.0000 -10547.5381 1325.3763 0.0000 0.0000 1753.3712 -7447.2323 299.1478 -9200.6035 -7471.5158 298.8585 -1008.4895 -946.6461 30352.4661 -336.3252 -268.5124
ENERGY: 900000 2.7808 4.8160 4.9321 0.0000 -10580.3793 1389.7164 0.0000 0.0000 1774.8425 -7403.2914 302.8111 -9178.1339 -7455.7658 299.9106 -446.1902 -369.2957 30568.0968 -229.2086 -168.5521
ENERGY: 1200000 2.8516 4.1881 6.6138 0.0000 -10743.9899 1505.5163 0.0000 0.0000 1822.0026 -7402.8175 310.8572 -9224.8201 -7446.3471 301.6214 579.6502 594.9441 30056.5937 -126.2088 -73.8037
ENERGY: 1500000 3.5474 8.2879 5.0673 0.0000 -10708.1941 1415.1943 0.0000 0.0000 1799.1219 -7476.9753 306.9535 -9276.0972 -7461.3332 301.6598 -354.8470 -313.6271 30308.7369 -122.2989 -73.7269
TCL: Running FEP window  12: Lambda1 0.4499999999999996 Lambda2 0.39999999999999963 [dLambda -0.04999999999999999]
TCL: Setting parameter firsttimestep to 0
TCL: Setting parameter alchLambda to 0.4499999999999996
Info: NONBONDED TABLE R-SQUARED SPACING: 0.0625
Info: NONBONDED TABLE SIZE: 705 POINTS
TCL: Setting parameter alchLambda2 to 0.39999999999999963
Info: NONBONDED TABLE R-SQUARED SPACING: 0.0625
Info: NONBONDED TABLE SIZE: 705 POINTS
TCL: Running for 1500000 steps
ETITLE: TS BOND ANGLE DIHED IMPRP ELECT VDW BOUNDARY MISC KINETIC TOTAL TEMP POTENTIAL TOTALAVG TEMPAVG PRESSURE GPRESSURE VOLUME PRESSAVG GPRESSAVG
ENERGY: 0 3.5474 8.2879 5.0673 0.0000 -10708.1934 1415.9552 0.0000 0.0000 1798.2735 -7477.0620 306.8087 -9275.3355 -7477.0620 306.8087 -394.0541 -311.0359 30308.7369 -394.0541 -311.0359
ENERGY: 300000 3.1570 4.1169 6.6348 0.0000 -10624.7306 1396.2126 0.0000 0.0000 1796.2699 -7418.3394 306.4669 -9214.6093 -7454.0121 303.3336 -66.4979 -68.6579 29960.5554 -188.0400 -134.6808
ENERGY: 600000 2.5372 5.8997 5.9449 0.0000 -10678.6807 1444.2401 0.0000 0.0000 1783.6724 -7436.3864 304.3176 -9220.0588 -7450.2713 301.9381 -110.1259 -81.0563 30634.0206 -77.2475 -30.6861
ENERGY: 900000 2.5809 5.8314 4.7427 0.0000 -10607.3622 1433.6775 0.0000 0.0000 1699.8509 -7460.6789 290.0166 -9160.5298 -7457.0394 299.3783 203.4032 282.4814 30061.6328 -42.3114 8.7674
ENERGY: 1200000 3.0337 6.1958 6.0143 0.0000 -10521.9868 1319.7400 0.0000 0.0000 1738.7782 -7448.2249 296.6581 -9187.0032 -7447.9306 299.6464 -912.2736 -911.0591 30390.1595 -210.2286 -158.5659
ENERGY: 1500000 4.9400 5.2669 6.1926 0.0000 -10701.0377 1482.0775 0.0000 0.0000 1758.3183 -7444.2425 299.9919 -9202.5607 -7450.0044 299.5969 448.6669 501.9881 30266.9149 -204.4383 -152.5811
TCL: Running FEP window  13: Lambda1 0.39999999999999963 Lambda2 0.34999999999999964 [dLambda -0.04999999999999999]
TCL: Setting parameter firsttimestep to 0
TCL: Setting parameter alchLambda to 0.39999999999999963
Info: NONBONDED TABLE R-SQUARED SPACING: 0.0625
Info: NONBONDED TABLE SIZE: 705 POINTS
TCL: Setting parameter alchLambda2 to 0.34999999999999964
Info: NONBONDED TABLE R-SQUARED SPACING: 0.0625
Info: NONBONDED TABLE SIZE: 705 POINTS
TCL: Running for 1500000 steps
ETITLE: TS BOND ANGLE DIHED IMPRP ELECT VDW BOUNDARY MISC KINETIC TOTAL TEMP POTENTIAL TOTALAVG TEMPAVG PRESSURE GPRESSURE VOLUME PRESSAVG GPRESSAVG
ENERGY: 0 4.9400 5.2669 6.1926 0.0000 -10701.0390 1482.3250 0.0000 0.0000 1757.3999 -7444.9146 299.8352 -9202.3145 -7444.9146 299.8352 395.4972 496.8925 30266.9149 395.4972 496.8925
ENERGY: 300000 0.7911 4.9142 8.8520 0.0000 -10564.5187 1340.6842 0.0000 0.0000 1777.5848 -7431.6924 303.2790 -9209.2772 -7451.3825 298.4705 -701.2216 -616.2804 30187.2637 -168.8359 -93.9201
ENERGY: 600000 3.0748 3.6576 7.0705 0.0000 -10673.6312 1398.2769 0.0000 0.0000 1731.5682 -7529.9831 295.4280 -9261.5513 -7463.0987 298.0845 -395.6190 -294.3547 30044.2523 -136.4011 -58.3269
ENERGY: 900000 3.6346 5.4391 6.6226 0.0000 -10779.5891 1516.7720 0.0000 0.0000 1742.7710 -7504.3498 297.3393 -9247.1208 -7465.0998 297.6637 255.9136 365.3155 30378.9987 -111.9881 -37.8351
ENERGY: 1200000 1.8603 5.1199 7.8252 0.0000 -10634.7571 1366.9146 0.0000 0.0000 1709.0181 -7544.0191 291.5806 -9253.0372 -7475.4310 297.6263 -657.4504 -586.6173 30342.8045 -218.2969 -144.1212
ENERGY: 1500000 6.2359 2.8062 5.6149 0.0000 -10581.5102 1409.8697 0.0000 0.0000 1746.9099 -7410.0735 298.0454 -9156.9835 -7467.3542 297.7629 -329.2752 -196.3663 30444.4795 -199.3650 -123.7886
TCL: Running FEP window  14: Lambda1 0.34999999999999964 Lambda2 0.29999999999999966 [dLambda -0.04999999999999999]
TCL: Setting parameter firsttimestep to 0
TCL: Setting parameter alchLambda to 0.34999999999999964
Info: NONBONDED TABLE R-SQUARED SPACING: 0.0625
Info: NONBONDED TABLE SIZE: 705 POINTS
TCL: Setting parameter alchLambda2 to 0.29999999999999966
Info: NONBONDED TABLE R-SQUARED SPACING: 0.0625
Info: NONBONDED TABLE SIZE: 705 POINTS
TCL: Running for 1500000 steps
ETITLE: TS BOND ANGLE DIHED IMPRP ELECT VDW BOUNDARY MISC KINETIC TOTAL TEMP POTENTIAL TOTALAVG TEMPAVG PRESSURE GPRESSURE VOLUME PRESSAVG GPRESSAVG
ENERGY: 0 6.2359 2.8062 5.6149 0.0000 -10581.5099 1410.1284 0.0000 0.0000 1746.0203 -7410.7041 297.8937 -9156.7244 -7410.7041 297.8937 -285.6140 -199.6494 30444.4795 -285.6140 -199.6494
ENERGY: 300000 6.2985 4.4726 4.5234 0.0000 -10534.4441 1325.8803 0.0000 0.0000 1781.9788 -7411.2904 304.0287 -9193.2692 -7408.0162 304.8861 -1101.5520 -1026.0463 30699.4072 -562.4571 -479.6421
ENERGY: 600000 3.3407 5.0921 7.4148 0.0000 -10601.3912 1468.9243 0.0000 0.0000 1741.2999 -7375.3195 297.0883 -9116.6194 -7426.1297 303.3223 549.6848 574.7125 30418.1563 -211.4813 -134.1746
ENERGY: 900000 2.9691 4.9969 7.0376 0.0000 -10769.9939 1485.7962 0.0000 0.0000 1735.4095 -7533.7846 296.0833 -9269.1941 -7442.2142 300.3957 380.8034 434.8692 29997.8542 -179.5846 -110.6909
ENERGY: 1200000 1.4372 3.9751 4.2124 0.0000 -10720.8381 1503.8103 0.0000 0.0000 1739.4749 -7467.9283 296.7769 -9207.4032 -7442.6500 300.5669 830.0121 835.6509 29933.3864 -67.6066 -0.4375
ENERGY: 1500000 2.8763 4.9230 5.8840 0.0000 -10616.9301 1380.8551 0.0000 0.0000 1790.0211 -7432.3706 305.4008 -9222.3917 -7450.4019 300.5225 -529.7821 -419.8922 30217.1013 -109.0388 -36.6698
TCL: Running FEP window  15: Lambda1 0.29999999999999966 Lambda2 0.24999999999999967 [dLambda -0.04999999999999999]
TCL: Setting parameter firsttimestep to 0
TCL: Setting parameter alchLambda to 0.29999999999999966
Info: NONBONDED TABLE R-SQUARED SPACING: 0.0625
Info: NONBONDED TABLE SIZE: 705 POINTS
TCL: Setting parameter alchLambda2 to 0.24999999999999967
Info: NONBONDED TABLE R-SQUARED SPACING: 0.0625
Info: NONBONDED TABLE SIZE: 705 POINTS
TCL: Running for 1500000 steps
ETITLE: TS BOND ANGLE DIHED IMPRP ELECT VDW BOUNDARY MISC KINETIC TOTAL TEMP POTENTIAL TOTALAVG TEMPAVG PRESSURE GPRESSURE VOLUME PRESSAVG GPRESSAVG
ENERGY: 0 2.8763 4.9230 5.8840 0.0000 -10616.9287 1381.3141 0.0000 0.0000 1789.1733 -7432.7579 305.2561 -9221.9312 -7432.7579 305.2561 -527.0178 -421.7025 30217.1013 -527.0178 -421.7025
ENERGY: 300000 4.7225 4.6163 6.3815 0.0000 -10630.5523 1452.4278 0.0000 0.0000 1780.1233 -7382.2810 303.7121 -9162.4043 -7452.0497 300.1996 -149.7991 -17.9101 30487.2483 -459.1344 -374.3913
ENERGY: 600000 7.1399 5.3416 6.5935 0.0000 -10592.3871 1339.7720 0.0000 0.0000 1800.5224 -7433.0177 307.1924 -9233.5401 -7454.0023 299.7022 -863.1199 -813.8837 30304.8247 -431.0383 -359.1138
ENERGY: 900000 4.0282 5.0274 6.2972 0.0000 -10653.7800 1399.2081 0.0000 0.0000 1754.7896 -7484.4294 299.3898 -9239.2190 -7450.7210 300.2094 -332.8906 -335.4695 30224.6077 -422.0665 -368.1404
ENERGY: 1200000 2.9243 5.3339 7.3581 0.0000 -10511.4088 1313.8567 0.0000 0.0000 1711.6417 -7470.2941 292.0282 -9181.9358 -7455.1374 299.9948 -1016.0831 -961.4922 30524.9332 -403.0284 -341.4092
ENERGY: 1500000 3.6149 6.7447 8.0672 0.0000 -10622.3108 1385.8903 0.0000 0.0000 1791.0492 -7426.9444 305.5762 -9217.9937 -7455.9961 300.4418 -315.0659 -291.1532 29921.9005 -376.5111 -313.9762
TCL: Running FEP window  16: Lambda1 0.24999999999999967 Lambda2 0.19999999999999968 [dLambda -0.04999999999999999]
TCL: Setting parameter firsttimestep to 0
TCL: Setting parameter alchLambda to 0.24999999999999967
Info: NONBONDED TABLE R-SQUARED SPACING: 0.0625
Info: NONBONDED TABLE SIZE: 705 POINTS
TCL: Setting parameter alchLambda2 to 0.19999999999999968
Info: NONBONDED TABLE R-SQUARED SPACING: 0.0625
Info: NONBONDED TABLE SIZE: 705 POINTS
TCL: Running for 1500000 steps
ETITLE: TS BOND ANGLE DIHED IMPRP ELECT VDW BOUNDARY MISC KINETIC TOTAL TEMP POTENTIAL TOTALAVG TEMPAVG PRESSURE GPRESSURE VOLUME PRESSAVG GPRESSAVG
ENERGY: 0 3.6149 6.7447 8.0672 0.0000 -10622.3113 1386.0261 0.0000 0.0000 1790.1581 -7427.7003 305.4241 -9217.8584 -7427.7003 305.4241 -371.8194 -296.7261 29921.9005 -371.8194 -296.7261
ENERGY: 300000 6.6832 5.6821 11.2511 0.0000 -10604.7345 1420.6452 0.0000 0.0000 1753.5305 -7406.9424 299.1750 -9160.4729 -7459.7373 299.8005 -259.2937 -243.1004 30766.9768 -59.5047 -3.3876
ENERGY: 600000 2.6951 10.1305 7.3113 0.0000 -10642.7941 1415.9908 0.0000 0.0000 1759.9005 -7446.7658 300.2618 -9206.6663 -7452.9964 299.7888 -62.8574 -2.9173 30018.5962 10.9954 51.7164
ENERGY: 900000 2.4786 5.7348 9.9873 0.0000 -10688.0044 1441.8247 0.0000 0.0000 1770.9107 -7457.0683 302.1403 -9227.9790 -7462.7351 299.3807 124.8587 196.7359 30126.2579 50.1905 99.9467
ENERGY: 1200000 2.6332 4.7865 5.5232 0.0000 -10543.1603 1402.0510 0.0000 0.0000 1718.2872 -7409.8792 293.1620 -9128.1664 -7454.5616 299.1123 -199.2828 -162.9440 30633.9677 11.7718 62.3142
ENERGY: 1500000 4.1127 5.9138 5.9296 0.0000 -10780.1674 1518.2377 0.0000 0.0000 1755.7488 -7490.2247 299.5535 -9245.9735 -7461.7735 299.1836 471.3653 548.8374 30164.8460 15.3454 65.1408
TCL: Running FEP window  17: Lambda1 0.19999999999999968 Lambda2 0.1499999999999997 [dLambda -0.04999999999999999]
TCL: Setting parameter firsttimestep to 0
TCL: Setting parameter alchLambda to 0.19999999999999968
Info: NONBONDED TABLE R-SQUARED SPACING: 0.0625
Info: NONBONDED TABLE SIZE: 705 POINTS
TCL: Setting parameter alchLambda2 to 0.1499999999999997
Info: NONBONDED TABLE R-SQUARED SPACING: 0.0625
Info: NONBONDED TABLE SIZE: 705 POINTS
TCL: Running for 1500000 steps
ETITLE: TS BOND ANGLE DIHED IMPRP ELECT VDW BOUNDARY MISC KINETIC TOTAL TEMP POTENTIAL TOTALAVG TEMPAVG PRESSURE GPRESSURE VOLUME PRESSAVG GPRESSAVG
ENERGY: 0 4.1127 5.9138 5.9296 0.0000 -10780.1667 1518.4378 0.0000 0.0000 1754.8873 -7490.8853 299.4065 -9245.7727 -7490.8853 299.4065 451.7324 545.4350 30164.8460 451.7324 545.4350
ENERGY: 300000 1.6401 5.0454 3.8787 0.0000 -10641.2030 1473.2523 0.0000 0.0000 1770.6885 -7386.6981 302.1024 -9157.3866 -7448.2182 298.2238 476.7293 511.8223 30280.7516 -31.6719 20.4118
ENERGY: 600000 3.2743 6.2670 7.7206 0.0000 -10549.3408 1351.1636 0.0000 0.0000 1750.3214 -7430.5940 298.6275 -9180.9154 -7438.0514 298.1356 -484.2792 -471.6823 30198.7705 -155.7963 -96.2707
ENERGY: 900000 3.9983 5.8622 4.8048 0.0000 -10642.5624 1438.3771 0.0000 0.0000 1802.9294 -7386.5907 307.6031 -9189.5200 -7431.4562 299.5181 -76.6308 -23.8062 30194.4295 -197.7520 -136.8982
ENERGY: 1200000 3.1252 3.7395 5.5634 0.0000 -10705.7984 1497.4597 0.0000 0.0000 1801.9660 -7393.9447 307.4387 -9195.9107 -7438.6776 300.2130 633.6918 647.4796 30008.2921 -128.1198 -71.0057
ENERGY: 1500000 3.8537 7.6045 6.0049 0.0000 -10776.0239 1470.0102 0.0000 0.0000 1733.0703 -7555.4803 295.6842 -9288.5506 -7450.8774 299.3803 -35.7626 35.7444 30027.3281 -92.3067 -32.8926
TCL: Running FEP window  18: Lambda1 0.1499999999999997 Lambda2 0.09999999999999969 [dLambda -0.05 ]
TCL: Setting parameter firsttimestep to 0
TCL: Setting parameter alchLambda to 0.1499999999999997
Info: NONBONDED TABLE R-SQUARED SPACING: 0.0625
Info: NONBONDED TABLE SIZE: 705 POINTS
TCL: Setting parameter alchLambda2 to 0.09999999999999969
Info: NONBONDED TABLE R-SQUARED SPACING: 0.0625
Info: NONBONDED TABLE SIZE: 705 POINTS
TCL: Running for 1500000 steps
ETITLE: TS BOND ANGLE DIHED IMPRP ELECT VDW BOUNDARY MISC KINETIC TOTAL TEMP POTENTIAL TOTALAVG TEMPAVG PRESSURE GPRESSURE VOLUME PRESSAVG GPRESSAVG
ENERGY: 0 3.8537 7.6045 6.0049 0.0000 -10776.0230 1470.4807 0.0000 0.0000 1732.2151 -7555.8641 295.5383 -9288.0791 -7555.8641 295.5383 -38.7634 34.4842 30027.3281 -38.7634 34.4842
ENERGY: 300000 2.8887 4.4377 6.0826 0.0000 -10714.1256 1468.5159 0.0000 0.0000 1746.2513 -7485.9493 297.9331 -9232.2006 -7475.1355 296.8716 -225.2868 -127.4529 30759.8687 70.9753 140.2576
ENERGY: 600000 3.4984 3.5848 12.0614 0.0000 -10634.1040 1410.0126 0.0000 0.0000 1765.9464 -7439.0004 301.2933 -9204.9468 -7462.3618 298.1067 -170.1946 -84.6808 30081.5544 137.5540 208.9483
ENERGY: 900000 5.8940 6.1277 6.2575 0.0000 -10746.0682 1454.7975 0.0000 0.0000 1766.4199 -7506.5717 301.3741 -9272.9916 -7463.6339 299.0732 44.7916 21.4135 29898.9375 42.4721 98.7163
ENERGY: 1200000 1.1337 4.1729 6.3647 0.0000 -10597.2588 1375.4288 0.0000 0.0000 1804.8946 -7405.2643 307.9384 -9210.1588 -7462.3695 299.6117 -471.4111 -398.0360 30089.3063 -14.4424 44.8313
ENERGY: 1500000 3.7796 6.8949 6.9786 0.0000 -10558.7329 1378.9793 0.0000 0.0000 1764.0465 -7398.0540 300.9692 -9162.1005 -7466.7540 299.0856 -672.4249 -600.7972 30526.9691 -104.8885 -46.0023
TCL: Running FEP window  19: Lambda1 0.09999999999999969 Lambda2 0.049999999999999684 [dLambda -0.05 ]
TCL: Setting parameter firsttimestep to 0
TCL: Setting parameter alchLambda to 0.09999999999999969
Info: NONBONDED TABLE R-SQUARED SPACING: 0.0625
Info: NONBONDED TABLE SIZE: 705 POINTS
TCL: Setting parameter alchLambda2 to 0.049999999999999684
Info: NONBONDED TABLE R-SQUARED SPACING: 0.0625
Info: NONBONDED TABLE SIZE: 705 POINTS
TCL: Running for 1500000 steps
ETITLE: TS BOND ANGLE DIHED IMPRP ELECT VDW BOUNDARY MISC KINETIC TOTAL TEMP POTENTIAL TOTALAVG TEMPAVG PRESSURE GPRESSURE VOLUME PRESSAVG GPRESSAVG
ENERGY: 0 3.7796 6.8949 6.9786 0.0000 -10558.7335 1378.9221 0.0000 0.0000 1763.1871 -7398.9711 300.8226 -9162.1583 -7398.9711 300.8226 -682.2521 -602.6369 30526.9691 -682.2521 -602.6369
ENERGY: 300000 3.5054 5.3970 8.4803 0.0000 -10609.7540 1426.2013 0.0000 0.0000 1754.0525 -7412.1175 299.2641 -9166.1700 -7427.0834 298.8153 -92.5191 -11.2047 30080.8350 50.1089 128.9953
ENERGY: 600000 2.2470 5.8104 6.9157 0.0000 -10632.9187 1464.5564 0.0000 0.0000 1738.6530 -7414.7361 296.6367 -9153.3891 -7449.6919 299.0051 74.8084 149.0730 30635.3239 174.0572 244.3484
ENERGY: 900000 5.0965 5.8715 8.1086 0.0000 -10667.5974 1452.0200 0.0000 0.0000 1767.0351 -7429.4658 301.4791 -9196.5009 -7459.6066 300.0714 -1.6589 76.2960 30240.5476 151.2470 219.2587
ENERGY: 1200000 2.2852 5.2310 5.2755 0.0000 -10680.5035 1464.4661 0.0000 0.0000 1790.4212 -7412.8245 305.4690 -9203.2457 -7452.4337 300.8358 27.5389 145.3054 30253.9410 124.0787 196.6630
ENERGY: 1500000 1.7554 6.3639 4.6826 0.0000 -10791.7695 1483.4677 0.0000 0.0000 1812.0814 -7483.4184 309.1646 -9295.4998 -7458.1342 300.7431 117.6288 125.5318 30121.2506 157.4134 221.6400
TCL: Running FEP window  20: Lambda1 0.049999999999999684 Lambda2 0.0    [dLambda -0.049999999999999684]
TCL: Setting parameter firsttimestep to 0
TCL: Setting parameter alchLambda to 0.049999999999999684
Info: NONBONDED TABLE R-SQUARED SPACING: 0.0625
Info: NONBONDED TABLE SIZE: 705 POINTS
TCL: Setting parameter alchLambda2 to 0.0
Info: NONBONDED TABLE R-SQUARED SPACING: 0.0625
Info: NONBONDED TABLE SIZE: 705 POINTS
TCL: Running for 1500000 steps
ETITLE: TS BOND ANGLE DIHED IMPRP ELECT VDW BOUNDARY MISC KINETIC TOTAL TEMP POTENTIAL TOTALAVG TEMPAVG PRESSURE GPRESSURE VOLUME PRESSAVG GPRESSAVG
ENERGY: 0 1.7554 6.3639 4.6826 0.0000 -10791.7694 1482.4006 0.0000 0.0000 1811.2097 -7485.3572 309.0158 -9296.5669 -7485.3572 309.0158 29.5378 120.5847 30121.2506 29.5378 120.5847
ENERGY: 300000 2.4607 3.4040 8.1628 0.0000 -10621.4132 1453.7413 0.0000 0.0000 1805.2534 -7348.3909 307.9996 -9153.6443 -7415.7396 305.7812 249.7210 290.1463 30251.4517 -74.9238 -14.7873
ENERGY: 600000 0.7361 4.5675 5.2620 0.0000 -10800.9127 1496.5544 0.0000 0.0000 1746.9377 -7546.8549 298.0502 -9293.7927 -7422.4513 303.7140 339.8632 373.6637 29840.0019 -113.7593 -47.2181
ENERGY: 900000 2.4731 7.5645 4.4250 0.0000 -10592.2713 1393.8931 0.0000 0.0000 1739.9110 -7444.0047 296.8513 -9183.9157 -7436.1500 300.9482 -695.9225 -614.3011 30565.9273 -70.7641 -10.5088
ENERGY: 1200000 3.9794 4.5930 4.1457 0.0000 -10579.8484 1334.6135 0.0000 0.0000 1768.3375 -7464.1794 301.7013 -9232.5168 -7439.0757 299.9420 -1322.2911 -1223.7103 30703.4916 -175.7485 -114.5718
ENERGY: 1500000 3.0673 7.6977 4.7263 0.0000 -10633.4370 1412.0256 0.0000 0.0000 1771.1835 -7434.7366 302.1868 -9205.9201 -7442.1271 299.6332 -522.9853 -368.0178 30569.6567 -164.8750 -97.1554
TCL: Exiting due to exit command.
