Info: SIMULATION PARAMETERS:
Info: TIMESTEP               2
Info: NUMBER OF STEPS        0
Info: STEPS PER CYCLE        10
Info: PERIODIC CELL BASIS 1  30.8986 0 0
Info: PERIODIC CELL BASIS 2  0 30.2367 0
Info: PERIODIC CELL BASIS 3  0 0 31.948
Info: PERIODIC CELL CENTER   0 0 0
Info: WRAPPING WATERS AROUND PERIODIC BOUNDARIES ON OUTPUT.
Info: WRAPPING ALL CLUSTERS AROUND PERIODIC BOUNDARIES ON OUTPUT.
Info: FIRST LDB TIMESTEP     50
Info: LAST LDB TIMESTEP     -1
Info: HOM BACKGROUND SCALING 1
Info: PME BACKGROUND SCALING 1
Info: MIN ATOMS PER PATCH    40
Info: EMPTY PATCH LOAD       40 ATOMS
Info: VELOCITY FILE          mobley_8436428_equil.vel
Info: CENTER OF MASS MOVING INITIALLY? NO
Info: DIELECTRIC             1
Info: EXCLUDE                SCALED ONE-FOUR
Info: 1-4 ELECTROSTATICS SCALED BY 0.833333
Info: MODIFIED 1-4 VDW PARAMETERS WILL BE USED
Info: DCD FILENAME           mobley_8436428_prod.dcd
Info: DCD FREQUENCY          100000
Info: DCD FIRST STEP         100000
Info: DCD FILE WILL CONTAIN UNIT CELL DATA
Info: XST FILENAME           mobley_8436428_prod.xst
Info: XST FREQUENCY          100000
Info: NO VELOCITY DCD OUTPUT
Info: NO FORCE DCD OUTPUT
Info: OUTPUT FILENAME        mobley_8436428_prod
Info: BINARY OUTPUT FILES WILL BE USED
Info: RESTART FILENAME       mobley_8436428_prod.restart
Info: RESTART FREQUENCY      100000
Info: BINARY RESTART FILES WILL BE USED
Info: CUTOFF                 9
Info: PAIRLIST DISTANCE      11
Info: PAIRLIST SHRINK RATE   0.01
Info: PAIRLIST GROW RATE     0.01
Info: PAIRLIST TRIGGER       0.3
Info: PAIRLISTS PER CYCLE    2
Info: PAIRLISTS ENABLED
Info: MARGIN                 2
Info: HYDROGEN GROUP CUTOFF  2.5
Info: PATCH DIMENSION        15.5
Info: ENERGY OUTPUT STEPS    100000
Info: ENERGY EVALUATION STEPS    100000
Info: OUTPUT ENERGY PRECISION 4
Info: CROSSTERM ENERGY INCLUDED IN DIHEDRAL
Info: TIMING OUTPUT STEPS    1000000
Info: PRESSURE OUTPUT STEPS  100000
Info: ALCHEMICAL FEP ON
Info: FEP CURRENT LAMBDA VALUE     1
Info: FEP COMPARISON LAMBDA VALUE  0.95
Info: FEP INTRA-ALCHEMICAL NON-BONDED INTERACTIONS WILL BE RETAINED
Info: FEP INTRA-ALCHEMICAL BONDED INTERACTIONS WILL BE RETAINED
Info: FEP VDW SHIFTING COEFFICIENT 5
Info: FEP ELEC. ACTIVE FOR ANNIHILATED PARTICLES BETWEEN LAMBDA = 0 AND LAMBDA = 0.5
Info: FEP ELEC. ACTIVE FOR EXNIHILATED PARTICLES BETWEEN LAMBDA = 0.5 AND LAMBDA = 1
Info: FEP VDW ACTIVE FOR ANNIHILATED PARTICLES BETWEEN LAMBDA = 0 AND LAMBDA = 1
Info: FEP VDW ACTIVE FOR EXNIHILATED PARTICLES BETWEEN LAMBDA = 0 AND LAMBDA = 1
Info: FEP BOND ACTIVE FOR ANNIHILATED PARTICLES BETWEEN LAMBDA = 1 AND LAMBDA = 1
Info: FEP BOND ACTIVE FOR EXNIHILATED PARTICLES BETWEEN LAMBDA = 0 AND LAMBDA = 0
Info: LANGEVIN DYNAMICS ACTIVE
Info: LANGEVIN TEMPERATURE   300
Info: LANGEVIN USING BBK INTEGRATOR
Info: LANGEVIN DAMPING COEFFICIENT IS 1 INVERSE PS
Info: LANGEVIN DYNAMICS APPLIED TO HYDROGENS
Info: LANGEVIN PISTON PRESSURE CONTROL ACTIVE
Info:        TARGET PRESSURE IS 1.01325 BAR
Info:     OSCILLATION PERIOD IS 50 FS
Info:             DECAY TIME IS 25 FS
Info:     PISTON TEMPERATURE IS 300 K
Info:       PRESSURE CONTROL IS GROUP-BASED
Info:    INITIAL STRAIN RATE IS -0.000806156 -0.000806156 -0.000806156
Info:       CELL FLUCTUATION IS ISOTROPIC
Info: PARTICLE MESH EWALD (PME) ACTIVE
Info: PME TOLERANCE               1e-06
Info: PME EWALD COEFFICIENT       0.348832
Info: PME INTERPOLATION ORDER     4
Info: PME GRID DIMENSIONS         32 32 32
Info: PME MAXIMUM GRID SPACING    1
Info: PME CALCULATION WILL BE PERFORMED ON GPU
Info: FULL ELECTROSTATIC EVALUATION FREQUENCY      2
Info: USING VERLET I (r-RESPA) MTS SCHEME.
Info: C1 SPLITTING OF LONG RANGE ELECTROSTATICS
Info: PLACING ATOMS IN PATCHES BY HYDROGEN GROUPS
Info: RIGID BONDS TO HYDROGEN : ALL
Info:         ERROR TOLERANCE : 1e-08
Info:          MAX ITERATIONS : 100
Info: RIGID WATER USING SETTLE ALGORITHM
Info: RANDOM NUMBER SEED     1743884415
Info: USE HYDROGEN BONDS?    NO
Info: Using AMBER format force field!
Info: AMBER PARM FILE        mobley_8436428.prmtop
Info: COORDINATE PDB         mobley_8436428.pdb
Info: Exclusions will be read from PARM file!
Info: SCNB (VDW SCALING)     2
Info: USING ARITHMETIC MEAN TO COMBINE L-J SIGMA PARAMETERS
Info: BINARY COORDINATES     mobley_8436428_equil.coor
Info: SUMMARY OF PARAMETERS:
Info: 4 BONDS
Info: 3 ANGLES
Info:   3 HARMONIC
Info:   0 COSINE-BASED
Info: 5 DIHEDRAL
Info: 0 IMPROPER
Info: 0 CROSSTERM
Info: 0 VDW
Info: 10 VDW_PAIRS
Info: 0 NBTHOLE_PAIRS
Info: To read alchdata from file: mobley_8436428.pdb
Info: To read alchflag data from column: 5
Info: STRUCTURE SUMMARY:
Info: 2909 ATOMS
Info: 2908 BONDS
Info: 42 ANGLES
Info: 62 DIHEDRALS
Info: 0 IMPROPERS
Info: 0 CROSSTERMS
Info: 3004 EXCLUSIONS
Info: 2902 RIGID BONDS
Info: ALCH: 0 ATOMS TO DISAPPEAR IN FINAL STATE
Info: ALCH: 23 ATOMS TO APPEAR IN FINAL STATE
Info: 5825 DEGREES OF FREEDOM
Info: 969 HYDROGEN GROUPS
Info: 4 ATOMS IN LARGEST HYDROGEN GROUP
Info: 969 MIGRATION GROUPS
Info: 4 ATOMS IN LARGEST MIGRATION GROUP
Info: TOTAL MASS = 17431.6 amu
Info: TOTAL CHARGE = 0.000399984 e
Info: MASS DENSITY = 0.969795 g/cm^3
Info: ATOM DENSITY = 0.0974602 atoms/A^3
Info: ADDED 0 IMPLICIT EXCLUSIONS
Info: NONBONDED TABLE R-SQUARED SPACING: 0.0625
Info: NONBONDED TABLE SIZE: 705 POINTS
Info: REMOVING COM VELOCITY 0.0232748 0.0820462 -0.052759
Info: Use 3D box decompostion in PME FFT.
Info: Updated CUDA force table with 4096 elements.
Info: Updated CUDA LJ table with 4 x 4 elements.
Info: Found 26 unique exclusion lists needing 80 bytes
TCL: Running for 1500000 steps
ETITLE: TS BOND ANGLE DIHED IMPRP ELECT VDW BOUNDARY MISC KINETIC TOTAL TEMP POTENTIAL TOTALAVG TEMPAVG PRESSURE GPRESSURE VOLUME PRESSAVG GPRESSAVG
ENERGY: 0 2.1155 18.4485 3.0781 0.0000 -10671.7969 1517.7994 0.0000 0.0000 1784.1115 -7346.2439 308.2595 -9130.3553 -7346.2439 308.2595 828.1195 909.5992 29848.0751 828.1195 909.5992
ENERGY: 300000 3.7527 8.2504 3.1439 0.0000 -10547.8189 1438.9141 0.0000 0.0000 1742.8037 -7350.9541 301.1223 -9093.7578 -7339.0254 300.6074 53.2360 135.9038 29869.5425 285.0826 356.6944
ENERGY: 600000 0.9386 8.6775 2.6479 0.0000 -10443.5545 1339.5941 0.0000 0.0000 1769.8065 -7321.8898 305.7879 -9091.6963 -7336.7882 300.7608 -393.4791 -287.2723 29771.5776 55.2229 130.1620
ENERGY: 900000 1.3176 9.7824 6.0647 0.0000 -10361.4150 1351.1873 0.0000 0.0000 1734.1028 -7258.9602 299.6190 -8993.0630 -7342.9874 300.1125 -300.4543 -279.5295 30314.7469 11.8389 77.8690
ENERGY: 1200000 2.4077 9.7277 4.9374 0.0000 -10460.2080 1343.5499 0.0000 0.0000 1752.3161 -7347.2691 302.7659 -9099.5852 -7340.5036 300.0950 -778.2355 -661.5467 30149.7984 0.3073 67.5786
ENERGY: 1500000 1.1052 13.7807 4.8962 0.0000 -10430.8151 1338.6227 0.0000 0.0000 1715.1933 -7357.2170 296.3518 -9072.4103 -7334.8275 300.1749 -696.5528 -597.3990 30291.1044 -23.0245 42.2827
TCL: Running FEP window   2: Lambda1 0.95   Lambda2 0.8999999999999999 [dLambda -0.050000000000000044]
TCL: Setting parameter firsttimestep to 0
TCL: Setting parameter alchLambda to 0.95
Info: NONBONDED TABLE R-SQUARED SPACING: 0.0625
Info: NONBONDED TABLE SIZE: 705 POINTS
TCL: Setting parameter alchLambda2 to 0.8999999999999999
Info: NONBONDED TABLE R-SQUARED SPACING: 0.0625
Info: NONBONDED TABLE SIZE: 705 POINTS
TCL: Running for 1500000 steps
ETITLE: TS BOND ANGLE DIHED IMPRP ELECT VDW BOUNDARY MISC KINETIC TOTAL TEMP POTENTIAL TOTALAVG TEMPAVG PRESSURE GPRESSURE VOLUME PRESSAVG GPRESSAVG
ENERGY: 0 1.1052 13.7807 4.8962 0.0000 -10430.7978 1338.2888 0.0000 0.0000 1714.3362 -7358.3906 296.2037 -9072.7268 -7358.3906 296.2037 -711.4745 -617.4438 30291.1044 -711.4745 -617.4438
ENERGY: 300000 2.5019 7.6487 3.1139 0.0000 -10399.0450 1332.8075 0.0000 0.0000 1701.4828 -7351.4902 293.9829 -9052.9731 -7360.6924 295.8795 -608.4081 -550.2089 30285.9897 -520.6741 -470.8920
ENERGY: 600000 2.8323 9.0842 2.3412 0.0000 -10575.1902 1407.9716 0.0000 0.0000 1682.1718 -7470.7892 290.6463 -9152.9609 -7381.5593 295.4613 -228.3447 -122.2526 29483.6463 -378.2573 -303.8913
ENERGY: 900000 4.0728 11.6900 4.0966 0.0000 -10417.4089 1431.6173 0.0000 0.0000 1747.9762 -7217.9559 302.0160 -8965.9321 -7348.1252 297.2002 584.9347 631.6346 29743.3197 -195.9506 -126.3413
ENERGY: 1200000 2.9451 6.6124 5.2948 0.0000 -10374.6802 1328.4796 0.0000 0.0000 1740.7344 -7290.6138 300.7648 -9031.3482 -7342.8606 297.8647 -582.2230 -545.4365 30100.6702 -183.0088 -118.9981
ENERGY: 1500000 0.6509 10.7151 3.0355 0.0000 -10560.3379 1420.8460 0.0000 0.0000 1729.0131 -7396.0774 298.7396 -9125.0905 -7348.2071 298.1352 53.1293 118.0936 29692.3996 -186.6312 -126.6039
TCL: Running FEP window   3: Lambda1 0.8999999999999999 Lambda2 0.8499999999999999 [dLambda -0.050000000000000044]
TCL: Setting parameter firsttimestep to 0
TCL: Setting parameter alchLambda to 0.8999999999999999
Info: NONBONDED TABLE R-SQUARED SPACING: 0.0625
Info: NONBONDED TABLE SIZE: 705 POINTS
TCL: Setting parameter alchLambda2 to 0.8499999999999999
Info: NONBONDED TABLE R-SQUARED SPACING: 0.0625
Info: NONBONDED TABLE SIZE: 705 POINTS
TCL: Running for 1500000 steps
ETITLE: TS BOND ANGLE DIHED IMPRP ELECT VDW BOUNDARY MISC KINETIC TOTAL TEMP POTENTIAL TOTALAVG TEMPAVG PRESSURE GPRESSURE VOLUME PRESSAVG GPRESSAVG
ENERGY: 0 0.6509 10.7151 3.0355 0.0000 -10560.2960 1421.3289 0.0000 0.0000 1728.1855 -7396.3802 298.5966 -9124.5657 -7396.3802 298.5966 38.1487 111.7369 29692.3996 38.1487 111.7369
ENERGY: 300000 1.0815 9.8327 2.4984 0.0000 -10444.9678 1383.8100 0.0000 0.0000 1741.9952 -7305.7500 300.9826 -9047.7452 -7337.6513 301.9698 -98.1648 -16.3266 29983.9004 37.7994 114.6754
ENERGY: 600000 2.9782 9.9993 3.1279 0.0000 -10477.9673 1443.4812 0.0000 0.0000 1729.1188 -7289.2619 298.7578 -9018.3806 -7333.6272 301.1265 85.8427 246.4142 30293.6737 72.5913 161.6388
ENERGY: 900000 0.3413 9.3586 2.9288 0.0000 -10376.7610 1368.5969 0.0000 0.0000 1708.4693 -7287.0662 295.1900 -8995.5355 -7316.9848 300.9810 -233.9391 -147.2714 30201.5412 -54.3703 26.5780
ENERGY: 1200000 3.2515 8.2284 3.4531 0.0000 -10386.7743 1385.0167 0.0000 0.0000 1820.5231 -7166.3015 314.5507 -8986.8246 -7311.3431 302.4871 -179.6658 -143.6544 30717.1436 -59.9026 9.3179
ENERGY: 1500000 1.1717 15.5810 2.3973 0.0000 -10484.0335 1410.8705 0.0000 0.0000 1709.7641 -7344.2489 295.4137 -9054.0130 -7316.3424 302.2358 262.7454 331.2489 29642.7799 -79.9222 -12.4569
TCL: Running FEP window   4: Lambda1 0.8499999999999999 Lambda2 0.7999999999999998 [dLambda -0.050000000000000044]
TCL: Setting parameter firsttimestep to 0
TCL: Setting parameter alchLambda to 0.8499999999999999
Info: NONBONDED TABLE R-SQUARED SPACING: 0.0625
Info: NONBONDED TABLE SIZE: 705 POINTS
TCL: Setting parameter alchLambda2 to 0.7999999999999998
Info: NONBONDED TABLE R-SQUARED SPACING: 0.0625
Info: NONBONDED TABLE SIZE: 705 POINTS
TCL: Running for 1500000 steps
ETITLE: TS BOND ANGLE DIHED IMPRP ELECT VDW BOUNDARY MISC KINETIC TOTAL TEMP POTENTIAL TOTALAVG TEMPAVG PRESSURE GPRESSURE VOLUME PRESSAVG GPRESSAVG
ENERGY: 0 1.1717 15.5810 2.3973 0.0000 -10484.0437 1410.2983 0.0000 0.0000 1708.8826 -7345.7129 295.2614 -9054.5955 -7345.7129 295.2614 210.3242 307.8111 29642.7799 210.3242 307.8111
ENERGY: 300000 2.4313 12.8771 3.0575 0.0000 -10440.1515 1401.2808 0.0000 0.0000 1781.3338 -7239.1711 307.7796 -9020.5049 -7302.8356 297.4558 -179.8872 -91.5559 30298.7934 56.2186 120.5808
ENERGY: 600000 1.8186 13.6231 3.2123 0.0000 -10445.5422 1442.2527 0.0000 0.0000 1754.2696 -7230.3659 303.1034 -8984.6355 -7290.2148 300.5198 315.0988 400.8358 30314.8411 -22.8116 36.9824
ENERGY: 900000 0.5944 9.4266 3.4656 0.0000 -10481.8210 1402.2472 0.0000 0.0000 1688.1367 -7377.9504 291.6769 -9066.0871 -7327.0979 299.2583 -5.4801 3.5069 29798.6832 -21.3354 46.7017
ENERGY: 1200000 2.4011 15.4152 2.9641 0.0000 -10408.3513 1346.6698 0.0000 0.0000 1743.3625 -7297.5386 301.2189 -9040.9011 -7334.5017 298.7028 -571.1843 -484.7548 30036.2042 -139.3325 -69.5103
ENERGY: 1500000 1.9394 9.8595 4.0160 0.0000 -10471.4055 1405.3802 0.0000 0.0000 1733.7404 -7316.4701 299.5563 -9050.2105 -7336.3719 298.3850 107.9215 130.5726 29662.3452 -200.4647 -129.3681
TCL: Running FEP window   5: Lambda1 0.7999999999999998 Lambda2 0.7499999999999998 [dLambda -0.050000000000000044]
TCL: Setting parameter firsttimestep to 0
TCL: Setting parameter alchLambda to 0.7999999999999998
Info: NONBONDED TABLE R-SQUARED SPACING: 0.0625
Info: NONBONDED TABLE SIZE: 705 POINTS
TCL: Setting parameter alchLambda2 to 0.7499999999999998
Info: NONBONDED TABLE R-SQUARED SPACING: 0.0625
Info: NONBONDED TABLE SIZE: 705 POINTS
TCL: Running for 1500000 steps
ETITLE: TS BOND ANGLE DIHED IMPRP ELECT VDW BOUNDARY MISC KINETIC TOTAL TEMP POTENTIAL TOTALAVG TEMPAVG PRESSURE GPRESSURE VOLUME PRESSAVG GPRESSAVG
ENERGY: 0 1.9394 9.8595 4.0160 0.0000 -10471.4093 1405.8468 0.0000 0.0000 1732.8578 -7316.8898 299.4039 -9049.7476 -7316.8898 299.4039 59.5875 125.7136 29662.3452 59.5875 125.7136
ENERGY: 300000 1.4404 12.3187 3.6991 0.0000 -10466.4416 1407.5596 0.0000 0.0000 1788.1903 -7253.2337 308.9642 -9041.4239 -7295.4403 303.5275 316.9333 327.9811 29494.7553 522.4279 563.2119
ENERGY: 600000 2.1173 11.7137 2.8917 0.0000 -10688.2369 1490.1100 0.0000 0.0000 1766.3876 -7415.0167 305.1971 -9181.4043 -7329.1062 303.0235 806.5649 849.7364 28830.5609 450.7528 505.7224
ENERGY: 900000 6.2161 11.5869 2.6453 0.0000 -10445.1898 1402.3154 0.0000 0.0000 1717.4356 -7304.9905 296.7392 -9022.4261 -7325.0507 302.2482 -119.5408 -56.7953 30040.0999 289.2021 354.1734
ENERGY: 1200000 1.4046 11.1071 3.1921 0.0000 -10502.1245 1405.3734 0.0000 0.0000 1696.2192 -7384.8281 293.0734 -9081.0473 -7328.4334 301.1567 -119.4804 -55.6247 29847.7108 154.3038 221.3426
ENERGY: 1500000 0.8637 12.4449 3.3118 0.0000 -10414.2302 1357.5985 0.0000 0.0000 1734.4586 -7305.5526 299.6804 -9040.0112 -7321.0468 301.3006 -501.7021 -418.4065 30436.9268 25.9503 91.1605
TCL: Running FEP window   6: Lambda1 0.7499999999999998 Lambda2 0.6999999999999997 [dLambda -0.050000000000000044]
TCL: Setting parameter firsttimestep to 0
TCL: Setting parameter alchLambda to 0.7499999999999998
Info: NONBONDED TABLE R-SQUARED SPACING: 0.0625
Info: NONBONDED TABLE SIZE: 705 POINTS
TCL: Setting parameter alchLambda2 to 0.6999999999999997
Info: NONBONDED TABLE R-SQUARED SPACING: 0.0625
Info: NONBONDED TABLE SIZE: 705 POINTS
TCL: Running for 1500000 steps
ETITLE: TS BOND ANGLE DIHED IMPRP ELECT VDW BOUNDARY MISC KINETIC TOTAL TEMP POTENTIAL TOTALAVG TEMPAVG PRESSURE GPRESSURE VOLUME PRESSAVG GPRESSAVG
ENERGY: 0 0.8637 12.4449 3.3118 0.0000 -10414.1811 1358.1493 0.0000 0.0000 1733.5932 -7305.8182 299.5309 -9039.4114 -7305.8182 299.5309 -507.1092 -425.5820 30436.9268 -507.1092 -425.5820
ENERGY: 300000 1.4453 12.6771 6.0438 0.0000 -10448.3267 1381.7610 0.0000 0.0000 1744.1425 -7302.2571 301.3536 -9046.3995 -7350.2170 298.4455 -179.2735 -124.9535 29854.8670 -286.1961 -219.8869
ENERGY: 600000 1.8608 10.3247 2.4748 0.0000 -10556.9887 1396.2819 0.0000 0.0000 1756.3922 -7389.6543 303.4701 -9146.0465 -7342.3339 300.6356 -163.7969 -117.9338 29501.8091 -168.3006 -115.8162
ENERGY: 900000 0.7203 9.3684 5.6255 0.0000 -10536.6576 1377.7424 0.0000 0.0000 1768.6213 -7374.5798 305.5831 -9143.2010 -7348.7257 300.8557 -727.2554 -703.9815 30265.2460 -359.7350 -308.0459
ENERGY: 1200000 0.7467 13.8506 3.6297 0.0000 -10571.3237 1434.2997 0.0000 0.0000 1765.6422 -7353.1549 305.0684 -9118.7971 -7346.3109 300.2766 324.8567 428.1132 29440.0749 -262.2340 -204.4401
ENERGY: 1500000 2.9254 11.2957 3.2525 0.0000 -10448.5908 1407.3038 0.0000 0.0000 1733.7903 -7290.0230 299.5650 -9023.8133 -7345.5603 300.1504 346.5612 475.9396 29417.8456 -208.6815 -147.6983
TCL: Running FEP window   7: Lambda1 0.6999999999999997 Lambda2 0.6499999999999997 [dLambda -0.050000000000000044]
TCL: Setting parameter firsttimestep to 0
TCL: Setting parameter alchLambda to 0.6999999999999997
Info: NONBONDED TABLE R-SQUARED SPACING: 0.0625
Info: NONBONDED TABLE SIZE: 705 POINTS
TCL: Setting parameter alchLambda2 to 0.6499999999999997
Info: NONBONDED TABLE R-SQUARED SPACING: 0.0625
Info: NONBONDED TABLE SIZE: 705 POINTS
TCL: Running for 1500000 steps
ETITLE: TS BOND ANGLE DIHED IMPRP ELECT VDW BOUNDARY MISC KINETIC TOTAL TEMP POTENTIAL TOTALAVG TEMPAVG PRESSURE GPRESSURE VOLUME PRESSAVG GPRESSAVG
ENERGY: 0 2.9254 11.2957 3.2525 0.0000 -10448.5992 1407.1800 0.0000 0.0000 1732.9377 -7291.0080 299.4177 -9023.9457 -7291.0080 299.4177 368.9805 461.4277 29417.8456 368.9805 461.4277
ENERGY: 300000 2.5196 11.2543 2.2790 0.0000 -10447.6727 1392.4945 0.0000 0.0000 1736.4648 -7302.6606 300.0271 -9039.1253 -7297.6601 303.9364 -473.7220 -394.8835 30335.9382 -114.2119 -29.7200
ENERGY: 600000 2.0528 13.9545 3.9401 0.0000 -10458.9775 1390.8757 0.0000 0.0000 1731.0832 -7317.0712 299.0972 -9048.1544 -7299.4783 303.2895 -286.7241 -245.6961 30376.6175 -283.9151 -215.3424
ENERGY: 900000 1.8990 10.4062 2.4633 0.0000 -10559.0941 1486.6391 0.0000 0.0000 1772.1263 -7285.5602 306.1887 -9057.6865 -7297.9625 303.6686 694.0269 738.9992 29949.8858 -124.9290 -64.3289
ENERGY: 1200000 1.6210 5.6520 2.7497 0.0000 -10585.1714 1436.9603 0.0000 0.0000 1690.8445 -7447.3439 292.1448 -9138.1883 -7315.2891 302.0711 349.1592 439.5586 29254.2296 -56.5357 -2.4082
ENERGY: 1500000 4.5900 8.7312 3.7541 0.0000 -10575.8083 1422.4520 0.0000 0.0000 1767.1856 -7369.0953 305.3350 -9136.2809 -7314.9711 303.2166 -67.7749 -23.6416 29628.7601 -63.5702 -5.5399
TCL: Running FEP window   8: Lambda1 0.6499999999999997 Lambda2 0.5999999999999996 [dLambda -0.050000000000000044]
TCL: Setting parameter firsttimestep to 0
TCL: Setting parameter alchLambda to 0.6499999999999997
Info: NONBONDED TABLE R-SQUARED SPACING: 0.0625
Info: NONBONDED TABLE SIZE: 705 POINTS
TCL: Setting parameter alchLambda2 to 0.5999999999999996
Info: NONBONDED TABLE R-SQUARED SPACING: 0.0625
Info: NONBONDED TABLE SIZE: 705 POINTS
TCL: Running for 1500000 steps
ETITLE: TS BOND ANGLE DIHED IMPRP ELECT VDW BOUNDARY MISC KINETIC TOTAL TEMP POTENTIAL TOTALAVG TEMPAVG PRESSURE GPRESSURE VOLUME PRESSAVG GPRESSAVG
ENERGY: 0 4.5900 8.7312 3.7541 0.0000 -10575.8378 1422.3998 0.0000 0.0000 1766.3417 -7370.0209 305.1892 -9136.3626 -7370.0209 305.1892 -115.1016 -35.5037 29628.7601 -115.1016 -35.5037
ENERGY: 300000 2.0214 13.7651 3.2336 0.0000 -10478.0458 1402.5669 0.0000 0.0000 1757.0537 -7299.4049 303.5844 -9056.4586 -7323.8264 302.6216 -193.5952 -153.0830 30094.8097 -106.2111 -49.0508
ENERGY: 600000 3.3504 13.5711 3.1793 0.0000 -10496.0671 1364.6116 0.0000 0.0000 1715.9682 -7395.3865 296.4857 -9111.3547 -7340.9745 300.4065 -445.5588 -397.3132 29891.6015 -259.0228 -204.1997
ENERGY: 900000 1.7982 12.2074 2.7941 0.0000 -10387.5263 1293.6454 0.0000 0.0000 1785.9498 -7291.1314 308.5771 -9077.0811 -7341.3768 300.5314 -1049.2392 -1009.2515 29918.2650 -294.4724 -234.6919
ENERGY: 1200000 1.9516 15.1802 3.8086 0.0000 -10517.7062 1403.7187 0.0000 0.0000 1693.7015 -7399.3456 292.6384 -9093.0471 -7342.1315 299.4936 -268.3338 -229.0281 29860.9293 -338.3746 -281.3180
ENERGY: 1500000 3.0229 12.7281 5.4837 0.0000 -10577.4328 1487.7914 0.0000 0.0000 1780.3127 -7288.0939 307.6031 -9068.4066 -7354.5583 298.8342 570.2919 575.7120 29810.0558 -185.2443 -130.1553
TCL: Running FEP window   9: Lambda1 0.5999999999999996 Lambda2 0.5499999999999996 [dLambda -0.050000000000000044]
TCL: Setting parameter firsttimestep to 0
TCL: Setting parameter alchLambda to 0.5999999999999996
Info: NONBONDED TABLE R-SQUARED SPACING: 0.0625
Info: NONBONDED TABLE SIZE: 705 POINTS
TCL: Setting parameter alchLambda2 to 0.5499999999999996
Info: NONBONDED TABLE R-SQUARED SPACING: 0.0625
Info: NONBONDED TABLE SIZE: 705 POINTS
TCL: Running for 1500000 steps
ETITLE: TS BOND ANGLE DIHED IMPRP ELECT VDW BOUNDARY MISC KINETIC TOTAL TEMP POTENTIAL TOTALAVG TEMPAVG PRESSURE GPRESSURE VOLUME PRESSAVG GPRESSAVG
ENERGY: 0 3.0229 12.7281 5.4837 0.0000 -10577.4213 1488.2630 0.0000 0.0000 1779.4559 -7288.4677 307.4551 -9067.9236 -7288.4677 307.4551 495.0365 573.8616 29810.0558 495.0365 573.8616
ENERGY: 300000 2.0050 7.4005 3.1498 0.0000 -10414.9703 1375.8480 0.0000 0.0000 1701.5265 -7325.0405 293.9904 -9026.5671 -7332.8344 299.9770 -348.2702 -264.9683 29970.3599 39.7824 113.2573
ENERGY: 600000 1.3885 15.3357 5.3781 0.0000 -10442.6627 1310.2881 0.0000 0.0000 1754.7530 -7355.5193 303.1869 -9110.2723 -7332.9109 300.9814 -958.9937 -929.2542 29748.6131 -211.2522 -142.0940
ENERGY: 900000 2.6023 14.4204 3.6015 0.0000 -10382.1745 1337.1201 0.0000 0.0000 1716.4155 -7308.0148 296.5629 -9024.4303 -7336.5139 299.9916 -669.9443 -633.7921 30197.9903 -310.2447 -244.1377
ENERGY: 1200000 1.1579 11.7033 3.5667 0.0000 -10469.2635 1389.8000 0.0000 0.0000 1729.1364 -7333.8992 298.7609 -9063.0356 -7333.8388 300.7495 -285.7497 -248.0166 30191.8141 -225.1271 -164.7613
ENERGY: 1500000 2.6496 8.7955 5.0969 0.0000 -10399.8082 1373.7946 0.0000 0.0000 1707.3710 -7302.1005 295.0002 -9009.4715 -7328.6140 300.8971 -233.1642 -153.5769 29880.2681 -238.2726 -178.3768
TCL: Running FEP window  10: Lambda1 0.5499999999999996 Lambda2 0.4999999999999996 [dLambda -0.04999999999999999]
TCL: Setting parameter firsttimestep to 0
TCL: Setting parameter alchLambda to 0.5499999999999996
Info: NONBONDED TABLE R-SQUARED SPACING: 0.0625
Info: NONBONDED TABLE SIZE: 705 POINTS
TCL: Setting parameter alchLambda2 to 0.4999999999999996
Info: NONBONDED TABLE R-SQUARED SPACING: 0.0625
Info: NONBONDED TABLE SIZE: 705 POINTS
TCL: Running for 1500000 steps
ETITLE: TS BOND ANGLE DIHED IMPRP ELECT VDW BOUNDARY MISC KINETIC TOTAL TEMP POTENTIAL TOTALAVG TEMPAVG PRESSURE GPRESSURE VOLUME PRESSAVG GPRESSAVG
ENERGY: 0 2.6497 8.7955 5.0969 0.0000 -10399.8469 1373.9189 0.0000 0.0000 1706.4540 -7302.9319 294.8418 -9009.3859 -7302.9319 294.8418 -245.1271 -161.8229 29880.2681 -245.1271 -161.8229
ENERGY: 300000 2.8911 10.5565 2.4414 0.0000 -10512.0818 1411.3461 0.0000 0.0000 1726.8879 -7357.9589 298.3724 -9084.8468 -7306.5960 301.6333 -400.5542 -312.3626 29968.2102 103.5716 182.4639
ENERGY: 600000 2.1689 11.9772 5.7160 0.0000 -10492.8620 1458.5899 0.0000 0.0000 1697.6151 -7316.7949 293.3146 -9014.4100 -7334.4683 299.3675 571.9607 663.5593 29452.5613 66.4682 140.6195
ENERGY: 900000 2.1183 10.0446 3.1390 0.0000 -10535.1841 1419.9811 0.0000 0.0000 1738.4689 -7361.4322 300.3733 -9099.9012 -7330.1255 298.7760 -10.2549 50.6436 29706.0872 -110.9880 -35.6208
ENERGY: 1200000 1.3656 12.1006 3.0851 0.0000 -10413.4493 1431.1473 0.0000 0.0000 1760.4371 -7205.3137 304.1690 -8965.7508 -7320.0926 299.3813 466.8408 496.0795 29809.9897 -122.6066 -51.0980
ENERGY: 1500000 3.1270 12.1758 3.1475 0.0000 -10469.5131 1425.5826 0.0000 0.0000 1735.0773 -7290.4029 299.7873 -9025.4802 -7316.9180 299.4784 -49.8478 23.4242 30172.1187 -143.5175 -77.3420
TCL: Running FEP window  11: Lambda1 0.4999999999999996 Lambda2 0.4499999999999996 [dLambda -0.04999999999999999]
TCL: Setting parameter firsttimestep to 0
TCL: Setting parameter alchLambda to 0.4999999999999996
Info: NONBONDED TABLE R-SQUARED SPACING: 0.0625
Info: NONBONDED TABLE SIZE: 705 POINTS
TCL: Setting parameter alchLambda2 to 0.4499999999999996
Info: NONBONDED TABLE R-SQUARED SPACING: 0.0625
Info: NONBONDED TABLE SIZE: 705 POINTS
TCL: Running for 1500000 steps
ETITLE: TS BOND ANGLE DIHED IMPRP ELECT VDW BOUNDARY MISC KINETIC TOTAL TEMP POTENTIAL TOTALAVG TEMPAVG PRESSURE GPRESSURE VOLUME PRESSAVG GPRESSAVG
ENERGY: 0 3.1270 12.1758 3.1475 0.0000 -10469.5185 1425.6544 0.0000 0.0000 1734.2409 -7291.1729 299.6428 -9025.4138 -7291.1729 299.6428 -80.5231 14.9650 30172.1187 -80.5231 14.9650
ENERGY: 300000 1.2588 8.2512 2.6900 0.0000 -10605.0322 1499.9719 0.0000 0.0000 1721.5596 -7371.3008 297.4517 -9092.8604 -7317.0373 301.8316 632.7551 678.7496 29748.8202 68.3845 137.9611
ENERGY: 600000 4.7389 14.1970 2.3080 0.0000 -10648.9534 1501.7784 0.0000 0.0000 1805.3917 -7320.5393 311.9363 -9125.9310 -7333.5743 301.6612 706.8637 692.6400 29516.5574 346.9047 401.0583
ENERGY: 900000 1.1527 10.7435 3.2571 0.0000 -10642.3844 1469.7470 0.0000 0.0000 1736.4140 -7421.0700 300.0183 -9157.4840 -7332.7253 301.4245 293.7560 354.8107 29674.8604 229.0724 273.4093
ENERGY: 1200000 1.5610 15.8047 2.9151 0.0000 -10359.6751 1365.5103 0.0000 0.0000 1664.7109 -7309.1732 287.6294 -8973.8841 -7341.5139 299.9251 -107.5014 -72.5700 29845.7811 113.3678 161.3735
ENERGY: 1500000 3.2570 12.5630 3.9087 0.0000 -10401.3391 1356.1308 0.0000 0.0000 1683.2787 -7342.2008 290.8376 -9025.4796 -7342.6171 299.0200 -401.1858 -374.1917 30103.8471 138.1817 185.6214
TCL: Running FEP window  12: Lambda1 0.4499999999999996 Lambda2 0.39999999999999963 [dLambda -0.04999999999999999]
TCL: Setting parameter firsttimestep to 0
TCL: Setting parameter alchLambda to 0.4499999999999996
Info: NONBONDED TABLE R-SQUARED SPACING: 0.0625
Info: NONBONDED TABLE SIZE: 705 POINTS
TCL: Setting parameter alchLambda2 to 0.39999999999999963
Info: NONBONDED TABLE R-SQUARED SPACING: 0.0625
Info: NONBONDED TABLE SIZE: 705 POINTS
TCL: Running for 1500000 steps
ETITLE: TS BOND ANGLE DIHED IMPRP ELECT VDW BOUNDARY MISC KINETIC TOTAL TEMP POTENTIAL TOTALAVG TEMPAVG PRESSURE GPRESSURE VOLUME PRESSAVG GPRESSAVG
ENERGY: 0 3.2570 12.5630 3.9087 0.0000 -10401.3390 1355.9285 0.0000 0.0000 1682.4124 -7343.2694 290.6879 -9025.6818 -7343.2694 290.6879 -459.5572 -383.9141 30103.8471 -459.5572 -383.9141
ENERGY: 300000 2.9006 9.6348 3.1547 0.0000 -10458.7837 1377.7411 0.0000 0.0000 1701.5062 -7363.8462 293.9869 -9065.3525 -7341.0321 296.1853 -203.3766 -131.1862 29645.8896 -249.6592 -174.5592
ENERGY: 600000 2.8222 11.0277 2.3373 0.0000 -10454.6733 1441.0809 0.0000 0.0000 1733.9643 -7263.4410 299.5950 -8997.4053 -7297.4177 299.0955 421.6831 477.1507 30036.7379 -132.0965 -58.5080
ENERGY: 900000 3.2382 13.5242 2.8354 0.0000 -10611.5981 1477.3425 0.0000 0.0000 1697.9269 -7416.7310 293.3685 -9114.6578 -7309.4055 298.5527 568.7104 604.5495 29254.1115 -34.6632 34.3515
ENERGY: 1200000 5.5646 12.3070 6.0086 0.0000 -10503.6362 1427.5524 0.0000 0.0000 1798.1736 -7254.0302 310.6891 -9052.2038 -7306.7139 299.3248 -25.9236 -0.4161 29893.9530 -141.3700 -83.8267
ENERGY: 1500000 2.9322 12.1196 3.9564 0.0000 -10494.6765 1436.2698 0.0000 0.0000 1729.5404 -7309.8580 298.8307 -9039.3984 -7313.1525 299.2771 50.6621 119.1158 30064.0817 -146.3944 -88.5063
TCL: Running FEP window  13: Lambda1 0.39999999999999963 Lambda2 0.34999999999999964 [dLambda -0.04999999999999999]
TCL: Setting parameter firsttimestep to 0
TCL: Setting parameter alchLambda to 0.39999999999999963
Info: NONBONDED TABLE R-SQUARED SPACING: 0.0625
Info: NONBONDED TABLE SIZE: 705 POINTS
TCL: Setting parameter alchLambda2 to 0.34999999999999964
Info: NONBONDED TABLE R-SQUARED SPACING: 0.0625
Info: NONBONDED TABLE SIZE: 705 POINTS
TCL: Running for 1500000 steps
ETITLE: TS BOND ANGLE DIHED IMPRP ELECT VDW BOUNDARY MISC KINETIC TOTAL TEMP POTENTIAL TOTALAVG TEMPAVG PRESSURE GPRESSURE VOLUME PRESSAVG GPRESSAVG
ENERGY: 0 2.9322 12.1196 3.9564 0.0000 -10494.6756 1436.5854 0.0000 0.0000 1728.7152 -7310.3668 298.6881 -9039.0820 -7310.3668 298.6881 24.7307 117.9772 30064.0817 24.7307 117.9772
ENERGY: 300000 3.3063 9.8672 8.1306 0.0000 -10405.6992 1324.8902 0.0000 0.0000 1732.8889 -7326.6159 299.4092 -9059.5048 -7321.5717 300.5727 -814.7142 -765.9144 30476.9414 -386.1845 -317.8217
ENERGY: 600000 0.7319 9.4574 5.3647 0.0000 -10548.8280 1460.1346 0.0000 0.0000 1743.4099 -7329.7295 301.2270 -9073.1393 -7329.4405 299.3697 528.2401 590.5895 29452.4923 -349.2396 -286.8451
ENERGY: 900000 4.6488 15.6390 2.4335 0.0000 -10391.8734 1317.3957 0.0000 0.0000 1762.3150 -7289.4414 304.4935 -9051.7564 -7336.0311 299.4337 -504.1534 -425.1765 29586.2354 -279.5621 -207.0464
ENERGY: 1200000 2.4520 8.1839 2.4680 0.0000 -10470.1360 1351.7442 0.0000 0.0000 1732.5517 -7372.7361 299.3510 -9105.2878 -7342.1675 299.7697 -338.9011 -276.2877 29443.2051 -196.5982 -129.6844
ENERGY: 1500000 3.0961 9.3256 6.5706 0.0000 -10586.1191 1442.5125 0.0000 0.0000 1752.7885 -7371.8258 302.8475 -9124.6143 -7344.6999 299.7367 257.2510 310.6390 29302.0133 -92.1236 -35.7101
TCL: Running FEP window  14: Lambda1 0.34999999999999964 Lambda2 0.29999999999999966 [dLambda -0.04999999999999999]
TCL: Setting parameter firsttimestep to 0
TCL: Setting parameter alchLambda to 0.34999999999999964
Info: NONBONDED TABLE R-SQUARED SPACING: 0.0625
Info: NONBONDED TABLE SIZE: 705 POINTS
TCL: Setting parameter alchLambda2 to 0.29999999999999966
Info: NONBONDED TABLE R-SQUARED SPACING: 0.0625
Info: NONBONDED TABLE SIZE: 705 POINTS
TCL: Running for 1500000 steps
ETITLE: TS BOND ANGLE DIHED IMPRP ELECT VDW BOUNDARY MISC KINETIC TOTAL TEMP POTENTIAL TOTALAVG TEMPAVG PRESSURE GPRESSURE VOLUME PRESSAVG GPRESSAVG
ENERGY: 0 3.0961 9.3256 6.5706 0.0000 -10586.1187 1442.5166 0.0000 0.0000 1751.8680 -7372.7419 302.6884 -9124.6098 -7372.7419 302.6884 209.9425 304.6179 29302.0133 209.9425 304.6179
ENERGY: 300000 0.8374 13.1823 4.7399 0.0000 -10343.1680 1333.8601 0.0000 0.0000 1746.5513 -7243.9971 301.7698 -8990.5484 -7364.0151 299.0645 -427.5095 -312.0389 29787.6923 27.5538 108.5465
ENERGY: 600000 2.5671 16.1429 3.0671 0.0000 -10518.7414 1429.1640 0.0000 0.0000 1783.7055 -7284.0947 308.1893 -9067.8002 -7339.3527 301.2687 -19.3793 83.4876 29790.3649 10.5143 92.2913
ENERGY: 900000 1.5228 18.2936 5.6166 0.0000 -10331.0019 1293.1571 0.0000 0.0000 1757.4457 -7254.9660 303.6522 -9012.4117 -7310.9444 301.2024 -856.3574 -803.1489 29955.2398 -72.1103 0.7162
ENERGY: 1200000 0.6541 9.7623 3.4106 0.0000 -10560.0995 1466.9660 0.0000 0.0000 1727.1855 -7352.1211 298.4238 -9079.3066 -7321.5750 300.3116 297.1456 306.2784 29909.7625 -17.2413 45.8995
ENERGY: 1500000 1.1373 16.5249 3.9554 0.0000 -10513.6133 1435.8929 0.0000 0.0000 1784.7183 -7271.3846 308.3643 -9056.1029 -7319.9826 300.5932 134.4165 247.0108 29887.1793 -31.4670 39.2818
TCL: Running FEP window  15: Lambda1 0.29999999999999966 Lambda2 0.24999999999999967 [dLambda -0.04999999999999999]
TCL: Setting parameter firsttimestep to 0
TCL: Setting parameter alchLambda to 0.29999999999999966
Info: NONBONDED TABLE R-SQUARED SPACING: 0.0625
Info: NONBONDED TABLE SIZE: 705 POINTS
TCL: Setting parameter alchLambda2 to 0.24999999999999967
Info: NONBONDED TABLE R-SQUARED SPACING: 0.0625
Info: NONBONDED TABLE SIZE: 705 POINTS
TCL: Running for 1500000 steps
ETITLE: TS BOND ANGLE DIHED IMPRP ELECT VDW BOUNDARY MISC KINETIC TOTAL TEMP POTENTIAL TOTALAVG TEMPAVG PRESSURE GPRESSURE VOLUME PRESSAVG GPRESSAVG
ENERGY: 0 1.1373 16.5249 3.9554 0.0000 -10513.6128 1435.9698 0.0000 0.0000 1783.8519 -7272.1736 308.2146 -9056.0255 -7272.1736 308.2146 155.8314 245.1408 29887.1793 155.8314 245.1408
ENERGY: 300000 1.4942 11.5487 2.3245 0.0000 -10477.0687 1359.2718 0.0000 0.0000 1703.0654 -7399.3641 294.2563 -9102.4295 -7368.8708 300.5432 -692.3975 -659.6657 30152.3160 -279.7739 -230.0128
ENERGY: 600000 0.9986 9.6880 3.4905 0.0000 -10538.0206 1457.0810 0.0000 0.0000 1730.3154 -7336.4470 298.9646 -9066.7624 -7349.0136 301.7871 288.2753 363.7323 29812.3939 -318.6946 -256.4194
ENERGY: 900000 0.6345 11.8765 3.1101 0.0000 -10507.5353 1412.0200 0.0000 0.0000 1742.4700 -7337.4243 301.0646 -9079.8942 -7336.6707 302.1264 -59.7640 76.4041 29795.2120 -243.8079 -177.9363
ENERGY: 1200000 5.6383 8.2247 2.6319 0.0000 -10480.3918 1411.6521 0.0000 0.0000 1728.0958 -7324.1491 298.5811 -9052.2449 -7323.2516 302.8621 -308.5337 -273.5526 30208.0603 -221.1544 -163.3833
ENERGY: 1500000 1.9668 8.7898 2.8138 0.0000 -10427.3366 1353.7655 0.0000 0.0000 1744.6228 -7315.3778 301.4366 -9060.0007 -7327.3816 302.5776 -504.1491 -467.3099 29989.4496 -216.5283 -157.6530
TCL: Running FEP window  16: Lambda1 0.24999999999999967 Lambda2 0.19999999999999968 [dLambda -0.04999999999999999]
TCL: Setting parameter firsttimestep to 0
TCL: Setting parameter alchLambda to 0.24999999999999967
Info: NONBONDED TABLE R-SQUARED SPACING: 0.0625
Info: NONBONDED TABLE SIZE: 705 POINTS
TCL: Setting parameter alchLambda2 to 0.19999999999999968
Info: NONBONDED TABLE R-SQUARED SPACING: 0.0625
Info: NONBONDED TABLE SIZE: 705 POINTS
TCL: Running for 1500000 steps
ETITLE: TS BOND ANGLE DIHED IMPRP ELECT VDW BOUNDARY MISC KINETIC TOTAL TEMP POTENTIAL TOTALAVG TEMPAVG PRESSURE GPRESSURE VOLUME PRESSAVG GPRESSAVG
ENERGY: 0 1.9668 8.7898 2.8138 0.0000 -10427.3364 1354.2066 0.0000 0.0000 1743.7340 -7315.8254 301.2830 -9059.5593 -7315.8254 301.2830 -548.9782 -468.9403 29989.4496 -548.9782 -468.9403
ENERGY: 300000 4.5849 7.3973 2.6739 0.0000 -10580.7422 1441.0102 0.0000 0.0000 1724.2815 -7400.7944 297.9220 -9125.0759 -7356.4632 299.8584 135.8469 164.8859 29433.4226 -69.2630 14.9134
ENERGY: 600000 4.1290 7.5381 2.5202 0.0000 -10450.5763 1432.9645 0.0000 0.0000 1741.7918 -7261.6327 300.9475 -9003.4245 -7330.2682 300.7081 122.8612 198.7859 30081.0519 -167.5671 -92.0794
ENERGY: 900000 3.0848 12.7316 2.4973 0.0000 -10324.6033 1344.9339 0.0000 0.0000 1707.5245 -7253.8313 295.0268 -8961.3558 -7323.1363 299.7522 -486.0230 -407.8547 29992.0624 -214.7249 -139.1658
ENERGY: 1200000 1.5030 11.8808 2.9561 0.0000 -10617.8020 1496.8180 0.0000 0.0000 1668.9703 -7435.6738 288.3653 -9104.6442 -7327.1609 298.6769 540.2225 575.8128 29572.8815 -178.1886 -109.1320
ENERGY: 1500000 2.4722 12.6471 4.3587 0.0000 -10439.7011 1339.3239 0.0000 0.0000 1720.2815 -7360.6178 297.2309 -9080.8993 -7324.6081 298.7344 -789.4317 -738.0003 30118.3263 -256.3057 -186.5693
TCL: Running FEP window  17: Lambda1 0.19999999999999968 Lambda2 0.1499999999999997 [dLambda -0.04999999999999999]
TCL: Setting parameter firsttimestep to 0
TCL: Setting parameter alchLambda to 0.19999999999999968
Info: NONBONDED TABLE R-SQUARED SPACING: 0.0625
Info: NONBONDED TABLE SIZE: 705 POINTS
TCL: Setting parameter alchLambda2 to 0.1499999999999997
Info: NONBONDED TABLE R-SQUARED SPACING: 0.0625
Info: NONBONDED TABLE SIZE: 705 POINTS
TCL: Running for 1500000 steps
ETITLE: TS BOND ANGLE DIHED IMPRP ELECT VDW BOUNDARY MISC KINETIC TOTAL TEMP POTENTIAL TOTALAVG TEMPAVG PRESSURE GPRESSURE VOLUME PRESSAVG GPRESSAVG
ENERGY: 0 2.4722 12.6471 4.3587 0.0000 -10439.6998 1339.6197 0.0000 0.0000 1719.4242 -7361.1780 297.0828 -9080.6022 -7361.1780 297.0828 -815.7578 -741.3070 30118.3263 -815.7578 -741.3070
ENERGY: 300000 1.9838 20.9589 3.0710 0.0000 -10528.6288 1365.2743 0.0000 0.0000 1767.0887 -7370.2520 305.3183 -9137.3408 -7370.5549 299.1270 -541.9687 -517.0924 30004.0798 -331.5566 -264.4446
ENERGY: 600000 1.1432 10.7321 2.9443 0.0000 -10308.4133 1295.7173 0.0000 0.0000 1680.1197 -7317.7566 290.2917 -8997.8764 -7363.9060 297.8191 -998.3016 -924.0488 30257.6997 -447.6053 -381.7544
ENERGY: 900000 1.6911 10.9215 6.2171 0.0000 -10529.1349 1404.6906 0.0000 0.0000 1749.4688 -7356.1458 302.2739 -9105.6146 -7352.1286 299.9832 37.7157 137.3104 29213.7833 -299.9861 -229.9256
ENERGY: 1200000 1.8879 9.1148 3.8041 0.0000 -10474.1866 1391.2798 0.0000 0.0000 1762.8936 -7305.2064 304.5934 -9068.1000 -7343.6791 300.4496 -373.4444 -287.6547 30116.9219 -274.4644 -209.9297
ENERGY: 1500000 1.8261 10.9203 3.4751 0.0000 -10549.9068 1425.4149 0.0000 0.0000 1762.8348 -7345.4356 304.5833 -9108.2704 -7336.0537 300.7081 31.8096 103.0310 29526.0607 -261.4451 -197.3722
TCL: Running FEP window  18: Lambda1 0.1499999999999997 Lambda2 0.09999999999999969 [dLambda -0.05 ]
TCL: Setting parameter firsttimestep to 0
TCL: Setting parameter alchLambda to 0.1499999999999997
Info: NONBONDED TABLE R-SQUARED SPACING: 0.0625
Info: NONBONDED TABLE SIZE: 705 POINTS
TCL: Setting parameter alchLambda2 to 0.09999999999999969
Info: NONBONDED TABLE R-SQUARED SPACING: 0.0625
Info: NONBONDED TABLE SIZE: 705 POINTS
TCL: Running for 1500000 steps
ETITLE: TS BOND ANGLE DIHED IMPRP ELECT VDW BOUNDARY MISC KINETIC TOTAL TEMP POTENTIAL TOTALAVG TEMPAVG PRESSURE GPRESSURE VOLUME PRESSAVG GPRESSAVG
ENERGY: 0 1.8261 10.9203 3.4751 0.0000 -10549.9061 1425.7965 0.0000 0.0000 1761.9147 -7345.9735 304.4243 -9107.8882 -7345.9735 304.4243 22.9251 102.2327 29526.0607 22.9251 102.2327
ENERGY: 300000 1.9039 8.1544 4.0879 0.0000 -10428.7493 1363.6431 0.0000 0.0000 1720.7304 -7330.2296 297.3085 -9050.9599 -7345.1877 299.7994 -482.9998 -399.9049 29886.1800 -122.2602 -71.0955
ENERGY: 600000 0.9105 12.5557 2.7673 0.0000 -10550.6676 1405.2085 0.0000 0.0000 1713.4594 -7415.7661 296.0522 -9129.2256 -7348.8295 299.0612 -222.8042 -145.9383 29413.8361 -78.8498 -21.1036
ENERGY: 900000 0.5532 11.3973 3.1719 0.0000 -10582.0807 1485.2709 0.0000 0.0000 1711.7695 -7369.9179 295.7602 -9081.6873 -7357.0062 297.3667 646.6698 642.1751 29458.6493 -87.3153 -22.0980
ENERGY: 1200000 2.3223 10.8608 5.7506 0.0000 -10549.0446 1427.7904 0.0000 0.0000 1741.3605 -7360.9599 300.8730 -9102.3204 -7357.7794 298.3018 -145.0968 -90.2793 29709.6169 -51.4592 16.2000
ENERGY: 1500000 1.7736 9.0781 2.5846 0.0000 -10475.4661 1394.8404 0.0000 0.0000 1685.6483 -7381.5410 291.2470 -9067.1893 -7366.5447 297.5227 -280.7872 -245.8748 29790.8914 33.6259 93.3616
TCL: Running FEP window  19: Lambda1 0.09999999999999969 Lambda2 0.049999999999999684 [dLambda -0.05 ]
TCL: Setting parameter firsttimestep to 0
TCL: Setting parameter alchLambda to 0.09999999999999969
Info: NONBONDED TABLE R-SQUARED SPACING: 0.0625
Info: NONBONDED TABLE SIZE: 705 POINTS
TCL: Setting parameter alchLambda2 to 0.049999999999999684
Info: NONBONDED TABLE R-SQUARED SPACING: 0.0625
Info: NONBONDED TABLE SIZE: 705 POINTS
TCL: Running for 1500000 steps
ETITLE: TS BOND ANGLE DIHED IMPRP ELECT VDW BOUNDARY MISC KINETIC TOTAL TEMP POTENTIAL TOTALAVG TEMPAVG PRESSURE GPRESSURE VOLUME PRESSAVG GPRESSAVG
ENERGY: 0 1.7736 9.0781 2.5846 0.0000 -10475.4650 1394.5566 0.0000 0.0000 1684.8210 -7382.6511 291.1040 -9067.4721 -7382.6511 291.1040 -332.8334 -250.4002 29790.8914 -332.8334 -250.4002
ENERGY: 300000 1.4871 9.9627 2.9730 0.0000 -10518.3243 1433.9375 0.0000 0.0000 1699.4326 -7370.5313 293.6286 -9069.9639 -7341.2541 296.6539 -188.0345 -96.5548 30061.8512 28.6086 103.2076
ENERGY: 600000 2.3872 13.0140 2.5455 0.0000 -10518.5491 1453.1865 0.0000 0.0000 1698.5548 -7348.8612 293.4770 -9047.4160 -7342.4910 296.8739 301.7187 349.5584 29617.8207 -43.3533 19.9967
ENERGY: 900000 1.5167 8.1528 3.4782 0.0000 -10524.8878 1395.1299 0.0000 0.0000 1708.1367 -7408.4734 295.1325 -9116.6101 -7357.3961 296.9669 -345.4644 -262.6146 29812.5138 -48.9666 17.1124
ENERGY: 1200000 1.3235 10.3780 1.9729 0.0000 -10367.3870 1351.1819 0.0000 0.0000 1730.6149 -7271.9158 299.0163 -9002.5308 -7346.7469 297.5958 -437.0882 -351.7918 30074.0597 -96.7754 -30.8829
ENERGY: 1500000 1.1335 10.3982 3.0856 0.0000 -10403.6294 1345.5138 0.0000 0.0000 1786.2487 -7257.2497 308.6287 -9043.4984 -7336.5818 298.6436 -561.0494 -508.3853 29877.1935 -43.9316 17.6517
TCL: Running FEP window  20: Lambda1 0.049999999999999684 Lambda2 0.0    [dLambda -0.049999999999999684]
TCL: Setting parameter firsttimestep to 0
TCL: Setting parameter alchLambda to 0.049999999999999684
Info: NONBONDED TABLE R-SQUARED SPACING: 0.0625
Info: NONBONDED TABLE SIZE: 705 POINTS
TCL: Setting parameter alchLambda2 to 0.0
Info: NONBONDED TABLE R-SQUARED SPACING: 0.0625
Info: NONBONDED TABLE SIZE: 705 POINTS
TCL: Running for 1500000 steps
ETITLE: TS BOND ANGLE DIHED IMPRP ELECT VDW BOUNDARY MISC KINETIC TOTAL TEMP POTENTIAL TOTALAVG TEMPAVG PRESSURE GPRESSURE VOLUME PRESSAVG GPRESSAVG
ENERGY: 0 1.1335 10.3982 3.0856 0.0000 -10403.6282 1345.5171 0.0000 0.0000 1785.3734 -7258.1205 308.4775 -9043.4939 -7258.1205 308.4775 -608.3550 -513.7925 29877.1935 -608.3550 -513.7925
ENERGY: 300000 0.6711 9.3743 2.3896 0.0000 -10451.9326 1379.3150 0.0000 0.0000 1721.2561 -7338.9265 297.3993 -9060.1826 -7328.3447 300.4123 -275.7282 -199.7104 29606.2743 -325.7917 -254.6752
ENERGY: 600000 1.4838 12.6613 4.3393 0.0000 -10432.1682 1371.6833 0.0000 0.0000 1772.7875 -7269.2129 306.3029 -9042.0004 -7311.0906 300.7717 -482.5399 -457.4352 30344.6666 -407.9683 -338.9830
ENERGY: 900000 1.0790 14.4521 2.2683 0.0000 -10481.1555 1419.9717 0.0000 0.0000 1718.8576 -7324.5269 296.9849 -9043.3845 -7317.9866 300.8923 -54.0176 89.8426 29897.3552 -213.1919 -138.2698
ENERGY: 1200000 1.8436 11.8107 3.1212 0.0000 -10569.5910 1475.6151 0.0000 0.0000 1715.2612 -7361.9392 296.3635 -9077.2004 -7317.4681 301.1660 360.4234 423.7705 29692.2875 -121.6316 -52.4460
ENERGY: 1500000 4.3889 10.5427 4.4599 0.0000 -10477.3515 1421.3802 0.0000 0.0000 1704.5651 -7332.0147 294.5154 -9036.5797 -7319.6762 300.8008 49.3401 82.5962 29814.2325 -107.0946 -52.4008
TCL: Exiting due to exit command.
