Info: SIMULATION PARAMETERS:
Info: TIMESTEP               2
Info: NUMBER OF STEPS        0
Info: STEPS PER CYCLE        10
Info: PERIODIC CELL BASIS 1  30.3373 0 0
Info: PERIODIC CELL BASIS 2  0 31.7917 0
Info: PERIODIC CELL BASIS 3  0 0 32.1039
Info: PERIODIC CELL CENTER   0 0 0
Info: WRAPPING WATERS AROUND PERIODIC BOUNDARIES ON OUTPUT.
Info: WRAPPING ALL CLUSTERS AROUND PERIODIC BOUNDARIES ON OUTPUT.
Info: FIRST LDB TIMESTEP     50
Info: LAST LDB TIMESTEP     -1
Info: HOM BACKGROUND SCALING 1
Info: PME BACKGROUND SCALING 1
Info: MIN ATOMS PER PATCH    40
Info: EMPTY PATCH LOAD       40 ATOMS
Info: VELOCITY FILE          mobley_2279874_equil.vel
Info: CENTER OF MASS MOVING INITIALLY? NO
Info: DIELECTRIC             1
Info: EXCLUDE                SCALED ONE-FOUR
Info: 1-4 ELECTROSTATICS SCALED BY 0.833333
Info: MODIFIED 1-4 VDW PARAMETERS WILL BE USED
Info: DCD FILENAME           mobley_2279874_prod.dcd
Info: DCD FREQUENCY          100000
Info: DCD FIRST STEP         100000
Info: DCD FILE WILL CONTAIN UNIT CELL DATA
Info: XST FILENAME           mobley_2279874_prod.xst
Info: XST FREQUENCY          100000
Info: NO VELOCITY DCD OUTPUT
Info: NO FORCE DCD OUTPUT
Info: OUTPUT FILENAME        mobley_2279874_prod
Info: BINARY OUTPUT FILES WILL BE USED
Info: RESTART FILENAME       mobley_2279874_prod.restart
Info: RESTART FREQUENCY      100000
Info: BINARY RESTART FILES WILL BE USED
Info: CUTOFF                 9
Info: PAIRLIST DISTANCE      11
Info: PAIRLIST SHRINK RATE   0.01
Info: PAIRLIST GROW RATE     0.01
Info: PAIRLIST TRIGGER       0.3
Info: PAIRLISTS PER CYCLE    2
Info: PAIRLISTS ENABLED
Info: MARGIN                 2
Info: HYDROGEN GROUP CUTOFF  2.5
Info: PATCH DIMENSION        15.5
Info: ENERGY OUTPUT STEPS    100000
Info: ENERGY EVALUATION STEPS    100000
Info: OUTPUT ENERGY PRECISION 4
Info: CROSSTERM ENERGY INCLUDED IN DIHEDRAL
Info: TIMING OUTPUT STEPS    1000000
Info: PRESSURE OUTPUT STEPS  100000
Info: ALCHEMICAL FEP ON
Info: FEP CURRENT LAMBDA VALUE     0
Info: FEP COMPARISON LAMBDA VALUE  0.05
Info: FEP INTRA-ALCHEMICAL NON-BONDED INTERACTIONS WILL BE RETAINED
Info: FEP INTRA-ALCHEMICAL BONDED INTERACTIONS WILL BE RETAINED
Info: FEP VDW SHIFTING COEFFICIENT 5
Info: FEP ELEC. ACTIVE FOR ANNIHILATED PARTICLES BETWEEN LAMBDA = 0 AND LAMBDA = 0.5
Info: FEP ELEC. ACTIVE FOR EXNIHILATED PARTICLES BETWEEN LAMBDA = 0.5 AND LAMBDA = 1
Info: FEP VDW ACTIVE FOR ANNIHILATED PARTICLES BETWEEN LAMBDA = 0 AND LAMBDA = 1
Info: FEP VDW ACTIVE FOR EXNIHILATED PARTICLES BETWEEN LAMBDA = 0 AND LAMBDA = 1
Info: FEP BOND ACTIVE FOR ANNIHILATED PARTICLES BETWEEN LAMBDA = 1 AND LAMBDA = 1
Info: FEP BOND ACTIVE FOR EXNIHILATED PARTICLES BETWEEN LAMBDA = 0 AND LAMBDA = 0
Info: LANGEVIN DYNAMICS ACTIVE
Info: LANGEVIN TEMPERATURE   300
Info: LANGEVIN USING BBK INTEGRATOR
Info: LANGEVIN DAMPING COEFFICIENT IS 1 INVERSE PS
Info: LANGEVIN DYNAMICS APPLIED TO HYDROGENS
Info: LANGEVIN PISTON PRESSURE CONTROL ACTIVE
Info:        TARGET PRESSURE IS 1.01325 BAR
Info:     OSCILLATION PERIOD IS 50 FS
Info:             DECAY TIME IS 25 FS
Info:     PISTON TEMPERATURE IS 300 K
Info:       PRESSURE CONTROL IS GROUP-BASED
Info:    INITIAL STRAIN RATE IS -0.00037718 -0.00037718 -0.00037718
Info:       CELL FLUCTUATION IS ISOTROPIC
Info: PARTICLE MESH EWALD (PME) ACTIVE
Info: PME TOLERANCE               1e-06
Info: PME EWALD COEFFICIENT       0.348832
Info: PME INTERPOLATION ORDER     4
Info: PME GRID DIMENSIONS         32 32 36
Info: PME MAXIMUM GRID SPACING    1
Info: PME CALCULATION WILL BE PERFORMED ON GPU
Info: FULL ELECTROSTATIC EVALUATION FREQUENCY      2
Info: USING VERLET I (r-RESPA) MTS SCHEME.
Info: C1 SPLITTING OF LONG RANGE ELECTROSTATICS
Info: PLACING ATOMS IN PATCHES BY HYDROGEN GROUPS
Info: RIGID BONDS TO HYDROGEN : ALL
Info:         ERROR TOLERANCE : 1e-08
Info:          MAX ITERATIONS : 100
Info: RIGID WATER USING SETTLE ALGORITHM
Info: RANDOM NUMBER SEED     1743912801
Info: USE HYDROGEN BONDS?    NO
Info: Using AMBER format force field!
Info: AMBER PARM FILE        mobley_2279874.prmtop
Info: COORDINATE PDB         mobley_2279874.pdb
Info: Exclusions will be read from PARM file!
Info: SCNB (VDW SCALING)     2
Info: USING ARITHMETIC MEAN TO COMBINE L-J SIGMA PARAMETERS
Info: BINARY COORDINATES     mobley_2279874_equil.coor
Info: SUMMARY OF PARAMETERS:
Info: 5 BONDS
Info: 5 ANGLES
Info:   5 HARMONIC
Info:   0 COSINE-BASED
Info: 4 DIHEDRAL
Info: 0 IMPROPER
Info: 0 CROSSTERM
Info: 0 VDW
Info: 21 VDW_PAIRS
Info: 0 NBTHOLE_PAIRS
Info: To read alchdata from file: mobley_2279874.pdb
Info: To read alchflag data from column: 5
Info: STRUCTURE SUMMARY:
Info: 2999 ATOMS
Info: 2998 BONDS
Info: 27 ANGLES
Info: 30 DIHEDRALS
Info: 0 IMPROPERS
Info: 0 CROSSTERMS
Info: 3043 EXCLUSIONS
Info: 2992 RIGID BONDS
Info: ALCH: 0 ATOMS TO DISAPPEAR IN FINAL STATE
Info: ALCH: 17 ATOMS TO APPEAR IN FINAL STATE
Info: 6005 DEGREES OF FREEDOM
Info: 1001 HYDROGEN GROUPS
Info: 4 ATOMS IN LARGEST HYDROGEN GROUP
Info: 1001 MIGRATION GROUPS
Info: 4 ATOMS IN LARGEST MIGRATION GROUP
Info: TOTAL MASS = 18014 amu
Info: TOTAL CHARGE = 0.000299994 e
Info: MASS DENSITY = 0.966097 g/cm^3
Info: ATOM DENSITY = 0.0968562 atoms/A^3
Info: ADDED 0 IMPLICIT EXCLUSIONS
Info: NONBONDED TABLE R-SQUARED SPACING: 0.0625
Info: NONBONDED TABLE SIZE: 705 POINTS
Info: REMOVING COM VELOCITY 0.0196898 -0.136357 0.040731
Info: Use 3D box decompostion in PME FFT.
Info: Updated CUDA force table with 4096 elements.
Info: Updated CUDA LJ table with 6 x 6 elements.
Info: Found 20 unique exclusion lists needing 44 bytes
TCL: Running for 1500000 steps
ETITLE: TS BOND ANGLE DIHED IMPRP ELECT VDW BOUNDARY MISC KINETIC TOTAL TEMP POTENTIAL TOTALAVG TEMPAVG PRESSURE GPRESSURE VOLUME PRESSAVG GPRESSAVG
ENERGY: 0 4.0948 7.8026 15.6421 0.0000 -10858.3854 1539.6800 0.0000 0.0000 1747.2151 -7543.9508 292.8355 -9291.1659 -7543.9508 292.8355 637.2999 713.2633 30963.4382 637.2999 713.2633
ENERGY: 300000 1.6025 10.6792 15.3351 0.0000 -10966.4610 1541.5507 0.0000 0.0000 1791.9830 -7605.3104 300.3387 -9397.2934 -7568.1317 297.8663 640.7308 651.5875 30582.1982 562.1578 620.2121
ENERGY: 600000 3.5194 6.7136 14.1832 0.0000 -10984.6605 1527.2290 0.0000 0.0000 1784.0496 -7648.9657 299.0090 -9433.0152 -7581.5490 299.4162 466.5768 576.6827 30621.7253 467.3733 534.9207
ENERGY: 900000 3.5574 9.8896 14.5942 0.0000 -10852.2899 1451.6983 0.0000 0.0000 1780.5719 -7591.9784 298.4262 -9372.5503 -7596.7968 299.2404 -145.2600 -79.4065 30585.6264 274.0046 333.2090
ENERGY: 1200000 1.0794 6.8248 13.8604 0.0000 -10885.5069 1444.1119 0.0000 0.0000 1704.6207 -7715.0097 285.6966 -9419.6304 -7615.0969 297.1034 -623.6526 -568.4246 31326.6444 63.9542 123.4862
ENERGY: 1500000 1.0051 7.6230 15.2746 0.0000 -10909.2650 1464.1727 0.0000 0.0000 1776.1826 -7645.0071 297.6905 -9421.1897 -7619.6177 296.7100 -85.6934 -26.6209 30591.9574 -5.5037 55.7013
TCL: Running FEP window   2: Lambda1 0.05   Lambda2 0.1    [dLambda 0.05  ]
TCL: Setting parameter firsttimestep to 0
TCL: Setting parameter alchLambda to 0.05
Info: NONBONDED TABLE R-SQUARED SPACING: 0.0625
Info: NONBONDED TABLE SIZE: 705 POINTS
TCL: Setting parameter alchLambda2 to 0.1
Info: NONBONDED TABLE R-SQUARED SPACING: 0.0625
Info: NONBONDED TABLE SIZE: 705 POINTS
TCL: Running for 1500000 steps
ETITLE: TS BOND ANGLE DIHED IMPRP ELECT VDW BOUNDARY MISC KINETIC TOTAL TEMP POTENTIAL TOTALAVG TEMPAVG PRESSURE GPRESSURE VOLUME PRESSAVG GPRESSAVG
ENERGY: 0 1.0051 7.6230 15.2746 0.0000 -10909.2662 1464.2521 0.0000 0.0000 1775.2778 -7645.8337 297.5389 -9421.1115 -7645.8337 297.5389 -106.7798 -25.0041 30591.9574 -106.7798 -25.0041
ENERGY: 300000 0.2038 6.2416 15.8285 0.0000 -10791.3434 1408.7939 0.0000 0.0000 1757.4737 -7602.8020 294.5549 -9360.2757 -7628.3110 296.6278 -257.3234 -213.4275 30533.5465 -330.6449 -263.9497
ENERGY: 600000 2.4010 6.1050 14.3306 0.0000 -10793.2689 1403.6913 0.0000 0.0000 1772.2827 -7594.4583 297.0369 -9366.7411 -7617.3486 298.1740 -649.6252 -520.4687 30866.7049 -226.7724 -153.0203
ENERGY: 900000 1.4058 7.6056 15.0716 0.0000 -10854.5660 1479.1602 0.0000 0.0000 1764.3634 -7586.9594 295.7096 -9351.3228 -7598.6188 299.9907 223.2436 305.8854 30705.3471 -193.8654 -133.1692
ENERGY: 1200000 1.7174 8.3027 12.9565 0.0000 -10962.3117 1513.6265 0.0000 0.0000 1749.4318 -7676.2768 293.2070 -9425.7086 -7605.3732 298.9180 8.0074 47.6647 31222.4688 -187.7304 -128.7062
ENERGY: 1500000 0.9638 5.5432 15.1192 0.0000 -10882.1489 1439.3192 0.0000 0.0000 1824.2891 -7596.9144 305.7532 -9421.2035 -7602.5565 299.5149 -406.6742 -365.7447 31127.9307 -211.3727 -158.2497
TCL: Running FEP window   3: Lambda1 0.1    Lambda2 0.15000000000000002 [dLambda 0.05000000000000002]
TCL: Setting parameter firsttimestep to 0
TCL: Setting parameter alchLambda to 0.1
Info: NONBONDED TABLE R-SQUARED SPACING: 0.0625
Info: NONBONDED TABLE SIZE: 705 POINTS
TCL: Setting parameter alchLambda2 to 0.15000000000000002
Info: NONBONDED TABLE R-SQUARED SPACING: 0.0625
Info: NONBONDED TABLE SIZE: 705 POINTS
TCL: Running for 1500000 steps
ETITLE: TS BOND ANGLE DIHED IMPRP ELECT VDW BOUNDARY MISC KINETIC TOTAL TEMP POTENTIAL TOTALAVG TEMPAVG PRESSURE GPRESSURE VOLUME PRESSAVG GPRESSAVG
ENERGY: 0 0.9638 5.5432 15.1192 0.0000 -10882.1487 1439.7778 0.0000 0.0000 1823.3813 -7597.3633 305.6011 -9420.7446 -7597.3633 305.6011 -458.4062 -362.8558 31127.9307 -458.4062 -362.8558
ENERGY: 300000 3.3292 7.0446 13.7877 0.0000 -10896.3007 1421.6441 0.0000 0.0000 1762.5789 -7687.9161 295.4105 -9450.4950 -7592.2737 303.4523 -548.0244 -556.5513 30846.6629 -660.5746 -597.7679
ENERGY: 600000 1.3250 10.1937 14.4291 0.0000 -10866.6724 1496.7999 0.0000 0.0000 1849.1714 -7494.7533 309.9235 -9343.9247 -7575.9698 303.1989 248.4571 249.7928 31163.0045 -378.2926 -338.0044
ENERGY: 900000 1.2501 5.4248 14.8549 0.0000 -10842.7084 1394.0352 0.0000 0.0000 1780.8147 -7646.3287 298.4668 -9427.1433 -7602.6039 301.3725 -609.0841 -588.2923 30866.4986 -374.9035 -327.4292
ENERGY: 1200000 3.0247 10.8677 15.9670 0.0000 -10899.7550 1488.5887 0.0000 0.0000 1837.8214 -7543.4854 308.0213 -9381.3068 -7599.8253 301.9240 -14.5478 116.1179 30946.1746 -259.2558 -204.8120
ENERGY: 1500000 2.9293 15.8432 15.9314 0.0000 -10717.7108 1379.4711 0.0000 0.0000 1811.3761 -7492.1596 303.5890 -9303.5357 -7590.7405 301.9521 -248.2210 -260.8063 30843.7387 -222.5409 -167.3342
TCL: Running FEP window   4: Lambda1 0.15000000000000002 Lambda2 0.2    [dLambda 0.04999999999999999]
TCL: Setting parameter firsttimestep to 0
TCL: Setting parameter alchLambda to 0.15000000000000002
Info: NONBONDED TABLE R-SQUARED SPACING: 0.0625
Info: NONBONDED TABLE SIZE: 705 POINTS
TCL: Setting parameter alchLambda2 to 0.2
Info: NONBONDED TABLE R-SQUARED SPACING: 0.0625
Info: NONBONDED TABLE SIZE: 705 POINTS
TCL: Running for 1500000 steps
ETITLE: TS BOND ANGLE DIHED IMPRP ELECT VDW BOUNDARY MISC KINETIC TOTAL TEMP POTENTIAL TOTALAVG TEMPAVG PRESSURE GPRESSURE VOLUME PRESSAVG GPRESSAVG
ENERGY: 0 2.9293 15.8432 15.9314 0.0000 -10717.7118 1379.9260 0.0000 0.0000 1810.4831 -7492.5987 303.4393 -9303.0818 -7492.5987 303.4393 -346.1612 -255.6965 30843.7387 -346.1612 -255.6965
ENERGY: 300000 0.6246 8.4305 13.6632 0.0000 -10698.4832 1359.9187 0.0000 0.0000 1785.5060 -7530.3402 299.2531 -9315.8462 -7554.3150 298.8048 -818.0088 -827.1873 31385.0176 -105.2441 -50.6196
ENERGY: 600000 2.2566 9.0220 13.5102 0.0000 -10954.7740 1527.6280 0.0000 0.0000 1792.5982 -7609.7591 300.4418 -9402.3573 -7566.7208 300.9202 309.9570 409.8300 30860.8235 -137.1308 -69.5018
ENERGY: 900000 0.4959 8.7543 13.1959 0.0000 -10876.4532 1430.1874 0.0000 0.0000 1715.7652 -7708.0545 287.5645 -9423.8197 -7590.4193 299.0194 -554.6408 -440.0765 30701.7671 -140.6393 -71.1324
ENERGY: 1200000 2.0688 7.4162 14.4851 0.0000 -10954.9238 1574.7512 0.0000 0.0000 1811.6588 -7544.5436 303.6364 -9356.2024 -7601.7647 298.3116 1064.7370 1107.1267 30512.8884 -52.6959 16.6505
ENERGY: 1500000 1.2006 5.9833 13.5653 0.0000 -11027.1730 1515.7858 0.0000 0.0000 1839.2247 -7651.4133 308.2564 -9490.6380 -7605.5427 299.1154 123.5937 132.9855 30769.1773 -114.5231 -48.9534
TCL: Running FEP window   5: Lambda1 0.2    Lambda2 0.25   [dLambda 0.04999999999999999]
TCL: Setting parameter firsttimestep to 0
TCL: Setting parameter alchLambda to 0.2
Info: NONBONDED TABLE R-SQUARED SPACING: 0.0625
Info: NONBONDED TABLE SIZE: 705 POINTS
TCL: Setting parameter alchLambda2 to 0.25
Info: NONBONDED TABLE R-SQUARED SPACING: 0.0625
Info: NONBONDED TABLE SIZE: 705 POINTS
TCL: Running for 1500000 steps
ETITLE: TS BOND ANGLE DIHED IMPRP ELECT VDW BOUNDARY MISC KINETIC TOTAL TEMP POTENTIAL TOTALAVG TEMPAVG PRESSURE GPRESSURE VOLUME PRESSAVG GPRESSAVG
ENERGY: 0 1.2006 5.9833 13.5653 0.0000 -11027.1750 1515.9916 0.0000 0.0000 1838.3097 -7652.1246 308.1031 -9490.4343 -7652.1246 308.1031 59.7266 136.4735 30769.1773 59.7266 136.4735
ENERGY: 300000 2.1496 7.7730 14.9049 0.0000 -10742.1638 1379.3990 0.0000 0.0000 1835.0231 -7502.9143 307.5522 -9337.9374 -7584.9022 302.0273 -544.6763 -442.5070 30643.4169 -145.1752 -60.7992
ENERGY: 600000 1.3984 5.0443 14.1263 0.0000 -10704.3094 1311.5210 0.0000 0.0000 1761.9386 -7610.2808 295.3032 -9372.2194 -7595.4309 299.8853 -1112.9902 -1093.9936 30829.1916 -211.1887 -146.7794
ENERGY: 900000 1.0203 8.7472 14.9902 0.0000 -10985.5553 1481.7024 0.0000 0.0000 1795.6430 -7683.4522 300.9521 -9479.0951 -7604.5690 300.2726 -192.0004 -131.1182 30881.8277 -161.7832 -91.6603
ENERGY: 1200000 1.1012 6.2346 14.4115 0.0000 -10905.0172 1476.5671 0.0000 0.0000 1824.9506 -7581.7522 305.8641 -9406.7028 -7603.3817 300.9685 369.1043 517.0925 30160.2523 -47.1014 32.1804
ENERGY: 1500000 1.0651 9.7663 15.0259 0.0000 -10830.3959 1466.8043 0.0000 0.0000 1869.8077 -7467.9267 313.3822 -9337.7344 -7596.2716 301.2274 469.1607 514.8684 30241.3283 23.6363 96.2898
TCL: Running FEP window   6: Lambda1 0.25   Lambda2 0.3    [dLambda 0.04999999999999999]
TCL: Setting parameter firsttimestep to 0
TCL: Setting parameter alchLambda to 0.25
Info: NONBONDED TABLE R-SQUARED SPACING: 0.0625
Info: NONBONDED TABLE SIZE: 705 POINTS
TCL: Setting parameter alchLambda2 to 0.3
Info: NONBONDED TABLE R-SQUARED SPACING: 0.0625
Info: NONBONDED TABLE SIZE: 705 POINTS
TCL: Running for 1500000 steps
ETITLE: TS BOND ANGLE DIHED IMPRP ELECT VDW BOUNDARY MISC KINETIC TOTAL TEMP POTENTIAL TOTALAVG TEMPAVG PRESSURE GPRESSURE VOLUME PRESSAVG GPRESSAVG
ENERGY: 0 1.0651 9.7663 15.0259 0.0000 -10830.3941 1466.9534 0.0000 0.0000 1868.9004 -7468.6830 313.2301 -9337.5834 -7468.6830 313.2301 416.7685 521.0694 30241.3283 416.7685 521.0694
ENERGY: 300000 2.2070 4.4599 13.5082 0.0000 -10733.0370 1394.3080 0.0000 0.0000 1794.6687 -7523.8851 300.7888 -9318.5538 -7550.1151 305.5698 -520.9360 -434.8919 31092.8128 -4.2482 72.2601
ENERGY: 600000 0.7498 5.6215 15.3706 0.0000 -10712.3910 1356.9510 0.0000 0.0000 1795.7353 -7537.9629 300.9676 -9333.6982 -7563.9126 304.6726 -801.9431 -707.3630 30975.7838 42.3593 113.7156
ENERGY: 900000 1.1235 5.6498 14.6029 0.0000 -10861.3749 1507.0674 0.0000 0.0000 1782.6932 -7550.2382 298.7817 -9332.9314 -7571.2523 303.6226 361.7656 390.0281 31072.1415 65.4342 138.9011
ENERGY: 1200000 2.3883 8.3054 13.6046 0.0000 -10817.4587 1441.2197 0.0000 0.0000 1758.9026 -7593.0381 294.7943 -9351.9407 -7575.9577 301.9918 -190.1506 -116.6703 31125.9909 18.9268 90.1850
ENERGY: 1500000 2.8873 5.9304 12.1469 0.0000 -10782.1980 1373.2227 0.0000 0.0000 1812.2755 -7575.7352 303.7397 -9388.0107 -7576.4377 301.6661 -733.5884 -657.4277 30744.5651 -72.4780 -1.6687
TCL: Running FEP window   7: Lambda1 0.3    Lambda2 0.35   [dLambda 0.04999999999999999]
TCL: Setting parameter firsttimestep to 0
TCL: Setting parameter alchLambda to 0.3
Info: NONBONDED TABLE R-SQUARED SPACING: 0.0625
Info: NONBONDED TABLE SIZE: 705 POINTS
TCL: Setting parameter alchLambda2 to 0.35
Info: NONBONDED TABLE R-SQUARED SPACING: 0.0625
Info: NONBONDED TABLE SIZE: 705 POINTS
TCL: Running for 1500000 steps
ETITLE: TS BOND ANGLE DIHED IMPRP ELECT VDW BOUNDARY MISC KINETIC TOTAL TEMP POTENTIAL TOTALAVG TEMPAVG PRESSURE GPRESSURE VOLUME PRESSAVG GPRESSAVG
ENERGY: 0 2.8873 5.9304 12.1469 0.0000 -10782.1984 1373.9499 0.0000 0.0000 1811.4124 -7575.8715 303.5951 -9387.2839 -7575.8715 303.5951 -745.2586 -648.8865 30744.5651 -745.2586 -648.8865
ENERGY: 300000 2.6016 7.4276 14.2199 0.0000 -11014.4007 1563.6761 0.0000 0.0000 1783.7146 -7642.7610 298.9529 -9426.4756 -7590.3733 301.1402 650.4513 669.4854 30572.7530 -254.5949 -214.8889
ENERGY: 600000 2.0088 6.1555 14.5356 0.0000 -10747.5302 1355.1598 0.0000 0.0000 1773.9398 -7595.7307 297.3146 -9369.6706 -7601.3718 298.4642 -1094.5936 -1048.4145 31610.7536 -286.8728 -251.8655
ENERGY: 900000 6.0671 7.6647 15.7924 0.0000 -10687.3712 1327.4270 0.0000 0.0000 1753.7117 -7576.7084 293.9244 -9330.4201 -7595.0386 298.3071 -1243.3892 -1127.4587 31074.2579 -265.3188 -216.5196
ENERGY: 1200000 1.7778 8.7837 13.1840 0.0000 -10794.5557 1392.8124 0.0000 0.0000 1814.6633 -7563.3345 304.1399 -9377.9978 -7598.6499 298.9601 -626.3918 -575.3785 30935.6622 -355.2397 -300.0476
ENERGY: 1500000 2.1570 11.4438 14.7831 0.0000 -10805.7208 1413.1492 0.0000 0.0000 1739.2479 -7624.9398 291.5002 -9364.1877 -7603.2327 298.6868 -523.4828 -419.2568 30831.8800 -323.6018 -259.2453
TCL: Running FEP window   8: Lambda1 0.35   Lambda2 0.39999999999999997 [dLambda 0.04999999999999999]
TCL: Setting parameter firsttimestep to 0
TCL: Setting parameter alchLambda to 0.35
Info: NONBONDED TABLE R-SQUARED SPACING: 0.0625
Info: NONBONDED TABLE SIZE: 705 POINTS
TCL: Setting parameter alchLambda2 to 0.39999999999999997
Info: NONBONDED TABLE R-SQUARED SPACING: 0.0625
Info: NONBONDED TABLE SIZE: 705 POINTS
TCL: Running for 1500000 steps
ETITLE: TS BOND ANGLE DIHED IMPRP ELECT VDW BOUNDARY MISC KINETIC TOTAL TEMP POTENTIAL TOTALAVG TEMPAVG PRESSURE GPRESSURE VOLUME PRESSAVG GPRESSAVG
ENERGY: 0 2.1570 11.4438 14.7831 0.0000 -10805.7205 1413.8937 0.0000 0.0000 1738.3527 -7625.0902 291.3502 -9363.4429 -7625.0902 291.3502 -492.2525 -412.2273 30831.8800 -492.2525 -412.2273
ENERGY: 300000 3.2003 6.5856 15.8820 0.0000 -10838.9135 1438.3039 0.0000 0.0000 1762.9195 -7612.0222 295.4676 -9374.9417 -7602.8748 294.7426 -328.4112 -274.4819 30865.6538 -302.0396 -239.6798
ENERGY: 600000 1.1936 6.4647 13.3650 0.0000 -10908.3799 1492.2713 0.0000 0.0000 1837.5454 -7557.5398 307.9750 -9395.0852 -7608.1974 297.0686 446.2937 513.8686 30315.3178 -193.6007 -121.8551
ENERGY: 900000 1.7254 5.3029 13.1322 0.0000 -10939.7504 1492.4258 0.0000 0.0000 1755.0450 -7672.1192 294.1478 -9427.1642 -7621.3357 296.7116 -57.8225 51.2735 30615.8027 -29.8179 34.4037
ENERGY: 1200000 1.1939 7.3637 14.5954 0.0000 -10932.9907 1458.7194 0.0000 0.0000 1766.0944 -7685.0239 295.9997 -9451.1183 -7623.6949 297.2988 -52.7629 53.4352 30233.5561 -40.8959 31.8167
ENERGY: 1500000 1.0987 8.4435 14.3884 0.0000 -10898.7499 1474.7758 0.0000 0.0000 1787.4123 -7612.6312 299.5726 -9400.0435 -7630.9578 297.1478 53.5912 133.1906 30723.9558 -45.2988 27.4463
TCL: Running FEP window   9: Lambda1 0.39999999999999997 Lambda2 0.44999999999999996 [dLambda 0.04999999999999999]
TCL: Setting parameter firsttimestep to 0
TCL: Setting parameter alchLambda to 0.39999999999999997
Info: NONBONDED TABLE R-SQUARED SPACING: 0.0625
Info: NONBONDED TABLE SIZE: 705 POINTS
TCL: Setting parameter alchLambda2 to 0.44999999999999996
Info: NONBONDED TABLE R-SQUARED SPACING: 0.0625
Info: NONBONDED TABLE SIZE: 705 POINTS
TCL: Running for 1500000 steps
ETITLE: TS BOND ANGLE DIHED IMPRP ELECT VDW BOUNDARY MISC KINETIC TOTAL TEMP POTENTIAL TOTALAVG TEMPAVG PRESSURE GPRESSURE VOLUME PRESSAVG GPRESSAVG
ENERGY: 0 1.0987 8.4435 14.3884 0.0000 -10898.7485 1474.8753 0.0000 0.0000 1786.5204 -7613.4223 299.4231 -9399.9427 -7613.4223 299.4231 68.7084 138.9480 30723.9558 68.7084 138.9480
ENERGY: 300000 2.6199 6.1879 13.8217 0.0000 -10940.3988 1461.6426 0.0000 0.0000 1761.4814 -7694.6452 295.2266 -9456.1266 -7622.2692 299.0048 -492.5431 -371.9705 31187.5034 -302.6236 -238.1569
ENERGY: 600000 0.7175 5.2452 15.8301 0.0000 -10933.5991 1545.1424 0.0000 0.0000 1790.9307 -7575.7331 300.1623 -9366.6638 -7605.7332 299.5222 1042.7058 1127.7035 30494.2005 -72.6875 3.9336
ENERGY: 900000 2.4106 8.1918 13.0332 0.0000 -10893.6478 1468.8766 0.0000 0.0000 1805.0388 -7596.0969 302.5268 -9401.1357 -7599.1140 300.3235 -221.7562 -130.3302 31073.8402 -75.6823 2.5416
ENERGY: 1200000 1.3891 9.8739 15.6080 0.0000 -11067.2374 1611.3583 0.0000 0.0000 1838.5741 -7590.4339 308.1474 -9429.0080 -7586.5941 301.9523 1028.4218 1120.0324 30633.8857 -50.1001 31.7450
ENERGY: 1500000 2.1331 11.1178 14.3799 0.0000 -10878.0153 1411.0859 0.0000 0.0000 1776.9867 -7662.3119 297.8253 -9439.2985 -7595.1956 301.6322 -548.3361 -522.0915 31246.9301 -108.2884 -31.5026
TCL: Running FEP window  10: Lambda1 0.44999999999999996 Lambda2 0.49999999999999994 [dLambda 0.04999999999999999]
TCL: Setting parameter firsttimestep to 0
TCL: Setting parameter alchLambda to 0.44999999999999996
Info: NONBONDED TABLE R-SQUARED SPACING: 0.0625
Info: NONBONDED TABLE SIZE: 705 POINTS
TCL: Setting parameter alchLambda2 to 0.49999999999999994
Info: NONBONDED TABLE R-SQUARED SPACING: 0.0625
Info: NONBONDED TABLE SIZE: 705 POINTS
TCL: Running for 1500000 steps
ETITLE: TS BOND ANGLE DIHED IMPRP ELECT VDW BOUNDARY MISC KINETIC TOTAL TEMP POTENTIAL TOTALAVG TEMPAVG PRESSURE GPRESSURE VOLUME PRESSAVG GPRESSAVG
ENERGY: 0 2.1331 11.1178 14.3799 0.0000 -10878.0157 1410.7602 0.0000 0.0000 1776.0770 -7663.5477 297.6728 -9439.6247 -7663.5477 297.6728 -592.0737 -518.6574 31246.9301 -592.0737 -518.6574
ENERGY: 300000 1.9228 6.8123 15.2670 0.0000 -10976.6092 1487.8216 0.0000 0.0000 1853.7833 -7611.0022 310.6965 -9464.7855 -7633.7079 301.5010 -19.0021 68.0487 30615.1568 -171.1989 -101.4846
ENERGY: 600000 1.3357 4.3995 13.3224 0.0000 -10953.1839 1490.2560 0.0000 0.0000 1730.2409 -7713.6294 289.9906 -9443.8702 -7621.8739 300.4754 189.4300 195.5829 30714.4337 -80.6621 -25.8884
ENERGY: 900000 1.7506 6.1243 13.9852 0.0000 -10931.5007 1541.7242 0.0000 0.0000 1865.8619 -7502.0545 312.7209 -9367.9164 -7617.9818 300.9524 842.7923 835.7924 30636.6525 -18.5342 25.8229
ENERGY: 1200000 1.5235 10.5205 14.2427 0.0000 -10837.8489 1446.3038 0.0000 0.0000 1771.8628 -7593.3956 296.9665 -9365.2583 -7618.4289 299.6023 -113.1188 -107.9643 30735.3843 -20.7459 26.3471
ENERGY: 1500000 3.1127 5.8865 16.0488 0.0000 -10949.5629 1523.0735 0.0000 0.0000 1764.9305 -7636.5108 295.8046 -9401.4413 -7617.8420 299.7374 672.7149 714.2179 30385.3007 83.2653 134.9307
TCL: Running FEP window  11: Lambda1 0.49999999999999994 Lambda2 0.5499999999999999 [dLambda 0.04999999999999999]
TCL: Setting parameter firsttimestep to 0
TCL: Setting parameter alchLambda to 0.49999999999999994
Info: NONBONDED TABLE R-SQUARED SPACING: 0.0625
Info: NONBONDED TABLE SIZE: 705 POINTS
TCL: Setting parameter alchLambda2 to 0.5499999999999999
Info: NONBONDED TABLE R-SQUARED SPACING: 0.0625
Info: NONBONDED TABLE SIZE: 705 POINTS
TCL: Running for 1500000 steps
ETITLE: TS BOND ANGLE DIHED IMPRP ELECT VDW BOUNDARY MISC KINETIC TOTAL TEMP POTENTIAL TOTALAVG TEMPAVG PRESSURE GPRESSURE VOLUME PRESSAVG GPRESSAVG
ENERGY: 0 3.1127 5.8865 16.0488 0.0000 -10949.5619 1523.1138 0.0000 0.0000 1764.0716 -7637.3285 295.6607 -9401.4001 -7637.3285 295.6607 643.0095 721.3980 30385.3007 643.0095 721.3980
ENERGY: 300000 3.3608 8.3872 13.3859 0.0000 -10818.9002 1364.4446 0.0000 0.0000 1843.6593 -7585.6624 308.9997 -9429.3217 -7619.4066 302.1722 -977.0427 -860.1770 30895.8509 170.5027 241.5940
ENERGY: 600000 1.3548 5.7956 17.0168 0.0000 -10874.8670 1485.7859 0.0000 0.0000 1784.2903 -7580.6236 299.0494 -9364.9138 -7606.2815 300.7885 381.3848 458.0937 30241.5095 184.4790 242.6278
ENERGY: 900000 1.1180 5.3324 14.2653 0.0000 -10812.4099 1459.3647 0.0000 0.0000 1794.5051 -7537.8245 300.7614 -9332.3296 -7598.7231 299.6880 -93.9545 27.3657 31020.1033 134.3456 194.3104
ENERGY: 1200000 0.3491 9.1863 13.5261 0.0000 -10964.3437 1479.6581 0.0000 0.0000 1762.2123 -7699.4117 295.3491 -9461.6240 -7604.8374 298.5899 -46.6836 52.0396 30995.2438 44.9951 105.0952
ENERGY: 1500000 2.7829 4.4987 15.6819 0.0000 -10890.4478 1477.7867 0.0000 0.0000 1786.6602 -7603.0375 299.4466 -9389.6977 -7607.5560 298.2345 -222.1455 -127.8111 30993.8738 77.7261 138.6146
TCL: Running FEP window  12: Lambda1 0.5499999999999999 Lambda2 0.6    [dLambda 0.050000000000000044]
TCL: Setting parameter firsttimestep to 0
TCL: Setting parameter alchLambda to 0.5499999999999999
Info: NONBONDED TABLE R-SQUARED SPACING: 0.0625
Info: NONBONDED TABLE SIZE: 705 POINTS
TCL: Setting parameter alchLambda2 to 0.6
Info: NONBONDED TABLE R-SQUARED SPACING: 0.0625
Info: NONBONDED TABLE SIZE: 705 POINTS
TCL: Running for 1500000 steps
ETITLE: TS BOND ANGLE DIHED IMPRP ELECT VDW BOUNDARY MISC KINETIC TOTAL TEMP POTENTIAL TOTALAVG TEMPAVG PRESSURE GPRESSURE VOLUME PRESSAVG GPRESSAVG
ENERGY: 0 2.7829 4.4987 15.6819 0.0000 -10890.5590 1477.5610 0.0000 0.0000 1785.7795 -7604.2551 299.2990 -9390.0346 -7604.2551 299.2990 -215.9306 -123.6919 30993.8738 -215.9306 -123.6919
ENERGY: 300000 1.0277 5.7075 13.4269 0.0000 -10810.5809 1505.5762 0.0000 0.0000 1806.0499 -7478.7926 302.6963 -9284.8426 -7573.7484 299.7507 567.0629 543.7292 30991.9234 -8.9278 29.0210
ENERGY: 600000 2.6484 7.6698 13.7679 0.0000 -10856.4690 1390.6750 0.0000 0.0000 1819.1020 -7622.6059 304.8838 -9441.7079 -7592.7583 299.8575 -746.7040 -669.5788 31128.0993 -60.5438 -6.1129
ENERGY: 900000 3.5854 5.9837 15.2953 0.0000 -10833.2144 1452.1013 0.0000 0.0000 1726.1989 -7630.0499 289.3132 -9356.2488 -7594.7720 298.9236 -173.1715 -94.8986 30667.4809 -122.3195 -58.1597
ENERGY: 1200000 1.9984 8.0275 15.9780 0.0000 -10739.0288 1420.5216 0.0000 0.0000 1781.3642 -7511.1390 298.5590 -9292.5032 -7594.9764 299.1706 -300.0424 -247.3633 31595.2818 -146.9661 -89.3009
ENERGY: 1500000 2.3248 5.5226 13.8415 0.0000 -10793.4792 1431.2754 0.0000 0.0000 1795.6044 -7544.9106 300.9456 -9340.5150 -7590.6153 299.5525 -140.1389 -60.7725 30735.4082 -134.4544 -74.5137
TCL: Running FEP window  13: Lambda1 0.6    Lambda2 0.65   [dLambda 0.050000000000000044]
TCL: Setting parameter firsttimestep to 0
TCL: Setting parameter alchLambda to 0.6
Info: NONBONDED TABLE R-SQUARED SPACING: 0.0625
Info: NONBONDED TABLE SIZE: 705 POINTS
TCL: Setting parameter alchLambda2 to 0.65
Info: NONBONDED TABLE R-SQUARED SPACING: 0.0625
Info: NONBONDED TABLE SIZE: 705 POINTS
TCL: Running for 1500000 steps
ETITLE: TS BOND ANGLE DIHED IMPRP ELECT VDW BOUNDARY MISC KINETIC TOTAL TEMP POTENTIAL TOTALAVG TEMPAVG PRESSURE GPRESSURE VOLUME PRESSAVG GPRESSAVG
ENERGY: 0 2.3248 5.5226 13.8415 0.0000 -10794.2542 1431.3800 0.0000 0.0000 1794.6854 -7546.4999 300.7916 -9341.1853 -7546.4999 300.7916 -142.1941 -52.2591 30735.4082 -142.1941 -52.2591
ENERGY: 300000 2.2583 6.0826 14.0024 0.0000 -11035.8633 1554.5668 0.0000 0.0000 1833.9543 -7624.9990 307.3731 -9458.9532 -7564.7378 304.1819 717.5459 777.3465 30356.4512 109.7467 169.4523
ENERGY: 600000 1.6357 7.4667 13.2481 0.0000 -10849.8818 1413.7292 0.0000 0.0000 1776.3570 -7637.4452 297.7197 -9413.8022 -7552.0751 304.5091 -390.3610 -302.8910 30621.3359 -18.8355 49.9863
ENERGY: 900000 0.9606 7.2569 14.2656 0.0000 -10710.8678 1349.9677 0.0000 0.0000 1789.4211 -7548.9959 299.9093 -9338.4169 -7568.4854 302.4140 -730.6560 -660.4588 31064.5836 -155.4843 -85.8108
ENERGY: 1200000 2.5478 13.0892 14.0287 0.0000 -10857.3261 1429.6457 0.0000 0.0000 1747.0326 -7650.9820 292.8049 -9398.0147 -7583.1397 301.7742 -670.0246 -618.5876 31411.8681 -176.5091 -104.6113
ENERGY: 1500000 1.2107 7.8006 15.4208 0.0000 -10837.9659 1450.0059 0.0000 0.0000 1777.3499 -7586.1781 297.8861 -9363.5280 -7588.8898 300.8643 294.8469 284.8093 30518.7556 -165.0755 -94.6622
TCL: Running FEP window  14: Lambda1 0.65   Lambda2 0.7000000000000001 [dLambda 0.050000000000000044]
TCL: Setting parameter firsttimestep to 0
TCL: Setting parameter alchLambda to 0.65
Info: NONBONDED TABLE R-SQUARED SPACING: 0.0625
Info: NONBONDED TABLE SIZE: 705 POINTS
TCL: Setting parameter alchLambda2 to 0.7000000000000001
Info: NONBONDED TABLE R-SQUARED SPACING: 0.0625
Info: NONBONDED TABLE SIZE: 705 POINTS
TCL: Running for 1500000 steps
ETITLE: TS BOND ANGLE DIHED IMPRP ELECT VDW BOUNDARY MISC KINETIC TOTAL TEMP POTENTIAL TOTALAVG TEMPAVG PRESSURE GPRESSURE VOLUME PRESSAVG GPRESSAVG
ENERGY: 0 1.2107 7.8006 15.4208 0.0000 -10838.0237 1449.3784 0.0000 0.0000 1776.4885 -7587.7247 297.7418 -9364.2133 -7587.7247 297.7418 212.2303 283.3367 30518.7556 212.2303 283.3367
ENERGY: 300000 0.5668 5.2210 13.8653 0.0000 -10966.7879 1495.3795 0.0000 0.0000 1836.5301 -7615.2253 307.8048 -9451.7555 -7601.1375 301.0916 127.3306 196.4901 30484.4254 -105.6435 -33.4899
ENERGY: 600000 1.1347 7.8756 14.2160 0.0000 -10924.8949 1474.8327 0.0000 0.0000 1803.0566 -7623.7792 302.1946 -9426.8358 -7592.1854 300.7665 -185.7438 -61.4960 30967.0015 -118.2336 -64.1950
ENERGY: 900000 1.7036 3.8218 14.5964 0.0000 -10792.1488 1434.3782 0.0000 0.0000 1781.8318 -7555.8170 298.6373 -9337.6488 -7595.9460 299.9317 -149.5497 -159.9889 31149.9029 -36.5870 6.9696
ENERGY: 1200000 1.7252 6.6113 15.0428 0.0000 -10869.3547 1492.1975 0.0000 0.0000 1774.6467 -7579.1310 297.4331 -9353.7778 -7587.2280 300.6028 71.8624 149.0961 31074.2242 -85.8589 -35.9591
ENERGY: 1500000 1.4827 6.3515 13.4652 0.0000 -10845.3364 1392.5641 0.0000 0.0000 1737.2651 -7694.2079 291.1679 -9431.4730 -7599.0008 299.8712 -564.8051 -483.0768 30875.3193 -134.2725 -76.2010
TCL: Running FEP window  15: Lambda1 0.7000000000000001 Lambda2 0.7500000000000001 [dLambda 0.050000000000000044]
TCL: Setting parameter firsttimestep to 0
TCL: Setting parameter alchLambda to 0.7000000000000001
Info: NONBONDED TABLE R-SQUARED SPACING: 0.0625
Info: NONBONDED TABLE SIZE: 705 POINTS
TCL: Setting parameter alchLambda2 to 0.7500000000000001
Info: NONBONDED TABLE R-SQUARED SPACING: 0.0625
Info: NONBONDED TABLE SIZE: 705 POINTS
TCL: Running for 1500000 steps
ETITLE: TS BOND ANGLE DIHED IMPRP ELECT VDW BOUNDARY MISC KINETIC TOTAL TEMP POTENTIAL TOTALAVG TEMPAVG PRESSURE GPRESSURE VOLUME PRESSAVG GPRESSAVG
ENERGY: 0 1.4827 6.3515 13.4652 0.0000 -10846.5538 1392.6180 0.0000 0.0000 1736.3440 -7696.2924 291.0135 -9432.6364 -7696.2924 291.0135 -567.6566 -475.4385 30875.3193 -567.6566 -475.4385
ENERGY: 300000 0.6443 5.7507 15.1065 0.0000 -10854.2842 1482.3896 0.0000 0.0000 1786.9335 -7563.4596 299.4924 -9350.3931 -7624.6563 298.7226 260.4437 249.5431 31125.8967 -51.5747 -19.9628
ENERGY: 600000 1.8111 5.4315 14.7028 0.0000 -10801.1751 1470.0551 0.0000 0.0000 1788.1145 -7521.0601 299.6903 -9309.1746 -7593.5090 301.8156 109.6906 149.0749 31112.1296 -70.9642 -28.2891
ENERGY: 900000 1.1906 7.3481 12.6837 0.0000 -10784.5237 1421.9366 0.0000 0.0000 1782.0918 -7559.2729 298.6809 -9341.3647 -7589.6665 301.3853 -428.4483 -387.4901 31427.4697 -189.6210 -146.2024
ENERGY: 1200000 0.5591 7.4661 14.2385 0.0000 -10959.9776 1547.9518 0.0000 0.0000 1814.9024 -7574.8596 304.1800 -9389.7620 -7589.3271 301.9880 728.4864 814.5750 30876.7965 -56.9583 -15.8204
ENERGY: 1500000 1.2509 7.3170 16.0554 0.0000 -10966.0593 1517.9037 0.0000 0.0000 1733.9421 -7689.5902 290.6109 -9423.5323 -7596.6395 301.2948 235.7592 309.5263 30944.8299 -100.8298 -49.4719
TCL: Running FEP window  16: Lambda1 0.7500000000000001 Lambda2 0.8000000000000002 [dLambda 0.050000000000000044]
TCL: Setting parameter firsttimestep to 0
TCL: Setting parameter alchLambda to 0.7500000000000001
Info: NONBONDED TABLE R-SQUARED SPACING: 0.0625
Info: NONBONDED TABLE SIZE: 705 POINTS
TCL: Setting parameter alchLambda2 to 0.8000000000000002
Info: NONBONDED TABLE R-SQUARED SPACING: 0.0625
Info: NONBONDED TABLE SIZE: 705 POINTS
TCL: Running for 1500000 steps
ETITLE: TS BOND ANGLE DIHED IMPRP ELECT VDW BOUNDARY MISC KINETIC TOTAL TEMP POTENTIAL TOTALAVG TEMPAVG PRESSURE GPRESSURE VOLUME PRESSAVG GPRESSAVG
ENERGY: 0 1.2509 7.3170 16.0554 0.0000 -10967.2512 1518.6172 0.0000 0.0000 1733.0822 -7690.9285 290.4668 -9424.0107 -7690.9285 290.4668 237.8164 323.5737 30944.8299 237.8164 323.5737
ENERGY: 300000 1.6949 10.2942 14.3864 0.0000 -10836.1652 1500.6005 0.0000 0.0000 1817.5633 -7491.6258 304.6260 -9309.1891 -7551.0443 296.7459 582.5497 613.1434 31106.3882 214.2144 245.8865
ENERGY: 600000 3.3984 6.9445 12.6841 0.0000 -10924.8444 1468.0880 0.0000 0.0000 1807.2019 -7626.5274 302.8894 -9433.7293 -7577.0802 299.6321 -477.2839 -428.8507 31361.7684 -103.1614 -66.3635
ENERGY: 900000 0.9512 8.4531 13.6411 0.0000 -10892.8500 1444.7464 0.0000 0.0000 1777.5168 -7647.5414 297.9141 -9425.0583 -7578.3096 301.3063 -388.5950 -259.9945 31180.9566 -148.8540 -93.0768
ENERGY: 1200000 2.4701 5.8246 17.6934 0.0000 -10978.1957 1510.6550 0.0000 0.0000 1810.5833 -7630.9692 303.4561 -9441.5525 -7599.2294 300.8375 562.4900 596.1024 30464.8843 -78.5748 -21.4700
ENERGY: 1500000 1.9728 7.7716 14.2738 0.0000 -10758.5266 1365.8410 0.0000 0.0000 1770.7273 -7597.9402 296.7762 -9368.6675 -7599.2526 300.5475 -702.6744 -671.6954 31089.4368 -77.3159 -19.5610
TCL: Running FEP window  17: Lambda1 0.8000000000000002 Lambda2 0.8500000000000002 [dLambda 0.050000000000000044]
TCL: Setting parameter firsttimestep to 0
TCL: Setting parameter alchLambda to 0.8000000000000002
Info: NONBONDED TABLE R-SQUARED SPACING: 0.0625
Info: NONBONDED TABLE SIZE: 705 POINTS
TCL: Setting parameter alchLambda2 to 0.8500000000000002
Info: NONBONDED TABLE R-SQUARED SPACING: 0.0625
Info: NONBONDED TABLE SIZE: 705 POINTS
TCL: Running for 1500000 steps
ETITLE: TS BOND ANGLE DIHED IMPRP ELECT VDW BOUNDARY MISC KINETIC TOTAL TEMP POTENTIAL TOTALAVG TEMPAVG PRESSURE GPRESSURE VOLUME PRESSAVG GPRESSAVG
ENERGY: 0 1.9728 7.7716 14.2738 0.0000 -10759.1817 1365.6516 0.0000 0.0000 1769.8485 -7599.6635 296.6289 -9369.5120 -7599.6635 296.6289 -747.7118 -663.8003 31089.4368 -747.7118 -663.8003
ENERGY: 300000 0.8011 7.4181 16.2000 0.0000 -10819.7807 1461.4110 0.0000 0.0000 1827.7205 -7506.2301 306.3283 -9333.9506 -7579.8697 301.8783 -109.5404 -54.7606 31699.7032 -361.9421 -305.4390
ENERGY: 600000 0.8405 4.3881 16.3212 0.0000 -10769.9660 1416.0413 0.0000 0.0000 1817.8302 -7514.5447 304.6707 -9332.3749 -7564.5238 302.8083 29.0987 85.5783 30654.2370 -22.9168 31.4922
ENERGY: 900000 2.6453 12.4297 14.4398 0.0000 -11019.5791 1532.1647 0.0000 0.0000 1768.3107 -7689.5889 296.3712 -9457.8996 -7584.2363 301.2883 631.8384 689.3831 30055.6041 18.9983 81.4972
ENERGY: 1200000 1.0816 9.8185 14.2459 0.0000 -10855.7572 1427.7981 0.0000 0.0000 1769.0734 -7633.7397 296.4990 -9402.8131 -7586.8978 301.1011 -411.9677 -264.6542 30827.8637 -40.0534 25.2745
ENERGY: 1500000 1.6648 5.9119 13.5926 0.0000 -10821.8212 1427.1690 0.0000 0.0000 1802.1878 -7571.2950 302.0490 -9373.4827 -7579.2320 301.5412 -148.9923 -102.1410 31075.0077 -41.2233 20.6198
TCL: Running FEP window  18: Lambda1 0.8500000000000002 Lambda2 0.9000000000000002 [dLambda 0.050000000000000044]
TCL: Setting parameter firsttimestep to 0
TCL: Setting parameter alchLambda to 0.8500000000000002
Info: NONBONDED TABLE R-SQUARED SPACING: 0.0625
Info: NONBONDED TABLE SIZE: 705 POINTS
TCL: Setting parameter alchLambda2 to 0.9000000000000002
Info: NONBONDED TABLE R-SQUARED SPACING: 0.0625
Info: NONBONDED TABLE SIZE: 705 POINTS
TCL: Running for 1500000 steps
ETITLE: TS BOND ANGLE DIHED IMPRP ELECT VDW BOUNDARY MISC KINETIC TOTAL TEMP POTENTIAL TOTALAVG TEMPAVG PRESSURE GPRESSURE VOLUME PRESSAVG GPRESSAVG
ENERGY: 0 1.6648 5.9119 13.5926 0.0000 -10822.8419 1426.8530 0.0000 0.0000 1801.3166 -7573.5029 301.9030 -9374.8195 -7573.5029 301.9030 -172.9388 -98.6728 31075.0077 -172.9388 -98.6728
ENERGY: 300000 3.7596 10.8503 14.3704 0.0000 -10904.3287 1480.6659 0.0000 0.0000 1833.6351 -7561.0473 307.3196 -9394.6824 -7584.9115 301.9500 36.1691 86.3249 30921.0619 -142.9199 -81.3106
ENERGY: 600000 2.8554 12.2638 15.6702 0.0000 -10908.1413 1511.0710 0.0000 0.0000 1802.9716 -7563.3092 302.1804 -9366.2808 -7591.9298 299.9523 695.5481 673.0891 30672.0693 -0.1866 47.8944
ENERGY: 900000 0.9112 10.8544 14.9516 0.0000 -10979.8788 1509.6908 0.0000 0.0000 1853.6922 -7589.7786 310.6812 -9443.4708 -7604.5657 302.0354 481.1720 481.3258 30458.8140 -42.6820 -3.5568
ENERGY: 1200000 1.5349 6.8682 14.0793 0.0000 -10819.4216 1379.8956 0.0000 0.0000 1777.6903 -7639.3533 297.9432 -9417.0435 -7610.5066 301.4075 -526.0523 -481.8201 30499.1959 -130.3739 -89.6724
ENERGY: 1500000 0.9700 4.5748 15.4801 0.0000 -10901.1222 1455.5979 0.0000 0.0000 1818.6235 -7605.8758 304.8037 -9424.4993 -7616.0782 300.7778 -94.1899 34.3903 31013.2957 -116.2190 -67.8980
TCL: Running FEP window  19: Lambda1 0.9000000000000002 Lambda2 0.9500000000000003 [dLambda 0.050000000000000044]
TCL: Setting parameter firsttimestep to 0
TCL: Setting parameter alchLambda to 0.9000000000000002
Info: NONBONDED TABLE R-SQUARED SPACING: 0.0625
Info: NONBONDED TABLE SIZE: 705 POINTS
TCL: Setting parameter alchLambda2 to 0.9500000000000003
Info: NONBONDED TABLE R-SQUARED SPACING: 0.0625
Info: NONBONDED TABLE SIZE: 705 POINTS
TCL: Running for 1500000 steps
ETITLE: TS BOND ANGLE DIHED IMPRP ELECT VDW BOUNDARY MISC KINETIC TOTAL TEMP POTENTIAL TOTALAVG TEMPAVG PRESSURE GPRESSURE VOLUME PRESSAVG GPRESSAVG
ENERGY: 0 0.9700 4.5748 15.4801 0.0000 -10902.5990 1456.4837 0.0000 0.0000 1817.7472 -7607.3432 304.6568 -9425.0903 -7607.3432 304.6568 -29.6682 51.2902 31013.2957 -29.6682 51.2902
ENERGY: 300000 3.0852 9.1624 13.6934 0.0000 -10982.6239 1526.8090 0.0000 0.0000 1796.0571 -7633.8168 301.0215 -9429.8739 -7612.4513 301.0767 270.6153 367.8277 30780.1059 -166.2806 -86.3478
ENERGY: 600000 2.5286 3.9127 14.6846 0.0000 -10874.1111 1436.3167 0.0000 0.0000 1761.2490 -7655.4195 295.1876 -9416.6685 -7611.2177 300.3455 -243.8884 -134.7951 30634.2568 -81.6776 -6.5323
ENERGY: 900000 4.8671 13.0928 16.3655 0.0000 -10902.5194 1503.4246 0.0000 0.0000 1804.4784 -7560.2910 302.4329 -9364.7695 -7606.6868 299.9416 321.9377 377.8847 30784.0622 2.4782 72.6222
ENERGY: 1200000 1.0692 10.4704 15.0328 0.0000 -10953.2462 1457.3955 0.0000 0.0000 1783.8117 -7685.4667 298.9691 -9469.2784 -7627.5760 298.4919 -66.2756 5.9094 30443.2581 36.8384 98.8739
ENERGY: 1500000 3.1535 5.9588 13.5156 0.0000 -10816.9164 1437.9270 0.0000 0.0000 1786.5658 -7569.7958 299.4307 -9356.3616 -7613.7938 299.3451 -291.4112 -272.9448 31353.6747 16.3040 73.5742
TCL: Running FEP window  20: Lambda1 0.9500000000000003 Lambda2 1.0    [dLambda 0.04999999999999971]
TCL: Setting parameter firsttimestep to 0
TCL: Setting parameter alchLambda to 0.9500000000000003
Info: NONBONDED TABLE R-SQUARED SPACING: 0.0625
Info: NONBONDED TABLE SIZE: 705 POINTS
TCL: Setting parameter alchLambda2 to 1.0
Info: NONBONDED TABLE R-SQUARED SPACING: 0.0625
Info: NONBONDED TABLE SIZE: 705 POINTS
TCL: Running for 1500000 steps
ETITLE: TS BOND ANGLE DIHED IMPRP ELECT VDW BOUNDARY MISC KINETIC TOTAL TEMP POTENTIAL TOTALAVG TEMPAVG PRESSURE GPRESSURE VOLUME PRESSAVG GPRESSAVG
ENERGY: 0 3.1535 5.9588 13.5156 0.0000 -10817.9233 1438.2868 0.0000 0.0000 1785.6682 -7571.3405 299.2803 -9357.0087 -7571.3405 299.2803 -334.2449 -259.7804 31353.6747 -334.2449 -259.7804
ENERGY: 300000 3.2626 6.0689 15.3132 0.0000 -10855.7626 1430.6278 0.0000 0.0000 1805.1178 -7595.3723 302.5401 -9400.4901 -7577.3506 300.5254 -289.7668 -207.3130 30962.3966 -171.0747 -112.1458
ENERGY: 600000 3.4811 7.9707 16.4435 0.0000 -10925.1590 1473.0478 0.0000 0.0000 1827.8717 -7596.3442 306.3537 -9424.2160 -7602.9970 300.5258 107.4951 177.6882 30659.1503 -43.9109 16.8079
ENERGY: 900000 3.4714 5.2714 15.2304 0.0000 -10965.1830 1477.4615 0.0000 0.0000 1789.3963 -7674.3520 299.9051 -9463.7483 -7621.9881 300.3505 154.4026 239.3694 30464.6674 -36.0872 26.6806
ENERGY: 1200000 1.4615 9.9634 13.7062 0.0000 -10867.3959 1425.7825 0.0000 0.0000 1755.0189 -7661.4633 294.1434 -9416.4822 -7620.8395 299.9525 -515.8122 -474.1107 31068.6870 -19.3042 38.4949
ENERGY: 1500000 0.3220 9.6879 20.7041 0.0000 -10949.1036 1521.1914 0.0000 0.0000 1761.0559 -7636.1423 295.1552 -9397.1982 -7620.5825 300.0932 515.5784 597.1123 30756.3453 19.1110 78.8403
TCL: Exiting due to exit command.
