Info: SIMULATION PARAMETERS:
Info: TIMESTEP               2
Info: NUMBER OF STEPS        0
Info: STEPS PER CYCLE        10
Info: PERIODIC CELL BASIS 1  30.4313 0 0
Info: PERIODIC CELL BASIS 2  0 31.3743 0
Info: PERIODIC CELL BASIS 3  0 0 32.2035
Info: PERIODIC CELL CENTER   0 0 0
Info: WRAPPING WATERS AROUND PERIODIC BOUNDARIES ON OUTPUT.
Info: WRAPPING ALL CLUSTERS AROUND PERIODIC BOUNDARIES ON OUTPUT.
Info: FIRST LDB TIMESTEP     50
Info: LAST LDB TIMESTEP     -1
Info: HOM BACKGROUND SCALING 1
Info: PME BACKGROUND SCALING 1
Info: MIN ATOMS PER PATCH    40
Info: EMPTY PATCH LOAD       40 ATOMS
Info: VELOCITY FILE          mobley_7415647_equil.vel
Info: CENTER OF MASS MOVING INITIALLY? NO
Info: DIELECTRIC             1
Info: EXCLUDE                SCALED ONE-FOUR
Info: 1-4 ELECTROSTATICS SCALED BY 0.833333
Info: MODIFIED 1-4 VDW PARAMETERS WILL BE USED
Info: DCD FILENAME           mobley_7415647_prod.dcd
Info: DCD FREQUENCY          100000
Info: DCD FIRST STEP         100000
Info: DCD FILE WILL CONTAIN UNIT CELL DATA
Info: XST FILENAME           mobley_7415647_prod.xst
Info: XST FREQUENCY          100000
Info: NO VELOCITY DCD OUTPUT
Info: NO FORCE DCD OUTPUT
Info: OUTPUT FILENAME        mobley_7415647_prod
Info: BINARY OUTPUT FILES WILL BE USED
Info: RESTART FILENAME       mobley_7415647_prod.restart
Info: RESTART FREQUENCY      100000
Info: BINARY RESTART FILES WILL BE USED
Info: CUTOFF                 9
Info: PAIRLIST DISTANCE      11
Info: PAIRLIST SHRINK RATE   0.01
Info: PAIRLIST GROW RATE     0.01
Info: PAIRLIST TRIGGER       0.3
Info: PAIRLISTS PER CYCLE    2
Info: PAIRLISTS ENABLED
Info: MARGIN                 2
Info: HYDROGEN GROUP CUTOFF  2.5
Info: PATCH DIMENSION        15.5
Info: ENERGY OUTPUT STEPS    100000
Info: ENERGY EVALUATION STEPS    100000
Info: OUTPUT ENERGY PRECISION 4
Info: CROSSTERM ENERGY INCLUDED IN DIHEDRAL
Info: TIMING OUTPUT STEPS    1000000
Info: PRESSURE OUTPUT STEPS  100000
Info: ALCHEMICAL FEP ON
Info: FEP CURRENT LAMBDA VALUE     0
Info: FEP COMPARISON LAMBDA VALUE  0.05
Info: FEP INTRA-ALCHEMICAL NON-BONDED INTERACTIONS WILL BE RETAINED
Info: FEP INTRA-ALCHEMICAL BONDED INTERACTIONS WILL BE RETAINED
Info: FEP VDW SHIFTING COEFFICIENT 5
Info: FEP ELEC. ACTIVE FOR ANNIHILATED PARTICLES BETWEEN LAMBDA = 0 AND LAMBDA = 0.5
Info: FEP ELEC. ACTIVE FOR EXNIHILATED PARTICLES BETWEEN LAMBDA = 0.5 AND LAMBDA = 1
Info: FEP VDW ACTIVE FOR ANNIHILATED PARTICLES BETWEEN LAMBDA = 0 AND LAMBDA = 1
Info: FEP VDW ACTIVE FOR EXNIHILATED PARTICLES BETWEEN LAMBDA = 0 AND LAMBDA = 1
Info: FEP BOND ACTIVE FOR ANNIHILATED PARTICLES BETWEEN LAMBDA = 1 AND LAMBDA = 1
Info: FEP BOND ACTIVE FOR EXNIHILATED PARTICLES BETWEEN LAMBDA = 0 AND LAMBDA = 0
Info: LANGEVIN DYNAMICS ACTIVE
Info: LANGEVIN TEMPERATURE   300
Info: LANGEVIN USING BBK INTEGRATOR
Info: LANGEVIN DAMPING COEFFICIENT IS 1 INVERSE PS
Info: LANGEVIN DYNAMICS APPLIED TO HYDROGENS
Info: LANGEVIN PISTON PRESSURE CONTROL ACTIVE
Info:        TARGET PRESSURE IS 1.01325 BAR
Info:     OSCILLATION PERIOD IS 50 FS
Info:             DECAY TIME IS 25 FS
Info:     PISTON TEMPERATURE IS 300 K
Info:       PRESSURE CONTROL IS GROUP-BASED
Info:    INITIAL STRAIN RATE IS 0.000313747 0.000313747 0.000313747
Info:       CELL FLUCTUATION IS ISOTROPIC
Info: PARTICLE MESH EWALD (PME) ACTIVE
Info: PME TOLERANCE               1e-06
Info: PME EWALD COEFFICIENT       0.348832
Info: PME INTERPOLATION ORDER     4
Info: PME GRID DIMENSIONS         32 32 36
Info: PME MAXIMUM GRID SPACING    1
Info: PME CALCULATION WILL BE PERFORMED ON GPU
Info: FULL ELECTROSTATIC EVALUATION FREQUENCY      2
Info: USING VERLET I (r-RESPA) MTS SCHEME.
Info: C1 SPLITTING OF LONG RANGE ELECTROSTATICS
Info: PLACING ATOMS IN PATCHES BY HYDROGEN GROUPS
Info: RIGID BONDS TO HYDROGEN : ALL
Info:         ERROR TOLERANCE : 1e-08
Info:          MAX ITERATIONS : 100
Info: RIGID WATER USING SETTLE ALGORITHM
Info: RANDOM NUMBER SEED     1743886136
Info: USE HYDROGEN BONDS?    NO
Info: Using AMBER format force field!
Info: AMBER PARM FILE        mobley_7415647.prmtop
Info: COORDINATE PDB         mobley_7415647.pdb
Info: Exclusions will be read from PARM file!
Info: SCNB (VDW SCALING)     2
Info: USING ARITHMETIC MEAN TO COMBINE L-J SIGMA PARAMETERS
Info: BINARY COORDINATES     mobley_7415647_equil.coor
Info: SUMMARY OF PARAMETERS:
Info: 11 BONDS
Info: 13 ANGLES
Info:   13 HARMONIC
Info:   0 COSINE-BASED
Info: 7 DIHEDRAL
Info: 0 IMPROPER
Info: 0 CROSSTERM
Info: 0 VDW
Info: 36 VDW_PAIRS
Info: 0 NBTHOLE_PAIRS
Info: To read alchdata from file: mobley_7415647.pdb
Info: To read alchflag data from column: 5
Info: STRUCTURE SUMMARY:
Info: 2925 ATOMS
Info: 2925 BONDS
Info: 39 ANGLES
Info: 56 DIHEDRALS
Info: 0 IMPROPERS
Info: 0 CROSSTERMS
Info: 3009 EXCLUSIONS
Info: 2911 RIGID BONDS
Info: ALCH: 0 ATOMS TO DISAPPEAR IN FINAL STATE
Info: ALCH: 24 ATOMS TO APPEAR IN FINAL STATE
Info: 5864 DEGREES OF FREEDOM
Info: 981 HYDROGEN GROUPS
Info: 4 ATOMS IN LARGEST HYDROGEN GROUP
Info: 981 MIGRATION GROUPS
Info: 4 ATOMS IN LARGEST MIGRATION GROUP
Info: TOTAL MASS = 17615.7 amu
Info: TOTAL CHARGE = 9.99719e-05 e
Info: MASS DENSITY = 0.951394 g/cm^3
Info: ATOM DENSITY = 0.0951323 atoms/A^3
Info: ADDED 0 IMPLICIT EXCLUSIONS
Info: NONBONDED TABLE R-SQUARED SPACING: 0.0625
Info: NONBONDED TABLE SIZE: 705 POINTS
Info: REMOVING COM VELOCITY 0.0863902 -0.0766107 0.163554
Info: Use 3D box decompostion in PME FFT.
Info: Updated CUDA force table with 4096 elements.
Info: Updated CUDA LJ table with 8 x 8 elements.
Info: Found 26 unique exclusion lists needing 84 bytes
TCL: Running for 1500000 steps
ETITLE: TS BOND ANGLE DIHED IMPRP ELECT VDW BOUNDARY MISC KINETIC TOTAL TEMP POTENTIAL TOTALAVG TEMPAVG PRESSURE GPRESSURE VOLUME PRESSAVG GPRESSAVG
ENERGY: 0 7.8664 6.4012 10.7581 0.0000 -10418.4227 1396.5876 0.0000 0.0000 1760.3619 -7236.4476 302.1332 -8996.8095 -7236.4476 302.1332 -322.8293 -243.7520 30746.6426 -322.8293 -243.7520
ENERGY: 300000 5.4956 7.6985 12.0735 0.0000 -10583.1005 1463.5011 0.0000 0.0000 1805.5823 -7288.7495 309.8944 -9094.3318 -7280.6567 304.7785 200.2451 226.5968 29888.8005 139.7764 188.0921
ENERGY: 600000 2.1365 9.4143 7.3753 0.0000 -10799.5859 1562.1459 0.0000 0.0000 1730.9765 -7487.5374 297.0897 -9218.5139 -7295.0380 303.6443 916.3960 939.0051 29540.6858 10.9669 47.7838
ENERGY: 900000 4.5229 9.5809 13.8914 0.0000 -10565.0840 1399.9499 0.0000 0.0000 1752.0140 -7385.1249 300.7004 -9137.1389 -7311.3566 303.0613 -612.1188 -567.7597 30261.6867 -128.9880 -84.5972
ENERGY: 1200000 4.4783 5.7972 9.9426 0.0000 -10686.2561 1438.3382 0.0000 0.0000 1763.7892 -7463.9107 302.7214 -9227.6998 -7336.7382 301.9938 -172.4669 -100.9767 29968.5709 -19.0195 29.7018
ENERGY: 1500000 8.0219 5.4184 8.3599 0.0000 -10672.0082 1457.4486 0.0000 0.0000 1715.6780 -7477.0814 294.4640 -9192.7594 -7343.5907 301.4440 -281.4254 -209.7310 29959.0917 -20.7329 24.4056
TCL: Running FEP window   2: Lambda1 0.05   Lambda2 0.1    [dLambda 0.05  ]
TCL: Setting parameter firsttimestep to 0
TCL: Setting parameter alchLambda to 0.05
Info: NONBONDED TABLE R-SQUARED SPACING: 0.0625
Info: NONBONDED TABLE SIZE: 705 POINTS
TCL: Setting parameter alchLambda2 to 0.1
Info: NONBONDED TABLE R-SQUARED SPACING: 0.0625
Info: NONBONDED TABLE SIZE: 705 POINTS
TCL: Running for 1500000 steps
ETITLE: TS BOND ANGLE DIHED IMPRP ELECT VDW BOUNDARY MISC KINETIC TOTAL TEMP POTENTIAL TOTALAVG TEMPAVG PRESSURE GPRESSURE VOLUME PRESSAVG GPRESSAVG
ENERGY: 0 8.0219 5.4184 8.3599 0.0000 -10672.0072 1462.2405 0.0000 0.0000 1714.7877 -7473.1787 294.3112 -9187.9664 -7473.1787 294.3112 -294.7283 -200.4185 29959.0917 -294.7283 -200.4185
ENERGY: 300000 3.2378 13.5380 8.2321 0.0000 -10538.8816 1389.5156 0.0000 0.0000 1720.5966 -7403.7614 295.3082 -9124.3580 -7371.4434 296.3720 -389.8137 -286.1650 29864.2399 -231.8726 -172.2244
ENERGY: 600000 3.4711 4.3469 12.6788 0.0000 -10492.6592 1435.0873 0.0000 0.0000 1763.3645 -7273.7105 302.6485 -9037.0750 -7352.2150 298.9339 503.4208 576.0090 29337.3113 -91.8128 -35.1262
ENERGY: 900000 6.1721 9.4095 9.8963 0.0000 -10398.4576 1360.0696 0.0000 0.0000 1776.9634 -7235.9466 304.9825 -9012.9100 -7349.3694 299.6039 -473.1918 -430.2765 30248.0304 -48.1042 9.0467
ENERGY: 1200000 2.0248 9.5934 14.2252 0.0000 -10527.5828 1386.6942 0.0000 0.0000 1775.9084 -7339.1367 304.8014 -9115.0451 -7352.8829 299.9241 -310.5103 -316.5796 29955.7715 -109.5052 -58.5878
ENERGY: 1500000 3.7521 7.8937 7.5239 0.0000 -10684.7489 1519.7068 0.0000 0.0000 1705.0442 -7440.8281 292.6389 -9145.8723 -7367.3247 299.0390 537.0609 601.6672 30025.4217 -25.7286 26.0666
TCL: Running FEP window   3: Lambda1 0.1    Lambda2 0.15000000000000002 [dLambda 0.05000000000000002]
TCL: Setting parameter firsttimestep to 0
TCL: Setting parameter alchLambda to 0.1
Info: NONBONDED TABLE R-SQUARED SPACING: 0.0625
Info: NONBONDED TABLE SIZE: 705 POINTS
TCL: Setting parameter alchLambda2 to 0.15000000000000002
Info: NONBONDED TABLE R-SQUARED SPACING: 0.0625
Info: NONBONDED TABLE SIZE: 705 POINTS
TCL: Running for 1500000 steps
ETITLE: TS BOND ANGLE DIHED IMPRP ELECT VDW BOUNDARY MISC KINETIC TOTAL TEMP POTENTIAL TOTALAVG TEMPAVG PRESSURE GPRESSURE VOLUME PRESSAVG GPRESSAVG
ENERGY: 0 3.7521 7.8937 7.5239 0.0000 -10684.7490 1521.5186 0.0000 0.0000 1704.2002 -7439.8604 292.4940 -9144.0606 -7439.8604 292.4940 523.9282 611.7902 30025.4217 523.9282 611.7902
ENERGY: 300000 5.8979 7.6565 6.6127 0.0000 -10551.7848 1439.4616 0.0000 0.0000 1795.4300 -7296.7262 308.1519 -9092.1562 -7346.7158 300.9569 321.2487 366.7949 30074.6422 60.2918 141.3346
ENERGY: 600000 4.4648 6.1350 11.6285 0.0000 -10484.1715 1353.6289 0.0000 0.0000 1696.4872 -7411.8271 291.1703 -9108.3143 -7361.1599 300.1512 -752.6127 -731.8507 30230.0011 4.6968 76.5976
ENERGY: 900000 6.6775 10.1724 10.0220 0.0000 -10520.3483 1399.7515 0.0000 0.0000 1701.5664 -7392.1585 292.0420 -9093.7249 -7361.0029 299.0418 -301.3645 -316.9226 29897.1705 -94.6151 -28.9210
ENERGY: 1200000 6.5105 6.1873 9.9637 0.0000 -10695.5848 1459.8089 0.0000 0.0000 1741.2512 -7471.8632 298.8532 -9213.1144 -7361.8673 298.4091 -257.2004 -204.4193 29926.6596 -157.3330 -94.8675
ENERGY: 1500000 6.2087 5.5921 9.5896 0.0000 -10453.2199 1419.3372 0.0000 0.0000 1763.3061 -7249.1863 302.6385 -9012.4924 -7359.5322 299.0721 64.2861 125.4771 29809.8647 -163.6497 -96.5336
TCL: Running FEP window   4: Lambda1 0.15000000000000002 Lambda2 0.2    [dLambda 0.04999999999999999]
TCL: Setting parameter firsttimestep to 0
TCL: Setting parameter alchLambda to 0.15000000000000002
Info: NONBONDED TABLE R-SQUARED SPACING: 0.0625
Info: NONBONDED TABLE SIZE: 705 POINTS
TCL: Setting parameter alchLambda2 to 0.2
Info: NONBONDED TABLE R-SQUARED SPACING: 0.0625
Info: NONBONDED TABLE SIZE: 705 POINTS
TCL: Running for 1500000 steps
ETITLE: TS BOND ANGLE DIHED IMPRP ELECT VDW BOUNDARY MISC KINETIC TOTAL TEMP POTENTIAL TOTALAVG TEMPAVG PRESSURE GPRESSURE VOLUME PRESSAVG GPRESSAVG
ENERGY: 0 6.2087 5.5921 9.5896 0.0000 -10453.2206 1420.1985 0.0000 0.0000 1762.4666 -7249.1651 302.4944 -9011.6318 -7249.1651 302.4944 53.8157 131.3954 29809.8647 53.8157 131.3954
ENERGY: 300000 3.1504 12.8279 8.9163 0.0000 -10416.0027 1306.4289 0.0000 0.0000 1748.0934 -7336.5860 300.0275 -9084.6794 -7335.0461 299.2598 -1078.2136 -1016.4018 30459.7095 278.0635 341.9202
ENERGY: 600000 2.3644 8.4846 9.4284 0.0000 -10679.5929 1516.9973 0.0000 0.0000 1795.5336 -7346.7846 308.1697 -9142.3182 -7353.4422 301.2992 855.6958 881.6947 29703.0422 401.7380 466.6469
ENERGY: 900000 3.7152 12.3279 8.8328 0.0000 -10555.3556 1523.8557 0.0000 0.0000 1778.9687 -7227.6552 305.3267 -9006.6239 -7331.8316 301.7366 1297.8547 1404.5190 29463.8297 490.6322 560.6850
ENERGY: 1200000 4.1868 8.2767 7.7841 0.0000 -10582.1080 1454.5356 0.0000 0.0000 1772.6431 -7334.6817 304.2410 -9107.3247 -7331.9894 302.0959 486.2617 614.0594 29561.5358 427.7020 502.9130
ENERGY: 1500000 2.4275 8.2655 6.1730 0.0000 -10599.1435 1452.0358 0.0000 0.0000 1708.4771 -7421.7646 293.2281 -9130.2417 -7342.9555 300.9180 154.6939 193.7110 29937.5223 394.8366 468.0772
TCL: Running FEP window   5: Lambda1 0.2    Lambda2 0.25   [dLambda 0.04999999999999999]
TCL: Setting parameter firsttimestep to 0
TCL: Setting parameter alchLambda to 0.2
Info: NONBONDED TABLE R-SQUARED SPACING: 0.0625
Info: NONBONDED TABLE SIZE: 705 POINTS
TCL: Setting parameter alchLambda2 to 0.25
Info: NONBONDED TABLE R-SQUARED SPACING: 0.0625
Info: NONBONDED TABLE SIZE: 705 POINTS
TCL: Running for 1500000 steps
ETITLE: TS BOND ANGLE DIHED IMPRP ELECT VDW BOUNDARY MISC KINETIC TOTAL TEMP POTENTIAL TOTALAVG TEMPAVG PRESSURE GPRESSURE VOLUME PRESSAVG GPRESSAVG
ENERGY: 0 2.4275 8.2655 6.1730 0.0000 -10599.1432 1452.4111 0.0000 0.0000 1707.6119 -7422.2542 293.0796 -9129.8661 -7422.2542 293.0796 117.4317 200.5828 29937.5223 117.4317 200.5828
ENERGY: 300000 3.8830 3.7301 10.8615 0.0000 -10676.0482 1481.7353 0.0000 0.0000 1734.2213 -7441.6170 297.6466 -9175.8383 -7414.5947 297.6972 -23.3746 82.1469 30200.3673 -79.4905 -13.5867
ENERGY: 600000 3.9560 9.7963 6.1792 0.0000 -10592.6504 1465.9355 0.0000 0.0000 1760.2698 -7346.5137 302.1173 -9106.7835 -7399.0753 299.9188 168.4293 240.8232 29933.0954 -142.8676 -74.6922
ENERGY: 900000 6.0000 7.9859 11.6235 0.0000 -10549.4294 1375.6671 0.0000 0.0000 1781.7383 -7366.4145 305.8020 -9148.1528 -7391.0580 299.8689 -339.4203 -215.7203 29238.6803 -178.6384 -117.1040
ENERGY: 1200000 6.8850 11.8030 14.7838 0.0000 -10579.8032 1419.1458 0.0000 0.0000 1783.8652 -7343.3203 306.1671 -9127.1855 -7395.7070 299.3554 -253.1800 -188.3860 29742.5668 -180.4996 -123.7004
ENERGY: 1500000 5.4470 10.2069 10.2585 0.0000 -10560.5092 1434.0810 0.0000 0.0000 1720.2011 -7380.3148 295.2403 -9100.5158 -7394.4731 298.3410 217.4593 320.4046 29473.2843 -148.0675 -86.5862
TCL: Running FEP window   6: Lambda1 0.25   Lambda2 0.3    [dLambda 0.04999999999999999]
TCL: Setting parameter firsttimestep to 0
TCL: Setting parameter alchLambda to 0.25
Info: NONBONDED TABLE R-SQUARED SPACING: 0.0625
Info: NONBONDED TABLE SIZE: 705 POINTS
TCL: Setting parameter alchLambda2 to 0.3
Info: NONBONDED TABLE R-SQUARED SPACING: 0.0625
Info: NONBONDED TABLE SIZE: 705 POINTS
TCL: Running for 1500000 steps
ETITLE: TS BOND ANGLE DIHED IMPRP ELECT VDW BOUNDARY MISC KINETIC TOTAL TEMP POTENTIAL TOTALAVG TEMPAVG PRESSURE GPRESSURE VOLUME PRESSAVG GPRESSAVG
ENERGY: 0 5.4469 10.2069 10.2585 0.0000 -10560.5111 1434.3810 0.0000 0.0000 1719.3724 -7380.8453 295.0981 -9100.2177 -7380.8453 295.0981 230.9689 328.7043 29473.2843 230.9689 328.7043
ENERGY: 300000 3.1830 8.8076 11.3652 0.0000 -10687.7148 1520.7774 0.0000 0.0000 1780.1483 -7363.4332 305.5291 -9143.5815 -7346.4150 301.0989 839.8441 897.9192 29280.8512 65.5598 147.5163
ENERGY: 600000 4.1698 11.2026 11.4206 0.0000 -10539.7588 1417.5030 0.0000 0.0000 1758.9901 -7336.4727 301.8977 -9095.4627 -7312.6918 303.1424 -243.2783 -232.9636 30630.2328 -25.4052 43.5983
ENERGY: 900000 7.4329 4.8744 11.2189 0.0000 -10444.4429 1363.8019 0.0000 0.0000 1735.4188 -7321.6960 297.8521 -9057.1148 -7315.0049 302.4700 -575.4759 -472.3801 30240.3575 -156.4380 -89.5132
ENERGY: 1200000 4.8303 8.5485 9.5899 0.0000 -10465.1101 1386.8096 0.0000 0.0000 1770.2353 -7285.0965 303.8277 -9055.3318 -7314.7208 302.8449 -444.2446 -403.4258 30636.2895 -174.6963 -113.2536
ENERGY: 1500000 4.0269 5.4968 11.1549 0.0000 -10586.1991 1441.1142 0.0000 0.0000 1704.3576 -7420.0488 292.5211 -9124.4064 -7318.2265 301.9523 -5.1058 111.0612 29846.8842 -200.7281 -141.1655
TCL: Running FEP window   7: Lambda1 0.3    Lambda2 0.35   [dLambda 0.04999999999999999]
TCL: Setting parameter firsttimestep to 0
TCL: Setting parameter alchLambda to 0.3
Info: NONBONDED TABLE R-SQUARED SPACING: 0.0625
Info: NONBONDED TABLE SIZE: 705 POINTS
TCL: Setting parameter alchLambda2 to 0.35
Info: NONBONDED TABLE R-SQUARED SPACING: 0.0625
Info: NONBONDED TABLE SIZE: 705 POINTS
TCL: Running for 1500000 steps
ETITLE: TS BOND ANGLE DIHED IMPRP ELECT VDW BOUNDARY MISC KINETIC TOTAL TEMP POTENTIAL TOTALAVG TEMPAVG PRESSURE GPRESSURE VOLUME PRESSAVG GPRESSAVG
ENERGY: 0 4.0269 5.4968 11.1549 0.0000 -10586.1995 1442.3481 0.0000 0.0000 1703.4904 -7419.6824 292.3722 -9123.1728 -7419.6824 292.3722 44.2645 126.3141 29846.8842 44.2645 126.3141
ENERGY: 300000 6.4899 7.5435 9.5433 0.0000 -10487.1654 1373.3617 0.0000 0.0000 1755.5517 -7334.6753 301.3076 -9090.2270 -7364.1872 300.3119 -297.8808 -216.7564 29967.5868 240.8524 334.7784
ENERGY: 600000 2.5254 8.8823 11.2229 0.0000 -10630.4831 1459.4757 0.0000 0.0000 1826.0919 -7322.2848 313.4145 -9148.3767 -7369.1865 300.6412 254.1018 299.6614 30052.8405 56.6792 139.1843
ENERGY: 900000 4.8105 10.4361 11.3276 0.0000 -10544.8066 1391.6345 0.0000 0.0000 1748.3011 -7378.2967 300.0631 -9126.5978 -7371.6078 299.7298 -398.0987 -346.9991 30221.6672 9.8302 81.6212
ENERGY: 1200000 2.9601 13.9375 7.6139 0.0000 -10393.3148 1395.9901 0.0000 0.0000 1764.8850 -7207.9281 302.9095 -8972.8131 -7354.6343 299.4340 -30.8971 34.1911 30622.4845 -80.5189 -6.5041
ENERGY: 1500000 5.4755 8.8689 8.1178 0.0000 -10531.5717 1420.8567 0.0000 0.0000 1775.1676 -7313.0852 304.6743 -9088.2528 -7353.0058 299.5099 -66.6592 34.7084 30186.1663 -115.8097 -41.9107
TCL: Running FEP window   8: Lambda1 0.35   Lambda2 0.39999999999999997 [dLambda 0.04999999999999999]
TCL: Setting parameter firsttimestep to 0
TCL: Setting parameter alchLambda to 0.35
Info: NONBONDED TABLE R-SQUARED SPACING: 0.0625
Info: NONBONDED TABLE SIZE: 705 POINTS
TCL: Setting parameter alchLambda2 to 0.39999999999999997
Info: NONBONDED TABLE R-SQUARED SPACING: 0.0625
Info: NONBONDED TABLE SIZE: 705 POINTS
TCL: Running for 1500000 steps
ETITLE: TS BOND ANGLE DIHED IMPRP ELECT VDW BOUNDARY MISC KINETIC TOTAL TEMP POTENTIAL TOTALAVG TEMPAVG PRESSURE GPRESSURE VOLUME PRESSAVG GPRESSAVG
ENERGY: 0 5.4755 8.8689 8.1178 0.0000 -10531.5704 1420.3740 0.0000 0.0000 1774.3318 -7314.4023 304.5308 -9088.7342 -7314.4023 304.5308 -52.2425 33.8137 30186.1663 -52.2425 33.8137
ENERGY: 300000 5.0757 9.4634 12.6222 0.0000 -10420.8986 1309.4307 0.0000 0.0000 1813.0516 -7271.2549 311.1764 -9084.3065 -7316.2649 303.3702 -1095.4709 -1014.4468 30419.4175 -353.7883 -276.1694
ENERGY: 600000 6.5669 6.6445 7.6354 0.0000 -10715.5890 1511.1029 0.0000 0.0000 1738.0039 -7445.6354 298.2958 -9183.6393 -7368.9504 301.2263 491.8521 559.8597 29699.8624 -222.3538 -155.8415
ENERGY: 900000 2.8245 8.5677 11.0495 0.0000 -10530.5428 1470.1082 0.0000 0.0000 1720.2568 -7317.7362 295.2499 -9037.9929 -7353.7892 300.8433 791.1500 781.5724 29892.1092 -147.0112 -94.8667
ENERGY: 1200000 4.9872 8.1588 9.2738 0.0000 -10499.1073 1399.6439 0.0000 0.0000 1788.3661 -7288.6776 306.9396 -9077.0437 -7344.1474 301.3498 -133.5448 -65.7777 29899.6998 -129.7021 -75.5535
ENERGY: 1500000 2.3332 10.1809 14.0921 0.0000 -10548.8902 1408.1026 0.0000 0.0000 1776.3322 -7337.8492 304.8742 -9114.1814 -7347.5317 301.8319 -103.4905 -63.1136 30070.7151 -124.0916 -67.1779
TCL: Running FEP window   9: Lambda1 0.39999999999999997 Lambda2 0.44999999999999996 [dLambda 0.04999999999999999]
TCL: Setting parameter firsttimestep to 0
TCL: Setting parameter alchLambda to 0.39999999999999997
Info: NONBONDED TABLE R-SQUARED SPACING: 0.0625
Info: NONBONDED TABLE SIZE: 705 POINTS
TCL: Setting parameter alchLambda2 to 0.44999999999999996
Info: NONBONDED TABLE R-SQUARED SPACING: 0.0625
Info: NONBONDED TABLE SIZE: 705 POINTS
TCL: Running for 1500000 steps
ETITLE: TS BOND ANGLE DIHED IMPRP ELECT VDW BOUNDARY MISC KINETIC TOTAL TEMP POTENTIAL TOTALAVG TEMPAVG PRESSURE GPRESSURE VOLUME PRESSAVG GPRESSAVG
ENERGY: 0 2.3332 10.1809 14.0921 0.0000 -10548.8898 1407.6499 0.0000 0.0000 1775.4502 -7339.1836 304.7228 -9114.6338 -7339.1836 304.7228 -127.1819 -58.0840 30070.7151 -127.1819 -58.0840
ENERGY: 300000 8.7750 8.5860 5.5876 0.0000 -10499.8278 1412.1010 0.0000 0.0000 1727.8099 -7336.9683 296.5462 -9064.7782 -7358.8338 297.5121 -319.7225 -238.9925 30336.7216 -87.5063 -13.8607
ENERGY: 600000 5.1218 8.8551 9.5887 0.0000 -10523.8512 1447.0985 0.0000 0.0000 1723.4767 -7329.7104 295.8025 -9053.1871 -7367.5943 296.0085 33.4570 117.5132 30440.6192 -62.8705 16.1389
ENERGY: 900000 3.6962 6.1792 12.8654 0.0000 -10501.9739 1429.7757 0.0000 0.0000 1745.1366 -7304.3207 299.5200 -9049.4573 -7338.4663 297.1319 30.6575 102.4945 30111.1095 -38.1141 26.5624
ENERGY: 1200000 2.5493 8.4010 13.7765 0.0000 -10558.4965 1410.7239 0.0000 0.0000 1768.3480 -7354.6977 303.5038 -9123.0458 -7342.8894 297.5947 121.3345 200.4898 29480.0987 -78.5946 -15.5601
ENERGY: 1500000 2.1580 10.0013 12.2570 0.0000 -10527.2098 1405.0577 0.0000 0.0000 1719.5555 -7378.1802 295.1295 -9097.7357 -7336.9965 299.4357 -31.5995 59.7497 29899.0593 -3.9329 60.0668
TCL: Running FEP window  10: Lambda1 0.44999999999999996 Lambda2 0.49999999999999994 [dLambda 0.04999999999999999]
TCL: Setting parameter firsttimestep to 0
TCL: Setting parameter alchLambda to 0.44999999999999996
Info: NONBONDED TABLE R-SQUARED SPACING: 0.0625
Info: NONBONDED TABLE SIZE: 705 POINTS
TCL: Setting parameter alchLambda2 to 0.49999999999999994
Info: NONBONDED TABLE R-SQUARED SPACING: 0.0625
Info: NONBONDED TABLE SIZE: 705 POINTS
TCL: Running for 1500000 steps
ETITLE: TS BOND ANGLE DIHED IMPRP ELECT VDW BOUNDARY MISC KINETIC TOTAL TEMP POTENTIAL TOTALAVG TEMPAVG PRESSURE GPRESSURE VOLUME PRESSAVG GPRESSAVG
ENERGY: 0 2.1580 10.0013 12.2570 0.0000 -10527.2101 1405.4653 0.0000 0.0000 1718.6915 -7378.6369 294.9812 -9097.3284 -7378.6369 294.9812 4.8532 71.3518 29899.0593 4.8532 71.3518
ENERGY: 300000 7.2822 8.8436 10.2412 0.0000 -10538.1478 1383.3611 0.0000 0.0000 1729.1701 -7399.2494 296.7797 -9128.4196 -7358.1696 299.3172 -789.9265 -728.5898 30334.6885 -607.6182 -540.9222
ENERGY: 600000 5.6772 4.3788 11.3667 0.0000 -10476.7968 1433.2728 0.0000 0.0000 1765.4396 -7256.6616 303.0046 -9022.1012 -7340.3159 298.4518 401.5541 395.4875 30021.8474 -272.9750 -230.2934
ENERGY: 900000 4.0615 5.9770 10.3275 0.0000 -10614.5215 1403.6008 0.0000 0.0000 1730.8689 -7459.6858 297.0712 -9190.5547 -7349.7497 298.9788 -415.1024 -354.9654 30255.5433 -305.7928 -255.6700
ENERGY: 1200000 1.6702 6.8111 9.4954 0.0000 -10519.8392 1413.4997 0.0000 0.0000 1804.4891 -7283.8738 309.7068 -9088.3629 -7346.4581 300.5563 32.6799 126.4656 30283.3855 -175.5423 -119.7681
ENERGY: 1500000 7.1916 10.6388 12.8549 0.0000 -10564.2760 1410.4408 0.0000 0.0000 1801.8197 -7321.3302 309.2486 -9123.1499 -7350.9847 300.9833 207.3414 300.3051 29418.1244 -108.5771 -46.4458
TCL: Running FEP window  11: Lambda1 0.49999999999999994 Lambda2 0.5499999999999999 [dLambda 0.04999999999999999]
TCL: Setting parameter firsttimestep to 0
TCL: Setting parameter alchLambda to 0.49999999999999994
Info: NONBONDED TABLE R-SQUARED SPACING: 0.0625
Info: NONBONDED TABLE SIZE: 705 POINTS
TCL: Setting parameter alchLambda2 to 0.5499999999999999
Info: NONBONDED TABLE R-SQUARED SPACING: 0.0625
Info: NONBONDED TABLE SIZE: 705 POINTS
TCL: Running for 1500000 steps
ETITLE: TS BOND ANGLE DIHED IMPRP ELECT VDW BOUNDARY MISC KINETIC TOTAL TEMP POTENTIAL TOTALAVG TEMPAVG PRESSURE GPRESSURE VOLUME PRESSAVG GPRESSAVG
ENERGY: 0 7.1916 10.6388 12.8549 0.0000 -10564.2759 1410.3047 0.0000 0.0000 1800.9508 -7322.3351 309.0995 -9123.2859 -7322.3351 309.0995 216.9383 307.3794 29418.1244 216.9383 307.3794
ENERGY: 300000 4.1675 11.6517 12.7119 0.0000 -10488.3600 1407.4232 0.0000 0.0000 1729.5203 -7322.8854 296.8398 -9052.4057 -7307.5183 302.6868 -53.0746 66.4393 30316.5493 -85.3832 10.6849
ENERGY: 600000 2.6627 8.9764 10.0227 0.0000 -10487.6256 1449.2065 0.0000 0.0000 1715.6077 -7301.1497 294.4519 -9016.7574 -7293.6023 302.4541 353.3512 393.1211 30371.0645 21.5299 100.0323
ENERGY: 900000 7.0393 6.8361 12.3603 0.0000 -10553.3845 1412.0423 0.0000 0.0000 1781.7212 -7333.3852 305.7991 -9115.1063 -7311.2765 301.7917 -256.1478 -186.3328 30304.6987 -41.3740 43.3976
ENERGY: 1200000 1.9159 4.7263 11.1253 0.0000 -10434.7568 1379.6184 0.0000 0.0000 1756.9211 -7280.4497 301.5426 -9037.3709 -7316.9816 301.5467 126.4796 156.5533 30053.5209 17.6467 90.1449
ENERGY: 1500000 5.2938 8.4356 12.1336 0.0000 -10685.7345 1471.2189 0.0000 0.0000 1720.9273 -7467.7252 295.3649 -9188.6525 -7329.6867 300.5951 324.8796 398.6417 30043.4285 31.1685 102.8370
TCL: Running FEP window  12: Lambda1 0.5499999999999999 Lambda2 0.6    [dLambda 0.050000000000000044]
TCL: Setting parameter firsttimestep to 0
TCL: Setting parameter alchLambda to 0.5499999999999999
Info: NONBONDED TABLE R-SQUARED SPACING: 0.0625
Info: NONBONDED TABLE SIZE: 705 POINTS
TCL: Setting parameter alchLambda2 to 0.6
Info: NONBONDED TABLE R-SQUARED SPACING: 0.0625
Info: NONBONDED TABLE SIZE: 705 POINTS
TCL: Running for 1500000 steps
ETITLE: TS BOND ANGLE DIHED IMPRP ELECT VDW BOUNDARY MISC KINETIC TOTAL TEMP POTENTIAL TOTALAVG TEMPAVG PRESSURE GPRESSURE VOLUME PRESSAVG GPRESSAVG
ENERGY: 0 5.2938 8.4356 12.1337 0.0000 -10685.5289 1470.4591 0.0000 0.0000 1720.0454 -7469.1614 295.2136 -9189.2068 -7469.1614 295.2136 325.8460 404.0459 30043.4285 325.8460 404.0459
ENERGY: 300000 7.4386 5.8302 12.5029 0.0000 -10605.5765 1484.4500 0.0000 0.0000 1838.7362 -7256.6187 315.5846 -9095.3548 -7317.3653 305.9483 502.4018 556.1697 30015.0387 247.2437 309.2924
ENERGY: 600000 3.5024 9.2285 9.7210 0.0000 -10619.8252 1426.0498 0.0000 0.0000 1751.0649 -7420.2587 300.5375 -9171.3236 -7343.8148 305.1524 -165.3062 -63.1478 30176.5730 -125.8769 -55.7975
ENERGY: 900000 3.2173 4.8053 9.6795 0.0000 -10428.0209 1366.2329 0.0000 0.0000 1756.4575 -7287.6284 301.4630 -9044.0859 -7329.7566 304.1850 -203.6319 -125.2841 30188.9680 -101.1696 -26.7283
ENERGY: 1200000 4.5688 5.7760 11.2697 0.0000 -10615.9362 1505.8260 0.0000 0.0000 1778.6447 -7309.8510 305.2711 -9088.4956 -7329.9140 303.7711 546.0999 561.7939 30327.7251 -193.6435 -117.8775
ENERGY: 1500000 6.2419 5.3938 12.7458 0.0000 -10577.3449 1437.1616 0.0000 0.0000 1800.7249 -7315.0769 309.0607 -9115.8018 -7331.4059 303.4617 131.0735 229.3681 30140.7766 -123.1877 -49.9489
TCL: Running FEP window  13: Lambda1 0.6    Lambda2 0.65   [dLambda 0.050000000000000044]
TCL: Setting parameter firsttimestep to 0
TCL: Setting parameter alchLambda to 0.6
Info: NONBONDED TABLE R-SQUARED SPACING: 0.0625
Info: NONBONDED TABLE SIZE: 705 POINTS
TCL: Setting parameter alchLambda2 to 0.65
Info: NONBONDED TABLE R-SQUARED SPACING: 0.0625
Info: NONBONDED TABLE SIZE: 705 POINTS
TCL: Running for 1500000 steps
ETITLE: TS BOND ANGLE DIHED IMPRP ELECT VDW BOUNDARY MISC KINETIC TOTAL TEMP POTENTIAL TOTALAVG TEMPAVG PRESSURE GPRESSURE VOLUME PRESSAVG GPRESSAVG
ENERGY: 0 6.2419 5.3938 12.7458 0.0000 -10577.5058 1436.9655 0.0000 0.0000 1799.8354 -7316.3234 308.9080 -9116.1588 -7316.3234 308.9080 144.5501 237.7139 30140.7766 144.5501 237.7139
ENERGY: 300000 3.9746 8.8717 11.2184 0.0000 -10438.7150 1371.0514 0.0000 0.0000 1806.5693 -7237.0296 310.0638 -9043.5989 -7317.2903 307.9752 -358.9841 -290.0263 30432.5083 -305.9253 -230.4037
ENERGY: 600000 3.3735 10.4472 11.1353 0.0000 -10488.8347 1400.0004 0.0000 0.0000 1702.7626 -7361.1157 292.2473 -9063.8783 -7331.6449 304.3990 -80.9116 -88.7739 30142.4283 -173.0396 -116.7577
ENERGY: 900000 5.5308 10.2310 14.0077 0.0000 -10451.9557 1368.9255 0.0000 0.0000 1756.5760 -7296.6846 301.4834 -9053.2607 -7332.4491 302.6179 -500.2711 -419.7274 30427.8179 -218.2156 -162.4457
ENERGY: 1200000 3.2623 10.5954 12.4785 0.0000 -10516.2670 1378.8119 0.0000 0.0000 1761.8458 -7349.2731 302.3878 -9111.1189 -7337.7522 301.6556 -125.6652 -110.4080 30182.6095 -256.9251 -202.5882
ENERGY: 1500000 11.1574 8.3218 9.7831 0.0000 -10647.0594 1505.4966 0.0000 0.0000 1763.3770 -7348.9235 302.6506 -9112.3005 -7336.1467 301.8143 767.8268 854.1947 29867.9184 -155.9959 -100.1672
TCL: Running FEP window  14: Lambda1 0.65   Lambda2 0.7000000000000001 [dLambda 0.050000000000000044]
TCL: Setting parameter firsttimestep to 0
TCL: Setting parameter alchLambda to 0.65
Info: NONBONDED TABLE R-SQUARED SPACING: 0.0625
Info: NONBONDED TABLE SIZE: 705 POINTS
TCL: Setting parameter alchLambda2 to 0.7000000000000001
Info: NONBONDED TABLE R-SQUARED SPACING: 0.0625
Info: NONBONDED TABLE SIZE: 705 POINTS
TCL: Running for 1500000 steps
ETITLE: TS BOND ANGLE DIHED IMPRP ELECT VDW BOUNDARY MISC KINETIC TOTAL TEMP POTENTIAL TOTALAVG TEMPAVG PRESSURE GPRESSURE VOLUME PRESSAVG GPRESSAVG
ENERGY: 0 11.1574 8.3218 9.7831 0.0000 -10647.9161 1505.9704 0.0000 0.0000 1762.5157 -7350.1677 302.5028 -9112.6833 -7350.1677 302.5028 783.9647 872.1815 29867.9184 783.9647 872.1815
ENERGY: 300000 3.5267 10.8794 13.2586 0.0000 -10521.0638 1420.3813 0.0000 0.0000 1796.1722 -7276.8456 308.2793 -9073.0178 -7354.1732 301.3960 50.8494 166.4862 30237.4874 284.7661 353.9611
ENERGY: 600000 8.4481 4.8594 11.1643 0.0000 -10499.5720 1344.4179 0.0000 0.0000 1748.9149 -7381.7673 300.1685 -9130.6822 -7364.0472 301.1440 -863.4868 -795.7806 30082.5316 34.5731 91.4944
ENERGY: 900000 4.3364 6.9571 9.6270 0.0000 -10528.4297 1402.7310 0.0000 0.0000 1731.2145 -7373.5637 297.1305 -9104.7782 -7346.9348 301.5880 -325.7982 -263.0287 29988.0953 -3.6251 46.6645
ENERGY: 1200000 6.9162 5.0073 7.0501 0.0000 -10561.4565 1422.6206 0.0000 0.0000 1762.2438 -7357.6186 302.4561 -9119.8623 -7353.8109 301.2723 -146.6732 -138.7079 30163.7551 -7.2154 42.4149
ENERGY: 1500000 3.7003 10.3339 6.4364 0.0000 -10700.5290 1537.0931 0.0000 0.0000 1727.5038 -7415.4615 296.4937 -9142.9653 -7356.4302 300.5752 937.4941 1003.9604 29602.8810 31.1218 84.5841
TCL: Running FEP window  15: Lambda1 0.7000000000000001 Lambda2 0.7500000000000001 [dLambda 0.050000000000000044]
TCL: Setting parameter firsttimestep to 0
TCL: Setting parameter alchLambda to 0.7000000000000001
Info: NONBONDED TABLE R-SQUARED SPACING: 0.0625
Info: NONBONDED TABLE SIZE: 705 POINTS
TCL: Setting parameter alchLambda2 to 0.7500000000000001
Info: NONBONDED TABLE R-SQUARED SPACING: 0.0625
Info: NONBONDED TABLE SIZE: 705 POINTS
TCL: Running for 1500000 steps
ETITLE: TS BOND ANGLE DIHED IMPRP ELECT VDW BOUNDARY MISC KINETIC TOTAL TEMP POTENTIAL TOTALAVG TEMPAVG PRESSURE GPRESSURE VOLUME PRESSAVG GPRESSAVG
ENERGY: 0 3.7003 10.3339 6.4364 0.0000 -10700.8850 1536.2362 0.0000 0.0000 1726.6250 -7417.5532 296.3428 -9144.1782 -7417.5532 296.3428 911.2528 1006.1044 29602.8810 911.2528 1006.1044
ENERGY: 300000 3.0808 9.7114 9.1201 0.0000 -10388.9436 1286.1676 0.0000 0.0000 1706.2450 -7374.6188 292.8450 -9080.8638 -7376.1993 298.1961 -1150.3623 -1008.6075 30089.1696 11.9338 97.4079
ENERGY: 600000 3.4387 7.7537 9.1503 0.0000 -10554.1295 1408.9008 0.0000 0.0000 1749.0355 -7375.8506 300.1892 -9124.8861 -7364.0468 299.0657 -237.5982 -209.4936 30227.9818 -116.2822 -44.5362
ENERGY: 900000 7.6151 7.6000 7.0707 0.0000 -10686.2048 1482.3076 0.0000 0.0000 1798.6005 -7383.0108 308.6961 -9181.6113 -7371.8287 301.4695 497.5023 628.8906 29574.9312 -144.7132 -70.5996
ENERGY: 1200000 4.9017 10.7724 7.9431 0.0000 -10622.7546 1514.3565 0.0000 0.0000 1772.5118 -7312.2692 304.2185 -9084.7809 -7373.1895 301.2184 903.9690 948.9137 30091.0712 39.3968 112.4261
ENERGY: 1500000 3.4504 13.9172 6.8410 0.0000 -10689.3061 1488.2444 0.0000 0.0000 1715.8663 -7460.9867 294.4963 -9176.8530 -7383.5863 300.7919 238.1137 282.1157 30034.5562 56.4647 123.5349
TCL: Running FEP window  16: Lambda1 0.7500000000000001 Lambda2 0.8000000000000002 [dLambda 0.050000000000000044]
TCL: Setting parameter firsttimestep to 0
TCL: Setting parameter alchLambda to 0.7500000000000001
Info: NONBONDED TABLE R-SQUARED SPACING: 0.0625
Info: NONBONDED TABLE SIZE: 705 POINTS
TCL: Setting parameter alchLambda2 to 0.8000000000000002
Info: NONBONDED TABLE R-SQUARED SPACING: 0.0625
Info: NONBONDED TABLE SIZE: 705 POINTS
TCL: Running for 1500000 steps
ETITLE: TS BOND ANGLE DIHED IMPRP ELECT VDW BOUNDARY MISC KINETIC TOTAL TEMP POTENTIAL TOTALAVG TEMPAVG PRESSURE GPRESSURE VOLUME PRESSAVG GPRESSAVG
ENERGY: 0 3.4504 13.9172 6.8410 0.0000 -10690.3070 1488.6586 0.0000 0.0000 1714.9951 -7462.4446 294.3468 -9177.4397 -7462.4446 294.3468 215.0719 299.1571 30034.5562 215.0719 299.1571
ENERGY: 300000 9.9495 4.0234 11.6372 0.0000 -10490.0430 1403.4314 0.0000 0.0000 1742.0556 -7318.9458 298.9912 -9061.0015 -7350.9379 298.8920 -134.3927 -12.3400 30545.6383 97.7150 200.1572
ENERGY: 600000 4.1934 9.0193 9.9945 0.0000 -10584.3475 1429.3411 0.0000 0.0000 1765.3808 -7366.4184 302.9946 -9131.7992 -7362.7823 299.5595 5.2392 54.6867 29944.2196 -91.9601 -9.7909
ENERGY: 900000 8.1601 7.0009 10.4848 0.0000 -10487.3765 1369.2183 0.0000 0.0000 1721.6662 -7370.8462 295.4918 -9092.5124 -7381.2844 298.1157 -747.6748 -703.6422 30379.3375 -165.8523 -90.8440
ENERGY: 1200000 6.7334 10.8788 7.0156 0.0000 -10547.7528 1397.2674 0.0000 0.0000 1733.1604 -7392.6971 297.4645 -9125.8575 -7386.0204 297.2045 -613.0305 -559.2448 30502.7844 -212.3422 -131.3715
ENERGY: 1500000 3.2907 6.6316 10.4260 0.0000 -10763.3487 1517.5231 0.0000 0.0000 1747.5092 -7477.9681 299.9272 -9225.4773 -7394.9819 297.1817 155.0362 199.3465 30431.4612 -177.5727 -106.3172
TCL: Running FEP window  17: Lambda1 0.8000000000000002 Lambda2 0.8500000000000002 [dLambda 0.050000000000000044]
TCL: Setting parameter firsttimestep to 0
TCL: Setting parameter alchLambda to 0.8000000000000002
Info: NONBONDED TABLE R-SQUARED SPACING: 0.0625
Info: NONBONDED TABLE SIZE: 705 POINTS
TCL: Setting parameter alchLambda2 to 0.8500000000000002
Info: NONBONDED TABLE R-SQUARED SPACING: 0.0625
Info: NONBONDED TABLE SIZE: 705 POINTS
TCL: Running for 1500000 steps
ETITLE: TS BOND ANGLE DIHED IMPRP ELECT VDW BOUNDARY MISC KINETIC TOTAL TEMP POTENTIAL TOTALAVG TEMPAVG PRESSURE GPRESSURE VOLUME PRESSAVG GPRESSAVG
ENERGY: 0 3.2907 6.6316 10.4260 0.0000 -10765.6288 1520.6268 0.0000 0.0000 1746.6210 -7478.0327 299.7748 -9224.6537 -7478.0327 299.7748 157.9276 240.6039 30431.4612 157.9276 240.6039
ENERGY: 300000 3.7367 10.1526 10.9253 0.0000 -10548.0588 1387.6876 0.0000 0.0000 1750.6065 -7384.9501 300.4588 -9135.5566 -7361.0476 300.1170 -351.3833 -287.5200 30225.6808 -177.9890 -103.3785
ENERGY: 600000 3.7254 9.2289 9.3656 0.0000 -10480.4025 1333.1895 0.0000 0.0000 1758.3585 -7366.5347 301.7893 -9124.8932 -7363.7989 299.0821 -1025.3402 -928.4994 30429.1392 -297.8281 -211.6178
ENERGY: 900000 9.6572 8.0720 12.8661 0.0000 -10444.8951 1319.9432 0.0000 0.0000 1746.6945 -7347.6621 299.7874 -9094.3566 -7368.6345 299.6247 -1110.5996 -1071.2844 30527.2765 -354.6019 -270.2092
ENERGY: 1200000 6.3573 9.3000 7.4997 0.0000 -10699.9325 1472.8088 0.0000 0.0000 1797.6116 -7406.3550 308.5264 -9203.9666 -7363.9695 300.2637 182.3734 199.3111 30212.9955 -193.0547 -118.9786
ENERGY: 1500000 7.0531 12.5429 5.6878 0.0000 -10600.1146 1417.2259 0.0000 0.0000 1764.2497 -7393.3551 302.8004 -9157.6048 -7368.8877 299.7539 -22.8984 75.8838 29908.4337 -208.5754 -137.8571
TCL: Running FEP window  18: Lambda1 0.8500000000000002 Lambda2 0.9000000000000002 [dLambda 0.050000000000000044]
TCL: Setting parameter firsttimestep to 0
TCL: Setting parameter alchLambda to 0.8500000000000002
Info: NONBONDED TABLE R-SQUARED SPACING: 0.0625
Info: NONBONDED TABLE SIZE: 705 POINTS
TCL: Setting parameter alchLambda2 to 0.9000000000000002
Info: NONBONDED TABLE R-SQUARED SPACING: 0.0625
Info: NONBONDED TABLE SIZE: 705 POINTS
TCL: Running for 1500000 steps
ETITLE: TS BOND ANGLE DIHED IMPRP ELECT VDW BOUNDARY MISC KINETIC TOTAL TEMP POTENTIAL TOTALAVG TEMPAVG PRESSURE GPRESSURE VOLUME PRESSAVG GPRESSAVG
ENERGY: 0 7.0531 12.5429 5.6878 0.0000 -10602.0969 1417.6710 0.0000 0.0000 1763.3819 -7395.7602 302.6515 -9159.1421 -7395.7602 302.6515 7.9947 92.9092 29908.4337 7.9947 92.9092
ENERGY: 300000 4.3467 9.3785 11.4190 0.0000 -10451.8348 1424.0530 0.0000 0.0000 1760.6486 -7241.9890 302.1824 -9002.6376 -7330.3842 299.6158 55.8973 134.0867 30881.9264 58.5143 117.3197
ENERGY: 600000 3.6438 9.5113 10.5144 0.0000 -10520.2031 1403.3762 0.0000 0.0000 1755.1035 -7338.0539 301.2306 -9093.1574 -7341.0631 300.8703 -46.5962 10.2724 30360.6221 16.8293 85.6200
ENERGY: 900000 9.6588 7.6072 5.2220 0.0000 -10580.7220 1440.7302 0.0000 0.0000 1703.4729 -7414.0310 292.3692 -9117.5039 -7357.9153 300.3583 -179.3279 -101.5677 30432.6246 66.1901 131.1738
ENERGY: 1200000 4.6547 7.8183 14.3137 0.0000 -10474.1146 1314.5677 0.0000 0.0000 1749.8801 -7382.8800 300.3341 -9132.7601 -7362.3603 299.7067 -362.5666 -331.6121 29414.4673 -39.4175 23.6293
ENERGY: 1500000 5.3096 12.2894 7.3655 0.0000 -10572.5542 1484.5258 0.0000 0.0000 1773.7065 -7289.3575 304.4235 -9063.0640 -7361.6784 300.1997 457.3792 535.1056 30590.9660 -2.5539 59.7747
TCL: Running FEP window  19: Lambda1 0.9000000000000002 Lambda2 0.9500000000000003 [dLambda 0.050000000000000044]
TCL: Setting parameter firsttimestep to 0
TCL: Setting parameter alchLambda to 0.9000000000000002
Info: NONBONDED TABLE R-SQUARED SPACING: 0.0625
Info: NONBONDED TABLE SIZE: 705 POINTS
TCL: Setting parameter alchLambda2 to 0.9500000000000003
Info: NONBONDED TABLE R-SQUARED SPACING: 0.0625
Info: NONBONDED TABLE SIZE: 705 POINTS
TCL: Running for 1500000 steps
ETITLE: TS BOND ANGLE DIHED IMPRP ELECT VDW BOUNDARY MISC KINETIC TOTAL TEMP POTENTIAL TOTALAVG TEMPAVG PRESSURE GPRESSURE VOLUME PRESSAVG GPRESSAVG
ENERGY: 0 5.3096 12.2894 7.3655 0.0000 -10574.6350 1485.5314 0.0000 0.0000 1772.8535 -7291.2856 304.2771 -9064.1391 -7291.2856 304.2771 475.0348 558.1467 30590.9660 475.0348 558.1467
ENERGY: 300000 6.5752 9.6147 16.0713 0.0000 -10475.5323 1307.4426 0.0000 0.0000 1708.4607 -7427.3677 293.2253 -9135.8284 -7375.0138 299.4693 -878.1725 -772.3474 30042.3649 -232.5660 -152.3393
ENERGY: 600000 1.6629 4.4326 7.8177 0.0000 -10469.6497 1380.9280 0.0000 0.0000 1752.4922 -7322.3163 300.7825 -9074.8085 -7374.0208 300.6714 -219.1593 -204.8733 30668.4069 -193.0744 -125.6509
ENERGY: 900000 3.6758 7.0022 9.7700 0.0000 -10584.7155 1421.8263 0.0000 0.0000 1777.8701 -7364.5710 305.1381 -9142.4411 -7373.3689 301.0383 7.0191 79.0999 29927.8863 -30.1266 32.4832
ENERGY: 1200000 2.7620 7.6260 8.2696 0.0000 -10503.6042 1383.2976 0.0000 0.0000 1759.0524 -7342.5966 301.9084 -9101.6490 -7375.2690 300.5027 -146.0195 -120.6556 30202.4454 -19.5412 36.5798
ENERGY: 1500000 4.5671 12.1148 13.2247 0.0000 -10551.8945 1378.1251 0.0000 0.0000 1785.3671 -7358.4956 306.4248 -9143.8627 -7369.6305 301.3779 -415.2162 -263.3235 30018.3698 21.7521 80.7091
TCL: Running FEP window  20: Lambda1 0.9500000000000003 Lambda2 1.0    [dLambda 0.04999999999999971]
TCL: Setting parameter firsttimestep to 0
TCL: Setting parameter alchLambda to 0.9500000000000003
Info: NONBONDED TABLE R-SQUARED SPACING: 0.0625
Info: NONBONDED TABLE SIZE: 705 POINTS
TCL: Setting parameter alchLambda2 to 1.0
Info: NONBONDED TABLE R-SQUARED SPACING: 0.0625
Info: NONBONDED TABLE SIZE: 705 POINTS
TCL: Running for 1500000 steps
ETITLE: TS BOND ANGLE DIHED IMPRP ELECT VDW BOUNDARY MISC KINETIC TOTAL TEMP POTENTIAL TOTALAVG TEMPAVG PRESSURE GPRESSURE VOLUME PRESSAVG GPRESSAVG
ENERGY: 0 4.5671 12.1148 13.2247 0.0000 -10553.7922 1378.5184 0.0000 0.0000 1784.5402 -7360.8269 306.2829 -9145.3671 -7360.8269 306.2829 -324.7603 -243.3873 30018.3698 -324.7603 -243.3873
ENERGY: 300000 1.8610 6.6767 9.8986 0.0000 -10388.6934 1325.8357 0.0000 0.0000 1751.6268 -7292.7946 300.6339 -9044.4215 -7350.5346 298.6061 -882.4617 -818.3582 30584.4611 -466.9223 -420.6183
ENERGY: 600000 3.4451 7.3018 10.8260 0.0000 -10426.9897 1357.3998 0.0000 0.0000 1800.6172 -7247.3999 309.0422 -9048.0171 -7323.9239 299.8938 -142.4195 -128.0993 30283.9923 -230.8914 -172.6283
ENERGY: 900000 5.6488 12.3376 11.8283 0.0000 -10471.6624 1359.8443 0.0000 0.0000 1697.6337 -7384.3697 291.3670 -9082.0034 -7335.6215 299.2727 -398.3473 -388.9961 29994.2738 -206.9004 -157.9043
ENERGY: 1200000 4.1676 7.4670 10.5011 0.0000 -10455.6300 1393.0997 0.0000 0.0000 1735.2937 -7305.1010 297.8307 -9040.3947 -7351.1542 298.3895 8.5973 89.6834 30131.4254 -149.1975 -95.0826
ENERGY: 1500000 6.7031 13.9493 9.7269 0.0000 -10734.0361 1534.7201 0.0000 0.0000 1739.7532 -7429.1835 298.5961 -9168.9368 -7355.3281 298.6902 1142.2964 1180.1875 29406.5926 -34.6043 23.3967
TCL: Exiting due to exit command.
