Info: SIMULATION PARAMETERS:
Info: TIMESTEP               2
Info: NUMBER OF STEPS        0
Info: STEPS PER CYCLE        10
Info: PERIODIC CELL BASIS 1  31.3224 0 0
Info: PERIODIC CELL BASIS 2  0 31.9516 0
Info: PERIODIC CELL BASIS 3  0 0 30.2664
Info: PERIODIC CELL CENTER   0 0 0
Info: WRAPPING WATERS AROUND PERIODIC BOUNDARIES ON OUTPUT.
Info: WRAPPING ALL CLUSTERS AROUND PERIODIC BOUNDARIES ON OUTPUT.
Info: FIRST LDB TIMESTEP     50
Info: LAST LDB TIMESTEP     -1
Info: HOM BACKGROUND SCALING 1
Info: PME BACKGROUND SCALING 1
Info: MIN ATOMS PER PATCH    40
Info: EMPTY PATCH LOAD       40 ATOMS
Info: VELOCITY FILE          mobley_8739734_equil.vel
Info: CENTER OF MASS MOVING INITIALLY? NO
Info: DIELECTRIC             1
Info: EXCLUDE                SCALED ONE-FOUR
Info: 1-4 ELECTROSTATICS SCALED BY 0.833333
Info: MODIFIED 1-4 VDW PARAMETERS WILL BE USED
Info: DCD FILENAME           mobley_8739734_prod.dcd
Info: DCD FREQUENCY          100000
Info: DCD FIRST STEP         100000
Info: DCD FILE WILL CONTAIN UNIT CELL DATA
Info: XST FILENAME           mobley_8739734_prod.xst
Info: XST FREQUENCY          100000
Info: NO VELOCITY DCD OUTPUT
Info: NO FORCE DCD OUTPUT
Info: OUTPUT FILENAME        mobley_8739734_prod
Info: BINARY OUTPUT FILES WILL BE USED
Info: RESTART FILENAME       mobley_8739734_prod.restart
Info: RESTART FREQUENCY      100000
Info: BINARY RESTART FILES WILL BE USED
Info: CUTOFF                 9
Info: PAIRLIST DISTANCE      11
Info: PAIRLIST SHRINK RATE   0.01
Info: PAIRLIST GROW RATE     0.01
Info: PAIRLIST TRIGGER       0.3
Info: PAIRLISTS PER CYCLE    2
Info: PAIRLISTS ENABLED
Info: MARGIN                 2
Info: HYDROGEN GROUP CUTOFF  2.5
Info: PATCH DIMENSION        15.5
Info: ENERGY OUTPUT STEPS    100000
Info: ENERGY EVALUATION STEPS    100000
Info: OUTPUT ENERGY PRECISION 4
Info: CROSSTERM ENERGY INCLUDED IN DIHEDRAL
Info: TIMING OUTPUT STEPS    1000000
Info: PRESSURE OUTPUT STEPS  100000
Info: ALCHEMICAL FEP ON
Info: FEP CURRENT LAMBDA VALUE     0
Info: FEP COMPARISON LAMBDA VALUE  0.05
Info: FEP INTRA-ALCHEMICAL NON-BONDED INTERACTIONS WILL BE RETAINED
Info: FEP INTRA-ALCHEMICAL BONDED INTERACTIONS WILL BE RETAINED
Info: FEP VDW SHIFTING COEFFICIENT 5
Info: FEP ELEC. ACTIVE FOR ANNIHILATED PARTICLES BETWEEN LAMBDA = 0 AND LAMBDA = 0.5
Info: FEP ELEC. ACTIVE FOR EXNIHILATED PARTICLES BETWEEN LAMBDA = 0.5 AND LAMBDA = 1
Info: FEP VDW ACTIVE FOR ANNIHILATED PARTICLES BETWEEN LAMBDA = 0 AND LAMBDA = 1
Info: FEP VDW ACTIVE FOR EXNIHILATED PARTICLES BETWEEN LAMBDA = 0 AND LAMBDA = 1
Info: FEP BOND ACTIVE FOR ANNIHILATED PARTICLES BETWEEN LAMBDA = 1 AND LAMBDA = 1
Info: FEP BOND ACTIVE FOR EXNIHILATED PARTICLES BETWEEN LAMBDA = 0 AND LAMBDA = 0
Info: LANGEVIN DYNAMICS ACTIVE
Info: LANGEVIN TEMPERATURE   300
Info: LANGEVIN USING BBK INTEGRATOR
Info: LANGEVIN DAMPING COEFFICIENT IS 1 INVERSE PS
Info: LANGEVIN DYNAMICS APPLIED TO HYDROGENS
Info: LANGEVIN PISTON PRESSURE CONTROL ACTIVE
Info:        TARGET PRESSURE IS 1.01325 BAR
Info:     OSCILLATION PERIOD IS 50 FS
Info:             DECAY TIME IS 25 FS
Info:     PISTON TEMPERATURE IS 300 K
Info:       PRESSURE CONTROL IS GROUP-BASED
Info:    INITIAL STRAIN RATE IS -0.000287374 -0.000287374 -0.000287374
Info:       CELL FLUCTUATION IS ISOTROPIC
Info: PARTICLE MESH EWALD (PME) ACTIVE
Info: PME TOLERANCE               1e-06
Info: PME EWALD COEFFICIENT       0.348832
Info: PME INTERPOLATION ORDER     4
Info: PME GRID DIMENSIONS         32 32 32
Info: PME MAXIMUM GRID SPACING    1
Info: PME CALCULATION WILL BE PERFORMED ON GPU
Info: FULL ELECTROSTATIC EVALUATION FREQUENCY      2
Info: USING VERLET I (r-RESPA) MTS SCHEME.
Info: C1 SPLITTING OF LONG RANGE ELECTROSTATICS
Info: PLACING ATOMS IN PATCHES BY HYDROGEN GROUPS
Info: RIGID BONDS TO HYDROGEN : ALL
Info:         ERROR TOLERANCE : 1e-08
Info:          MAX ITERATIONS : 100
Info: RIGID WATER USING SETTLE ALGORITHM
Info: RANDOM NUMBER SEED     1743764220
Info: USE HYDROGEN BONDS?    NO
Info: Using AMBER format force field!
Info: AMBER PARM FILE        mobley_8739734.prmtop
Info: COORDINATE PDB         mobley_8739734.pdb
Info: Exclusions will be read from PARM file!
Info: SCNB (VDW SCALING)     2
Info: USING ARITHMETIC MEAN TO COMBINE L-J SIGMA PARAMETERS
Info: BINARY COORDINATES     mobley_8739734_equil.coor
Info: SUMMARY OF PARAMETERS:
Info: 6 BONDS
Info: 7 ANGLES
Info:   7 HARMONIC
Info:   0 COSINE-BASED
Info: 8 DIHEDRAL
Info: 0 IMPROPER
Info: 0 CROSSTERM
Info: 0 VDW
Info: 21 VDW_PAIRS
Info: 0 NBTHOLE_PAIRS
Info: To read alchdata from file: mobley_8739734.pdb
Info: To read alchflag data from column: 5
Info: STRUCTURE SUMMARY:
Info: 2923 ATOMS
Info: 2922 BONDS
Info: 27 ANGLES
Info: 39 DIHEDRALS
Info: 0 IMPROPERS
Info: 0 CROSSTERMS
Info: 2979 EXCLUSIONS
Info: 2917 RIGID BONDS
Info: ALCH: 0 ATOMS TO DISAPPEAR IN FINAL STATE
Info: ALCH: 16 ATOMS TO APPEAR IN FINAL STATE
Info: 5852 DEGREES OF FREEDOM
Info: 975 HYDROGEN GROUPS
Info: 4 ATOMS IN LARGEST HYDROGEN GROUP
Info: 975 MIGRATION GROUPS
Info: 4 ATOMS IN LARGEST MIGRATION GROUP
Info: TOTAL MASS = 17543.6 amu
Info: TOTAL CHARGE = -0.000200074 e
Info: MASS DENSITY = 0.961767 g/cm^3
Info: ATOM DENSITY = 0.0964983 atoms/A^3
Info: ADDED 0 IMPLICIT EXCLUSIONS
Info: NONBONDED TABLE R-SQUARED SPACING: 0.0625
Info: NONBONDED TABLE SIZE: 705 POINTS
Info: REDUCING NUMBER OF PATCHES TO IMPROVE LOAD BALANCE
Info: REMOVING COM VELOCITY 0.272827 0.0156201 0.111002
Info: Use 3D box decompostion in PME FFT.
Info: Updated CUDA force table with 4096 elements.
Info: Updated CUDA LJ table with 6 x 6 elements.
Info: Found 19 unique exclusion lists needing 44 bytes
TCL: Running for 1500000 steps
ETITLE: TS BOND ANGLE DIHED IMPRP ELECT VDW BOUNDARY MISC KINETIC TOTAL TEMP POTENTIAL TOTALAVG TEMPAVG PRESSURE GPRESSURE VOLUME PRESSAVG GPRESSAVG
ENERGY: 0 1.1780 4.4732 2.8471 0.0000 -10563.5874 1416.7687 0.0000 0.0000 1763.9351 -7374.3854 303.3672 -9138.3205 -7374.3854 303.3672 -117.7284 -36.1727 30290.6771 -117.7284 -36.1727
ENERGY: 300000 1.5795 7.8978 3.1644 0.0000 -10505.7110 1423.9085 0.0000 0.0000 1732.9386 -7336.2223 298.0364 -9069.1609 -7386.3620 300.9795 271.1783 329.2159 29861.1992 -364.6958 -305.9079
ENERGY: 600000 2.5312 11.1223 3.5851 0.0000 -10632.4684 1501.9520 0.0000 0.0000 1783.2526 -7330.0253 306.6895 -9113.2779 -7419.6013 299.5373 701.8466 748.9151 29833.6226 -339.5335 -278.5880
ENERGY: 900000 0.3400 7.7400 4.2753 0.0000 -10582.9388 1407.2184 0.0000 0.0000 1729.6886 -7433.6766 297.4774 -9163.3652 -7419.7585 299.2376 -246.6095 -210.2716 30069.9746 -306.0843 -249.5823
ENERGY: 1200000 1.4634 10.9252 4.6990 0.0000 -10694.0052 1506.3988 0.0000 0.0000 1710.7881 -7459.7307 294.2268 -9170.5189 -7417.2582 298.0977 548.2633 631.3709 29789.8858 -247.8368 -189.1789
ENERGY: 1500000 2.5023 4.9494 4.4823 0.0000 -10496.4912 1335.6194 0.0000 0.0000 1767.0262 -7381.9117 303.8988 -9148.9379 -7422.2935 297.8893 -684.5280 -655.6673 29942.6166 -361.4406 -305.1176
TCL: Running FEP window   2: Lambda1 0.05   Lambda2 0.1    [dLambda 0.05  ]
TCL: Setting parameter firsttimestep to 0
TCL: Setting parameter alchLambda to 0.05
Info: NONBONDED TABLE R-SQUARED SPACING: 0.0625
Info: NONBONDED TABLE SIZE: 705 POINTS
TCL: Setting parameter alchLambda2 to 0.1
Info: NONBONDED TABLE R-SQUARED SPACING: 0.0625
Info: NONBONDED TABLE SIZE: 705 POINTS
TCL: Running for 1500000 steps
ETITLE: TS BOND ANGLE DIHED IMPRP ELECT VDW BOUNDARY MISC KINETIC TOTAL TEMP POTENTIAL TOTALAVG TEMPAVG PRESSURE GPRESSURE VOLUME PRESSAVG GPRESSAVG
ENERGY: 0 2.5023 4.9494 4.4823 0.0000 -10496.4924 1338.2211 0.0000 0.0000 1766.1631 -7380.1743 303.7504 -9146.3374 -7380.1743 303.7504 -729.6939 -650.1075 29942.6166 -729.6939 -650.1075
ENERGY: 300000 1.7969 8.2419 3.0100 0.0000 -10649.6137 1456.6113 0.0000 0.0000 1762.2977 -7417.6559 303.0856 -9179.9536 -7394.8346 302.7687 544.2937 649.6455 29239.6788 -460.6052 -397.2644
ENERGY: 600000 1.8291 7.9281 3.4777 0.0000 -10561.0969 1385.6245 0.0000 0.0000 1738.6484 -7423.5891 299.0183 -9162.2375 -7392.1222 301.5417 -51.4072 -54.5923 29617.2200 -285.2537 -221.8868
ENERGY: 900000 0.8083 6.4477 3.3507 0.0000 -10646.4059 1477.5171 0.0000 0.0000 1717.5225 -7440.7597 295.3850 -9158.2821 -7420.4781 299.0026 521.3555 544.3005 29728.4166 -89.5694 -32.5039
ENERGY: 1200000 2.5392 6.5208 5.4793 0.0000 -10596.3649 1432.0597 0.0000 0.0000 1818.4675 -7331.2983 312.7459 -9149.7658 -7404.3708 300.6514 -219.1339 -139.6375 30310.1845 -147.1484 -85.2995
ENERGY: 1500000 4.4083 6.8099 3.1425 0.0000 -10535.4743 1302.2196 0.0000 0.0000 1725.3000 -7493.5940 296.7226 -9218.8940 -7414.4505 299.8778 -1378.2505 -1342.4441 29764.2971 -258.4201 -197.5456
TCL: Running FEP window   3: Lambda1 0.1    Lambda2 0.15000000000000002 [dLambda 0.05000000000000002]
TCL: Setting parameter firsttimestep to 0
TCL: Setting parameter alchLambda to 0.1
Info: NONBONDED TABLE R-SQUARED SPACING: 0.0625
Info: NONBONDED TABLE SIZE: 705 POINTS
TCL: Setting parameter alchLambda2 to 0.15000000000000002
Info: NONBONDED TABLE R-SQUARED SPACING: 0.0625
Info: NONBONDED TABLE SIZE: 705 POINTS
TCL: Running for 1500000 steps
ETITLE: TS BOND ANGLE DIHED IMPRP ELECT VDW BOUNDARY MISC KINETIC TOTAL TEMP POTENTIAL TOTALAVG TEMPAVG PRESSURE GPRESSURE VOLUME PRESSAVG GPRESSAVG
ENERGY: 0 4.4083 6.8099 3.1425 0.0000 -10535.4742 1304.3527 0.0000 0.0000 1724.4119 -7492.3488 296.5699 -9216.7608 -7492.3488 296.5699 -1430.6171 -1334.9959 29764.2971 -1430.6171 -1334.9959
ENERGY: 300000 1.7626 9.2020 4.2828 0.0000 -10697.4160 1480.9028 0.0000 0.0000 1718.0433 -7483.2224 295.4746 -9201.2658 -7427.0672 297.9954 354.1438 451.2167 29802.3195 -400.6008 -323.5689
ENERGY: 600000 3.3250 5.6631 3.3815 0.0000 -10661.1056 1488.6715 0.0000 0.0000 1732.6183 -7427.4462 297.9813 -9160.0645 -7434.9166 297.3308 220.9001 300.5812 30128.5432 -328.8977 -239.3662
ENERGY: 900000 1.4564 4.0588 3.0697 0.0000 -10650.4390 1435.8107 0.0000 0.0000 1722.5881 -7483.4554 296.2562 -9206.0434 -7427.7504 297.8582 96.5362 112.1878 29568.4087 -239.6635 -159.9312
ENERGY: 1200000 2.9181 5.5958 3.2187 0.0000 -10686.5450 1431.8477 0.0000 0.0000 1718.0645 -7524.9002 295.4783 -9242.9647 -7428.9512 297.8741 -163.0543 -77.9733 29805.9797 -135.1085 -57.1208
ENERGY: 1500000 0.0860 9.7845 4.7096 0.0000 -10529.0761 1448.9975 0.0000 0.0000 1696.8291 -7368.6694 291.8261 -9065.4984 -7432.4200 297.9408 288.2123 330.4192 30097.8674 -81.7499 -10.2835
TCL: Running FEP window   4: Lambda1 0.15000000000000002 Lambda2 0.2    [dLambda 0.04999999999999999]
TCL: Setting parameter firsttimestep to 0
TCL: Setting parameter alchLambda to 0.15000000000000002
Info: NONBONDED TABLE R-SQUARED SPACING: 0.0625
Info: NONBONDED TABLE SIZE: 705 POINTS
TCL: Setting parameter alchLambda2 to 0.2
Info: NONBONDED TABLE R-SQUARED SPACING: 0.0625
Info: NONBONDED TABLE SIZE: 705 POINTS
TCL: Running for 1500000 steps
ETITLE: TS BOND ANGLE DIHED IMPRP ELECT VDW BOUNDARY MISC KINETIC TOTAL TEMP POTENTIAL TOTALAVG TEMPAVG PRESSURE GPRESSURE VOLUME PRESSAVG GPRESSAVG
ENERGY: 0 0.0860 9.7845 4.7096 0.0000 -10529.0766 1449.8942 0.0000 0.0000 1695.9438 -7368.6584 291.6739 -9064.6022 -7368.6584 291.6739 254.3338 337.1355 30097.8674 254.3338 337.1355
ENERGY: 300000 2.7277 7.6532 3.7161 0.0000 -10704.4872 1528.8756 0.0000 0.0000 1704.1958 -7457.3189 293.0931 -9161.5147 -7430.8990 295.2534 850.2703 894.3883 29636.7702 225.9250 302.6507
ENERGY: 600000 1.8441 4.4317 4.3331 0.0000 -10591.9902 1423.2220 0.0000 0.0000 1748.7873 -7409.3720 300.7621 -9158.1593 -7410.3636 297.4974 -104.5106 -5.6650 29864.0304 143.3115 217.4706
ENERGY: 900000 1.7857 3.2220 3.4211 0.0000 -10625.9539 1446.1701 0.0000 0.0000 1735.6565 -7435.6986 298.5038 -9171.3550 -7415.3080 297.8291 -378.1351 -251.2507 30576.5874 105.7807 189.0350
ENERGY: 1200000 2.7618 10.7352 4.0835 0.0000 -10521.8795 1400.3967 0.0000 0.0000 1749.4722 -7354.4300 300.8799 -9103.9023 -7405.3383 298.4861 -105.7754 -48.5751 29856.1576 56.2942 137.3893
ENERGY: 1500000 1.6997 9.8099 4.3663 0.0000 -10531.1361 1379.0934 0.0000 0.0000 1746.3976 -7389.7692 300.3511 -9136.1668 -7404.0756 298.7424 -423.5165 -402.6332 30213.7782 18.3619 91.6996
TCL: Running FEP window   5: Lambda1 0.2    Lambda2 0.25   [dLambda 0.04999999999999999]
TCL: Setting parameter firsttimestep to 0
TCL: Setting parameter alchLambda to 0.2
Info: NONBONDED TABLE R-SQUARED SPACING: 0.0625
Info: NONBONDED TABLE SIZE: 705 POINTS
TCL: Setting parameter alchLambda2 to 0.25
Info: NONBONDED TABLE R-SQUARED SPACING: 0.0625
Info: NONBONDED TABLE SIZE: 705 POINTS
TCL: Running for 1500000 steps
ETITLE: TS BOND ANGLE DIHED IMPRP ELECT VDW BOUNDARY MISC KINETIC TOTAL TEMP POTENTIAL TOTALAVG TEMPAVG PRESSURE GPRESSURE VOLUME PRESSAVG GPRESSAVG
ENERGY: 0 1.6997 9.8099 4.3663 0.0000 -10531.1363 1379.5992 0.0000 0.0000 1745.5096 -7390.1516 300.1984 -9135.6612 -7390.1516 300.1984 -483.2314 -396.6395 30213.7782 -483.2314 -396.6395
ENERGY: 300000 0.9802 6.9410 3.1589 0.0000 -10554.3616 1388.9825 0.0000 0.0000 1741.7408 -7412.5582 299.5502 -9154.2990 -7395.0874 303.9548 -472.3412 -390.2307 30173.8393 -208.7076 -150.1854
ENERGY: 600000 0.4596 5.6881 4.2713 0.0000 -10672.7361 1484.4393 0.0000 0.0000 1770.6356 -7407.2423 304.5196 -9177.8778 -7396.2701 302.9171 346.5821 400.5638 30134.7327 -79.8439 -20.2343
ENERGY: 900000 2.8362 7.3232 2.7527 0.0000 -10579.1170 1379.7395 0.0000 0.0000 1771.6780 -7414.7874 304.6989 -9186.4654 -7402.6564 302.1187 -374.3713 -319.6198 29684.9809 -151.5816 -86.8169
ENERGY: 1200000 1.5902 8.8823 3.3341 0.0000 -10535.1477 1368.3425 0.0000 0.0000 1740.4989 -7412.4997 299.3366 -9152.9986 -7404.6541 301.5616 -418.0826 -374.4301 30056.9117 -242.7098 -178.5350
ENERGY: 1500000 4.2099 6.0140 3.3753 0.0000 -10641.2105 1405.4506 0.0000 0.0000 1730.1899 -7491.9710 297.5636 -9222.1609 -7414.9976 300.7685 -250.3557 -216.8228 29944.5411 -275.2477 -210.1683
TCL: Running FEP window   6: Lambda1 0.25   Lambda2 0.3    [dLambda 0.04999999999999999]
TCL: Setting parameter firsttimestep to 0
TCL: Setting parameter alchLambda to 0.25
Info: NONBONDED TABLE R-SQUARED SPACING: 0.0625
Info: NONBONDED TABLE SIZE: 705 POINTS
TCL: Setting parameter alchLambda2 to 0.3
Info: NONBONDED TABLE R-SQUARED SPACING: 0.0625
Info: NONBONDED TABLE SIZE: 705 POINTS
TCL: Running for 1500000 steps
ETITLE: TS BOND ANGLE DIHED IMPRP ELECT VDW BOUNDARY MISC KINETIC TOTAL TEMP POTENTIAL TOTALAVG TEMPAVG PRESSURE GPRESSURE VOLUME PRESSAVG GPRESSAVG
ENERGY: 0 4.2099 6.0140 3.3753 0.0000 -10641.2095 1405.0231 0.0000 0.0000 1729.3018 -7493.2854 297.4109 -9222.5872 -7493.2854 297.4109 -298.0898 -216.2761 29944.5411 -298.0898 -216.2761
ENERGY: 300000 2.7943 6.0414 4.4004 0.0000 -10498.6132 1376.0096 0.0000 0.0000 1776.1920 -7333.1755 305.4752 -9109.3675 -7405.6192 300.5577 -224.6472 -160.1288 29886.9907 -17.7119 18.1485
ENERGY: 600000 4.5215 7.0394 2.9302 0.0000 -10710.6338 1523.9594 0.0000 0.0000 1773.8320 -7398.3513 305.0693 -9172.1832 -7393.8088 302.7736 477.3713 559.6667 30240.2714 126.1120 189.2146
ENERGY: 900000 3.6867 8.4004 3.8499 0.0000 -10587.4975 1394.2933 0.0000 0.0000 1741.6774 -7435.5899 299.5393 -9177.2673 -7398.8698 301.5698 -490.4783 -413.1173 30038.2511 140.9436 200.8539
ENERGY: 1200000 2.9122 7.1927 3.7505 0.0000 -10603.5879 1456.9077 0.0000 0.0000 1770.3112 -7362.5136 304.4638 -9132.8248 -7395.7644 301.6607 268.2297 320.0715 29909.5069 94.5909 151.1871
ENERGY: 1500000 0.7203 5.4817 4.3933 0.0000 -10689.9010 1539.3953 0.0000 0.0000 1766.4193 -7373.4911 303.7945 -9139.9104 -7397.4246 301.5874 922.1009 995.3133 29977.7626 96.4313 155.4293
TCL: Running FEP window   7: Lambda1 0.3    Lambda2 0.35   [dLambda 0.04999999999999999]
TCL: Setting parameter firsttimestep to 0
TCL: Setting parameter alchLambda to 0.3
Info: NONBONDED TABLE R-SQUARED SPACING: 0.0625
Info: NONBONDED TABLE SIZE: 705 POINTS
TCL: Setting parameter alchLambda2 to 0.35
Info: NONBONDED TABLE R-SQUARED SPACING: 0.0625
Info: NONBONDED TABLE SIZE: 705 POINTS
TCL: Running for 1500000 steps
ETITLE: TS BOND ANGLE DIHED IMPRP ELECT VDW BOUNDARY MISC KINETIC TOTAL TEMP POTENTIAL TOTALAVG TEMPAVG PRESSURE GPRESSURE VOLUME PRESSAVG GPRESSAVG
ENERGY: 0 0.7203 5.4817 4.3933 0.0000 -10689.9016 1539.7708 0.0000 0.0000 1765.5045 -7374.0310 303.6371 -9139.5355 -7374.0310 303.6371 929.3663 1002.5767 29977.7626 929.3663 1002.5767
ENERGY: 300000 0.6593 8.0217 2.8510 0.0000 -10547.5850 1410.2781 0.0000 0.0000 1754.2937 -7371.4813 301.7091 -9125.7749 -7377.8619 303.1880 109.4520 176.2632 29712.3060 14.7732 81.7795
ENERGY: 600000 0.3536 6.6110 3.9244 0.0000 -10633.8764 1465.0876 0.0000 0.0000 1742.0625 -7415.8374 299.6055 -9157.8998 -7383.4601 301.9211 38.0020 98.2197 30513.1682 -42.5652 23.9398
ENERGY: 900000 0.9595 7.8574 3.6610 0.0000 -10657.6848 1451.0301 0.0000 0.0000 1785.9159 -7408.2609 307.1476 -9194.1768 -7387.9456 302.7391 20.2072 54.2111 30043.9243 -120.7800 -54.6156
ENERGY: 1200000 3.6897 9.6305 3.5445 0.0000 -10575.8370 1445.6811 0.0000 0.0000 1713.1823 -7400.1088 294.6386 -9113.2912 -7389.5200 302.0838 -205.7034 -103.4531 30571.8202 -57.7976 11.5717
ENERGY: 1500000 1.8271 5.7456 2.9850 0.0000 -10531.0226 1371.7078 0.0000 0.0000 1763.4545 -7385.3026 303.2846 -9148.7571 -7387.0998 302.3919 -579.6494 -485.3063 30229.7856 -106.2873 -32.1920
TCL: Running FEP window   8: Lambda1 0.35   Lambda2 0.39999999999999997 [dLambda 0.04999999999999999]
TCL: Setting parameter firsttimestep to 0
TCL: Setting parameter alchLambda to 0.35
Info: NONBONDED TABLE R-SQUARED SPACING: 0.0625
Info: NONBONDED TABLE SIZE: 705 POINTS
TCL: Setting parameter alchLambda2 to 0.39999999999999997
Info: NONBONDED TABLE R-SQUARED SPACING: 0.0625
Info: NONBONDED TABLE SIZE: 705 POINTS
TCL: Running for 1500000 steps
ETITLE: TS BOND ANGLE DIHED IMPRP ELECT VDW BOUNDARY MISC KINETIC TOTAL TEMP POTENTIAL TOTALAVG TEMPAVG PRESSURE GPRESSURE VOLUME PRESSAVG GPRESSAVG
ENERGY: 0 1.8271 5.7456 2.9850 0.0000 -10531.0240 1371.2150 0.0000 0.0000 1762.5890 -7386.6622 303.1357 -9149.2512 -7386.6622 303.1357 -571.6044 -484.6239 30229.7856 -571.6044 -484.6239
ENERGY: 300000 2.5308 5.2299 3.5617 0.0000 -10405.3781 1313.2017 0.0000 0.0000 1760.4616 -7320.3924 302.7699 -9080.8540 -7345.3675 301.5117 -575.3033 -502.9863 30255.9526 -360.5692 -293.9240
ENERGY: 600000 4.4609 8.7413 3.3919 0.0000 -10476.4181 1335.3246 0.0000 0.0000 1732.3147 -7392.1848 297.9290 -9124.4995 -7373.3034 299.1270 -568.3059 -522.5339 30026.8753 -209.1652 -156.3768
ENERGY: 900000 2.1243 5.6023 3.2394 0.0000 -10569.1973 1439.2470 0.0000 0.0000 1793.4859 -7325.4983 308.4495 -9118.9842 -7388.3733 300.0155 83.4380 137.8712 30173.0081 -190.1414 -141.8332
ENERGY: 1200000 1.1997 8.5250 3.3882 0.0000 -10465.7555 1342.4920 0.0000 0.0000 1776.9712 -7333.1794 305.6092 -9110.1506 -7383.0492 300.4472 -774.2761 -718.5133 30424.9669 -230.2768 -172.5443
ENERGY: 1500000 2.0446 5.9099 3.3483 0.0000 -10650.9807 1424.3862 0.0000 0.0000 1767.7759 -7447.5158 304.0278 -9215.2917 -7383.1089 301.0238 -180.6383 -125.7593 30187.9567 -209.9828 -152.3317
TCL: Running FEP window   9: Lambda1 0.39999999999999997 Lambda2 0.44999999999999996 [dLambda 0.04999999999999999]
TCL: Setting parameter firsttimestep to 0
TCL: Setting parameter alchLambda to 0.39999999999999997
Info: NONBONDED TABLE R-SQUARED SPACING: 0.0625
Info: NONBONDED TABLE SIZE: 705 POINTS
TCL: Setting parameter alchLambda2 to 0.44999999999999996
Info: NONBONDED TABLE R-SQUARED SPACING: 0.0625
Info: NONBONDED TABLE SIZE: 705 POINTS
TCL: Running for 1500000 steps
ETITLE: TS BOND ANGLE DIHED IMPRP ELECT VDW BOUNDARY MISC KINETIC TOTAL TEMP POTENTIAL TOTALAVG TEMPAVG PRESSURE GPRESSURE VOLUME PRESSAVG GPRESSAVG
ENERGY: 0 2.0446 5.9099 3.3483 0.0000 -10650.9811 1424.3252 0.0000 0.0000 1766.9404 -7448.4127 303.8841 -9215.3531 -7448.4127 303.8841 -211.1469 -122.1019 30187.9567 -211.1469 -122.1019
ENERGY: 300000 2.8291 10.9457 3.4397 0.0000 -10661.6130 1477.5748 0.0000 0.0000 1686.2907 -7480.5331 290.0137 -9166.8238 -7437.2391 299.8490 85.7963 159.8292 30201.9019 -42.0869 30.9059
ENERGY: 600000 2.6296 4.3238 3.3129 0.0000 -10543.8773 1357.4839 0.0000 0.0000 1696.6275 -7479.4995 291.7915 -9176.1270 -7449.7553 295.7252 -487.5335 -432.6389 29678.8234 -10.0638 63.5118
ENERGY: 900000 1.4868 10.0504 3.6131 0.0000 -10605.3168 1457.8085 0.0000 0.0000 1763.9701 -7368.3878 303.3733 -9132.3580 -7423.9070 296.7367 485.3359 448.1008 29847.9637 -47.6637 11.7667
ENERGY: 1200000 0.5575 7.6144 3.6843 0.0000 -10684.4631 1491.1516 0.0000 0.0000 1814.3651 -7367.0901 312.0403 -9181.4552 -7413.9122 298.4945 588.9372 667.4361 30016.3202 29.6099 84.5922
ENERGY: 1500000 0.4088 6.3750 3.3573 0.0000 -10577.0688 1392.7963 0.0000 0.0000 1724.0658 -7450.0655 296.5104 -9174.1313 -7412.8501 298.3536 -130.7757 -148.2923 29769.9686 30.2278 77.7367
TCL: Running FEP window  10: Lambda1 0.44999999999999996 Lambda2 0.49999999999999994 [dLambda 0.04999999999999999]
TCL: Setting parameter firsttimestep to 0
TCL: Setting parameter alchLambda to 0.44999999999999996
Info: NONBONDED TABLE R-SQUARED SPACING: 0.0625
Info: NONBONDED TABLE SIZE: 705 POINTS
TCL: Setting parameter alchLambda2 to 0.49999999999999994
Info: NONBONDED TABLE R-SQUARED SPACING: 0.0625
Info: NONBONDED TABLE SIZE: 705 POINTS
TCL: Running for 1500000 steps
ETITLE: TS BOND ANGLE DIHED IMPRP ELECT VDW BOUNDARY MISC KINETIC TOTAL TEMP POTENTIAL TOTALAVG TEMPAVG PRESSURE GPRESSURE VOLUME PRESSAVG GPRESSAVG
ENERGY: 0 0.4088 6.3750 3.3573 0.0000 -10577.0685 1393.2546 0.0000 0.0000 1723.1761 -7450.4967 296.3574 -9173.6728 -7450.4967 296.3574 -216.0716 -138.2851 29769.9686 -216.0716 -138.2851
ENERGY: 300000 0.9926 8.6268 3.5976 0.0000 -10529.8862 1338.2656 0.0000 0.0000 1775.2687 -7403.1349 305.3164 -9178.4035 -7414.8572 302.0456 -635.1562 -604.4110 30000.6427 -229.4739 -189.5663
ENERGY: 600000 1.9084 5.1072 4.5813 0.0000 -10607.6760 1447.5249 0.0000 0.0000 1776.4235 -7372.1307 305.5150 -9148.5542 -7409.6307 301.3651 -122.7622 -2.5689 30181.4489 -246.0007 -190.8553
ENERGY: 900000 3.4681 7.3752 3.8101 0.0000 -10528.7430 1383.9314 0.0000 0.0000 1747.7146 -7382.4436 300.5776 -9130.1582 -7401.2704 300.9942 -458.7729 -472.4422 30431.6413 -369.9705 -317.0160
ENERGY: 1200000 2.3317 7.1131 2.7489 0.0000 -10530.3231 1385.9317 0.0000 0.0000 1760.1286 -7372.0691 302.7126 -9132.1976 -7393.9090 301.0317 -218.5544 -152.3310 30063.5035 -178.7489 -117.3330
ENERGY: 1500000 1.4654 10.8394 4.1177 0.0000 -10500.8464 1353.5958 0.0000 0.0000 1723.7162 -7407.1119 296.4503 -9130.8281 -7392.2532 300.8096 -648.3819 -598.2161 30185.4218 -182.3093 -122.1693
TCL: Running FEP window  11: Lambda1 0.49999999999999994 Lambda2 0.5499999999999999 [dLambda 0.04999999999999999]
TCL: Setting parameter firsttimestep to 0
TCL: Setting parameter alchLambda to 0.49999999999999994
Info: NONBONDED TABLE R-SQUARED SPACING: 0.0625
Info: NONBONDED TABLE SIZE: 705 POINTS
TCL: Setting parameter alchLambda2 to 0.5499999999999999
Info: NONBONDED TABLE R-SQUARED SPACING: 0.0625
Info: NONBONDED TABLE SIZE: 705 POINTS
TCL: Running for 1500000 steps
ETITLE: TS BOND ANGLE DIHED IMPRP ELECT VDW BOUNDARY MISC KINETIC TOTAL TEMP POTENTIAL TOTALAVG TEMPAVG PRESSURE GPRESSURE VOLUME PRESSAVG GPRESSAVG
ENERGY: 0 1.4654 10.8394 4.1177 0.0000 -10500.8473 1353.8526 0.0000 0.0000 1722.8683 -7407.7038 296.3044 -9130.5721 -7407.7038 296.3044 -655.0521 -586.2629 30185.4218 -655.0521 -586.2629
ENERGY: 300000 2.4284 7.7867 3.0396 0.0000 -10561.0657 1422.0834 0.0000 0.0000 1735.8335 -7389.8940 298.5342 -9125.7275 -7373.3666 302.8086 145.9160 159.1011 29875.9086 -200.2213 -157.5050
ENERGY: 600000 0.9744 5.4063 3.2908 0.0000 -10579.8213 1377.5487 0.0000 0.0000 1782.0203 -7410.5808 306.4776 -9192.6012 -7401.4088 300.6042 -610.2252 -523.9473 30118.1786 -145.8823 -95.7094
ENERGY: 900000 2.7172 7.9366 3.3807 0.0000 -10630.9080 1475.3419 0.0000 0.0000 1751.3768 -7390.1547 301.2074 -9141.5316 -7386.8840 301.3390 412.2281 536.8241 29734.3193 -36.9060 27.3886
ENERGY: 1200000 1.1693 7.6863 3.7340 0.0000 -10663.5173 1490.1551 0.0000 0.0000 1841.4516 -7319.3211 316.6988 -9160.7727 -7378.9015 303.1297 402.6858 469.7978 30116.5006 92.9652 157.7792
ENERGY: 1500000 2.5110 5.5914 2.9720 0.0000 -10458.7201 1342.2265 0.0000 0.0000 1749.6984 -7355.7209 300.9188 -9105.4193 -7378.2234 302.3545 -614.3335 -544.6084 30364.5295 36.8817 96.0692
TCL: Running FEP window  12: Lambda1 0.5499999999999999 Lambda2 0.6    [dLambda 0.050000000000000044]
TCL: Setting parameter firsttimestep to 0
TCL: Setting parameter alchLambda to 0.5499999999999999
Info: NONBONDED TABLE R-SQUARED SPACING: 0.0625
Info: NONBONDED TABLE SIZE: 705 POINTS
TCL: Setting parameter alchLambda2 to 0.6
Info: NONBONDED TABLE R-SQUARED SPACING: 0.0625
Info: NONBONDED TABLE SIZE: 705 POINTS
TCL: Running for 1500000 steps
ETITLE: TS BOND ANGLE DIHED IMPRP ELECT VDW BOUNDARY MISC KINETIC TOTAL TEMP POTENTIAL TOTALAVG TEMPAVG PRESSURE GPRESSURE VOLUME PRESSAVG GPRESSAVG
ENERGY: 0 2.5110 5.5914 2.9720 0.0000 -10458.3376 1341.9909 0.0000 0.0000 1748.8734 -7356.3990 300.7769 -9105.2724 -7356.3990 300.7769 -613.1135 -535.2793 30364.5295 -613.1135 -535.2793
ENERGY: 300000 0.8147 9.3075 5.3860 0.0000 -10485.1197 1380.3546 0.0000 0.0000 1714.1535 -7375.1034 294.8056 -9089.2569 -7374.9805 300.7945 -75.6420 -46.9569 29972.2208 -449.6982 -393.7655
ENERGY: 600000 1.6953 11.3373 3.1331 0.0000 -10659.4990 1493.2727 0.0000 0.0000 1719.1608 -7430.8998 295.6668 -9150.0606 -7393.0449 299.8001 533.9708 519.5567 29989.6939 -330.1408 -283.6799
ENERGY: 900000 1.8874 5.6056 3.6012 0.0000 -10709.5691 1508.3456 0.0000 0.0000 1748.4146 -7441.7148 300.6980 -9190.1294 -7405.9164 299.2681 658.1185 715.9044 29808.2763 -177.0952 -117.8149
ENERGY: 1200000 2.4766 8.3912 2.9904 0.0000 -10618.0806 1491.0659 0.0000 0.0000 1724.9180 -7388.2385 296.6570 -9113.1565 -7408.5060 298.8556 629.5871 699.9064 29961.9889 -43.6790 26.4055
ENERGY: 1500000 3.4331 6.8508 3.5459 0.0000 -10538.9234 1337.5750 0.0000 0.0000 1716.3869 -7471.1318 295.1897 -9187.5187 -7419.2074 298.9730 -946.6065 -884.9841 30172.2025 -150.3442 -81.6725
TCL: Running FEP window  13: Lambda1 0.6    Lambda2 0.65   [dLambda 0.050000000000000044]
TCL: Setting parameter firsttimestep to 0
TCL: Setting parameter alchLambda to 0.6
Info: NONBONDED TABLE R-SQUARED SPACING: 0.0625
Info: NONBONDED TABLE SIZE: 705 POINTS
TCL: Setting parameter alchLambda2 to 0.65
Info: NONBONDED TABLE R-SQUARED SPACING: 0.0625
Info: NONBONDED TABLE SIZE: 705 POINTS
TCL: Running for 1500000 steps
ETITLE: TS BOND ANGLE DIHED IMPRP ELECT VDW BOUNDARY MISC KINETIC TOTAL TEMP POTENTIAL TOTALAVG TEMPAVG PRESSURE GPRESSURE VOLUME PRESSAVG GPRESSAVG
ENERGY: 0 3.4331 6.8508 3.5459 0.0000 -10538.9033 1337.6371 0.0000 0.0000 1715.5010 -7471.9355 295.0374 -9187.4365 -7471.9355 295.0374 -961.3813 -877.6871 30172.2025 -961.3813 -877.6871
ENERGY: 300000 2.2888 4.9294 4.1412 0.0000 -10621.6815 1435.3489 0.0000 0.0000 1813.7630 -7361.2102 311.9368 -9174.9731 -7461.0724 298.4640 146.3300 145.0220 29968.3202 -624.0014 -589.7475
ENERGY: 600000 0.9318 7.7126 3.1174 0.0000 -10573.2781 1401.6406 0.0000 0.0000 1769.5770 -7390.2986 304.3376 -9159.8756 -7430.5622 299.0844 -238.7454 -164.5309 30087.9663 -491.1416 -445.5850
ENERGY: 900000 4.4718 9.5096 3.3379 0.0000 -10460.1340 1322.7958 0.0000 0.0000 1738.8452 -7381.1738 299.0522 -9120.0190 -7413.8090 298.9370 -739.5143 -675.7922 30262.9981 -576.0545 -529.1092
ENERGY: 1200000 1.3660 6.2388 3.6104 0.0000 -10522.9717 1410.9433 0.0000 0.0000 1750.7957 -7350.0176 301.1075 -9100.8133 -7389.9344 300.1650 275.7239 286.1189 29696.2918 -407.7706 -362.4953
ENERGY: 1500000 0.9451 5.2872 2.9207 0.0000 -10610.6958 1432.4590 0.0000 0.0000 1815.3359 -7353.7479 312.2073 -9169.0838 -7386.5129 300.0247 224.8611 255.7650 29762.1781 -328.8191 -280.9463
TCL: Running FEP window  14: Lambda1 0.65   Lambda2 0.7000000000000001 [dLambda 0.050000000000000044]
TCL: Setting parameter firsttimestep to 0
TCL: Setting parameter alchLambda to 0.65
Info: NONBONDED TABLE R-SQUARED SPACING: 0.0625
Info: NONBONDED TABLE SIZE: 705 POINTS
TCL: Setting parameter alchLambda2 to 0.7000000000000001
Info: NONBONDED TABLE R-SQUARED SPACING: 0.0625
Info: NONBONDED TABLE SIZE: 705 POINTS
TCL: Running for 1500000 steps
ETITLE: TS BOND ANGLE DIHED IMPRP ELECT VDW BOUNDARY MISC KINETIC TOTAL TEMP POTENTIAL TOTALAVG TEMPAVG PRESSURE GPRESSURE VOLUME PRESSAVG GPRESSAVG
ENERGY: 0 0.9451 5.2872 2.9207 0.0000 -10610.5297 1432.9329 0.0000 0.0000 1814.4545 -7353.9894 312.0557 -9168.4439 -7353.9894 312.0557 178.1491 268.7290 29762.1781 178.1491 268.7290
ENERGY: 300000 1.7908 7.5606 3.0284 0.0000 -10558.6864 1429.6975 0.0000 0.0000 1794.3751 -7322.2340 308.6024 -9116.6091 -7363.6268 307.9013 -135.2294 -49.4014 30402.7119 -342.5122 -279.1767
ENERGY: 600000 1.4130 9.7828 2.9390 0.0000 -10649.5705 1465.8706 0.0000 0.0000 1708.6618 -7460.9033 293.8612 -9169.5651 -7380.5526 305.1778 387.9971 472.0349 29637.5323 -28.2056 43.9682
ENERGY: 900000 1.6437 6.3219 2.7084 0.0000 -10470.3317 1334.8160 0.0000 0.0000 1731.7381 -7393.1035 297.8299 -9124.8416 -7392.6793 302.0773 -713.3853 -712.4315 30027.2259 -51.5985 15.7032
ENERGY: 1200000 2.3368 7.5216 4.4286 0.0000 -10713.2651 1519.4715 0.0000 0.0000 1722.7729 -7456.7337 296.2880 -9179.5066 -7400.1539 301.3723 732.1184 821.0612 29921.3566 -51.4842 18.9426
ENERGY: 1500000 1.7742 5.0861 3.2520 0.0000 -10580.7678 1457.8182 0.0000 0.0000 1774.4152 -7338.4221 305.1696 -9112.8373 -7393.2524 301.2852 720.9969 766.7240 29728.6657 -12.2414 54.7083
TCL: Running FEP window  15: Lambda1 0.7000000000000001 Lambda2 0.7500000000000001 [dLambda 0.050000000000000044]
TCL: Setting parameter firsttimestep to 0
TCL: Setting parameter alchLambda to 0.7000000000000001
Info: NONBONDED TABLE R-SQUARED SPACING: 0.0625
Info: NONBONDED TABLE SIZE: 705 POINTS
TCL: Setting parameter alchLambda2 to 0.7500000000000001
Info: NONBONDED TABLE R-SQUARED SPACING: 0.0625
Info: NONBONDED TABLE SIZE: 705 POINTS
TCL: Running for 1500000 steps
ETITLE: TS BOND ANGLE DIHED IMPRP ELECT VDW BOUNDARY MISC KINETIC TOTAL TEMP POTENTIAL TOTALAVG TEMPAVG PRESSURE GPRESSURE VOLUME PRESSAVG GPRESSAVG
ENERGY: 0 1.7742 5.0861 3.2520 0.0000 -10581.0105 1457.3911 0.0000 0.0000 1773.5781 -7339.9290 305.0257 -9113.5071 -7339.9290 305.0257 696.6686 767.8511 29728.6657 696.6686 767.8511
ENERGY: 300000 2.2350 3.8699 4.9764 0.0000 -10478.1814 1353.5239 0.0000 0.0000 1778.0204 -7335.5557 305.7897 -9113.5761 -7338.2177 307.7543 -454.8716 -413.7341 30072.3510 277.9994 306.0230
ENERGY: 600000 2.9335 5.4784 3.7279 0.0000 -10594.6980 1457.4709 0.0000 0.0000 1759.2403 -7365.8470 302.5598 -9125.0874 -7366.5833 304.3499 104.8560 205.8361 30476.2164 47.1249 101.8319
ENERGY: 900000 0.8039 5.1946 3.8538 0.0000 -10541.1507 1406.7360 0.0000 0.0000 1707.6633 -7416.8990 293.6894 -9124.5624 -7389.8193 302.3216 -303.7543 -200.7567 30402.9447 21.1957 73.2885
ENERGY: 1200000 1.2529 5.5809 3.7234 0.0000 -10466.9419 1346.1108 0.0000 0.0000 1737.2162 -7373.0576 298.7720 -9110.2738 -7394.9187 301.3946 -420.4273 -378.8407 30141.6553 -32.8911 17.1105
ENERGY: 1500000 0.3906 8.3327 2.9120 0.0000 -10635.3661 1475.0568 0.0000 0.0000 1791.8613 -7356.8126 308.1701 -9148.6739 -7391.1715 301.7290 385.3797 426.6122 30082.1399 -8.6941 41.8057
TCL: Running FEP window  16: Lambda1 0.7500000000000001 Lambda2 0.8000000000000002 [dLambda 0.050000000000000044]
TCL: Setting parameter firsttimestep to 0
TCL: Setting parameter alchLambda to 0.7500000000000001
Info: NONBONDED TABLE R-SQUARED SPACING: 0.0625
Info: NONBONDED TABLE SIZE: 705 POINTS
TCL: Setting parameter alchLambda2 to 0.8000000000000002
Info: NONBONDED TABLE R-SQUARED SPACING: 0.0625
Info: NONBONDED TABLE SIZE: 705 POINTS
TCL: Running for 1500000 steps
ETITLE: TS BOND ANGLE DIHED IMPRP ELECT VDW BOUNDARY MISC KINETIC TOTAL TEMP POTENTIAL TOTALAVG TEMPAVG PRESSURE GPRESSURE VOLUME PRESSAVG GPRESSAVG
ENERGY: 0 0.3906 8.3327 2.9120 0.0000 -10636.7646 1475.8040 0.0000 0.0000 1791.0329 -7358.2923 308.0276 -9149.3252 -7358.2923 308.0276 367.6914 441.7251 30082.1399 367.6914 441.7251
ENERGY: 300000 2.0563 6.9938 3.3380 0.0000 -10800.5674 1566.5306 0.0000 0.0000 1798.2621 -7423.3866 309.2709 -9221.6487 -7390.1793 304.8079 945.9284 999.9622 29975.6322 496.1376 548.8749
ENERGY: 600000 1.3116 5.2254 3.8771 0.0000 -10383.7666 1321.9917 0.0000 0.0000 1737.6541 -7313.7067 298.8473 -9051.3608 -7370.3647 304.5527 -526.5930 -470.3328 30191.8842 199.2176 249.6041
ENERGY: 900000 0.2559 7.2225 2.9293 0.0000 -10525.5256 1360.5559 0.0000 0.0000 1761.6273 -7392.9346 302.9703 -9154.5620 -7379.4575 303.0181 -324.1825 -307.5064 30049.3201 26.0250 76.2293
ENERGY: 1200000 0.5311 9.0326 4.2824 0.0000 -10595.3082 1442.5474 0.0000 0.0000 1716.3153 -7422.5995 295.1774 -9138.9148 -7383.1323 301.7301 141.4036 196.3058 30362.4389 15.1597 68.1518
ENERGY: 1500000 0.6683 9.8343 3.4796 0.0000 -10356.1958 1299.6870 0.0000 0.0000 1773.2670 -7269.2596 304.9722 -9042.5266 -7384.1456 301.0995 -849.2122 -831.5201 30659.3441 -11.5838 38.0223
TCL: Running FEP window  17: Lambda1 0.8000000000000002 Lambda2 0.8500000000000002 [dLambda 0.050000000000000044]
TCL: Setting parameter firsttimestep to 0
TCL: Setting parameter alchLambda to 0.8000000000000002
Info: NONBONDED TABLE R-SQUARED SPACING: 0.0625
Info: NONBONDED TABLE SIZE: 705 POINTS
TCL: Setting parameter alchLambda2 to 0.8500000000000002
Info: NONBONDED TABLE R-SQUARED SPACING: 0.0625
Info: NONBONDED TABLE SIZE: 705 POINTS
TCL: Running for 1500000 steps
ETITLE: TS BOND ANGLE DIHED IMPRP ELECT VDW BOUNDARY MISC KINETIC TOTAL TEMP POTENTIAL TOTALAVG TEMPAVG PRESSURE GPRESSURE VOLUME PRESSAVG GPRESSAVG
ENERGY: 0 0.6683 9.8343 3.4796 0.0000 -10356.5463 1299.4823 0.0000 0.0000 1772.4058 -7270.6761 304.8241 -9043.0819 -7270.6761 304.8241 -893.1239 -824.5042 30659.3441 -893.1239 -824.5042
ENERGY: 300000 1.9761 7.7405 3.7050 0.0000 -10481.3523 1342.3428 0.0000 0.0000 1705.9287 -7419.6592 293.3911 -9125.5878 -7371.9362 299.0132 -664.7326 -570.8572 30103.6492 -347.8594 -268.5166
ENERGY: 600000 0.9290 7.4754 3.9105 0.0000 -10580.1110 1415.5503 0.0000 0.0000 1766.3132 -7385.9325 303.7762 -9152.2458 -7366.1166 301.1451 -110.9216 24.3642 30254.8822 -271.8546 -194.0834
ENERGY: 900000 4.5481 6.5449 3.0557 0.0000 -10716.4937 1486.0723 0.0000 0.0000 1769.5778 -7446.6949 304.3377 -9216.2727 -7378.7994 301.8854 595.2966 603.5874 29578.5400 -184.3390 -124.6962
ENERGY: 1200000 0.7670 7.3798 3.6865 0.0000 -10565.6093 1386.5209 0.0000 0.0000 1764.8972 -7402.3579 303.5327 -9167.2551 -7388.3494 302.2923 48.1208 127.7773 29693.9283 -201.7494 -143.0571
ENERGY: 1500000 2.0460 5.1482 2.9315 0.0000 -10750.4856 1515.6508 0.0000 0.0000 1740.5805 -7484.1286 299.3506 -9224.7091 -7397.5832 301.7257 504.9539 499.6061 30061.2943 -161.3567 -105.7279
TCL: Running FEP window  18: Lambda1 0.8500000000000002 Lambda2 0.9000000000000002 [dLambda 0.050000000000000044]
TCL: Setting parameter firsttimestep to 0
TCL: Setting parameter alchLambda to 0.8500000000000002
Info: NONBONDED TABLE R-SQUARED SPACING: 0.0625
Info: NONBONDED TABLE SIZE: 705 POINTS
TCL: Setting parameter alchLambda2 to 0.9000000000000002
Info: NONBONDED TABLE R-SQUARED SPACING: 0.0625
Info: NONBONDED TABLE SIZE: 705 POINTS
TCL: Running for 1500000 steps
ETITLE: TS BOND ANGLE DIHED IMPRP ELECT VDW BOUNDARY MISC KINETIC TOTAL TEMP POTENTIAL TOTALAVG TEMPAVG PRESSURE GPRESSURE VOLUME PRESSAVG GPRESSAVG
ENERGY: 0 2.0460 5.1482 2.9315 0.0000 -10751.6202 1516.2062 0.0000 0.0000 1739.7068 -7485.5815 299.2004 -9225.2883 -7485.5815 299.2004 442.5729 516.1891 30061.2943 442.5729 516.1891
ENERGY: 300000 2.3844 6.7362 3.6401 0.0000 -10662.7829 1467.4613 0.0000 0.0000 1747.7404 -7434.8205 300.5820 -9182.5609 -7415.7715 304.5188 406.6271 429.9478 29944.4643 106.4473 149.6265
ENERGY: 600000 2.4022 5.1486 4.1206 0.0000 -10653.3797 1391.7667 0.0000 0.0000 1761.4810 -7488.4606 302.9452 -9249.9417 -7426.6548 302.9537 -375.0949 -246.4089 29943.1350 33.4080 93.4075
ENERGY: 900000 0.5188 5.6514 3.0959 0.0000 -10669.4391 1461.2456 0.0000 0.0000 1767.8148 -7431.1124 304.0345 -9198.9273 -7425.9198 303.3080 569.5935 615.9587 29597.6515 47.5785 111.1291
ENERGY: 1200000 1.0499 4.8687 4.0150 0.0000 -10477.4310 1343.9008 0.0000 0.0000 1835.2508 -7288.3457 315.6323 -9123.5965 -7413.2803 304.0028 -218.3250 -219.8049 29935.6267 0.0648 47.6183
ENERGY: 1500000 2.6100 6.1242 4.3539 0.0000 -10624.5391 1483.9728 0.0000 0.0000 1758.3689 -7369.1094 302.4099 -9127.4783 -7412.4961 302.4566 458.3521 480.2954 30337.0765 -34.7415 8.5202
TCL: Running FEP window  19: Lambda1 0.9000000000000002 Lambda2 0.9500000000000003 [dLambda 0.050000000000000044]
TCL: Setting parameter firsttimestep to 0
TCL: Setting parameter alchLambda to 0.9000000000000002
Info: NONBONDED TABLE R-SQUARED SPACING: 0.0625
Info: NONBONDED TABLE SIZE: 705 POINTS
TCL: Setting parameter alchLambda2 to 0.9500000000000003
Info: NONBONDED TABLE R-SQUARED SPACING: 0.0625
Info: NONBONDED TABLE SIZE: 705 POINTS
TCL: Running for 1500000 steps
ETITLE: TS BOND ANGLE DIHED IMPRP ELECT VDW BOUNDARY MISC KINETIC TOTAL TEMP POTENTIAL TOTALAVG TEMPAVG PRESSURE GPRESSURE VOLUME PRESSAVG GPRESSAVG
ENERGY: 0 2.6100 6.1242 4.3539 0.0000 -10625.2622 1484.6237 0.0000 0.0000 1757.4907 -7370.0598 302.2589 -9127.5504 -7370.0598 302.2589 406.1917 496.6073 30337.0765 406.1917 496.6073
ENERGY: 300000 1.0356 6.6138 3.1483 0.0000 -10721.3027 1467.8308 0.0000 0.0000 1747.6285 -7495.0456 300.5628 -9242.6741 -7425.3576 301.8388 442.2845 419.7490 29464.2915 236.8397 293.0376
ENERGY: 600000 3.4106 5.6290 4.6501 0.0000 -10601.1161 1455.7363 0.0000 0.0000 1705.7749 -7425.9151 293.3647 -9131.6900 -7417.3803 300.5385 264.1068 406.8775 29849.4119 179.9335 256.1930
ENERGY: 900000 0.6956 8.9405 4.9221 0.0000 -10664.4950 1466.0171 0.0000 0.0000 1754.0767 -7429.8430 301.6718 -9183.9197 -7418.4455 300.6030 255.9599 307.0676 30126.9877 28.7431 93.4489
ENERGY: 1200000 0.6514 6.0614 3.3635 0.0000 -10725.7352 1494.5755 0.0000 0.0000 1732.5443 -7488.5391 297.9685 -9221.0834 -7424.1980 300.4219 153.2935 312.9287 30237.0970 1.6937 74.5211
ENERGY: 1500000 0.8959 6.7644 3.3138 0.0000 -10436.0481 1393.2844 0.0000 0.0000 1711.6838 -7320.1058 294.3809 -9031.7896 -7416.6953 299.8794 -40.4108 89.7888 30265.3045 18.8868 93.2995
TCL: Running FEP window  20: Lambda1 0.9500000000000003 Lambda2 1.0    [dLambda 0.04999999999999971]
TCL: Setting parameter firsttimestep to 0
TCL: Setting parameter alchLambda to 0.9500000000000003
Info: NONBONDED TABLE R-SQUARED SPACING: 0.0625
Info: NONBONDED TABLE SIZE: 705 POINTS
TCL: Setting parameter alchLambda2 to 1.0
Info: NONBONDED TABLE R-SQUARED SPACING: 0.0625
Info: NONBONDED TABLE SIZE: 705 POINTS
TCL: Running for 1500000 steps
ETITLE: TS BOND ANGLE DIHED IMPRP ELECT VDW BOUNDARY MISC KINETIC TOTAL TEMP POTENTIAL TOTALAVG TEMPAVG PRESSURE GPRESSURE VOLUME PRESSAVG GPRESSAVG
ENERGY: 0 0.8959 6.7644 3.3138 0.0000 -10436.9874 1393.0962 0.0000 0.0000 1710.7981 -7322.1190 294.2286 -9032.9172 -7322.1190 294.2286 11.4254 96.1300 30265.3045 11.4254 96.1300
ENERGY: 300000 0.9556 9.1749 4.4719 0.0000 -10436.2952 1368.8174 0.0000 0.0000 1720.2701 -7332.6054 295.8576 -9052.8755 -7383.8619 298.3662 -133.0205 -57.7469 30218.3340 -68.3146 23.0153
ENERGY: 600000 0.8202 7.2363 3.5849 0.0000 -10579.9990 1394.4808 0.0000 0.0000 1702.8608 -7471.0159 292.8635 -9173.8767 -7396.2393 299.2331 -435.6258 -413.1637 30432.6643 -229.6804 -162.4200
ENERGY: 900000 0.6947 4.8930 2.9508 0.0000 -10617.0704 1410.3290 0.0000 0.0000 1744.2268 -7453.9760 299.9777 -9198.2028 -7414.3101 299.5741 -155.5866 -110.6914 30071.0051 -45.5208 22.5841
ENERGY: 1200000 1.4995 6.9991 4.0972 0.0000 -10757.4351 1516.4556 0.0000 0.0000 1741.4416 -7486.9421 299.4987 -9228.3837 -7409.7979 299.7893 505.4136 560.1754 30034.0309 23.2250 84.7847
ENERGY: 1500000 2.8729 5.7793 3.3937 0.0000 -10556.2185 1402.3266 0.0000 0.0000 1741.0238 -7400.8223 299.4269 -9141.8461 -7411.7587 299.6483 -347.7130 -271.7548 30158.8711 -15.2551 46.1909
TCL: Exiting due to exit command.
