Info: SIMULATION PARAMETERS:
Info: TIMESTEP               2
Info: NUMBER OF STEPS        0
Info: STEPS PER CYCLE        10
Info: PERIODIC CELL BASIS 1  32.3205 0 0
Info: PERIODIC CELL BASIS 2  0 30.2607 0
Info: PERIODIC CELL BASIS 3  0 0 31.553
Info: PERIODIC CELL CENTER   0 0 0
Info: WRAPPING WATERS AROUND PERIODIC BOUNDARIES ON OUTPUT.
Info: WRAPPING ALL CLUSTERS AROUND PERIODIC BOUNDARIES ON OUTPUT.
Info: FIRST LDB TIMESTEP     50
Info: LAST LDB TIMESTEP     -1
Info: HOM BACKGROUND SCALING 1
Info: PME BACKGROUND SCALING 1
Info: MIN ATOMS PER PATCH    40
Info: EMPTY PATCH LOAD       40 ATOMS
Info: VELOCITY FILE          mobley_4620651_equil.vel
Info: CENTER OF MASS MOVING INITIALLY? NO
Info: DIELECTRIC             1
Info: EXCLUDE                SCALED ONE-FOUR
Info: 1-4 ELECTROSTATICS SCALED BY 0.833333
Info: MODIFIED 1-4 VDW PARAMETERS WILL BE USED
Info: DCD FILENAME           mobley_4620651_prod.dcd
Info: DCD FREQUENCY          100000
Info: DCD FIRST STEP         100000
Info: DCD FILE WILL CONTAIN UNIT CELL DATA
Info: XST FILENAME           mobley_4620651_prod.xst
Info: XST FREQUENCY          100000
Info: NO VELOCITY DCD OUTPUT
Info: NO FORCE DCD OUTPUT
Info: OUTPUT FILENAME        mobley_4620651_prod
Info: BINARY OUTPUT FILES WILL BE USED
Info: RESTART FILENAME       mobley_4620651_prod.restart
Info: RESTART FREQUENCY      100000
Info: BINARY RESTART FILES WILL BE USED
Info: CUTOFF                 9
Info: PAIRLIST DISTANCE      11
Info: PAIRLIST SHRINK RATE   0.01
Info: PAIRLIST GROW RATE     0.01
Info: PAIRLIST TRIGGER       0.3
Info: PAIRLISTS PER CYCLE    2
Info: PAIRLISTS ENABLED
Info: MARGIN                 2
Info: HYDROGEN GROUP CUTOFF  2.5
Info: PATCH DIMENSION        15.5
Info: ENERGY OUTPUT STEPS    100000
Info: ENERGY EVALUATION STEPS    100000
Info: OUTPUT ENERGY PRECISION 4
Info: CROSSTERM ENERGY INCLUDED IN DIHEDRAL
Info: TIMING OUTPUT STEPS    1000000
Info: PRESSURE OUTPUT STEPS  100000
Info: ALCHEMICAL FEP ON
Info: FEP CURRENT LAMBDA VALUE     0
Info: FEP COMPARISON LAMBDA VALUE  0.05
Info: FEP INTRA-ALCHEMICAL NON-BONDED INTERACTIONS WILL BE RETAINED
Info: FEP INTRA-ALCHEMICAL BONDED INTERACTIONS WILL BE RETAINED
Info: FEP VDW SHIFTING COEFFICIENT 5
Info: FEP ELEC. ACTIVE FOR ANNIHILATED PARTICLES BETWEEN LAMBDA = 0 AND LAMBDA = 0.5
Info: FEP ELEC. ACTIVE FOR EXNIHILATED PARTICLES BETWEEN LAMBDA = 0.5 AND LAMBDA = 1
Info: FEP VDW ACTIVE FOR ANNIHILATED PARTICLES BETWEEN LAMBDA = 0 AND LAMBDA = 1
Info: FEP VDW ACTIVE FOR EXNIHILATED PARTICLES BETWEEN LAMBDA = 0 AND LAMBDA = 1
Info: FEP BOND ACTIVE FOR ANNIHILATED PARTICLES BETWEEN LAMBDA = 1 AND LAMBDA = 1
Info: FEP BOND ACTIVE FOR EXNIHILATED PARTICLES BETWEEN LAMBDA = 0 AND LAMBDA = 0
Info: LANGEVIN DYNAMICS ACTIVE
Info: LANGEVIN TEMPERATURE   300
Info: LANGEVIN USING BBK INTEGRATOR
Info: LANGEVIN DAMPING COEFFICIENT IS 1 INVERSE PS
Info: LANGEVIN DYNAMICS APPLIED TO HYDROGENS
Info: LANGEVIN PISTON PRESSURE CONTROL ACTIVE
Info:        TARGET PRESSURE IS 1.01325 BAR
Info:     OSCILLATION PERIOD IS 50 FS
Info:             DECAY TIME IS 25 FS
Info:     PISTON TEMPERATURE IS 300 K
Info:       PRESSURE CONTROL IS GROUP-BASED
Info:    INITIAL STRAIN RATE IS 7.20751e-05 7.20751e-05 7.20751e-05
Info:       CELL FLUCTUATION IS ISOTROPIC
Info: PARTICLE MESH EWALD (PME) ACTIVE
Info: PME TOLERANCE               1e-06
Info: PME EWALD COEFFICIENT       0.348832
Info: PME INTERPOLATION ORDER     4
Info: PME GRID DIMENSIONS         36 32 32
Info: PME MAXIMUM GRID SPACING    1
Info: PME CALCULATION WILL BE PERFORMED ON GPU
Info: FULL ELECTROSTATIC EVALUATION FREQUENCY      2
Info: USING VERLET I (r-RESPA) MTS SCHEME.
Info: C1 SPLITTING OF LONG RANGE ELECTROSTATICS
Info: PLACING ATOMS IN PATCHES BY HYDROGEN GROUPS
Info: RIGID BONDS TO HYDROGEN : ALL
Info:         ERROR TOLERANCE : 1e-08
Info:          MAX ITERATIONS : 100
Info: RIGID WATER USING SETTLE ALGORITHM
Info: RANDOM NUMBER SEED     1743747902
Info: USE HYDROGEN BONDS?    NO
Info: Using AMBER format force field!
Info: AMBER PARM FILE        mobley_4620651.prmtop
Info: COORDINATE PDB         mobley_4620651.pdb
Info: Exclusions will be read from PARM file!
Info: SCNB (VDW SCALING)     2
Info: USING ARITHMETIC MEAN TO COMBINE L-J SIGMA PARAMETERS
Info: BINARY COORDINATES     mobley_4620651_equil.coor
Info: SUMMARY OF PARAMETERS:
Info: 9 BONDS
Info: 11 ANGLES
Info:   11 HARMONIC
Info:   0 COSINE-BASED
Info: 6 DIHEDRAL
Info: 0 IMPROPER
Info: 0 CROSSTERM
Info: 0 VDW
Info: 36 VDW_PAIRS
Info: 0 NBTHOLE_PAIRS
Info: To read alchdata from file: mobley_4620651.pdb
Info: To read alchflag data from column: 5
Info: STRUCTURE SUMMARY:
Info: 2970 ATOMS
Info: 2970 BONDS
Info: 28 ANGLES
Info: 37 DIHEDRALS
Info: 0 IMPROPERS
Info: 0 CROSSTERMS
Info: 3018 EXCLUSIONS
Info: 2963 RIGID BONDS
Info: ALCH: 0 ATOMS TO DISAPPEAR IN FINAL STATE
Info: ALCH: 15 ATOMS TO APPEAR IN FINAL STATE
Info: 5947 DEGREES OF FREEDOM
Info: 992 HYDROGEN GROUPS
Info: 4 ATOMS IN LARGEST HYDROGEN GROUP
Info: 992 MIGRATION GROUPS
Info: 4 ATOMS IN LARGEST MIGRATION GROUP
Info: TOTAL MASS = 17845.9 amu
Info: TOTAL CHARGE = 9.9916e-05 e
Info: MASS DENSITY = 0.960283 g/cm^3
Info: ATOM DENSITY = 0.0962406 atoms/A^3
Info: ADDED 0 IMPLICIT EXCLUSIONS
Info: NONBONDED TABLE R-SQUARED SPACING: 0.0625
Info: NONBONDED TABLE SIZE: 705 POINTS
Info: REMOVING COM VELOCITY -0.151539 -0.000108792 -0.0673039
Info: Use 3D box decompostion in PME FFT.
Info: Updated CUDA force table with 4096 elements.
Info: Updated CUDA LJ table with 8 x 8 elements.
Info: Found 18 unique exclusion lists needing 36 bytes
TCL: Running for 1500000 steps
ETITLE: TS BOND ANGLE DIHED IMPRP ELECT VDW BOUNDARY MISC KINETIC TOTAL TEMP POTENTIAL TOTALAVG TEMPAVG PRESSURE GPRESSURE VOLUME PRESSAVG GPRESSAVG
ENERGY: 0 3.8582 11.9528 8.0067 0.0000 -10610.6777 1398.9261 0.0000 0.0000 1798.0061 -7389.9278 304.2872 -9187.9339 -7389.9278 304.2872 -233.0398 -142.5838 30860.1446 -233.0398 -142.5838
ENERGY: 300000 1.3699 5.5122 7.4433 0.0000 -10664.6603 1365.7564 0.0000 0.0000 1786.4555 -7498.1230 302.3324 -9284.5785 -7509.1705 300.7922 -493.3828 -433.5357 30506.5770 -63.5341 21.0625
ENERGY: 600000 4.2318 5.5060 6.9210 0.0000 -10719.6338 1407.6941 0.0000 0.0000 1780.7358 -7514.5451 301.3644 -9295.2810 -7529.0667 300.7996 -288.8158 -242.0329 30957.6767 -13.7301 54.9103
ENERGY: 900000 1.4032 9.5297 7.0556 0.0000 -10773.9835 1489.7600 0.0000 0.0000 1774.7155 -7491.5194 300.3455 -9266.2349 -7513.3872 300.3349 304.0766 424.1239 30441.6892 -8.7305 65.1230
ENERGY: 1200000 1.7734 10.8057 6.4529 0.0000 -10805.7602 1468.6828 0.0000 0.0000 1819.2993 -7498.7462 307.8907 -9318.0455 -7504.0990 301.7352 67.6790 142.8765 30456.9316 72.0631 137.0480
ENERGY: 1500000 3.6235 9.3089 6.7827 0.0000 -10718.8921 1486.3530 0.0000 0.0000 1753.9974 -7458.8266 296.8393 -9212.8239 -7494.7005 302.0161 440.2370 490.0382 30596.3536 132.6461 195.8668
TCL: Running FEP window   2: Lambda1 0.05   Lambda2 0.1    [dLambda 0.05  ]
TCL: Setting parameter firsttimestep to 0
TCL: Setting parameter alchLambda to 0.05
Info: NONBONDED TABLE R-SQUARED SPACING: 0.0625
Info: NONBONDED TABLE SIZE: 705 POINTS
TCL: Setting parameter alchLambda2 to 0.1
Info: NONBONDED TABLE R-SQUARED SPACING: 0.0625
Info: NONBONDED TABLE SIZE: 705 POINTS
TCL: Running for 1500000 steps
ETITLE: TS BOND ANGLE DIHED IMPRP ELECT VDW BOUNDARY MISC KINETIC TOTAL TEMP POTENTIAL TOTALAVG TEMPAVG PRESSURE GPRESSURE VOLUME PRESSAVG GPRESSAVG
ENERGY: 0 3.6235 9.3089 6.7827 0.0000 -10718.8922 1488.8776 0.0000 0.0000 1753.0915 -7457.2079 296.6860 -9210.2994 -7457.2079 296.6860 397.5538 495.1780 30596.3536 397.5538 495.1780
ENERGY: 300000 1.0704 4.6212 7.1244 0.0000 -10691.2912 1394.6378 0.0000 0.0000 1756.9180 -7526.9194 297.3336 -9283.8374 -7531.2796 298.6364 -247.1927 -225.5402 30222.8185 97.1057 153.4396
ENERGY: 600000 0.8228 7.2706 6.5771 0.0000 -10767.6082 1416.2669 0.0000 0.0000 1745.6385 -7591.0323 295.4247 -9336.6709 -7536.8548 298.7666 -232.2296 -158.1709 30229.8143 -80.4950 -14.5171
ENERGY: 900000 2.2512 6.8377 6.7638 0.0000 -10942.5323 1606.0033 0.0000 0.0000 1800.7558 -7519.9206 304.7525 -9320.6764 -7528.7393 300.1261 937.0387 1036.7290 30612.8664 123.2174 187.0244
ENERGY: 1200000 1.7173 7.3026 6.3194 0.0000 -10688.0532 1422.0033 0.0000 0.0000 1792.9126 -7457.7981 303.4251 -9250.7107 -7520.9372 299.6491 32.3793 99.2490 30335.6986 70.6398 131.9345
ENERGY: 1500000 1.6689 3.7846 8.3949 0.0000 -10732.5585 1437.7891 0.0000 0.0000 1738.0425 -7542.8786 294.1391 -9280.9210 -7522.3617 299.1109 -205.9659 -140.2931 30669.8397 101.8182 167.3338
TCL: Running FEP window   3: Lambda1 0.1    Lambda2 0.15000000000000002 [dLambda 0.05000000000000002]
TCL: Setting parameter firsttimestep to 0
TCL: Setting parameter alchLambda to 0.1
Info: NONBONDED TABLE R-SQUARED SPACING: 0.0625
Info: NONBONDED TABLE SIZE: 705 POINTS
TCL: Setting parameter alchLambda2 to 0.15000000000000002
Info: NONBONDED TABLE R-SQUARED SPACING: 0.0625
Info: NONBONDED TABLE SIZE: 705 POINTS
TCL: Running for 1500000 steps
ETITLE: TS BOND ANGLE DIHED IMPRP ELECT VDW BOUNDARY MISC KINETIC TOTAL TEMP POTENTIAL TOTALAVG TEMPAVG PRESSURE GPRESSURE VOLUME PRESSAVG GPRESSAVG
ENERGY: 0 1.6689 3.7846 8.3949 0.0000 -10732.5576 1438.1830 0.0000 0.0000 1737.1633 -7543.3629 293.9904 -9280.5262 -7543.3629 293.9904 -220.6821 -138.7585 30669.8397 -220.6821 -138.7585
ENERGY: 300000 3.9800 9.8845 6.8337 0.0000 -10808.1535 1510.0292 0.0000 0.0000 1730.2803 -7547.1458 292.8255 -9277.4262 -7517.4236 297.5655 637.2589 699.1703 30130.2296 235.4712 306.4060
ENERGY: 600000 1.9568 7.5855 7.0376 0.0000 -10781.3321 1436.0957 0.0000 0.0000 1838.6704 -7489.9861 311.1690 -9328.6566 -7508.5921 298.9305 -54.2958 19.3993 30314.2755 80.2178 142.7667
ENERGY: 900000 3.1107 5.0680 6.0892 0.0000 -10754.0381 1401.1244 0.0000 0.0000 1784.0559 -7554.5898 301.9263 -9338.6457 -7509.6908 299.4557 -623.0182 -653.8793 30662.2829 -8.8649 44.4411
ENERGY: 1200000 1.9212 6.8206 7.2521 0.0000 -10614.8483 1364.2620 0.0000 0.0000 1806.4757 -7428.1167 305.7205 -9234.5924 -7512.4019 300.6536 -433.5353 -396.4417 30666.7568 -50.4575 1.9276
ENERGY: 1500000 3.6869 5.4670 8.1440 0.0000 -10645.6979 1450.9119 0.0000 0.0000 1759.3699 -7418.1181 297.7485 -9177.4881 -7514.8051 299.9509 376.2988 433.9730 30573.9030 -13.6112 45.7446
TCL: Running FEP window   4: Lambda1 0.15000000000000002 Lambda2 0.2    [dLambda 0.04999999999999999]
TCL: Setting parameter firsttimestep to 0
TCL: Setting parameter alchLambda to 0.15000000000000002
Info: NONBONDED TABLE R-SQUARED SPACING: 0.0625
Info: NONBONDED TABLE SIZE: 705 POINTS
TCL: Setting parameter alchLambda2 to 0.2
Info: NONBONDED TABLE R-SQUARED SPACING: 0.0625
Info: NONBONDED TABLE SIZE: 705 POINTS
TCL: Running for 1500000 steps
ETITLE: TS BOND ANGLE DIHED IMPRP ELECT VDW BOUNDARY MISC KINETIC TOTAL TEMP POTENTIAL TOTALAVG TEMPAVG PRESSURE GPRESSURE VOLUME PRESSAVG GPRESSAVG
ENERGY: 0 3.6869 5.4670 8.1440 0.0000 -10645.6981 1451.2329 0.0000 0.0000 1758.4788 -7418.6885 297.5977 -9177.1673 -7418.6885 297.5977 358.9070 439.2936 30573.9030 358.9070 439.2936
ENERGY: 300000 2.6865 6.2169 6.3473 0.0000 -10747.9942 1449.5303 0.0000 0.0000 1721.3793 -7561.8338 291.3191 -9283.2132 -7510.2020 298.0626 -24.5119 8.2937 30740.7762 -302.1265 -237.3839
ENERGY: 600000 0.8082 9.3393 7.2682 0.0000 -10762.4457 1408.6704 0.0000 0.0000 1795.0755 -7541.2840 303.7912 -9336.3596 -7517.2342 301.0431 -281.2866 -208.2120 30352.2710 -56.8924 5.1956
ENERGY: 900000 0.5891 3.1818 6.7471 0.0000 -10598.7251 1420.6910 0.0000 0.0000 1739.6937 -7427.8223 294.4186 -9167.5160 -7504.0735 300.7725 66.3712 94.8182 30956.0835 -91.0893 -28.5467
ENERGY: 1200000 3.3008 5.2581 9.2392 0.0000 -10775.3064 1438.0631 0.0000 0.0000 1761.6309 -7557.8142 298.1312 -9319.4451 -7522.4374 300.6226 -222.9248 -121.0845 30519.0029 -148.3322 -85.9808
ENERGY: 1500000 2.1668 5.3248 7.0953 0.0000 -10584.1561 1319.3110 0.0000 0.0000 1810.6243 -7439.6338 306.4226 -9250.2581 -7518.0117 301.1735 -1087.0401 -997.1979 30841.4621 -134.3608 -67.5991
TCL: Running FEP window   5: Lambda1 0.2    Lambda2 0.25   [dLambda 0.04999999999999999]
TCL: Setting parameter firsttimestep to 0
TCL: Setting parameter alchLambda to 0.2
Info: NONBONDED TABLE R-SQUARED SPACING: 0.0625
Info: NONBONDED TABLE SIZE: 705 POINTS
TCL: Setting parameter alchLambda2 to 0.25
Info: NONBONDED TABLE R-SQUARED SPACING: 0.0625
Info: NONBONDED TABLE SIZE: 705 POINTS
TCL: Running for 1500000 steps
ETITLE: TS BOND ANGLE DIHED IMPRP ELECT VDW BOUNDARY MISC KINETIC TOTAL TEMP POTENTIAL TOTALAVG TEMPAVG PRESSURE GPRESSURE VOLUME PRESSAVG GPRESSAVG
ENERGY: 0 2.1668 5.3248 7.0953 0.0000 -10584.1564 1318.9607 0.0000 0.0000 1809.7124 -7440.8963 306.2683 -9250.6088 -7440.8963 306.2683 -1085.6076 -999.6528 30841.4621 -1085.6076 -999.6528
ENERGY: 300000 4.4960 9.4109 7.7372 0.0000 -10746.6051 1417.2078 0.0000 0.0000 1791.6087 -7516.1444 303.2045 -9307.7532 -7486.1443 301.9353 -365.9324 -281.9321 30630.8912 -422.4748 -356.4792
ENERGY: 600000 1.4733 5.6906 6.5299 0.0000 -10814.0215 1494.6869 0.0000 0.0000 1766.8997 -7538.7411 299.0228 -9305.6407 -7495.9066 301.4521 237.0503 306.5330 30490.8171 -308.4650 -254.2985
ENERGY: 900000 1.2863 4.5109 7.2335 0.0000 -10598.7363 1370.9993 0.0000 0.0000 1769.9886 -7444.7177 299.5456 -9214.7063 -7510.5798 301.3187 -331.6744 -238.9812 30326.0579 -304.9495 -244.6156
ENERGY: 1200000 2.3800 6.5343 7.3855 0.0000 -10638.3918 1364.3412 0.0000 0.0000 1773.7295 -7484.0213 300.1787 -9257.7508 -7510.3329 301.1216 -450.9864 -355.7344 30282.8175 -161.6053 -107.7708
ENERGY: 1500000 1.7570 6.2236 7.5517 0.0000 -10880.0694 1562.0548 0.0000 0.0000 1778.4681 -7524.0143 300.9806 -9302.4824 -7512.0673 300.3062 976.1303 1144.1999 30072.2587 -98.7727 -32.1858
TCL: Running FEP window   6: Lambda1 0.25   Lambda2 0.3    [dLambda 0.04999999999999999]
TCL: Setting parameter firsttimestep to 0
TCL: Setting parameter alchLambda to 0.25
Info: NONBONDED TABLE R-SQUARED SPACING: 0.0625
Info: NONBONDED TABLE SIZE: 705 POINTS
TCL: Setting parameter alchLambda2 to 0.3
Info: NONBONDED TABLE R-SQUARED SPACING: 0.0625
Info: NONBONDED TABLE SIZE: 705 POINTS
TCL: Running for 1500000 steps
ETITLE: TS BOND ANGLE DIHED IMPRP ELECT VDW BOUNDARY MISC KINETIC TOTAL TEMP POTENTIAL TOTALAVG TEMPAVG PRESSURE GPRESSURE VOLUME PRESSAVG GPRESSAVG
ENERGY: 0 1.7570 6.2236 7.5517 0.0000 -10880.0704 1561.9317 0.0000 0.0000 1777.6035 -7525.0030 300.8343 -9302.6065 -7525.0030 300.8343 1059.1108 1147.8454 30072.2587 1059.1108 1147.8454
ENERGY: 300000 1.3615 4.5405 6.3875 0.0000 -10789.7620 1465.8747 0.0000 0.0000 1751.7300 -7559.8678 296.4556 -9311.5978 -7556.8446 298.5348 -71.8730 -36.0104 30507.0109 438.8871 502.2839
ENERGY: 600000 3.9205 8.2099 6.9130 0.0000 -10629.0624 1389.1864 0.0000 0.0000 1743.1870 -7477.6455 295.0098 -9220.8325 -7532.1241 297.4286 -327.1520 -288.3316 30561.9482 199.2475 245.2559
ENERGY: 900000 1.5686 8.1425 6.4691 0.0000 -10881.2414 1513.6977 0.0000 0.0000 1819.9522 -7531.4114 308.0012 -9351.3635 -7540.1487 298.0962 318.9899 415.3908 30700.9994 134.6417 184.3753
ENERGY: 1200000 0.8328 7.9377 6.2558 0.0000 -10825.1135 1526.3481 0.0000 0.0000 1755.8906 -7527.8485 297.1597 -9283.7391 -7536.3493 297.3709 698.3430 669.1134 30491.8735 124.5643 165.1651
ENERGY: 1500000 4.8035 6.6020 6.5983 0.0000 -10772.7737 1432.3326 0.0000 0.0000 1772.2365 -7550.2009 299.9260 -9322.4374 -7534.0950 297.8025 -418.8836 -433.8720 30956.5412 26.7421 67.4143
TCL: Running FEP window   7: Lambda1 0.3    Lambda2 0.35   [dLambda 0.04999999999999999]
TCL: Setting parameter firsttimestep to 0
TCL: Setting parameter alchLambda to 0.3
Info: NONBONDED TABLE R-SQUARED SPACING: 0.0625
Info: NONBONDED TABLE SIZE: 705 POINTS
TCL: Setting parameter alchLambda2 to 0.35
Info: NONBONDED TABLE R-SQUARED SPACING: 0.0625
Info: NONBONDED TABLE SIZE: 705 POINTS
TCL: Running for 1500000 steps
ETITLE: TS BOND ANGLE DIHED IMPRP ELECT VDW BOUNDARY MISC KINETIC TOTAL TEMP POTENTIAL TOTALAVG TEMPAVG PRESSURE GPRESSURE VOLUME PRESSAVG GPRESSAVG
ENERGY: 0 4.8035 6.6020 6.5983 0.0000 -10772.7725 1432.9482 0.0000 0.0000 1771.3772 -7550.4433 299.7806 -9321.8205 -7550.4433 299.7806 -509.3897 -426.3472 30956.5412 -509.3897 -426.3472
ENERGY: 300000 2.1603 7.2302 6.6560 0.0000 -10676.8265 1454.6619 0.0000 0.0000 1755.0919 -7451.0263 297.0245 -9206.1182 -7530.6805 297.7723 309.2189 344.0278 30752.0987 -385.8617 -340.9823
ENERGY: 600000 1.3300 5.0938 7.2199 0.0000 -10693.4507 1388.0507 0.0000 0.0000 1764.3526 -7527.4037 298.5918 -9291.7564 -7540.2272 296.8978 -614.7243 -577.8819 30646.5777 -365.1440 -306.9870
ENERGY: 900000 1.3513 4.5692 6.9578 0.0000 -10718.0396 1358.1848 0.0000 0.0000 1743.8768 -7603.0998 295.1265 -9346.9765 -7540.0871 297.2255 -740.9813 -743.4146 30519.5616 -259.1980 -210.8901
ENERGY: 1200000 2.2832 5.1109 6.7658 0.0000 -10703.1353 1445.4241 0.0000 0.0000 1776.0692 -7467.4820 300.5746 -9243.5512 -7534.6019 297.0462 81.5376 122.6597 30733.4392 -229.5484 -179.4399
ENERGY: 1500000 2.0713 5.5033 6.4370 0.0000 -10907.5864 1515.4284 0.0000 0.0000 1777.7891 -7600.3573 300.8657 -9378.1465 -7530.7020 298.2979 546.8614 583.5295 29864.0494 -154.7014 -95.8325
TCL: Running FEP window   8: Lambda1 0.35   Lambda2 0.39999999999999997 [dLambda 0.04999999999999999]
TCL: Setting parameter firsttimestep to 0
TCL: Setting parameter alchLambda to 0.35
Info: NONBONDED TABLE R-SQUARED SPACING: 0.0625
Info: NONBONDED TABLE SIZE: 705 POINTS
TCL: Setting parameter alchLambda2 to 0.39999999999999997
Info: NONBONDED TABLE R-SQUARED SPACING: 0.0625
Info: NONBONDED TABLE SIZE: 705 POINTS
TCL: Running for 1500000 steps
ETITLE: TS BOND ANGLE DIHED IMPRP ELECT VDW BOUNDARY MISC KINETIC TOTAL TEMP POTENTIAL TOTALAVG TEMPAVG PRESSURE GPRESSURE VOLUME PRESSAVG GPRESSAVG
ENERGY: 0 2.0713 5.5033 6.4370 0.0000 -10907.5852 1515.8780 0.0000 0.0000 1776.9526 -7600.7432 300.7241 -9377.6958 -7600.7432 300.7241 507.8013 591.9530 29864.0494 507.8013 591.9530
ENERGY: 300000 1.8210 7.7101 6.7539 0.0000 -10756.7020 1433.9132 0.0000 0.0000 1750.7465 -7555.7572 296.2891 -9306.5037 -7578.8820 296.7077 -95.2405 -14.0274 30293.9907 24.7081 96.5880
ENERGY: 600000 0.9637 7.1942 6.4271 0.0000 -10716.4033 1496.8482 0.0000 0.0000 1756.4262 -7448.5439 297.2503 -9204.9701 -7537.4659 299.3923 776.7613 812.9016 30238.2775 151.0481 215.0067
ENERGY: 900000 1.6427 6.5777 6.5552 0.0000 -10728.0720 1426.9701 0.0000 0.0000 1800.5135 -7485.8128 304.7115 -9286.3263 -7539.5809 299.2272 -179.5133 -103.3338 30585.3382 160.7564 211.8210
ENERGY: 1200000 1.7721 8.2989 6.5239 0.0000 -10698.7673 1368.5565 0.0000 0.0000 1758.6450 -7554.9708 297.6258 -9313.6158 -7552.3464 298.3094 -840.4650 -781.3313 30749.2043 29.8145 81.9618
ENERGY: 1500000 0.9866 4.1117 7.0012 0.0000 -10884.0396 1503.6623 0.0000 0.0000 1716.5257 -7651.7521 290.4977 -9368.2778 -7564.9287 297.5470 243.9795 338.9545 30125.7292 3.1155 59.5071
TCL: Running FEP window   9: Lambda1 0.39999999999999997 Lambda2 0.44999999999999996 [dLambda 0.04999999999999999]
TCL: Setting parameter firsttimestep to 0
TCL: Setting parameter alchLambda to 0.39999999999999997
Info: NONBONDED TABLE R-SQUARED SPACING: 0.0625
Info: NONBONDED TABLE SIZE: 705 POINTS
TCL: Setting parameter alchLambda2 to 0.44999999999999996
Info: NONBONDED TABLE R-SQUARED SPACING: 0.0625
Info: NONBONDED TABLE SIZE: 705 POINTS
TCL: Running for 1500000 steps
ETITLE: TS BOND ANGLE DIHED IMPRP ELECT VDW BOUNDARY MISC KINETIC TOTAL TEMP POTENTIAL TOTALAVG TEMPAVG PRESSURE GPRESSURE VOLUME PRESSAVG GPRESSAVG
ENERGY: 0 0.9866 4.1117 7.0012 0.0000 -10884.0399 1503.3631 0.0000 0.0000 1715.6708 -7652.9064 290.3531 -9368.5772 -7652.9064 290.3531 242.1686 339.2395 30125.7292 242.1686 339.2395
ENERGY: 300000 1.2960 6.4986 6.4771 0.0000 -10768.1347 1423.9747 0.0000 0.0000 1745.4463 -7584.4419 295.3921 -9329.8883 -7565.0182 296.6308 -281.1775 -179.5046 30412.4054 61.4657 173.6715
ENERGY: 600000 1.3948 7.6454 8.5475 0.0000 -10741.5528 1494.2098 0.0000 0.0000 1781.9802 -7447.7751 301.5750 -9229.7552 -7534.7163 299.1849 181.4914 257.7734 31044.1258 48.2020 153.5954
ENERGY: 900000 3.1902 6.3208 6.9134 0.0000 -10658.3770 1425.2354 0.0000 0.0000 1781.8527 -7434.8645 301.5534 -9216.7172 -7528.8932 300.0908 -74.8398 -17.8917 30891.3836 58.1297 144.9519
ENERGY: 1200000 0.5553 4.5365 6.4733 0.0000 -10838.8008 1506.6332 0.0000 0.0000 1760.6554 -7559.9470 297.9661 -9320.6024 -7533.9413 299.0716 104.1812 175.9545 30872.4608 18.9813 97.0201
ENERGY: 1500000 2.8424 2.9598 6.6089 0.0000 -10696.7017 1380.1414 0.0000 0.0000 1845.7831 -7458.3661 312.3727 -9304.1492 -7518.1114 300.9066 -605.4420 -512.5553 30436.8857 14.6999 95.5997
TCL: Running FEP window  10: Lambda1 0.44999999999999996 Lambda2 0.49999999999999994 [dLambda 0.04999999999999999]
TCL: Setting parameter firsttimestep to 0
TCL: Setting parameter alchLambda to 0.44999999999999996
Info: NONBONDED TABLE R-SQUARED SPACING: 0.0625
Info: NONBONDED TABLE SIZE: 705 POINTS
TCL: Setting parameter alchLambda2 to 0.49999999999999994
Info: NONBONDED TABLE R-SQUARED SPACING: 0.0625
Info: NONBONDED TABLE SIZE: 705 POINTS
TCL: Running for 1500000 steps
ETITLE: TS BOND ANGLE DIHED IMPRP ELECT VDW BOUNDARY MISC KINETIC TOTAL TEMP POTENTIAL TOTALAVG TEMPAVG PRESSURE GPRESSURE VOLUME PRESSAVG GPRESSAVG
ENERGY: 0 2.8424 2.9598 6.6089 0.0000 -10696.7017 1379.9208 0.0000 0.0000 1844.8731 -7459.4967 312.2187 -9304.3699 -7459.4967 312.2187 -598.3216 -510.2822 30436.8857 -598.3216 -510.2822
ENERGY: 300000 6.2785 6.9113 6.0906 0.0000 -10813.6906 1518.3808 0.0000 0.0000 1794.5885 -7481.4409 303.7088 -9276.0294 -7497.9441 301.2773 625.6649 657.1226 30635.7054 -101.2196 -48.0995
ENERGY: 600000 1.1586 5.8191 7.1981 0.0000 -10745.8001 1403.9876 0.0000 0.0000 1806.3407 -7521.2961 305.6977 -9327.6368 -7489.7346 302.1730 -410.6131 -384.9055 30591.7963 -140.3947 -97.3838
ENERGY: 900000 1.9544 6.4211 9.4081 0.0000 -10807.6985 1472.1800 0.0000 0.0000 1675.3500 -7642.3848 283.5293 -9317.7348 -7526.8982 300.2112 242.0606 302.2287 30091.9102 74.5736 117.2181
ENERGY: 1200000 0.4775 7.7516 8.6059 0.0000 -10712.1728 1449.4421 0.0000 0.0000 1755.1078 -7490.7880 297.0272 -9245.8958 -7518.1671 299.7638 217.1925 254.5502 30483.9961 82.9045 127.8331
ENERGY: 1500000 2.5104 5.4524 6.8886 0.0000 -10686.1029 1436.0943 0.0000 0.0000 1758.2835 -7476.8737 297.5647 -9235.1572 -7509.8138 299.3510 -251.8063 -194.8968 31275.0466 -55.7804 -10.2342
TCL: Running FEP window  11: Lambda1 0.49999999999999994 Lambda2 0.5499999999999999 [dLambda 0.04999999999999999]
TCL: Setting parameter firsttimestep to 0
TCL: Setting parameter alchLambda to 0.49999999999999994
Info: NONBONDED TABLE R-SQUARED SPACING: 0.0625
Info: NONBONDED TABLE SIZE: 705 POINTS
TCL: Setting parameter alchLambda2 to 0.5499999999999999
Info: NONBONDED TABLE R-SQUARED SPACING: 0.0625
Info: NONBONDED TABLE SIZE: 705 POINTS
TCL: Running for 1500000 steps
ETITLE: TS BOND ANGLE DIHED IMPRP ELECT VDW BOUNDARY MISC KINETIC TOTAL TEMP POTENTIAL TOTALAVG TEMPAVG PRESSURE GPRESSURE VOLUME PRESSAVG GPRESSAVG
ENERGY: 0 2.5104 5.4524 6.8886 0.0000 -10686.1041 1436.1363 0.0000 0.0000 1757.4044 -7477.7120 297.4159 -9235.1165 -7477.7120 297.4159 -257.9705 -184.9433 31275.0466 -257.9705 -184.9433
ENERGY: 300000 2.5200 5.2373 8.0858 0.0000 -10634.5406 1391.6953 0.0000 0.0000 1755.2321 -7471.7701 297.0482 -9227.0022 -7467.2063 299.2735 -448.8691 -347.3495 31028.5333 -398.7445 -319.6942
ENERGY: 600000 2.1138 7.4214 6.0535 0.0000 -10745.5912 1405.0535 0.0000 0.0000 1747.6036 -7577.3453 295.7572 -9324.9489 -7525.1371 298.1550 -562.9130 -507.5302 30646.0561 -225.3002 -153.9350
ENERGY: 900000 2.8133 6.3623 7.8853 0.0000 -10669.5423 1432.3885 0.0000 0.0000 1747.7495 -7472.3434 295.7819 -9220.0930 -7516.2906 298.2019 -3.8703 -21.2827 31037.1297 -286.1546 -231.9730
ENERGY: 1200000 1.5703 6.9344 6.7202 0.0000 -10857.3911 1450.9486 0.0000 0.0000 1770.8642 -7620.3535 299.6938 -9391.2178 -7524.6317 298.4044 -136.5893 -94.4682 30269.0263 -235.5819 -189.2360
ENERGY: 1500000 0.4425 3.7705 7.9932 0.0000 -10736.2654 1411.6365 0.0000 0.0000 1776.9069 -7535.5159 300.7164 -9312.4228 -7527.6166 298.1670 -390.3205 -335.6659 30758.0314 -277.9407 -230.6089
TCL: Running FEP window  12: Lambda1 0.5499999999999999 Lambda2 0.6    [dLambda 0.050000000000000044]
TCL: Setting parameter firsttimestep to 0
TCL: Setting parameter alchLambda to 0.5499999999999999
Info: NONBONDED TABLE R-SQUARED SPACING: 0.0625
Info: NONBONDED TABLE SIZE: 705 POINTS
TCL: Setting parameter alchLambda2 to 0.6
Info: NONBONDED TABLE R-SQUARED SPACING: 0.0625
Info: NONBONDED TABLE SIZE: 705 POINTS
TCL: Running for 1500000 steps
ETITLE: TS BOND ANGLE DIHED IMPRP ELECT VDW BOUNDARY MISC KINETIC TOTAL TEMP POTENTIAL TOTALAVG TEMPAVG PRESSURE GPRESSURE VOLUME PRESSAVG GPRESSAVG
ENERGY: 0 0.4425 3.7705 7.9932 0.0000 -10736.3255 1411.5761 0.0000 0.0000 1776.0350 -7536.5083 300.5688 -9312.5433 -7536.5083 300.5688 -402.2255 -330.0035 30758.0314 -402.2255 -330.0035
ENERGY: 300000 1.8718 3.9471 6.4290 0.0000 -10697.1383 1379.4539 0.0000 0.0000 1833.6490 -7471.7875 310.3192 -9305.4365 -7522.5043 301.6375 -716.7368 -636.1376 30899.8756 -201.7766 -151.8823
ENERGY: 600000 4.8108 6.8588 7.1227 0.0000 -10782.9962 1419.7640 0.0000 0.0000 1798.7585 -7545.6815 304.4145 -9344.4400 -7524.3182 300.2231 -454.5539 -346.5777 30507.8890 100.7920 155.4834
ENERGY: 900000 1.2103 4.0989 6.3442 0.0000 -10796.1902 1466.9400 0.0000 0.0000 1738.4759 -7579.1208 294.2125 -9317.5968 -7536.7169 299.9107 151.3182 203.5426 30528.8289 8.6521 54.6530
ENERGY: 1200000 4.0146 6.5310 7.6660 0.0000 -10766.8047 1430.3464 0.0000 0.0000 1789.5199 -7528.7268 302.8510 -9318.2467 -7534.6275 300.7981 -196.2421 -118.3821 30496.0105 30.5406 87.2168
ENERGY: 1500000 3.7725 7.2695 8.2328 0.0000 -10794.4375 1477.2340 0.0000 0.0000 1782.1075 -7515.8212 301.5965 -9297.9287 -7528.1267 301.1063 156.1331 240.1561 30213.6609 78.1541 134.8009
TCL: Running FEP window  13: Lambda1 0.6    Lambda2 0.65   [dLambda 0.050000000000000044]
TCL: Setting parameter firsttimestep to 0
TCL: Setting parameter alchLambda to 0.6
Info: NONBONDED TABLE R-SQUARED SPACING: 0.0625
Info: NONBONDED TABLE SIZE: 705 POINTS
TCL: Setting parameter alchLambda2 to 0.65
Info: NONBONDED TABLE R-SQUARED SPACING: 0.0625
Info: NONBONDED TABLE SIZE: 705 POINTS
TCL: Running for 1500000 steps
ETITLE: TS BOND ANGLE DIHED IMPRP ELECT VDW BOUNDARY MISC KINETIC TOTAL TEMP POTENTIAL TOTALAVG TEMPAVG PRESSURE GPRESSURE VOLUME PRESSAVG GPRESSAVG
ENERGY: 0 3.7725 7.2695 8.2328 0.0000 -10794.7121 1477.4895 0.0000 0.0000 1781.2247 -7516.7231 301.4471 -9297.9478 -7516.7231 301.4471 166.0724 249.0817 30213.6609 166.0724 249.0817
ENERGY: 300000 1.0104 3.7851 7.6728 0.0000 -10735.7522 1369.8170 0.0000 0.0000 1766.4136 -7587.0533 298.9406 -9353.4670 -7508.3176 300.6266 -659.9978 -541.0035 30290.6525 -373.9128 -303.0191
ENERGY: 600000 2.8585 3.4471 6.3378 0.0000 -10789.9214 1433.0218 0.0000 0.0000 1787.4712 -7556.7849 302.5043 -9344.2561 -7511.6660 302.0137 -367.5720 -301.1728 30729.7884 -255.6502 -192.2808
ENERGY: 900000 2.7914 9.0937 6.3309 0.0000 -10722.6293 1435.8117 0.0000 0.0000 1806.5402 -7462.0614 305.7314 -9268.6016 -7510.5971 300.6770 -7.6872 120.0886 30604.5180 -151.8570 -76.4653
ENERGY: 1200000 5.5313 6.3539 6.3751 0.0000 -10797.7451 1459.4682 0.0000 0.0000 1757.9613 -7562.0551 297.5101 -9320.0165 -7521.9500 300.2280 21.0644 109.7883 30351.1718 -132.1007 -48.4826
ENERGY: 1500000 2.5153 4.8061 6.6287 0.0000 -10852.6044 1516.1817 0.0000 0.0000 1772.2420 -7550.2307 299.9269 -9322.4726 -7526.6774 299.7115 461.8246 548.8891 30374.4319 -23.3026 57.2166
TCL: Running FEP window  14: Lambda1 0.65   Lambda2 0.7000000000000001 [dLambda 0.050000000000000044]
TCL: Setting parameter firsttimestep to 0
TCL: Setting parameter alchLambda to 0.65
Info: NONBONDED TABLE R-SQUARED SPACING: 0.0625
Info: NONBONDED TABLE SIZE: 705 POINTS
TCL: Setting parameter alchLambda2 to 0.7000000000000001
Info: NONBONDED TABLE R-SQUARED SPACING: 0.0625
Info: NONBONDED TABLE SIZE: 705 POINTS
TCL: Running for 1500000 steps
ETITLE: TS BOND ANGLE DIHED IMPRP ELECT VDW BOUNDARY MISC KINETIC TOTAL TEMP POTENTIAL TOTALAVG TEMPAVG PRESSURE GPRESSURE VOLUME PRESSAVG GPRESSAVG
ENERGY: 0 2.5153 4.8061 6.6287 0.0000 -10852.8211 1515.7205 0.0000 0.0000 1771.4063 -7551.7442 299.7855 -9323.1505 -7551.7442 299.7855 467.9385 552.0218 30374.4319 467.9385 552.0218
ENERGY: 300000 1.2916 7.4366 6.5661 0.0000 -10759.9568 1458.5509 0.0000 0.0000 1787.2729 -7498.8387 302.4707 -9286.1116 -7569.2135 298.4124 337.8801 345.2683 30115.1096 180.0088 253.4069
ENERGY: 600000 3.2038 8.8464 6.9406 0.0000 -10698.2658 1427.9529 0.0000 0.0000 1774.7793 -7476.5428 300.3563 -9251.3222 -7554.9952 297.3227 -104.6827 -61.9336 30915.6159 -10.6880 54.6863
ENERGY: 900000 1.2065 7.5498 8.3107 0.0000 -10822.2072 1441.7707 0.0000 0.0000 1838.4319 -7524.9376 311.1286 -9363.3695 -7553.3677 299.4309 -163.7313 -79.1253 30605.9067 -157.6894 -100.6583
ENERGY: 1200000 1.5201 5.0588 6.9645 0.0000 -10790.5235 1483.2774 0.0000 0.0000 1732.4910 -7561.2117 293.1996 -9293.7027 -7548.3553 299.2494 377.5597 493.9439 30317.7782 -199.1525 -138.9285
ENERGY: 1500000 3.6902 9.1208 6.1882 0.0000 -10672.2173 1332.8671 0.0000 0.0000 1811.5136 -7508.8374 306.5731 -9320.3510 -7549.9718 299.2908 -1034.3451 -1036.1165 30774.6509 -221.9370 -166.1972
TCL: Running FEP window  15: Lambda1 0.7000000000000001 Lambda2 0.7500000000000001 [dLambda 0.050000000000000044]
TCL: Setting parameter firsttimestep to 0
TCL: Setting parameter alchLambda to 0.7000000000000001
Info: NONBONDED TABLE R-SQUARED SPACING: 0.0625
Info: NONBONDED TABLE SIZE: 705 POINTS
TCL: Setting parameter alchLambda2 to 0.7500000000000001
Info: NONBONDED TABLE R-SQUARED SPACING: 0.0625
Info: NONBONDED TABLE SIZE: 705 POINTS
TCL: Running for 1500000 steps
ETITLE: TS BOND ANGLE DIHED IMPRP ELECT VDW BOUNDARY MISC KINETIC TOTAL TEMP POTENTIAL TOTALAVG TEMPAVG PRESSURE GPRESSURE VOLUME PRESSAVG GPRESSAVG
ENERGY: 0 3.6902 9.1208 6.1882 0.0000 -10672.3392 1333.0398 0.0000 0.0000 1810.6504 -7509.6497 306.4270 -9320.3002 -7509.6497 306.4270 -1107.0565 -1025.4841 30774.6509 -1107.0565 -1025.4841
ENERGY: 300000 1.8309 8.4987 6.7196 0.0000 -10843.2808 1474.2377 0.0000 0.0000 1731.6459 -7620.3481 293.0566 -9351.9940 -7552.3080 295.9237 -42.9116 7.0064 30840.2064 -299.7452 -252.6117
ENERGY: 600000 1.6389 8.3080 7.2815 0.0000 -10557.6112 1337.2714 0.0000 0.0000 1732.3291 -7470.7824 293.1722 -9203.1115 -7541.2502 296.1720 -599.5177 -492.7661 30459.9030 -251.3700 -189.4178
ENERGY: 900000 1.8532 2.8008 6.6081 0.0000 -10813.6650 1476.1607 0.0000 0.0000 1797.9715 -7528.2708 304.2813 -9326.2423 -7539.9300 296.4770 393.1089 393.6136 30346.0385 -131.0021 -78.6380
ENERGY: 1200000 4.0770 8.4762 6.7523 0.0000 -10749.1333 1419.5971 0.0000 0.0000 1750.6866 -7559.5441 296.2790 -9310.2307 -7530.0636 297.1604 -400.7315 -272.8039 30699.5924 -150.9212 -98.0094
ENERGY: 1500000 1.8108 9.8140 7.1194 0.0000 -10735.1700 1411.5320 0.0000 0.0000 1743.2737 -7561.6202 295.0245 -9304.8939 -7530.7659 297.0476 -51.6899 32.1069 30280.2250 -152.7754 -96.1326
TCL: Running FEP window  16: Lambda1 0.7500000000000001 Lambda2 0.8000000000000002 [dLambda 0.050000000000000044]
TCL: Setting parameter firsttimestep to 0
TCL: Setting parameter alchLambda to 0.7500000000000001
Info: NONBONDED TABLE R-SQUARED SPACING: 0.0625
Info: NONBONDED TABLE SIZE: 705 POINTS
TCL: Setting parameter alchLambda2 to 0.8000000000000002
Info: NONBONDED TABLE R-SQUARED SPACING: 0.0625
Info: NONBONDED TABLE SIZE: 705 POINTS
TCL: Running for 1500000 steps
ETITLE: TS BOND ANGLE DIHED IMPRP ELECT VDW BOUNDARY MISC KINETIC TOTAL TEMP POTENTIAL TOTALAVG TEMPAVG PRESSURE GPRESSURE VOLUME PRESSAVG GPRESSAVG
ENERGY: 0 1.8108 9.8140 7.1194 0.0000 -10736.9427 1412.0240 0.0000 0.0000 1742.3543 -7563.8203 294.8689 -9306.1746 -7563.8203 294.8689 -41.2025 41.3702 30280.2250 -41.2025 41.3702
ENERGY: 300000 1.8889 6.6428 6.5649 0.0000 -10819.0776 1491.5195 0.0000 0.0000 1771.5628 -7540.8986 299.8120 -9312.4614 -7560.3288 298.8812 462.6220 535.3221 30262.6455 115.0006 206.3371
ENERGY: 600000 0.6200 7.9272 6.8685 0.0000 -10857.3890 1477.5703 0.0000 0.0000 1788.2514 -7576.1516 302.6363 -9364.4030 -7540.4937 300.2826 340.0964 363.7744 30039.9049 5.8756 64.6620
ENERGY: 900000 1.6977 8.6588 6.3713 0.0000 -10756.9730 1408.1423 0.0000 0.0000 1755.8195 -7576.2833 297.1477 -9332.1028 -7546.5490 299.8582 -487.5081 -422.9766 30593.9779 -34.8552 35.9650
ENERGY: 1200000 1.6622 4.6233 7.7337 0.0000 -10823.5674 1512.6827 0.0000 0.0000 1745.5840 -7551.2815 295.4154 -9296.8655 -7545.6446 300.5804 393.5678 398.3013 30630.3073 42.9320 98.7449
ENERGY: 1500000 3.1129 10.4513 6.7583 0.0000 -10762.1866 1418.5675 0.0000 0.0000 1777.0534 -7546.2432 300.7412 -9323.2966 -7540.0739 300.1715 -433.4158 -387.3616 31006.4283 3.8832 54.5706
TCL: Running FEP window  17: Lambda1 0.8000000000000002 Lambda2 0.8500000000000002 [dLambda 0.050000000000000044]
TCL: Setting parameter firsttimestep to 0
TCL: Setting parameter alchLambda to 0.8000000000000002
Info: NONBONDED TABLE R-SQUARED SPACING: 0.0625
Info: NONBONDED TABLE SIZE: 705 POINTS
TCL: Setting parameter alchLambda2 to 0.8500000000000002
Info: NONBONDED TABLE R-SQUARED SPACING: 0.0625
Info: NONBONDED TABLE SIZE: 705 POINTS
TCL: Running for 1500000 steps
ETITLE: TS BOND ANGLE DIHED IMPRP ELECT VDW BOUNDARY MISC KINETIC TOTAL TEMP POTENTIAL TOTALAVG TEMPAVG PRESSURE GPRESSURE VOLUME PRESSAVG GPRESSAVG
ENERGY: 0 3.1129 10.4513 6.7583 0.0000 -10763.5936 1420.0269 0.0000 0.0000 1776.1509 -7547.0933 300.5885 -9323.2442 -7547.0933 300.5885 -461.4035 -364.3472 31006.4283 -461.4035 -364.3472
ENERGY: 300000 0.8165 4.0717 6.7109 0.0000 -10837.0335 1445.3674 0.0000 0.0000 1800.8756 -7579.1914 304.7728 -9380.0670 -7536.3150 303.6977 -144.0559 -153.0563 30436.4549 80.9431 146.0863
ENERGY: 600000 2.4418 4.9674 6.9163 0.0000 -10628.4595 1393.4096 0.0000 0.0000 1763.9943 -7456.7301 298.5311 -9220.7244 -7519.8114 304.2377 -394.8005 -322.6346 30487.1800 33.7426 92.4139
ENERGY: 900000 4.0843 5.0442 7.2416 0.0000 -10680.6782 1416.6046 0.0000 0.0000 1756.1240 -7491.5795 297.1992 -9247.7035 -7526.3691 302.3534 -442.1024 -347.0341 31135.8788 -32.4291 33.7445
ENERGY: 1200000 1.8643 10.0112 6.3414 0.0000 -10630.4565 1377.4019 0.0000 0.0000 1753.0025 -7481.8352 296.6709 -9234.8377 -7517.8853 301.6621 -530.4333 -534.9075 30800.4068 -68.1494 -16.0934
ENERGY: 1500000 2.8553 4.5837 7.0735 0.0000 -10859.4473 1511.0201 0.0000 0.0000 1821.5552 -7512.3595 308.2725 -9333.9147 -7522.2750 301.2627 451.0216 562.3117 30331.4069 -56.1909 -3.8882
TCL: Running FEP window  18: Lambda1 0.8500000000000002 Lambda2 0.9000000000000002 [dLambda 0.050000000000000044]
TCL: Setting parameter firsttimestep to 0
TCL: Setting parameter alchLambda to 0.8500000000000002
Info: NONBONDED TABLE R-SQUARED SPACING: 0.0625
Info: NONBONDED TABLE SIZE: 705 POINTS
TCL: Setting parameter alchLambda2 to 0.9000000000000002
Info: NONBONDED TABLE R-SQUARED SPACING: 0.0625
Info: NONBONDED TABLE SIZE: 705 POINTS
TCL: Running for 1500000 steps
ETITLE: TS BOND ANGLE DIHED IMPRP ELECT VDW BOUNDARY MISC KINETIC TOTAL TEMP POTENTIAL TOTALAVG TEMPAVG PRESSURE GPRESSURE VOLUME PRESSAVG GPRESSAVG
ENERGY: 0 2.8553 4.5837 7.0735 0.0000 -10860.5544 1511.7873 0.0000 0.0000 1820.6690 -7513.5856 308.1225 -9334.2546 -7513.5856 308.1225 498.4575 578.2596 30331.4069 498.4575 578.2596
ENERGY: 300000 1.6577 5.1392 7.1976 0.0000 -10818.5034 1430.3255 0.0000 0.0000 1752.3502 -7621.8332 296.5605 -9374.1834 -7575.1460 299.4257 -132.9765 -46.6654 30374.1161 183.0322 246.6256
ENERGY: 600000 2.2295 5.1437 6.5770 0.0000 -10891.6325 1505.9711 0.0000 0.0000 1812.5922 -7559.1191 306.7556 -9371.7113 -7556.1386 300.3917 296.4904 356.0245 30379.1222 -4.8937 57.2885
ENERGY: 900000 1.6199 5.7829 7.1487 0.0000 -10715.7835 1439.1683 0.0000 0.0000 1767.6160 -7494.4476 299.1441 -9262.0637 -7537.6292 299.8932 131.5584 293.0346 30127.0991 0.5136 81.4714
ENERGY: 1200000 1.2503 5.4027 7.1444 0.0000 -10964.9950 1500.3642 0.0000 0.0000 1774.4807 -7676.3527 300.3058 -9450.8334 -7539.7826 300.6001 453.7597 519.3170 29878.8590 -1.2094 81.7785
ENERGY: 1500000 5.5850 8.9659 8.7572 0.0000 -10690.2882 1391.2737 0.0000 0.0000 1793.7961 -7481.9102 303.5747 -9275.7063 -7543.2484 300.4227 -583.2253 -529.0872 30744.1203 -57.1186 23.5909
TCL: Running FEP window  19: Lambda1 0.9000000000000002 Lambda2 0.9500000000000003 [dLambda 0.050000000000000044]
TCL: Setting parameter firsttimestep to 0
TCL: Setting parameter alchLambda to 0.9000000000000002
Info: NONBONDED TABLE R-SQUARED SPACING: 0.0625
Info: NONBONDED TABLE SIZE: 705 POINTS
TCL: Setting parameter alchLambda2 to 0.9500000000000003
Info: NONBONDED TABLE R-SQUARED SPACING: 0.0625
Info: NONBONDED TABLE SIZE: 705 POINTS
TCL: Running for 1500000 steps
ETITLE: TS BOND ANGLE DIHED IMPRP ELECT VDW BOUNDARY MISC KINETIC TOTAL TEMP POTENTIAL TOTALAVG TEMPAVG PRESSURE GPRESSURE VOLUME PRESSAVG GPRESSAVG
ENERGY: 0 5.5851 8.9659 8.7572 0.0000 -10691.7120 1392.0222 0.0000 0.0000 1792.8988 -7483.4828 303.4228 -9276.3816 -7483.4828 303.4228 -601.8951 -514.2836 30744.1203 -601.8951 -514.2836
ENERGY: 300000 2.4244 5.1520 7.9418 0.0000 -10822.6589 1499.0951 0.0000 0.0000 1772.2341 -7535.8116 299.9256 -9308.0457 -7506.4083 299.3933 335.1750 362.1330 30864.0582 -74.9270 -42.4952
ENERGY: 600000 1.2856 10.7260 6.5717 0.0000 -10876.7699 1530.3701 0.0000 0.0000 1839.1416 -7488.6750 311.2488 -9327.8166 -7493.4509 302.8635 829.4069 897.3578 30396.0635 13.3076 61.8832
ENERGY: 900000 2.1779 5.5530 8.0225 0.0000 -10830.2140 1538.7989 0.0000 0.0000 1785.2545 -7490.4072 302.1291 -9275.6617 -7497.5672 302.1854 507.1926 552.9825 30917.0445 79.2929 132.7836
ENERGY: 1200000 1.8616 10.1124 6.4072 0.0000 -10818.0982 1444.8814 0.0000 0.0000 1826.8804 -7527.9552 309.1737 -9354.8356 -7513.0421 301.8425 -333.9023 -258.1955 30731.3246 6.2553 69.2760
ENERGY: 1500000 4.6852 4.1971 7.7761 0.0000 -10695.5079 1427.6910 0.0000 0.0000 1797.0224 -7454.1362 304.1207 -9251.1586 -7514.6940 301.5191 -107.4759 -67.7304 30817.5290 -13.9239 52.9668
TCL: Running FEP window  20: Lambda1 0.9500000000000003 Lambda2 1.0    [dLambda 0.04999999999999971]
TCL: Setting parameter firsttimestep to 0
TCL: Setting parameter alchLambda to 0.9500000000000003
Info: NONBONDED TABLE R-SQUARED SPACING: 0.0625
Info: NONBONDED TABLE SIZE: 705 POINTS
TCL: Setting parameter alchLambda2 to 1.0
Info: NONBONDED TABLE R-SQUARED SPACING: 0.0625
Info: NONBONDED TABLE SIZE: 705 POINTS
TCL: Running for 1500000 steps
ETITLE: TS BOND ANGLE DIHED IMPRP ELECT VDW BOUNDARY MISC KINETIC TOTAL TEMP POTENTIAL TOTALAVG TEMPAVG PRESSURE GPRESSURE VOLUME PRESSAVG GPRESSAVG
ENERGY: 0 4.6852 4.1971 7.7761 0.0000 -10696.4557 1427.5425 0.0000 0.0000 1796.1643 -7456.0906 303.9754 -9252.2549 -7456.0906 303.9754 -130.4447 -63.0754 30817.5290 -130.4447 -63.0754
ENERGY: 300000 1.2022 5.4688 6.8360 0.0000 -10710.4462 1344.4040 0.0000 0.0000 1787.1937 -7565.3415 302.4573 -9352.5352 -7564.7512 300.2974 -799.4897 -730.3169 30556.8226 -85.4544 -12.3263
ENERGY: 600000 1.3431 6.0138 8.9086 0.0000 -10850.8137 1527.5293 0.0000 0.0000 1795.5315 -7511.4875 303.8684 -9307.0190 -7563.5033 300.0053 817.3125 819.4818 30559.1435 121.8779 191.7189
ENERGY: 900000 2.2438 8.6524 6.9161 0.0000 -10782.7383 1427.9104 0.0000 0.0000 1752.2366 -7584.7789 296.5413 -9337.0155 -7558.8309 300.2134 -32.2750 28.3827 30340.8918 12.0490 71.8942
ENERGY: 1200000 1.0991 3.3607 7.1561 0.0000 -10786.8705 1478.2990 0.0000 0.0000 1763.8551 -7533.1005 298.5076 -9296.9556 -7558.9077 299.6580 429.9185 517.7500 30490.0284 -15.0793 46.8713
ENERGY: 1500000 1.0104 5.4478 8.0283 0.0000 -10770.4023 1469.0321 0.0000 0.0000 1767.9337 -7518.9501 299.1978 -9286.8838 -7559.3167 298.9465 435.3957 532.4214 30187.9606 17.8691 81.3746
TCL: Exiting due to exit command.
