Info: SIMULATION PARAMETERS:
Info: TIMESTEP               2
Info: NUMBER OF STEPS        0
Info: STEPS PER CYCLE        10
Info: PERIODIC CELL BASIS 1  31.7276 0 0
Info: PERIODIC CELL BASIS 2  0 30.1899 0
Info: PERIODIC CELL BASIS 3  0 0 31.8985
Info: PERIODIC CELL CENTER   0 0 0
Info: WRAPPING WATERS AROUND PERIODIC BOUNDARIES ON OUTPUT.
Info: WRAPPING ALL CLUSTERS AROUND PERIODIC BOUNDARIES ON OUTPUT.
Info: FIRST LDB TIMESTEP     50
Info: LAST LDB TIMESTEP     -1
Info: HOM BACKGROUND SCALING 1
Info: PME BACKGROUND SCALING 1
Info: MIN ATOMS PER PATCH    40
Info: EMPTY PATCH LOAD       40 ATOMS
Info: VELOCITY FILE          mobley_7758918_equil.vel
Info: CENTER OF MASS MOVING INITIALLY? NO
Info: DIELECTRIC             1
Info: EXCLUDE                SCALED ONE-FOUR
Info: 1-4 ELECTROSTATICS SCALED BY 0.833333
Info: MODIFIED 1-4 VDW PARAMETERS WILL BE USED
Info: DCD FILENAME           mobley_7758918_prod.dcd
Info: DCD FREQUENCY          100000
Info: DCD FIRST STEP         100000
Info: DCD FILE WILL CONTAIN UNIT CELL DATA
Info: XST FILENAME           mobley_7758918_prod.xst
Info: XST FREQUENCY          100000
Info: NO VELOCITY DCD OUTPUT
Info: NO FORCE DCD OUTPUT
Info: OUTPUT FILENAME        mobley_7758918_prod
Info: BINARY OUTPUT FILES WILL BE USED
Info: RESTART FILENAME       mobley_7758918_prod.restart
Info: RESTART FREQUENCY      100000
Info: BINARY RESTART FILES WILL BE USED
Info: CUTOFF                 9
Info: PAIRLIST DISTANCE      11
Info: PAIRLIST SHRINK RATE   0.01
Info: PAIRLIST GROW RATE     0.01
Info: PAIRLIST TRIGGER       0.3
Info: PAIRLISTS PER CYCLE    2
Info: PAIRLISTS ENABLED
Info: MARGIN                 2
Info: HYDROGEN GROUP CUTOFF  2.5
Info: PATCH DIMENSION        15.5
Info: ENERGY OUTPUT STEPS    100000
Info: ENERGY EVALUATION STEPS    100000
Info: OUTPUT ENERGY PRECISION 4
Info: CROSSTERM ENERGY INCLUDED IN DIHEDRAL
Info: TIMING OUTPUT STEPS    1000000
Info: PRESSURE OUTPUT STEPS  100000
Info: ALCHEMICAL FEP ON
Info: FEP CURRENT LAMBDA VALUE     1
Info: FEP COMPARISON LAMBDA VALUE  0.95
Info: FEP INTRA-ALCHEMICAL NON-BONDED INTERACTIONS WILL BE RETAINED
Info: FEP INTRA-ALCHEMICAL BONDED INTERACTIONS WILL BE RETAINED
Info: FEP VDW SHIFTING COEFFICIENT 5
Info: FEP ELEC. ACTIVE FOR ANNIHILATED PARTICLES BETWEEN LAMBDA = 0 AND LAMBDA = 0.5
Info: FEP ELEC. ACTIVE FOR EXNIHILATED PARTICLES BETWEEN LAMBDA = 0.5 AND LAMBDA = 1
Info: FEP VDW ACTIVE FOR ANNIHILATED PARTICLES BETWEEN LAMBDA = 0 AND LAMBDA = 1
Info: FEP VDW ACTIVE FOR EXNIHILATED PARTICLES BETWEEN LAMBDA = 0 AND LAMBDA = 1
Info: FEP BOND ACTIVE FOR ANNIHILATED PARTICLES BETWEEN LAMBDA = 1 AND LAMBDA = 1
Info: FEP BOND ACTIVE FOR EXNIHILATED PARTICLES BETWEEN LAMBDA = 0 AND LAMBDA = 0
Info: LANGEVIN DYNAMICS ACTIVE
Info: LANGEVIN TEMPERATURE   300
Info: LANGEVIN USING BBK INTEGRATOR
Info: LANGEVIN DAMPING COEFFICIENT IS 1 INVERSE PS
Info: LANGEVIN DYNAMICS APPLIED TO HYDROGENS
Info: LANGEVIN PISTON PRESSURE CONTROL ACTIVE
Info:        TARGET PRESSURE IS 1.01325 BAR
Info:     OSCILLATION PERIOD IS 50 FS
Info:             DECAY TIME IS 25 FS
Info:     PISTON TEMPERATURE IS 300 K
Info:       PRESSURE CONTROL IS GROUP-BASED
Info:    INITIAL STRAIN RATE IS 0.000137398 0.000137398 0.000137398
Info:       CELL FLUCTUATION IS ISOTROPIC
Info: PARTICLE MESH EWALD (PME) ACTIVE
Info: PME TOLERANCE               1e-06
Info: PME EWALD COEFFICIENT       0.348832
Info: PME INTERPOLATION ORDER     4
Info: PME GRID DIMENSIONS         32 32 32
Info: PME MAXIMUM GRID SPACING    1
Info: PME CALCULATION WILL BE PERFORMED ON GPU
Info: FULL ELECTROSTATIC EVALUATION FREQUENCY      2
Info: USING VERLET I (r-RESPA) MTS SCHEME.
Info: C1 SPLITTING OF LONG RANGE ELECTROSTATICS
Info: PLACING ATOMS IN PATCHES BY HYDROGEN GROUPS
Info: RIGID BONDS TO HYDROGEN : ALL
Info:         ERROR TOLERANCE : 1e-08
Info:          MAX ITERATIONS : 100
Info: RIGID WATER USING SETTLE ALGORITHM
Info: RANDOM NUMBER SEED     1743683368
Info: USE HYDROGEN BONDS?    NO
Info: Using AMBER format force field!
Info: AMBER PARM FILE        mobley_7758918.prmtop
Info: COORDINATE PDB         mobley_7758918.pdb
Info: Exclusions will be read from PARM file!
Info: SCNB (VDW SCALING)     2
Info: USING ARITHMETIC MEAN TO COMBINE L-J SIGMA PARAMETERS
Info: BINARY COORDINATES     mobley_7758918_equil.coor
Info: SUMMARY OF PARAMETERS:
Info: 8 BONDS
Info: 8 ANGLES
Info:   8 HARMONIC
Info:   0 COSINE-BASED
Info: 9 DIHEDRAL
Info: 0 IMPROPER
Info: 0 CROSSTERM
Info: 0 VDW
Info: 28 VDW_PAIRS
Info: 0 NBTHOLE_PAIRS
Info: To read alchdata from file: mobley_7758918.pdb
Info: To read alchflag data from column: 5
Info: STRUCTURE SUMMARY:
Info: 2969 ATOMS
Info: 2968 BONDS
Info: 16 ANGLES
Info: 23 DIHEDRALS
Info: 0 IMPROPERS
Info: 0 CROSSTERMS
Info: 3001 EXCLUSIONS
Info: 2964 RIGID BONDS
Info: ALCH: 0 ATOMS TO DISAPPEAR IN FINAL STATE
Info: ALCH: 11 ATOMS TO APPEAR IN FINAL STATE
Info: 5943 DEGREES OF FREEDOM
Info: 991 HYDROGEN GROUPS
Info: 4 ATOMS IN LARGEST HYDROGEN GROUP
Info: 991 MIGRATION GROUPS
Info: 4 ATOMS IN LARGEST MIGRATION GROUP
Info: TOTAL MASS = 17837.9 amu
Info: TOTAL CHARGE = 4.09782e-08 e
Info: MASS DENSITY = 0.969465 g/cm^3
Info: ATOM DENSITY = 0.0971719 atoms/A^3
Info: ADDED 0 IMPLICIT EXCLUSIONS
Info: NONBONDED TABLE R-SQUARED SPACING: 0.0625
Info: NONBONDED TABLE SIZE: 705 POINTS
Info: REMOVING COM VELOCITY 0.10043 -0.0677586 0.212947
Info: Use 3D box decompostion in PME FFT.
Info: Updated CUDA force table with 4096 elements.
Info: Updated CUDA LJ table with 7 x 7 elements.
Info: Found 14 unique exclusion lists needing 24 bytes
TCL: Running for 1500000 steps
ETITLE: TS BOND ANGLE DIHED IMPRP ELECT VDW BOUNDARY MISC KINETIC TOTAL TEMP POTENTIAL TOTALAVG TEMPAVG PRESSURE GPRESSURE VOLUME PRESSAVG GPRESSAVG
ENERGY: 0 0.8528 4.2504 2.9565 0.0000 -10825.0964 1411.3662 0.0000 0.0000 1781.0470 -7624.6234 301.6199 -9405.6705 -7624.6234 301.6199 -332.5723 -257.2927 30554.1080 -332.5723 -257.2927
ENERGY: 300000 0.4770 2.2672 0.9187 0.0000 -10797.5375 1407.2782 0.0000 0.0000 1741.5901 -7645.0062 294.9379 -9386.5964 -7609.8393 297.9334 -705.0794 -678.1814 31120.0861 -251.5369 -193.2773
ENERGY: 600000 1.8453 3.0654 0.9486 0.0000 -10729.1174 1377.0202 0.0000 0.0000 1806.8427 -7539.3953 305.9884 -9346.2380 -7596.8976 300.3863 -457.4094 -400.6689 30481.7524 -260.6160 -189.5235
ENERGY: 900000 0.5894 3.9561 1.9250 0.0000 -10726.8325 1409.9204 0.0000 0.0000 1777.6407 -7532.8010 301.0431 -9310.4417 -7599.9144 300.1579 27.4632 113.8854 30374.2746 -219.5567 -151.6649
ENERGY: 1200000 0.3384 2.8164 1.8471 0.0000 -10736.6503 1442.3727 0.0000 0.0000 1778.4904 -7510.7853 301.1870 -9289.2756 -7590.4975 300.3112 154.5042 168.5744 30607.8883 -85.5484 -22.7138
ENERGY: 1500000 2.4917 3.6663 2.0669 0.0000 -10733.8349 1368.4191 0.0000 0.0000 1764.0298 -7593.1610 298.7381 -9357.1908 -7587.2908 300.1900 -538.9546 -525.3753 30632.0046 -131.9889 -72.1033
TCL: Running FEP window   2: Lambda1 0.95   Lambda2 0.8999999999999999 [dLambda -0.050000000000000044]
TCL: Setting parameter firsttimestep to 0
TCL: Setting parameter alchLambda to 0.95
Info: NONBONDED TABLE R-SQUARED SPACING: 0.0625
Info: NONBONDED TABLE SIZE: 705 POINTS
TCL: Setting parameter alchLambda2 to 0.8999999999999999
Info: NONBONDED TABLE R-SQUARED SPACING: 0.0625
Info: NONBONDED TABLE SIZE: 705 POINTS
TCL: Running for 1500000 steps
ETITLE: TS BOND ANGLE DIHED IMPRP ELECT VDW BOUNDARY MISC KINETIC TOTAL TEMP POTENTIAL TOTALAVG TEMPAVG PRESSURE GPRESSURE VOLUME PRESSAVG GPRESSAVG
ENERGY: 0 2.4917 3.6663 2.0669 0.0000 -10730.5003 1366.1105 0.0000 0.0000 1763.1584 -7593.0064 298.5905 -9356.1649 -7593.0064 298.5905 -639.9232 -552.4040 30632.0046 -639.9232 -552.4040
ENERGY: 300000 0.6849 1.8886 1.1656 0.0000 -10784.9743 1422.4907 0.0000 0.0000 1758.1118 -7600.6328 297.7359 -9358.7445 -7595.3160 298.8847 -183.5199 -71.4669 30417.0530 -86.1592 -21.0631
ENERGY: 600000 1.2427 4.2113 2.8453 0.0000 -10897.0968 1445.6040 0.0000 0.0000 1796.3766 -7646.8170 304.2160 -9443.1936 -7595.3616 300.9454 -107.9591 -54.6622 30173.0030 -180.2239 -128.7512
ENERGY: 900000 1.3512 4.1159 3.7828 0.0000 -10768.6665 1451.0466 0.0000 0.0000 1811.8715 -7496.4984 306.8401 -9308.3700 -7582.8150 301.0833 219.7847 273.7554 30573.8956 -73.6386 -23.8261
ENERGY: 1200000 0.5509 4.0779 1.9427 0.0000 -10836.3713 1452.4851 0.0000 0.0000 1765.6688 -7611.6460 299.0156 -9377.3147 -7584.2287 300.6774 -124.9348 -75.8838 30742.1397 -68.6251 -25.6073
ENERGY: 1500000 1.2851 2.8382 1.1762 0.0000 -10745.3969 1333.5389 0.0000 0.0000 1758.3059 -7648.2527 297.7687 -9406.5586 -7588.8940 300.8510 -948.2813 -918.5560 30582.4623 -147.8652 -104.1649
TCL: Running FEP window   3: Lambda1 0.8999999999999999 Lambda2 0.8499999999999999 [dLambda -0.050000000000000044]
TCL: Setting parameter firsttimestep to 0
TCL: Setting parameter alchLambda to 0.8999999999999999
Info: NONBONDED TABLE R-SQUARED SPACING: 0.0625
Info: NONBONDED TABLE SIZE: 705 POINTS
TCL: Setting parameter alchLambda2 to 0.8499999999999999
Info: NONBONDED TABLE R-SQUARED SPACING: 0.0625
Info: NONBONDED TABLE SIZE: 705 POINTS
TCL: Running for 1500000 steps
ETITLE: TS BOND ANGLE DIHED IMPRP ELECT VDW BOUNDARY MISC KINETIC TOTAL TEMP POTENTIAL TOTALAVG TEMPAVG PRESSURE GPRESSURE VOLUME PRESSAVG GPRESSAVG
ENERGY: 0 1.2851 2.8382 1.1762 0.0000 -10742.9014 1332.3523 0.0000 0.0000 1757.4297 -7647.8199 297.6203 -9405.2496 -7647.8199 297.6203 -1020.0920 -936.2266 30582.4623 -1020.0920 -936.2266
ENERGY: 300000 1.6874 4.8822 2.5361 0.0000 -10768.6368 1439.6402 0.0000 0.0000 1803.1158 -7516.7751 305.3573 -9319.8909 -7590.1439 302.3745 -257.5832 -168.7943 30742.7585 -215.0054 -136.6044
ENERGY: 600000 0.2241 4.1361 2.6759 0.0000 -10995.4948 1547.5961 0.0000 0.0000 1783.8499 -7657.0126 302.0946 -9440.8625 -7576.9916 302.4172 593.2066 611.9296 30385.0293 -5.7555 56.2486
ENERGY: 900000 1.4386 3.8217 4.9649 0.0000 -10884.5988 1474.0030 0.0000 0.0000 1799.8822 -7600.4884 304.8097 -9400.3706 -7573.4600 302.9190 242.0283 296.6600 30280.7169 -79.3250 -1.5526
ENERGY: 1200000 0.8455 4.8715 1.2466 0.0000 -10791.8617 1454.1637 0.0000 0.0000 1802.8332 -7527.9012 305.3094 -9330.7344 -7561.4834 302.9774 -127.6799 -127.0843 31320.8421 -101.7807 -24.0128
ENERGY: 1500000 1.5358 6.0125 1.6204 0.0000 -10681.0613 1362.9832 0.0000 0.0000 1808.0945 -7500.8148 306.2004 -9308.9093 -7559.6421 302.5701 -505.9762 -477.4758 30892.5811 -173.3800 -101.1410
TCL: Running FEP window   4: Lambda1 0.8499999999999999 Lambda2 0.7999999999999998 [dLambda -0.050000000000000044]
TCL: Setting parameter firsttimestep to 0
TCL: Setting parameter alchLambda to 0.8499999999999999
Info: NONBONDED TABLE R-SQUARED SPACING: 0.0625
Info: NONBONDED TABLE SIZE: 705 POINTS
TCL: Setting parameter alchLambda2 to 0.7999999999999998
Info: NONBONDED TABLE R-SQUARED SPACING: 0.0625
Info: NONBONDED TABLE SIZE: 705 POINTS
TCL: Running for 1500000 steps
ETITLE: TS BOND ANGLE DIHED IMPRP ELECT VDW BOUNDARY MISC KINETIC TOTAL TEMP POTENTIAL TOTALAVG TEMPAVG PRESSURE GPRESSURE VOLUME PRESSAVG GPRESSAVG
ENERGY: 0 1.5358 6.0125 1.6204 0.0000 -10679.1723 1362.5668 0.0000 0.0000 1807.2425 -7500.1942 306.0561 -9307.4367 -7500.1942 306.0561 -565.8323 -488.8970 30892.5811 -565.8323 -488.8970
ENERGY: 300000 0.5989 2.1891 3.0968 0.0000 -10733.5261 1359.3599 0.0000 0.0000 1792.9319 -7575.3494 303.6326 -9368.2814 -7585.6068 297.5678 -650.3617 -608.6493 30420.2522 -201.2814 -125.9330
ENERGY: 600000 1.9223 3.5218 3.4057 0.0000 -10840.8294 1482.5149 0.0000 0.0000 1793.0768 -7556.3879 303.6572 -9349.4647 -7580.4993 299.1309 302.1961 376.7866 30475.1712 -174.9148 -102.5724
ENERGY: 900000 0.8578 4.0942 0.9610 0.0000 -10812.1585 1400.5894 0.0000 0.0000 1745.5499 -7660.1063 295.6085 -9405.6561 -7587.1558 299.2120 -250.6170 -189.3742 30125.1509 -161.4130 -95.2174
ENERGY: 1200000 2.5168 4.4604 1.5702 0.0000 -10821.7784 1438.7933 0.0000 0.0000 1764.2517 -7610.1859 298.7757 -9374.4376 -7583.7209 299.7267 -110.5949 -18.2154 30384.3612 -101.7169 -29.7341
ENERGY: 1500000 2.9169 6.1299 2.2300 0.0000 -10910.2235 1485.6818 0.0000 0.0000 1735.0794 -7678.1854 293.8353 -9413.2648 -7592.0606 298.8218 -161.3085 -19.3230 30556.5371 -110.5515 -36.2176
TCL: Running FEP window   5: Lambda1 0.7999999999999998 Lambda2 0.7499999999999998 [dLambda -0.050000000000000044]
TCL: Setting parameter firsttimestep to 0
TCL: Setting parameter alchLambda to 0.7999999999999998
Info: NONBONDED TABLE R-SQUARED SPACING: 0.0625
Info: NONBONDED TABLE SIZE: 705 POINTS
TCL: Setting parameter alchLambda2 to 0.7499999999999998
Info: NONBONDED TABLE R-SQUARED SPACING: 0.0625
Info: NONBONDED TABLE SIZE: 705 POINTS
TCL: Running for 1500000 steps
ETITLE: TS BOND ANGLE DIHED IMPRP ELECT VDW BOUNDARY MISC KINETIC TOTAL TEMP POTENTIAL TOTALAVG TEMPAVG PRESSURE GPRESSURE VOLUME PRESSAVG GPRESSAVG
ENERGY: 0 2.9169 6.1299 2.2300 0.0000 -10907.0615 1484.2807 0.0000 0.0000 1734.1713 -7677.3325 293.6815 -9411.5038 -7677.3325 293.6815 -134.6625 -37.7430 30556.5371 -134.6625 -37.7430
ENERGY: 300000 0.5488 7.1893 0.9979 0.0000 -10833.1621 1459.3866 0.0000 0.0000 1793.8925 -7571.1471 303.7953 -9365.0396 -7590.2090 298.2542 252.2740 270.2137 30267.8929 -221.7143 -155.4984
ENERGY: 600000 0.6044 1.9202 2.5503 0.0000 -10877.4078 1506.4665 0.0000 0.0000 1814.3530 -7551.5134 307.2603 -9365.8664 -7575.2412 301.7694 218.6540 321.9617 30931.7249 -285.2680 -211.6419
ENERGY: 900000 0.2511 0.9728 1.4421 0.0000 -10812.2367 1473.4958 0.0000 0.0000 1750.3534 -7585.7215 296.4220 -9336.0749 -7577.2822 302.0525 -26.6007 32.6613 31072.7031 -285.8053 -220.2053
ENERGY: 1200000 0.8519 5.1957 3.5806 0.0000 -10967.9155 1555.1482 0.0000 0.0000 1717.7610 -7685.3781 290.9025 -9403.1391 -7583.2542 301.5598 748.7063 856.4467 30357.5595 -158.2434 -92.3263
ENERGY: 1500000 2.7504 7.3192 2.3495 0.0000 -10647.6496 1406.5891 0.0000 0.0000 1796.4244 -7432.2171 304.2241 -9228.6415 -7567.1422 302.5138 103.0960 134.4733 30551.6528 -162.5288 -92.4830
TCL: Running FEP window   6: Lambda1 0.7499999999999998 Lambda2 0.6999999999999997 [dLambda -0.050000000000000044]
TCL: Setting parameter firsttimestep to 0
TCL: Setting parameter alchLambda to 0.7499999999999998
Info: NONBONDED TABLE R-SQUARED SPACING: 0.0625
Info: NONBONDED TABLE SIZE: 705 POINTS
TCL: Setting parameter alchLambda2 to 0.6999999999999997
Info: NONBONDED TABLE R-SQUARED SPACING: 0.0625
Info: NONBONDED TABLE SIZE: 705 POINTS
TCL: Running for 1500000 steps
ETITLE: TS BOND ANGLE DIHED IMPRP ELECT VDW BOUNDARY MISC KINETIC TOTAL TEMP POTENTIAL TOTALAVG TEMPAVG PRESSURE GPRESSURE VOLUME PRESSAVG GPRESSAVG
ENERGY: 0 2.7504 7.3192 2.3495 0.0000 -10644.3170 1405.6004 0.0000 0.0000 1795.5537 -7430.7439 304.0766 -9226.2976 -7430.7439 304.0766 41.7613 124.5956 30551.6528 41.7613 124.5956
ENERGY: 300000 2.3417 2.1734 1.0032 0.0000 -10835.9618 1486.9998 0.0000 0.0000 1804.4425 -7539.0010 305.5820 -9343.4436 -7530.6870 300.3153 640.1150 674.7705 30127.7078 419.0843 485.3213
ENERGY: 600000 0.7398 5.3607 3.7864 0.0000 -10855.2586 1522.4828 0.0000 0.0000 1789.6677 -7533.2212 303.0798 -9322.8889 -7543.3789 302.7138 482.4366 543.2686 30761.4690 402.1829 467.0725
ENERGY: 900000 0.1335 6.7349 2.9463 0.0000 -10729.3847 1419.3896 0.0000 0.0000 1777.2721 -7522.9082 300.9807 -9300.1804 -7540.6869 302.5003 -133.6191 -108.6652 30843.8445 247.7905 300.0578
ENERGY: 1200000 0.5328 5.1744 3.4231 0.0000 -10961.5419 1506.6952 0.0000 0.0000 1743.9354 -7701.7809 295.3351 -9445.7163 -7552.3435 301.9012 295.1467 388.8260 30035.8762 238.9177 295.2613
ENERGY: 1500000 1.5629 3.9848 1.0447 0.0000 -10747.9939 1437.9132 0.0000 0.0000 1735.7111 -7567.7771 293.9423 -9303.4882 -7560.8499 301.9723 146.3550 190.4890 30457.7565 179.0049 230.2361
TCL: Running FEP window   7: Lambda1 0.6999999999999997 Lambda2 0.6499999999999997 [dLambda -0.050000000000000044]
TCL: Setting parameter firsttimestep to 0
TCL: Setting parameter alchLambda to 0.6999999999999997
Info: NONBONDED TABLE R-SQUARED SPACING: 0.0625
Info: NONBONDED TABLE SIZE: 705 POINTS
TCL: Setting parameter alchLambda2 to 0.6499999999999997
Info: NONBONDED TABLE R-SQUARED SPACING: 0.0625
Info: NONBONDED TABLE SIZE: 705 POINTS
TCL: Running for 1500000 steps
ETITLE: TS BOND ANGLE DIHED IMPRP ELECT VDW BOUNDARY MISC KINETIC TOTAL TEMP POTENTIAL TOTALAVG TEMPAVG PRESSURE GPRESSURE VOLUME PRESSAVG GPRESSAVG
ENERGY: 0 1.5629 3.9848 1.0447 0.0000 -10746.5249 1437.0184 0.0000 0.0000 1734.8012 -7568.1128 293.7882 -9302.9141 -7568.1128 293.7882 96.6521 179.7965 30457.7565 96.6521 179.7965
ENERGY: 300000 0.8457 5.3786 1.9719 0.0000 -10700.9571 1343.6717 0.0000 0.0000 1767.2469 -7581.8424 299.2829 -9349.0893 -7571.1415 298.1215 -657.0578 -652.5761 30267.9360 -61.6351 -10.1466
ENERGY: 600000 0.4011 3.0490 3.4869 0.0000 -10784.8830 1416.8146 0.0000 0.0000 1736.8083 -7624.3231 294.1281 -9361.1314 -7600.1253 297.1550 -433.7937 -369.6486 30539.0279 -276.4919 -209.2374
ENERGY: 900000 1.3743 4.8468 3.6828 0.0000 -10839.9660 1436.7087 0.0000 0.0000 1747.2005 -7646.1529 295.8880 -9393.3534 -7606.1007 297.3976 -417.3290 -346.2296 30835.0646 -186.7669 -120.5898
ENERGY: 1200000 1.7269 4.4388 2.7118 0.0000 -10793.2091 1396.6077 0.0000 0.0000 1821.7612 -7565.9627 308.5149 -9387.7239 -7596.2706 298.4785 -518.2974 -428.9898 30325.1975 -219.7701 -156.8185
ENERGY: 1500000 0.5744 2.8111 2.9349 0.0000 -10724.7329 1400.6985 0.0000 0.0000 1846.7320 -7470.9820 312.7437 -9317.7139 -7593.6610 299.8394 -381.6618 -292.4808 30727.5181 -200.3762 -139.2524
TCL: Running FEP window   8: Lambda1 0.6499999999999997 Lambda2 0.5999999999999996 [dLambda -0.050000000000000044]
TCL: Setting parameter firsttimestep to 0
TCL: Setting parameter alchLambda to 0.6499999999999997
Info: NONBONDED TABLE R-SQUARED SPACING: 0.0625
Info: NONBONDED TABLE SIZE: 705 POINTS
TCL: Setting parameter alchLambda2 to 0.5999999999999996
Info: NONBONDED TABLE R-SQUARED SPACING: 0.0625
Info: NONBONDED TABLE SIZE: 705 POINTS
TCL: Running for 1500000 steps
ETITLE: TS BOND ANGLE DIHED IMPRP ELECT VDW BOUNDARY MISC KINETIC TOTAL TEMP POTENTIAL TOTALAVG TEMPAVG PRESSURE GPRESSURE VOLUME PRESSAVG GPRESSAVG
ENERGY: 0 0.5744 2.8111 2.9349 0.0000 -10722.4101 1399.6479 0.0000 0.0000 1845.8417 -7470.6000 312.5929 -9316.4418 -7470.6000 312.5929 -389.9050 -301.7551 30727.5181 -389.9050 -301.7551
ENERGY: 300000 0.7655 2.4940 1.7476 0.0000 -10868.5744 1439.6310 0.0000 0.0000 1796.3253 -7627.6111 304.2073 -9423.9364 -7561.1087 304.9294 -394.8953 -323.0352 30757.2746 -102.0846 -25.4891
ENERGY: 600000 0.5682 5.2961 2.6890 0.0000 -10785.5665 1445.0777 0.0000 0.0000 1686.6627 -7645.2728 285.6360 -9331.9356 -7602.6360 300.1314 -284.6746 -216.6325 30907.5039 -140.0234 -59.4697
ENERGY: 900000 1.2977 3.6189 1.1911 0.0000 -10698.2556 1368.5868 0.0000 0.0000 1800.4703 -7523.0907 304.9093 -9323.5611 -7589.2086 299.2772 -578.9492 -453.3453 30809.4352 -314.8799 -225.0676
ENERGY: 1200000 0.7509 3.4882 2.9645 0.0000 -10890.5793 1451.5628 0.0000 0.0000 1700.6530 -7731.1599 288.0052 -9431.8130 -7603.8302 299.0031 -288.5203 -300.1853 30566.8673 -267.0830 -190.6728
ENERGY: 1500000 1.3657 3.4501 1.0662 0.0000 -10667.9772 1430.2911 0.0000 0.0000 1779.6467 -7452.1574 301.3828 -9231.8041 -7582.5186 300.1071 34.4475 118.9640 30664.1583 -207.5770 -128.0582
TCL: Running FEP window   9: Lambda1 0.5999999999999996 Lambda2 0.5499999999999996 [dLambda -0.050000000000000044]
TCL: Setting parameter firsttimestep to 0
TCL: Setting parameter alchLambda to 0.5999999999999996
Info: NONBONDED TABLE R-SQUARED SPACING: 0.0625
Info: NONBONDED TABLE SIZE: 705 POINTS
TCL: Setting parameter alchLambda2 to 0.5499999999999996
Info: NONBONDED TABLE R-SQUARED SPACING: 0.0625
Info: NONBONDED TABLE SIZE: 705 POINTS
TCL: Running for 1500000 steps
ETITLE: TS BOND ANGLE DIHED IMPRP ELECT VDW BOUNDARY MISC KINETIC TOTAL TEMP POTENTIAL TOTALAVG TEMPAVG PRESSURE GPRESSURE VOLUME PRESSAVG GPRESSAVG
ENERGY: 0 1.3657 3.4501 1.0662 0.0000 -10667.0332 1430.1282 0.0000 0.0000 1778.7328 -7452.2901 301.2280 -9231.0229 -7452.2901 301.2280 24.4062 114.0823 30664.1583 24.4062 114.0823
ENERGY: 300000 0.4135 4.7984 3.2688 0.0000 -10829.7511 1437.5518 0.0000 0.0000 1754.6324 -7629.0861 297.1466 -9383.7185 -7539.2217 300.1202 -355.4985 -267.4108 30902.0003 -227.6507 -166.6781
ENERGY: 600000 2.0097 5.2194 1.9963 0.0000 -10908.8326 1536.9822 0.0000 0.0000 1744.3162 -7618.3088 295.3996 -9362.6250 -7564.6812 298.9491 476.6830 499.4311 30764.5109 -98.0302 -34.6025
ENERGY: 900000 1.1358 4.6341 2.7618 0.0000 -10704.6637 1399.2486 0.0000 0.0000 1734.7179 -7562.1654 293.7741 -9296.8833 -7569.6608 299.0132 -391.9647 -271.8490 30638.8609 -178.4371 -111.9522
ENERGY: 1200000 0.0403 4.3397 1.5428 0.0000 -10736.5072 1425.0595 0.0000 0.0000 1732.6636 -7572.8614 293.4262 -9305.5250 -7576.6171 298.4899 -210.2260 -169.0477 30851.3328 -73.8989 -14.8101
ENERGY: 1500000 3.2166 2.3190 2.2969 0.0000 -10754.5110 1420.3450 0.0000 0.0000 1772.5316 -7553.8019 300.1779 -9326.3335 -7577.5362 298.5930 -306.8109 -261.8781 30561.1641 -147.5351 -91.0919
TCL: Running FEP window  10: Lambda1 0.5499999999999996 Lambda2 0.4999999999999996 [dLambda -0.04999999999999999]
TCL: Setting parameter firsttimestep to 0
TCL: Setting parameter alchLambda to 0.5499999999999996
Info: NONBONDED TABLE R-SQUARED SPACING: 0.0625
Info: NONBONDED TABLE SIZE: 705 POINTS
TCL: Setting parameter alchLambda2 to 0.4999999999999996
Info: NONBONDED TABLE R-SQUARED SPACING: 0.0625
Info: NONBONDED TABLE SIZE: 705 POINTS
TCL: Running for 1500000 steps
ETITLE: TS BOND ANGLE DIHED IMPRP ELECT VDW BOUNDARY MISC KINETIC TOTAL TEMP POTENTIAL TOTALAVG TEMPAVG PRESSURE GPRESSURE VOLUME PRESSAVG GPRESSAVG
ENERGY: 0 3.2166 2.3190 2.2969 0.0000 -10753.7453 1420.2618 0.0000 0.0000 1771.6380 -7554.0131 300.0265 -9325.6510 -7554.0131 300.0265 -352.2280 -264.0079 30561.1641 -352.2280 -264.0079
ENERGY: 300000 2.0356 3.7340 3.8768 0.0000 -10826.9755 1498.5599 0.0000 0.0000 1823.1317 -7495.6376 308.7470 -9318.7693 -7553.5010 304.2922 701.5660 721.7273 30274.9294 -166.2309 -103.8770
ENERGY: 600000 1.7035 1.4470 3.4335 0.0000 -10796.4031 1439.6508 0.0000 0.0000 1744.2676 -7605.9006 295.3913 -9350.1682 -7559.0862 302.9268 -29.0760 19.5958 30121.4958 -227.1981 -158.8957
ENERGY: 900000 0.3523 8.3208 2.0775 0.0000 -10911.6071 1575.5421 0.0000 0.0000 1797.7129 -7527.6016 304.4423 -9325.3145 -7557.8548 302.3629 871.8865 938.1299 30869.5824 -78.1808 -19.8478
ENERGY: 1200000 0.3063 4.3733 3.3759 0.0000 -10830.4896 1412.7846 0.0000 0.0000 1757.3736 -7652.2759 297.6108 -9409.6495 -7567.9290 300.8933 -636.6088 -559.8697 30511.3002 -13.6119 46.9787
ENERGY: 1500000 1.3320 7.4885 2.5777 0.0000 -10989.6345 1541.9816 0.0000 0.0000 1746.5745 -7689.6801 295.7820 -9436.2547 -7577.1691 300.4194 280.4973 334.0403 30893.5121 -15.0007 43.0871
TCL: Running FEP window  11: Lambda1 0.4999999999999996 Lambda2 0.4499999999999996 [dLambda -0.04999999999999999]
TCL: Setting parameter firsttimestep to 0
TCL: Setting parameter alchLambda to 0.4999999999999996
Info: NONBONDED TABLE R-SQUARED SPACING: 0.0625
Info: NONBONDED TABLE SIZE: 705 POINTS
TCL: Setting parameter alchLambda2 to 0.4499999999999996
Info: NONBONDED TABLE R-SQUARED SPACING: 0.0625
Info: NONBONDED TABLE SIZE: 705 POINTS
TCL: Running for 1500000 steps
ETITLE: TS BOND ANGLE DIHED IMPRP ELECT VDW BOUNDARY MISC KINETIC TOTAL TEMP POTENTIAL TOTALAVG TEMPAVG PRESSURE GPRESSURE VOLUME PRESSAVG GPRESSAVG
ENERGY: 0 1.3320 7.4885 2.5777 0.0000 -10989.7384 1542.1577 0.0000 0.0000 1745.7389 -7690.4436 295.6405 -9436.1825 -7690.4436 295.6405 262.4191 330.6937 30893.5121 262.4191 330.6937
ENERGY: 300000 1.6209 5.7174 1.6408 0.0000 -10828.7332 1432.8332 0.0000 0.0000 1779.0539 -7607.8670 301.2824 -9386.9209 -7579.0288 301.0864 -236.1827 -141.9419 30414.1516 192.9393 283.6867
ENERGY: 600000 1.6929 8.5400 1.7741 0.0000 -10763.0320 1473.0237 0.0000 0.0000 1818.5809 -7459.4204 307.9763 -9278.0013 -7554.6619 301.0917 321.9992 395.7374 30777.8041 231.3437 302.1413
ENERGY: 900000 1.8309 3.1178 1.9892 0.0000 -10782.0974 1420.3924 0.0000 0.0000 1793.9432 -7560.8238 303.8039 -9354.7671 -7573.5874 301.9767 -302.1525 -263.1861 30638.4432 280.5338 344.4481
ENERGY: 1200000 1.2481 3.8045 1.1517 0.0000 -10847.0024 1453.0999 0.0000 0.0000 1733.2164 -7654.4818 293.5198 -9387.6983 -7582.2951 300.3707 -126.8427 -59.0522 30375.9628 91.5803 165.5618
ENERGY: 1500000 3.4637 3.9796 2.7728 0.0000 -10842.6730 1503.3117 0.0000 0.0000 1779.8557 -7549.2895 301.4182 -9329.1452 -7575.3751 300.9842 163.3167 224.8041 30946.4863 181.7117 255.3979
TCL: Running FEP window  12: Lambda1 0.4499999999999996 Lambda2 0.39999999999999963 [dLambda -0.04999999999999999]
TCL: Setting parameter firsttimestep to 0
TCL: Setting parameter alchLambda to 0.4499999999999996
Info: NONBONDED TABLE R-SQUARED SPACING: 0.0625
Info: NONBONDED TABLE SIZE: 705 POINTS
TCL: Setting parameter alchLambda2 to 0.39999999999999963
Info: NONBONDED TABLE R-SQUARED SPACING: 0.0625
Info: NONBONDED TABLE SIZE: 705 POINTS
TCL: Running for 1500000 steps
ETITLE: TS BOND ANGLE DIHED IMPRP ELECT VDW BOUNDARY MISC KINETIC TOTAL TEMP POTENTIAL TOTALAVG TEMPAVG PRESSURE GPRESSURE VOLUME PRESSAVG GPRESSAVG
ENERGY: 0 3.4637 3.9796 2.7728 0.0000 -10842.6738 1503.2003 0.0000 0.0000 1779.0006 -7550.2569 301.2734 -9329.2575 -7550.2569 301.2734 143.2933 221.5716 30946.4863 143.2933 221.5716
ENERGY: 300000 0.1017 2.7511 1.1330 0.0000 -10800.4589 1458.8512 0.0000 0.0000 1736.4268 -7601.1951 294.0635 -9337.6219 -7568.9217 297.2948 -128.3646 -94.1722 30831.0982 -36.6955 27.0337
ENERGY: 600000 3.9643 4.2251 2.9575 0.0000 -10626.6999 1337.5659 0.0000 0.0000 1774.9576 -7503.0294 300.5887 -9277.9870 -7561.9682 298.3021 -626.0572 -616.2679 30738.9533 -204.5526 -158.6365
ENERGY: 900000 1.2604 2.3217 1.4964 0.0000 -10831.1372 1423.3055 0.0000 0.0000 1741.1587 -7661.5944 294.8649 -9402.7531 -7569.4413 298.2816 -264.0295 -261.1637 30271.5672 -211.3502 -173.4020
ENERGY: 1200000 1.3241 6.6673 3.0180 0.0000 -10792.2801 1425.6619 0.0000 0.0000 1762.4067 -7593.2020 298.4632 -9355.6088 -7564.0365 299.3395 -44.4100 -33.1545 30360.9750 -227.1786 -191.8304
ENERGY: 1500000 0.4948 4.1500 3.2728 0.0000 -10919.2590 1504.5731 0.0000 0.0000 1812.0310 -7594.7374 306.8671 -9406.7685 -7563.6731 299.5281 98.3419 153.9028 30767.2099 -189.2270 -149.7400
TCL: Running FEP window  13: Lambda1 0.39999999999999963 Lambda2 0.34999999999999964 [dLambda -0.04999999999999999]
TCL: Setting parameter firsttimestep to 0
TCL: Setting parameter alchLambda to 0.39999999999999963
Info: NONBONDED TABLE R-SQUARED SPACING: 0.0625
Info: NONBONDED TABLE SIZE: 705 POINTS
TCL: Setting parameter alchLambda2 to 0.34999999999999964
Info: NONBONDED TABLE R-SQUARED SPACING: 0.0625
Info: NONBONDED TABLE SIZE: 705 POINTS
TCL: Running for 1500000 steps
ETITLE: TS BOND ANGLE DIHED IMPRP ELECT VDW BOUNDARY MISC KINETIC TOTAL TEMP POTENTIAL TOTALAVG TEMPAVG PRESSURE GPRESSURE VOLUME PRESSAVG GPRESSAVG
ENERGY: 0 0.4948 4.1500 3.2728 0.0000 -10919.2595 1504.7529 0.0000 0.0000 1811.1492 -7595.4398 306.7177 -9406.5891 -7595.4398 306.7177 57.4060 149.1391 30767.2099 57.4060 149.1391
ENERGY: 300000 0.1212 5.4801 2.7310 0.0000 -10744.6818 1425.1787 0.0000 0.0000 1771.0638 -7540.1070 299.9293 -9311.1708 -7553.0096 301.6266 -168.9445 -56.7751 30582.1299 -94.7097 -31.2234
ENERGY: 600000 0.5611 3.4549 5.3328 0.0000 -10881.7033 1493.2863 0.0000 0.0000 1716.7732 -7662.2950 290.7352 -9379.0682 -7573.4370 299.0828 157.1196 186.3547 30409.0246 -127.4916 -86.2975
ENERGY: 900000 2.4206 4.8989 2.6865 0.0000 -10795.1327 1467.9385 0.0000 0.0000 1757.5174 -7559.6709 297.6352 -9317.1883 -7573.7063 298.4649 220.8817 265.0787 30539.4865 -125.9624 -73.6802
ENERGY: 1200000 2.7288 2.1155 3.4475 0.0000 -10825.9234 1471.5577 0.0000 0.0000 1803.2173 -7542.8566 305.3745 -9346.0739 -7572.8745 298.9942 246.0664 316.6338 30325.9331 -102.8312 -39.3345
ENERGY: 1500000 1.4612 2.0999 2.1100 0.0000 -10866.0859 1496.1875 0.0000 0.0000 1822.7138 -7541.5134 308.6762 -9364.2272 -7579.5414 299.2769 191.7868 299.2565 30500.1947 -26.9592 30.9500
TCL: Running FEP window  14: Lambda1 0.34999999999999964 Lambda2 0.29999999999999966 [dLambda -0.04999999999999999]
TCL: Setting parameter firsttimestep to 0
TCL: Setting parameter alchLambda to 0.34999999999999964
Info: NONBONDED TABLE R-SQUARED SPACING: 0.0625
Info: NONBONDED TABLE SIZE: 705 POINTS
TCL: Setting parameter alchLambda2 to 0.29999999999999966
Info: NONBONDED TABLE R-SQUARED SPACING: 0.0625
Info: NONBONDED TABLE SIZE: 705 POINTS
TCL: Running for 1500000 steps
ETITLE: TS BOND ANGLE DIHED IMPRP ELECT VDW BOUNDARY MISC KINETIC TOTAL TEMP POTENTIAL TOTALAVG TEMPAVG PRESSURE GPRESSURE VOLUME PRESSAVG GPRESSAVG
ENERGY: 0 1.4612 2.0999 2.1100 0.0000 -10866.0867 1495.8913 0.0000 0.0000 1821.8223 -7542.7020 308.5252 -9364.5243 -7542.7020 308.5252 208.0039 293.5570 30500.1947 208.0039 293.5570
ENERGY: 300000 1.1422 4.6103 2.9358 0.0000 -10867.8044 1441.1367 0.0000 0.0000 1800.9757 -7617.0035 304.9949 -9417.9793 -7590.6246 301.8681 -304.6349 -238.2596 30281.4142 -154.5692 -87.4191
ENERGY: 600000 0.7740 6.3493 1.6399 0.0000 -10789.5741 1477.3170 0.0000 0.0000 1761.1543 -7542.3397 298.2511 -9303.4940 -7606.9814 298.5453 296.0220 350.3033 30666.4796 69.8307 130.8745
ENERGY: 900000 0.6006 6.2171 1.4726 0.0000 -10684.4140 1365.1288 0.0000 0.0000 1777.4064 -7533.5886 301.0034 -9310.9950 -7578.6748 300.1086 -694.8471 -716.0978 30853.9659 -57.5430 2.1730
ENERGY: 1200000 0.4433 2.5008 2.1864 0.0000 -10803.6156 1442.3920 0.0000 0.0000 1785.4166 -7570.6766 302.3599 -9356.0932 -7581.0933 299.8487 38.1126 154.7466 30326.3047 -100.4706 -35.9023
ENERGY: 1500000 0.4845 2.5927 1.2393 0.0000 -10840.3968 1419.6602 0.0000 0.0000 1790.9645 -7625.4555 303.2995 -9416.4200 -7578.8374 300.9997 -171.2832 -107.8823 30116.5259 -72.7183 -6.9896
TCL: Running FEP window  15: Lambda1 0.29999999999999966 Lambda2 0.24999999999999967 [dLambda -0.04999999999999999]
TCL: Setting parameter firsttimestep to 0
TCL: Setting parameter alchLambda to 0.29999999999999966
Info: NONBONDED TABLE R-SQUARED SPACING: 0.0625
Info: NONBONDED TABLE SIZE: 705 POINTS
TCL: Setting parameter alchLambda2 to 0.24999999999999967
Info: NONBONDED TABLE R-SQUARED SPACING: 0.0625
Info: NONBONDED TABLE SIZE: 705 POINTS
TCL: Running for 1500000 steps
ETITLE: TS BOND ANGLE DIHED IMPRP ELECT VDW BOUNDARY MISC KINETIC TOTAL TEMP POTENTIAL TOTALAVG TEMPAVG PRESSURE GPRESSURE VOLUME PRESSAVG GPRESSAVG
ENERGY: 0 0.4845 2.5927 1.2393 0.0000 -10840.3968 1419.8342 0.0000 0.0000 1790.0435 -7626.2026 303.1435 -9416.2460 -7626.2026 303.1435 -208.0966 -111.3493 30116.5259 -208.0966 -111.3493
ENERGY: 300000 1.1413 4.2501 1.9230 0.0000 -10815.8241 1486.9845 0.0000 0.0000 1746.3971 -7575.1280 295.7520 -9321.5252 -7554.4090 300.2034 249.0212 348.3781 30500.2771 50.6484 153.1162
ENERGY: 600000 1.2752 4.0844 2.8277 0.0000 -10712.9960 1389.8624 0.0000 0.0000 1758.7339 -7556.2124 297.8412 -9314.9463 -7552.4874 297.9969 -437.6663 -364.3788 30647.4096 -278.8397 -188.5146
ENERGY: 900000 1.8548 5.5696 1.6721 0.0000 -10795.7217 1449.8095 0.0000 0.0000 1788.9682 -7547.8475 302.9614 -9336.8157 -7557.8596 297.2788 -209.3183 -91.0676 30534.0383 -160.5326 -70.1464
ENERGY: 1200000 0.6397 3.9390 4.5650 0.0000 -11009.4686 1564.9356 0.0000 0.0000 1772.8930 -7662.4964 300.2391 -9435.3894 -7559.4243 297.1533 581.8154 635.5910 30533.0286 -191.7163 -103.7742
ENERGY: 1500000 1.4672 6.2330 1.5019 0.0000 -10931.7642 1528.0652 0.0000 0.0000 1805.7406 -7588.7563 305.8018 -9394.4969 -7567.4171 297.6461 445.8705 518.9437 30229.3405 -153.2855 -67.5305
TCL: Running FEP window  16: Lambda1 0.24999999999999967 Lambda2 0.19999999999999968 [dLambda -0.04999999999999999]
TCL: Setting parameter firsttimestep to 0
TCL: Setting parameter alchLambda to 0.24999999999999967
Info: NONBONDED TABLE R-SQUARED SPACING: 0.0625
Info: NONBONDED TABLE SIZE: 705 POINTS
TCL: Setting parameter alchLambda2 to 0.19999999999999968
Info: NONBONDED TABLE R-SQUARED SPACING: 0.0625
Info: NONBONDED TABLE SIZE: 705 POINTS
TCL: Running for 1500000 steps
ETITLE: TS BOND ANGLE DIHED IMPRP ELECT VDW BOUNDARY MISC KINETIC TOTAL TEMP POTENTIAL TOTALAVG TEMPAVG PRESSURE GPRESSURE VOLUME PRESSAVG GPRESSAVG
ENERGY: 0 1.4672 6.2330 1.5019 0.0000 -10931.7629 1527.6715 0.0000 0.0000 1804.8283 -7590.0610 305.6473 -9394.8894 -7590.0610 305.6473 447.4153 514.5993 30229.3405 447.4153 514.5993
ENERGY: 300000 0.8442 5.7864 3.1619 0.0000 -10707.9629 1376.0890 0.0000 0.0000 1822.4030 -7499.6783 308.6236 -9322.0812 -7577.8049 298.6682 -322.6014 -229.1166 30062.8256 -139.3485 -60.2419
ENERGY: 600000 1.6565 5.6425 0.9009 0.0000 -10802.1092 1453.0662 0.0000 0.0000 1758.0111 -7582.8320 297.7188 -9340.8431 -7577.0991 300.5259 3.4891 40.7039 30582.4371 14.9870 78.4326
ENERGY: 900000 0.5356 7.9340 2.1055 0.0000 -10775.3453 1440.2287 0.0000 0.0000 1777.4971 -7547.0444 301.0188 -9324.5416 -7564.0147 301.2487 -150.0274 -107.4067 30858.7400 68.0985 128.4946
ENERGY: 1200000 1.6273 2.9795 4.2980 0.0000 -10735.8822 1408.7938 0.0000 0.0000 1778.7991 -7539.3846 301.2392 -9318.1837 -7552.6779 301.2991 -51.9744 16.6720 30158.0998 15.1772 74.2904
ENERGY: 1500000 1.9413 3.9218 3.7152 0.0000 -10743.9253 1449.3538 0.0000 0.0000 1759.1508 -7525.8424 297.9118 -9284.9932 -7554.6077 300.6127 71.5311 96.0495 30680.5339 -37.2041 20.4649
TCL: Running FEP window  17: Lambda1 0.19999999999999968 Lambda2 0.1499999999999997 [dLambda -0.04999999999999999]
TCL: Setting parameter firsttimestep to 0
TCL: Setting parameter alchLambda to 0.19999999999999968
Info: NONBONDED TABLE R-SQUARED SPACING: 0.0625
Info: NONBONDED TABLE SIZE: 705 POINTS
TCL: Setting parameter alchLambda2 to 0.1499999999999997
Info: NONBONDED TABLE R-SQUARED SPACING: 0.0625
Info: NONBONDED TABLE SIZE: 705 POINTS
TCL: Running for 1500000 steps
ETITLE: TS BOND ANGLE DIHED IMPRP ELECT VDW BOUNDARY MISC KINETIC TOTAL TEMP POTENTIAL TOTALAVG TEMPAVG PRESSURE GPRESSURE VOLUME PRESSAVG GPRESSAVG
ENERGY: 0 1.9414 3.9218 3.7152 0.0000 -10743.9237 1449.3904 0.0000 0.0000 1758.2457 -7526.7093 297.7585 -9284.9550 -7526.7093 297.7585 11.7436 94.3972 30680.5339 11.7436 94.3972
ENERGY: 300000 0.8401 5.2014 4.8351 0.0000 -10839.4024 1475.8505 0.0000 0.0000 1723.2101 -7629.4652 291.8253 -9352.6754 -7520.4800 297.9843 -19.5763 66.9692 30553.1472 -0.4315 77.4607
ENERGY: 600000 3.2647 6.6634 4.3004 0.0000 -10905.8692 1540.7779 0.0000 0.0000 1770.7896 -7580.0732 299.8828 -9350.8627 -7550.1634 298.7372 733.9286 805.8268 30260.7063 235.8949 297.5230
ENERGY: 900000 1.2752 2.3124 2.6983 0.0000 -10605.6488 1370.1519 0.0000 0.0000 1819.0566 -7410.1544 308.0568 -9229.2110 -7539.4890 300.6069 -332.8020 -307.5488 30482.6776 241.4489 294.7318
ENERGY: 1200000 1.9352 3.2724 2.0087 0.0000 -10976.9279 1541.0974 0.0000 0.0000 1785.9166 -7642.6975 302.4446 -9428.6141 -7554.8549 299.2729 413.9304 516.2388 30524.4327 186.1075 244.9786
ENERGY: 1500000 1.3537 6.1472 8.5858 0.0000 -10813.7880 1467.0433 0.0000 0.0000 1806.3443 -7524.3137 305.9040 -9330.6580 -7548.9238 300.0211 97.0457 153.0292 30350.6993 151.7149 207.8880
TCL: Running FEP window  18: Lambda1 0.1499999999999997 Lambda2 0.09999999999999969 [dLambda -0.05 ]
TCL: Setting parameter firsttimestep to 0
TCL: Setting parameter alchLambda to 0.1499999999999997
Info: NONBONDED TABLE R-SQUARED SPACING: 0.0625
Info: NONBONDED TABLE SIZE: 705 POINTS
TCL: Setting parameter alchLambda2 to 0.09999999999999969
Info: NONBONDED TABLE R-SQUARED SPACING: 0.0625
Info: NONBONDED TABLE SIZE: 705 POINTS
TCL: Running for 1500000 steps
ETITLE: TS BOND ANGLE DIHED IMPRP ELECT VDW BOUNDARY MISC KINETIC TOTAL TEMP POTENTIAL TOTALAVG TEMPAVG PRESSURE GPRESSURE VOLUME PRESSAVG GPRESSAVG
ENERGY: 0 1.3537 6.1472 8.5858 0.0000 -10813.7896 1466.1789 0.0000 0.0000 1805.4745 -7526.0496 305.7567 -9331.5240 -7526.0496 305.7567 73.7157 150.8409 30350.6993 73.7157 150.8409
ENERGY: 300000 0.2661 3.3490 3.6804 0.0000 -10717.2862 1448.4660 0.0000 0.0000 1767.1476 -7494.3771 299.2661 -9261.5247 -7564.6515 300.4586 115.2658 201.1510 30624.9310 -65.4471 -32.9209
ENERGY: 600000 0.6017 2.8091 1.2494 0.0000 -11030.7597 1601.1404 0.0000 0.0000 1735.8361 -7689.1230 293.9635 -9424.9591 -7561.4558 301.1540 1039.3314 1087.5614 29914.1122 43.2739 77.9351
ENERGY: 900000 1.8806 3.5597 2.4098 0.0000 -10849.9269 1486.1269 0.0000 0.0000 1784.4810 -7571.4688 302.2015 -9355.9499 -7561.6547 301.2550 53.1158 175.4218 30729.9750 51.2341 104.0976
ENERGY: 1200000 0.8179 2.9450 2.2014 0.0000 -10770.4263 1424.7493 0.0000 0.0000 1782.4006 -7557.3122 301.8492 -9339.7127 -7554.1649 301.2969 -516.3618 -475.9625 30890.4143 -88.7730 -28.0436
ENERGY: 1500000 1.9299 2.5677 6.1431 0.0000 -10889.3894 1546.6042 0.0000 0.0000 1797.6535 -7534.4910 304.4322 -9332.1445 -7553.3519 301.2439 728.0520 771.5004 30586.9048 -41.1321 21.4975
TCL: Running FEP window  19: Lambda1 0.09999999999999969 Lambda2 0.049999999999999684 [dLambda -0.05 ]
TCL: Setting parameter firsttimestep to 0
TCL: Setting parameter alchLambda to 0.09999999999999969
Info: NONBONDED TABLE R-SQUARED SPACING: 0.0625
Info: NONBONDED TABLE SIZE: 705 POINTS
TCL: Setting parameter alchLambda2 to 0.049999999999999684
Info: NONBONDED TABLE R-SQUARED SPACING: 0.0625
Info: NONBONDED TABLE SIZE: 705 POINTS
TCL: Running for 1500000 steps
ETITLE: TS BOND ANGLE DIHED IMPRP ELECT VDW BOUNDARY MISC KINETIC TOTAL TEMP POTENTIAL TOTALAVG TEMPAVG PRESSURE GPRESSURE VOLUME PRESSAVG GPRESSAVG
ENERGY: 0 1.9299 2.5677 6.1431 0.0000 -10889.3872 1546.0586 0.0000 0.0000 1796.7914 -7535.8966 304.2862 -9332.6880 -7535.8966 304.2862 681.0829 769.3952 30586.9048 681.0829 769.3952
ENERGY: 300000 0.7222 5.5281 5.1424 0.0000 -10746.4222 1439.5602 0.0000 0.0000 1822.3782 -7473.0912 308.6194 -9295.4694 -7533.3670 303.2008 283.3146 288.5911 30094.6304 118.9925 174.8935
ENERGY: 600000 2.6940 2.7543 6.5126 0.0000 -10852.0784 1532.7322 0.0000 0.0000 1796.8772 -7510.5082 304.3008 -9307.3853 -7528.7277 302.7951 692.5901 758.9003 30340.8745 103.5976 171.3257
ENERGY: 900000 2.8263 9.1021 5.8256 0.0000 -10761.1728 1391.3621 0.0000 0.0000 1813.8898 -7538.1669 307.1819 -9352.0567 -7543.0794 302.0805 -503.2022 -356.7536 30460.0363 -3.5498 67.3661
ENERGY: 1200000 2.8165 7.6810 8.0376 0.0000 -10827.4368 1425.0061 0.0000 0.0000 1761.8236 -7622.0720 298.3645 -9383.8956 -7565.2679 299.8081 -506.3455 -394.3365 30109.8417 -41.4936 31.5402
ENERGY: 1500000 1.1104 5.8005 5.2058 0.0000 -10770.5036 1400.1391 0.0000 0.0000 1707.3330 -7650.9148 289.1365 -9358.2478 -7577.4833 298.4085 -472.5764 -483.8522 30816.5830 -67.0401 -0.3799
TCL: Running FEP window  20: Lambda1 0.049999999999999684 Lambda2 0.0    [dLambda -0.049999999999999684]
TCL: Setting parameter firsttimestep to 0
TCL: Setting parameter alchLambda to 0.049999999999999684
Info: NONBONDED TABLE R-SQUARED SPACING: 0.0625
Info: NONBONDED TABLE SIZE: 705 POINTS
TCL: Setting parameter alchLambda2 to 0.0
Info: NONBONDED TABLE R-SQUARED SPACING: 0.0625
Info: NONBONDED TABLE SIZE: 705 POINTS
TCL: Running for 1500000 steps
ETITLE: TS BOND ANGLE DIHED IMPRP ELECT VDW BOUNDARY MISC KINETIC TOTAL TEMP POTENTIAL TOTALAVG TEMPAVG PRESSURE GPRESSURE VOLUME PRESSAVG GPRESSAVG
ENERGY: 0 1.1104 5.8005 5.2058 0.0000 -10770.5041 1400.0166 0.0000 0.0000 1706.4810 -7651.8898 288.9922 -9358.3708 -7651.8898 288.9922 -563.8702 -490.6619 30816.5830 -563.8702 -490.6619
ENERGY: 300000 0.8268 3.9796 5.5294 0.0000 -10934.3161 1549.3892 0.0000 0.0000 1748.4114 -7626.1795 296.0931 -9374.5910 -7574.3298 298.3016 760.2844 804.0634 30211.3716 -131.9410 -35.5118
ENERGY: 600000 2.6040 7.3980 8.6069 0.0000 -10882.3931 1529.9701 0.0000 0.0000 1751.8917 -7581.9224 296.6825 -9333.8141 -7584.5032 296.9811 509.5628 590.1576 30659.4528 -21.3473 60.1301
ENERGY: 900000 1.3347 4.9381 5.7013 0.0000 -10899.3017 1556.9434 0.0000 0.0000 1701.4643 -7628.9198 288.1426 -9330.3841 -7591.2261 296.3281 940.6457 1066.5596 29883.6233 62.2476 139.9577
ENERGY: 1200000 3.6008 6.5389 5.7528 0.0000 -10861.3335 1533.9677 0.0000 0.0000 1779.7710 -7531.7022 301.4038 -9311.4733 -7575.0272 297.2415 731.9029 765.2160 30699.2966 89.1948 163.3765
ENERGY: 1500000 2.0347 4.5586 5.2762 0.0000 -10794.4279 1464.4841 0.0000 0.0000 1764.1183 -7553.9559 298.7531 -9318.0743 -7580.0390 296.7983 432.6686 473.7271 30051.7282 17.8002 90.8701
TCL: Exiting due to exit command.
