Info: SIMULATION PARAMETERS:
Info: TIMESTEP               2
Info: NUMBER OF STEPS        0
Info: STEPS PER CYCLE        10
Info: PERIODIC CELL BASIS 1  32.7503 0 0
Info: PERIODIC CELL BASIS 2  0 31.5561 0
Info: PERIODIC CELL BASIS 3  0 0 29.8777
Info: PERIODIC CELL CENTER   0 0 0
Info: WRAPPING WATERS AROUND PERIODIC BOUNDARIES ON OUTPUT.
Info: WRAPPING ALL CLUSTERS AROUND PERIODIC BOUNDARIES ON OUTPUT.
Info: FIRST LDB TIMESTEP     50
Info: LAST LDB TIMESTEP     -1
Info: HOM BACKGROUND SCALING 1
Info: PME BACKGROUND SCALING 1
Info: MIN ATOMS PER PATCH    40
Info: EMPTY PATCH LOAD       40 ATOMS
Info: VELOCITY FILE          mobley_2487143_equil.vel
Info: CENTER OF MASS MOVING INITIALLY? NO
Info: DIELECTRIC             1
Info: EXCLUDE                SCALED ONE-FOUR
Info: 1-4 ELECTROSTATICS SCALED BY 0.833333
Info: MODIFIED 1-4 VDW PARAMETERS WILL BE USED
Info: DCD FILENAME           mobley_2487143_prod.dcd
Info: DCD FREQUENCY          100000
Info: DCD FIRST STEP         100000
Info: DCD FILE WILL CONTAIN UNIT CELL DATA
Info: XST FILENAME           mobley_2487143_prod.xst
Info: XST FREQUENCY          100000
Info: NO VELOCITY DCD OUTPUT
Info: NO FORCE DCD OUTPUT
Info: OUTPUT FILENAME        mobley_2487143_prod
Info: BINARY OUTPUT FILES WILL BE USED
Info: RESTART FILENAME       mobley_2487143_prod.restart
Info: RESTART FREQUENCY      100000
Info: BINARY RESTART FILES WILL BE USED
Info: CUTOFF                 9
Info: PAIRLIST DISTANCE      11
Info: PAIRLIST SHRINK RATE   0.01
Info: PAIRLIST GROW RATE     0.01
Info: PAIRLIST TRIGGER       0.3
Info: PAIRLISTS PER CYCLE    2
Info: PAIRLISTS ENABLED
Info: MARGIN                 2
Info: HYDROGEN GROUP CUTOFF  2.5
Info: PATCH DIMENSION        15.5
Info: ENERGY OUTPUT STEPS    100000
Info: ENERGY EVALUATION STEPS    100000
Info: OUTPUT ENERGY PRECISION 4
Info: CROSSTERM ENERGY INCLUDED IN DIHEDRAL
Info: TIMING OUTPUT STEPS    1000000
Info: PRESSURE OUTPUT STEPS  100000
Info: ALCHEMICAL FEP ON
Info: FEP CURRENT LAMBDA VALUE     1
Info: FEP COMPARISON LAMBDA VALUE  0.95
Info: FEP INTRA-ALCHEMICAL NON-BONDED INTERACTIONS WILL BE RETAINED
Info: FEP INTRA-ALCHEMICAL BONDED INTERACTIONS WILL BE RETAINED
Info: FEP VDW SHIFTING COEFFICIENT 5
Info: FEP ELEC. ACTIVE FOR ANNIHILATED PARTICLES BETWEEN LAMBDA = 0 AND LAMBDA = 0.5
Info: FEP ELEC. ACTIVE FOR EXNIHILATED PARTICLES BETWEEN LAMBDA = 0.5 AND LAMBDA = 1
Info: FEP VDW ACTIVE FOR ANNIHILATED PARTICLES BETWEEN LAMBDA = 0 AND LAMBDA = 1
Info: FEP VDW ACTIVE FOR EXNIHILATED PARTICLES BETWEEN LAMBDA = 0 AND LAMBDA = 1
Info: FEP BOND ACTIVE FOR ANNIHILATED PARTICLES BETWEEN LAMBDA = 1 AND LAMBDA = 1
Info: FEP BOND ACTIVE FOR EXNIHILATED PARTICLES BETWEEN LAMBDA = 0 AND LAMBDA = 0
Info: LANGEVIN DYNAMICS ACTIVE
Info: LANGEVIN TEMPERATURE   300
Info: LANGEVIN USING BBK INTEGRATOR
Info: LANGEVIN DAMPING COEFFICIENT IS 1 INVERSE PS
Info: LANGEVIN DYNAMICS APPLIED TO HYDROGENS
Info: LANGEVIN PISTON PRESSURE CONTROL ACTIVE
Info:        TARGET PRESSURE IS 1.01325 BAR
Info:     OSCILLATION PERIOD IS 50 FS
Info:             DECAY TIME IS 25 FS
Info:     PISTON TEMPERATURE IS 300 K
Info:       PRESSURE CONTROL IS GROUP-BASED
Info:    INITIAL STRAIN RATE IS -0.0006499 -0.0006499 -0.0006499
Info:       CELL FLUCTUATION IS ISOTROPIC
Info: PARTICLE MESH EWALD (PME) ACTIVE
Info: PME TOLERANCE               1e-06
Info: PME EWALD COEFFICIENT       0.348832
Info: PME INTERPOLATION ORDER     4
Info: PME GRID DIMENSIONS         36 32 32
Info: PME MAXIMUM GRID SPACING    1
Info: PME CALCULATION WILL BE PERFORMED ON GPU
Info: FULL ELECTROSTATIC EVALUATION FREQUENCY      2
Info: USING VERLET I (r-RESPA) MTS SCHEME.
Info: C1 SPLITTING OF LONG RANGE ELECTROSTATICS
Info: PLACING ATOMS IN PATCHES BY HYDROGEN GROUPS
Info: RIGID BONDS TO HYDROGEN : ALL
Info:         ERROR TOLERANCE : 1e-08
Info:          MAX ITERATIONS : 100
Info: RIGID WATER USING SETTLE ALGORITHM
Info: RANDOM NUMBER SEED     1743924211
Info: USE HYDROGEN BONDS?    NO
Info: Using AMBER format force field!
Info: AMBER PARM FILE        mobley_2487143.prmtop
Info: COORDINATE PDB         mobley_2487143.pdb
Info: Exclusions will be read from PARM file!
Info: SCNB (VDW SCALING)     2
Info: USING ARITHMETIC MEAN TO COMBINE L-J SIGMA PARAMETERS
Info: BINARY COORDINATES     mobley_2487143_equil.coor
Info: SUMMARY OF PARAMETERS:
Info: 6 BONDS
Info: 7 ANGLES
Info:   7 HARMONIC
Info:   0 COSINE-BASED
Info: 11 DIHEDRAL
Info: 0 IMPROPER
Info: 0 CROSSTERM
Info: 0 VDW
Info: 21 VDW_PAIRS
Info: 0 NBTHOLE_PAIRS
Info: To read alchdata from file: mobley_2487143.pdb
Info: To read alchflag data from column: 5
Info: STRUCTURE SUMMARY:
Info: 2983 ATOMS
Info: 2982 BONDS
Info: 33 ANGLES
Info: 52 DIHEDRALS
Info: 0 IMPROPERS
Info: 0 CROSSTERMS
Info: 3054 EXCLUSIONS
Info: 2976 RIGID BONDS
Info: ALCH: 0 ATOMS TO DISAPPEAR IN FINAL STATE
Info: ALCH: 19 ATOMS TO APPEAR IN FINAL STATE
Info: 5973 DEGREES OF FREEDOM
Info: 995 HYDROGEN GROUPS
Info: 4 ATOMS IN LARGEST HYDROGEN GROUP
Info: 995 MIGRATION GROUPS
Info: 4 ATOMS IN LARGEST MIGRATION GROUP
Info: TOTAL MASS = 17900 amu
Info: TOTAL CHARGE = -1.49012e-08 e
Info: MASS DENSITY = 0.962647 g/cm^3
Info: ATOM DENSITY = 0.0966071 atoms/A^3
Info: ADDED 0 IMPLICIT EXCLUSIONS
Info: NONBONDED TABLE R-SQUARED SPACING: 0.0625
Info: NONBONDED TABLE SIZE: 705 POINTS
Info: REDUCING NUMBER OF PATCHES TO IMPROVE LOAD BALANCE
Info: REMOVING COM VELOCITY 0.00868887 -0.177534 0.105421
Info: Use 3D box decompostion in PME FFT.
Info: Updated CUDA force table with 4096 elements.
Info: Updated CUDA LJ table with 6 x 6 elements.
Info: Found 22 unique exclusion lists needing 56 bytes
TCL: Running for 1500000 steps
ETITLE: TS BOND ANGLE DIHED IMPRP ELECT VDW BOUNDARY MISC KINETIC TOTAL TEMP POTENTIAL TOTALAVG TEMPAVG PRESSURE GPRESSURE VOLUME PRESSAVG GPRESSAVG
ENERGY: 0 3.8355 7.2546 6.4717 0.0000 -10790.1720 1425.6215 0.0000 0.0000 1741.2609 -7605.7279 293.4011 -9346.9888 -7605.7279 293.4011 -228.4781 -142.5433 30877.6628 -228.4781 -142.5433
ENERGY: 300000 2.4927 8.9790 4.9879 0.0000 -10929.8707 1560.5680 0.0000 0.0000 1773.8117 -7579.0314 298.8859 -9352.8431 -7603.5887 298.1407 1033.8234 1073.1170 30643.5006 -88.1447 -7.0070
ENERGY: 600000 1.6683 9.6993 5.4128 0.0000 -10673.4634 1360.9731 0.0000 0.0000 1770.5644 -7525.1453 298.3387 -9295.7098 -7578.2829 299.1513 -951.0807 -898.0247 31500.8995 -95.6502 -28.1263
ENERGY: 900000 0.8768 10.2462 6.9165 0.0000 -10910.2859 1472.6007 0.0000 0.0000 1735.2214 -7684.4242 292.3834 -9419.6456 -7587.2486 299.2495 -378.8309 -311.8046 31023.1008 -134.1490 -60.0500
ENERGY: 1200000 2.3241 5.9064 6.0926 0.0000 -10905.5515 1483.3062 0.0000 0.0000 1784.5856 -7623.3366 300.7013 -9407.9222 -7589.6183 300.1703 95.0308 154.9274 30363.4768 -79.7566 -9.3887
ENERGY: 1500000 1.5025 13.0486 4.1603 0.0000 -10733.2034 1435.1388 0.0000 0.0000 1755.0092 -7524.3440 295.7177 -9279.3532 -7576.1777 299.4580 106.7571 175.1200 30699.8942 -40.1783 22.9850
TCL: Running FEP window   2: Lambda1 0.95   Lambda2 0.8999999999999999 [dLambda -0.050000000000000044]
TCL: Setting parameter firsttimestep to 0
TCL: Setting parameter alchLambda to 0.95
Info: NONBONDED TABLE R-SQUARED SPACING: 0.0625
Info: NONBONDED TABLE SIZE: 705 POINTS
TCL: Setting parameter alchLambda2 to 0.8999999999999999
Info: NONBONDED TABLE R-SQUARED SPACING: 0.0625
Info: NONBONDED TABLE SIZE: 705 POINTS
TCL: Running for 1500000 steps
ETITLE: TS BOND ANGLE DIHED IMPRP ELECT VDW BOUNDARY MISC KINETIC TOTAL TEMP POTENTIAL TOTALAVG TEMPAVG PRESSURE GPRESSURE VOLUME PRESSAVG GPRESSAVG
ENERGY: 0 1.5025 13.0486 4.1603 0.0000 -10732.2365 1434.9574 0.0000 0.0000 1754.1136 -7524.4541 295.5668 -9278.5677 -7524.4541 295.5668 87.2519 164.3263 30699.8942 87.2519 164.3263
ENERGY: 300000 0.9281 11.6888 4.5571 0.0000 -10847.7562 1505.6759 0.0000 0.0000 1731.7414 -7593.1650 291.7971 -9324.9064 -7573.0878 300.1750 635.3563 686.0052 30359.5924 59.7056 118.2589
ENERGY: 600000 2.3638 10.8231 7.4369 0.0000 -10853.6165 1468.4084 0.0000 0.0000 1741.0115 -7623.5728 293.3591 -9364.5843 -7591.1398 300.8403 -33.1953 43.2520 30813.9541 8.4869 59.4053
ENERGY: 900000 2.5637 6.0398 8.2880 0.0000 -10942.2979 1526.5532 0.0000 0.0000 1794.3044 -7604.5488 302.3389 -9398.8532 -7591.9284 300.6640 484.0538 507.5064 30442.6803 94.8341 140.2374
ENERGY: 1200000 4.2725 8.3092 6.9983 0.0000 -10900.2057 1434.8030 0.0000 0.0000 1695.9410 -7749.8817 285.7647 -9445.8228 -7603.4625 298.4163 -136.5523 -48.7926 29930.3814 89.3833 136.7906
ENERGY: 1500000 4.2738 8.9037 3.9256 0.0000 -10832.6556 1466.8347 0.0000 0.0000 1746.2343 -7602.4835 294.2391 -9348.7178 -7597.8105 298.4280 167.7462 242.0764 30573.4171 16.9943 68.6913
TCL: Running FEP window   3: Lambda1 0.8999999999999999 Lambda2 0.8499999999999999 [dLambda -0.050000000000000044]
TCL: Setting parameter firsttimestep to 0
TCL: Setting parameter alchLambda to 0.8999999999999999
Info: NONBONDED TABLE R-SQUARED SPACING: 0.0625
Info: NONBONDED TABLE SIZE: 705 POINTS
TCL: Setting parameter alchLambda2 to 0.8499999999999999
Info: NONBONDED TABLE R-SQUARED SPACING: 0.0625
Info: NONBONDED TABLE SIZE: 705 POINTS
TCL: Running for 1500000 steps
ETITLE: TS BOND ANGLE DIHED IMPRP ELECT VDW BOUNDARY MISC KINETIC TOTAL TEMP POTENTIAL TOTALAVG TEMPAVG PRESSURE GPRESSURE VOLUME PRESSAVG GPRESSAVG
ENERGY: 0 4.2738 8.9038 3.9256 0.0000 -10831.3792 1466.2638 0.0000 0.0000 1745.3276 -7602.6846 294.0863 -9348.0122 -7602.6846 294.0863 148.0199 227.1184 30573.4171 148.0199 227.1184
ENERGY: 300000 1.2891 5.8543 4.9477 0.0000 -10829.2320 1468.7150 0.0000 0.0000 1748.1221 -7600.3037 294.5572 -9348.4258 -7595.1677 295.1659 32.9051 62.2971 30496.1011 511.1623 598.0503
ENERGY: 600000 0.8854 7.5046 5.2691 0.0000 -10818.7277 1465.4744 0.0000 0.0000 1761.2440 -7578.3502 296.7682 -9339.5942 -7570.3136 299.2887 122.0534 160.6674 30682.0392 264.7552 333.3948
ENERGY: 900000 0.4216 12.4118 4.5157 0.0000 -10766.9013 1390.1331 0.0000 0.0000 1870.3747 -7489.0445 315.1567 -9359.4192 -7553.8993 302.4807 -358.5905 -312.9453 30644.3717 206.8833 276.3462
ENERGY: 1200000 1.9582 10.5207 6.1819 0.0000 -10812.1258 1490.2373 0.0000 0.0000 1773.0577 -7530.1700 298.7588 -9303.2277 -7546.4728 302.8310 227.9385 329.6244 31215.8598 207.9219 277.1177
ENERGY: 1500000 2.1571 8.9957 7.2518 0.0000 -10798.9872 1420.4055 0.0000 0.0000 1816.9893 -7543.1878 306.1613 -9360.1771 -7550.6103 302.4377 -88.7889 -43.9039 30195.4182 190.7099 253.6241
TCL: Running FEP window   4: Lambda1 0.8499999999999999 Lambda2 0.7999999999999998 [dLambda -0.050000000000000044]
TCL: Setting parameter firsttimestep to 0
TCL: Setting parameter alchLambda to 0.8499999999999999
Info: NONBONDED TABLE R-SQUARED SPACING: 0.0625
Info: NONBONDED TABLE SIZE: 705 POINTS
TCL: Setting parameter alchLambda2 to 0.7999999999999998
Info: NONBONDED TABLE R-SQUARED SPACING: 0.0625
Info: NONBONDED TABLE SIZE: 705 POINTS
TCL: Running for 1500000 steps
ETITLE: TS BOND ANGLE DIHED IMPRP ELECT VDW BOUNDARY MISC KINETIC TOTAL TEMP POTENTIAL TOTALAVG TEMPAVG PRESSURE GPRESSURE VOLUME PRESSAVG GPRESSAVG
ENERGY: 0 2.1571 8.9956 7.2518 0.0000 -10798.1877 1419.8635 0.0000 0.0000 1816.1158 -7543.8039 306.0141 -9359.9196 -7543.8039 306.0141 -136.4747 -60.8764 30195.4182 -136.4747 -60.8764
ENERGY: 300000 2.6040 10.4682 4.6568 0.0000 -10971.4826 1528.4911 0.0000 0.0000 1749.2164 -7676.0460 294.7416 -9425.2624 -7577.2829 299.9316 465.7092 505.1192 30120.6831 255.3153 323.8711
ENERGY: 600000 2.9984 7.5623 5.8586 0.0000 -10814.1182 1439.1526 0.0000 0.0000 1807.5443 -7551.0019 304.5698 -9358.5463 -7578.1927 302.7369 192.6064 259.2474 30130.7904 145.4063 224.9129
ENERGY: 900000 1.8942 10.2986 5.6608 0.0000 -10821.6750 1497.0071 0.0000 0.0000 1834.9766 -7471.8376 309.1921 -9306.8143 -7561.1233 303.4111 620.4856 668.3795 30635.8044 64.4823 136.3562
ENERGY: 1200000 2.1677 8.9358 5.7663 0.0000 -10853.8780 1482.9881 0.0000 0.0000 1807.7738 -7546.2462 304.6084 -9354.0199 -7566.9341 301.7672 -11.5356 135.5102 30697.6567 85.9332 152.8511
ENERGY: 1500000 1.7716 11.7306 5.2426 0.0000 -10809.6257 1433.3347 0.0000 0.0000 1748.9767 -7608.5696 294.7012 -9357.5463 -7556.3464 301.9064 -193.6993 -146.3512 30762.2963 -9.9371 51.6139
TCL: Running FEP window   5: Lambda1 0.7999999999999998 Lambda2 0.7499999999999998 [dLambda -0.050000000000000044]
TCL: Setting parameter firsttimestep to 0
TCL: Setting parameter alchLambda to 0.7999999999999998
Info: NONBONDED TABLE R-SQUARED SPACING: 0.0625
Info: NONBONDED TABLE SIZE: 705 POINTS
TCL: Setting parameter alchLambda2 to 0.7499999999999998
Info: NONBONDED TABLE R-SQUARED SPACING: 0.0625
Info: NONBONDED TABLE SIZE: 705 POINTS
TCL: Running for 1500000 steps
ETITLE: TS BOND ANGLE DIHED IMPRP ELECT VDW BOUNDARY MISC KINETIC TOTAL TEMP POTENTIAL TOTALAVG TEMPAVG PRESSURE GPRESSURE VOLUME PRESSAVG GPRESSAVG
ENERGY: 0 1.7716 11.7306 5.2426 0.0000 -10808.5150 1432.9954 0.0000 0.0000 1748.0937 -7608.6812 294.5524 -9356.7749 -7608.6812 294.5524 -220.7579 -158.4879 30762.2963 -220.7579 -158.4879
ENERGY: 300000 1.7903 11.0910 5.3156 0.0000 -10896.7728 1501.1889 0.0000 0.0000 1763.8083 -7613.5787 297.2003 -9377.3870 -7620.9571 295.3068 200.7676 285.2000 30779.1242 -110.8281 -46.3901
ENERGY: 600000 1.1324 10.3325 5.3413 0.0000 -10688.6597 1425.0595 0.0000 0.0000 1799.4695 -7447.3245 303.2092 -9246.7941 -7586.8511 297.3351 105.3288 143.4018 30699.1818 -94.7682 -30.8612
ENERGY: 900000 1.0015 10.7835 5.3935 0.0000 -10786.8569 1422.9873 0.0000 0.0000 1731.6665 -7615.0245 291.7844 -9346.6910 -7579.2395 296.8600 -52.3553 4.6634 30415.4416 -108.2560 -35.7140
ENERGY: 1200000 2.7375 9.5250 4.8575 0.0000 -10830.3018 1485.2377 0.0000 0.0000 1788.5042 -7539.4400 301.3615 -9327.9441 -7563.6201 297.8303 395.7130 376.1632 30567.5989 -82.0100 -21.9074
ENERGY: 1500000 1.5849 10.8808 5.3855 0.0000 -10732.2648 1396.2603 0.0000 0.0000 1763.1373 -7555.0159 297.0872 -9318.1532 -7566.1388 298.1633 -121.6116 -43.3963 30470.8333 -48.6655 8.8250
TCL: Running FEP window   6: Lambda1 0.7499999999999998 Lambda2 0.6999999999999997 [dLambda -0.050000000000000044]
TCL: Setting parameter firsttimestep to 0
TCL: Setting parameter alchLambda to 0.7499999999999998
Info: NONBONDED TABLE R-SQUARED SPACING: 0.0625
Info: NONBONDED TABLE SIZE: 705 POINTS
TCL: Setting parameter alchLambda2 to 0.6999999999999997
Info: NONBONDED TABLE R-SQUARED SPACING: 0.0625
Info: NONBONDED TABLE SIZE: 705 POINTS
TCL: Running for 1500000 steps
ETITLE: TS BOND ANGLE DIHED IMPRP ELECT VDW BOUNDARY MISC KINETIC TOTAL TEMP POTENTIAL TOTALAVG TEMPAVG PRESSURE GPRESSURE VOLUME PRESSAVG GPRESSAVG
ENERGY: 0 1.5849 10.8808 5.3855 0.0000 -10731.2447 1396.0595 0.0000 0.0000 1762.2440 -7555.0900 296.9367 -9317.3340 -7555.0900 296.9367 -134.1409 -54.9724 30470.8333 -134.1409 -54.9724
ENERGY: 300000 2.3259 6.4755 8.0628 0.0000 -10834.3294 1491.4344 0.0000 0.0000 1740.0406 -7585.9902 293.1955 -9326.0308 -7561.7186 295.7139 218.3109 226.0047 30992.3934 -25.2126 22.7200
ENERGY: 600000 0.5762 11.5205 6.7490 0.0000 -10566.1786 1336.9715 0.0000 0.0000 1783.3624 -7426.9990 300.4952 -9210.3614 -7540.6485 297.0896 -727.8970 -592.3939 31160.4800 -137.4965 -77.4078
ENERGY: 900000 1.3238 7.9601 5.5961 0.0000 -10938.8214 1481.9489 0.0000 0.0000 1796.1665 -7645.8260 302.6526 -9441.9925 -7544.0344 298.1601 -21.3860 119.9686 30322.8157 -155.6004 -88.0843
ENERGY: 1200000 0.4159 12.0742 5.6743 0.0000 -10767.2278 1380.9462 0.0000 0.0000 1782.0559 -7586.0613 300.2750 -9368.1172 -7557.6765 298.1227 -515.2585 -505.6909 30517.6736 -149.0757 -92.5671
ENERGY: 1500000 0.9829 9.5562 6.6415 0.0000 -10980.5891 1531.7874 0.0000 0.0000 1763.7504 -7667.8708 297.1905 -9431.6211 -7562.4406 298.6962 353.6483 406.8601 30919.3244 -70.8320 -17.5673
TCL: Running FEP window   7: Lambda1 0.6999999999999997 Lambda2 0.6499999999999997 [dLambda -0.050000000000000044]
TCL: Setting parameter firsttimestep to 0
TCL: Setting parameter alchLambda to 0.6999999999999997
Info: NONBONDED TABLE R-SQUARED SPACING: 0.0625
Info: NONBONDED TABLE SIZE: 705 POINTS
TCL: Setting parameter alchLambda2 to 0.6499999999999997
Info: NONBONDED TABLE R-SQUARED SPACING: 0.0625
Info: NONBONDED TABLE SIZE: 705 POINTS
TCL: Running for 1500000 steps
ETITLE: TS BOND ANGLE DIHED IMPRP ELECT VDW BOUNDARY MISC KINETIC TOTAL TEMP POTENTIAL TOTALAVG TEMPAVG PRESSURE GPRESSURE VOLUME PRESSAVG GPRESSAVG
ENERGY: 0 0.9829 9.5562 6.6415 0.0000 -10979.2828 1532.1063 0.0000 0.0000 1762.8335 -7667.1624 297.0360 -9429.9959 -7667.1624 297.0360 322.6519 404.3623 30919.3244 322.6519 404.3623
ENERGY: 300000 1.0586 8.2345 6.4360 0.0000 -10809.0073 1443.8334 0.0000 0.0000 1715.1417 -7634.3030 289.0000 -9349.4448 -7593.2606 299.0894 228.7634 322.3544 30112.7092 539.7765 622.3750
ENERGY: 600000 1.6716 8.0927 5.4784 0.0000 -10844.2728 1471.4727 0.0000 0.0000 1797.0972 -7560.4603 302.8095 -9357.5574 -7561.1570 299.7160 246.2889 282.4106 30711.5745 302.1818 380.9341
ENERGY: 900000 2.6447 9.0404 5.2426 0.0000 -10839.5604 1451.6647 0.0000 0.0000 1776.5092 -7594.4588 299.3404 -9370.9680 -7571.9336 299.4300 -548.9373 -454.4926 31097.7507 151.3049 228.8049
ENERGY: 1200000 1.2856 7.7461 6.2540 0.0000 -10808.5980 1458.7365 0.0000 0.0000 1742.5226 -7592.0532 293.6137 -9334.5758 -7575.4722 298.4770 138.8917 208.2805 30421.5770 103.3763 180.7460
ENERGY: 1500000 2.1148 10.0764 6.9500 0.0000 -10865.3610 1482.0917 0.0000 0.0000 1825.2522 -7538.8760 307.5536 -9364.1282 -7581.6538 298.9458 339.7778 323.9985 30298.9594 56.2961 126.5700
TCL: Running FEP window   8: Lambda1 0.6499999999999997 Lambda2 0.5999999999999996 [dLambda -0.050000000000000044]
TCL: Setting parameter firsttimestep to 0
TCL: Setting parameter alchLambda to 0.6499999999999997
Info: NONBONDED TABLE R-SQUARED SPACING: 0.0625
Info: NONBONDED TABLE SIZE: 705 POINTS
TCL: Setting parameter alchLambda2 to 0.5999999999999996
Info: NONBONDED TABLE R-SQUARED SPACING: 0.0625
Info: NONBONDED TABLE SIZE: 705 POINTS
TCL: Running for 1500000 steps
ETITLE: TS BOND ANGLE DIHED IMPRP ELECT VDW BOUNDARY MISC KINETIC TOTAL TEMP POTENTIAL TOTALAVG TEMPAVG PRESSURE GPRESSURE VOLUME PRESSAVG GPRESSAVG
ENERGY: 0 2.1148 10.0763 6.9500 0.0000 -10864.0698 1481.9288 0.0000 0.0000 1824.3714 -7538.6285 307.4051 -9362.9999 -7538.6285 307.4051 225.2770 317.0842 30298.9594 225.2770 317.0842
ENERGY: 300000 3.2741 10.0652 5.1159 0.0000 -10877.1485 1478.5364 0.0000 0.0000 1779.0821 -7601.0748 299.7739 -9380.1569 -7554.7336 302.1287 57.5217 77.1919 30721.5506 84.8592 160.2114
ENERGY: 600000 0.8422 9.0491 4.4639 0.0000 -10871.8555 1420.0814 0.0000 0.0000 1830.0332 -7607.3857 308.3591 -9437.4189 -7556.4657 301.6798 -612.9465 -598.5964 30912.8410 -23.7896 35.7116
ENERGY: 900000 2.6915 9.0612 6.1156 0.0000 -10828.7731 1451.9002 0.0000 0.0000 1747.9519 -7611.0526 294.5285 -9359.0045 -7556.0519 301.3104 72.6110 53.2404 30334.5853 -53.5276 -5.2064
ENERGY: 1200000 0.9417 5.8125 5.9814 0.0000 -10767.1550 1480.9662 0.0000 0.0000 1771.2717 -7502.1815 298.4579 -9273.4532 -7538.0114 301.8324 119.5325 215.7962 31030.2654 -125.3011 -67.7733
ENERGY: 1500000 1.6524 8.7326 5.2452 0.0000 -10686.0523 1389.8983 0.0000 0.0000 1776.6961 -7503.8275 299.3719 -9280.5236 -7543.3966 301.3007 -483.3432 -449.1762 31068.8820 -196.3204 -141.0698
TCL: Running FEP window   9: Lambda1 0.5999999999999996 Lambda2 0.5499999999999996 [dLambda -0.050000000000000044]
TCL: Setting parameter firsttimestep to 0
TCL: Setting parameter alchLambda to 0.5999999999999996
Info: NONBONDED TABLE R-SQUARED SPACING: 0.0625
Info: NONBONDED TABLE SIZE: 705 POINTS
TCL: Setting parameter alchLambda2 to 0.5499999999999996
Info: NONBONDED TABLE R-SQUARED SPACING: 0.0625
Info: NONBONDED TABLE SIZE: 705 POINTS
TCL: Running for 1500000 steps
ETITLE: TS BOND ANGLE DIHED IMPRP ELECT VDW BOUNDARY MISC KINETIC TOTAL TEMP POTENTIAL TOTALAVG TEMPAVG PRESSURE GPRESSURE VOLUME PRESSAVG GPRESSAVG
ENERGY: 0 1.6524 8.7326 5.2452 0.0000 -10685.6371 1389.7792 0.0000 0.0000 1775.8463 -7504.3813 299.2287 -9280.2277 -7504.3813 299.2287 -529.2836 -459.0265 31068.8820 -529.2836 -459.0265
ENERGY: 300000 0.8308 13.5911 5.2567 0.0000 -10924.7849 1508.2944 0.0000 0.0000 1719.3002 -7677.5117 289.7007 -9396.8119 -7602.4201 294.1468 180.4145 253.3619 30810.3474 182.5357 250.2660
ENERGY: 600000 1.1843 8.9330 5.4613 0.0000 -10741.1447 1422.6177 0.0000 0.0000 1821.3388 -7481.6095 306.8942 -9302.9484 -7567.8981 297.0857 87.0176 179.4168 30376.5608 65.2924 125.7679
ENERGY: 900000 3.0379 6.5696 7.8670 0.0000 -10682.0930 1304.7442 0.0000 0.0000 1755.2060 -7604.6683 295.7508 -9359.8743 -7555.6243 298.4372 -1420.5833 -1381.1112 30743.5582 -100.2157 -33.9787
ENERGY: 1200000 2.0981 7.9222 4.6628 0.0000 -10791.1151 1426.0911 0.0000 0.0000 1781.7383 -7568.6026 300.2215 -9350.3409 -7565.2715 298.0736 -325.9603 -301.8845 30663.1350 -106.4053 -43.9451
ENERGY: 1500000 2.2141 7.7383 4.8320 0.0000 -10625.7479 1294.1099 0.0000 0.0000 1763.1852 -7553.6684 297.0953 -9316.8537 -7571.7161 297.2609 -1198.9558 -1175.2038 30864.3904 -225.7653 -172.9651
TCL: Running FEP window  10: Lambda1 0.5499999999999996 Lambda2 0.4999999999999996 [dLambda -0.04999999999999999]
TCL: Setting parameter firsttimestep to 0
TCL: Setting parameter alchLambda to 0.5499999999999996
Info: NONBONDED TABLE R-SQUARED SPACING: 0.0625
Info: NONBONDED TABLE SIZE: 705 POINTS
TCL: Setting parameter alchLambda2 to 0.4999999999999996
Info: NONBONDED TABLE R-SQUARED SPACING: 0.0625
Info: NONBONDED TABLE SIZE: 705 POINTS
TCL: Running for 1500000 steps
ETITLE: TS BOND ANGLE DIHED IMPRP ELECT VDW BOUNDARY MISC KINETIC TOTAL TEMP POTENTIAL TOTALAVG TEMPAVG PRESSURE GPRESSURE VOLUME PRESSAVG GPRESSAVG
ENERGY: 0 2.2141 7.7383 4.8320 0.0000 -10624.9875 1294.3667 0.0000 0.0000 1762.2762 -7553.5602 296.9421 -9315.8364 -7553.5602 296.9421 -1256.5275 -1176.6748 30864.3904 -1256.5275 -1176.6748
ENERGY: 300000 2.7792 7.4966 5.7214 0.0000 -10807.9378 1503.1279 0.0000 0.0000 1767.6985 -7521.1143 297.8558 -9288.8128 -7510.8976 301.9806 592.5705 706.9354 30176.3084 -372.3705 -287.5356
ENERGY: 600000 1.5180 9.8635 4.9869 0.0000 -10811.8277 1444.7770 0.0000 0.0000 1782.7005 -7567.9818 300.3836 -9350.6823 -7552.0871 301.0654 -84.9896 -74.3210 30679.0074 -435.2533 -363.8793
ENERGY: 900000 1.5560 8.2956 6.3213 0.0000 -10812.8586 1465.1253 0.0000 0.0000 1755.3079 -7576.2524 295.7680 -9331.5604 -7544.4575 301.3642 121.0314 216.0887 30571.1656 -259.2946 -180.3549
ENERGY: 1200000 1.3085 7.6297 4.8815 0.0000 -10873.4149 1536.6865 0.0000 0.0000 1749.0859 -7573.8228 294.7196 -9322.9087 -7544.2122 301.0478 738.5741 781.8324 30298.8686 -203.8966 -135.7749
ENERGY: 1500000 1.7153 10.1828 5.0685 0.0000 -10723.5740 1409.4133 0.0000 0.0000 1720.1704 -7577.0238 289.8473 -9297.1942 -7559.6219 299.5668 -369.3552 -313.7297 31124.5524 -178.5828 -119.3943
TCL: Running FEP window  11: Lambda1 0.4999999999999996 Lambda2 0.4499999999999996 [dLambda -0.04999999999999999]
TCL: Setting parameter firsttimestep to 0
TCL: Setting parameter alchLambda to 0.4999999999999996
Info: NONBONDED TABLE R-SQUARED SPACING: 0.0625
Info: NONBONDED TABLE SIZE: 705 POINTS
TCL: Setting parameter alchLambda2 to 0.4499999999999996
Info: NONBONDED TABLE R-SQUARED SPACING: 0.0625
Info: NONBONDED TABLE SIZE: 705 POINTS
TCL: Running for 1500000 steps
ETITLE: TS BOND ANGLE DIHED IMPRP ELECT VDW BOUNDARY MISC KINETIC TOTAL TEMP POTENTIAL TOTALAVG TEMPAVG PRESSURE GPRESSURE VOLUME PRESSAVG GPRESSAVG
ENERGY: 0 1.7153 10.1828 5.0685 0.0000 -10722.8821 1409.8049 0.0000 0.0000 1719.2837 -7576.8270 289.6979 -9296.1107 -7576.8270 289.6979 -401.3120 -316.3844 31124.5524 -401.3120 -316.3844
ENERGY: 300000 1.4910 6.6669 6.3393 0.0000 -10914.4189 1515.6277 0.0000 0.0000 1805.2278 -7579.0661 304.1795 -9384.2939 -7579.0691 297.9704 199.8714 318.1681 31026.7177 -169.5729 -103.6706
ENERGY: 600000 0.7662 5.1204 4.4713 0.0000 -10762.4182 1384.1258 0.0000 0.0000 1783.8063 -7584.1281 300.5700 -9367.9344 -7560.2965 299.8604 -373.2951 -342.9511 30313.7769 -189.1654 -125.5694
ENERGY: 900000 3.5977 9.0260 5.6198 0.0000 -10752.2123 1393.8887 0.0000 0.0000 1746.8200 -7593.2601 294.3378 -9340.0801 -7563.6123 299.5076 -501.0465 -412.8291 30601.8882 -203.6777 -131.9229
ENERGY: 1200000 5.3201 8.6422 5.1818 0.0000 -10646.2179 1386.4158 0.0000 0.0000 1758.1229 -7482.5350 296.2423 -9240.6580 -7548.9637 299.6412 -22.1172 54.9776 30419.4464 -184.4698 -108.4353
ENERGY: 1500000 3.5127 7.9783 4.2220 0.0000 -10723.0473 1397.3591 0.0000 0.0000 1702.5606 -7607.4146 286.8801 -9309.9752 -7557.2117 298.0455 -422.9343 -332.0036 30836.9765 -140.0675 -69.1786
TCL: Running FEP window  12: Lambda1 0.4499999999999996 Lambda2 0.39999999999999963 [dLambda -0.04999999999999999]
TCL: Setting parameter firsttimestep to 0
TCL: Setting parameter alchLambda to 0.4499999999999996
Info: NONBONDED TABLE R-SQUARED SPACING: 0.0625
Info: NONBONDED TABLE SIZE: 705 POINTS
TCL: Setting parameter alchLambda2 to 0.39999999999999963
Info: NONBONDED TABLE R-SQUARED SPACING: 0.0625
Info: NONBONDED TABLE SIZE: 705 POINTS
TCL: Running for 1500000 steps
ETITLE: TS BOND ANGLE DIHED IMPRP ELECT VDW BOUNDARY MISC KINETIC TOTAL TEMP POTENTIAL TOTALAVG TEMPAVG PRESSURE GPRESSURE VOLUME PRESSAVG GPRESSAVG
ENERGY: 0 3.5127 7.9783 4.2220 0.0000 -10723.0473 1397.7019 0.0000 0.0000 1701.7267 -7607.9057 286.7396 -9309.6324 -7607.9057 286.7396 -423.0342 -334.8083 30836.9765 -423.0342 -334.8083
ENERGY: 300000 3.0290 6.8553 4.7917 0.0000 -10974.4601 1485.6577 0.0000 0.0000 1768.4083 -7705.7182 297.9754 -9474.1265 -7589.8963 295.5648 -201.7468 -147.2288 30531.4843 -140.4605 -88.5934
ENERGY: 600000 0.8270 8.5241 6.7960 0.0000 -10803.6433 1468.8053 0.0000 0.0000 1789.6012 -7529.0896 301.5464 -9318.6908 -7552.0261 296.5766 202.2867 227.0155 30959.8128 -244.8770 -202.3650
ENERGY: 900000 0.6934 10.5922 4.6267 0.0000 -10852.8952 1422.6301 0.0000 0.0000 1841.2245 -7573.1282 310.2449 -9414.3527 -7553.3326 299.3615 -472.9604 -389.7711 30564.3023 -186.8196 -140.3158
ENERGY: 1200000 4.8158 10.1407 5.1365 0.0000 -10773.2521 1464.9171 0.0000 0.0000 1855.5165 -7432.7256 312.6531 -9288.2421 -7545.7309 299.9608 -29.4213 87.2985 31187.0861 -120.2194 -66.9653
ENERGY: 1500000 0.8076 6.8119 5.9456 0.0000 -10820.7076 1462.9407 0.0000 0.0000 1840.6467 -7503.5551 310.1475 -9344.2018 -7545.4406 300.3522 -4.5901 81.3017 30861.0622 -183.5918 -132.3134
TCL: Running FEP window  13: Lambda1 0.39999999999999963 Lambda2 0.34999999999999964 [dLambda -0.04999999999999999]
TCL: Setting parameter firsttimestep to 0
TCL: Setting parameter alchLambda to 0.39999999999999963
Info: NONBONDED TABLE R-SQUARED SPACING: 0.0625
Info: NONBONDED TABLE SIZE: 705 POINTS
TCL: Setting parameter alchLambda2 to 0.34999999999999964
Info: NONBONDED TABLE R-SQUARED SPACING: 0.0625
Info: NONBONDED TABLE SIZE: 705 POINTS
TCL: Running for 1500000 steps
ETITLE: TS BOND ANGLE DIHED IMPRP ELECT VDW BOUNDARY MISC KINETIC TOTAL TEMP POTENTIAL TOTALAVG TEMPAVG PRESSURE GPRESSURE VOLUME PRESSAVG GPRESSAVG
ENERGY: 0 0.8076 6.8119 5.9456 0.0000 -10820.7076 1463.3205 0.0000 0.0000 1839.7644 -7504.0575 309.9989 -9343.8219 -7504.0575 309.9989 3.1275 79.7793 30861.0622 3.1275 79.7793
ENERGY: 300000 0.6067 5.7054 5.4710 0.0000 -10690.4858 1424.1285 0.0000 0.0000 1749.0928 -7505.4814 294.7207 -9254.5742 -7542.7160 302.1792 -173.7698 -86.3125 30893.6823 -54.8070 33.8339
ENERGY: 600000 1.7873 8.0539 6.0172 0.0000 -10829.9678 1460.9558 0.0000 0.0000 1810.9095 -7542.2441 305.1368 -9353.1537 -7551.2579 300.1044 -97.9922 -38.3774 30348.9378 -148.3212 -68.5377
ENERGY: 900000 4.5542 4.1366 5.5205 0.0000 -10800.3992 1456.1835 0.0000 0.0000 1838.2404 -7491.7641 309.7420 -9330.0044 -7550.5755 301.0571 122.8073 124.0098 30502.4355 -5.1357 64.7667
ENERGY: 1200000 1.0523 10.2177 4.9062 0.0000 -10674.8882 1371.0554 0.0000 0.0000 1776.1712 -7511.4855 299.2834 -9287.6567 -7547.9325 300.1942 -516.6356 -434.3610 30316.7611 -63.0136 6.6501
ENERGY: 1500000 1.9894 7.4752 4.2940 0.0000 -10827.6305 1429.7018 0.0000 0.0000 1786.2392 -7597.9308 300.9799 -9384.1700 -7547.4705 300.3831 -242.9540 -198.6590 30538.7344 -76.0180 -6.3694
TCL: Running FEP window  14: Lambda1 0.34999999999999964 Lambda2 0.29999999999999966 [dLambda -0.04999999999999999]
TCL: Setting parameter firsttimestep to 0
TCL: Setting parameter alchLambda to 0.34999999999999964
Info: NONBONDED TABLE R-SQUARED SPACING: 0.0625
Info: NONBONDED TABLE SIZE: 705 POINTS
TCL: Setting parameter alchLambda2 to 0.29999999999999966
Info: NONBONDED TABLE R-SQUARED SPACING: 0.0625
Info: NONBONDED TABLE SIZE: 705 POINTS
TCL: Running for 1500000 steps
ETITLE: TS BOND ANGLE DIHED IMPRP ELECT VDW BOUNDARY MISC KINETIC TOTAL TEMP POTENTIAL TOTALAVG TEMPAVG PRESSURE GPRESSURE VOLUME PRESSAVG GPRESSAVG
ENERGY: 0 1.9894 7.4752 4.2940 0.0000 -10827.6314 1429.4006 0.0000 0.0000 1785.3509 -7599.1213 300.8302 -9384.4722 -7599.1213 300.8302 -282.0365 -207.1234 30538.7344 -282.0365 -207.1234
ENERGY: 300000 1.9218 4.4723 5.8022 0.0000 -10663.3565 1381.5961 0.0000 0.0000 1769.5462 -7500.0178 298.1671 -9269.5640 -7539.7558 300.4642 -406.2360 -385.0835 31003.8683 -120.1213 -65.1680
ENERGY: 600000 0.6260 9.4616 4.8857 0.0000 -10781.4079 1454.2196 0.0000 0.0000 1814.8560 -7497.3590 305.8018 -9312.2150 -7538.7136 301.5726 -85.4577 -20.3887 31204.5701 -8.4875 35.1844
ENERGY: 900000 0.4684 7.1393 5.1142 0.0000 -10750.9320 1446.6920 0.0000 0.0000 1760.0268 -7531.4915 296.5631 -9291.5183 -7561.6909 299.7213 114.4087 222.9953 30365.2152 -25.4262 39.8652
ENERGY: 1200000 3.9737 13.5555 5.0618 0.0000 -10852.0417 1471.8969 0.0000 0.0000 1786.5587 -7570.9951 301.0337 -9357.5538 -7556.8231 299.7567 147.7823 237.8485 30432.4302 26.9740 85.6910
ENERGY: 1500000 1.1805 5.9875 7.3001 0.0000 -10901.1816 1508.5925 0.0000 0.0000 1741.0219 -7637.0991 293.3608 -9378.1210 -7559.3114 299.4765 533.4486 557.4708 30298.7538 46.3663 102.4132
TCL: Running FEP window  15: Lambda1 0.29999999999999966 Lambda2 0.24999999999999967 [dLambda -0.04999999999999999]
TCL: Setting parameter firsttimestep to 0
TCL: Setting parameter alchLambda to 0.29999999999999966
Info: NONBONDED TABLE R-SQUARED SPACING: 0.0625
Info: NONBONDED TABLE SIZE: 705 POINTS
TCL: Setting parameter alchLambda2 to 0.24999999999999967
Info: NONBONDED TABLE R-SQUARED SPACING: 0.0625
Info: NONBONDED TABLE SIZE: 705 POINTS
TCL: Running for 1500000 steps
ETITLE: TS BOND ANGLE DIHED IMPRP ELECT VDW BOUNDARY MISC KINETIC TOTAL TEMP POTENTIAL TOTALAVG TEMPAVG PRESSURE GPRESSURE VOLUME PRESSAVG GPRESSAVG
ENERGY: 0 1.1805 5.9875 7.3001 0.0000 -10901.1829 1508.7605 0.0000 0.0000 1740.1371 -7637.8173 293.2117 -9377.9544 -7637.8173 293.2117 473.6703 552.9901 30298.7538 473.6703 552.9901
ENERGY: 300000 1.7075 10.0469 5.7992 0.0000 -10961.5080 1535.9072 0.0000 0.0000 1803.8937 -7604.1534 303.9547 -9408.0471 -7608.6295 300.1642 836.5092 932.1405 29829.1896 434.4227 503.5639
ENERGY: 600000 1.4569 6.3622 5.2787 0.0000 -10862.5146 1482.4134 0.0000 0.0000 1763.4590 -7603.5444 297.1415 -9367.0035 -7596.7091 299.1909 56.7874 114.3963 30531.2694 202.3165 261.7323
ENERGY: 900000 1.1354 14.3349 4.1565 0.0000 -10909.4318 1485.6088 0.0000 0.0000 1864.1235 -7540.0728 314.1033 -9404.1963 -7587.5443 300.5606 214.2913 238.8994 30355.1758 60.4229 120.6066
ENERGY: 1200000 0.7283 8.7755 4.0991 0.0000 -10689.9081 1386.2145 0.0000 0.0000 1775.6913 -7514.3994 299.2026 -9290.0907 -7565.7975 300.1491 -498.7111 -375.9236 30829.2703 -65.3718 -3.6547
ENERGY: 1500000 4.3712 6.3002 5.4661 0.0000 -10874.8085 1474.1086 0.0000 0.0000 1822.1524 -7562.4099 307.0312 -9384.5624 -7568.1297 299.8157 449.7659 422.2690 30390.4319 -72.2969 -18.9151
TCL: Running FEP window  16: Lambda1 0.24999999999999967 Lambda2 0.19999999999999968 [dLambda -0.04999999999999999]
TCL: Setting parameter firsttimestep to 0
TCL: Setting parameter alchLambda to 0.24999999999999967
Info: NONBONDED TABLE R-SQUARED SPACING: 0.0625
Info: NONBONDED TABLE SIZE: 705 POINTS
TCL: Setting parameter alchLambda2 to 0.19999999999999968
Info: NONBONDED TABLE R-SQUARED SPACING: 0.0625
Info: NONBONDED TABLE SIZE: 705 POINTS
TCL: Running for 1500000 steps
ETITLE: TS BOND ANGLE DIHED IMPRP ELECT VDW BOUNDARY MISC KINETIC TOTAL TEMP POTENTIAL TOTALAVG TEMPAVG PRESSURE GPRESSURE VOLUME PRESSAVG GPRESSAVG
ENERGY: 0 4.3712 6.3002 5.4661 0.0000 -10874.8091 1474.5446 0.0000 0.0000 1821.3017 -7562.8252 306.8879 -9384.1269 -7562.8252 306.8879 345.7989 420.8076 30390.4319 345.7989 420.8076
ENERGY: 300000 2.1729 5.8655 5.2865 0.0000 -10821.4266 1479.9342 0.0000 0.0000 1782.1513 -7546.0162 300.2911 -9328.1675 -7547.1071 300.8355 56.9838 150.6285 30974.8693 266.6684 316.5977
ENERGY: 600000 1.2413 12.3102 4.5423 0.0000 -10671.0687 1379.2382 0.0000 0.0000 1754.8632 -7518.8735 295.6931 -9273.7367 -7551.1928 299.7368 -499.1156 -441.0213 30724.8851 74.3742 128.4671
ENERGY: 900000 2.4603 7.6230 5.1259 0.0000 -10803.4591 1431.4143 0.0000 0.0000 1780.5413 -7576.2944 300.0198 -9356.8357 -7557.6534 299.6705 -357.8841 -333.8839 30901.3373 -63.8745 -2.6776
ENERGY: 1200000 2.4945 5.5883 6.2704 0.0000 -10836.5912 1489.7311 0.0000 0.0000 1787.4950 -7545.0119 301.1915 -9332.5069 -7558.6935 299.4216 251.2126 277.0514 30696.7475 -81.6460 -22.2136
ENERGY: 1500000 4.8407 10.0368 4.9662 0.0000 -10736.3369 1413.1503 0.0000 0.0000 1747.2739 -7556.0689 294.4143 -9303.3429 -7554.3555 298.7438 -416.2636 -431.4040 30973.7031 -16.8176 38.7249
TCL: Running FEP window  17: Lambda1 0.19999999999999968 Lambda2 0.1499999999999997 [dLambda -0.04999999999999999]
TCL: Setting parameter firsttimestep to 0
TCL: Setting parameter alchLambda to 0.19999999999999968
Info: NONBONDED TABLE R-SQUARED SPACING: 0.0625
Info: NONBONDED TABLE SIZE: 705 POINTS
TCL: Setting parameter alchLambda2 to 0.1499999999999997
Info: NONBONDED TABLE R-SQUARED SPACING: 0.0625
Info: NONBONDED TABLE SIZE: 705 POINTS
TCL: Running for 1500000 steps
ETITLE: TS BOND ANGLE DIHED IMPRP ELECT VDW BOUNDARY MISC KINETIC TOTAL TEMP POTENTIAL TOTALAVG TEMPAVG PRESSURE GPRESSURE VOLUME PRESSAVG GPRESSAVG
ENERGY: 0 4.8407 10.0368 4.9662 0.0000 -10736.3370 1413.2887 0.0000 0.0000 1746.3985 -7556.8060 294.2668 -9303.2046 -7556.8060 294.2668 -511.7153 -431.5001 30973.7031 -511.7153 -431.5001
ENERGY: 300000 1.6954 12.2509 4.2314 0.0000 -10614.5786 1341.7016 0.0000 0.0000 1741.3979 -7513.3014 293.4242 -9254.6993 -7521.3105 298.7551 -752.8634 -716.1597 30727.4958 -478.5558 -436.7665
ENERGY: 600000 2.7677 9.2760 5.3140 0.0000 -10827.8832 1467.8113 0.0000 0.0000 1788.9578 -7553.7563 301.4380 -9342.7141 -7557.3743 298.1940 31.3472 86.1282 30350.5129 -319.2972 -270.4238
ENERGY: 900000 4.2044 11.8019 5.2239 0.0000 -10667.6392 1386.3937 0.0000 0.0000 1773.6839 -7486.3314 298.8643 -9260.0153 -7551.5081 298.5054 -627.5994 -588.1518 30834.4016 -393.2739 -346.2020
ENERGY: 1200000 2.4869 6.8096 7.6006 0.0000 -10739.0286 1450.4974 0.0000 0.0000 1823.3684 -7448.2656 307.2361 -9271.6340 -7549.7826 299.5393 41.5147 121.8481 30668.2845 -288.9873 -235.2361
ENERGY: 1500000 0.9444 8.5572 4.5384 0.0000 -10835.0749 1465.6277 0.0000 0.0000 1806.1716 -7549.2356 304.3385 -9355.4071 -7551.8022 299.5171 40.5227 69.4153 30562.3271 -229.8282 -177.5673
TCL: Running FEP window  18: Lambda1 0.1499999999999997 Lambda2 0.09999999999999969 [dLambda -0.05 ]
TCL: Setting parameter firsttimestep to 0
TCL: Setting parameter alchLambda to 0.1499999999999997
Info: NONBONDED TABLE R-SQUARED SPACING: 0.0625
Info: NONBONDED TABLE SIZE: 705 POINTS
TCL: Setting parameter alchLambda2 to 0.09999999999999969
Info: NONBONDED TABLE R-SQUARED SPACING: 0.0625
Info: NONBONDED TABLE SIZE: 705 POINTS
TCL: Running for 1500000 steps
ETITLE: TS BOND ANGLE DIHED IMPRP ELECT VDW BOUNDARY MISC KINETIC TOTAL TEMP POTENTIAL TOTALAVG TEMPAVG PRESSURE GPRESSURE VOLUME PRESSAVG GPRESSAVG
ENERGY: 0 0.9444 8.5572 4.5384 0.0000 -10835.0738 1466.0469 0.0000 0.0000 1805.2935 -7549.6934 304.1905 -9354.9869 -7549.6934 304.1905 -27.4658 67.9931 30562.3271 -27.4658 67.9931
ENERGY: 300000 1.5553 7.4159 7.1662 0.0000 -10920.7238 1531.3611 0.0000 0.0000 1781.8866 -7591.3387 300.2465 -9373.2253 -7560.4936 302.5429 526.3902 572.4873 30422.4323 -252.8604 -170.5206
ENERGY: 600000 0.7866 12.2950 4.7260 0.0000 -10858.8103 1457.5400 0.0000 0.0000 1808.4452 -7575.0175 304.7216 -9383.4627 -7559.9433 303.1615 47.1324 95.7181 30328.2618 -160.3399 -79.0381
ENERGY: 900000 1.2355 6.0908 8.3842 0.0000 -10828.3876 1485.6734 0.0000 0.0000 1784.1077 -7542.8960 300.6207 -9327.0037 -7557.2129 301.9010 125.8358 139.9560 30798.5486 -100.7278 -35.3202
ENERGY: 1200000 1.0298 10.7505 4.8692 0.0000 -10800.0346 1453.0390 0.0000 0.0000 1788.9515 -7541.3946 301.4369 -9330.3461 -7549.9993 301.1346 -186.8834 -114.5541 31065.3738 -126.6454 -54.9650
ENERGY: 1500000 3.8282 9.9266 4.8152 0.0000 -10824.6096 1429.6510 0.0000 0.0000 1756.7157 -7619.6730 296.0052 -9376.3886 -7555.1872 300.3904 -415.9155 -428.8199 30589.8368 -100.8746 -34.5397
TCL: Running FEP window  19: Lambda1 0.09999999999999969 Lambda2 0.049999999999999684 [dLambda -0.05 ]
TCL: Setting parameter firsttimestep to 0
TCL: Setting parameter alchLambda to 0.09999999999999969
Info: NONBONDED TABLE R-SQUARED SPACING: 0.0625
Info: NONBONDED TABLE SIZE: 705 POINTS
TCL: Setting parameter alchLambda2 to 0.049999999999999684
Info: NONBONDED TABLE R-SQUARED SPACING: 0.0625
Info: NONBONDED TABLE SIZE: 705 POINTS
TCL: Running for 1500000 steps
ETITLE: TS BOND ANGLE DIHED IMPRP ELECT VDW BOUNDARY MISC KINETIC TOTAL TEMP POTENTIAL TOTALAVG TEMPAVG PRESSURE GPRESSURE VOLUME PRESSAVG GPRESSAVG
ENERGY: 0 3.8282 9.9266 4.8152 0.0000 -10824.6103 1429.1469 0.0000 0.0000 1755.8406 -7621.0528 295.8578 -9376.8934 -7621.0528 295.8578 -509.9364 -432.9555 30589.8368 -509.9364 -432.9555
ENERGY: 300000 0.2849 8.1893 5.3192 0.0000 -10918.9173 1544.7323 0.0000 0.0000 1747.4501 -7612.9415 294.4440 -9360.3917 -7599.8314 297.9126 476.8691 575.0453 30635.6369 -62.0753 4.6528
ENERGY: 600000 1.5013 8.7183 5.0252 0.0000 -10841.9617 1493.0343 0.0000 0.0000 1789.5124 -7544.1702 301.5314 -9333.6826 -7584.5132 298.2859 376.7705 452.0841 30340.4381 -18.1102 40.2123
ENERGY: 900000 2.1174 5.7422 5.0078 0.0000 -10736.5994 1421.6667 0.0000 0.0000 1743.4387 -7558.6267 293.7680 -9302.0653 -7573.2389 299.1563 -21.7991 71.0547 30494.8261 -198.2768 -134.0976
ENERGY: 1200000 0.8290 6.5221 4.2132 0.0000 -10758.8736 1490.6940 0.0000 0.0000 1793.1927 -7463.4226 302.1516 -9256.6153 -7567.4565 298.7936 276.0677 344.3163 31319.0663 -209.6828 -147.6699
ENERGY: 1500000 2.0064 12.8470 5.1048 0.0000 -10896.1200 1515.5849 0.0000 0.0000 1772.5703 -7588.0066 298.6767 -9360.5769 -7564.7446 299.1513 541.8273 497.8916 30050.9063 -168.8074 -120.3695
TCL: Running FEP window  20: Lambda1 0.049999999999999684 Lambda2 0.0    [dLambda -0.049999999999999684]
TCL: Setting parameter firsttimestep to 0
TCL: Setting parameter alchLambda to 0.049999999999999684
Info: NONBONDED TABLE R-SQUARED SPACING: 0.0625
Info: NONBONDED TABLE SIZE: 705 POINTS
TCL: Setting parameter alchLambda2 to 0.0
Info: NONBONDED TABLE R-SQUARED SPACING: 0.0625
Info: NONBONDED TABLE SIZE: 705 POINTS
TCL: Running for 1500000 steps
ETITLE: TS BOND ANGLE DIHED IMPRP ELECT VDW BOUNDARY MISC KINETIC TOTAL TEMP POTENTIAL TOTALAVG TEMPAVG PRESSURE GPRESSURE VOLUME PRESSAVG GPRESSAVG
ENERGY: 0 2.0064 12.8470 5.1048 0.0000 -10896.1204 1514.9019 0.0000 0.0000 1771.6564 -7589.6038 298.5227 -9361.2603 -7589.6038 298.5227 412.8609 495.6763 30050.9063 412.8609 495.6763
ENERGY: 300000 1.7654 8.3121 4.9849 0.0000 -10842.9694 1496.4561 0.0000 0.0000 1804.7395 -7526.7114 304.0972 -9331.4508 -7557.5475 299.8849 180.3577 271.6140 30790.0440 219.6932 312.6183
ENERGY: 600000 1.7046 6.7256 4.8890 0.0000 -10872.8499 1489.3228 0.0000 0.0000 1798.7527 -7571.4552 303.0884 -9370.2080 -7563.9492 299.5618 282.9294 339.6164 30259.4697 88.3890 171.8116
ENERGY: 900000 1.4329 10.3508 7.0970 0.0000 -10953.3555 1563.4935 0.0000 0.0000 1807.7674 -7563.2141 304.6074 -9370.9815 -7571.5357 298.9640 653.9457 714.9395 30417.8172 238.8611 304.6111
ENERGY: 1200000 3.5673 8.2996 5.9378 0.0000 -10744.0111 1385.4002 0.0000 0.0000 1787.9361 -7552.8701 301.2658 -9340.8062 -7570.9634 298.9705 -684.6799 -635.4514 30550.5672 95.3921 164.4604
ENERGY: 1500000 1.4164 8.3746 5.5622 0.0000 -10740.1277 1367.9645 0.0000 0.0000 1730.6987 -7626.1114 291.6214 -9356.8101 -7571.8863 298.3793 -841.2350 -772.6082 30443.6856 -20.0714 43.0410
TCL: Exiting due to exit command.
