Info: SIMULATION PARAMETERS:
Info: TIMESTEP               2
Info: NUMBER OF STEPS        0
Info: STEPS PER CYCLE        10
Info: PERIODIC CELL BASIS 1  31.0085 0 0
Info: PERIODIC CELL BASIS 2  0 29.6019 0
Info: PERIODIC CELL BASIS 3  0 0 32.9663
Info: PERIODIC CELL CENTER   0 0 0
Info: WRAPPING WATERS AROUND PERIODIC BOUNDARIES ON OUTPUT.
Info: WRAPPING ALL CLUSTERS AROUND PERIODIC BOUNDARIES ON OUTPUT.
Info: FIRST LDB TIMESTEP     50
Info: LAST LDB TIMESTEP     -1
Info: HOM BACKGROUND SCALING 1
Info: PME BACKGROUND SCALING 1
Info: MIN ATOMS PER PATCH    40
Info: EMPTY PATCH LOAD       40 ATOMS
Info: VELOCITY FILE          mobley_2913224_equil.vel
Info: CENTER OF MASS MOVING INITIALLY? NO
Info: DIELECTRIC             1
Info: EXCLUDE                SCALED ONE-FOUR
Info: 1-4 ELECTROSTATICS SCALED BY 0.833333
Info: MODIFIED 1-4 VDW PARAMETERS WILL BE USED
Info: DCD FILENAME           mobley_2913224_prod.dcd
Info: DCD FREQUENCY          100000
Info: DCD FIRST STEP         100000
Info: DCD FILE WILL CONTAIN UNIT CELL DATA
Info: XST FILENAME           mobley_2913224_prod.xst
Info: XST FREQUENCY          100000
Info: NO VELOCITY DCD OUTPUT
Info: NO FORCE DCD OUTPUT
Info: OUTPUT FILENAME        mobley_2913224_prod
Info: BINARY OUTPUT FILES WILL BE USED
Info: RESTART FILENAME       mobley_2913224_prod.restart
Info: RESTART FREQUENCY      100000
Info: BINARY RESTART FILES WILL BE USED
Info: CUTOFF                 9
Info: PAIRLIST DISTANCE      11
Info: PAIRLIST SHRINK RATE   0.01
Info: PAIRLIST GROW RATE     0.01
Info: PAIRLIST TRIGGER       0.3
Info: PAIRLISTS PER CYCLE    2
Info: PAIRLISTS ENABLED
Info: MARGIN                 2
Info: HYDROGEN GROUP CUTOFF  2.5
Info: PATCH DIMENSION        15.5
Info: ENERGY OUTPUT STEPS    100000
Info: ENERGY EVALUATION STEPS    100000
Info: OUTPUT ENERGY PRECISION 4
Info: CROSSTERM ENERGY INCLUDED IN DIHEDRAL
Info: TIMING OUTPUT STEPS    1000000
Info: PRESSURE OUTPUT STEPS  100000
Info: ALCHEMICAL FEP ON
Info: FEP CURRENT LAMBDA VALUE     0
Info: FEP COMPARISON LAMBDA VALUE  0.05
Info: FEP INTRA-ALCHEMICAL NON-BONDED INTERACTIONS WILL BE RETAINED
Info: FEP INTRA-ALCHEMICAL BONDED INTERACTIONS WILL BE RETAINED
Info: FEP VDW SHIFTING COEFFICIENT 5
Info: FEP ELEC. ACTIVE FOR ANNIHILATED PARTICLES BETWEEN LAMBDA = 0 AND LAMBDA = 0.5
Info: FEP ELEC. ACTIVE FOR EXNIHILATED PARTICLES BETWEEN LAMBDA = 0.5 AND LAMBDA = 1
Info: FEP VDW ACTIVE FOR ANNIHILATED PARTICLES BETWEEN LAMBDA = 0 AND LAMBDA = 1
Info: FEP VDW ACTIVE FOR EXNIHILATED PARTICLES BETWEEN LAMBDA = 0 AND LAMBDA = 1
Info: FEP BOND ACTIVE FOR ANNIHILATED PARTICLES BETWEEN LAMBDA = 1 AND LAMBDA = 1
Info: FEP BOND ACTIVE FOR EXNIHILATED PARTICLES BETWEEN LAMBDA = 0 AND LAMBDA = 0
Info: LANGEVIN DYNAMICS ACTIVE
Info: LANGEVIN TEMPERATURE   300
Info: LANGEVIN USING BBK INTEGRATOR
Info: LANGEVIN DAMPING COEFFICIENT IS 1 INVERSE PS
Info: LANGEVIN DYNAMICS APPLIED TO HYDROGENS
Info: LANGEVIN PISTON PRESSURE CONTROL ACTIVE
Info:        TARGET PRESSURE IS 1.01325 BAR
Info:     OSCILLATION PERIOD IS 50 FS
Info:             DECAY TIME IS 25 FS
Info:     PISTON TEMPERATURE IS 300 K
Info:       PRESSURE CONTROL IS GROUP-BASED
Info:    INITIAL STRAIN RATE IS -0.000114678 -0.000114678 -0.000114678
Info:       CELL FLUCTUATION IS ISOTROPIC
Info: PARTICLE MESH EWALD (PME) ACTIVE
Info: PME TOLERANCE               1e-06
Info: PME EWALD COEFFICIENT       0.348832
Info: PME INTERPOLATION ORDER     4
Info: PME GRID DIMENSIONS         32 32 36
Info: PME MAXIMUM GRID SPACING    1
Info: PME CALCULATION WILL BE PERFORMED ON GPU
Info: FULL ELECTROSTATIC EVALUATION FREQUENCY      2
Info: USING VERLET I (r-RESPA) MTS SCHEME.
Info: C1 SPLITTING OF LONG RANGE ELECTROSTATICS
Info: PLACING ATOMS IN PATCHES BY HYDROGEN GROUPS
Info: RIGID BONDS TO HYDROGEN : ALL
Info:         ERROR TOLERANCE : 1e-08
Info:          MAX ITERATIONS : 100
Info: RIGID WATER USING SETTLE ALGORITHM
Info: RANDOM NUMBER SEED     1743866298
Info: USE HYDROGEN BONDS?    NO
Info: Using AMBER format force field!
Info: AMBER PARM FILE        mobley_2913224.prmtop
Info: COORDINATE PDB         mobley_2913224.pdb
Info: Exclusions will be read from PARM file!
Info: SCNB (VDW SCALING)     2
Info: USING ARITHMETIC MEAN TO COMBINE L-J SIGMA PARAMETERS
Info: BINARY COORDINATES     mobley_2913224_equil.coor
Info: SUMMARY OF PARAMETERS:
Info: 12 BONDS
Info: 14 ANGLES
Info:   14 HARMONIC
Info:   0 COSINE-BASED
Info: 11 DIHEDRAL
Info: 0 IMPROPER
Info: 0 CROSSTERM
Info: 0 VDW
Info: 45 VDW_PAIRS
Info: 0 NBTHOLE_PAIRS
Info: To read alchdata from file: mobley_2913224.pdb
Info: To read alchflag data from column: 5
Info: STRUCTURE SUMMARY:
Info: 2904 ATOMS
Info: 2904 BONDS
Info: 32 ANGLES
Info: 55 DIHEDRALS
Info: 0 IMPROPERS
Info: 0 CROSSTERMS
Info: 2973 EXCLUSIONS
Info: 2891 RIGID BONDS
Info: ALCH: 0 ATOMS TO DISAPPEAR IN FINAL STATE
Info: ALCH: 21 ATOMS TO APPEAR IN FINAL STATE
Info: 5821 DEGREES OF FREEDOM
Info: 974 HYDROGEN GROUPS
Info: 4 ATOMS IN LARGEST HYDROGEN GROUP
Info: 974 MIGRATION GROUPS
Info: 4 ATOMS IN LARGEST MIGRATION GROUP
Info: TOTAL MASS = 17493.5 amu
Info: TOTAL CHARGE = 9.99421e-05 e
Info: MASS DENSITY = 0.95999 g/cm^3
Info: ATOM DENSITY = 0.0959681 atoms/A^3
Info: ADDED 0 IMPLICIT EXCLUSIONS
Info: NONBONDED TABLE R-SQUARED SPACING: 0.0625
Info: NONBONDED TABLE SIZE: 705 POINTS
Info: REMOVING COM VELOCITY 0.00633278 0.184047 0.0231258
Info: Use 3D box decompostion in PME FFT.
Info: Updated CUDA force table with 4096 elements.
Info: Updated CUDA LJ table with 9 x 9 elements.
Info: Found 19 unique exclusion lists needing 48 bytes
TCL: Running for 1500000 steps
ETITLE: TS BOND ANGLE DIHED IMPRP ELECT VDW BOUNDARY MISC KINETIC TOTAL TEMP POTENTIAL TOTALAVG TEMPAVG PRESSURE GPRESSURE VOLUME PRESSAVG GPRESSAVG
ENERGY: 0 8.4326 7.3152 14.3858 0.0000 -10611.9170 1472.8246 0.0000 0.0000 1716.1812 -7392.7776 296.7262 -9108.9588 -7392.7776 296.7262 152.4951 241.3635 30260.0613 152.4951 241.3635
ENERGY: 300000 4.1231 8.8241 14.4580 0.0000 -10641.4589 1479.6210 0.0000 0.0000 1669.4238 -7465.0089 288.6419 -9134.4327 -7424.5358 295.1330 387.4610 458.2782 29826.1998 20.2873 97.4860
ENERGY: 600000 2.7926 11.8218 13.0815 0.0000 -10487.4035 1403.5977 0.0000 0.0000 1708.0329 -7348.0770 295.3174 -9056.1099 -7426.2374 297.4530 -68.9243 -7.1159 29991.9263 106.1651 183.0283
ENERGY: 900000 3.8822 9.8863 11.6629 0.0000 -10517.2372 1408.9967 0.0000 0.0000 1674.6717 -7408.1374 289.5493 -9082.8091 -7420.5689 296.6458 -295.1003 -258.2868 30211.0630 0.1402 59.5600
ENERGY: 1200000 1.7012 6.9658 11.8169 0.0000 -10439.9945 1349.7533 0.0000 0.0000 1758.0230 -7311.7342 303.9606 -9069.7573 -7400.7351 298.2512 -489.1971 -460.2682 29998.4001 5.4614 65.4450
ENERGY: 1500000 6.9116 7.3210 14.2495 0.0000 -10518.0409 1399.1833 0.0000 0.0000 1791.9228 -7298.4526 309.8219 -9090.3754 -7390.6126 300.4396 321.8453 339.8458 29773.9577 33.3678 87.2940
TCL: Running FEP window   2: Lambda1 0.05   Lambda2 0.1    [dLambda 0.05  ]
TCL: Setting parameter firsttimestep to 0
TCL: Setting parameter alchLambda to 0.05
Info: NONBONDED TABLE R-SQUARED SPACING: 0.0625
Info: NONBONDED TABLE SIZE: 705 POINTS
TCL: Setting parameter alchLambda2 to 0.1
Info: NONBONDED TABLE R-SQUARED SPACING: 0.0625
Info: NONBONDED TABLE SIZE: 705 POINTS
TCL: Running for 1500000 steps
ETITLE: TS BOND ANGLE DIHED IMPRP ELECT VDW BOUNDARY MISC KINETIC TOTAL TEMP POTENTIAL TOTALAVG TEMPAVG PRESSURE GPRESSURE VOLUME PRESSAVG GPRESSAVG
ENERGY: 0 6.9116 7.3210 14.2495 0.0000 -10518.0415 1404.2579 0.0000 0.0000 1791.0362 -7294.2653 309.6686 -9085.3015 -7294.2653 309.6686 277.1839 351.7251 29773.9577 277.1839 351.7251
ENERGY: 300000 4.8798 11.5188 13.1737 0.0000 -10462.4823 1360.9878 0.0000 0.0000 1712.1405 -7359.7817 296.0276 -9071.9222 -7346.4963 301.4626 -521.4232 -434.0925 29943.1094 -230.4911 -120.8203
ENERGY: 600000 6.1407 4.3153 19.3544 0.0000 -10549.0782 1362.6492 0.0000 0.0000 1734.4480 -7422.1705 299.8845 -9156.6185 -7371.4484 301.6114 -790.0703 -784.8015 29887.2765 -373.8611 -287.9816
ENERGY: 900000 1.8684 6.8908 11.0113 0.0000 -10525.1062 1378.1603 0.0000 0.0000 1773.7112 -7353.4642 306.6731 -9127.1754 -7387.4063 300.8273 0.0398 -42.7658 29304.6720 -255.5247 -185.3862
ENERGY: 1200000 2.0057 8.2157 16.5333 0.0000 -10744.0741 1528.8054 0.0000 0.0000 1748.5337 -7439.9803 302.3199 -9188.5141 -7388.5363 301.5591 553.3081 598.0534 29683.0927 -245.5559 -182.1043
ENERGY: 1500000 1.7398 10.5048 17.0013 0.0000 -10681.5626 1503.1338 0.0000 0.0000 1765.4642 -7383.7186 305.2472 -9149.1828 -7389.1400 301.5605 458.9181 531.1847 29906.7210 -114.8921 -51.1445
TCL: Running FEP window   3: Lambda1 0.1    Lambda2 0.15000000000000002 [dLambda 0.05000000000000002]
TCL: Setting parameter firsttimestep to 0
TCL: Setting parameter alchLambda to 0.1
Info: NONBONDED TABLE R-SQUARED SPACING: 0.0625
Info: NONBONDED TABLE SIZE: 705 POINTS
TCL: Setting parameter alchLambda2 to 0.15000000000000002
Info: NONBONDED TABLE R-SQUARED SPACING: 0.0625
Info: NONBONDED TABLE SIZE: 705 POINTS
TCL: Running for 1500000 steps
ETITLE: TS BOND ANGLE DIHED IMPRP ELECT VDW BOUNDARY MISC KINETIC TOTAL TEMP POTENTIAL TOTALAVG TEMPAVG PRESSURE GPRESSURE VOLUME PRESSAVG GPRESSAVG
ENERGY: 0 1.7398 10.5048 17.0013 0.0000 -10681.5619 1505.1057 0.0000 0.0000 1764.6217 -7382.5885 305.1015 -9147.2102 -7382.5885 305.1015 444.6624 536.9260 29906.7210 444.6624 536.9260
ENERGY: 300000 4.1845 5.0913 11.9721 0.0000 -10632.6946 1480.4901 0.0000 0.0000 1689.1694 -7441.7872 292.0559 -9130.9566 -7424.5142 297.7436 572.8076 663.7232 29690.3389 659.8735 734.9116
ENERGY: 600000 6.9320 5.7493 13.4601 0.0000 -10550.4462 1323.4048 0.0000 0.0000 1748.0518 -7452.8483 302.2366 -9200.9000 -7404.8119 299.3486 -1084.0392 -937.9375 29617.4400 -1.6009 94.0314
ENERGY: 900000 7.2179 10.6697 12.4660 0.0000 -10696.9085 1535.7073 0.0000 0.0000 1694.0748 -7436.7729 292.9040 -9130.8476 -7400.3530 298.8987 962.5062 981.4976 29684.0961 116.2877 194.9443
ENERGY: 1200000 4.6047 13.8320 13.9096 0.0000 -10630.5167 1428.8776 0.0000 0.0000 1747.0599 -7422.2329 302.0651 -9169.2928 -7391.0801 299.6948 -174.5706 -123.0686 29750.7869 77.0104 149.2332
ENERGY: 1500000 2.8416 11.2263 13.9121 0.0000 -10599.4839 1465.6415 0.0000 0.0000 1741.4034 -7364.4589 301.0871 -9105.8624 -7382.2226 299.5292 100.7301 201.8717 30349.1753 52.7757 124.5696
TCL: Running FEP window   4: Lambda1 0.15000000000000002 Lambda2 0.2    [dLambda 0.04999999999999999]
TCL: Setting parameter firsttimestep to 0
TCL: Setting parameter alchLambda to 0.15000000000000002
Info: NONBONDED TABLE R-SQUARED SPACING: 0.0625
Info: NONBONDED TABLE SIZE: 705 POINTS
TCL: Setting parameter alchLambda2 to 0.2
Info: NONBONDED TABLE R-SQUARED SPACING: 0.0625
Info: NONBONDED TABLE SIZE: 705 POINTS
TCL: Running for 1500000 steps
ETITLE: TS BOND ANGLE DIHED IMPRP ELECT VDW BOUNDARY MISC KINETIC TOTAL TEMP POTENTIAL TOTALAVG TEMPAVG PRESSURE GPRESSURE VOLUME PRESSAVG GPRESSAVG
ENERGY: 0 2.8416 11.2263 13.9121 0.0000 -10599.4853 1467.1329 0.0000 0.0000 1740.5471 -7363.8253 300.9391 -9104.3723 -7363.8253 300.9391 136.7328 212.2450 30349.1753 136.7328 212.2450
ENERGY: 300000 4.4811 7.7272 15.2402 0.0000 -10549.0347 1397.3650 0.0000 0.0000 1739.4364 -7384.7847 300.7470 -9124.2211 -7374.1604 302.5865 -137.1324 -81.9307 29860.5189 146.3605 210.0700
ENERGY: 600000 2.9201 12.1921 11.9746 0.0000 -10455.0274 1358.4460 0.0000 0.0000 1744.2374 -7325.2572 301.5771 -9069.4946 -7364.5974 303.6751 -642.9148 -546.7273 30253.2215 -29.1540 42.1455
ENERGY: 900000 5.0189 15.4480 12.1547 0.0000 -10679.0368 1462.1670 0.0000 0.0000 1779.3169 -7404.9312 307.6423 -9184.2481 -7368.3084 304.4061 213.4026 288.3172 29651.2466 93.4155 165.3793
ENERGY: 1200000 3.0658 6.5070 15.0081 0.0000 -10544.6915 1399.9157 0.0000 0.0000 1781.6637 -7338.5311 308.0481 -9120.1949 -7370.9799 303.9987 -407.5527 -394.7429 30341.1062 55.1076 119.0032
ENERGY: 1500000 3.3431 7.1335 12.9782 0.0000 -10454.0241 1385.6853 0.0000 0.0000 1775.2015 -7269.6826 306.9308 -9044.8840 -7365.8454 303.1303 -220.9409 -133.6714 30301.1096 66.1101 134.4931
TCL: Running FEP window   5: Lambda1 0.2    Lambda2 0.25   [dLambda 0.04999999999999999]
TCL: Setting parameter firsttimestep to 0
TCL: Setting parameter alchLambda to 0.2
Info: NONBONDED TABLE R-SQUARED SPACING: 0.0625
Info: NONBONDED TABLE SIZE: 705 POINTS
TCL: Setting parameter alchLambda2 to 0.25
Info: NONBONDED TABLE R-SQUARED SPACING: 0.0625
Info: NONBONDED TABLE SIZE: 705 POINTS
TCL: Running for 1500000 steps
ETITLE: TS BOND ANGLE DIHED IMPRP ELECT VDW BOUNDARY MISC KINETIC TOTAL TEMP POTENTIAL TOTALAVG TEMPAVG PRESSURE GPRESSURE VOLUME PRESSAVG GPRESSAVG
ENERGY: 0 3.3431 7.1335 12.9782 0.0000 -10454.0236 1386.1105 0.0000 0.0000 1774.3549 -7270.1035 306.7844 -9044.4584 -7270.1035 306.7844 -232.0015 -129.0776 30301.1096 -232.0015 -129.0776
ENERGY: 300000 4.5188 5.7306 13.5956 0.0000 -10531.7809 1384.3613 0.0000 0.0000 1727.0308 -7396.5437 298.6021 -9123.5745 -7358.3617 300.6754 -338.3712 -300.7048 29968.9603 -104.6860 -35.4563
ENERGY: 600000 1.7667 12.4373 12.0970 0.0000 -10589.5796 1427.0950 0.0000 0.0000 1718.4028 -7417.7808 297.1103 -9136.1836 -7366.1044 300.7448 152.5922 266.9891 29517.9699 102.6603 176.3743
ENERGY: 900000 2.5733 23.5167 12.6023 0.0000 -10607.5348 1436.4267 0.0000 0.0000 1781.5352 -7350.8806 308.0259 -9132.4158 -7360.6247 302.3400 141.0556 213.7376 29473.8975 154.0050 217.0815
ENERGY: 1200000 5.8353 4.3344 11.7667 0.0000 -10521.1392 1378.9793 0.0000 0.0000 1757.1084 -7363.1152 303.8025 -9120.2235 -7359.3705 302.6955 -364.5263 -338.0361 29895.3091 70.0079 131.8994
ENERGY: 1500000 4.1519 14.5889 14.8254 0.0000 -10499.0685 1375.0129 0.0000 0.0000 1711.3957 -7379.0937 295.8988 -9090.4895 -7362.8138 302.4358 -568.4777 -493.6997 30302.3747 -19.5243 33.4588
TCL: Running FEP window   6: Lambda1 0.25   Lambda2 0.3    [dLambda 0.04999999999999999]
TCL: Setting parameter firsttimestep to 0
TCL: Setting parameter alchLambda to 0.25
Info: NONBONDED TABLE R-SQUARED SPACING: 0.0625
Info: NONBONDED TABLE SIZE: 705 POINTS
TCL: Setting parameter alchLambda2 to 0.3
Info: NONBONDED TABLE R-SQUARED SPACING: 0.0625
Info: NONBONDED TABLE SIZE: 705 POINTS
TCL: Running for 1500000 steps
ETITLE: TS BOND ANGLE DIHED IMPRP ELECT VDW BOUNDARY MISC KINETIC TOTAL TEMP POTENTIAL TOTALAVG TEMPAVG PRESSURE GPRESSURE VOLUME PRESSAVG GPRESSAVG
ENERGY: 0 4.1520 14.5889 14.8254 0.0000 -10499.0673 1375.4358 0.0000 0.0000 1710.5173 -7379.5479 295.7469 -9090.0653 -7379.5479 295.7469 -556.0268 -485.8151 30302.3747 -556.0268 -485.8151
ENERGY: 300000 3.2716 12.1152 17.9367 0.0000 -10558.2602 1451.0891 0.0000 0.0000 1702.8526 -7370.9951 294.4217 -9073.8477 -7377.8427 296.7794 204.3933 268.6847 30182.1429 110.3488 180.1294
ENERGY: 600000 8.2379 10.7630 16.4133 0.0000 -10537.2693 1409.4583 0.0000 0.0000 1729.1586 -7363.2382 298.9700 -9092.3968 -7374.9259 298.6266 8.7545 -33.3363 29707.7003 107.9052 165.6886
ENERGY: 900000 4.5253 9.9168 13.7412 0.0000 -10621.9802 1421.9076 0.0000 0.0000 1710.6941 -7461.1952 295.7775 -9171.8893 -7391.4202 299.8436 -113.9280 12.0624 29685.7598 173.2098 236.5546
ENERGY: 1200000 3.9354 5.8350 14.9431 0.0000 -10539.3319 1397.9530 0.0000 0.0000 1739.1892 -7377.4761 300.7043 -9116.6654 -7387.9640 299.9961 -266.7002 -132.5432 29819.3932 74.7927 143.2184
ENERGY: 1500000 3.7308 5.7692 14.7945 0.0000 -10441.8521 1382.8457 0.0000 0.0000 1740.5821 -7294.1298 300.9451 -9034.7119 -7391.0254 299.8080 -184.6954 -149.6011 30139.5628 28.6928 93.0241
TCL: Running FEP window   7: Lambda1 0.3    Lambda2 0.35   [dLambda 0.04999999999999999]
TCL: Setting parameter firsttimestep to 0
TCL: Setting parameter alchLambda to 0.3
Info: NONBONDED TABLE R-SQUARED SPACING: 0.0625
Info: NONBONDED TABLE SIZE: 705 POINTS
TCL: Setting parameter alchLambda2 to 0.35
Info: NONBONDED TABLE R-SQUARED SPACING: 0.0625
Info: NONBONDED TABLE SIZE: 705 POINTS
TCL: Running for 1500000 steps
ETITLE: TS BOND ANGLE DIHED IMPRP ELECT VDW BOUNDARY MISC KINETIC TOTAL TEMP POTENTIAL TOTALAVG TEMPAVG PRESSURE GPRESSURE VOLUME PRESSAVG GPRESSAVG
ENERGY: 0 3.7308 5.7692 14.7945 0.0000 -10441.8526 1383.8520 0.0000 0.0000 1739.7321 -7293.9739 300.7981 -9033.7060 -7293.9739 300.7981 -225.9953 -138.2443 30139.5628 -225.9953 -138.2443
ENERGY: 300000 4.7733 7.1099 13.3381 0.0000 -10406.7085 1364.9243 0.0000 0.0000 1775.2767 -7241.2861 306.9438 -9016.5628 -7315.3651 301.6771 -110.7238 -44.0119 30040.8100 -214.9794 -138.1965
ENERGY: 600000 3.9172 11.9241 10.7191 0.0000 -10543.1276 1382.5037 0.0000 0.0000 1693.6238 -7440.4398 292.8261 -9134.0636 -7350.8631 300.1711 -244.1398 -239.1293 30074.1025 -214.1882 -152.8174
ENERGY: 900000 3.7675 10.4491 14.1688 0.0000 -10640.0569 1504.0789 0.0000 0.0000 1705.7641 -7401.8285 294.9251 -9107.5926 -7364.6963 299.7603 1067.6856 1091.3923 29272.0919 -158.2222 -102.5891
ENERGY: 1200000 7.5843 11.7478 14.6783 0.0000 -10601.3226 1388.7201 0.0000 0.0000 1746.0168 -7432.5753 301.8848 -9178.5921 -7381.0675 299.8485 -564.7468 -441.3419 29782.2117 -218.6351 -155.1581
ENERGY: 1500000 5.2536 11.8380 13.4252 0.0000 -10495.0638 1386.0445 0.0000 0.0000 1702.4942 -7376.0083 294.3598 -9078.5025 -7378.3113 301.1177 -263.5557 -191.8421 29998.6786 -263.9052 -198.3302
TCL: Running FEP window   8: Lambda1 0.35   Lambda2 0.39999999999999997 [dLambda 0.04999999999999999]
TCL: Setting parameter firsttimestep to 0
TCL: Setting parameter alchLambda to 0.35
Info: NONBONDED TABLE R-SQUARED SPACING: 0.0625
Info: NONBONDED TABLE SIZE: 705 POINTS
TCL: Setting parameter alchLambda2 to 0.39999999999999997
Info: NONBONDED TABLE R-SQUARED SPACING: 0.0625
Info: NONBONDED TABLE SIZE: 705 POINTS
TCL: Running for 1500000 steps
ETITLE: TS BOND ANGLE DIHED IMPRP ELECT VDW BOUNDARY MISC KINETIC TOTAL TEMP POTENTIAL TOTALAVG TEMPAVG PRESSURE GPRESSURE VOLUME PRESSAVG GPRESSAVG
ENERGY: 0 5.2536 11.8380 13.4252 0.0000 -10495.0630 1387.2494 0.0000 0.0000 1701.6940 -7375.6028 294.2214 -9077.2968 -7375.6028 294.2214 -263.1658 -181.3697 29998.6786 -263.1658 -181.3697
ENERGY: 300000 2.7081 8.5693 12.8897 0.0000 -10540.4571 1352.6271 0.0000 0.0000 1771.0940 -7392.5689 306.2206 -9163.6629 -7364.4931 299.4987 -342.7355 -271.2752 29362.0247 -125.2124 -43.4907
ENERGY: 600000 3.7494 11.1610 12.2577 0.0000 -10506.8096 1423.2294 0.0000 0.0000 1725.5971 -7330.8149 298.3542 -9056.4120 -7370.6884 297.4883 285.2638 384.3591 29645.2649 -35.1404 51.1384
ENERGY: 900000 5.7478 14.7437 14.1833 0.0000 -10621.5294 1459.1682 0.0000 0.0000 1724.0086 -7403.6779 298.0796 -9127.6865 -7378.4664 297.5343 211.3186 322.8525 29797.1460 -101.4306 -17.5430
ENERGY: 1200000 2.6370 5.7618 12.7860 0.0000 -10535.6690 1373.6729 0.0000 0.0000 1695.9712 -7444.8401 293.2319 -9140.8113 -7381.3018 298.6895 -585.5943 -526.0694 30216.3521 -114.5300 -41.3584
ENERGY: 1500000 3.3674 7.2069 12.4757 0.0000 -10591.7450 1454.6890 0.0000 0.0000 1747.3102 -7366.6958 302.1084 -9114.0060 -7384.4952 298.4505 449.5387 493.3126 29746.8681 -43.2091 25.0323
TCL: Running FEP window   9: Lambda1 0.39999999999999997 Lambda2 0.44999999999999996 [dLambda 0.04999999999999999]
TCL: Setting parameter firsttimestep to 0
TCL: Setting parameter alchLambda to 0.39999999999999997
Info: NONBONDED TABLE R-SQUARED SPACING: 0.0625
Info: NONBONDED TABLE SIZE: 705 POINTS
TCL: Setting parameter alchLambda2 to 0.44999999999999996
Info: NONBONDED TABLE R-SQUARED SPACING: 0.0625
Info: NONBONDED TABLE SIZE: 705 POINTS
TCL: Running for 1500000 steps
ETITLE: TS BOND ANGLE DIHED IMPRP ELECT VDW BOUNDARY MISC KINETIC TOTAL TEMP POTENTIAL TOTALAVG TEMPAVG PRESSURE GPRESSURE VOLUME PRESSAVG GPRESSAVG
ENERGY: 0 3.3674 7.2069 12.4757 0.0000 -10591.7450 1454.6171 0.0000 0.0000 1746.4590 -7367.6190 301.9612 -9114.0780 -7367.6190 301.9612 423.0725 502.0694 29746.8681 423.0725 502.0694
ENERGY: 300000 4.4636 8.4053 14.2177 0.0000 -10511.8718 1381.3066 0.0000 0.0000 1729.3464 -7374.1323 299.0025 -9103.4787 -7348.5647 299.5157 -95.4945 1.9115 29505.1322 60.0151 137.3060
ENERGY: 600000 4.7700 7.5175 15.2982 0.0000 -10537.4950 1377.8814 0.0000 0.0000 1780.4365 -7351.5913 307.8359 -9132.0278 -7368.8542 301.6129 -328.6671 -280.3824 29751.4530 105.3026 177.5877
ENERGY: 900000 9.7293 3.0772 13.6199 0.0000 -10627.2105 1449.7701 0.0000 0.0000 1723.0182 -7427.9957 297.9083 -9151.0140 -7370.2225 301.5781 150.0359 222.8623 29861.5759 132.9564 204.8897
ENERGY: 1200000 5.9112 9.1898 14.1141 0.0000 -10578.1992 1409.9271 0.0000 0.0000 1783.7286 -7355.3285 308.4051 -9139.0571 -7370.3878 302.6586 122.0525 178.8799 29551.9430 113.4314 182.7582
ENERGY: 1500000 2.9342 7.7636 13.4005 0.0000 -10629.9893 1497.4430 0.0000 0.0000 1746.7405 -7361.7075 302.0099 -9108.4480 -7367.5367 302.7426 786.8471 822.0699 29896.3940 193.6068 257.9408
TCL: Running FEP window  10: Lambda1 0.44999999999999996 Lambda2 0.49999999999999994 [dLambda 0.04999999999999999]
TCL: Setting parameter firsttimestep to 0
TCL: Setting parameter alchLambda to 0.44999999999999996
Info: NONBONDED TABLE R-SQUARED SPACING: 0.0625
Info: NONBONDED TABLE SIZE: 705 POINTS
TCL: Setting parameter alchLambda2 to 0.49999999999999994
Info: NONBONDED TABLE R-SQUARED SPACING: 0.0625
Info: NONBONDED TABLE SIZE: 705 POINTS
TCL: Running for 1500000 steps
ETITLE: TS BOND ANGLE DIHED IMPRP ELECT VDW BOUNDARY MISC KINETIC TOTAL TEMP POTENTIAL TOTALAVG TEMPAVG PRESSURE GPRESSURE VOLUME PRESSAVG GPRESSAVG
ENERGY: 0 2.9342 7.7636 13.4005 0.0000 -10629.9901 1497.3963 0.0000 0.0000 1745.8726 -7362.6229 301.8598 -9108.4955 -7362.6229 301.8598 740.3163 829.4423 29896.3940 740.3163 829.4423
ENERGY: 300000 4.9680 5.9696 16.7954 0.0000 -10495.1425 1353.0993 0.0000 0.0000 1793.6283 -7320.6820 310.1168 -9114.3103 -7361.5280 306.0620 -559.0003 -498.1975 29913.3858 -74.5248 28.7783
ENERGY: 600000 7.7134 13.6790 12.6003 0.0000 -10440.8007 1326.7743 0.0000 0.0000 1756.5574 -7323.4765 303.7072 -9080.0338 -7339.2024 307.3204 -679.2296 -646.6818 29929.3433 -166.8251 -78.2001
ENERGY: 900000 3.4226 9.3761 14.8997 0.0000 -10438.2276 1321.3257 0.0000 0.0000 1741.1564 -7348.0472 301.0444 -9089.2036 -7350.7824 305.8961 -659.1754 -532.8219 29714.7249 -276.3464 -188.2867
ENERGY: 1200000 5.5945 10.3678 13.7268 0.0000 -10588.1810 1432.5973 0.0000 0.0000 1699.6724 -7426.2222 293.8719 -9125.8946 -7368.0696 304.4262 137.6197 234.9193 30083.9496 -95.2379 -16.2100
ENERGY: 1500000 2.2444 7.6005 14.0982 0.0000 -10593.8842 1450.0581 0.0000 0.0000 1680.3761 -7439.5068 290.5356 -9119.8829 -7368.3562 303.1568 306.2828 302.4033 29751.7986 -62.6085 7.4946
TCL: Running FEP window  11: Lambda1 0.49999999999999994 Lambda2 0.5499999999999999 [dLambda 0.04999999999999999]
TCL: Setting parameter firsttimestep to 0
TCL: Setting parameter alchLambda to 0.49999999999999994
Info: NONBONDED TABLE R-SQUARED SPACING: 0.0625
Info: NONBONDED TABLE SIZE: 705 POINTS
TCL: Setting parameter alchLambda2 to 0.5499999999999999
Info: NONBONDED TABLE R-SQUARED SPACING: 0.0625
Info: NONBONDED TABLE SIZE: 705 POINTS
TCL: Running for 1500000 steps
ETITLE: TS BOND ANGLE DIHED IMPRP ELECT VDW BOUNDARY MISC KINETIC TOTAL TEMP POTENTIAL TOTALAVG TEMPAVG PRESSURE GPRESSURE VOLUME PRESSAVG GPRESSAVG
ENERGY: 0 2.2444 7.6005 14.0983 0.0000 -10593.8835 1450.5431 0.0000 0.0000 1679.5344 -7439.8629 290.3900 -9119.3973 -7439.8629 290.3900 230.8989 312.5096 29751.7986 230.8989 312.5096
ENERGY: 300000 3.6477 11.3220 13.3471 0.0000 -10678.7601 1548.1050 0.0000 0.0000 1721.6631 -7380.6752 297.6740 -9102.3383 -7399.8669 297.8438 1276.9339 1365.8565 29429.8464 389.0131 466.5878
ENERGY: 600000 3.3192 7.5969 16.2626 0.0000 -10481.8359 1414.5312 0.0000 0.0000 1764.5133 -7275.6128 305.0828 -9040.1261 -7355.7011 301.8300 -16.7964 43.3067 30185.9285 124.5386 204.8514
ENERGY: 900000 7.3495 7.0962 13.4730 0.0000 -10636.3671 1420.8992 0.0000 0.0000 1681.8114 -7505.7378 290.7837 -9187.5492 -7393.5237 299.9837 -404.9421 -324.7934 30154.8838 51.4970 137.1914
ENERGY: 1200000 2.6503 6.2114 14.0996 0.0000 -10566.2201 1410.0011 0.0000 0.0000 1782.6215 -7350.6362 308.2137 -9133.2577 -7389.1374 301.1584 61.8413 118.1382 29877.6307 -43.2630 43.9834
ENERGY: 1500000 5.5902 13.6793 13.2599 0.0000 -10651.9327 1455.6089 0.0000 0.0000 1757.1156 -7406.6789 303.8037 -9163.7945 -7385.4454 301.7906 344.7915 457.0526 29696.3681 -14.4916 76.5076
TCL: Running FEP window  12: Lambda1 0.5499999999999999 Lambda2 0.6    [dLambda 0.050000000000000044]
TCL: Setting parameter firsttimestep to 0
TCL: Setting parameter alchLambda to 0.5499999999999999
Info: NONBONDED TABLE R-SQUARED SPACING: 0.0625
Info: NONBONDED TABLE SIZE: 705 POINTS
TCL: Setting parameter alchLambda2 to 0.6
Info: NONBONDED TABLE R-SQUARED SPACING: 0.0625
Info: NONBONDED TABLE SIZE: 705 POINTS
TCL: Running for 1500000 steps
ETITLE: TS BOND ANGLE DIHED IMPRP ELECT VDW BOUNDARY MISC KINETIC TOTAL TEMP POTENTIAL TOTALAVG TEMPAVG PRESSURE GPRESSURE VOLUME PRESSAVG GPRESSAVG
ENERGY: 0 5.5902 13.6793 13.2599 0.0000 -10651.6338 1455.2069 0.0000 0.0000 1756.2706 -7407.6268 303.6576 -9163.8975 -7407.6268 303.6576 366.1793 462.8955 29696.3681 366.1793 462.8955
ENERGY: 300000 7.1933 7.2924 13.5441 0.0000 -10585.0686 1415.8402 0.0000 0.0000 1729.4166 -7411.7820 299.0146 -9141.1987 -7390.0753 303.1013 -218.8445 -174.6835 30077.7939 -283.7859 -196.5726
ENERGY: 600000 1.9509 9.9041 15.0879 0.0000 -10519.5350 1367.4372 0.0000 0.0000 1780.2995 -7344.8554 307.8122 -9125.1549 -7377.3784 302.9948 -226.1538 -205.9441 29829.9390 -8.9173 54.2161
ENERGY: 900000 3.1482 6.2976 14.3317 0.0000 -10408.2705 1237.4965 0.0000 0.0000 1727.4114 -7419.5851 298.6679 -9146.9965 -7375.6679 302.4470 -1537.3909 -1332.0329 29837.7497 -207.2736 -132.9925
ENERGY: 1200000 6.5579 5.6975 14.4079 0.0000 -10527.9179 1348.2982 0.0000 0.0000 1681.4009 -7471.5556 290.7127 -9152.9565 -7390.5830 300.8001 -849.6421 -797.5686 30105.9730 -303.5248 -229.0202
ENERGY: 1500000 3.3843 9.6380 13.6102 0.0000 -10510.0311 1410.2720 0.0000 0.0000 1806.6695 -7266.4571 312.3716 -9073.1266 -7391.5669 301.0232 262.6293 306.3554 30015.2371 -253.8881 -183.0591
TCL: Running FEP window  13: Lambda1 0.6    Lambda2 0.65   [dLambda 0.050000000000000044]
TCL: Setting parameter firsttimestep to 0
TCL: Setting parameter alchLambda to 0.6
Info: NONBONDED TABLE R-SQUARED SPACING: 0.0625
Info: NONBONDED TABLE SIZE: 705 POINTS
TCL: Setting parameter alchLambda2 to 0.65
Info: NONBONDED TABLE R-SQUARED SPACING: 0.0625
Info: NONBONDED TABLE SIZE: 705 POINTS
TCL: Running for 1500000 steps
ETITLE: TS BOND ANGLE DIHED IMPRP ELECT VDW BOUNDARY MISC KINETIC TOTAL TEMP POTENTIAL TOTALAVG TEMPAVG PRESSURE GPRESSURE VOLUME PRESSAVG GPRESSAVG
ENERGY: 0 3.3843 9.6380 13.6102 0.0000 -10510.6528 1409.8798 0.0000 0.0000 1805.8010 -7268.3395 312.2214 -9074.1405 -7268.3395 312.2214 231.3996 314.5944 30015.2371 231.3996 314.5944
ENERGY: 300000 2.2384 8.0067 15.9826 0.0000 -10548.4951 1420.9486 0.0000 0.0000 1776.9231 -7324.3957 307.2284 -9101.3188 -7346.3560 305.2261 137.3583 208.1523 29842.2336 -126.0031 -41.3146
ENERGY: 600000 3.4987 15.3569 13.1841 0.0000 -10488.9848 1418.1954 0.0000 0.0000 1747.0864 -7291.6634 302.0697 -9038.7498 -7351.5922 303.1100 380.3636 429.3701 29617.3840 -62.3604 21.2211
ENERGY: 900000 4.0224 8.5473 12.0944 0.0000 -10605.4899 1429.5120 0.0000 0.0000 1702.6522 -7448.6616 294.3871 -9151.3138 -7358.5338 302.6394 101.4299 180.6629 29523.4854 -101.7489 -19.5033
ENERGY: 1200000 4.4263 12.3815 13.5442 0.0000 -10474.4377 1336.3565 0.0000 0.0000 1734.8377 -7372.8914 299.9519 -9107.7291 -7360.0352 301.6147 -614.0407 -548.1711 30169.0958 -125.7583 -46.8307
ENERGY: 1500000 1.8670 16.6719 13.0098 0.0000 -10539.0569 1380.6518 0.0000 0.0000 1744.3576 -7382.4989 301.5979 -9126.8564 -7367.8724 301.2081 108.7873 136.1642 29326.9002 -103.5168 -29.9523
TCL: Running FEP window  14: Lambda1 0.65   Lambda2 0.7000000000000001 [dLambda 0.050000000000000044]
TCL: Setting parameter firsttimestep to 0
TCL: Setting parameter alchLambda to 0.65
Info: NONBONDED TABLE R-SQUARED SPACING: 0.0625
Info: NONBONDED TABLE SIZE: 705 POINTS
TCL: Setting parameter alchLambda2 to 0.7000000000000001
Info: NONBONDED TABLE R-SQUARED SPACING: 0.0625
Info: NONBONDED TABLE SIZE: 705 POINTS
TCL: Running for 1500000 steps
ETITLE: TS BOND ANGLE DIHED IMPRP ELECT VDW BOUNDARY MISC KINETIC TOTAL TEMP POTENTIAL TOTALAVG TEMPAVG PRESSURE GPRESSURE VOLUME PRESSAVG GPRESSAVG
ENERGY: 0 1.8670 16.6719 13.0098 0.0000 -10540.2979 1380.0488 0.0000 0.0000 1743.4830 -7385.2174 301.4467 -9128.7004 -7385.2174 301.4467 56.4366 136.0216 29326.9002 56.4366 136.0216
ENERGY: 300000 4.7539 9.8006 15.0965 0.0000 -10464.8207 1327.3692 0.0000 0.0000 1708.9367 -7398.8637 295.4736 -9107.8004 -7396.7489 297.0994 -792.0516 -719.4009 29781.9212 -35.1523 55.7497
ENERGY: 600000 5.2591 6.0056 12.0200 0.0000 -10612.3444 1401.2003 0.0000 0.0000 1727.7368 -7460.1226 298.7242 -9187.8594 -7389.4594 300.6443 -525.9896 -406.1025 29919.0277 -92.9803 -23.0558
ENERGY: 900000 5.8533 9.7091 14.7130 0.0000 -10482.2925 1355.5345 0.0000 0.0000 1708.3341 -7388.1484 295.3695 -9096.4825 -7391.5267 300.6572 -242.7667 -145.8452 29392.6860 -35.0648 38.9332
ENERGY: 1200000 2.8855 5.6568 12.7694 0.0000 -10643.3065 1477.9647 0.0000 0.0000 1743.4734 -7400.5568 301.4450 -9144.0301 -7395.1168 301.1602 549.9201 584.0160 29790.2940 -37.2993 25.7149
ENERGY: 1500000 2.4336 6.8452 22.7686 0.0000 -10630.4425 1448.8835 0.0000 0.0000 1712.3429 -7437.1687 296.0626 -9149.5115 -7390.5624 301.4234 249.8371 363.8571 29658.7425 -22.1034 40.4861
TCL: Running FEP window  15: Lambda1 0.7000000000000001 Lambda2 0.7500000000000001 [dLambda 0.050000000000000044]
TCL: Setting parameter firsttimestep to 0
TCL: Setting parameter alchLambda to 0.7000000000000001
Info: NONBONDED TABLE R-SQUARED SPACING: 0.0625
Info: NONBONDED TABLE SIZE: 705 POINTS
TCL: Setting parameter alchLambda2 to 0.7500000000000001
Info: NONBONDED TABLE R-SQUARED SPACING: 0.0625
Info: NONBONDED TABLE SIZE: 705 POINTS
TCL: Running for 1500000 steps
ETITLE: TS BOND ANGLE DIHED IMPRP ELECT VDW BOUNDARY MISC KINETIC TOTAL TEMP POTENTIAL TOTALAVG TEMPAVG PRESSURE GPRESSURE VOLUME PRESSAVG GPRESSAVG
ENERGY: 0 2.4336 6.8452 22.7686 0.0000 -10631.8557 1448.6804 0.0000 0.0000 1711.4671 -7439.6608 295.9112 -9151.1278 -7439.6608 295.9112 280.2095 368.4366 29658.7425 280.2095 368.4366
ENERGY: 300000 2.0704 7.6016 11.9981 0.0000 -10553.7266 1359.5204 0.0000 0.0000 1720.3049 -7452.2312 297.4392 -9172.5361 -7414.2811 298.5654 -277.1744 -327.2131 29506.2991 17.4824 53.0217
ENERGY: 600000 3.1508 5.5984 10.2468 0.0000 -10565.5047 1385.1766 0.0000 0.0000 1736.7989 -7424.5332 300.2910 -9161.3321 -7387.2741 299.2926 -229.3060 -211.9185 29863.0594 146.0775 168.6399
ENERGY: 900000 5.2698 10.0442 15.3430 0.0000 -10551.2917 1388.5084 0.0000 0.0000 1735.0338 -7397.0924 299.9858 -9132.1262 -7386.4525 299.2003 -307.6819 -226.6778 29941.9929 42.5059 82.1764
ENERGY: 1200000 2.3944 9.9255 14.1582 0.0000 -10543.7331 1390.7615 0.0000 0.0000 1752.5593 -7373.9343 303.0160 -9126.4936 -7394.6335 298.6569 -149.6284 -141.6418 29932.5436 -34.2832 5.7729
ENERGY: 1500000 3.2445 5.7706 13.6877 0.0000 -10512.9411 1413.7250 0.0000 0.0000 1768.9658 -7307.5475 305.8526 -9076.5133 -7377.7826 300.1338 188.8798 232.3397 30351.8955 43.0370 81.3581
TCL: Running FEP window  16: Lambda1 0.7500000000000001 Lambda2 0.8000000000000002 [dLambda 0.050000000000000044]
TCL: Setting parameter firsttimestep to 0
TCL: Setting parameter alchLambda to 0.7500000000000001
Info: NONBONDED TABLE R-SQUARED SPACING: 0.0625
Info: NONBONDED TABLE SIZE: 705 POINTS
TCL: Setting parameter alchLambda2 to 0.8000000000000002
Info: NONBONDED TABLE R-SQUARED SPACING: 0.0625
Info: NONBONDED TABLE SIZE: 705 POINTS
TCL: Running for 1500000 steps
ETITLE: TS BOND ANGLE DIHED IMPRP ELECT VDW BOUNDARY MISC KINETIC TOTAL TEMP POTENTIAL TOTALAVG TEMPAVG PRESSURE GPRESSURE VOLUME PRESSAVG GPRESSAVG
ENERGY: 0 3.2445 5.7706 13.6877 0.0000 -10514.3615 1414.3041 0.0000 0.0000 1768.1097 -7309.2449 305.7046 -9077.3546 -7309.2449 305.7046 175.2275 247.6646 30351.8955 175.2275 247.6646
ENERGY: 300000 4.8722 4.9400 15.0806 0.0000 -10500.2502 1311.3813 0.0000 0.0000 1648.4869 -7515.4891 285.0219 -9163.9760 -7388.1565 298.4350 -803.8576 -808.5474 29936.3616 -211.1032 -165.3881
ENERGY: 600000 4.6152 9.8306 14.9922 0.0000 -10450.9293 1360.1615 0.0000 0.0000 1740.6087 -7320.7211 300.9497 -9061.3298 -7356.7521 300.4371 -546.7148 -433.8927 30420.4317 -244.4601 -168.2606
ENERGY: 900000 7.2578 7.0725 11.9297 0.0000 -10726.6346 1505.1930 0.0000 0.0000 1736.7141 -7458.4674 300.2763 -9195.1816 -7371.9962 299.0667 415.4353 478.9184 29484.4818 -212.5173 -136.1691
ENERGY: 1200000 3.7111 9.5574 10.9826 0.0000 -10707.6820 1529.6152 0.0000 0.0000 1668.1988 -7485.6169 288.4301 -9153.8157 -7389.0324 298.2397 630.3185 667.1529 30091.6404 -174.0003 -103.9994
ENERGY: 1500000 2.9483 4.8812 14.6595 0.0000 -10559.4020 1377.4169 0.0000 0.0000 1710.6095 -7448.8866 295.7629 -9159.4961 -7394.1057 298.9070 -359.4041 -267.2204 29944.4465 -82.2814 -14.1504
TCL: Running FEP window  17: Lambda1 0.8000000000000002 Lambda2 0.8500000000000002 [dLambda 0.050000000000000044]
TCL: Setting parameter firsttimestep to 0
TCL: Setting parameter alchLambda to 0.8000000000000002
Info: NONBONDED TABLE R-SQUARED SPACING: 0.0625
Info: NONBONDED TABLE SIZE: 705 POINTS
TCL: Setting parameter alchLambda2 to 0.8500000000000002
Info: NONBONDED TABLE R-SQUARED SPACING: 0.0625
Info: NONBONDED TABLE SIZE: 705 POINTS
TCL: Running for 1500000 steps
ETITLE: TS BOND ANGLE DIHED IMPRP ELECT VDW BOUNDARY MISC KINETIC TOTAL TEMP POTENTIAL TOTALAVG TEMPAVG PRESSURE GPRESSURE VOLUME PRESSAVG GPRESSAVG
ENERGY: 0 2.9483 4.8812 14.6595 0.0000 -10561.2445 1378.9850 0.0000 0.0000 1709.7709 -7449.9997 295.6179 -9159.7706 -7449.9997 295.6179 -326.3847 -238.6077 29944.4465 -326.3847 -238.6077
ENERGY: 300000 4.1120 7.0553 13.2813 0.0000 -10499.2826 1296.6409 0.0000 0.0000 1784.4054 -7393.7877 308.5221 -9178.1931 -7402.9776 302.8210 -1090.2774 -1093.8037 29971.9726 -61.6243 -19.2294
ENERGY: 600000 5.1567 14.6163 14.0245 0.0000 -10750.7991 1546.1202 0.0000 0.0000 1749.4183 -7421.4631 302.4729 -9170.8814 -7401.3209 301.9021 1103.5030 1166.8848 29812.1222 99.7197 137.5291
ENERGY: 900000 2.2982 6.6343 16.8297 0.0000 -10419.3263 1336.0203 0.0000 0.0000 1701.9932 -7355.5506 294.2731 -9057.5438 -7387.9500 300.1223 -638.8894 -580.9465 30174.0206 -15.1358 34.6067
ENERGY: 1200000 4.5331 6.5560 14.1555 0.0000 -10597.9045 1411.0505 0.0000 0.0000 1718.8895 -7442.7198 297.1945 -9161.6093 -7390.3292 299.8716 -361.7172 -321.9769 30008.4990 -180.2391 -135.9598
ENERGY: 1500000 6.2719 6.0754 16.5187 0.0000 -10687.1712 1463.8207 0.0000 0.0000 1732.0024 -7462.4822 299.4617 -9194.4845 -7395.2671 300.2692 60.2919 114.5941 29790.1748 -255.5235 -202.1897
TCL: Running FEP window  18: Lambda1 0.8500000000000002 Lambda2 0.9000000000000002 [dLambda 0.050000000000000044]
TCL: Setting parameter firsttimestep to 0
TCL: Setting parameter alchLambda to 0.8500000000000002
Info: NONBONDED TABLE R-SQUARED SPACING: 0.0625
Info: NONBONDED TABLE SIZE: 705 POINTS
TCL: Setting parameter alchLambda2 to 0.9000000000000002
Info: NONBONDED TABLE R-SQUARED SPACING: 0.0625
Info: NONBONDED TABLE SIZE: 705 POINTS
TCL: Running for 1500000 steps
ETITLE: TS BOND ANGLE DIHED IMPRP ELECT VDW BOUNDARY MISC KINETIC TOTAL TEMP POTENTIAL TOTALAVG TEMPAVG PRESSURE GPRESSURE VOLUME PRESSAVG GPRESSAVG
ENERGY: 0 6.2719 6.0754 16.5187 0.0000 -10689.5968 1464.7952 0.0000 0.0000 1731.0906 -7464.8451 299.3040 -9195.9357 -7464.8451 299.3040 35.9807 136.0502 29790.1748 35.9807 136.0502
ENERGY: 300000 8.5185 7.6794 14.4313 0.0000 -10701.5491 1487.4320 0.0000 0.0000 1732.5073 -7450.9807 299.5490 -9183.4880 -7405.6326 299.3603 868.0563 809.8923 29413.1831 139.1221 195.4245
ENERGY: 600000 2.4090 6.7649 17.4112 0.0000 -10556.5425 1380.2596 0.0000 0.0000 1736.5926 -7413.1052 300.2553 -9149.6979 -7405.2398 299.9453 -541.9360 -470.6289 30333.0975 11.5563 77.5617
ENERGY: 900000 4.0107 10.1150 14.2554 0.0000 -10571.3206 1381.9194 0.0000 0.0000 1754.1837 -7406.8363 303.2968 -9161.0200 -7418.1591 298.6970 -390.8086 -331.9994 30065.9963 -27.0633 38.0466
ENERGY: 1200000 2.6119 9.0830 13.8345 0.0000 -10593.3648 1407.5923 0.0000 0.0000 1736.1508 -7424.0923 300.1789 -9160.2431 -7420.5268 298.7440 -91.9534 -21.9641 29626.5607 -79.7489 -15.9577
ENERGY: 1500000 5.9014 10.7122 12.3999 0.0000 -10564.0714 1432.0032 0.0000 0.0000 1701.9471 -7401.1076 294.2652 -9103.0547 -7413.7280 299.4454 276.7737 353.2503 29597.5545 -12.4905 56.2286
TCL: Running FEP window  19: Lambda1 0.9000000000000002 Lambda2 0.9500000000000003 [dLambda 0.050000000000000044]
TCL: Setting parameter firsttimestep to 0
TCL: Setting parameter alchLambda to 0.9000000000000002
Info: NONBONDED TABLE R-SQUARED SPACING: 0.0625
Info: NONBONDED TABLE SIZE: 705 POINTS
TCL: Setting parameter alchLambda2 to 0.9500000000000003
Info: NONBONDED TABLE R-SQUARED SPACING: 0.0625
Info: NONBONDED TABLE SIZE: 705 POINTS
TCL: Running for 1500000 steps
ETITLE: TS BOND ANGLE DIHED IMPRP ELECT VDW BOUNDARY MISC KINETIC TOTAL TEMP POTENTIAL TOTALAVG TEMPAVG PRESSURE GPRESSURE VOLUME PRESSAVG GPRESSAVG
ENERGY: 0 5.9014 10.7122 12.3999 0.0000 -10566.7769 1433.9212 0.0000 0.0000 1701.0840 -7402.7582 294.1159 -9103.8421 -7402.7582 294.1159 312.5489 387.6289 29597.5545 312.5489 387.6289
ENERGY: 300000 2.8795 7.0244 16.3945 0.0000 -10670.0480 1493.4470 0.0000 0.0000 1762.5210 -7387.7816 304.7383 -9150.3025 -7435.5364 300.5207 976.9026 1064.7969 29623.9889 265.9718 354.2283
ENERGY: 600000 1.2958 6.0634 13.0221 0.0000 -10580.4448 1429.1943 0.0000 0.0000 1755.5132 -7375.3559 303.5267 -9130.8691 -7415.9319 300.4528 101.3818 182.0411 30107.7974 150.7867 245.7491
ENERGY: 900000 3.9825 5.7677 14.8138 0.0000 -10583.5240 1440.3137 0.0000 0.0000 1714.4376 -7404.2088 296.4248 -9118.6464 -7408.2137 299.5670 376.2870 472.5640 29877.1360 -4.0009 76.1672
ENERGY: 1200000 3.4200 6.8654 15.6485 0.0000 -10637.7386 1464.2417 0.0000 0.0000 1784.1950 -7363.3680 308.4857 -9147.5630 -7401.0850 300.5279 531.2597 587.2237 29608.5207 -4.1612 65.3774
ENERGY: 1500000 4.3396 8.8608 14.0716 0.0000 -10636.4574 1387.2043 0.0000 0.0000 1708.1270 -7513.8541 295.3337 -9221.9811 -7410.2151 300.5177 -445.5933 -313.7131 29748.7106 43.2579 115.4808
TCL: Running FEP window  20: Lambda1 0.9500000000000003 Lambda2 1.0    [dLambda 0.04999999999999971]
TCL: Setting parameter firsttimestep to 0
TCL: Setting parameter alchLambda to 0.9500000000000003
Info: NONBONDED TABLE R-SQUARED SPACING: 0.0625
Info: NONBONDED TABLE SIZE: 705 POINTS
TCL: Setting parameter alchLambda2 to 1.0
Info: NONBONDED TABLE R-SQUARED SPACING: 0.0625
Info: NONBONDED TABLE SIZE: 705 POINTS
TCL: Running for 1500000 steps
ETITLE: TS BOND ANGLE DIHED IMPRP ELECT VDW BOUNDARY MISC KINETIC TOTAL TEMP POTENTIAL TOTALAVG TEMPAVG PRESSURE GPRESSURE VOLUME PRESSAVG GPRESSAVG
ENERGY: 0 4.3396 8.8608 14.0716 0.0000 -10638.4848 1388.4738 0.0000 0.0000 1707.2331 -7515.5060 295.1791 -9222.7391 -7515.5060 295.1791 -381.8699 -288.6713 29748.7106 -381.8699 -288.6713
ENERGY: 300000 2.4966 11.1389 17.8267 0.0000 -10528.4231 1384.4925 0.0000 0.0000 1740.5141 -7371.9544 300.9334 -9112.4685 -7418.9924 298.9856 11.3081 72.1528 29789.2587 -9.3480 66.2289
ENERGY: 600000 5.3444 7.6132 13.9704 0.0000 -10616.9332 1377.1071 0.0000 0.0000 1758.6055 -7454.2925 304.0613 -9212.8980 -7419.2386 300.8829 -531.5157 -471.2064 30056.1622 70.0017 154.2222
ENERGY: 900000 5.9761 9.2892 14.8999 0.0000 -10669.9710 1459.4372 0.0000 0.0000 1688.7671 -7491.6015 291.9863 -9180.3686 -7434.8958 298.9091 156.3042 259.1153 29571.7639 -36.9004 53.4378
ENERGY: 1200000 3.4363 9.1730 13.0120 0.0000 -10515.5609 1394.1740 0.0000 0.0000 1696.7549 -7399.0107 293.3674 -9095.7656 -7417.3194 299.2513 205.8886 201.1114 29659.1810 -21.5663 58.3599
ENERGY: 1500000 3.4282 9.3576 12.9324 0.0000 -10610.8422 1450.1744 0.0000 0.0000 1702.4813 -7432.4683 294.3575 -9134.9497 -7420.5564 298.9704 419.9487 523.1072 29686.0301 13.2519 90.1569
TCL: Exiting due to exit command.
