Info: SIMULATION PARAMETERS:
Info: TIMESTEP               2
Info: NUMBER OF STEPS        0
Info: STEPS PER CYCLE        10
Info: PERIODIC CELL BASIS 1  31.9323 0 0
Info: PERIODIC CELL BASIS 2  0 29.4001 0
Info: PERIODIC CELL BASIS 3  0 0 32.1145
Info: PERIODIC CELL CENTER   0 0 0
Info: WRAPPING WATERS AROUND PERIODIC BOUNDARIES ON OUTPUT.
Info: WRAPPING ALL CLUSTERS AROUND PERIODIC BOUNDARIES ON OUTPUT.
Info: FIRST LDB TIMESTEP     50
Info: LAST LDB TIMESTEP     -1
Info: HOM BACKGROUND SCALING 1
Info: PME BACKGROUND SCALING 1
Info: MIN ATOMS PER PATCH    40
Info: EMPTY PATCH LOAD       40 ATOMS
Info: VELOCITY FILE          mobley_8883511_equil.vel
Info: CENTER OF MASS MOVING INITIALLY? NO
Info: DIELECTRIC             1
Info: EXCLUDE                SCALED ONE-FOUR
Info: 1-4 ELECTROSTATICS SCALED BY 0.833333
Info: MODIFIED 1-4 VDW PARAMETERS WILL BE USED
Info: DCD FILENAME           mobley_8883511_prod.dcd
Info: DCD FREQUENCY          100000
Info: DCD FIRST STEP         100000
Info: DCD FILE WILL CONTAIN UNIT CELL DATA
Info: XST FILENAME           mobley_8883511_prod.xst
Info: XST FREQUENCY          100000
Info: NO VELOCITY DCD OUTPUT
Info: NO FORCE DCD OUTPUT
Info: OUTPUT FILENAME        mobley_8883511_prod
Info: BINARY OUTPUT FILES WILL BE USED
Info: RESTART FILENAME       mobley_8883511_prod.restart
Info: RESTART FREQUENCY      100000
Info: BINARY RESTART FILES WILL BE USED
Info: CUTOFF                 9
Info: PAIRLIST DISTANCE      11
Info: PAIRLIST SHRINK RATE   0.01
Info: PAIRLIST GROW RATE     0.01
Info: PAIRLIST TRIGGER       0.3
Info: PAIRLISTS PER CYCLE    2
Info: PAIRLISTS ENABLED
Info: MARGIN                 2
Info: HYDROGEN GROUP CUTOFF  2.5
Info: PATCH DIMENSION        15.5
Info: ENERGY OUTPUT STEPS    100000
Info: ENERGY EVALUATION STEPS    100000
Info: OUTPUT ENERGY PRECISION 4
Info: CROSSTERM ENERGY INCLUDED IN DIHEDRAL
Info: TIMING OUTPUT STEPS    1000000
Info: PRESSURE OUTPUT STEPS  100000
Info: ALCHEMICAL FEP ON
Info: FEP CURRENT LAMBDA VALUE     0
Info: FEP COMPARISON LAMBDA VALUE  0.05
Info: FEP INTRA-ALCHEMICAL NON-BONDED INTERACTIONS WILL BE RETAINED
Info: FEP INTRA-ALCHEMICAL BONDED INTERACTIONS WILL BE RETAINED
Info: FEP VDW SHIFTING COEFFICIENT 5
Info: FEP ELEC. ACTIVE FOR ANNIHILATED PARTICLES BETWEEN LAMBDA = 0 AND LAMBDA = 0.5
Info: FEP ELEC. ACTIVE FOR EXNIHILATED PARTICLES BETWEEN LAMBDA = 0.5 AND LAMBDA = 1
Info: FEP VDW ACTIVE FOR ANNIHILATED PARTICLES BETWEEN LAMBDA = 0 AND LAMBDA = 1
Info: FEP VDW ACTIVE FOR EXNIHILATED PARTICLES BETWEEN LAMBDA = 0 AND LAMBDA = 1
Info: FEP BOND ACTIVE FOR ANNIHILATED PARTICLES BETWEEN LAMBDA = 1 AND LAMBDA = 1
Info: FEP BOND ACTIVE FOR EXNIHILATED PARTICLES BETWEEN LAMBDA = 0 AND LAMBDA = 0
Info: LANGEVIN DYNAMICS ACTIVE
Info: LANGEVIN TEMPERATURE   300
Info: LANGEVIN USING BBK INTEGRATOR
Info: LANGEVIN DAMPING COEFFICIENT IS 1 INVERSE PS
Info: LANGEVIN DYNAMICS APPLIED TO HYDROGENS
Info: LANGEVIN PISTON PRESSURE CONTROL ACTIVE
Info:        TARGET PRESSURE IS 1.01325 BAR
Info:     OSCILLATION PERIOD IS 50 FS
Info:             DECAY TIME IS 25 FS
Info:     PISTON TEMPERATURE IS 300 K
Info:       PRESSURE CONTROL IS GROUP-BASED
Info:    INITIAL STRAIN RATE IS -0.000776557 -0.000776557 -0.000776557
Info:       CELL FLUCTUATION IS ISOTROPIC
Info: PARTICLE MESH EWALD (PME) ACTIVE
Info: PME TOLERANCE               1e-06
Info: PME EWALD COEFFICIENT       0.348832
Info: PME INTERPOLATION ORDER     4
Info: PME GRID DIMENSIONS         32 32 36
Info: PME MAXIMUM GRID SPACING    1
Info: PME CALCULATION WILL BE PERFORMED ON GPU
Info: FULL ELECTROSTATIC EVALUATION FREQUENCY      2
Info: USING VERLET I (r-RESPA) MTS SCHEME.
Info: C1 SPLITTING OF LONG RANGE ELECTROSTATICS
Info: PLACING ATOMS IN PATCHES BY HYDROGEN GROUPS
Info: RIGID BONDS TO HYDROGEN : ALL
Info:         ERROR TOLERANCE : 1e-08
Info:          MAX ITERATIONS : 100
Info: RIGID WATER USING SETTLE ALGORITHM
Info: RANDOM NUMBER SEED     1743774964
Info: USE HYDROGEN BONDS?    NO
Info: Using AMBER format force field!
Info: AMBER PARM FILE        mobley_8883511.prmtop
Info: COORDINATE PDB         mobley_8883511.pdb
Info: Exclusions will be read from PARM file!
Info: SCNB (VDW SCALING)     2
Info: USING ARITHMETIC MEAN TO COMBINE L-J SIGMA PARAMETERS
Info: BINARY COORDINATES     mobley_8883511_equil.coor
Info: SUMMARY OF PARAMETERS:
Info: 9 BONDS
Info: 9 ANGLES
Info:   9 HARMONIC
Info:   0 COSINE-BASED
Info: 5 DIHEDRAL
Info: 0 IMPROPER
Info: 0 CROSSTERM
Info: 0 VDW
Info: 36 VDW_PAIRS
Info: 0 NBTHOLE_PAIRS
Info: To read alchdata from file: mobley_8883511.pdb
Info: To read alchflag data from column: 5
Info: STRUCTURE SUMMARY:
Info: 2966 ATOMS
Info: 2966 BONDS
Info: 27 ANGLES
Info: 41 DIHEDRALS
Info: 0 IMPROPERS
Info: 0 CROSSTERMS
Info: 3024 EXCLUSIONS
Info: 2957 RIGID BONDS
Info: ALCH: 0 ATOMS TO DISAPPEAR IN FINAL STATE
Info: ALCH: 17 ATOMS TO APPEAR IN FINAL STATE
Info: 5941 DEGREES OF FREEDOM
Info: 992 HYDROGEN GROUPS
Info: 4 ATOMS IN LARGEST HYDROGEN GROUP
Info: 992 MIGRATION GROUPS
Info: 4 ATOMS IN LARGEST MIGRATION GROUP
Info: TOTAL MASS = 17829.9 amu
Info: TOTAL CHARGE = 2.74449e-08 e
Info: MASS DENSITY = 0.982035 g/cm^3
Info: ATOM DENSITY = 0.0983763 atoms/A^3
Info: ADDED 0 IMPLICIT EXCLUSIONS
Info: NONBONDED TABLE R-SQUARED SPACING: 0.0625
Info: NONBONDED TABLE SIZE: 705 POINTS
Info: REMOVING COM VELOCITY -0.134822 -0.0415967 -0.0945783
Info: Use 3D box decompostion in PME FFT.
Info: Updated CUDA force table with 4096 elements.
Info: Updated CUDA LJ table with 8 x 8 elements.
Info: Found 16 unique exclusion lists needing 40 bytes
TCL: Running for 1500000 steps
ETITLE: TS BOND ANGLE DIHED IMPRP ELECT VDW BOUNDARY MISC KINETIC TOTAL TEMP POTENTIAL TOTALAVG TEMPAVG PRESSURE GPRESSURE VOLUME PRESSAVG GPRESSAVG
ENERGY: 0 1.9911 6.8511 2.5126 0.0000 -10771.3817 1474.7940 0.0000 0.0000 1761.1453 -7524.0877 298.3500 -9285.2329 -7524.0877 298.3500 332.2824 408.0661 30149.5353 332.2824 408.0661
ENERGY: 300000 1.8769 4.6587 2.8883 0.0000 -10875.9577 1526.2211 0.0000 0.0000 1727.7808 -7612.5320 292.6978 -9340.3127 -7544.6511 297.3842 477.6264 519.1099 30048.7612 234.2777 293.1552
ENERGY: 600000 2.4822 5.5682 3.2070 0.0000 -10573.9276 1279.6070 0.0000 0.0000 1770.4204 -7512.6429 299.9213 -9283.0633 -7543.2406 298.5974 -1475.8938 -1502.7699 30694.7493 -19.5390 36.4012
ENERGY: 900000 2.3490 6.6215 5.9457 0.0000 -10827.4221 1556.5427 0.0000 0.0000 1750.8919 -7505.0715 296.6130 -9255.9633 -7531.7565 299.4223 944.8862 1003.2009 30313.4688 71.9214 136.7305
ENERGY: 1200000 2.5874 5.8945 2.6147 0.0000 -10738.4001 1424.9392 0.0000 0.0000 1736.6999 -7565.6644 294.2088 -9302.3643 -7522.1486 299.9916 -101.5190 -62.2100 30006.7812 87.9906 149.9746
ENERGY: 1500000 2.0052 4.0453 6.1442 0.0000 -10721.9343 1462.4833 0.0000 0.0000 1745.7045 -7501.5518 295.7342 -9247.2563 -7507.7721 300.0193 119.2468 163.1247 30581.1152 64.0599 127.2903
TCL: Running FEP window   2: Lambda1 0.05   Lambda2 0.1    [dLambda 0.05  ]
TCL: Setting parameter firsttimestep to 0
TCL: Setting parameter alchLambda to 0.05
Info: NONBONDED TABLE R-SQUARED SPACING: 0.0625
Info: NONBONDED TABLE SIZE: 705 POINTS
TCL: Setting parameter alchLambda2 to 0.1
Info: NONBONDED TABLE R-SQUARED SPACING: 0.0625
Info: NONBONDED TABLE SIZE: 705 POINTS
TCL: Running for 1500000 steps
ETITLE: TS BOND ANGLE DIHED IMPRP ELECT VDW BOUNDARY MISC KINETIC TOTAL TEMP POTENTIAL TOTALAVG TEMPAVG PRESSURE GPRESSURE VOLUME PRESSAVG GPRESSAVG
ENERGY: 0 2.0052 4.0453 6.1442 0.0000 -10721.9341 1465.5916 0.0000 0.0000 1744.8150 -7499.3327 295.5835 -9244.1478 -7499.3327 295.5835 88.6606 170.2911 30581.1152 88.6606 170.2911
ENERGY: 300000 4.4053 5.1751 3.4685 0.0000 -10709.7967 1401.2989 0.0000 0.0000 1740.1082 -7555.3408 294.7861 -9295.4490 -7482.6813 302.2069 -484.0566 -388.9856 30294.9303 -232.7747 -151.4855
ENERGY: 600000 2.0944 4.3577 4.7682 0.0000 -10844.6572 1504.7406 0.0000 0.0000 1803.8309 -7524.8654 305.5812 -9328.6963 -7480.0495 302.7882 455.7053 484.4137 30040.5367 -0.3575 61.5148
ENERGY: 900000 3.3628 1.9564 4.4673 0.0000 -10845.3708 1529.9215 0.0000 0.0000 1783.8404 -7521.8223 302.1947 -9305.6628 -7492.7531 301.1291 525.0834 606.6451 30148.3370 27.3814 87.5820
ENERGY: 1200000 3.4223 4.9961 2.7197 0.0000 -10686.2535 1441.7945 0.0000 0.0000 1765.5334 -7467.7874 299.0934 -9233.3208 -7489.6913 300.6985 97.2967 158.6909 30249.9483 -11.9182 50.0779
ENERGY: 1500000 2.6299 6.1210 1.9273 0.0000 -10690.3495 1384.8462 0.0000 0.0000 1774.1785 -7520.6465 300.5579 -9294.8250 -7486.2812 301.1888 -665.5857 -605.6794 30648.7138 -61.7991 2.1400
TCL: Running FEP window   3: Lambda1 0.1    Lambda2 0.15000000000000002 [dLambda 0.05000000000000002]
TCL: Setting parameter firsttimestep to 0
TCL: Setting parameter alchLambda to 0.1
Info: NONBONDED TABLE R-SQUARED SPACING: 0.0625
Info: NONBONDED TABLE SIZE: 705 POINTS
TCL: Setting parameter alchLambda2 to 0.15000000000000002
Info: NONBONDED TABLE R-SQUARED SPACING: 0.0625
Info: NONBONDED TABLE SIZE: 705 POINTS
TCL: Running for 1500000 steps
ETITLE: TS BOND ANGLE DIHED IMPRP ELECT VDW BOUNDARY MISC KINETIC TOTAL TEMP POTENTIAL TOTALAVG TEMPAVG PRESSURE GPRESSURE VOLUME PRESSAVG GPRESSAVG
ENERGY: 0 2.6299 6.1210 1.9273 0.0000 -10690.3511 1388.8105 0.0000 0.0000 1773.2783 -7517.5840 300.4054 -9290.8623 -7517.5840 300.4054 -681.2342 -598.5169 30648.7138 -681.2342 -598.5169
ENERGY: 300000 2.7730 4.4364 3.0303 0.0000 -10812.5271 1517.5372 0.0000 0.0000 1767.8747 -7516.8754 299.4900 -9284.7501 -7488.0072 301.1655 573.0849 588.6839 30259.7885 -261.8681 -209.6761
ENERGY: 600000 1.2183 4.2033 4.2912 0.0000 -10649.1382 1336.6579 0.0000 0.0000 1860.1186 -7442.6488 315.1167 -9302.7675 -7485.0859 303.9040 -609.3704 -572.1383 30070.5298 -308.0237 -260.9829
ENERGY: 900000 3.1572 7.5076 3.0918 0.0000 -10711.8944 1441.0098 0.0000 0.0000 1769.4300 -7487.6980 299.7535 -9257.1280 -7502.7539 302.1398 -15.3881 3.7491 30150.5281 -266.6493 -222.0605
ENERGY: 1200000 2.3467 6.2006 2.2575 0.0000 -10652.6255 1426.8652 0.0000 0.0000 1782.6970 -7432.2586 302.0010 -9214.9556 -7511.7531 300.3992 92.4671 122.3938 30570.3662 -167.1724 -120.7038
ENERGY: 1500000 1.2629 4.9869 1.6085 0.0000 -10699.5169 1477.7597 0.0000 0.0000 1768.8618 -7445.0371 299.6572 -9213.8989 -7503.5933 300.2185 374.7246 369.4834 30642.7250 -104.4277 -59.1917
TCL: Running FEP window   4: Lambda1 0.15000000000000002 Lambda2 0.2    [dLambda 0.04999999999999999]
TCL: Setting parameter firsttimestep to 0
TCL: Setting parameter alchLambda to 0.15000000000000002
Info: NONBONDED TABLE R-SQUARED SPACING: 0.0625
Info: NONBONDED TABLE SIZE: 705 POINTS
TCL: Setting parameter alchLambda2 to 0.2
Info: NONBONDED TABLE R-SQUARED SPACING: 0.0625
Info: NONBONDED TABLE SIZE: 705 POINTS
TCL: Running for 1500000 steps
ETITLE: TS BOND ANGLE DIHED IMPRP ELECT VDW BOUNDARY MISC KINETIC TOTAL TEMP POTENTIAL TOTALAVG TEMPAVG PRESSURE GPRESSURE VOLUME PRESSAVG GPRESSAVG
ENERGY: 0 1.2629 4.9869 1.6085 0.0000 -10699.5161 1478.4672 0.0000 0.0000 1767.9593 -7445.2313 299.5043 -9213.1906 -7445.2313 299.5043 297.8424 372.7897 30642.7250 297.8424 372.7897
ENERGY: 300000 5.9236 3.5278 2.0312 0.0000 -10700.2435 1422.0286 0.0000 0.0000 1740.9168 -7525.8154 294.9231 -9266.7322 -7477.8234 299.5917 -316.9811 -261.2489 30537.0334 -55.1186 -1.9986
ENERGY: 600000 1.7264 5.1179 3.0488 0.0000 -10689.2602 1402.2821 0.0000 0.0000 1779.7377 -7497.3473 301.4997 -9277.0850 -7467.2305 301.6111 -467.6512 -388.0899 30712.5320 -231.6257 -168.3155
ENERGY: 900000 5.1973 4.4569 3.4988 0.0000 -10865.2033 1547.9812 0.0000 0.0000 1786.9580 -7517.1111 302.7228 -9304.0691 -7482.0930 301.1693 645.9503 674.8417 30091.1760 -36.6925 26.7836
ENERGY: 1200000 2.7782 5.1279 4.3042 0.0000 -10807.9303 1539.7805 0.0000 0.0000 1771.9667 -7483.9730 300.1832 -9255.9397 -7475.7816 301.3057 798.8361 824.7735 30413.3896 -16.9856 36.6380
ENERGY: 1500000 2.3869 2.9530 1.4286 0.0000 -10808.6667 1510.4728 0.0000 0.0000 1728.1103 -7563.3151 292.7536 -9291.4254 -7482.8848 301.2139 348.1952 505.7703 30195.8642 -13.1454 53.1916
TCL: Running FEP window   5: Lambda1 0.2    Lambda2 0.25   [dLambda 0.04999999999999999]
TCL: Setting parameter firsttimestep to 0
TCL: Setting parameter alchLambda to 0.2
Info: NONBONDED TABLE R-SQUARED SPACING: 0.0625
Info: NONBONDED TABLE SIZE: 705 POINTS
TCL: Setting parameter alchLambda2 to 0.25
Info: NONBONDED TABLE R-SQUARED SPACING: 0.0625
Info: NONBONDED TABLE SIZE: 705 POINTS
TCL: Running for 1500000 steps
ETITLE: TS BOND ANGLE DIHED IMPRP ELECT VDW BOUNDARY MISC KINETIC TOTAL TEMP POTENTIAL TOTALAVG TEMPAVG PRESSURE GPRESSURE VOLUME PRESSAVG GPRESSAVG
ENERGY: 0 2.3869 2.9530 1.4286 0.0000 -10808.6662 1510.0653 0.0000 0.0000 1727.2288 -7564.6036 292.6043 -9291.8324 -7564.6036 292.6043 417.7329 505.0235 30195.8642 417.7329 505.0235
ENERGY: 300000 2.1501 4.6727 4.3015 0.0000 -10578.8058 1360.5374 0.0000 0.0000 1734.8694 -7472.2748 293.8987 -9207.1442 -7515.0936 300.2617 -586.6310 -531.1894 30526.9207 234.3135 286.4565
ENERGY: 600000 0.3801 4.6744 3.4583 0.0000 -10634.6241 1396.2323 0.0000 0.0000 1751.1494 -7478.7296 296.6566 -9229.8790 -7500.0116 300.5054 -266.0851 -164.0503 30525.0245 52.7293 123.5412
ENERGY: 900000 3.3362 9.6969 6.1253 0.0000 -10818.2122 1475.2000 0.0000 0.0000 1769.6415 -7554.2123 299.7893 -9323.8538 -7493.5793 298.4413 295.7600 336.4932 30202.4691 -37.1031 26.6891
ENERGY: 1200000 3.0884 5.3422 2.4121 0.0000 -10865.1641 1458.2946 0.0000 0.0000 1745.1617 -7650.8651 295.6423 -9396.0268 -7509.1943 298.2953 -411.6726 -361.2014 30526.6718 -48.9182 10.0327
ENERGY: 1500000 4.6644 3.9282 3.4510 0.0000 -10788.1757 1497.4099 0.0000 0.0000 1762.5643 -7516.1579 298.5904 -9278.7222 -7513.7641 297.9922 377.9629 444.4660 30399.3983 -17.8693 39.5347
TCL: Running FEP window   6: Lambda1 0.25   Lambda2 0.3    [dLambda 0.04999999999999999]
TCL: Setting parameter firsttimestep to 0
TCL: Setting parameter alchLambda to 0.25
Info: NONBONDED TABLE R-SQUARED SPACING: 0.0625
Info: NONBONDED TABLE SIZE: 705 POINTS
TCL: Setting parameter alchLambda2 to 0.3
Info: NONBONDED TABLE R-SQUARED SPACING: 0.0625
Info: NONBONDED TABLE SIZE: 705 POINTS
TCL: Running for 1500000 steps
ETITLE: TS BOND ANGLE DIHED IMPRP ELECT VDW BOUNDARY MISC KINETIC TOTAL TEMP POTENTIAL TOTALAVG TEMPAVG PRESSURE GPRESSURE VOLUME PRESSAVG GPRESSAVG
ENERGY: 0 4.6644 3.9282 3.4510 0.0000 -10788.1759 1497.0229 0.0000 0.0000 1761.6534 -7517.4560 298.4361 -9279.1094 -7517.4560 298.4361 361.6581 445.7788 30399.3983 361.6581 445.7788
ENERGY: 300000 4.6979 8.3048 2.8208 0.0000 -10790.6801 1483.1400 0.0000 0.0000 1750.2209 -7541.4958 296.4993 -9291.7166 -7540.7993 294.4720 54.7327 139.8237 30351.4458 68.3442 141.2650
ENERGY: 600000 2.1908 4.1784 3.4141 0.0000 -10796.9754 1479.4956 0.0000 0.0000 1817.0858 -7490.6108 307.8267 -9307.6966 -7519.6154 296.6349 39.7990 104.7153 30664.6950 -50.1157 17.3513
ENERGY: 900000 0.9303 3.8561 1.7808 0.0000 -10685.0536 1441.3789 0.0000 0.0000 1765.2077 -7471.8999 299.0382 -9237.1076 -7504.1394 297.8086 -229.0619 -119.6337 30945.5706 13.2437 78.8798
ENERGY: 1200000 3.6385 6.0006 3.8373 0.0000 -10791.3379 1468.2252 0.0000 0.0000 1726.9046 -7582.7318 292.5494 -9309.6363 -7513.0533 298.0640 -70.4634 -17.4978 30678.7761 109.0058 166.6162
ENERGY: 1500000 6.5705 5.4533 3.5747 0.0000 -10737.1438 1466.7444 0.0000 0.0000 1732.8455 -7521.9553 293.5558 -9254.8009 -7499.0778 297.8825 117.5240 233.5574 30392.6753 29.1108 86.8038
TCL: Running FEP window   7: Lambda1 0.3    Lambda2 0.35   [dLambda 0.04999999999999999]
TCL: Setting parameter firsttimestep to 0
TCL: Setting parameter alchLambda to 0.3
Info: NONBONDED TABLE R-SQUARED SPACING: 0.0625
Info: NONBONDED TABLE SIZE: 705 POINTS
TCL: Setting parameter alchLambda2 to 0.35
Info: NONBONDED TABLE R-SQUARED SPACING: 0.0625
Info: NONBONDED TABLE SIZE: 705 POINTS
TCL: Running for 1500000 steps
ETITLE: TS BOND ANGLE DIHED IMPRP ELECT VDW BOUNDARY MISC KINETIC TOTAL TEMP POTENTIAL TOTALAVG TEMPAVG PRESSURE GPRESSURE VOLUME PRESSAVG GPRESSAVG
ENERGY: 0 6.5705 5.4533 3.5747 0.0000 -10737.1444 1467.5824 0.0000 0.0000 1731.9692 -7521.9943 293.4073 -9253.9634 -7521.9943 293.4073 171.0239 246.5786 30392.6753 171.0239 246.5786
ENERGY: 300000 2.8356 4.2005 4.4290 0.0000 -10589.1565 1332.6351 0.0000 0.0000 1804.3883 -7440.6682 305.6756 -9245.0564 -7473.6446 296.0708 -1037.0365 -1044.2392 31051.0655 -300.7635 -256.6019
ENERGY: 600000 2.6091 3.5555 3.0107 0.0000 -10650.3741 1397.5217 0.0000 0.0000 1754.7271 -7488.9500 297.2627 -9243.6770 -7479.7354 298.2159 -401.7754 -303.3864 30424.9044 -224.6977 -159.6898
ENERGY: 900000 1.8164 4.6599 5.8579 0.0000 -10768.9215 1462.6672 0.0000 0.0000 1769.4518 -7524.4683 299.7572 -9293.9201 -7501.6847 298.8187 -89.0718 -48.6871 30614.2627 -82.9274 -22.6380
ENERGY: 1200000 1.6459 4.7866 2.3816 0.0000 -10857.8050 1564.6166 0.0000 0.0000 1784.5694 -7499.8048 302.3182 -9284.3742 -7499.8084 299.5402 1173.1966 1197.4357 30002.4954 4.9248 62.1831
ENERGY: 1500000 3.3861 3.9165 2.1535 0.0000 -10761.9886 1473.7259 0.0000 0.0000 1756.6526 -7522.1539 297.5889 -9278.8065 -7498.9442 299.2949 314.4010 404.0882 30537.2028 -41.6866 15.4915
TCL: Running FEP window   8: Lambda1 0.35   Lambda2 0.39999999999999997 [dLambda 0.04999999999999999]
TCL: Setting parameter firsttimestep to 0
TCL: Setting parameter alchLambda to 0.35
Info: NONBONDED TABLE R-SQUARED SPACING: 0.0625
Info: NONBONDED TABLE SIZE: 705 POINTS
TCL: Setting parameter alchLambda2 to 0.39999999999999997
Info: NONBONDED TABLE R-SQUARED SPACING: 0.0625
Info: NONBONDED TABLE SIZE: 705 POINTS
TCL: Running for 1500000 steps
ETITLE: TS BOND ANGLE DIHED IMPRP ELECT VDW BOUNDARY MISC KINETIC TOTAL TEMP POTENTIAL TOTALAVG TEMPAVG PRESSURE GPRESSURE VOLUME PRESSAVG GPRESSAVG
ENERGY: 0 3.3861 3.9165 2.1535 0.0000 -10761.9886 1474.3509 0.0000 0.0000 1755.7369 -7522.4447 297.4338 -9278.1816 -7522.4447 297.4338 326.1079 414.2914 30537.2028 326.1079 414.2914
ENERGY: 300000 4.2062 4.0769 3.2684 0.0000 -10724.6597 1465.6869 0.0000 0.0000 1782.8858 -7464.5354 302.0330 -9247.4212 -7498.7788 302.4117 116.2154 133.3697 30519.4741 64.4568 101.4481
ENERGY: 600000 5.3418 3.7854 2.2135 0.0000 -10747.2726 1424.1599 0.0000 0.0000 1694.2347 -7617.5372 287.0149 -9311.7719 -7508.5894 301.2524 -443.0579 -385.4842 30321.8188 106.2298 155.0227
ENERGY: 900000 1.7203 5.0012 3.8794 0.0000 -10684.8057 1389.6438 0.0000 0.0000 1785.1913 -7499.3697 302.4235 -9284.5610 -7502.4665 300.6539 -616.8486 -532.3190 30882.9432 -151.1318 -99.6105
ENERGY: 1200000 6.2693 5.3608 1.9057 0.0000 -10841.2148 1480.6864 0.0000 0.0000 1753.9119 -7593.0807 297.1246 -9346.9926 -7513.0954 301.1411 334.6252 373.8322 30008.6510 -145.6957 -91.2853
ENERGY: 1500000 4.7267 4.5986 4.7794 0.0000 -10811.3715 1487.0081 0.0000 0.0000 1757.3029 -7552.9557 297.6991 -9310.2586 -7514.4212 301.4430 89.8455 227.4825 30229.3524 -126.9857 -71.0075
TCL: Running FEP window   9: Lambda1 0.39999999999999997 Lambda2 0.44999999999999996 [dLambda 0.04999999999999999]
TCL: Setting parameter firsttimestep to 0
TCL: Setting parameter alchLambda to 0.39999999999999997
Info: NONBONDED TABLE R-SQUARED SPACING: 0.0625
Info: NONBONDED TABLE SIZE: 705 POINTS
TCL: Setting parameter alchLambda2 to 0.44999999999999996
Info: NONBONDED TABLE R-SQUARED SPACING: 0.0625
Info: NONBONDED TABLE SIZE: 705 POINTS
TCL: Running for 1500000 steps
ETITLE: TS BOND ANGLE DIHED IMPRP ELECT VDW BOUNDARY MISC KINETIC TOTAL TEMP POTENTIAL TOTALAVG TEMPAVG PRESSURE GPRESSURE VOLUME PRESSAVG GPRESSAVG
ENERGY: 0 4.7267 4.5986 4.7794 0.0000 -10811.3714 1487.0909 0.0000 0.0000 1756.3965 -7553.7792 297.5455 -9310.1757 -7553.7792 297.5455 150.9418 231.8225 30229.3524 150.9418 231.8225
ENERGY: 300000 1.8383 5.6026 3.7302 0.0000 -10825.6277 1609.5376 0.0000 0.0000 1778.6425 -7426.2766 301.3141 -9204.9191 -7503.3502 302.1803 1562.1450 1606.9395 30485.3706 490.8563 558.7294
ENERGY: 600000 2.6898 6.3631 1.4534 0.0000 -10872.3234 1514.9207 0.0000 0.0000 1711.0238 -7635.8727 289.8591 -9346.8965 -7512.5770 299.7593 223.8969 294.1568 30276.1339 236.4437 314.8338
ENERGY: 900000 4.0595 5.6998 3.2530 0.0000 -10652.8406 1424.0026 0.0000 0.0000 1783.1987 -7432.6269 302.0860 -9215.8256 -7500.6538 300.3687 69.3104 113.2584 30092.0633 114.3809 194.0926
ENERGY: 1200000 2.7176 3.2313 4.7537 0.0000 -10760.3979 1438.4284 0.0000 0.0000 1716.2473 -7595.0195 290.7440 -9311.2668 -7515.5740 299.7823 -219.6745 -128.9410 30276.5202 135.3205 211.9546
ENERGY: 1500000 2.7257 6.5881 4.2020 0.0000 -10774.5547 1483.6074 0.0000 0.0000 1731.5907 -7545.8409 293.3432 -9277.4316 -7516.2919 299.5473 337.5644 389.4473 30390.1833 124.8960 198.1133
TCL: Running FEP window  10: Lambda1 0.44999999999999996 Lambda2 0.49999999999999994 [dLambda 0.04999999999999999]
TCL: Setting parameter firsttimestep to 0
TCL: Setting parameter alchLambda to 0.44999999999999996
Info: NONBONDED TABLE R-SQUARED SPACING: 0.0625
Info: NONBONDED TABLE SIZE: 705 POINTS
TCL: Setting parameter alchLambda2 to 0.49999999999999994
Info: NONBONDED TABLE R-SQUARED SPACING: 0.0625
Info: NONBONDED TABLE SIZE: 705 POINTS
TCL: Running for 1500000 steps
ETITLE: TS BOND ANGLE DIHED IMPRP ELECT VDW BOUNDARY MISC KINETIC TOTAL TEMP POTENTIAL TOTALAVG TEMPAVG PRESSURE GPRESSURE VOLUME PRESSAVG GPRESSAVG
ENERGY: 0 2.7257 6.5881 4.2020 0.0000 -10774.5550 1483.7457 0.0000 0.0000 1730.7370 -7546.5565 293.1986 -9277.2935 -7546.5565 293.1986 329.9514 400.2812 30390.1833 329.9514 400.2812
ENERGY: 300000 1.4489 5.0909 4.3128 0.0000 -10751.1487 1446.5761 0.0000 0.0000 1749.3254 -7544.3946 296.3476 -9293.7200 -7544.3940 296.4745 -54.7273 27.9566 30274.2261 49.4524 101.9104
ENERGY: 600000 2.7791 8.3388 3.3536 0.0000 -10620.3012 1432.8151 0.0000 0.0000 1772.6806 -7400.3340 300.3041 -9173.0147 -7513.8615 297.5084 133.8747 202.1270 30479.6792 -19.5724 20.2608
ENERGY: 900000 2.2485 6.2299 4.2590 0.0000 -10791.0224 1518.7137 0.0000 0.0000 1780.2419 -7479.3293 301.5851 -9259.5713 -7509.5044 296.6093 623.2736 675.7281 30392.9891 90.8306 138.4911
ENERGY: 1200000 1.9085 6.0519 3.5217 0.0000 -10589.7449 1356.2987 0.0000 0.0000 1806.4807 -7415.4835 306.0301 -9221.9642 -7501.0810 297.8623 -314.2520 -325.6535 30248.7258 58.2270 106.3007
ENERGY: 1500000 4.1794 5.7115 2.8201 0.0000 -10651.3175 1409.8982 0.0000 0.0000 1771.6013 -7457.1070 300.1213 -9228.7083 -7496.9877 298.1063 -467.2179 -407.0898 31029.3657 -13.2097 37.9642
TCL: Running FEP window  11: Lambda1 0.49999999999999994 Lambda2 0.5499999999999999 [dLambda 0.04999999999999999]
TCL: Setting parameter firsttimestep to 0
TCL: Setting parameter alchLambda to 0.49999999999999994
Info: NONBONDED TABLE R-SQUARED SPACING: 0.0625
Info: NONBONDED TABLE SIZE: 705 POINTS
TCL: Setting parameter alchLambda2 to 0.5499999999999999
Info: NONBONDED TABLE R-SQUARED SPACING: 0.0625
Info: NONBONDED TABLE SIZE: 705 POINTS
TCL: Running for 1500000 steps
ETITLE: TS BOND ANGLE DIHED IMPRP ELECT VDW BOUNDARY MISC KINETIC TOTAL TEMP POTENTIAL TOTALAVG TEMPAVG PRESSURE GPRESSURE VOLUME PRESSAVG GPRESSAVG
ENERGY: 0 4.1794 5.7115 2.8201 0.0000 -10651.3163 1409.3197 0.0000 0.0000 1770.6947 -7458.5909 299.9677 -9229.2856 -7458.5909 299.9677 -501.5143 -404.8183 31029.3657 -501.5143 -404.8183
ENERGY: 300000 2.5433 4.5617 7.9616 0.0000 -10784.7606 1506.9107 0.0000 0.0000 1742.4764 -7520.3068 295.1874 -9262.7833 -7502.4801 298.6653 631.8374 727.9242 30236.4280 30.8567 109.0402
ENERGY: 600000 3.4746 5.9139 4.2138 0.0000 -10632.2812 1402.5707 0.0000 0.0000 1799.1094 -7416.9989 304.7814 -9216.1083 -7514.8332 298.2938 -309.6155 -270.8503 30428.1150 85.3897 164.4313
ENERGY: 900000 2.3172 10.0290 3.8084 0.0000 -10710.3745 1460.5323 0.0000 0.0000 1771.2622 -7462.4255 300.0639 -9233.6877 -7503.1536 298.7920 169.2589 295.7364 30456.0651 22.3496 106.5086
ENERGY: 1200000 2.2438 3.9309 4.6307 0.0000 -10628.2063 1334.8615 0.0000 0.0000 1757.0107 -7525.5287 297.6495 -9282.5394 -7501.1296 297.9445 -745.1461 -636.1762 30247.0969 7.5545 89.4132
ENERGY: 1500000 3.5474 4.5772 4.1731 0.0000 -10672.3651 1382.5633 0.0000 0.0000 1765.8209 -7511.6832 299.1421 -9277.5041 -7504.0981 298.2808 -770.4683 -677.6210 30843.7905 -48.6124 30.9047
TCL: Running FEP window  12: Lambda1 0.5499999999999999 Lambda2 0.6    [dLambda 0.050000000000000044]
TCL: Setting parameter firsttimestep to 0
TCL: Setting parameter alchLambda to 0.5499999999999999
Info: NONBONDED TABLE R-SQUARED SPACING: 0.0625
Info: NONBONDED TABLE SIZE: 705 POINTS
TCL: Setting parameter alchLambda2 to 0.6
Info: NONBONDED TABLE R-SQUARED SPACING: 0.0625
Info: NONBONDED TABLE SIZE: 705 POINTS
TCL: Running for 1500000 steps
ETITLE: TS BOND ANGLE DIHED IMPRP ELECT VDW BOUNDARY MISC KINETIC TOTAL TEMP POTENTIAL TOTALAVG TEMPAVG PRESSURE GPRESSURE VOLUME PRESSAVG GPRESSAVG
ENERGY: 0 3.5473 4.5772 4.1731 0.0000 -10672.4096 1382.2234 0.0000 0.0000 1764.9520 -7512.9366 298.9949 -9277.8886 -7512.9366 298.9949 -740.4434 -674.8129 30843.7905 -740.4434 -674.8129
ENERGY: 300000 2.0072 5.5482 5.1664 0.0000 -10671.5574 1405.6292 0.0000 0.0000 1729.5194 -7523.6870 292.9923 -9253.2064 -7509.8706 298.4968 -435.5533 -349.0093 30991.8143 -234.9965 -164.2245
ENERGY: 600000 2.4385 4.4805 4.2087 0.0000 -10892.2074 1522.6080 0.0000 0.0000 1828.2615 -7530.2102 309.7199 -9358.4717 -7530.1988 299.6049 260.4031 391.7544 30120.7796 -205.4993 -138.0516
ENERGY: 900000 5.5467 5.8287 2.8342 0.0000 -10673.9591 1384.4059 0.0000 0.0000 1799.6786 -7475.6650 304.8778 -9275.3436 -7511.6270 300.9518 -456.2637 -418.0668 30382.8874 -122.0630 -62.7134
ENERGY: 1200000 5.8659 5.6959 2.2771 0.0000 -10679.6587 1317.5847 0.0000 0.0000 1806.5355 -7541.6995 306.0394 -9348.2350 -7520.1320 301.1492 -1406.5453 -1368.9554 30543.2601 -298.0183 -242.9536
ENERGY: 1500000 1.1175 3.4890 1.2184 0.0000 -10714.5871 1409.4132 0.0000 0.0000 1791.7155 -7507.6335 303.5288 -9299.3490 -7519.8342 301.6630 -39.0817 -1.7309 30011.6808 -212.3069 -155.5607
TCL: Running FEP window  13: Lambda1 0.6    Lambda2 0.65   [dLambda 0.050000000000000044]
TCL: Setting parameter firsttimestep to 0
TCL: Setting parameter alchLambda to 0.6
Info: NONBONDED TABLE R-SQUARED SPACING: 0.0625
Info: NONBONDED TABLE SIZE: 705 POINTS
TCL: Setting parameter alchLambda2 to 0.65
Info: NONBONDED TABLE R-SQUARED SPACING: 0.0625
Info: NONBONDED TABLE SIZE: 705 POINTS
TCL: Running for 1500000 steps
ETITLE: TS BOND ANGLE DIHED IMPRP ELECT VDW BOUNDARY MISC KINETIC TOTAL TEMP POTENTIAL TOTALAVG TEMPAVG PRESSURE GPRESSURE VOLUME PRESSAVG GPRESSAVG
ENERGY: 0 1.1176 3.4890 1.2184 0.0000 -10715.7594 1410.1265 0.0000 0.0000 1790.8387 -7508.9691 303.3803 -9299.8079 -7508.9691 303.3803 -86.1957 12.2781 30011.6808 -86.1957 12.2781
ENERGY: 300000 1.5457 7.2667 4.6462 0.0000 -10788.6274 1509.9712 0.0000 0.0000 1798.4751 -7466.7224 304.6739 -9265.1975 -7498.5951 301.1487 756.9160 851.0245 30221.6853 73.5120 156.4688
ENERGY: 600000 3.6485 7.0151 3.3537 0.0000 -10685.2910 1419.0761 0.0000 0.0000 1736.2493 -7515.9482 294.1324 -9252.1976 -7522.0307 299.2970 -420.1613 -389.9770 31003.2514 -44.3845 32.7081
ENERGY: 900000 2.7660 2.9655 2.5822 0.0000 -10836.2116 1436.3575 0.0000 0.0000 1749.5358 -7642.0045 296.3833 -9391.5403 -7514.6189 300.0276 -489.3389 -390.8843 30338.2582 -132.8510 -71.4992
ENERGY: 1200000 3.0851 6.6269 2.7004 0.0000 -10711.7696 1507.5378 0.0000 0.0000 1817.0160 -7374.8034 307.8149 -9191.8195 -7495.1702 300.9219 463.7539 547.5965 30732.6556 -144.5036 -83.6362
ENERGY: 1500000 1.7515 5.3277 4.9777 0.0000 -10883.0632 1532.3797 0.0000 0.0000 1781.5023 -7557.1243 301.7986 -9338.6266 -7498.2771 301.4590 642.0542 737.8959 30051.4033 -167.9680 -107.1431
TCL: Running FEP window  14: Lambda1 0.65   Lambda2 0.7000000000000001 [dLambda 0.050000000000000044]
TCL: Setting parameter firsttimestep to 0
TCL: Setting parameter alchLambda to 0.65
Info: NONBONDED TABLE R-SQUARED SPACING: 0.0625
Info: NONBONDED TABLE SIZE: 705 POINTS
TCL: Setting parameter alchLambda2 to 0.7000000000000001
Info: NONBONDED TABLE R-SQUARED SPACING: 0.0625
Info: NONBONDED TABLE SIZE: 705 POINTS
TCL: Running for 1500000 steps
ETITLE: TS BOND ANGLE DIHED IMPRP ELECT VDW BOUNDARY MISC KINETIC TOTAL TEMP POTENTIAL TOTALAVG TEMPAVG PRESSURE GPRESSURE VOLUME PRESSAVG GPRESSAVG
ENERGY: 0 1.7515 5.3277 4.9777 0.0000 -10883.9549 1532.2926 0.0000 0.0000 1780.6444 -7558.9610 301.6533 -9339.6054 -7558.9610 301.6533 658.9472 744.4324 30051.4033 658.9472 744.4324
ENERGY: 300000 2.9952 7.7358 6.3942 0.0000 -10931.8813 1516.3877 0.0000 0.0000 1856.3189 -7542.0495 314.4730 -9398.3684 -7528.4075 301.6453 367.2103 349.1626 30291.5607 6.0331 49.1174
ENERGY: 600000 4.2756 4.1344 3.4316 0.0000 -10643.1222 1379.1496 0.0000 0.0000 1727.4668 -7524.6643 292.6446 -9252.1311 -7527.8641 299.3683 -521.4311 -488.5783 30374.0456 -8.7976 36.8982
ENERGY: 900000 2.5400 2.3160 3.1779 0.0000 -10786.4288 1446.0608 0.0000 0.0000 1765.3176 -7567.0164 299.0568 -9332.3340 -7515.9424 299.9698 -151.4927 -36.7779 30412.3750 -3.9620 45.8326
ENERGY: 1200000 4.9294 6.7431 3.8220 0.0000 -10603.2874 1333.4589 0.0000 0.0000 1777.1643 -7477.1696 301.0637 -9254.3340 -7509.9174 300.0478 -919.9362 -756.4806 30258.5856 -123.6313 -61.9413
ENERGY: 1500000 4.3368 2.4336 5.5738 0.0000 -10626.9643 1408.7264 0.0000 0.0000 1795.8384 -7410.0552 304.2272 -9205.8936 -7499.3313 300.8323 -591.3435 -569.5106 31451.8222 -134.8171 -75.3211
TCL: Running FEP window  15: Lambda1 0.7000000000000001 Lambda2 0.7500000000000001 [dLambda 0.050000000000000044]
TCL: Setting parameter firsttimestep to 0
TCL: Setting parameter alchLambda to 0.7000000000000001
Info: NONBONDED TABLE R-SQUARED SPACING: 0.0625
Info: NONBONDED TABLE SIZE: 705 POINTS
TCL: Setting parameter alchLambda2 to 0.7500000000000001
Info: NONBONDED TABLE R-SQUARED SPACING: 0.0625
Info: NONBONDED TABLE SIZE: 705 POINTS
TCL: Running for 1500000 steps
ETITLE: TS BOND ANGLE DIHED IMPRP ELECT VDW BOUNDARY MISC KINETIC TOTAL TEMP POTENTIAL TOTALAVG TEMPAVG PRESSURE GPRESSURE VOLUME PRESSAVG GPRESSAVG
ENERGY: 0 4.3368 2.4336 5.5738 0.0000 -10627.5422 1408.7148 0.0000 0.0000 1794.9912 -7411.4920 304.0837 -9206.4832 -7411.4920 304.0837 -646.6959 -561.5157 31451.8222 -646.6959 -561.5157
ENERGY: 300000 2.0967 6.2763 3.0260 0.0000 -10801.6241 1506.2939 0.0000 0.0000 1755.8490 -7528.0823 297.4528 -9283.9312 -7481.3208 302.2758 610.9681 700.2434 30244.2911 91.2688 161.4250
ENERGY: 600000 3.6789 4.9467 3.1636 0.0000 -10757.7794 1468.1711 0.0000 0.0000 1773.1257 -7504.6935 300.3796 -9277.8192 -7510.4235 300.4440 725.3358 773.0154 29615.8395 123.9887 177.0608
ENERGY: 900000 1.6907 5.5995 3.1796 0.0000 -10714.0784 1433.3594 0.0000 0.0000 1747.5883 -7522.6609 296.0533 -9270.2493 -7507.2098 298.4862 -180.7538 -52.0467 30433.3703 72.3239 125.5747
ENERGY: 1200000 1.8259 6.0874 2.2809 0.0000 -10854.4812 1542.8043 0.0000 0.0000 1820.1685 -7481.3142 308.3489 -9301.4827 -7507.5848 299.1270 728.9818 827.9759 30177.4460 82.5857 142.6660
ENERGY: 1500000 2.3492 3.0574 2.2413 0.0000 -10780.7264 1451.9835 0.0000 0.0000 1780.8882 -7540.2067 301.6946 -9321.0950 -7509.6747 299.2421 -199.5344 -199.0537 30967.7714 136.3553 192.2070
TCL: Running FEP window  16: Lambda1 0.7500000000000001 Lambda2 0.8000000000000002 [dLambda 0.050000000000000044]
TCL: Setting parameter firsttimestep to 0
TCL: Setting parameter alchLambda to 0.7500000000000001
Info: NONBONDED TABLE R-SQUARED SPACING: 0.0625
Info: NONBONDED TABLE SIZE: 705 POINTS
TCL: Setting parameter alchLambda2 to 0.8000000000000002
Info: NONBONDED TABLE R-SQUARED SPACING: 0.0625
Info: NONBONDED TABLE SIZE: 705 POINTS
TCL: Running for 1500000 steps
ETITLE: TS BOND ANGLE DIHED IMPRP ELECT VDW BOUNDARY MISC KINETIC TOTAL TEMP POTENTIAL TOTALAVG TEMPAVG PRESSURE GPRESSURE VOLUME PRESSAVG GPRESSAVG
ENERGY: 0 2.3492 3.0574 2.2413 0.0000 -10781.9232 1451.5960 0.0000 0.0000 1779.9893 -7542.6900 301.5423 -9322.6793 -7542.6900 301.5423 -275.0987 -198.0431 30967.7714 -275.0987 -198.0431
ENERGY: 300000 1.6297 2.8976 6.4419 0.0000 -10678.5552 1409.9190 0.0000 0.0000 1810.2987 -7447.3683 306.6769 -9257.6670 -7507.9003 300.6689 -539.4780 -366.8319 30871.8402 135.5540 238.7933
ENERGY: 600000 1.6421 5.7074 1.0273 0.0000 -10621.7402 1401.5469 0.0000 0.0000 1790.0945 -7421.7219 303.2542 -9211.8164 -7482.9126 300.2344 -150.2603 -104.9874 30750.4802 181.7073 257.1381
ENERGY: 900000 1.7438 2.9694 3.1821 0.0000 -10643.4152 1336.6489 0.0000 0.0000 1746.5848 -7552.2861 295.8833 -9298.8710 -7511.9558 299.2667 -1053.8848 -984.3006 30810.6235 99.1056 178.1276
ENERGY: 1200000 1.9971 6.4780 5.8843 0.0000 -10685.8816 1416.0171 0.0000 0.0000 1747.5637 -7507.9413 296.0492 -9255.5050 -7502.3287 300.6363 -11.6710 30.6513 30325.6693 134.4368 211.5601
ENERGY: 1500000 2.3025 3.7763 2.4193 0.0000 -10802.2157 1410.0799 0.0000 0.0000 1754.4002 -7629.2375 297.2073 -9383.6377 -7499.2151 300.9432 -311.1544 -230.5392 30175.6996 48.4674 122.9296
TCL: Running FEP window  17: Lambda1 0.8000000000000002 Lambda2 0.8500000000000002 [dLambda 0.050000000000000044]
TCL: Setting parameter firsttimestep to 0
TCL: Setting parameter alchLambda to 0.8000000000000002
Info: NONBONDED TABLE R-SQUARED SPACING: 0.0625
Info: NONBONDED TABLE SIZE: 705 POINTS
TCL: Setting parameter alchLambda2 to 0.8500000000000002
Info: NONBONDED TABLE R-SQUARED SPACING: 0.0625
Info: NONBONDED TABLE SIZE: 705 POINTS
TCL: Running for 1500000 steps
ETITLE: TS BOND ANGLE DIHED IMPRP ELECT VDW BOUNDARY MISC KINETIC TOTAL TEMP POTENTIAL TOTALAVG TEMPAVG PRESSURE GPRESSURE VOLUME PRESSAVG GPRESSAVG
ENERGY: 0 2.3025 3.7763 2.4193 0.0000 -10803.9576 1410.8257 0.0000 0.0000 1753.5187 -7631.1151 297.0580 -9384.6338 -7631.1151 297.0580 -296.2739 -217.8743 30175.6996 -296.2739 -217.8743
ENERGY: 300000 2.4201 1.9978 2.8107 0.0000 -10836.0516 1502.2833 0.0000 0.0000 1781.5164 -7545.0232 301.8010 -9326.5397 -7567.3548 299.0219 483.9118 558.1028 30199.4915 -279.4415 -205.8427
ENERGY: 600000 2.7009 1.9354 3.0337 0.0000 -10718.6519 1471.2122 0.0000 0.0000 1794.7030 -7445.0667 304.0349 -9239.7698 -7525.2515 300.2492 48.6782 77.1392 31269.3197 -233.3516 -170.8517
ENERGY: 900000 5.7388 5.4057 2.3751 0.0000 -10707.2153 1397.7810 0.0000 0.0000 1812.1916 -7483.7231 306.9976 -9295.9148 -7520.6929 300.9158 -381.9105 -321.2094 30324.3028 -233.6027 -171.3159
ENERGY: 1200000 1.1898 3.8075 3.6225 0.0000 -10570.9607 1375.9408 0.0000 0.0000 1762.6813 -7423.7187 298.6102 -9186.4001 -7504.2666 301.1165 -628.9582 -569.3745 31429.8275 -237.9992 -172.0513
ENERGY: 1500000 5.9822 4.0155 2.4876 0.0000 -10528.3368 1355.7720 0.0000 0.0000 1806.9177 -7353.1619 306.1041 -9160.0796 -7495.2396 301.4842 -619.9921 -556.3830 31007.6462 -323.1848 -258.9555
TCL: Running FEP window  18: Lambda1 0.8500000000000002 Lambda2 0.9000000000000002 [dLambda 0.050000000000000044]
TCL: Setting parameter firsttimestep to 0
TCL: Setting parameter alchLambda to 0.8500000000000002
Info: NONBONDED TABLE R-SQUARED SPACING: 0.0625
Info: NONBONDED TABLE SIZE: 705 POINTS
TCL: Setting parameter alchLambda2 to 0.9000000000000002
Info: NONBONDED TABLE R-SQUARED SPACING: 0.0625
Info: NONBONDED TABLE SIZE: 705 POINTS
TCL: Running for 1500000 steps
ETITLE: TS BOND ANGLE DIHED IMPRP ELECT VDW BOUNDARY MISC KINETIC TOTAL TEMP POTENTIAL TOTALAVG TEMPAVG PRESSURE GPRESSURE VOLUME PRESSAVG GPRESSAVG
ENERGY: 0 5.9822 4.0155 2.4876 0.0000 -10528.7304 1355.2280 0.0000 0.0000 1806.0701 -7354.9471 305.9605 -9161.0172 -7354.9471 305.9605 -622.7192 -555.8427 31007.6462 -622.7192 -555.8427
ENERGY: 300000 1.8984 3.8248 2.1814 0.0000 -10680.7610 1372.1934 0.0000 0.0000 1816.9059 -7483.7571 307.7962 -9300.6630 -7438.1172 304.6732 -387.0304 -390.3905 30324.7446 -310.7630 -260.6197
ENERGY: 600000 5.0761 5.1343 4.5955 0.0000 -10697.0319 1448.0989 0.0000 0.0000 1765.2591 -7468.8680 299.0469 -9234.1272 -7465.8673 302.1147 31.7694 149.1941 30402.8323 -290.7070 -224.6818
ENERGY: 900000 2.9337 7.2555 2.9969 0.0000 -10701.4389 1472.1176 0.0000 0.0000 1778.1263 -7438.0090 301.2267 -9216.1353 -7475.2432 302.1343 117.8960 173.3115 30787.8039 -67.8640 -10.8870
ENERGY: 1200000 2.9963 3.3713 2.3230 0.0000 -10672.0341 1487.6172 0.0000 0.0000 1820.8791 -7354.8474 308.4693 -9175.7264 -7473.0302 302.5191 536.2814 633.0895 30921.5609 51.4626 111.1286
ENERGY: 1500000 4.1145 3.4433 2.4675 0.0000 -10679.9094 1421.1711 0.0000 0.0000 1796.2656 -7452.4475 304.2996 -9248.7131 -7472.3603 303.2586 -263.8378 -197.3786 30798.2464 78.7724 145.4913
TCL: Running FEP window  19: Lambda1 0.9000000000000002 Lambda2 0.9500000000000003 [dLambda 0.050000000000000044]
TCL: Setting parameter firsttimestep to 0
TCL: Setting parameter alchLambda to 0.9000000000000002
Info: NONBONDED TABLE R-SQUARED SPACING: 0.0625
Info: NONBONDED TABLE SIZE: 705 POINTS
TCL: Setting parameter alchLambda2 to 0.9500000000000003
Info: NONBONDED TABLE R-SQUARED SPACING: 0.0625
Info: NONBONDED TABLE SIZE: 705 POINTS
TCL: Running for 1500000 steps
ETITLE: TS BOND ANGLE DIHED IMPRP ELECT VDW BOUNDARY MISC KINETIC TOTAL TEMP POTENTIAL TOTALAVG TEMPAVG PRESSURE GPRESSURE VOLUME PRESSAVG GPRESSAVG
ENERGY: 0 4.1145 3.4433 2.4675 0.0000 -10681.0776 1420.9620 0.0000 0.0000 1795.3984 -7454.6919 304.1527 -9250.0903 -7454.6919 304.1527 -264.4908 -188.3484 30798.2464 -264.4908 -188.3484
ENERGY: 300000 6.0293 7.8367 3.6490 0.0000 -10897.0718 1531.4719 0.0000 0.0000 1782.1354 -7565.9496 301.9058 -9348.0850 -7512.6820 300.5996 638.8248 733.7808 30205.0822 -87.9694 0.7665
ENERGY: 600000 4.9975 6.2878 4.5870 0.0000 -10700.6786 1387.2379 0.0000 0.0000 1744.1514 -7553.4170 295.4711 -9297.5684 -7534.8175 299.7274 -497.1347 -494.6643 30530.8000 44.3944 101.2731
ENERGY: 900000 1.5790 4.7489 3.5794 0.0000 -10836.2540 1461.3585 0.0000 0.0000 1770.7003 -7594.2879 299.9687 -9364.9882 -7505.8348 301.1668 -258.0956 -158.1069 30655.2945 8.8067 75.3583
ENERGY: 1200000 2.7599 2.2252 2.8387 0.0000 -10806.3045 1512.5116 0.0000 0.0000 1729.6804 -7556.2887 293.0196 -9285.9692 -7524.9574 299.7168 524.5538 640.8434 30176.7754 52.6473 120.0544
ENERGY: 1500000 3.1653 6.5763 3.6601 0.0000 -10724.3150 1454.6049 0.0000 0.0000 1764.8271 -7491.4812 298.9737 -9256.3084 -7532.6638 299.0121 176.7551 237.5773 30659.3871 -6.0626 61.0979
TCL: Running FEP window  20: Lambda1 0.9500000000000003 Lambda2 1.0    [dLambda 0.04999999999999971]
TCL: Setting parameter firsttimestep to 0
TCL: Setting parameter alchLambda to 0.9500000000000003
Info: NONBONDED TABLE R-SQUARED SPACING: 0.0625
Info: NONBONDED TABLE SIZE: 705 POINTS
TCL: Setting parameter alchLambda2 to 1.0
Info: NONBONDED TABLE R-SQUARED SPACING: 0.0625
Info: NONBONDED TABLE SIZE: 705 POINTS
TCL: Running for 1500000 steps
ETITLE: TS BOND ANGLE DIHED IMPRP ELECT VDW BOUNDARY MISC KINETIC TOTAL TEMP POTENTIAL TOTALAVG TEMPAVG PRESSURE GPRESSURE VOLUME PRESSAVG GPRESSAVG
ENERGY: 0 3.1653 6.5763 3.6601 0.0000 -10725.4869 1454.4164 0.0000 0.0000 1763.9633 -7493.7054 298.8274 -9257.6687 -7493.7054 298.8274 162.8109 246.8008 30659.3871 162.8109 246.8008
ENERGY: 300000 5.0369 5.0622 4.7635 0.0000 -10803.0878 1499.5871 0.0000 0.0000 1809.5613 -7479.0768 306.5520 -9288.6381 -7538.5256 301.5949 488.6028 488.3911 30163.1203 42.9339 86.0022
ENERGY: 600000 3.2608 6.8145 3.9076 0.0000 -10722.5639 1466.8485 0.0000 0.0000 1714.1842 -7527.5483 290.3945 -9241.7325 -7515.3804 299.5253 348.7690 441.0864 30493.5825 443.7005 506.1697
ENERGY: 900000 4.4497 2.3486 2.9456 0.0000 -10729.6238 1452.6746 0.0000 0.0000 1753.9855 -7513.2198 297.1371 -9267.2053 -7519.0080 299.8509 20.5918 78.7230 30495.7231 334.4946 390.7409
ENERGY: 1200000 5.9199 5.6180 3.6977 0.0000 -10750.1439 1407.2770 0.0000 0.0000 1780.2572 -7547.3741 301.5877 -9327.6313 -7534.2902 299.1721 -322.0580 -315.8278 30071.9475 206.0673 262.6493
ENERGY: 1500000 1.6165 4.1942 1.7555 0.0000 -10673.2513 1377.6852 0.0000 0.0000 1788.2256 -7499.7743 302.9376 -9287.9999 -7520.6775 300.4949 -740.9799 -679.5508 31155.2070 185.4068 243.3937
TCL: Exiting due to exit command.
