Info: SIMULATION PARAMETERS:
Info: TIMESTEP               2
Info: NUMBER OF STEPS        0
Info: STEPS PER CYCLE        10
Info: PERIODIC CELL BASIS 1  30.9352 0 0
Info: PERIODIC CELL BASIS 2  0 30.2725 0
Info: PERIODIC CELL BASIS 3  0 0 31.9859
Info: PERIODIC CELL CENTER   0 0 0
Info: WRAPPING WATERS AROUND PERIODIC BOUNDARIES ON OUTPUT.
Info: WRAPPING ALL CLUSTERS AROUND PERIODIC BOUNDARIES ON OUTPUT.
Info: FIRST LDB TIMESTEP     50
Info: LAST LDB TIMESTEP     -1
Info: HOM BACKGROUND SCALING 1
Info: PME BACKGROUND SCALING 1
Info: MIN ATOMS PER PATCH    40
Info: EMPTY PATCH LOAD       40 ATOMS
Info: VELOCITY FILE          mobley_6235784_equil.vel
Info: CENTER OF MASS MOVING INITIALLY? NO
Info: DIELECTRIC             1
Info: EXCLUDE                SCALED ONE-FOUR
Info: 1-4 ELECTROSTATICS SCALED BY 0.833333
Info: MODIFIED 1-4 VDW PARAMETERS WILL BE USED
Info: DCD FILENAME           mobley_6235784_prod.dcd
Info: DCD FREQUENCY          100000
Info: DCD FIRST STEP         100000
Info: DCD FILE WILL CONTAIN UNIT CELL DATA
Info: XST FILENAME           mobley_6235784_prod.xst
Info: XST FREQUENCY          100000
Info: NO VELOCITY DCD OUTPUT
Info: NO FORCE DCD OUTPUT
Info: OUTPUT FILENAME        mobley_6235784_prod
Info: BINARY OUTPUT FILES WILL BE USED
Info: RESTART FILENAME       mobley_6235784_prod.restart
Info: RESTART FREQUENCY      100000
Info: BINARY RESTART FILES WILL BE USED
Info: CUTOFF                 9
Info: PAIRLIST DISTANCE      11
Info: PAIRLIST SHRINK RATE   0.01
Info: PAIRLIST GROW RATE     0.01
Info: PAIRLIST TRIGGER       0.3
Info: PAIRLISTS PER CYCLE    2
Info: PAIRLISTS ENABLED
Info: MARGIN                 2
Info: HYDROGEN GROUP CUTOFF  2.5
Info: PATCH DIMENSION        15.5
Info: ENERGY OUTPUT STEPS    100000
Info: ENERGY EVALUATION STEPS    100000
Info: OUTPUT ENERGY PRECISION 4
Info: CROSSTERM ENERGY INCLUDED IN DIHEDRAL
Info: TIMING OUTPUT STEPS    1000000
Info: PRESSURE OUTPUT STEPS  100000
Info: ALCHEMICAL FEP ON
Info: FEP CURRENT LAMBDA VALUE     1
Info: FEP COMPARISON LAMBDA VALUE  0.95
Info: FEP INTRA-ALCHEMICAL NON-BONDED INTERACTIONS WILL BE RETAINED
Info: FEP INTRA-ALCHEMICAL BONDED INTERACTIONS WILL BE RETAINED
Info: FEP VDW SHIFTING COEFFICIENT 5
Info: FEP ELEC. ACTIVE FOR ANNIHILATED PARTICLES BETWEEN LAMBDA = 0 AND LAMBDA = 0.5
Info: FEP ELEC. ACTIVE FOR EXNIHILATED PARTICLES BETWEEN LAMBDA = 0.5 AND LAMBDA = 1
Info: FEP VDW ACTIVE FOR ANNIHILATED PARTICLES BETWEEN LAMBDA = 0 AND LAMBDA = 1
Info: FEP VDW ACTIVE FOR EXNIHILATED PARTICLES BETWEEN LAMBDA = 0 AND LAMBDA = 1
Info: FEP BOND ACTIVE FOR ANNIHILATED PARTICLES BETWEEN LAMBDA = 1 AND LAMBDA = 1
Info: FEP BOND ACTIVE FOR EXNIHILATED PARTICLES BETWEEN LAMBDA = 0 AND LAMBDA = 0
Info: LANGEVIN DYNAMICS ACTIVE
Info: LANGEVIN TEMPERATURE   300
Info: LANGEVIN USING BBK INTEGRATOR
Info: LANGEVIN DAMPING COEFFICIENT IS 1 INVERSE PS
Info: LANGEVIN DYNAMICS APPLIED TO HYDROGENS
Info: LANGEVIN PISTON PRESSURE CONTROL ACTIVE
Info:        TARGET PRESSURE IS 1.01325 BAR
Info:     OSCILLATION PERIOD IS 50 FS
Info:             DECAY TIME IS 25 FS
Info:     PISTON TEMPERATURE IS 300 K
Info:       PRESSURE CONTROL IS GROUP-BASED
Info:    INITIAL STRAIN RATE IS 0.000910144 0.000910144 0.000910144
Info:       CELL FLUCTUATION IS ISOTROPIC
Info: PARTICLE MESH EWALD (PME) ACTIVE
Info: PME TOLERANCE               1e-06
Info: PME EWALD COEFFICIENT       0.348832
Info: PME INTERPOLATION ORDER     4
Info: PME GRID DIMENSIONS         32 32 32
Info: PME MAXIMUM GRID SPACING    1
Info: PME CALCULATION WILL BE PERFORMED ON GPU
Info: FULL ELECTROSTATIC EVALUATION FREQUENCY      2
Info: USING VERLET I (r-RESPA) MTS SCHEME.
Info: C1 SPLITTING OF LONG RANGE ELECTROSTATICS
Info: PLACING ATOMS IN PATCHES BY HYDROGEN GROUPS
Info: RIGID BONDS TO HYDROGEN : ALL
Info:         ERROR TOLERANCE : 1e-08
Info:          MAX ITERATIONS : 100
Info: RIGID WATER USING SETTLE ALGORITHM
Info: RANDOM NUMBER SEED     1743740572
Info: USE HYDROGEN BONDS?    NO
Info: Using AMBER format force field!
Info: AMBER PARM FILE        mobley_6235784.prmtop
Info: COORDINATE PDB         mobley_6235784.pdb
Info: Exclusions will be read from PARM file!
Info: SCNB (VDW SCALING)     2
Info: USING ARITHMETIC MEAN TO COMBINE L-J SIGMA PARAMETERS
Info: BINARY COORDINATES     mobley_6235784_equil.coor
Info: SUMMARY OF PARAMETERS:
Info: 6 BONDS
Info: 6 ANGLES
Info:   6 HARMONIC
Info:   0 COSINE-BASED
Info: 8 DIHEDRAL
Info: 0 IMPROPER
Info: 0 CROSSTERM
Info: 0 VDW
Info: 21 VDW_PAIRS
Info: 0 NBTHOLE_PAIRS
Info: To read alchdata from file: mobley_6235784.pdb
Info: To read alchflag data from column: 5
Info: STRUCTURE SUMMARY:
Info: 2939 ATOMS
Info: 2938 BONDS
Info: 24 ANGLES
Info: 34 DIHEDRALS
Info: 0 IMPROPERS
Info: 0 CROSSTERMS
Info: 2989 EXCLUSIONS
Info: 2934 RIGID BONDS
Info: ALCH: 0 ATOMS TO DISAPPEAR IN FINAL STATE
Info: ALCH: 14 ATOMS TO APPEAR IN FINAL STATE
Info: 5883 DEGREES OF FREEDOM
Info: 980 HYDROGEN GROUPS
Info: 4 ATOMS IN LARGEST HYDROGEN GROUP
Info: 980 MIGRATION GROUPS
Info: 4 ATOMS IN LARGEST MIGRATION GROUP
Info: TOTAL MASS = 17658.2 amu
Info: TOTAL CHARGE = -1.49012e-08 e
Info: MASS DENSITY = 0.978914 g/cm^3
Info: ATOM DENSITY = 0.0981159 atoms/A^3
Info: ADDED 0 IMPLICIT EXCLUSIONS
Info: NONBONDED TABLE R-SQUARED SPACING: 0.0625
Info: NONBONDED TABLE SIZE: 705 POINTS
Info: REMOVING COM VELOCITY 0.0751461 -0.34243 0.0365515
Info: Use 3D box decompostion in PME FFT.
Info: Updated CUDA force table with 4096 elements.
Info: Updated CUDA LJ table with 6 x 6 elements.
Info: Found 17 unique exclusion lists needing 36 bytes
TCL: Running for 1500000 steps
ETITLE: TS BOND ANGLE DIHED IMPRP ELECT VDW BOUNDARY MISC KINETIC TOTAL TEMP POTENTIAL TOTALAVG TEMPAVG PRESSURE GPRESSURE VOLUME PRESSAVG GPRESSAVG
ENERGY: 0 1.8362 6.5888 4.1271 0.0000 -10600.9201 1349.3931 0.0000 0.0000 1736.6379 -7502.3370 297.0987 -9238.9749 -7502.3370 297.0987 -643.9143 -566.0579 29954.3841 -643.9143 -566.0579
ENERGY: 300000 0.8583 7.1066 2.0611 0.0000 -10726.2942 1491.8334 0.0000 0.0000 1792.1719 -7432.2629 306.5993 -9224.4348 -7471.4040 301.3488 412.8246 471.7220 30099.7329 -11.8343 67.4689
ENERGY: 600000 1.1751 6.0750 1.8359 0.0000 -10632.6353 1361.0344 0.0000 0.0000 1770.1690 -7492.3458 302.8351 -9262.5148 -7468.8138 300.7894 -742.1828 -661.0743 30288.1065 -156.1248 -73.0490
ENERGY: 900000 1.2339 7.4515 1.6075 0.0000 -10734.4445 1471.0662 0.0000 0.0000 1797.1642 -7455.9212 307.4534 -9253.0855 -7462.7537 299.8402 137.5738 242.2544 30325.0424 -119.1697 -31.2347
ENERGY: 1200000 3.0249 3.7136 2.3307 0.0000 -10633.4663 1429.4986 0.0000 0.0000 1783.9663 -7410.9320 305.1955 -9194.8983 -7454.2670 300.0684 208.0350 270.6835 29980.9158 20.9567 105.2123
ENERGY: 1500000 0.8706 4.9918 3.8024 0.0000 -10617.2297 1466.0066 0.0000 0.0000 1733.1377 -7408.4205 296.4999 -9141.5583 -7456.1119 299.6898 379.3281 456.5422 30337.7387 -32.1206 53.2505
TCL: Running FEP window   2: Lambda1 0.95   Lambda2 0.8999999999999999 [dLambda -0.050000000000000044]
TCL: Setting parameter firsttimestep to 0
TCL: Setting parameter alchLambda to 0.95
Info: NONBONDED TABLE R-SQUARED SPACING: 0.0625
Info: NONBONDED TABLE SIZE: 705 POINTS
TCL: Setting parameter alchLambda2 to 0.8999999999999999
Info: NONBONDED TABLE R-SQUARED SPACING: 0.0625
Info: NONBONDED TABLE SIZE: 705 POINTS
TCL: Running for 1500000 steps
ETITLE: TS BOND ANGLE DIHED IMPRP ELECT VDW BOUNDARY MISC KINETIC TOTAL TEMP POTENTIAL TOTALAVG TEMPAVG PRESSURE GPRESSURE VOLUME PRESSAVG GPRESSAVG
ENERGY: 0 0.8706 4.9918 3.8024 0.0000 -10616.7883 1466.3544 0.0000 0.0000 1732.2635 -7408.5056 296.3504 -9140.7691 -7408.5056 296.3504 355.8927 453.5613 30337.7387 355.8927 453.5613
ENERGY: 300000 1.2815 4.7713 2.2685 0.0000 -10689.0203 1453.4163 0.0000 0.0000 1752.1599 -7475.1228 299.7542 -9227.2827 -7458.9667 298.9423 216.0393 271.7419 30124.9996 42.3350 96.1875
ENERGY: 600000 1.9228 6.5696 2.2941 0.0000 -10620.1849 1430.8847 0.0000 0.0000 1735.0173 -7443.4964 296.8215 -9178.5137 -7462.9592 299.2671 167.0318 229.9129 30405.8169 -153.3476 -100.9947
ENERGY: 900000 0.8028 4.5833 2.6218 0.0000 -10578.9204 1454.7443 0.0000 0.0000 1723.0245 -7393.1437 294.7698 -9116.1682 -7446.7315 299.5190 636.1032 645.1359 30173.9959 -78.6912 -19.8536
ENERGY: 1200000 1.0730 7.7667 2.2268 0.0000 -10760.7074 1432.9250 0.0000 0.0000 1733.7901 -7582.9259 296.6115 -9316.7159 -7468.4391 298.8797 9.2498 -22.4489 30060.5665 -68.6195 -13.3090
ENERGY: 1500000 0.4644 5.2199 3.0583 0.0000 -10742.6480 1466.7045 0.0000 0.0000 1732.1994 -7535.0017 296.3394 -9267.2011 -7469.3054 298.8127 88.5361 165.0192 30122.1124 -78.4391 -17.2666
TCL: Running FEP window   3: Lambda1 0.8999999999999999 Lambda2 0.8499999999999999 [dLambda -0.050000000000000044]
TCL: Setting parameter firsttimestep to 0
TCL: Setting parameter alchLambda to 0.8999999999999999
Info: NONBONDED TABLE R-SQUARED SPACING: 0.0625
Info: NONBONDED TABLE SIZE: 705 POINTS
TCL: Setting parameter alchLambda2 to 0.8499999999999999
Info: NONBONDED TABLE R-SQUARED SPACING: 0.0625
Info: NONBONDED TABLE SIZE: 705 POINTS
TCL: Running for 1500000 steps
ETITLE: TS BOND ANGLE DIHED IMPRP ELECT VDW BOUNDARY MISC KINETIC TOTAL TEMP POTENTIAL TOTALAVG TEMPAVG PRESSURE GPRESSURE VOLUME PRESSAVG GPRESSAVG
ENERGY: 0 0.4644 5.2199 3.0583 0.0000 -10742.3195 1466.8052 0.0000 0.0000 1731.3048 -7535.4670 296.1864 -9266.7718 -7535.4670 296.1864 73.5465 156.0258 30122.1124 73.5465 156.0258
ENERGY: 300000 4.5381 6.3803 2.3637 0.0000 -10680.5733 1475.9377 0.0000 0.0000 1798.5517 -7392.8018 307.6908 -9191.3536 -7494.0736 298.5681 357.2735 393.1238 30346.3381 55.9175 90.9580
ENERGY: 600000 0.7804 7.0232 2.4860 0.0000 -10802.6535 1498.9629 0.0000 0.0000 1749.2350 -7544.1661 299.2538 -9293.4011 -7502.2493 297.6390 669.4241 729.2415 29676.5574 127.2766 174.5061
ENERGY: 900000 0.5291 5.6371 1.8056 0.0000 -10648.2339 1432.3921 0.0000 0.0000 1750.5974 -7457.2725 299.4869 -9207.8700 -7496.4989 297.1145 29.8155 85.8665 30253.7576 37.4321 90.5358
ENERGY: 1200000 1.5330 7.3497 1.9949 0.0000 -10722.2103 1468.6584 0.0000 0.0000 1736.9702 -7505.7042 297.1556 -9242.6745 -7489.8344 297.2559 -33.8768 61.4725 30279.4995 -40.2527 7.4118
ENERGY: 1500000 1.5109 4.5011 2.3641 0.0000 -10622.1522 1418.4722 0.0000 0.0000 1824.1383 -7371.1656 312.0680 -9195.3038 -7470.4131 299.2262 370.3334 402.2707 29714.2828 -2.3508 43.2507
TCL: Running FEP window   4: Lambda1 0.8499999999999999 Lambda2 0.7999999999999998 [dLambda -0.050000000000000044]
TCL: Setting parameter firsttimestep to 0
TCL: Setting parameter alchLambda to 0.8499999999999999
Info: NONBONDED TABLE R-SQUARED SPACING: 0.0625
Info: NONBONDED TABLE SIZE: 705 POINTS
TCL: Setting parameter alchLambda2 to 0.7999999999999998
Info: NONBONDED TABLE R-SQUARED SPACING: 0.0625
Info: NONBONDED TABLE SIZE: 705 POINTS
TCL: Running for 1500000 steps
ETITLE: TS BOND ANGLE DIHED IMPRP ELECT VDW BOUNDARY MISC KINETIC TOTAL TEMP POTENTIAL TOTALAVG TEMPAVG PRESSURE GPRESSURE VOLUME PRESSAVG GPRESSAVG
ENERGY: 0 1.5109 4.5011 2.3641 0.0000 -10621.9563 1418.4627 0.0000 0.0000 1823.2845 -7371.8330 311.9220 -9195.1175 -7371.8330 311.9220 313.6837 395.0805 29714.2828 313.6837 395.0805
ENERGY: 300000 2.4831 4.1568 2.3312 0.0000 -10617.5315 1467.3122 0.0000 0.0000 1771.8803 -7369.3678 303.1279 -9141.2481 -7414.1239 302.2221 473.1415 568.5965 30290.1586 -27.1052 40.1317
ENERGY: 600000 1.0710 8.7559 2.4343 0.0000 -10643.2054 1501.8120 0.0000 0.0000 1765.4136 -7363.7186 302.0216 -9129.1322 -7432.0304 300.9424 665.6094 748.3242 30479.3874 72.5889 142.1954
ENERGY: 900000 0.1470 5.8373 3.1555 0.0000 -10614.1705 1361.4170 0.0000 0.0000 1767.6880 -7475.9258 302.4107 -9243.6138 -7446.9440 300.3814 -696.7937 -618.1358 30363.4276 -181.5670 -115.6402
ENERGY: 1200000 1.1494 7.2359 2.9036 0.0000 -10519.4416 1334.3396 0.0000 0.0000 1780.9359 -7392.8771 304.6771 -9173.8130 -7449.5776 300.3687 -847.7431 -812.9829 30668.8149 -207.2317 -144.3806
ENERGY: 1500000 0.2323 5.6151 1.8733 0.0000 -10461.4082 1283.8929 0.0000 0.0000 1740.1019 -7429.6928 297.6914 -9169.7947 -7452.8032 300.1127 -1260.2079 -1142.6346 30465.6011 -330.5217 -259.9994
TCL: Running FEP window   5: Lambda1 0.7999999999999998 Lambda2 0.7499999999999998 [dLambda -0.050000000000000044]
TCL: Setting parameter firsttimestep to 0
TCL: Setting parameter alchLambda to 0.7999999999999998
Info: NONBONDED TABLE R-SQUARED SPACING: 0.0625
Info: NONBONDED TABLE SIZE: 705 POINTS
TCL: Setting parameter alchLambda2 to 0.7499999999999998
Info: NONBONDED TABLE R-SQUARED SPACING: 0.0625
Info: NONBONDED TABLE SIZE: 705 POINTS
TCL: Running for 1500000 steps
ETITLE: TS BOND ANGLE DIHED IMPRP ELECT VDW BOUNDARY MISC KINETIC TOTAL TEMP POTENTIAL TOTALAVG TEMPAVG PRESSURE GPRESSURE VOLUME PRESSAVG GPRESSAVG
ENERGY: 0 0.2323 5.6151 1.8733 0.0000 -10461.2235 1284.3328 0.0000 0.0000 1739.2326 -7429.9375 297.5426 -9169.1701 -7429.9375 297.5426 -1238.9962 -1145.0623 30465.6011 -1238.9962 -1145.0623
ENERGY: 300000 1.0683 3.5146 2.7624 0.0000 -10641.6431 1396.3181 0.0000 0.0000 1736.0437 -7501.9359 296.9971 -9237.9797 -7448.7461 300.7330 -445.9402 -376.5187 30452.2514 -560.7162 -503.9738
ENERGY: 600000 1.1789 7.6115 1.6800 0.0000 -10681.8836 1459.8651 0.0000 0.0000 1769.2070 -7442.3412 302.6706 -9211.5482 -7448.3737 300.6110 264.6098 352.2018 30131.0518 -269.5539 -199.2862
ENERGY: 900000 1.1422 6.9095 2.4809 0.0000 -10647.4503 1435.9166 0.0000 0.0000 1718.1995 -7482.8016 293.9444 -9201.0011 -7460.2665 299.1556 60.9162 118.1222 30173.9839 -210.3938 -145.4323
ENERGY: 1200000 0.8354 5.0535 1.8057 0.0000 -10567.0184 1363.4559 0.0000 0.0000 1728.6739 -7467.1939 295.7363 -9195.8678 -7456.2738 299.3062 -438.0874 -376.2192 30046.2852 -285.5847 -226.7735
ENERGY: 1500000 1.6314 8.4588 2.8800 0.0000 -10618.3561 1411.9563 0.0000 0.0000 1741.4269 -7452.0027 297.9180 -9193.4296 -7457.3764 298.8247 -109.2104 -24.2232 30128.9864 -180.2275 -121.3316
TCL: Running FEP window   6: Lambda1 0.7499999999999998 Lambda2 0.6999999999999997 [dLambda -0.050000000000000044]
TCL: Setting parameter firsttimestep to 0
TCL: Setting parameter alchLambda to 0.7499999999999998
Info: NONBONDED TABLE R-SQUARED SPACING: 0.0625
Info: NONBONDED TABLE SIZE: 705 POINTS
TCL: Setting parameter alchLambda2 to 0.6999999999999997
Info: NONBONDED TABLE R-SQUARED SPACING: 0.0625
Info: NONBONDED TABLE SIZE: 705 POINTS
TCL: Running for 1500000 steps
ETITLE: TS BOND ANGLE DIHED IMPRP ELECT VDW BOUNDARY MISC KINETIC TOTAL TEMP POTENTIAL TOTALAVG TEMPAVG PRESSURE GPRESSURE VOLUME PRESSAVG GPRESSAVG
ENERGY: 0 1.6314 8.4588 2.8800 0.0000 -10618.2527 1411.8691 0.0000 0.0000 1740.5703 -7452.8431 297.7715 -9193.4134 -7452.8431 297.7715 -131.3357 -36.3302 30128.9864 -131.3357 -36.3302
ENERGY: 300000 1.0822 6.3471 3.3774 0.0000 -10654.0028 1452.5155 0.0000 0.0000 1761.6902 -7428.9903 301.3846 -9190.6805 -7479.0087 298.7999 -21.8909 20.5695 30391.3228 -314.3921 -237.9861
ENERGY: 600000 1.1241 8.9312 2.7240 0.0000 -10470.2398 1242.2880 0.0000 0.0000 1745.8404 -7469.3322 298.6731 -9215.1726 -7475.9608 298.3976 -1758.4588 -1723.1132 30771.6778 -499.4149 -430.6210
ENERGY: 900000 0.1748 4.0596 2.6602 0.0000 -10708.8603 1462.4511 0.0000 0.0000 1827.5971 -7411.9176 312.6598 -9239.5147 -7459.8446 300.8815 477.9614 514.4438 29771.2969 -227.9325 -166.3187
ENERGY: 1200000 2.0442 4.0248 2.2461 0.0000 -10641.4287 1457.2882 0.0000 0.0000 1794.3293 -7381.4960 306.9684 -9175.8253 -7456.6886 300.7984 311.6967 362.1331 30348.5626 -61.6956 3.9076
ENERGY: 1500000 1.7594 7.7282 2.3543 0.0000 -10563.1479 1430.1989 0.0000 0.0000 1756.3105 -7364.7966 300.4643 -9121.1071 -7450.2524 300.5248 121.0647 192.9361 30481.7629 -94.8839 -26.6948
TCL: Running FEP window   7: Lambda1 0.6999999999999997 Lambda2 0.6499999999999997 [dLambda -0.050000000000000044]
TCL: Setting parameter firsttimestep to 0
TCL: Setting parameter alchLambda to 0.6999999999999997
Info: NONBONDED TABLE R-SQUARED SPACING: 0.0625
Info: NONBONDED TABLE SIZE: 705 POINTS
TCL: Setting parameter alchLambda2 to 0.6499999999999997
Info: NONBONDED TABLE R-SQUARED SPACING: 0.0625
Info: NONBONDED TABLE SIZE: 705 POINTS
TCL: Running for 1500000 steps
ETITLE: TS BOND ANGLE DIHED IMPRP ELECT VDW BOUNDARY MISC KINETIC TOTAL TEMP POTENTIAL TOTALAVG TEMPAVG PRESSURE GPRESSURE VOLUME PRESSAVG GPRESSAVG
ENERGY: 0 1.7594 7.7282 2.3543 0.0000 -10563.1086 1430.5116 0.0000 0.0000 1755.4385 -7365.3167 300.3151 -9120.7551 -7365.3167 300.3151 114.2184 186.9683 30481.7629 114.2184 186.9683
ENERGY: 300000 0.9691 4.3886 3.4872 0.0000 -10650.6493 1475.5722 0.0000 0.0000 1730.2713 -7435.9610 296.0096 -9166.2323 -7444.4632 298.3208 265.2793 316.1118 30420.1176 94.8324 148.7762
ENERGY: 600000 0.8389 3.1373 1.7056 0.0000 -10789.7323 1417.1609 0.0000 0.0000 1718.2712 -7648.6184 293.9566 -9366.8896 -7472.8746 296.7624 -469.1486 -397.8354 29949.4765 -216.1803 -161.3609
ENERGY: 900000 0.8614 5.9602 1.9025 0.0000 -10652.6341 1401.7308 0.0000 0.0000 1742.2935 -7499.8857 298.0663 -9242.1793 -7477.0313 298.0311 147.0743 124.3915 29582.9094 -163.4224 -113.5330
ENERGY: 1200000 0.8358 7.9255 2.6396 0.0000 -10698.7776 1454.2540 0.0000 0.0000 1720.2347 -7512.8880 294.2925 -9233.1227 -7484.5178 297.8967 209.0535 176.6381 30020.1590 -121.2277 -79.8109
ENERGY: 1500000 1.2721 8.6520 1.8945 0.0000 -10662.9215 1407.2163 0.0000 0.0000 1773.4990 -7470.3875 303.4048 -9243.8865 -7486.2772 297.6958 -391.1919 -358.5304 30427.2530 -157.4488 -115.7701
TCL: Running FEP window   8: Lambda1 0.6499999999999997 Lambda2 0.5999999999999996 [dLambda -0.050000000000000044]
TCL: Setting parameter firsttimestep to 0
TCL: Setting parameter alchLambda to 0.6499999999999997
Info: NONBONDED TABLE R-SQUARED SPACING: 0.0625
Info: NONBONDED TABLE SIZE: 705 POINTS
TCL: Setting parameter alchLambda2 to 0.5999999999999996
Info: NONBONDED TABLE R-SQUARED SPACING: 0.0625
Info: NONBONDED TABLE SIZE: 705 POINTS
TCL: Running for 1500000 steps
ETITLE: TS BOND ANGLE DIHED IMPRP ELECT VDW BOUNDARY MISC KINETIC TOTAL TEMP POTENTIAL TOTALAVG TEMPAVG PRESSURE GPRESSURE VOLUME PRESSAVG GPRESSAVG
ENERGY: 0 1.2721 8.6520 1.8945 0.0000 -10662.8858 1407.4642 0.0000 0.0000 1772.6055 -7470.9974 303.2520 -9243.6029 -7470.9974 303.2520 -448.0695 -360.7080 30427.2530 -448.0695 -360.7080
ENERGY: 300000 1.0963 6.7897 1.9122 0.0000 -10682.2604 1467.5753 0.0000 0.0000 1745.9223 -7458.9647 298.6871 -9204.8870 -7499.8605 298.2649 57.0379 137.3060 30700.1328 -392.1902 -326.4745
ENERGY: 600000 0.4942 4.7550 1.9462 0.0000 -10808.0792 1551.7716 0.0000 0.0000 1765.6293 -7483.4829 302.0585 -9249.1122 -7483.5022 299.7515 1044.1590 1093.7335 29797.9894 -5.0452 41.1797
ENERGY: 900000 1.3148 4.6645 2.6647 0.0000 -10651.0572 1390.1990 0.0000 0.0000 1770.6367 -7481.5776 302.9151 -9252.2142 -7461.8274 301.1126 -513.1014 -453.9899 30318.4258 -17.9567 37.5074
ENERGY: 1200000 0.7035 5.6000 2.5969 0.0000 -10570.0917 1373.5893 0.0000 0.0000 1715.5151 -7472.0871 293.4851 -9187.6021 -7457.7197 300.8391 -661.0329 -519.6707 30493.3197 -156.4573 -100.6195
ENERGY: 1500000 0.6432 7.8790 2.3129 0.0000 -10635.3573 1448.9917 0.0000 0.0000 1718.0985 -7457.4320 293.9271 -9175.5305 -7458.2781 300.7578 27.3674 53.5208 30316.9239 -139.5868 -85.3378
TCL: Running FEP window   9: Lambda1 0.5999999999999996 Lambda2 0.5499999999999996 [dLambda -0.050000000000000044]
TCL: Setting parameter firsttimestep to 0
TCL: Setting parameter alchLambda to 0.5999999999999996
Info: NONBONDED TABLE R-SQUARED SPACING: 0.0625
Info: NONBONDED TABLE SIZE: 705 POINTS
TCL: Setting parameter alchLambda2 to 0.5499999999999996
Info: NONBONDED TABLE R-SQUARED SPACING: 0.0625
Info: NONBONDED TABLE SIZE: 705 POINTS
TCL: Running for 1500000 steps
ETITLE: TS BOND ANGLE DIHED IMPRP ELECT VDW BOUNDARY MISC KINETIC TOTAL TEMP POTENTIAL TOTALAVG TEMPAVG PRESSURE GPRESSURE VOLUME PRESSAVG GPRESSAVG
ENERGY: 0 0.6432 7.8790 2.3129 0.0000 -10634.9436 1449.4766 0.0000 0.0000 1717.2342 -7457.3978 293.7792 -9174.6320 -7457.3978 293.7792 -35.5351 52.9112 30316.9239 -35.5351 52.9112
ENERGY: 300000 1.5109 2.7176 3.2889 0.0000 -10548.3819 1379.5585 0.0000 0.0000 1737.5427 -7423.7633 297.2535 -9161.3060 -7421.1307 302.1193 -627.3868 -564.7354 30897.3700 76.2737 140.0988
ENERGY: 600000 0.3679 4.7951 2.2497 0.0000 -10769.6361 1539.8371 0.0000 0.0000 1790.0462 -7432.3402 306.2357 -9222.3863 -7440.6273 301.2549 990.7543 1011.7663 30037.5822 67.2687 125.8284
ENERGY: 900000 0.1751 2.4479 4.4350 0.0000 -10711.9932 1479.8149 0.0000 0.0000 1770.9128 -7454.2073 302.9624 -9225.1202 -7436.3126 300.8957 304.7859 364.4386 30273.7708 107.4192 157.0426
ENERGY: 1200000 1.5491 7.9411 2.4631 0.0000 -10557.4533 1444.3553 0.0000 0.0000 1841.1848 -7259.9599 314.9843 -9101.1446 -7420.0762 301.5057 461.1803 479.3977 30367.8969 21.8498 72.8171
ENERGY: 1500000 1.3555 4.7733 2.2740 0.0000 -10584.4665 1398.7632 0.0000 0.0000 1791.0508 -7386.2497 306.4075 -9177.3005 -7421.8485 302.2399 -199.9596 -98.6035 30246.3752 61.6697 112.0067
TCL: Running FEP window  10: Lambda1 0.5499999999999996 Lambda2 0.4999999999999996 [dLambda -0.04999999999999999]
TCL: Setting parameter firsttimestep to 0
TCL: Setting parameter alchLambda to 0.5499999999999996
Info: NONBONDED TABLE R-SQUARED SPACING: 0.0625
Info: NONBONDED TABLE SIZE: 705 POINTS
TCL: Setting parameter alchLambda2 to 0.4999999999999996
Info: NONBONDED TABLE R-SQUARED SPACING: 0.0625
Info: NONBONDED TABLE SIZE: 705 POINTS
TCL: Running for 1500000 steps
ETITLE: TS BOND ANGLE DIHED IMPRP ELECT VDW BOUNDARY MISC KINETIC TOTAL TEMP POTENTIAL TOTALAVG TEMPAVG PRESSURE GPRESSURE VOLUME PRESSAVG GPRESSAVG
ENERGY: 0 1.3555 4.7733 2.2740 0.0000 -10584.2310 1399.0914 0.0000 0.0000 1790.2055 -7386.5313 306.2629 -9176.7368 -7386.5313 306.2629 -182.9078 -99.9539 30246.3752 -182.9078 -99.9539
ENERGY: 300000 0.5616 6.5414 1.9261 0.0000 -10656.9879 1388.7622 0.0000 0.0000 1736.2898 -7522.9069 297.0392 -9259.1966 -7413.2552 303.6558 -368.2719 -237.4394 29973.4139 -149.8518 -68.5752
ENERGY: 600000 1.2146 6.5061 2.6968 0.0000 -10683.0509 1464.7129 0.0000 0.0000 1735.9666 -7471.9539 296.9839 -9207.9205 -7434.7036 301.2616 90.0216 201.2306 30101.2892 -42.3165 39.8917
ENERGY: 900000 1.8285 5.2813 1.9330 0.0000 -10643.6234 1410.6789 0.0000 0.0000 1772.2283 -7451.6735 303.1874 -9223.9018 -7431.1013 301.4042 -371.1606 -235.9032 30486.8139 -32.8869 48.4916
ENERGY: 1200000 0.8083 9.1379 2.1465 0.0000 -10500.3669 1349.5675 0.0000 0.0000 1739.1144 -7399.5924 297.5224 -9138.7067 -7433.2735 300.0032 -651.4041 -561.9427 30397.6832 -94.4553 -10.8239
ENERGY: 1500000 0.4370 7.6291 2.1969 0.0000 -10701.1356 1451.3861 0.0000 0.0000 1790.9106 -7448.5758 306.3835 -9239.4864 -7433.0071 300.7698 62.7207 106.2974 30268.2737 -135.3617 -59.8314
TCL: Running FEP window  11: Lambda1 0.4999999999999996 Lambda2 0.4499999999999996 [dLambda -0.04999999999999999]
TCL: Setting parameter firsttimestep to 0
TCL: Setting parameter alchLambda to 0.4999999999999996
Info: NONBONDED TABLE R-SQUARED SPACING: 0.0625
Info: NONBONDED TABLE SIZE: 705 POINTS
TCL: Setting parameter alchLambda2 to 0.4499999999999996
Info: NONBONDED TABLE R-SQUARED SPACING: 0.0625
Info: NONBONDED TABLE SIZE: 705 POINTS
TCL: Running for 1500000 steps
ETITLE: TS BOND ANGLE DIHED IMPRP ELECT VDW BOUNDARY MISC KINETIC TOTAL TEMP POTENTIAL TOTALAVG TEMPAVG PRESSURE GPRESSURE VOLUME PRESSAVG GPRESSAVG
ENERGY: 0 0.4370 7.6291 2.1969 0.0000 -10701.1693 1451.6604 0.0000 0.0000 1790.0464 -7449.1994 306.2357 -9239.2458 -7449.1994 306.2357 20.3448 104.3202 30268.2737 20.3448 104.3202
ENERGY: 300000 0.5836 4.0762 2.5091 0.0000 -10596.5685 1421.6269 0.0000 0.0000 1720.3069 -7447.4658 294.3049 -9167.7727 -7471.1764 299.2079 -45.4982 11.7242 30414.7108 -96.9944 -30.9946
ENERGY: 600000 1.2519 7.9357 2.2655 0.0000 -10628.3888 1426.0688 0.0000 0.0000 1720.3018 -7470.5651 294.3040 -9190.8669 -7456.2950 298.6919 -194.4340 -103.8392 30210.4284 -153.6994 -88.5762
ENERGY: 900000 4.2198 7.5306 1.7891 0.0000 -10768.8918 1526.8525 0.0000 0.0000 1763.4193 -7465.0805 301.6804 -9228.4998 -7446.8634 299.2806 431.2825 493.3423 30481.2320 -188.5985 -114.0110
ENERGY: 1200000 3.6202 3.1239 3.3034 0.0000 -10434.5888 1347.1697 0.0000 0.0000 1824.3560 -7253.0156 312.1053 -9077.3716 -7439.6326 300.3177 -413.3289 -335.8397 30523.0810 -80.5726 -10.7787
ENERGY: 1500000 0.3751 3.0063 2.1555 0.0000 -10709.8100 1446.4247 0.0000 0.0000 1770.5471 -7487.3013 302.8998 -9257.8484 -7430.6858 300.9464 -17.7765 42.2955 30183.9973 -51.6134 18.9528
TCL: Running FEP window  12: Lambda1 0.4499999999999996 Lambda2 0.39999999999999963 [dLambda -0.04999999999999999]
TCL: Setting parameter firsttimestep to 0
TCL: Setting parameter alchLambda to 0.4499999999999996
Info: NONBONDED TABLE R-SQUARED SPACING: 0.0625
Info: NONBONDED TABLE SIZE: 705 POINTS
TCL: Setting parameter alchLambda2 to 0.39999999999999963
Info: NONBONDED TABLE R-SQUARED SPACING: 0.0625
Info: NONBONDED TABLE SIZE: 705 POINTS
TCL: Running for 1500000 steps
ETITLE: TS BOND ANGLE DIHED IMPRP ELECT VDW BOUNDARY MISC KINETIC TOTAL TEMP POTENTIAL TOTALAVG TEMPAVG PRESSURE GPRESSURE VOLUME PRESSAVG GPRESSAVG
ENERGY: 0 0.3751 3.0063 2.1555 0.0000 -10709.8083 1446.2397 0.0000 0.0000 1769.6331 -7488.3986 302.7435 -9258.0317 -7488.3986 302.7435 -69.0711 32.0043 30183.9973 -69.0711 32.0043
ENERGY: 300000 1.9788 7.9927 3.0029 0.0000 -10587.6578 1377.5148 0.0000 0.0000 1781.7986 -7415.3700 304.8247 -9197.1687 -7473.9655 301.3369 -629.3597 -541.1988 30539.3454 251.8019 320.6320
ENERGY: 600000 0.6070 6.1719 1.9174 0.0000 -10512.8329 1398.1647 0.0000 0.0000 1789.7320 -7316.2398 306.1819 -9105.9719 -7435.6869 302.4076 -279.6133 -214.2183 30659.8312 56.4347 127.8706
ENERGY: 900000 0.8788 6.7682 2.9987 0.0000 -10526.3730 1388.1822 0.0000 0.0000 1800.8821 -7326.6630 308.0894 -9127.5451 -7426.1066 301.9569 -299.7597 -175.9585 30730.6575 81.9499 152.5728
ENERGY: 1200000 1.4005 7.2348 3.5417 0.0000 -10575.2283 1374.7227 0.0000 0.0000 1808.4419 -7379.8867 309.3828 -9188.3286 -7432.1476 301.7711 -489.7788 -442.6774 30460.6862 128.2636 192.7098
ENERGY: 1500000 2.2979 8.3813 1.9211 0.0000 -10535.7363 1374.3730 0.0000 0.0000 1781.9900 -7366.7730 304.8574 -9148.7629 -7429.7338 301.6631 -526.8210 -446.8249 30614.1778 20.4155 86.7163
TCL: Running FEP window  13: Lambda1 0.39999999999999963 Lambda2 0.34999999999999964 [dLambda -0.04999999999999999]
TCL: Setting parameter firsttimestep to 0
TCL: Setting parameter alchLambda to 0.39999999999999963
Info: NONBONDED TABLE R-SQUARED SPACING: 0.0625
Info: NONBONDED TABLE SIZE: 705 POINTS
TCL: Setting parameter alchLambda2 to 0.34999999999999964
Info: NONBONDED TABLE R-SQUARED SPACING: 0.0625
Info: NONBONDED TABLE SIZE: 705 POINTS
TCL: Running for 1500000 steps
ETITLE: TS BOND ANGLE DIHED IMPRP ELECT VDW BOUNDARY MISC KINETIC TOTAL TEMP POTENTIAL TOTALAVG TEMPAVG PRESSURE GPRESSURE VOLUME PRESSAVG GPRESSAVG
ENERGY: 0 2.2979 8.3813 1.9211 0.0000 -10535.7351 1374.4162 0.0000 0.0000 1781.1209 -7367.5978 304.7088 -9148.7187 -7367.5978 304.7088 -520.7350 -449.6934 30614.1778 -520.7350 -449.6934
ENERGY: 300000 0.8678 3.7700 2.0741 0.0000 -10762.9556 1478.3211 0.0000 0.0000 1798.5323 -7479.3903 307.6875 -9277.9227 -7447.7712 303.8711 339.9169 399.9913 30110.3834 -382.3045 -333.7586
ENERGY: 600000 2.1882 10.3540 2.5880 0.0000 -10590.7588 1501.0671 0.0000 0.0000 1799.2113 -7275.3503 307.8036 -9074.5616 -7429.4272 303.5201 1063.6194 1156.7472 30119.8547 73.1847 124.4461
ENERGY: 900000 0.1013 3.2970 2.0896 0.0000 -10635.8420 1375.6872 0.0000 0.0000 1782.1936 -7472.4733 304.8923 -9254.6669 -7440.6668 303.7117 -253.5945 -198.6565 29603.1673 -11.6776 42.7865
ENERGY: 1200000 0.8510 4.5099 2.7202 0.0000 -10719.9701 1490.8561 0.0000 0.0000 1767.4026 -7453.6303 302.3619 -9221.0329 -7446.1299 304.1550 421.3644 440.7396 30216.9521 16.7711 67.4289
ENERGY: 1500000 0.3589 4.5978 2.0172 0.0000 -10634.8556 1401.0426 0.0000 0.0000 1765.0052 -7461.8339 301.9517 -9226.8391 -7443.8925 303.4315 -190.7117 -126.1215 30122.4742 -60.5441 -5.9316
TCL: Running FEP window  14: Lambda1 0.34999999999999964 Lambda2 0.29999999999999966 [dLambda -0.04999999999999999]
TCL: Setting parameter firsttimestep to 0
TCL: Setting parameter alchLambda to 0.34999999999999964
Info: NONBONDED TABLE R-SQUARED SPACING: 0.0625
Info: NONBONDED TABLE SIZE: 705 POINTS
TCL: Setting parameter alchLambda2 to 0.29999999999999966
Info: NONBONDED TABLE R-SQUARED SPACING: 0.0625
Info: NONBONDED TABLE SIZE: 705 POINTS
TCL: Running for 1500000 steps
ETITLE: TS BOND ANGLE DIHED IMPRP ELECT VDW BOUNDARY MISC KINETIC TOTAL TEMP POTENTIAL TOTALAVG TEMPAVG PRESSURE GPRESSURE VOLUME PRESSAVG GPRESSAVG
ENERGY: 0 0.3589 4.5978 2.0172 0.0000 -10634.8547 1401.0881 0.0000 0.0000 1764.1672 -7462.6256 301.8084 -9226.7927 -7462.6256 301.8084 -230.4782 -132.2103 30122.4742 -230.4782 -132.2103
ENERGY: 300000 1.8304 6.7766 2.8325 0.0000 -10726.9154 1466.1397 0.0000 0.0000 1804.1027 -7445.2334 308.6404 -9249.3362 -7473.4101 302.1181 63.3537 92.4746 30277.6760 -165.2089 -116.0963
ENERGY: 600000 0.1727 4.1459 1.7738 0.0000 -10732.5481 1417.0678 0.0000 0.0000 1783.0403 -7526.3476 305.0371 -9309.3879 -7492.9208 299.6256 -434.2705 -394.7620 30146.9642 -117.1320 -79.4004
ENERGY: 900000 0.6901 6.3171 1.9944 0.0000 -10670.7293 1502.5577 0.0000 0.0000 1801.0125 -7358.1574 308.1118 -9159.1699 -7452.5258 300.9146 745.6009 776.8390 30159.5211 -192.1523 -151.2445
ENERGY: 1200000 0.2571 6.0931 2.7280 0.0000 -10710.3070 1421.7987 0.0000 0.0000 1736.4809 -7542.9492 297.0719 -9279.4301 -7443.9663 301.4282 -384.0950 -292.3183 30114.6570 -188.7045 -136.0270
ENERGY: 1500000 0.7689 4.3349 2.2152 0.0000 -10648.8550 1394.0873 0.0000 0.0000 1784.7407 -7462.7079 305.3280 -9247.4486 -7455.9571 300.7359 -184.8418 -158.4830 30016.9606 -163.6907 -111.7032
TCL: Running FEP window  15: Lambda1 0.29999999999999966 Lambda2 0.24999999999999967 [dLambda -0.04999999999999999]
TCL: Setting parameter firsttimestep to 0
TCL: Setting parameter alchLambda to 0.29999999999999966
Info: NONBONDED TABLE R-SQUARED SPACING: 0.0625
Info: NONBONDED TABLE SIZE: 705 POINTS
TCL: Setting parameter alchLambda2 to 0.24999999999999967
Info: NONBONDED TABLE R-SQUARED SPACING: 0.0625
Info: NONBONDED TABLE SIZE: 705 POINTS
TCL: Running for 1500000 steps
ETITLE: TS BOND ANGLE DIHED IMPRP ELECT VDW BOUNDARY MISC KINETIC TOTAL TEMP POTENTIAL TOTALAVG TEMPAVG PRESSURE GPRESSURE VOLUME PRESSAVG GPRESSAVG
ENERGY: 0 0.7689 4.3349 2.2152 0.0000 -10648.8546 1393.7902 0.0000 0.0000 1783.8393 -7463.9061 305.1738 -9247.7453 -7463.9061 305.1738 -248.2287 -167.2041 30016.9606 -248.2287 -167.2041
ENERGY: 300000 1.3017 3.1365 2.8343 0.0000 -10701.8737 1479.1357 0.0000 0.0000 1783.0628 -7432.4026 305.0410 -9215.4654 -7444.0474 300.2562 162.7847 276.1996 30502.4814 -64.9112 -5.0334
ENERGY: 600000 2.0234 9.6019 2.4520 0.0000 -10649.5769 1402.1669 0.0000 0.0000 1781.0275 -7452.3051 304.6928 -9233.3326 -7461.4462 300.0479 -394.7713 -317.3158 30327.3539 -64.6277 -4.7332
ENERGY: 900000 0.6394 5.7067 2.4845 0.0000 -10549.5313 1409.5589 0.0000 0.0000 1763.7291 -7367.4127 301.7334 -9131.1418 -7440.6743 301.3278 -200.0769 -158.5637 31038.7340 -27.4759 36.4611
ENERGY: 1200000 0.7250 10.0078 2.4679 0.0000 -10425.8497 1315.9754 0.0000 0.0000 1679.7569 -7416.9168 287.3677 -9096.6737 -7444.3784 299.5291 -632.4923 -612.2982 30161.3209 -1.7271 61.7763
ENERGY: 1500000 3.2017 4.2269 2.4576 0.0000 -10545.4057 1458.0200 0.0000 0.0000 1742.7922 -7334.7072 298.1516 -9077.4995 -7442.2054 298.9797 167.6604 198.1055 30663.7591 57.3066 118.6043
TCL: Running FEP window  16: Lambda1 0.24999999999999967 Lambda2 0.19999999999999968 [dLambda -0.04999999999999999]
TCL: Setting parameter firsttimestep to 0
TCL: Setting parameter alchLambda to 0.24999999999999967
Info: NONBONDED TABLE R-SQUARED SPACING: 0.0625
Info: NONBONDED TABLE SIZE: 705 POINTS
TCL: Setting parameter alchLambda2 to 0.19999999999999968
Info: NONBONDED TABLE R-SQUARED SPACING: 0.0625
Info: NONBONDED TABLE SIZE: 705 POINTS
TCL: Running for 1500000 steps
ETITLE: TS BOND ANGLE DIHED IMPRP ELECT VDW BOUNDARY MISC KINETIC TOTAL TEMP POTENTIAL TOTALAVG TEMPAVG PRESSURE GPRESSURE VOLUME PRESSAVG GPRESSAVG
ENERGY: 0 3.2017 4.2269 2.4576 0.0000 -10545.4068 1458.3981 0.0000 0.0000 1741.9106 -7335.2118 298.0008 -9077.1224 -7335.2118 298.0008 114.7548 199.8795 30663.7591 114.7548 199.8795
ENERGY: 300000 0.0359 3.5258 2.0280 0.0000 -10575.3604 1382.4323 0.0000 0.0000 1745.4079 -7441.9305 298.5991 -9187.3384 -7431.0382 298.5934 -324.0789 -266.1087 30284.9928 25.7824 56.6093
ENERGY: 600000 3.7415 5.8290 2.1135 0.0000 -10709.0428 1470.1832 0.0000 0.0000 1772.4993 -7454.6763 303.2338 -9227.1756 -7430.2701 299.0657 -0.1211 29.6346 30454.9464 -154.7118 -111.5696
ENERGY: 900000 1.0534 4.0699 1.9604 0.0000 -10514.2568 1369.3996 0.0000 0.0000 1784.2533 -7353.5202 305.2446 -9137.7735 -7424.2122 299.9179 -565.1580 -445.2824 30854.3593 -161.1706 -108.0240
ENERGY: 1200000 2.3708 3.8439 1.9623 0.0000 -10651.1615 1490.4010 0.0000 0.0000 1759.0208 -7393.5627 300.9279 -9152.5835 -7429.3898 300.1497 662.4146 717.4215 30055.0655 -114.6094 -61.8970
ENERGY: 1500000 0.0738 5.4030 2.0108 0.0000 -10720.4146 1491.9208 0.0000 0.0000 1807.5972 -7413.4089 309.2382 -9221.0062 -7431.6964 300.8298 588.7249 594.1067 29929.7200 -67.8985 -18.9940
TCL: Running FEP window  17: Lambda1 0.19999999999999968 Lambda2 0.1499999999999997 [dLambda -0.04999999999999999]
TCL: Setting parameter firsttimestep to 0
TCL: Setting parameter alchLambda to 0.19999999999999968
Info: NONBONDED TABLE R-SQUARED SPACING: 0.0625
Info: NONBONDED TABLE SIZE: 705 POINTS
TCL: Setting parameter alchLambda2 to 0.1499999999999997
Info: NONBONDED TABLE R-SQUARED SPACING: 0.0625
Info: NONBONDED TABLE SIZE: 705 POINTS
TCL: Running for 1500000 steps
ETITLE: TS BOND ANGLE DIHED IMPRP ELECT VDW BOUNDARY MISC KINETIC TOTAL TEMP POTENTIAL TOTALAVG TEMPAVG PRESSURE GPRESSURE VOLUME PRESSAVG GPRESSAVG
ENERGY: 0 0.0738 5.4030 2.0108 0.0000 -10720.4156 1492.0604 0.0000 0.0000 1806.7148 -7414.1528 309.0873 -9220.8677 -7414.1528 309.0873 497.4310 591.0759 29929.7200 497.4310 591.0759
ENERGY: 300000 0.6359 4.9806 2.2156 0.0000 -10798.2067 1540.4232 0.0000 0.0000 1732.0122 -7517.9393 296.3074 -9249.9515 -7456.0156 299.6860 757.7859 810.8815 29895.3571 496.0040 574.0690
ENERGY: 600000 3.6555 6.0479 4.7096 0.0000 -10647.3838 1435.2129 0.0000 0.0000 1737.1453 -7460.6126 297.1855 -9197.7578 -7458.0339 298.7955 -243.3741 -212.0429 30385.6827 292.5190 355.5937
ENERGY: 900000 1.1994 6.0231 1.9059 0.0000 -10756.0888 1583.6220 0.0000 0.0000 1783.3216 -7380.0168 305.0853 -9163.3384 -7440.2173 299.8443 1309.3791 1344.1730 30191.5458 422.5450 474.5206
ENERGY: 1200000 3.3900 3.5634 2.2521 0.0000 -10755.1187 1475.9521 0.0000 0.0000 1739.7786 -7530.1825 297.6360 -9269.9612 -7447.5511 299.7817 -147.0753 -61.6793 30438.9011 287.9629 351.6073
ENERGY: 1500000 1.4474 5.8881 1.8418 0.0000 -10820.8856 1503.5751 0.0000 0.0000 1721.5234 -7586.6097 294.5130 -9308.1331 -7445.2431 300.5499 539.6303 610.3902 29313.8444 225.1509 282.8203
TCL: Running FEP window  18: Lambda1 0.1499999999999997 Lambda2 0.09999999999999969 [dLambda -0.05 ]
TCL: Setting parameter firsttimestep to 0
TCL: Setting parameter alchLambda to 0.1499999999999997
Info: NONBONDED TABLE R-SQUARED SPACING: 0.0625
Info: NONBONDED TABLE SIZE: 705 POINTS
TCL: Setting parameter alchLambda2 to 0.09999999999999969
Info: NONBONDED TABLE R-SQUARED SPACING: 0.0625
Info: NONBONDED TABLE SIZE: 705 POINTS
TCL: Running for 1500000 steps
ETITLE: TS BOND ANGLE DIHED IMPRP ELECT VDW BOUNDARY MISC KINETIC TOTAL TEMP POTENTIAL TOTALAVG TEMPAVG PRESSURE GPRESSURE VOLUME PRESSAVG GPRESSAVG
ENERGY: 0 1.4474 5.8881 1.8418 0.0000 -10820.8862 1503.5268 0.0000 0.0000 1720.6638 -7587.5182 294.3659 -9308.1820 -7587.5182 294.3659 511.7824 607.9827 29313.8444 511.7824 607.9827
ENERGY: 300000 1.7608 7.5886 2.4284 0.0000 -10734.6860 1459.5202 0.0000 0.0000 1782.5322 -7480.8558 304.9502 -9263.3880 -7462.5219 303.9876 -186.3428 -152.2014 30222.5551 283.8039 357.2943
ENERGY: 600000 0.3801 7.1480 2.4901 0.0000 -10668.8962 1410.1584 0.0000 0.0000 1754.9394 -7493.7803 300.2297 -9248.7197 -7473.7972 301.5827 241.7839 258.5812 29100.6972 89.4999 134.7491
ENERGY: 900000 2.5142 3.7166 3.5392 0.0000 -10672.1249 1447.1131 0.0000 0.0000 1783.1752 -7432.0667 305.0602 -9215.2419 -7463.7958 301.6782 225.0825 232.4761 29930.9900 77.1446 116.2752
ENERGY: 1200000 0.6480 7.4265 2.2001 0.0000 -10611.7114 1406.7770 0.0000 0.0000 1806.4462 -7388.2135 309.0413 -9194.6597 -7447.5314 303.3117 -118.3395 -46.1897 29952.2840 -1.7670 43.7759
ENERGY: 1500000 0.7524 4.4037 2.4943 0.0000 -10826.0898 1522.6661 0.0000 0.0000 1761.2655 -7534.5079 301.3120 -9295.7733 -7457.2488 302.4444 520.8929 552.6219 29887.3849 -19.8540 31.8252
TCL: Running FEP window  19: Lambda1 0.09999999999999969 Lambda2 0.049999999999999684 [dLambda -0.05 ]
TCL: Setting parameter firsttimestep to 0
TCL: Setting parameter alchLambda to 0.09999999999999969
Info: NONBONDED TABLE R-SQUARED SPACING: 0.0625
Info: NONBONDED TABLE SIZE: 705 POINTS
TCL: Setting parameter alchLambda2 to 0.049999999999999684
Info: NONBONDED TABLE R-SQUARED SPACING: 0.0625
Info: NONBONDED TABLE SIZE: 705 POINTS
TCL: Running for 1500000 steps
ETITLE: TS BOND ANGLE DIHED IMPRP ELECT VDW BOUNDARY MISC KINETIC TOTAL TEMP POTENTIAL TOTALAVG TEMPAVG PRESSURE GPRESSURE VOLUME PRESSAVG GPRESSAVG
ENERGY: 0 0.7524 4.4037 2.4943 0.0000 -10826.0886 1522.5871 0.0000 0.0000 1760.3964 -7535.4547 301.1633 -9295.8511 -7535.4547 301.1633 468.1010 550.4135 29887.3849 468.1010 550.4135
ENERGY: 300000 2.3926 8.3609 2.3532 0.0000 -10657.5503 1446.8543 0.0000 0.0000 1777.6772 -7419.9121 304.1196 -9197.5893 -7465.5691 302.8585 262.0184 281.3225 29948.4959 79.9802 127.4949
ENERGY: 600000 2.0236 5.1797 1.6467 0.0000 -10577.6273 1391.2861 0.0000 0.0000 1784.5970 -7392.8942 305.3034 -9177.4912 -7438.8900 303.5026 -514.3665 -432.1584 30549.2119 42.9885 98.2242
ENERGY: 900000 0.1887 8.3665 2.4872 0.0000 -10588.6240 1393.5575 0.0000 0.0000 1765.7966 -7418.2275 302.0871 -9184.0241 -7430.4672 302.6389 -279.7518 -211.2775 30308.8349 2.8062 62.3677
ENERGY: 1200000 0.3021 3.4310 2.4561 0.0000 -10696.5222 1464.8328 0.0000 0.0000 1737.3751 -7488.1251 297.2249 -9225.5002 -7433.1394 302.0660 411.3785 466.4039 29850.3431 -102.1711 -43.6914
ENERGY: 1500000 2.5157 10.2800 2.9463 0.0000 -10755.5580 1465.3107 0.0000 0.0000 1756.3321 -7518.1731 300.4680 -9274.5052 -7443.6862 302.0911 -77.1376 -93.8768 30528.4194 -66.4556 -6.1160
TCL: Running FEP window  20: Lambda1 0.049999999999999684 Lambda2 0.0    [dLambda -0.049999999999999684]
TCL: Setting parameter firsttimestep to 0
TCL: Setting parameter alchLambda to 0.049999999999999684
Info: NONBONDED TABLE R-SQUARED SPACING: 0.0625
Info: NONBONDED TABLE SIZE: 705 POINTS
TCL: Setting parameter alchLambda2 to 0.0
Info: NONBONDED TABLE R-SQUARED SPACING: 0.0625
Info: NONBONDED TABLE SIZE: 705 POINTS
TCL: Running for 1500000 steps
ETITLE: TS BOND ANGLE DIHED IMPRP ELECT VDW BOUNDARY MISC KINETIC TOTAL TEMP POTENTIAL TOTALAVG TEMPAVG PRESSURE GPRESSURE VOLUME PRESSAVG GPRESSAVG
ENERGY: 0 2.5157 10.2800 2.9463 0.0000 -10755.5591 1465.7028 0.0000 0.0000 1755.4364 -7518.6779 300.3147 -9274.1143 -7518.6779 300.3147 -170.9238 -94.2563 30528.4194 -170.9238 -94.2563
ENERGY: 300000 1.9943 6.4306 1.8004 0.0000 -10716.7437 1413.7714 0.0000 0.0000 1784.2585 -7508.4885 305.2455 -9292.7470 -7460.6789 303.0035 -286.4875 -270.4384 29951.0536 -190.8380 -134.8126
ENERGY: 600000 1.9369 5.2208 3.5341 0.0000 -10455.3350 1363.6410 0.0000 0.0000 1700.3921 -7380.6101 290.8979 -9081.0023 -7417.9035 301.0203 -310.7426 -198.5723 30286.6334 -224.9082 -167.6221
ENERGY: 900000 1.2449 3.8121 2.9931 0.0000 -10608.7603 1400.5823 0.0000 0.0000 1754.0363 -7446.0916 300.0752 -9200.1279 -7419.7522 301.5353 -427.6891 -379.8528 30304.6573 -239.2661 -185.6530
ENERGY: 1200000 1.6297 5.2146 2.7445 0.0000 -10592.1950 1356.7145 0.0000 0.0000 1768.0630 -7457.8286 302.4749 -9225.8917 -7434.1458 300.3865 -572.6051 -478.5405 29862.5566 -248.6980 -196.4875
ENERGY: 1500000 0.3601 4.4719 2.4703 0.0000 -10666.7643 1411.2091 0.0000 0.0000 1758.2750 -7489.9779 300.8003 -9248.2529 -7447.7771 299.9878 -214.3710 -183.7206 29978.2278 -180.4417 -130.0601
TCL: Exiting due to exit command.
