Info: SIMULATION PARAMETERS:
Info: TIMESTEP               2
Info: NUMBER OF STEPS        0
Info: STEPS PER CYCLE        10
Info: PERIODIC CELL BASIS 1  30.7762 0 0
Info: PERIODIC CELL BASIS 2  0 33.0081 0
Info: PERIODIC CELL BASIS 3  0 0 30.3023
Info: PERIODIC CELL CENTER   0 0 0
Info: WRAPPING WATERS AROUND PERIODIC BOUNDARIES ON OUTPUT.
Info: WRAPPING ALL CLUSTERS AROUND PERIODIC BOUNDARIES ON OUTPUT.
Info: FIRST LDB TIMESTEP     50
Info: LAST LDB TIMESTEP     -1
Info: HOM BACKGROUND SCALING 1
Info: PME BACKGROUND SCALING 1
Info: MIN ATOMS PER PATCH    40
Info: EMPTY PATCH LOAD       40 ATOMS
Info: VELOCITY FILE          mobley_3201701_equil.vel
Info: CENTER OF MASS MOVING INITIALLY? NO
Info: DIELECTRIC             1
Info: EXCLUDE                SCALED ONE-FOUR
Info: 1-4 ELECTROSTATICS SCALED BY 0.833333
Info: MODIFIED 1-4 VDW PARAMETERS WILL BE USED
Info: DCD FILENAME           mobley_3201701_prod.dcd
Info: DCD FREQUENCY          100000
Info: DCD FIRST STEP         100000
Info: DCD FILE WILL CONTAIN UNIT CELL DATA
Info: XST FILENAME           mobley_3201701_prod.xst
Info: XST FREQUENCY          100000
Info: NO VELOCITY DCD OUTPUT
Info: NO FORCE DCD OUTPUT
Info: OUTPUT FILENAME        mobley_3201701_prod
Info: BINARY OUTPUT FILES WILL BE USED
Info: RESTART FILENAME       mobley_3201701_prod.restart
Info: RESTART FREQUENCY      100000
Info: BINARY RESTART FILES WILL BE USED
Info: CUTOFF                 9
Info: PAIRLIST DISTANCE      11
Info: PAIRLIST SHRINK RATE   0.01
Info: PAIRLIST GROW RATE     0.01
Info: PAIRLIST TRIGGER       0.3
Info: PAIRLISTS PER CYCLE    2
Info: PAIRLISTS ENABLED
Info: MARGIN                 2
Info: HYDROGEN GROUP CUTOFF  2.5
Info: PATCH DIMENSION        15.5
Info: ENERGY OUTPUT STEPS    100000
Info: ENERGY EVALUATION STEPS    100000
Info: OUTPUT ENERGY PRECISION 4
Info: CROSSTERM ENERGY INCLUDED IN DIHEDRAL
Info: TIMING OUTPUT STEPS    1000000
Info: PRESSURE OUTPUT STEPS  100000
Info: ALCHEMICAL FEP ON
Info: FEP CURRENT LAMBDA VALUE     1
Info: FEP COMPARISON LAMBDA VALUE  0.95
Info: FEP INTRA-ALCHEMICAL NON-BONDED INTERACTIONS WILL BE RETAINED
Info: FEP INTRA-ALCHEMICAL BONDED INTERACTIONS WILL BE RETAINED
Info: FEP VDW SHIFTING COEFFICIENT 5
Info: FEP ELEC. ACTIVE FOR ANNIHILATED PARTICLES BETWEEN LAMBDA = 0 AND LAMBDA = 0.5
Info: FEP ELEC. ACTIVE FOR EXNIHILATED PARTICLES BETWEEN LAMBDA = 0.5 AND LAMBDA = 1
Info: FEP VDW ACTIVE FOR ANNIHILATED PARTICLES BETWEEN LAMBDA = 0 AND LAMBDA = 1
Info: FEP VDW ACTIVE FOR EXNIHILATED PARTICLES BETWEEN LAMBDA = 0 AND LAMBDA = 1
Info: FEP BOND ACTIVE FOR ANNIHILATED PARTICLES BETWEEN LAMBDA = 1 AND LAMBDA = 1
Info: FEP BOND ACTIVE FOR EXNIHILATED PARTICLES BETWEEN LAMBDA = 0 AND LAMBDA = 0
Info: LANGEVIN DYNAMICS ACTIVE
Info: LANGEVIN TEMPERATURE   300
Info: LANGEVIN USING BBK INTEGRATOR
Info: LANGEVIN DAMPING COEFFICIENT IS 1 INVERSE PS
Info: LANGEVIN DYNAMICS APPLIED TO HYDROGENS
Info: LANGEVIN PISTON PRESSURE CONTROL ACTIVE
Info:        TARGET PRESSURE IS 1.01325 BAR
Info:     OSCILLATION PERIOD IS 50 FS
Info:             DECAY TIME IS 25 FS
Info:     PISTON TEMPERATURE IS 300 K
Info:       PRESSURE CONTROL IS GROUP-BASED
Info:    INITIAL STRAIN RATE IS -0.000297611 -0.000297611 -0.000297611
Info:       CELL FLUCTUATION IS ISOTROPIC
Info: PARTICLE MESH EWALD (PME) ACTIVE
Info: PME TOLERANCE               1e-06
Info: PME EWALD COEFFICIENT       0.348832
Info: PME INTERPOLATION ORDER     4
Info: PME GRID DIMENSIONS         32 36 32
Info: PME MAXIMUM GRID SPACING    1
Info: PME CALCULATION WILL BE PERFORMED ON GPU
Info: FULL ELECTROSTATIC EVALUATION FREQUENCY      2
Info: USING VERLET I (r-RESPA) MTS SCHEME.
Info: C1 SPLITTING OF LONG RANGE ELECTROSTATICS
Info: PLACING ATOMS IN PATCHES BY HYDROGEN GROUPS
Info: RIGID BONDS TO HYDROGEN : ALL
Info:         ERROR TOLERANCE : 1e-08
Info:          MAX ITERATIONS : 100
Info: RIGID WATER USING SETTLE ALGORITHM
Info: RANDOM NUMBER SEED     1743894991
Info: USE HYDROGEN BONDS?    NO
Info: Using AMBER format force field!
Info: AMBER PARM FILE        mobley_3201701.prmtop
Info: COORDINATE PDB         mobley_3201701.pdb
Info: Exclusions will be read from PARM file!
Info: SCNB (VDW SCALING)     2
Info: USING ARITHMETIC MEAN TO COMBINE L-J SIGMA PARAMETERS
Info: BINARY COORDINATES     mobley_3201701_equil.coor
Info: SUMMARY OF PARAMETERS:
Info: 14 BONDS
Info: 22 ANGLES
Info:   22 HARMONIC
Info:   0 COSINE-BASED
Info: 8 DIHEDRAL
Info: 0 IMPROPER
Info: 0 CROSSTERM
Info: 0 VDW
Info: 45 VDW_PAIRS
Info: 0 NBTHOLE_PAIRS
Info: To read alchdata from file: mobley_3201701.pdb
Info: To read alchflag data from column: 5
Info: STRUCTURE SUMMARY:
Info: 2957 ATOMS
Info: 2957 BONDS
Info: 60 ANGLES
Info: 71 DIHEDRALS
Info: 0 IMPROPERS
Info: 0 CROSSTERMS
Info: 3078 EXCLUSIONS
Info: 2940 RIGID BONDS
Info: ALCH: 0 ATOMS TO DISAPPEAR IN FINAL STATE
Info: ALCH: 35 ATOMS TO APPEAR IN FINAL STATE
Info: 5931 DEGREES OF FREEDOM
Info: 991 HYDROGEN GROUPS
Info: 4 ATOMS IN LARGEST HYDROGEN GROUP
Info: 991 MIGRATION GROUPS
Info: 4 ATOMS IN LARGEST MIGRATION GROUP
Info: TOTAL MASS = 17785.9 amu
Info: TOTAL CHARGE = -0.000100095 e
Info: MASS DENSITY = 0.959453 g/cm^3
Info: ATOM DENSITY = 0.0960595 atoms/A^3
Info: ADDED 0 IMPLICIT EXCLUSIONS
Info: NONBONDED TABLE R-SQUARED SPACING: 0.0625
Info: NONBONDED TABLE SIZE: 705 POINTS
Info: REMOVING COM VELOCITY 0.104431 -0.0852012 0.274334
Info: Use 3D box decompostion in PME FFT.
Info: Updated CUDA force table with 4096 elements.
Info: Updated CUDA LJ table with 9 x 9 elements.
Info: Found 38 unique exclusion lists needing 144 bytes
TCL: Running for 1500000 steps
ETITLE: TS BOND ANGLE DIHED IMPRP ELECT VDW BOUNDARY MISC KINETIC TOTAL TEMP POTENTIAL TOTALAVG TEMPAVG PRESSURE GPRESSURE VOLUME PRESSAVG GPRESSAVG
ENERGY: 0 9.1239 15.0019 8.7662 0.0000 -10786.3293 1327.0846 0.0000 0.0000 1780.7108 -7645.6419 302.1731 -9426.3527 -7645.6419 302.1731 -776.2350 -695.5479 30783.0090 -776.2350 -695.5479
ENERGY: 300000 6.0230 15.8185 7.5564 0.0000 -11046.1759 1489.2125 0.0000 0.0000 1743.5760 -7783.9894 295.8716 -9527.5654 -7748.4542 297.5109 48.1948 30.8843 30916.5014 -4.2676 36.0077
ENERGY: 600000 9.3129 21.3249 15.6495 0.0000 -10941.5266 1438.9725 0.0000 0.0000 1784.2995 -7671.9673 302.7821 -9456.2668 -7726.3876 299.4004 -172.6304 -149.4600 30637.6776 268.2270 306.4714
ENERGY: 900000 6.0750 15.7192 7.3027 0.0000 -10975.3768 1427.7281 0.0000 0.0000 1771.4900 -7747.0619 300.6084 -9518.5519 -7725.5504 299.1359 -22.9420 38.1731 30055.0500 141.8728 177.6785
ENERGY: 1200000 4.8504 16.0056 8.1708 0.0000 -10825.0787 1385.4484 0.0000 0.0000 1768.3882 -7642.2152 300.0821 -9410.6034 -7726.1570 298.4548 -229.2021 -182.4497 30340.3650 90.3045 133.3120
ENERGY: 1500000 5.5449 17.3826 11.1415 0.0000 -10958.5938 1466.5513 0.0000 0.0000 1807.1592 -7650.8143 306.6612 -9457.9735 -7716.2127 299.5287 323.2423 384.9317 30507.7699 160.4497 211.1269
TCL: Running FEP window   2: Lambda1 0.95   Lambda2 0.8999999999999999 [dLambda -0.050000000000000044]
TCL: Setting parameter firsttimestep to 0
TCL: Setting parameter alchLambda to 0.95
Info: NONBONDED TABLE R-SQUARED SPACING: 0.0625
Info: NONBONDED TABLE SIZE: 705 POINTS
TCL: Setting parameter alchLambda2 to 0.8999999999999999
Info: NONBONDED TABLE R-SQUARED SPACING: 0.0625
Info: NONBONDED TABLE SIZE: 705 POINTS
TCL: Running for 1500000 steps
ETITLE: TS BOND ANGLE DIHED IMPRP ELECT VDW BOUNDARY MISC KINETIC TOTAL TEMP POTENTIAL TOTALAVG TEMPAVG PRESSURE GPRESSURE VOLUME PRESSAVG GPRESSAVG
ENERGY: 0 5.5449 17.3826 11.1415 0.0000 -10954.2438 1466.9740 0.0000 0.0000 1806.2947 -7646.9061 306.5145 -9453.2009 -7646.9061 306.5145 300.3363 372.8179 30507.7699 300.3363 372.8179
ENERGY: 300000 7.1291 11.4298 10.3616 0.0000 -10760.5136 1321.6793 0.0000 0.0000 1861.9933 -7547.9205 315.9662 -9409.9139 -7648.0991 308.1433 -1020.0837 -951.9468 30927.3886 -410.5947 -318.8310
ENERGY: 600000 3.9059 14.8545 11.0981 0.0000 -10959.8649 1502.6018 0.0000 0.0000 1801.0322 -7626.3723 305.6215 -9427.4045 -7649.1422 305.0238 810.8406 895.5714 30045.2272 -98.2170 -17.3605
ENERGY: 900000 4.3494 20.3025 7.5995 0.0000 -11014.5693 1493.6399 0.0000 0.0000 1751.2547 -7737.4233 297.1747 -9488.6780 -7674.3028 303.7863 770.4875 852.0324 30014.0354 -12.1743 68.1407
ENERGY: 1200000 4.2496 15.9613 10.4309 0.0000 -10879.0556 1362.9825 0.0000 0.0000 1701.8508 -7783.5805 288.7912 -9485.4313 -7686.5266 301.7777 -589.5573 -593.4470 30582.4546 -54.5292 16.7806
ENERGY: 1500000 7.6116 16.4264 9.2357 0.0000 -10887.2989 1396.4695 0.0000 0.0000 1797.6230 -7659.9327 305.0430 -9457.5557 -7692.9027 301.4498 -492.6546 -364.6469 30311.0943 -129.4449 -54.2196
TCL: Running FEP window   3: Lambda1 0.8999999999999999 Lambda2 0.8499999999999999 [dLambda -0.050000000000000044]
TCL: Setting parameter firsttimestep to 0
TCL: Setting parameter alchLambda to 0.8999999999999999
Info: NONBONDED TABLE R-SQUARED SPACING: 0.0625
Info: NONBONDED TABLE SIZE: 705 POINTS
TCL: Setting parameter alchLambda2 to 0.8499999999999999
Info: NONBONDED TABLE R-SQUARED SPACING: 0.0625
Info: NONBONDED TABLE SIZE: 705 POINTS
TCL: Running for 1500000 steps
ETITLE: TS BOND ANGLE DIHED IMPRP ELECT VDW BOUNDARY MISC KINETIC TOTAL TEMP POTENTIAL TOTALAVG TEMPAVG PRESSURE GPRESSURE VOLUME PRESSAVG GPRESSAVG
ENERGY: 0 7.6116 16.4264 9.2357 0.0000 -10883.0743 1395.6079 0.0000 0.0000 1796.7194 -7657.4733 304.8897 -9454.1927 -7657.4733 304.8897 -463.5961 -388.5758 30311.0943 -463.5961 -388.5758
ENERGY: 300000 4.8363 13.9373 4.9584 0.0000 -10933.4699 1418.3772 0.0000 0.0000 1841.0178 -7650.3428 312.4068 -9491.3607 -7650.7758 302.5791 -63.3841 -9.1029 29765.6298 -399.1772 -320.5720
ENERGY: 600000 8.8154 12.5751 12.0020 0.0000 -10853.2653 1411.4670 0.0000 0.0000 1779.2052 -7629.2006 301.9177 -9408.4058 -7651.8000 302.7874 -6.4937 63.8205 30595.0613 -441.1385 -380.6921
ENERGY: 900000 8.4918 12.8942 6.2654 0.0000 -10860.0217 1409.1109 0.0000 0.0000 1731.2017 -7692.0577 293.7718 -9423.2594 -7660.8352 301.6702 -298.1974 -284.4963 30475.5474 -387.2125 -329.9809
ENERGY: 1200000 3.7483 17.6394 9.0768 0.0000 -10834.8639 1359.2177 0.0000 0.0000 1815.4498 -7629.7319 308.0681 -9445.1817 -7666.9456 302.1635 -350.6136 -216.0210 30058.1619 -363.4927 -297.2661
ENERGY: 1500000 3.5273 12.2764 10.8110 0.0000 -10750.7048 1377.9598 0.0000 0.0000 1766.4947 -7579.6355 299.7608 -9346.1303 -7660.6762 301.6139 -140.9451 -93.8199 30718.7410 -387.8067 -323.6625
TCL: Running FEP window   4: Lambda1 0.8499999999999999 Lambda2 0.7999999999999998 [dLambda -0.050000000000000044]
TCL: Setting parameter firsttimestep to 0
TCL: Setting parameter alchLambda to 0.8499999999999999
Info: NONBONDED TABLE R-SQUARED SPACING: 0.0625
Info: NONBONDED TABLE SIZE: 705 POINTS
TCL: Setting parameter alchLambda2 to 0.7999999999999998
Info: NONBONDED TABLE R-SQUARED SPACING: 0.0625
Info: NONBONDED TABLE SIZE: 705 POINTS
TCL: Running for 1500000 steps
ETITLE: TS BOND ANGLE DIHED IMPRP ELECT VDW BOUNDARY MISC KINETIC TOTAL TEMP POTENTIAL TOTALAVG TEMPAVG PRESSURE GPRESSURE VOLUME PRESSAVG GPRESSAVG
ENERGY: 0 3.5273 12.2764 10.8110 0.0000 -10747.0735 1377.0443 0.0000 0.0000 1765.6072 -7577.8073 299.6102 -9343.4145 -7577.8073 299.6102 -195.9777 -123.7692 30718.7410 -195.9777 -123.7692
ENERGY: 300000 4.6784 13.5037 9.8598 0.0000 -10918.3873 1380.8684 0.0000 0.0000 1698.8051 -7810.6720 288.2744 -9509.4770 -7680.6468 297.1057 -223.2822 -193.6315 29950.1202 -260.1553 -231.0933
ENERGY: 600000 6.1998 15.9657 10.1858 0.0000 -10996.9488 1491.9175 0.0000 0.0000 1778.5136 -7694.1664 301.8003 -9472.6799 -7684.2354 299.4279 263.3145 284.2760 30530.8713 -426.9700 -384.3393
ENERGY: 900000 6.1783 15.7479 7.1823 0.0000 -10920.8458 1452.1363 0.0000 0.0000 1797.2479 -7642.3530 304.9794 -9439.6009 -7682.3690 299.9097 342.5799 420.4060 30035.6430 -388.7720 -332.3257
ENERGY: 1200000 7.2266 11.6978 5.2544 0.0000 -10934.5245 1502.0921 0.0000 0.0000 1746.2689 -7661.9846 296.3286 -9408.2535 -7683.7692 299.3780 618.6002 686.3143 30352.4153 -342.6614 -276.3240
ENERGY: 1500000 5.8015 15.6458 8.7915 0.0000 -10920.3318 1447.3970 0.0000 0.0000 1767.6356 -7675.0604 299.9544 -9442.6960 -7681.0483 299.1625 -0.4884 44.5925 30524.3264 -304.2731 -232.3737
TCL: Running FEP window   5: Lambda1 0.7999999999999998 Lambda2 0.7499999999999998 [dLambda -0.050000000000000044]
TCL: Setting parameter firsttimestep to 0
TCL: Setting parameter alchLambda to 0.7999999999999998
Info: NONBONDED TABLE R-SQUARED SPACING: 0.0625
Info: NONBONDED TABLE SIZE: 705 POINTS
TCL: Setting parameter alchLambda2 to 0.7499999999999998
Info: NONBONDED TABLE R-SQUARED SPACING: 0.0625
Info: NONBONDED TABLE SIZE: 705 POINTS
TCL: Running for 1500000 steps
ETITLE: TS BOND ANGLE DIHED IMPRP ELECT VDW BOUNDARY MISC KINETIC TOTAL TEMP POTENTIAL TOTALAVG TEMPAVG PRESSURE GPRESSURE VOLUME PRESSAVG GPRESSAVG
ENERGY: 0 5.8015 15.6458 8.7915 0.0000 -10917.6579 1446.6467 0.0000 0.0000 1766.7523 -7674.0202 299.8045 -9440.7724 -7674.0202 299.8045 -64.0668 13.6745 30524.3264 -64.0668 13.6745
ENERGY: 300000 2.4119 12.3089 8.9545 0.0000 -10891.0574 1376.3196 0.0000 0.0000 1769.2240 -7721.8385 300.2239 -9491.0625 -7753.3393 298.5271 -788.6704 -707.5446 30721.5966 -290.2198 -216.3915
ENERGY: 600000 9.0470 13.9159 6.6885 0.0000 -10898.3982 1363.4810 0.0000 0.0000 1804.1727 -7701.0931 306.1544 -9505.2658 -7717.7344 300.4674 -468.1827 -420.6105 30318.8276 -318.3305 -250.7436
ENERGY: 900000 2.7742 11.9502 7.0589 0.0000 -10872.4364 1358.6224 0.0000 0.0000 1755.6188 -7736.4119 297.9152 -9492.0307 -7715.2060 299.0743 -553.2126 -483.7560 30320.8433 -349.7480 -285.2209
ENERGY: 1200000 7.8080 14.2034 8.0253 0.0000 -10963.3879 1445.7557 0.0000 0.0000 1725.8766 -7761.7188 292.8682 -9487.5954 -7710.9215 298.5190 -70.5543 -18.6215 30620.5276 -275.3827 -210.2638
ENERGY: 1500000 7.6299 12.3508 6.2165 0.0000 -10826.9643 1318.5867 0.0000 0.0000 1751.7434 -7730.4370 297.2576 -9482.1803 -7716.1844 297.6549 -816.7416 -851.3648 30355.0826 -315.0090 -256.6287
TCL: Running FEP window   6: Lambda1 0.7499999999999998 Lambda2 0.6999999999999997 [dLambda -0.050000000000000044]
TCL: Setting parameter firsttimestep to 0
TCL: Setting parameter alchLambda to 0.7499999999999998
Info: NONBONDED TABLE R-SQUARED SPACING: 0.0625
Info: NONBONDED TABLE SIZE: 705 POINTS
TCL: Setting parameter alchLambda2 to 0.6999999999999997
Info: NONBONDED TABLE R-SQUARED SPACING: 0.0625
Info: NONBONDED TABLE SIZE: 705 POINTS
TCL: Running for 1500000 steps
ETITLE: TS BOND ANGLE DIHED IMPRP ELECT VDW BOUNDARY MISC KINETIC TOTAL TEMP POTENTIAL TOTALAVG TEMPAVG PRESSURE GPRESSURE VOLUME PRESSAVG GPRESSAVG
ENERGY: 0 7.6299 12.3508 6.2165 0.0000 -10824.7324 1318.1894 0.0000 0.0000 1750.8471 -7729.4987 297.1055 -9480.3458 -7729.4987 297.1055 -959.1495 -874.2825 30355.0826 -959.1495 -874.2825
ENERGY: 300000 5.5590 16.1673 3.1389 0.0000 -10946.8404 1434.1272 0.0000 0.0000 1760.7410 -7727.1070 298.7844 -9487.8481 -7741.1071 295.9427 -308.8754 -276.6786 30374.4761 -505.7606 -437.3206
ENERGY: 600000 5.3519 15.9106 8.3347 0.0000 -10834.7572 1338.3044 0.0000 0.0000 1762.1175 -7704.7381 299.0180 -9466.8556 -7693.0904 297.6521 -918.4841 -873.0540 30676.9587 -629.7304 -559.6560
ENERGY: 900000 4.7492 16.5180 7.4474 0.0000 -10989.1838 1469.9463 0.0000 0.0000 1776.7460 -7713.7768 301.5003 -9490.5228 -7686.5145 298.8868 101.9758 182.5065 30646.4686 -548.6463 -477.4220
ENERGY: 1200000 6.1297 14.8225 8.8847 0.0000 -10815.1209 1429.1942 0.0000 0.0000 1772.4800 -7583.6097 300.7764 -9356.0897 -7683.6233 298.8817 232.5530 290.2894 30674.0520 -476.3884 -410.3844
ENERGY: 1500000 5.6209 13.9649 6.7505 0.0000 -10968.1419 1455.4215 0.0000 0.0000 1742.9041 -7743.4800 295.7576 -9486.3841 -7691.3893 298.6792 30.1192 107.8108 30276.1486 -423.7934 -352.6929
TCL: Running FEP window   7: Lambda1 0.6999999999999997 Lambda2 0.6499999999999997 [dLambda -0.050000000000000044]
TCL: Setting parameter firsttimestep to 0
TCL: Setting parameter alchLambda to 0.6999999999999997
Info: NONBONDED TABLE R-SQUARED SPACING: 0.0625
Info: NONBONDED TABLE SIZE: 705 POINTS
TCL: Setting parameter alchLambda2 to 0.6499999999999997
Info: NONBONDED TABLE R-SQUARED SPACING: 0.0625
Info: NONBONDED TABLE SIZE: 705 POINTS
TCL: Running for 1500000 steps
ETITLE: TS BOND ANGLE DIHED IMPRP ELECT VDW BOUNDARY MISC KINETIC TOTAL TEMP POTENTIAL TOTALAVG TEMPAVG PRESSURE GPRESSURE VOLUME PRESSAVG GPRESSAVG
ENERGY: 0 5.6209 13.9650 6.7505 0.0000 -10965.4676 1455.2521 0.0000 0.0000 1742.0559 -7741.8233 295.6137 -9483.8792 -7741.8233 295.6137 -4.6750 91.1520 30276.1486 -4.6750 91.1520
ENERGY: 300000 5.2415 11.1734 7.3764 0.0000 -10896.4481 1439.8801 0.0000 0.0000 1787.0721 -7645.7045 303.2526 -9432.7767 -7691.8023 300.9764 111.8714 141.7179 30209.2885 59.9910 114.2949
ENERGY: 600000 6.7600 17.9101 7.3692 0.0000 -10865.0733 1348.5310 0.0000 0.0000 1742.8565 -7741.6464 295.7496 -9484.5030 -7697.1087 301.4205 -739.9072 -625.1368 30160.1618 -24.4197 46.3078
ENERGY: 900000 6.5798 16.2116 6.1298 0.0000 -11042.2570 1463.9609 0.0000 0.0000 1752.2238 -7797.1511 297.3391 -9549.3749 -7696.7407 301.1675 20.3532 2.1820 30367.9647 -68.2025 -14.0758
ENERGY: 1200000 5.6108 18.7725 6.4752 0.0000 -11057.8558 1509.3912 0.0000 0.0000 1781.3277 -7736.2784 302.2778 -9517.6061 -7703.5161 299.6834 459.7752 513.8636 29901.1341 -118.9019 -66.9951
ENERGY: 1500000 5.2575 16.0370 6.3150 0.0000 -10907.0039 1419.3615 0.0000 0.0000 1677.8710 -7782.1619 284.7220 -9460.0329 -7702.0347 299.1520 -207.5496 -163.3149 30541.0324 -156.1325 -110.0168
TCL: Running FEP window   8: Lambda1 0.6499999999999997 Lambda2 0.5999999999999996 [dLambda -0.050000000000000044]
TCL: Setting parameter firsttimestep to 0
TCL: Setting parameter alchLambda to 0.6499999999999997
Info: NONBONDED TABLE R-SQUARED SPACING: 0.0625
Info: NONBONDED TABLE SIZE: 705 POINTS
TCL: Setting parameter alchLambda2 to 0.5999999999999996
Info: NONBONDED TABLE R-SQUARED SPACING: 0.0625
Info: NONBONDED TABLE SIZE: 705 POINTS
TCL: Running for 1500000 steps
ETITLE: TS BOND ANGLE DIHED IMPRP ELECT VDW BOUNDARY MISC KINETIC TOTAL TEMP POTENTIAL TOTALAVG TEMPAVG PRESSURE GPRESSURE VOLUME PRESSAVG GPRESSAVG
ENERGY: 0 5.2575 16.0370 6.3150 0.0000 -10904.9767 1419.1218 0.0000 0.0000 1677.0012 -7781.2442 284.5744 -9458.2454 -7781.2442 284.5744 -251.3199 -177.0291 30541.0324 -251.3199 -177.0291
ENERGY: 300000 3.8562 11.0302 7.6378 0.0000 -10887.9637 1474.5421 0.0000 0.0000 1708.0007 -7682.8968 289.8348 -9390.8975 -7746.2241 290.7205 270.8710 424.0591 30426.3459 331.2073 430.4129
ENERGY: 600000 7.2320 17.6081 5.3275 0.0000 -11041.2724 1487.6753 0.0000 0.0000 1765.2158 -7758.2137 299.5437 -9523.4295 -7725.1152 294.9799 87.5197 95.5596 30253.9319 148.7336 226.6232
ENERGY: 900000 6.1199 16.9936 10.8386 0.0000 -10961.6939 1505.0362 0.0000 0.0000 1773.6948 -7649.0108 300.9826 -9422.7056 -7713.5873 296.9827 500.3312 549.3533 30537.5563 188.7102 256.3067
ENERGY: 1200000 9.2267 18.2423 6.4954 0.0000 -10984.0533 1524.2795 0.0000 0.0000 1750.9580 -7674.8514 297.1243 -9425.8094 -7706.4764 296.9731 435.9338 541.6046 30723.9862 200.1453 273.3323
ENERGY: 1500000 4.7957 13.4772 6.5817 0.0000 -11073.0538 1515.5406 0.0000 0.0000 1770.0935 -7762.5651 300.3715 -9532.6586 -7703.3564 298.3853 391.1793 429.2260 30379.1526 171.2681 239.9513
TCL: Running FEP window   9: Lambda1 0.5999999999999996 Lambda2 0.5499999999999996 [dLambda -0.050000000000000044]
TCL: Setting parameter firsttimestep to 0
TCL: Setting parameter alchLambda to 0.5999999999999996
Info: NONBONDED TABLE R-SQUARED SPACING: 0.0625
Info: NONBONDED TABLE SIZE: 705 POINTS
TCL: Setting parameter alchLambda2 to 0.5499999999999996
Info: NONBONDED TABLE R-SQUARED SPACING: 0.0625
Info: NONBONDED TABLE SIZE: 705 POINTS
TCL: Running for 1500000 steps
ETITLE: TS BOND ANGLE DIHED IMPRP ELECT VDW BOUNDARY MISC KINETIC TOTAL TEMP POTENTIAL TOTALAVG TEMPAVG PRESSURE GPRESSURE VOLUME PRESSAVG GPRESSAVG
ENERGY: 0 4.7957 13.4772 6.5817 0.0000 -11071.4691 1516.2087 0.0000 0.0000 1769.2282 -7761.1776 300.2246 -9530.4058 -7761.1776 300.2246 331.6860 422.7837 30379.1526 331.6860 422.7837
ENERGY: 300000 10.3580 17.2315 7.3635 0.0000 -10886.5657 1466.2549 0.0000 0.0000 1722.0654 -7663.2925 292.2215 -9385.3579 -7677.1894 295.6503 70.4583 153.0151 30654.1747 -142.8251 -81.7745
ENERGY: 600000 10.5788 14.4156 7.4224 0.0000 -10973.3540 1433.5475 0.0000 0.0000 1762.8775 -7744.5122 299.1470 -9507.3897 -7682.9455 298.9550 -414.6472 -334.9713 30166.4276 -55.5551 1.0137
ENERGY: 900000 6.3655 16.0169 10.6102 0.0000 -10928.0864 1410.1308 0.0000 0.0000 1832.0026 -7652.9604 310.8770 -9484.9630 -7687.6562 300.8060 -523.9255 -457.3266 30529.1075 -140.9658 -81.3775
ENERGY: 1200000 7.9669 15.9574 9.5253 0.0000 -10890.5657 1402.5960 0.0000 0.0000 1828.5781 -7625.9420 310.2959 -9454.5201 -7675.7518 301.3176 197.8745 259.5286 30303.8041 -135.5213 -80.8577
ENERGY: 1500000 4.5365 14.1971 6.9857 0.0000 -11018.0908 1458.4241 0.0000 0.0000 1724.5062 -7809.4412 292.6356 -9533.9474 -7686.2780 300.4533 -138.1376 14.2123 30284.9718 -121.6506 -57.8836
TCL: Running FEP window  10: Lambda1 0.5499999999999996 Lambda2 0.4999999999999996 [dLambda -0.04999999999999999]
TCL: Setting parameter firsttimestep to 0
TCL: Setting parameter alchLambda to 0.5499999999999996
Info: NONBONDED TABLE R-SQUARED SPACING: 0.0625
Info: NONBONDED TABLE SIZE: 705 POINTS
TCL: Setting parameter alchLambda2 to 0.4999999999999996
Info: NONBONDED TABLE R-SQUARED SPACING: 0.0625
Info: NONBONDED TABLE SIZE: 705 POINTS
TCL: Running for 1500000 steps
ETITLE: TS BOND ANGLE DIHED IMPRP ELECT VDW BOUNDARY MISC KINETIC TOTAL TEMP POTENTIAL TOTALAVG TEMPAVG PRESSURE GPRESSURE VOLUME PRESSAVG GPRESSAVG
ENERGY: 0 4.5365 14.1971 6.9857 0.0000 -11017.2908 1459.0511 0.0000 0.0000 1723.6264 -7808.8940 292.4863 -9532.5204 -7808.8940 292.4863 -81.8030 4.0090 30284.9718 -81.8030 4.0090
ENERGY: 300000 5.8849 11.2037 10.4676 0.0000 -10896.4850 1441.0211 0.0000 0.0000 1793.0877 -7634.8199 304.2734 -9427.9077 -7665.7857 301.0200 -138.5723 -32.6348 30617.7277 -346.2545 -273.9693
ENERGY: 600000 6.3145 11.4117 7.6324 0.0000 -10996.3406 1539.0593 0.0000 0.0000 1744.2350 -7687.6877 295.9835 -9431.9227 -7672.5528 301.1113 1094.4834 1141.7903 29995.8452 -152.5860 -85.2843
ENERGY: 900000 8.7669 16.5057 10.2532 0.0000 -10890.3073 1423.2290 0.0000 0.0000 1768.1462 -7663.4063 300.0410 -9431.5525 -7663.7182 302.7892 85.9441 129.5754 30346.3483 -152.2097 -85.4159
ENERGY: 1200000 5.4190 13.8603 7.0883 0.0000 -10965.4005 1498.0018 0.0000 0.0000 1762.9500 -7678.0810 299.1593 -9441.0310 -7653.5575 303.2486 492.5453 553.7610 30215.5339 -174.9330 -94.1396
ENERGY: 1500000 6.5504 15.8314 6.9037 0.0000 -11035.8240 1442.4066 0.0000 0.0000 1755.2682 -7808.8636 297.8557 -9564.1318 -7659.4467 303.4054 -329.9958 -271.7279 30150.6237 -99.6878 -24.4552
TCL: Running FEP window  11: Lambda1 0.4999999999999996 Lambda2 0.4499999999999996 [dLambda -0.04999999999999999]
TCL: Setting parameter firsttimestep to 0
TCL: Setting parameter alchLambda to 0.4999999999999996
Info: NONBONDED TABLE R-SQUARED SPACING: 0.0625
Info: NONBONDED TABLE SIZE: 705 POINTS
TCL: Setting parameter alchLambda2 to 0.4499999999999996
Info: NONBONDED TABLE R-SQUARED SPACING: 0.0625
Info: NONBONDED TABLE SIZE: 705 POINTS
TCL: Running for 1500000 steps
ETITLE: TS BOND ANGLE DIHED IMPRP ELECT VDW BOUNDARY MISC KINETIC TOTAL TEMP POTENTIAL TOTALAVG TEMPAVG PRESSURE GPRESSURE VOLUME PRESSAVG GPRESSAVG
ENERGY: 0 6.5504 15.8314 6.9037 0.0000 -11034.6713 1443.2802 0.0000 0.0000 1754.3967 -7807.7089 297.7078 -9562.1056 -7807.7089 297.7078 -365.1988 -274.2177 30150.6237 -365.1988 -274.2177
ENERGY: 300000 7.0300 14.5507 9.6774 0.0000 -10894.8749 1455.4069 0.0000 0.0000 1735.8992 -7672.3106 294.5690 -9408.2098 -7697.2078 298.3180 -127.7567 -75.4380 30422.1959 -254.3917 -158.9285
ENERGY: 600000 10.9182 17.6427 8.4847 0.0000 -10797.1996 1402.4875 0.0000 0.0000 1718.7486 -7638.9180 291.6586 -9357.6666 -7660.9140 299.4718 -389.4539 -335.7484 30643.1790 -17.3966 51.1846
ENERGY: 900000 5.4881 13.5894 5.5429 0.0000 -10966.2324 1433.9798 0.0000 0.0000 1724.3374 -7783.2948 292.6070 -9507.6322 -7663.7793 299.5744 -86.1871 -20.3656 30219.0671 -66.0339 5.3931
ENERGY: 1200000 3.8205 15.5335 8.6902 0.0000 -10642.1927 1288.9846 0.0000 0.0000 1778.6581 -7546.5058 301.8248 -9325.1639 -7660.0167 300.5731 -1009.5860 -943.3964 30826.5026 -135.5003 -68.2226
ENERGY: 1500000 5.9622 19.7177 4.8390 0.0000 -10945.0321 1432.6606 0.0000 0.0000 1829.8436 -7652.0089 310.5106 -9481.8525 -7665.1636 300.4022 -86.6338 -39.9474 30520.0587 -86.6199 -24.7814
TCL: Running FEP window  12: Lambda1 0.4499999999999996 Lambda2 0.39999999999999963 [dLambda -0.04999999999999999]
TCL: Setting parameter firsttimestep to 0
TCL: Setting parameter alchLambda to 0.4499999999999996
Info: NONBONDED TABLE R-SQUARED SPACING: 0.0625
Info: NONBONDED TABLE SIZE: 705 POINTS
TCL: Setting parameter alchLambda2 to 0.39999999999999963
Info: NONBONDED TABLE R-SQUARED SPACING: 0.0625
Info: NONBONDED TABLE SIZE: 705 POINTS
TCL: Running for 1500000 steps
ETITLE: TS BOND ANGLE DIHED IMPRP ELECT VDW BOUNDARY MISC KINETIC TOTAL TEMP POTENTIAL TOTALAVG TEMPAVG PRESSURE GPRESSURE VOLUME PRESSAVG GPRESSAVG
ENERGY: 0 5.9622 19.7177 4.8390 0.0000 -10945.0318 1432.4157 0.0000 0.0000 1828.9846 -7653.1125 310.3648 -9482.0971 -7653.1125 310.3648 -137.5141 -58.1163 30520.0587 -137.5141 -58.1163
ENERGY: 300000 6.0989 14.6050 6.8897 0.0000 -10945.5774 1494.7165 0.0000 0.0000 1764.1070 -7659.1601 299.3556 -9423.2672 -7680.9859 299.7798 924.5552 956.1599 29884.4324 182.5232 269.3749
ENERGY: 600000 3.8455 15.4541 8.6102 0.0000 -10818.9776 1380.3588 0.0000 0.0000 1776.2538 -7634.4553 301.4168 -9410.7091 -7678.5826 299.6232 -762.9986 -664.7649 30528.9022 35.5370 123.2733
ENERGY: 900000 2.4446 15.2398 6.2969 0.0000 -10819.9011 1366.6381 0.0000 0.0000 1739.3611 -7689.9206 295.1564 -9429.2817 -7677.1078 299.9805 -529.0378 -458.5998 30424.7773 72.7736 150.7181
ENERGY: 1200000 4.4642 16.4863 8.7879 0.0000 -10892.2652 1386.9814 0.0000 0.0000 1747.3652 -7728.1802 296.5146 -9475.5454 -7687.1493 299.8345 -661.0566 -617.5782 30713.1750 27.4598 99.3659
ENERGY: 1500000 7.2208 16.8775 8.2106 0.0000 -10993.4514 1472.8323 0.0000 0.0000 1852.2422 -7636.0680 314.3115 -9488.3102 -7682.0014 301.3615 247.0060 285.2001 30474.0755 40.5493 111.2525
TCL: Running FEP window  13: Lambda1 0.39999999999999963 Lambda2 0.34999999999999964 [dLambda -0.04999999999999999]
TCL: Setting parameter firsttimestep to 0
TCL: Setting parameter alchLambda to 0.39999999999999963
Info: NONBONDED TABLE R-SQUARED SPACING: 0.0625
Info: NONBONDED TABLE SIZE: 705 POINTS
TCL: Setting parameter alchLambda2 to 0.34999999999999964
Info: NONBONDED TABLE R-SQUARED SPACING: 0.0625
Info: NONBONDED TABLE SIZE: 705 POINTS
TCL: Running for 1500000 steps
ETITLE: TS BOND ANGLE DIHED IMPRP ELECT VDW BOUNDARY MISC KINETIC TOTAL TEMP POTENTIAL TOTALAVG TEMPAVG PRESSURE GPRESSURE VOLUME PRESSAVG GPRESSAVG
ENERGY: 0 7.2208 16.8775 8.2106 0.0000 -10993.4526 1473.3347 0.0000 0.0000 1851.3817 -7636.4273 314.1655 -9487.8091 -7636.4273 314.1655 194.0527 277.3449 30474.0755 194.0527 277.3449
ENERGY: 300000 4.6016 13.7474 9.7182 0.0000 -10879.3063 1440.0353 0.0000 0.0000 1753.0358 -7658.1679 297.4769 -9411.2038 -7696.6697 302.5374 15.6706 105.4760 30167.0944 -231.2744 -169.9792
ENERGY: 600000 5.2806 15.4564 9.3702 0.0000 -10929.3069 1371.1529 0.0000 0.0000 1772.1030 -7755.9439 300.7125 -9528.0469 -7691.7260 304.6474 -790.0083 -709.7766 30136.5325 -70.8882 -1.1607
ENERGY: 900000 4.3383 14.3157 7.0103 0.0000 -10942.6070 1449.4400 0.0000 0.0000 1754.6457 -7712.8570 297.7501 -9467.5027 -7702.1723 302.7152 43.1010 141.5755 29807.9324 -6.6570 59.9270
ENERGY: 1200000 6.1390 14.9355 7.2973 0.0000 -11030.2273 1497.3986 0.0000 0.0000 1727.2194 -7777.2375 293.0960 -9504.4569 -7712.0289 301.0898 337.7893 401.9600 30400.3881 -11.9168 55.1717
ENERGY: 1500000 4.1035 13.2381 6.0299 0.0000 -10859.9490 1432.4286 0.0000 0.0000 1767.7729 -7636.3760 299.9777 -9404.1489 -7701.1857 300.6805 244.2323 361.3691 30153.2075 -32.2499 34.4121
TCL: Running FEP window  14: Lambda1 0.34999999999999964 Lambda2 0.29999999999999966 [dLambda -0.04999999999999999]
TCL: Setting parameter firsttimestep to 0
TCL: Setting parameter alchLambda to 0.34999999999999964
Info: NONBONDED TABLE R-SQUARED SPACING: 0.0625
Info: NONBONDED TABLE SIZE: 705 POINTS
TCL: Setting parameter alchLambda2 to 0.29999999999999966
Info: NONBONDED TABLE R-SQUARED SPACING: 0.0625
Info: NONBONDED TABLE SIZE: 705 POINTS
TCL: Running for 1500000 steps
ETITLE: TS BOND ANGLE DIHED IMPRP ELECT VDW BOUNDARY MISC KINETIC TOTAL TEMP POTENTIAL TOTALAVG TEMPAVG PRESSURE GPRESSURE VOLUME PRESSAVG GPRESSAVG
ENERGY: 0 4.1035 13.2381 6.0299 0.0000 -10859.9480 1433.1350 0.0000 0.0000 1766.8898 -7636.5516 299.8278 -9403.4414 -7636.5516 299.8278 285.6575 353.2420 30153.2075 285.6575 353.2420
ENERGY: 300000 9.1583 19.7404 5.6713 0.0000 -11108.4146 1566.0662 0.0000 0.0000 1762.5839 -7745.1945 299.0971 -9507.7784 -7672.5899 303.0072 774.4609 830.3392 29917.5643 -12.9212 56.9655
ENERGY: 600000 3.9100 19.1693 7.4815 0.0000 -11008.7243 1484.8860 0.0000 0.0000 1772.2394 -7721.0381 300.7356 -9493.2775 -7697.5574 300.1930 44.7808 109.5777 30513.7154 9.3314 68.1727
ENERGY: 900000 4.3348 14.1913 6.8160 0.0000 -10835.7838 1421.3912 0.0000 0.0000 1794.7892 -7594.2612 304.5621 -9389.0505 -7680.1650 300.2626 -73.2800 -49.0230 30207.8146 -27.6056 27.0487
ENERGY: 1200000 6.3219 16.0087 6.8555 0.0000 -10883.0791 1443.5831 0.0000 0.0000 1708.8850 -7701.4249 289.9848 -9410.3098 -7680.7328 299.3727 149.4099 235.2097 30328.5979 -170.4745 -114.4253
ENERGY: 1500000 6.6901 14.3414 7.7612 0.0000 -10793.1650 1399.9186 0.0000 0.0000 1765.4306 -7599.0231 299.5802 -9364.4538 -7677.8930 298.9917 -158.8519 -151.6272 30765.5814 -183.7511 -128.6278
TCL: Running FEP window  15: Lambda1 0.29999999999999966 Lambda2 0.24999999999999967 [dLambda -0.04999999999999999]
TCL: Setting parameter firsttimestep to 0
TCL: Setting parameter alchLambda to 0.29999999999999966
Info: NONBONDED TABLE R-SQUARED SPACING: 0.0625
Info: NONBONDED TABLE SIZE: 705 POINTS
TCL: Setting parameter alchLambda2 to 0.24999999999999967
Info: NONBONDED TABLE R-SQUARED SPACING: 0.0625
Info: NONBONDED TABLE SIZE: 705 POINTS
TCL: Running for 1500000 steps
ETITLE: TS BOND ANGLE DIHED IMPRP ELECT VDW BOUNDARY MISC KINETIC TOTAL TEMP POTENTIAL TOTALAVG TEMPAVG PRESSURE GPRESSURE VOLUME PRESSAVG GPRESSAVG
ENERGY: 0 6.6900 14.3414 7.7612 0.0000 -10793.1628 1400.6128 0.0000 0.0000 1764.5556 -7599.2018 299.4317 -9363.7575 -7599.2018 299.4317 -231.0143 -155.3472 30765.5814 -231.0143 -155.3472
ENERGY: 300000 4.2031 13.2596 8.3684 0.0000 -11011.5581 1465.9796 0.0000 0.0000 1778.4171 -7741.3302 301.7839 -9519.7473 -7657.2136 300.5350 198.9071 200.2045 30008.7853 111.5343 143.2309
ENERGY: 600000 4.6354 11.7085 9.6808 0.0000 -10882.0290 1384.6267 0.0000 0.0000 1784.8157 -7686.5619 302.8697 -9471.3776 -7655.9017 301.5424 -647.3580 -526.9333 30482.7308 -101.4178 -46.4399
ENERGY: 900000 4.1112 13.6437 8.4533 0.0000 -10866.2185 1442.9138 0.0000 0.0000 1820.3085 -7576.7880 308.8926 -9397.0965 -7659.1590 301.7287 -1.0240 70.5266 30389.2546 -37.8413 14.4699
ENERGY: 1200000 6.2972 16.7858 7.2980 0.0000 -10858.2971 1381.0809 0.0000 0.0000 1788.4634 -7658.3717 303.4887 -9446.8351 -7670.2456 300.3840 -295.4650 -202.3895 30051.9896 -84.8060 -28.6521
ENERGY: 1500000 4.4491 17.5429 8.8506 0.0000 -11013.5883 1457.4870 0.0000 0.0000 1788.5555 -7736.7033 303.5043 -9525.2587 -7670.3582 300.0871 -6.4948 37.7683 30068.8561 -21.4221 34.3432
TCL: Running FEP window  16: Lambda1 0.24999999999999967 Lambda2 0.19999999999999968 [dLambda -0.04999999999999999]
TCL: Setting parameter firsttimestep to 0
TCL: Setting parameter alchLambda to 0.24999999999999967
Info: NONBONDED TABLE R-SQUARED SPACING: 0.0625
Info: NONBONDED TABLE SIZE: 705 POINTS
TCL: Setting parameter alchLambda2 to 0.19999999999999968
Info: NONBONDED TABLE R-SQUARED SPACING: 0.0625
Info: NONBONDED TABLE SIZE: 705 POINTS
TCL: Running for 1500000 steps
ETITLE: TS BOND ANGLE DIHED IMPRP ELECT VDW BOUNDARY MISC KINETIC TOTAL TEMP POTENTIAL TOTALAVG TEMPAVG PRESSURE GPRESSURE VOLUME PRESSAVG GPRESSAVG
ENERGY: 0 4.4491 17.5429 8.8506 0.0000 -11013.5877 1457.7227 0.0000 0.0000 1787.6634 -7737.3591 303.3529 -9525.0225 -7737.3591 303.3529 -36.4519 34.4996 30068.8561 -36.4519 34.4996
ENERGY: 300000 7.8013 15.2102 6.6269 0.0000 -10805.5579 1330.6929 0.0000 0.0000 1774.4964 -7670.7303 301.1186 -9445.2266 -7679.5862 298.4841 -852.6176 -829.8930 30349.1053 -319.4811 -273.3340
ENERGY: 600000 5.5120 9.3158 8.0401 0.0000 -10940.6594 1499.1257 0.0000 0.0000 1718.5745 -7700.0913 291.6291 -9418.6658 -7678.6743 296.0773 310.5614 436.8557 30334.6933 -206.7755 -127.0446
ENERGY: 900000 7.1686 17.0810 10.0439 0.0000 -10851.4050 1414.3662 0.0000 0.0000 1790.1977 -7612.5475 303.7830 -9402.7452 -7668.3915 297.5621 -332.6480 -260.4039 30446.1178 -216.2891 -146.5269
ENERGY: 1200000 7.9273 14.0715 10.1244 0.0000 -10971.0784 1450.8071 0.0000 0.0000 1775.2366 -7712.9116 301.2442 -9488.1482 -7679.2489 297.4472 63.6264 17.6375 30004.8385 -189.0196 -120.4232
ENERGY: 1500000 4.5352 17.4357 10.2207 0.0000 -10701.0849 1333.7197 0.0000 0.0000 1770.6028 -7564.5709 300.4579 -9335.1737 -7683.3196 297.7728 -488.1568 -456.8362 30484.0040 -207.2339 -140.4724
TCL: Running FEP window  17: Lambda1 0.19999999999999968 Lambda2 0.1499999999999997 [dLambda -0.04999999999999999]
TCL: Setting parameter firsttimestep to 0
TCL: Setting parameter alchLambda to 0.19999999999999968
Info: NONBONDED TABLE R-SQUARED SPACING: 0.0625
Info: NONBONDED TABLE SIZE: 705 POINTS
TCL: Setting parameter alchLambda2 to 0.1499999999999997
Info: NONBONDED TABLE R-SQUARED SPACING: 0.0625
Info: NONBONDED TABLE SIZE: 705 POINTS
TCL: Running for 1500000 steps
ETITLE: TS BOND ANGLE DIHED IMPRP ELECT VDW BOUNDARY MISC KINETIC TOTAL TEMP POTENTIAL TOTALAVG TEMPAVG PRESSURE GPRESSURE VOLUME PRESSAVG GPRESSAVG
ENERGY: 0 4.5352 17.4357 10.2207 0.0000 -10701.0844 1332.5187 0.0000 0.0000 1769.7399 -7566.6343 300.3115 -9336.3742 -7566.6343 300.3115 -547.9093 -470.1113 30484.0040 -547.9093 -470.1113
ENERGY: 300000 3.6818 14.7954 6.0502 0.0000 -11065.0910 1528.8526 0.0000 0.0000 1784.0974 -7727.6136 302.7478 -9511.7110 -7650.0153 303.7585 551.6157 621.7189 29699.7473 -63.6884 -10.1814
ENERGY: 600000 5.1812 11.5751 10.6476 0.0000 -11124.9620 1541.9476 0.0000 0.0000 1758.8318 -7796.7788 298.4604 -9555.6106 -7686.7810 301.7931 613.9354 705.3557 29713.1492 -27.6365 35.5110
ENERGY: 900000 7.3941 14.5218 4.8994 0.0000 -10861.6702 1451.5850 0.0000 0.0000 1770.9054 -7612.3645 300.5092 -9383.2699 -7684.7712 301.1258 208.9145 246.5317 30479.7067 -90.3800 -32.8284
ENERGY: 1200000 4.4446 11.6326 9.2212 0.0000 -10948.7250 1481.1272 0.0000 0.0000 1759.9455 -7682.3539 298.6494 -9442.2994 -7683.9199 301.4093 517.9071 589.4958 29461.8325 22.6546 86.4344
ENERGY: 1500000 8.6121 11.2203 13.1018 0.0000 -10843.7746 1411.5858 0.0000 0.0000 1779.5588 -7619.6958 301.9777 -9399.2546 -7689.5298 300.7895 34.8475 136.9298 30280.3033 18.9231 82.5499
TCL: Running FEP window  18: Lambda1 0.1499999999999997 Lambda2 0.09999999999999969 [dLambda -0.05 ]
TCL: Setting parameter firsttimestep to 0
TCL: Setting parameter alchLambda to 0.1499999999999997
Info: NONBONDED TABLE R-SQUARED SPACING: 0.0625
Info: NONBONDED TABLE SIZE: 705 POINTS
TCL: Setting parameter alchLambda2 to 0.09999999999999969
Info: NONBONDED TABLE R-SQUARED SPACING: 0.0625
Info: NONBONDED TABLE SIZE: 705 POINTS
TCL: Running for 1500000 steps
ETITLE: TS BOND ANGLE DIHED IMPRP ELECT VDW BOUNDARY MISC KINETIC TOTAL TEMP POTENTIAL TOTALAVG TEMPAVG PRESSURE GPRESSURE VOLUME PRESSAVG GPRESSAVG
ENERGY: 0 8.6121 11.2203 13.1018 0.0000 -10843.7752 1411.5896 0.0000 0.0000 1778.6945 -7620.5569 301.8310 -9399.2515 -7620.5569 301.8310 57.1066 132.6400 30280.3033 57.1066 132.6400
ENERGY: 300000 2.9981 15.6246 7.5702 0.0000 -10857.4569 1364.6363 0.0000 0.0000 1806.7842 -7659.8435 306.5976 -9466.6277 -7607.2499 304.8200 -938.3652 -897.1402 30631.4357 -375.1094 -324.7519
ENERGY: 600000 5.1371 10.2691 9.0470 0.0000 -10969.7743 1480.8461 0.0000 0.0000 1763.2550 -7701.2201 299.2110 -9464.4750 -7646.1520 301.5985 133.4517 253.4849 30159.1294 -324.2219 -254.8878
ENERGY: 900000 5.1265 13.6657 7.7500 0.0000 -10943.0339 1441.0973 0.0000 0.0000 1777.5403 -7697.8541 301.6351 -9475.3944 -7661.2511 301.4824 -52.8347 21.0799 29844.7174 -167.3593 -94.9281
ENERGY: 1200000 5.9691 10.5843 6.1515 0.0000 -10912.0300 1410.9355 0.0000 0.0000 1771.0310 -7707.3586 300.5306 -9478.3896 -7662.1080 301.7897 -298.4196 -225.0315 30296.1945 -144.2783 -81.1766
ENERGY: 1500000 2.7789 15.1970 9.9003 0.0000 -10950.4868 1466.3177 0.0000 0.0000 1790.3678 -7665.9251 303.8119 -9456.2929 -7654.3203 301.3219 -156.6601 -29.8466 30289.6689 -66.3649 2.2347
TCL: Running FEP window  19: Lambda1 0.09999999999999969 Lambda2 0.049999999999999684 [dLambda -0.05 ]
TCL: Setting parameter firsttimestep to 0
TCL: Setting parameter alchLambda to 0.09999999999999969
Info: NONBONDED TABLE R-SQUARED SPACING: 0.0625
Info: NONBONDED TABLE SIZE: 705 POINTS
TCL: Setting parameter alchLambda2 to 0.049999999999999684
Info: NONBONDED TABLE R-SQUARED SPACING: 0.0625
Info: NONBONDED TABLE SIZE: 705 POINTS
TCL: Running for 1500000 steps
ETITLE: TS BOND ANGLE DIHED IMPRP ELECT VDW BOUNDARY MISC KINETIC TOTAL TEMP POTENTIAL TOTALAVG TEMPAVG PRESSURE GPRESSURE VOLUME PRESSAVG GPRESSAVG
ENERGY: 0 2.7789 15.1970 9.9003 0.0000 -10950.4862 1466.1276 0.0000 0.0000 1789.5348 -7666.9476 303.6705 -9456.4823 -7666.9476 303.6705 -114.6469 -36.5043 30289.6689 -114.6469 -36.5043
ENERGY: 300000 4.2077 16.6805 5.0765 0.0000 -10967.8401 1421.9383 0.0000 0.0000 1720.5993 -7799.3379 291.9727 -9519.9372 -7736.7999 298.0037 -336.0375 -321.4626 29913.8595 -225.2224 -169.5538
ENERGY: 600000 5.3678 11.9962 12.3059 0.0000 -10848.7968 1450.5359 0.0000 0.0000 1719.9058 -7648.6853 291.8550 -9368.5910 -7700.7648 298.1444 -184.9250 -121.8244 31021.6754 -268.9024 -221.0771
ENERGY: 900000 6.2273 17.1094 6.6279 0.0000 -10784.6186 1407.4784 0.0000 0.0000 1775.0553 -7572.1202 301.2134 -9347.1755 -7686.5041 299.0171 -6.6429 23.7357 30269.0801 -111.1825 -60.6989
ENERGY: 1200000 3.6294 13.1802 10.8301 0.0000 -10788.2908 1362.1382 0.0000 0.0000 1789.3744 -7609.1385 303.6433 -9398.5128 -7672.5156 299.8966 -739.5348 -634.7395 30143.7189 -175.8345 -124.1936
ENERGY: 1500000 9.2553 11.7486 7.9904 0.0000 -11002.4332 1472.0673 0.0000 0.0000 1766.0883 -7735.2834 299.6918 -9501.3717 -7677.0510 300.0502 80.8473 147.8637 29922.6366 -280.9433 -223.8124
TCL: Running FEP window  20: Lambda1 0.049999999999999684 Lambda2 0.0    [dLambda -0.049999999999999684]
TCL: Setting parameter firsttimestep to 0
TCL: Setting parameter alchLambda to 0.049999999999999684
Info: NONBONDED TABLE R-SQUARED SPACING: 0.0625
Info: NONBONDED TABLE SIZE: 705 POINTS
TCL: Setting parameter alchLambda2 to 0.0
Info: NONBONDED TABLE R-SQUARED SPACING: 0.0625
Info: NONBONDED TABLE SIZE: 705 POINTS
TCL: Running for 1500000 steps
ETITLE: TS BOND ANGLE DIHED IMPRP ELECT VDW BOUNDARY MISC KINETIC TOTAL TEMP POTENTIAL TOTALAVG TEMPAVG PRESSURE GPRESSURE VOLUME PRESSAVG GPRESSAVG
ENERGY: 0 9.2553 11.7486 7.9904 0.0000 -11002.4327 1470.6610 0.0000 0.0000 1765.2097 -7737.5678 299.5427 -9502.7775 -7737.5678 299.5427 51.3442 140.1905 29922.6366 51.3442 140.1905
ENERGY: 300000 2.8730 13.6183 9.2490 0.0000 -10944.1423 1446.6542 0.0000 0.0000 1756.5099 -7715.2378 298.0664 -9471.7477 -7713.4829 298.9542 -179.8029 -133.2878 30286.3031 -342.7460 -270.5975
ENERGY: 600000 6.1996 16.8073 8.0007 0.0000 -11021.2775 1496.0935 0.0000 0.0000 1778.2230 -7715.9534 301.7510 -9494.1764 -7729.4629 298.3225 484.0115 534.4257 29714.9536 -77.8307 -13.0688
ENERGY: 900000 1.6451 13.6279 5.5444 0.0000 -10873.7442 1412.1759 0.0000 0.0000 1769.1953 -7671.5555 300.2190 -9440.7509 -7702.2443 301.1048 -447.6139 -377.5099 30404.5679 -166.0474 -89.7030
ENERGY: 1200000 5.5264 17.0765 6.6000 0.0000 -10748.5033 1307.6387 0.0000 0.0000 1831.4474 -7580.2143 310.7828 -9411.6618 -7682.0707 302.2968 -979.7557 -826.2306 30007.1525 -141.9011 -69.4823
ENERGY: 1500000 3.9246 16.5607 6.9874 0.0000 -10871.4972 1402.8332 0.0000 0.0000 1762.6382 -7678.5531 299.1063 -9441.1912 -7686.9664 301.1537 -261.8945 -212.6790 30158.3658 -106.9695 -32.6246
TCL: Exiting due to exit command.
