Info: SIMULATION PARAMETERS:
Info: TIMESTEP               2
Info: NUMBER OF STEPS        0
Info: STEPS PER CYCLE        10
Info: PERIODIC CELL BASIS 1  30.2948 0 0
Info: PERIODIC CELL BASIS 2  0 28.5997 0
Info: PERIODIC CELL BASIS 3  0 0 35.0064
Info: PERIODIC CELL CENTER   0 0 0
Info: WRAPPING WATERS AROUND PERIODIC BOUNDARIES ON OUTPUT.
Info: WRAPPING ALL CLUSTERS AROUND PERIODIC BOUNDARIES ON OUTPUT.
Info: FIRST LDB TIMESTEP     50
Info: LAST LDB TIMESTEP     -1
Info: HOM BACKGROUND SCALING 1
Info: PME BACKGROUND SCALING 1
Info: MIN ATOMS PER PATCH    40
Info: EMPTY PATCH LOAD       40 ATOMS
Info: VELOCITY FILE          mobley_7393673_equil.vel
Info: CENTER OF MASS MOVING INITIALLY? NO
Info: DIELECTRIC             1
Info: EXCLUDE                SCALED ONE-FOUR
Info: 1-4 ELECTROSTATICS SCALED BY 0.833333
Info: MODIFIED 1-4 VDW PARAMETERS WILL BE USED
Info: DCD FILENAME           mobley_7393673_prod.dcd
Info: DCD FREQUENCY          100000
Info: DCD FIRST STEP         100000
Info: DCD FILE WILL CONTAIN UNIT CELL DATA
Info: XST FILENAME           mobley_7393673_prod.xst
Info: XST FREQUENCY          100000
Info: NO VELOCITY DCD OUTPUT
Info: NO FORCE DCD OUTPUT
Info: OUTPUT FILENAME        mobley_7393673_prod
Info: BINARY OUTPUT FILES WILL BE USED
Info: RESTART FILENAME       mobley_7393673_prod.restart
Info: RESTART FREQUENCY      100000
Info: BINARY RESTART FILES WILL BE USED
Info: CUTOFF                 9
Info: PAIRLIST DISTANCE      11
Info: PAIRLIST SHRINK RATE   0.01
Info: PAIRLIST GROW RATE     0.01
Info: PAIRLIST TRIGGER       0.3
Info: PAIRLISTS PER CYCLE    2
Info: PAIRLISTS ENABLED
Info: MARGIN                 2
Info: HYDROGEN GROUP CUTOFF  2.5
Info: PATCH DIMENSION        15.5
Info: ENERGY OUTPUT STEPS    100000
Info: ENERGY EVALUATION STEPS    100000
Info: OUTPUT ENERGY PRECISION 4
Info: CROSSTERM ENERGY INCLUDED IN DIHEDRAL
Info: TIMING OUTPUT STEPS    1000000
Info: PRESSURE OUTPUT STEPS  100000
Info: ALCHEMICAL FEP ON
Info: FEP CURRENT LAMBDA VALUE     1
Info: FEP COMPARISON LAMBDA VALUE  0.95
Info: FEP INTRA-ALCHEMICAL NON-BONDED INTERACTIONS WILL BE RETAINED
Info: FEP INTRA-ALCHEMICAL BONDED INTERACTIONS WILL BE RETAINED
Info: FEP VDW SHIFTING COEFFICIENT 5
Info: FEP ELEC. ACTIVE FOR ANNIHILATED PARTICLES BETWEEN LAMBDA = 0 AND LAMBDA = 0.5
Info: FEP ELEC. ACTIVE FOR EXNIHILATED PARTICLES BETWEEN LAMBDA = 0.5 AND LAMBDA = 1
Info: FEP VDW ACTIVE FOR ANNIHILATED PARTICLES BETWEEN LAMBDA = 0 AND LAMBDA = 1
Info: FEP VDW ACTIVE FOR EXNIHILATED PARTICLES BETWEEN LAMBDA = 0 AND LAMBDA = 1
Info: FEP BOND ACTIVE FOR ANNIHILATED PARTICLES BETWEEN LAMBDA = 1 AND LAMBDA = 1
Info: FEP BOND ACTIVE FOR EXNIHILATED PARTICLES BETWEEN LAMBDA = 0 AND LAMBDA = 0
Info: LANGEVIN DYNAMICS ACTIVE
Info: LANGEVIN TEMPERATURE   300
Info: LANGEVIN USING BBK INTEGRATOR
Info: LANGEVIN DAMPING COEFFICIENT IS 1 INVERSE PS
Info: LANGEVIN DYNAMICS APPLIED TO HYDROGENS
Info: LANGEVIN PISTON PRESSURE CONTROL ACTIVE
Info:        TARGET PRESSURE IS 1.01325 BAR
Info:     OSCILLATION PERIOD IS 50 FS
Info:             DECAY TIME IS 25 FS
Info:     PISTON TEMPERATURE IS 300 K
Info:       PRESSURE CONTROL IS GROUP-BASED
Info:    INITIAL STRAIN RATE IS 0.000620106 0.000620106 0.000620106
Info:       CELL FLUCTUATION IS ISOTROPIC
Info: PARTICLE MESH EWALD (PME) ACTIVE
Info: PME TOLERANCE               1e-06
Info: PME EWALD COEFFICIENT       0.348832
Info: PME INTERPOLATION ORDER     4
Info: PME GRID DIMENSIONS         32 32 36
Info: PME MAXIMUM GRID SPACING    1
Info: PME CALCULATION WILL BE PERFORMED ON GPU
Info: FULL ELECTROSTATIC EVALUATION FREQUENCY      2
Info: USING VERLET I (r-RESPA) MTS SCHEME.
Info: C1 SPLITTING OF LONG RANGE ELECTROSTATICS
Info: PLACING ATOMS IN PATCHES BY HYDROGEN GROUPS
Info: RIGID BONDS TO HYDROGEN : ALL
Info:         ERROR TOLERANCE : 1e-08
Info:          MAX ITERATIONS : 100
Info: RIGID WATER USING SETTLE ALGORITHM
Info: RANDOM NUMBER SEED     1743893026
Info: USE HYDROGEN BONDS?    NO
Info: Using AMBER format force field!
Info: AMBER PARM FILE        mobley_7393673.prmtop
Info: COORDINATE PDB         mobley_7393673.pdb
Info: Exclusions will be read from PARM file!
Info: SCNB (VDW SCALING)     2
Info: USING ARITHMETIC MEAN TO COMBINE L-J SIGMA PARAMETERS
Info: BINARY COORDINATES     mobley_7393673_equil.coor
Info: SUMMARY OF PARAMETERS:
Info: 10 BONDS
Info: 11 ANGLES
Info:   11 HARMONIC
Info:   0 COSINE-BASED
Info: 7 DIHEDRAL
Info: 0 IMPROPER
Info: 0 CROSSTERM
Info: 0 VDW
Info: 36 VDW_PAIRS
Info: 0 NBTHOLE_PAIRS
Info: To read alchdata from file: mobley_7393673.pdb
Info: To read alchflag data from column: 5
Info: STRUCTURE SUMMARY:
Info: 2953 ATOMS
Info: 2953 BONDS
Info: 35 ANGLES
Info: 46 DIHEDRALS
Info: 0 IMPROPERS
Info: 0 CROSSTERMS
Info: 3023 EXCLUSIONS
Info: 2941 RIGID BONDS
Info: ALCH: 0 ATOMS TO DISAPPEAR IN FINAL STATE
Info: ALCH: 22 ATOMS TO APPEAR IN FINAL STATE
Info: 5918 DEGREES OF FREEDOM
Info: 989 HYDROGEN GROUPS
Info: 4 ATOMS IN LARGEST HYDROGEN GROUP
Info: 989 MIGRATION GROUPS
Info: 4 ATOMS IN LARGEST MIGRATION GROUP
Info: TOTAL MASS = 17767.8 amu
Info: TOTAL CHARGE = -9.99831e-05 e
Info: MASS DENSITY = 0.972781 g/cm^3
Info: ATOM DENSITY = 0.0973611 atoms/A^3
Info: ADDED 0 IMPLICIT EXCLUSIONS
Info: NONBONDED TABLE R-SQUARED SPACING: 0.0625
Info: NONBONDED TABLE SIZE: 705 POINTS
Info: REMOVING COM VELOCITY -0.0432946 -0.0431766 -0.0558357
Info: Use 3D box decompostion in PME FFT.
Info: Updated CUDA force table with 4096 elements.
Info: Updated CUDA LJ table with 8 x 8 elements.
Info: Found 24 unique exclusion lists needing 68 bytes
TCL: Running for 1500000 steps
ETITLE: TS BOND ANGLE DIHED IMPRP ELECT VDW BOUNDARY MISC KINETIC TOTAL TEMP POTENTIAL TOTALAVG TEMPAVG PRESSURE GPRESSURE VOLUME PRESSAVG GPRESSAVG
ENERGY: 0 7.7615 9.5622 2.3269 0.0000 -10721.3440 1402.0051 0.0000 0.0000 1808.8255 -7490.8629 307.6183 -9299.6884 -7490.8629 307.6183 -589.7131 -506.1490 30330.3747 -589.7131 -506.1490
ENERGY: 300000 6.7260 11.7339 11.0087 0.0000 -10708.8648 1408.6884 0.0000 0.0000 1690.5655 -7580.1424 287.5063 -9270.7079 -7491.1050 296.5525 -591.5824 -538.8939 30689.8319 -248.9465 -193.0327
ENERGY: 600000 4.1201 4.4490 6.5690 0.0000 -10693.4154 1453.2006 0.0000 0.0000 1808.1990 -7416.8777 307.5117 -9225.0768 -7466.8734 299.0159 46.6200 131.6554 30701.4723 -155.1028 -98.1544
ENERGY: 900000 5.0838 6.1798 10.3031 0.0000 -10776.4848 1416.7859 0.0000 0.0000 1725.3455 -7612.7866 293.4212 -9338.1322 -7468.7186 300.3161 -385.6760 -301.8625 29923.4408 -250.8252 -192.4711
ENERGY: 1200000 3.8487 8.9814 8.7834 0.0000 -10771.6442 1465.9811 0.0000 0.0000 1779.9512 -7504.0983 302.7077 -9284.0495 -7464.3117 300.9256 404.2989 416.6685 30098.9106 -165.1275 -112.7161
ENERGY: 1500000 2.8940 7.0815 5.3008 0.0000 -10673.3054 1448.6627 0.0000 0.0000 1780.8155 -7428.5510 302.8547 -9209.3665 -7452.5566 301.9827 434.3089 476.4253 30369.4908 -98.2785 -41.0815
TCL: Running FEP window   2: Lambda1 0.95   Lambda2 0.8999999999999999 [dLambda -0.050000000000000044]
TCL: Setting parameter firsttimestep to 0
TCL: Setting parameter alchLambda to 0.95
Info: NONBONDED TABLE R-SQUARED SPACING: 0.0625
Info: NONBONDED TABLE SIZE: 705 POINTS
TCL: Setting parameter alchLambda2 to 0.8999999999999999
Info: NONBONDED TABLE R-SQUARED SPACING: 0.0625
Info: NONBONDED TABLE SIZE: 705 POINTS
TCL: Running for 1500000 steps
ETITLE: TS BOND ANGLE DIHED IMPRP ELECT VDW BOUNDARY MISC KINETIC TOTAL TEMP POTENTIAL TOTALAVG TEMPAVG PRESSURE GPRESSURE VOLUME PRESSAVG GPRESSAVG
ENERGY: 0 2.8939 7.0816 5.3008 0.0000 -10671.5914 1448.7271 0.0000 0.0000 1779.9472 -7427.6408 302.7071 -9207.5880 -7427.6408 302.7071 388.3043 463.9745 30369.4908 388.3043 463.9745
ENERGY: 300000 1.3574 6.3686 5.9920 0.0000 -10749.7320 1485.0127 0.0000 0.0000 1699.6175 -7551.3837 289.0458 -9251.0013 -7477.2186 298.2279 341.3813 398.3857 30419.5980 -73.5420 9.4846
ENERGY: 600000 5.7089 6.4634 2.2510 0.0000 -10758.9375 1479.7041 0.0000 0.0000 1810.5277 -7454.2824 307.9077 -9264.8102 -7470.5632 300.8007 265.7613 393.2734 30550.4544 243.7698 322.1069
ENERGY: 900000 3.5616 5.8282 7.8706 0.0000 -10620.2103 1340.5220 0.0000 0.0000 1782.4368 -7479.9910 303.1304 -9262.4278 -7465.2913 302.3171 -896.2389 -806.4840 30610.9473 125.4804 197.9866
ENERGY: 1200000 4.7900 6.4375 5.4610 0.0000 -10642.4239 1438.5894 0.0000 0.0000 1753.9486 -7433.1974 298.2856 -9187.1461 -7469.3481 301.1852 97.4012 173.9221 30554.9608 95.5442 164.6681
ENERGY: 1500000 2.9806 5.6867 7.0552 0.0000 -10650.4282 1414.3237 0.0000 0.0000 1727.7278 -7492.6543 293.8264 -9220.3820 -7468.3738 301.0657 44.9772 50.2654 30300.1304 45.9381 110.6941
TCL: Running FEP window   3: Lambda1 0.8999999999999999 Lambda2 0.8499999999999999 [dLambda -0.050000000000000044]
TCL: Setting parameter firsttimestep to 0
TCL: Setting parameter alchLambda to 0.8999999999999999
Info: NONBONDED TABLE R-SQUARED SPACING: 0.0625
Info: NONBONDED TABLE SIZE: 705 POINTS
TCL: Setting parameter alchLambda2 to 0.8499999999999999
Info: NONBONDED TABLE R-SQUARED SPACING: 0.0625
Info: NONBONDED TABLE SIZE: 705 POINTS
TCL: Running for 1500000 steps
ETITLE: TS BOND ANGLE DIHED IMPRP ELECT VDW BOUNDARY MISC KINETIC TOTAL TEMP POTENTIAL TOTALAVG TEMPAVG PRESSURE GPRESSURE VOLUME PRESSAVG GPRESSAVG
ENERGY: 0 2.9806 5.6867 7.0552 0.0000 -10648.7056 1414.3807 0.0000 0.0000 1726.8315 -7491.7710 293.6739 -9218.6025 -7491.7710 293.6739 -51.0342 34.6822 30300.1304 -51.0342 34.6822
ENERGY: 300000 3.6677 12.2566 7.6132 0.0000 -10750.1718 1470.2028 0.0000 0.0000 1774.4375 -7481.9941 301.7700 -9256.4316 -7500.0060 297.8239 276.8071 337.1199 30438.9914 -81.8632 28.0414
ENERGY: 600000 3.1089 10.7387 4.4930 0.0000 -10638.6616 1402.7815 0.0000 0.0000 1722.9508 -7494.5885 293.0140 -9217.5394 -7492.4808 297.0733 -144.4994 -172.0667 30621.2062 -32.9545 34.8615
ENERGY: 900000 3.7331 9.6329 2.6956 0.0000 -10660.0361 1423.3966 0.0000 0.0000 1776.6908 -7443.8871 302.1533 -9220.5779 -7497.5308 298.3492 26.5679 30.7837 30562.4853 -7.1974 48.1142
ENERGY: 1200000 6.3834 7.0938 4.1267 0.0000 -10629.6817 1344.7095 0.0000 0.0000 1739.2877 -7528.0807 295.7923 -9267.3684 -7491.2881 298.1775 -975.9001 -992.4853 30804.7042 -113.0043 -63.4343
ENERGY: 1500000 4.8913 7.9995 3.7235 0.0000 -10768.9936 1466.9188 0.0000 0.0000 1768.4787 -7516.9819 300.7567 -9285.4606 -7497.4690 297.6831 338.3207 377.3169 29983.3675 -78.4003 -31.0197
TCL: Running FEP window   4: Lambda1 0.8499999999999999 Lambda2 0.7999999999999998 [dLambda -0.050000000000000044]
TCL: Setting parameter firsttimestep to 0
TCL: Setting parameter alchLambda to 0.8499999999999999
Info: NONBONDED TABLE R-SQUARED SPACING: 0.0625
Info: NONBONDED TABLE SIZE: 705 POINTS
TCL: Setting parameter alchLambda2 to 0.7999999999999998
Info: NONBONDED TABLE R-SQUARED SPACING: 0.0625
Info: NONBONDED TABLE SIZE: 705 POINTS
TCL: Running for 1500000 steps
ETITLE: TS BOND ANGLE DIHED IMPRP ELECT VDW BOUNDARY MISC KINETIC TOTAL TEMP POTENTIAL TOTALAVG TEMPAVG PRESSURE GPRESSURE VOLUME PRESSAVG GPRESSAVG
ENERGY: 0 4.8913 7.9995 3.7235 0.0000 -10767.0954 1465.9202 0.0000 0.0000 1767.6261 -7516.9347 300.6117 -9284.5609 -7516.9347 300.6117 276.2642 348.8311 29983.3675 276.2642 348.8311
ENERGY: 300000 2.8501 6.6917 5.4592 0.0000 -10715.0647 1414.9495 0.0000 0.0000 1761.5217 -7523.5925 299.5735 -9285.1142 -7485.7682 299.6676 -411.6403 -316.2638 30734.6501 -105.6407 -23.4635
ENERGY: 600000 4.5394 9.6559 3.7216 0.0000 -10619.2218 1321.3337 0.0000 0.0000 1739.6146 -7540.3566 295.8479 -9279.9712 -7506.3339 299.3601 -743.7203 -758.8676 29987.5747 -299.7201 -249.6595
ENERGY: 900000 3.5004 5.3429 7.1976 0.0000 -10746.4056 1491.6370 0.0000 0.0000 1714.4492 -7524.2785 291.5681 -9238.7277 -7495.3602 299.5751 401.1610 446.8888 30156.9689 -200.1666 -147.1354
ENERGY: 1200000 2.7676 8.5799 7.7874 0.0000 -10632.2000 1437.0350 0.0000 0.0000 1804.5063 -7371.5240 306.8837 -9176.0303 -7485.2756 299.1337 71.7268 144.9286 30890.1202 -185.4599 -132.2181
ENERGY: 1500000 4.3877 9.5210 2.4639 0.0000 -10661.4007 1410.4791 0.0000 0.0000 1728.6609 -7505.8881 293.9850 -9234.5490 -7485.7112 298.7549 -554.9608 -471.1852 30999.3703 -156.3169 -103.3340
TCL: Running FEP window   5: Lambda1 0.7999999999999998 Lambda2 0.7499999999999998 [dLambda -0.050000000000000044]
TCL: Setting parameter firsttimestep to 0
TCL: Setting parameter alchLambda to 0.7999999999999998
Info: NONBONDED TABLE R-SQUARED SPACING: 0.0625
Info: NONBONDED TABLE SIZE: 705 POINTS
TCL: Setting parameter alchLambda2 to 0.7499999999999998
Info: NONBONDED TABLE R-SQUARED SPACING: 0.0625
Info: NONBONDED TABLE SIZE: 705 POINTS
TCL: Running for 1500000 steps
ETITLE: TS BOND ANGLE DIHED IMPRP ELECT VDW BOUNDARY MISC KINETIC TOTAL TEMP POTENTIAL TOTALAVG TEMPAVG PRESSURE GPRESSURE VOLUME PRESSAVG GPRESSAVG
ENERGY: 0 4.3877 9.5210 2.4639 0.0000 -10660.3041 1410.9463 0.0000 0.0000 1727.8061 -7505.1791 293.8397 -9232.9852 -7505.1791 293.8397 -559.9327 -473.2971 30999.3703 -559.9327 -473.2971
ENERGY: 300000 3.0291 7.4088 4.8511 0.0000 -10685.4304 1403.2157 0.0000 0.0000 1804.5922 -7462.3335 306.8983 -9266.9256 -7439.5531 300.2698 -263.8673 -221.0885 30178.7481 -553.7351 -458.0429
ENERGY: 600000 2.3221 9.0516 4.5773 0.0000 -10724.5874 1446.2035 0.0000 0.0000 1777.4034 -7485.0295 302.2744 -9262.4329 -7458.1593 299.2588 -58.6422 -37.6405 30997.1281 -358.8868 -278.8301
ENERGY: 900000 3.3452 7.4209 5.8918 0.0000 -10559.0551 1310.2283 0.0000 0.0000 1717.9459 -7514.2230 292.1628 -9232.1689 -7471.6254 299.3487 -746.0985 -648.8346 29912.7109 -269.0123 -195.2636
ENERGY: 1200000 3.3089 11.7279 8.6441 0.0000 -10718.2809 1444.9203 0.0000 0.0000 1771.1158 -7478.5638 301.2051 -9249.6796 -7460.4474 299.8791 -38.5454 7.7186 30509.9257 -243.7922 -174.4666
ENERGY: 1500000 4.9460 6.0647 9.5310 0.0000 -10819.7928 1445.1985 0.0000 0.0000 1748.7878 -7605.2647 297.4079 -9354.0525 -7466.0417 299.9882 -523.0030 -430.3405 30372.3809 -225.1931 -156.8570
TCL: Running FEP window   6: Lambda1 0.7499999999999998 Lambda2 0.6999999999999997 [dLambda -0.050000000000000044]
TCL: Setting parameter firsttimestep to 0
TCL: Setting parameter alchLambda to 0.7499999999999998
Info: NONBONDED TABLE R-SQUARED SPACING: 0.0625
Info: NONBONDED TABLE SIZE: 705 POINTS
TCL: Setting parameter alchLambda2 to 0.6999999999999997
Info: NONBONDED TABLE R-SQUARED SPACING: 0.0625
Info: NONBONDED TABLE SIZE: 705 POINTS
TCL: Running for 1500000 steps
ETITLE: TS BOND ANGLE DIHED IMPRP ELECT VDW BOUNDARY MISC KINETIC TOTAL TEMP POTENTIAL TOTALAVG TEMPAVG PRESSURE GPRESSURE VOLUME PRESSAVG GPRESSAVG
ENERGY: 0 4.9460 6.0647 9.5310 0.0000 -10817.9893 1444.8100 0.0000 0.0000 1747.8963 -7604.7413 297.2563 -9352.6376 -7604.7413 297.2563 -521.0305 -442.5950 30372.3809 -521.0305 -442.5950
ENERGY: 300000 0.9279 10.1870 6.6613 0.0000 -10513.3882 1301.0754 0.0000 0.0000 1774.6289 -7419.9077 301.8026 -9194.5366 -7514.1942 297.5559 -962.1881 -944.1959 31026.1035 -592.3174 -555.2114
ENERGY: 600000 4.4054 6.9922 4.9359 0.0000 -10708.2460 1405.7234 0.0000 0.0000 1704.8104 -7581.3788 289.9289 -9286.1892 -7518.2023 296.6151 -531.1896 -462.6115 30454.1693 -418.4719 -378.2650
ENERGY: 900000 7.4586 4.5071 2.8553 0.0000 -10641.6630 1468.0849 0.0000 0.0000 1734.2425 -7424.5147 294.9343 -9158.7572 -7483.3926 298.6753 118.7970 160.7673 30643.6478 -318.2075 -276.7998
ENERGY: 1200000 5.0882 6.4986 9.2026 0.0000 -10666.4431 1423.1516 0.0000 0.0000 1792.3362 -7430.1659 304.8140 -9222.5021 -7479.0968 299.9916 127.1029 113.6350 30348.4225 -292.7636 -262.5791
ENERGY: 1500000 1.3794 5.4337 4.1010 0.0000 -10570.3444 1358.2546 0.0000 0.0000 1708.7832 -7492.3925 290.6045 -9201.1756 -7477.0849 299.5893 -386.1290 -299.4257 30208.4449 -307.3502 -273.4748
TCL: Running FEP window   7: Lambda1 0.6999999999999997 Lambda2 0.6499999999999997 [dLambda -0.050000000000000044]
TCL: Setting parameter firsttimestep to 0
TCL: Setting parameter alchLambda to 0.6999999999999997
Info: NONBONDED TABLE R-SQUARED SPACING: 0.0625
Info: NONBONDED TABLE SIZE: 705 POINTS
TCL: Setting parameter alchLambda2 to 0.6499999999999997
Info: NONBONDED TABLE R-SQUARED SPACING: 0.0625
Info: NONBONDED TABLE SIZE: 705 POINTS
TCL: Running for 1500000 steps
ETITLE: TS BOND ANGLE DIHED IMPRP ELECT VDW BOUNDARY MISC KINETIC TOTAL TEMP POTENTIAL TOTALAVG TEMPAVG PRESSURE GPRESSURE VOLUME PRESSAVG GPRESSAVG
ENERGY: 0 1.3794 5.4337 4.1010 0.0000 -10568.8659 1358.6417 0.0000 0.0000 1707.9020 -7491.4081 290.4547 -9199.3100 -7491.4081 290.4547 -380.3351 -303.6025 30208.4449 -380.3351 -303.6025
ENERGY: 300000 4.7873 5.8970 8.8288 0.0000 -10618.1995 1363.8740 0.0000 0.0000 1738.7940 -7496.0184 295.7083 -9234.8123 -7476.1184 297.5252 -492.1797 -449.5578 30037.4287 -181.3766 -104.8734
ENERGY: 600000 5.4846 8.4882 5.6240 0.0000 -10737.6987 1456.7522 0.0000 0.0000 1793.5775 -7467.7722 305.0251 -9261.3497 -7483.2457 300.0082 -246.7130 -192.4230 31028.9146 -85.3320 -13.5107
ENERGY: 900000 3.1213 7.5222 5.1829 0.0000 -10780.1556 1440.0876 0.0000 0.0000 1737.6415 -7586.6002 295.5123 -9324.2417 -7485.8471 300.1775 -313.5948 -173.4055 30399.0956 -148.3044 -76.8884
ENERGY: 1200000 4.1428 5.7402 4.1909 0.0000 -10663.0341 1434.8818 0.0000 0.0000 1749.1919 -7464.8863 297.4767 -9214.0782 -7484.3608 299.5367 -51.5145 12.4145 30653.9982 -148.0318 -69.8299
ENERGY: 1500000 9.0022 8.3426 5.1445 0.0000 -10652.0893 1435.2216 0.0000 0.0000 1747.4322 -7446.9461 297.1774 -9194.3783 -7488.5920 298.6163 -65.7485 89.4759 30334.7011 -184.3661 -102.5698
TCL: Running FEP window   8: Lambda1 0.6499999999999997 Lambda2 0.5999999999999996 [dLambda -0.050000000000000044]
TCL: Setting parameter firsttimestep to 0
TCL: Setting parameter alchLambda to 0.6499999999999997
Info: NONBONDED TABLE R-SQUARED SPACING: 0.0625
Info: NONBONDED TABLE SIZE: 705 POINTS
TCL: Setting parameter alchLambda2 to 0.5999999999999996
Info: NONBONDED TABLE R-SQUARED SPACING: 0.0625
Info: NONBONDED TABLE SIZE: 705 POINTS
TCL: Running for 1500000 steps
ETITLE: TS BOND ANGLE DIHED IMPRP ELECT VDW BOUNDARY MISC KINETIC TOTAL TEMP POTENTIAL TOTALAVG TEMPAVG PRESSURE GPRESSURE VOLUME PRESSAVG GPRESSAVG
ENERGY: 0 9.0022 8.3426 5.1445 0.0000 -10650.5981 1435.1581 0.0000 0.0000 1746.5640 -7446.3866 297.0297 -9192.9506 -7446.3866 297.0297 -4.5997 76.1946 30334.7011 -4.5997 76.1946
ENERGY: 300000 3.6975 7.2442 2.5565 0.0000 -10683.2996 1487.8194 0.0000 0.0000 1792.3782 -7389.6038 304.8211 -9181.9820 -7445.5171 297.0862 523.0721 583.6661 30524.5963 56.1606 103.3151
ENERGY: 600000 4.2502 8.1147 2.5941 0.0000 -10666.5645 1437.3323 0.0000 0.0000 1711.0571 -7503.2162 290.9912 -9214.2733 -7468.8260 297.4714 -116.8781 -75.3583 30726.4065 164.7651 217.3645
ENERGY: 900000 2.4058 7.1027 6.8604 0.0000 -10698.2653 1424.7705 0.0000 0.0000 1740.6709 -7516.4550 296.0275 -9257.1259 -7462.8943 298.8449 -278.2405 -144.4312 30430.8139 135.6275 201.8321
ENERGY: 1200000 2.9775 8.0769 6.2339 0.0000 -10604.7041 1371.1908 0.0000 0.0000 1746.3680 -7469.8571 296.9964 -9216.2250 -7467.8506 298.2115 -554.3512 -534.5946 30341.6889 41.5244 98.4762
ENERGY: 1500000 5.3294 9.0961 3.3874 0.0000 -10725.7394 1486.3132 0.0000 0.0000 1781.3362 -7440.2770 302.9433 -9221.6133 -7471.9455 298.5580 373.3999 376.8130 30591.1517 81.8737 136.9804
TCL: Running FEP window   9: Lambda1 0.5999999999999996 Lambda2 0.5499999999999996 [dLambda -0.050000000000000044]
TCL: Setting parameter firsttimestep to 0
TCL: Setting parameter alchLambda to 0.5999999999999996
Info: NONBONDED TABLE R-SQUARED SPACING: 0.0625
Info: NONBONDED TABLE SIZE: 705 POINTS
TCL: Setting parameter alchLambda2 to 0.5499999999999996
Info: NONBONDED TABLE R-SQUARED SPACING: 0.0625
Info: NONBONDED TABLE SIZE: 705 POINTS
TCL: Running for 1500000 steps
ETITLE: TS BOND ANGLE DIHED IMPRP ELECT VDW BOUNDARY MISC KINETIC TOTAL TEMP POTENTIAL TOTALAVG TEMPAVG PRESSURE GPRESSURE VOLUME PRESSAVG GPRESSAVG
ENERGY: 0 5.3294 9.0961 3.3874 0.0000 -10725.1364 1486.6359 0.0000 0.0000 1780.4770 -7440.2105 302.7972 -9220.6876 -7440.2105 302.7972 291.4070 371.6481 30591.1517 291.4070 371.6481
ENERGY: 300000 2.9797 12.9803 6.0340 0.0000 -10615.8427 1418.0105 0.0000 0.0000 1750.3476 -7425.4906 297.6732 -9175.8382 -7464.4952 299.5776 -128.6065 -60.7422 30548.5523 -55.4413 31.8904
ENERGY: 600000 3.9921 4.8511 2.7969 0.0000 -10607.1127 1447.8316 0.0000 0.0000 1758.7692 -7388.8719 299.1054 -9147.6411 -7452.2410 300.2042 -1.8388 36.9558 30944.2980 -130.0647 -61.4321
ENERGY: 900000 3.9933 7.3095 4.7679 0.0000 -10619.0226 1409.8813 0.0000 0.0000 1769.8444 -7423.2262 300.9889 -9193.0706 -7450.4234 301.3338 -255.1682 -196.0301 30319.0205 -177.1319 -118.3327
ENERGY: 1200000 2.9626 8.1547 2.1510 0.0000 -10541.0486 1309.8051 0.0000 0.0000 1785.4601 -7432.5152 303.6446 -9217.9752 -7448.9007 300.6877 -710.9617 -668.5948 29852.0804 -87.5657 -38.0074
ENERGY: 1500000 5.6873 8.0879 2.7047 0.0000 -10707.9830 1432.0049 0.0000 0.0000 1791.4838 -7468.0143 304.6690 -9259.4982 -7456.9371 300.3151 38.7407 85.1745 30077.7168 18.2293 72.8269
TCL: Running FEP window  10: Lambda1 0.5499999999999996 Lambda2 0.4999999999999996 [dLambda -0.04999999999999999]
TCL: Setting parameter firsttimestep to 0
TCL: Setting parameter alchLambda to 0.5499999999999996
Info: NONBONDED TABLE R-SQUARED SPACING: 0.0625
Info: NONBONDED TABLE SIZE: 705 POINTS
TCL: Setting parameter alchLambda2 to 0.4999999999999996
Info: NONBONDED TABLE R-SQUARED SPACING: 0.0625
Info: NONBONDED TABLE SIZE: 705 POINTS
TCL: Running for 1500000 steps
ETITLE: TS BOND ANGLE DIHED IMPRP ELECT VDW BOUNDARY MISC KINETIC TOTAL TEMP POTENTIAL TOTALAVG TEMPAVG PRESSURE GPRESSURE VOLUME PRESSAVG GPRESSAVG
ENERGY: 0 5.6873 8.0879 2.7047 0.0000 -10707.8248 1432.4211 0.0000 0.0000 1790.5880 -7468.3357 304.5167 -9258.9237 -7468.3357 304.5167 -9.1269 79.7490 30077.7168 -9.1269 79.7490
ENERGY: 300000 4.9426 10.8878 6.0047 0.0000 -10648.5050 1400.7341 0.0000 0.0000 1746.4574 -7479.4785 297.0116 -9225.9359 -7452.3351 301.3412 -583.9867 -524.5829 30924.6875 -192.4002 -121.3568
ENERGY: 600000 4.6824 7.0871 3.3846 0.0000 -10890.9406 1540.3477 0.0000 0.0000 1731.1853 -7604.2536 294.4144 -9335.4389 -7462.7965 300.8994 407.7133 446.0344 30250.8404 -76.6665 -7.1325
ENERGY: 900000 1.8128 7.2603 5.2780 0.0000 -10810.9185 1449.7143 0.0000 0.0000 1734.2240 -7612.6291 294.9311 -9346.8531 -7480.0358 301.4820 163.4971 264.4110 29567.4526 -38.2431 24.2016
ENERGY: 1200000 4.1137 7.3030 6.9134 0.0000 -10663.0060 1442.3885 0.0000 0.0000 1771.5060 -7430.7813 301.2715 -9202.2873 -7469.4376 302.5213 -144.4254 -31.2570 30776.9100 37.5028 104.0896
ENERGY: 1500000 3.8580 8.7099 6.1914 0.0000 -10689.9944 1443.2048 0.0000 0.0000 1794.8514 -7433.1789 305.2417 -9228.0303 -7473.2779 302.3785 33.7274 68.0984 30230.1407 -10.1585 58.5119
TCL: Running FEP window  11: Lambda1 0.4999999999999996 Lambda2 0.4499999999999996 [dLambda -0.04999999999999999]
TCL: Setting parameter firsttimestep to 0
TCL: Setting parameter alchLambda to 0.4999999999999996
Info: NONBONDED TABLE R-SQUARED SPACING: 0.0625
Info: NONBONDED TABLE SIZE: 705 POINTS
TCL: Setting parameter alchLambda2 to 0.4499999999999996
Info: NONBONDED TABLE R-SQUARED SPACING: 0.0625
Info: NONBONDED TABLE SIZE: 705 POINTS
TCL: Running for 1500000 steps
ETITLE: TS BOND ANGLE DIHED IMPRP ELECT VDW BOUNDARY MISC KINETIC TOTAL TEMP POTENTIAL TOTALAVG TEMPAVG PRESSURE GPRESSURE VOLUME PRESSAVG GPRESSAVG
ENERGY: 0 3.8580 8.7099 6.1914 0.0000 -10689.5137 1443.8944 0.0000 0.0000 1793.9673 -7432.8926 305.0914 -9226.8599 -7432.8926 305.0914 -8.4266 64.3159 30230.1407 -8.4266 64.3159
ENERGY: 300000 3.2717 6.1545 7.2057 0.0000 -10639.9435 1375.9021 0.0000 0.0000 1772.9921 -7474.4175 301.5242 -9247.4096 -7467.6423 299.8100 -609.1620 -461.8358 30226.1056 -244.0223 -160.5405
ENERGY: 600000 2.3142 10.0660 3.3330 0.0000 -10644.5900 1456.9315 0.0000 0.0000 1770.4872 -7401.4581 301.0982 -9171.9453 -7467.4713 298.4728 138.0975 199.8739 30577.6080 -134.4828 -61.2923
ENERGY: 900000 5.0248 6.0499 4.1872 0.0000 -10606.8114 1360.1689 0.0000 0.0000 1689.8182 -7541.5624 287.3792 -9231.3806 -7481.9066 296.9793 -1048.6216 -883.5432 30663.8706 -293.4518 -218.2310
ENERGY: 1200000 4.3149 7.2131 5.4485 0.0000 -10684.1930 1383.5543 0.0000 0.0000 1816.4082 -7467.2541 308.9078 -9283.6623 -7476.0616 299.5792 -391.2009 -316.7884 29901.2379 -238.2030 -165.5765
ENERGY: 1500000 4.0520 8.6186 5.3414 0.0000 -10670.3089 1439.1983 0.0000 0.0000 1790.7094 -7422.3891 304.5373 -9213.0986 -7467.0030 300.5885 126.6889 152.8476 30327.3377 -116.0257 -40.9528
TCL: Running FEP window  12: Lambda1 0.4499999999999996 Lambda2 0.39999999999999963 [dLambda -0.04999999999999999]
TCL: Setting parameter firsttimestep to 0
TCL: Setting parameter alchLambda to 0.4499999999999996
Info: NONBONDED TABLE R-SQUARED SPACING: 0.0625
Info: NONBONDED TABLE SIZE: 705 POINTS
TCL: Setting parameter alchLambda2 to 0.39999999999999963
Info: NONBONDED TABLE R-SQUARED SPACING: 0.0625
Info: NONBONDED TABLE SIZE: 705 POINTS
TCL: Running for 1500000 steps
ETITLE: TS BOND ANGLE DIHED IMPRP ELECT VDW BOUNDARY MISC KINETIC TOTAL TEMP POTENTIAL TOTALAVG TEMPAVG PRESSURE GPRESSURE VOLUME PRESSAVG GPRESSAVG
ENERGY: 0 4.0520 8.6186 5.3414 0.0000 -10670.3081 1439.5840 0.0000 0.0000 1789.8412 -7422.8708 304.3897 -9212.7120 -7422.8708 304.3897 69.8269 144.7304 30327.3377 69.8269 144.7304
ENERGY: 300000 3.6774 5.4650 3.1829 0.0000 -10744.0369 1474.5688 0.0000 0.0000 1843.9883 -7413.1545 313.5982 -9257.1428 -7440.6886 305.6229 351.9020 352.8745 30251.1081 368.6185 406.8366
ENERGY: 600000 4.7649 6.5606 4.6998 0.0000 -10627.2497 1442.1477 0.0000 0.0000 1757.1692 -7411.9075 298.8333 -9169.0767 -7422.0675 304.6721 386.7629 408.8770 30507.0145 223.8503 262.1333
ENERGY: 900000 1.8587 5.8824 4.7761 0.0000 -10679.8789 1431.2377 0.0000 0.0000 1789.7846 -7446.3392 304.3801 -9236.1239 -7427.3888 304.3848 -30.8682 0.9898 30384.2985 113.2956 155.2358
ENERGY: 1200000 5.2657 7.3290 6.0781 0.0000 -10661.2197 1470.4339 0.0000 0.0000 1773.4740 -7398.6390 301.6062 -9172.1130 -7428.4398 302.9873 464.4075 522.7164 30584.8966 55.6715 101.0016
ENERGY: 1500000 2.7215 11.4631 5.9523 0.0000 -10813.6220 1497.6615 0.0000 0.0000 1849.3331 -7446.4905 314.5072 -9295.8236 -7426.8862 304.2477 615.1199 643.5140 29926.0336 72.4499 114.2279
TCL: Running FEP window  13: Lambda1 0.39999999999999963 Lambda2 0.34999999999999964 [dLambda -0.04999999999999999]
TCL: Setting parameter firsttimestep to 0
TCL: Setting parameter alchLambda to 0.39999999999999963
Info: NONBONDED TABLE R-SQUARED SPACING: 0.0625
Info: NONBONDED TABLE SIZE: 705 POINTS
TCL: Setting parameter alchLambda2 to 0.34999999999999964
Info: NONBONDED TABLE R-SQUARED SPACING: 0.0625
Info: NONBONDED TABLE SIZE: 705 POINTS
TCL: Running for 1500000 steps
ETITLE: TS BOND ANGLE DIHED IMPRP ELECT VDW BOUNDARY MISC KINETIC TOTAL TEMP POTENTIAL TOTALAVG TEMPAVG PRESSURE GPRESSURE VOLUME PRESSAVG GPRESSAVG
ENERGY: 0 2.7215 11.4631 5.9523 0.0000 -10813.6242 1497.6493 0.0000 0.0000 1848.5184 -7447.3197 314.3686 -9295.8380 -7447.3197 314.3686 549.3744 633.6247 29926.0336 549.3744 633.6247
ENERGY: 300000 4.4549 4.5896 2.8523 0.0000 -10544.3044 1292.9918 0.0000 0.0000 1737.3846 -7502.0312 295.4686 -9239.4157 -7474.2254 299.0528 -1484.1063 -1430.0096 30661.3896 -414.0587 -338.0416
ENERGY: 600000 5.7470 10.0794 4.6535 0.0000 -10580.5461 1370.1259 0.0000 0.0000 1761.5161 -7428.4242 299.5726 -9189.9403 -7476.6093 298.7532 -676.5897 -646.8682 30562.3105 -365.6984 -317.4009
ENERGY: 900000 0.8317 4.5517 8.1206 0.0000 -10596.7541 1387.9447 0.0000 0.0000 1836.1446 -7359.1607 312.2643 -9195.3054 -7461.4524 299.8649 25.8002 118.3386 29958.3320 -243.6837 -183.2034
ENERGY: 1200000 4.0055 10.0536 6.2817 0.0000 -10716.7102 1478.9736 0.0000 0.0000 1722.6881 -7494.7077 292.9693 -9217.3958 -7468.2550 299.8832 467.2893 502.6238 29998.6245 -122.1261 -65.2283
ENERGY: 1500000 5.1747 7.2613 4.6647 0.0000 -10723.9547 1480.3054 0.0000 0.0000 1806.1618 -7420.3869 307.1652 -9226.5487 -7458.6223 301.1007 348.1148 367.7917 30211.0931 -51.2832 -1.8760
TCL: Running FEP window  14: Lambda1 0.34999999999999964 Lambda2 0.29999999999999966 [dLambda -0.04999999999999999]
TCL: Setting parameter firsttimestep to 0
TCL: Setting parameter alchLambda to 0.34999999999999964
Info: NONBONDED TABLE R-SQUARED SPACING: 0.0625
Info: NONBONDED TABLE SIZE: 705 POINTS
TCL: Setting parameter alchLambda2 to 0.29999999999999966
Info: NONBONDED TABLE R-SQUARED SPACING: 0.0625
Info: NONBONDED TABLE SIZE: 705 POINTS
TCL: Running for 1500000 steps
ETITLE: TS BOND ANGLE DIHED IMPRP ELECT VDW BOUNDARY MISC KINETIC TOTAL TEMP POTENTIAL TOTALAVG TEMPAVG PRESSURE GPRESSURE VOLUME PRESSAVG GPRESSAVG
ENERGY: 0 5.1746 7.2613 4.6647 0.0000 -10723.9548 1480.1182 0.0000 0.0000 1805.2847 -7421.4512 307.0161 -9226.7359 -7421.4512 307.0161 274.6244 357.9854 30211.0931 274.6244 357.9854
ENERGY: 300000 3.4239 8.0516 7.5502 0.0000 -10597.0795 1364.2662 0.0000 0.0000 1706.2878 -7507.4997 290.1802 -9213.7875 -7454.7919 300.6161 -784.6439 -728.5476 30818.9369 58.5235 150.6308
ENERGY: 600000 4.4274 9.7683 6.8434 0.0000 -10757.3782 1546.5161 0.0000 0.0000 1804.6098 -7385.2133 306.9013 -9189.8231 -7449.2547 300.3081 986.8800 1074.0841 30293.1919 108.1790 203.0099
ENERGY: 900000 4.5677 6.4764 5.7057 0.0000 -10644.2017 1409.3651 0.0000 0.0000 1790.2625 -7427.8243 304.4613 -9218.0868 -7466.8660 299.9761 -103.7644 -84.4224 30083.3406 57.2705 138.6412
ENERGY: 1200000 3.6130 5.8541 5.4815 0.0000 -10638.8479 1460.0324 0.0000 0.0000 1766.0119 -7397.8551 300.3371 -9163.8670 -7467.2798 300.0509 296.2826 360.9278 30351.7349 51.1628 131.7624
ENERGY: 1500000 7.1051 7.0618 8.7609 0.0000 -10609.9820 1475.2580 0.0000 0.0000 1707.3539 -7404.4423 290.3615 -9111.7963 -7455.9442 300.4569 564.9192 626.4016 30372.6459 -0.5362 73.6288
TCL: Running FEP window  15: Lambda1 0.29999999999999966 Lambda2 0.24999999999999967 [dLambda -0.04999999999999999]
TCL: Setting parameter firsttimestep to 0
TCL: Setting parameter alchLambda to 0.29999999999999966
Info: NONBONDED TABLE R-SQUARED SPACING: 0.0625
Info: NONBONDED TABLE SIZE: 705 POINTS
TCL: Setting parameter alchLambda2 to 0.24999999999999967
Info: NONBONDED TABLE R-SQUARED SPACING: 0.0625
Info: NONBONDED TABLE SIZE: 705 POINTS
TCL: Running for 1500000 steps
ETITLE: TS BOND ANGLE DIHED IMPRP ELECT VDW BOUNDARY MISC KINETIC TOTAL TEMP POTENTIAL TOTALAVG TEMPAVG PRESSURE GPRESSURE VOLUME PRESSAVG GPRESSAVG
ENERGY: 0 7.1051 7.0618 8.7609 0.0000 -10609.9808 1475.3795 0.0000 0.0000 1706.4823 -7405.1912 290.2132 -9111.6735 -7405.1912 290.2132 528.6571 623.8444 30372.6459 528.6571 623.8444
ENERGY: 300000 1.5373 11.1690 6.7637 0.0000 -10652.4203 1398.1685 0.0000 0.0000 1743.3475 -7491.4343 296.4827 -9234.7818 -7474.8123 295.3205 -514.4814 -452.8772 30912.4970 169.2864 242.6599
ENERGY: 600000 2.5336 8.3801 3.2304 0.0000 -10652.1775 1435.0485 0.0000 0.0000 1785.8207 -7417.1643 303.7059 -9202.9850 -7473.5735 295.9643 56.4318 66.6762 30441.4839 118.8071 181.0873
ENERGY: 900000 2.9802 7.4078 5.6482 0.0000 -10678.9636 1408.8122 0.0000 0.0000 1763.6386 -7490.4767 299.9335 -9254.1152 -7467.5158 297.4792 -387.3141 -305.1649 30718.2648 88.0728 147.0305
ENERGY: 1200000 3.2032 6.3987 4.7518 0.0000 -10740.0624 1475.4001 0.0000 0.0000 1781.0162 -7469.2924 302.8888 -9250.3085 -7469.6412 299.4962 277.7885 369.4829 29950.7503 151.4692 208.8716
ENERGY: 1500000 2.8652 10.1212 7.2584 0.0000 -10729.8303 1397.1652 0.0000 0.0000 1806.9337 -7505.4866 307.2965 -9312.4203 -7459.2899 300.7540 -487.3829 -511.8622 30220.7985 150.9070 203.9292
TCL: Running FEP window  16: Lambda1 0.24999999999999967 Lambda2 0.19999999999999968 [dLambda -0.04999999999999999]
TCL: Setting parameter firsttimestep to 0
TCL: Setting parameter alchLambda to 0.24999999999999967
Info: NONBONDED TABLE R-SQUARED SPACING: 0.0625
Info: NONBONDED TABLE SIZE: 705 POINTS
TCL: Setting parameter alchLambda2 to 0.19999999999999968
Info: NONBONDED TABLE R-SQUARED SPACING: 0.0625
Info: NONBONDED TABLE SIZE: 705 POINTS
TCL: Running for 1500000 steps
ETITLE: TS BOND ANGLE DIHED IMPRP ELECT VDW BOUNDARY MISC KINETIC TOTAL TEMP POTENTIAL TOTALAVG TEMPAVG PRESSURE GPRESSURE VOLUME PRESSAVG GPRESSAVG
ENERGY: 0 2.8652 10.1212 7.2584 0.0000 -10729.8310 1397.1677 0.0000 0.0000 1806.0646 -7506.3538 307.1487 -9312.4184 -7506.3538 307.1487 -603.1247 -517.6989 30220.7985 -603.1247 -517.6989
ENERGY: 300000 3.1571 3.7183 5.1888 0.0000 -10816.5678 1531.2150 0.0000 0.0000 1808.3867 -7464.9019 307.5436 -9273.2886 -7489.8700 303.3735 657.7256 743.3012 30287.7573 48.1333 132.4593
ENERGY: 600000 4.2052 5.9735 4.7885 0.0000 -10483.3564 1362.4095 0.0000 0.0000 1722.0722 -7383.9075 292.8645 -9105.9797 -7445.1039 300.2157 -278.6679 -195.3435 30383.9876 4.4614 67.7025
ENERGY: 900000 1.4480 5.4276 6.1341 0.0000 -10698.5614 1452.7076 0.0000 0.0000 1797.7682 -7435.0759 305.7378 -9232.8440 -7449.7255 300.0552 289.0528 406.1131 30176.9573 -125.3496 -59.5036
ENERGY: 1200000 3.6086 7.2386 4.8154 0.0000 -10696.9326 1483.5208 0.0000 0.0000 1802.1027 -7395.6464 306.4749 -9197.7491 -7456.2651 299.4903 510.8756 570.4665 30308.0631 -45.0438 19.6448
ENERGY: 1500000 4.4773 5.3151 7.1444 0.0000 -10648.2446 1399.8143 0.0000 0.0000 1827.6822 -7403.8113 310.8251 -9231.4935 -7453.6971 300.5221 -160.3137 -64.2311 30062.3108 -3.0513 62.0788
TCL: Running FEP window  17: Lambda1 0.19999999999999968 Lambda2 0.1499999999999997 [dLambda -0.04999999999999999]
TCL: Setting parameter firsttimestep to 0
TCL: Setting parameter alchLambda to 0.19999999999999968
Info: NONBONDED TABLE R-SQUARED SPACING: 0.0625
Info: NONBONDED TABLE SIZE: 705 POINTS
TCL: Setting parameter alchLambda2 to 0.1499999999999997
Info: NONBONDED TABLE R-SQUARED SPACING: 0.0625
Info: NONBONDED TABLE SIZE: 705 POINTS
TCL: Running for 1500000 steps
ETITLE: TS BOND ANGLE DIHED IMPRP ELECT VDW BOUNDARY MISC KINETIC TOTAL TEMP POTENTIAL TOTALAVG TEMPAVG PRESSURE GPRESSURE VOLUME PRESSAVG GPRESSAVG
ENERGY: 0 4.4773 5.3151 7.1444 0.0000 -10648.2453 1399.2328 0.0000 0.0000 1826.8012 -7405.2746 310.6753 -9232.0757 -7405.2746 310.6753 -152.6231 -71.6022 30062.3108 -152.6231 -71.6022
ENERGY: 300000 6.8520 8.7060 8.0452 0.0000 -10556.2266 1362.7529 0.0000 0.0000 1726.2990 -7443.5714 293.5834 -9169.8704 -7454.6527 301.3434 -125.6308 -75.4892 30125.1899 -169.8225 -109.0900
ENERGY: 600000 2.0369 6.3933 3.3166 0.0000 -10696.4644 1468.5728 0.0000 0.0000 1794.5020 -7421.6429 305.1823 -9216.1449 -7449.9582 302.1964 45.5231 172.2851 30422.1562 -73.2945 -11.6181
ENERGY: 900000 2.5291 9.6229 8.1033 0.0000 -10659.9340 1416.9728 0.0000 0.0000 1716.6411 -7506.0648 291.9409 -9222.7059 -7462.0249 302.4910 -215.2758 -204.5028 30538.4337 32.7876 81.9890
ENERGY: 1200000 4.8180 6.2458 4.1359 0.0000 -10708.1976 1476.8428 0.0000 0.0000 1781.9891 -7434.1660 303.0543 -9216.1552 -7459.3586 302.2653 -98.2609 -86.5808 31148.9101 53.2604 100.2893
ENERGY: 1500000 1.5116 6.7780 4.7762 0.0000 -10710.5389 1417.4012 0.0000 0.0000 1752.6346 -7527.4373 298.0621 -9280.0719 -7459.1284 301.7476 -331.0288 -257.4971 30221.6421 37.5966 96.0609
TCL: Running FEP window  18: Lambda1 0.1499999999999997 Lambda2 0.09999999999999969 [dLambda -0.05 ]
TCL: Setting parameter firsttimestep to 0
TCL: Setting parameter alchLambda to 0.1499999999999997
Info: NONBONDED TABLE R-SQUARED SPACING: 0.0625
Info: NONBONDED TABLE SIZE: 705 POINTS
TCL: Setting parameter alchLambda2 to 0.09999999999999969
Info: NONBONDED TABLE R-SQUARED SPACING: 0.0625
Info: NONBONDED TABLE SIZE: 705 POINTS
TCL: Running for 1500000 steps
ETITLE: TS BOND ANGLE DIHED IMPRP ELECT VDW BOUNDARY MISC KINETIC TOTAL TEMP POTENTIAL TOTALAVG TEMPAVG PRESSURE GPRESSURE VOLUME PRESSAVG GPRESSAVG
ENERGY: 0 1.5116 6.7780 4.7762 0.0000 -10710.5390 1416.4703 0.0000 0.0000 1751.7649 -7529.2380 297.9142 -9281.0029 -7529.2380 297.9142 -346.6018 -266.5841 30221.6421 -346.6018 -266.5841
ENERGY: 300000 1.6718 9.1207 2.2820 0.0000 -10842.2023 1540.6096 0.0000 0.0000 1757.9687 -7530.5494 298.9693 -9288.5181 -7479.4768 302.6651 671.4307 833.5901 30006.3848 -148.5315 -46.5156
ENERGY: 600000 5.2746 5.0692 8.3785 0.0000 -10724.4361 1427.4850 0.0000 0.0000 1796.7392 -7481.4895 305.5628 -9278.2288 -7477.6256 300.6772 -165.0734 -71.7295 29958.7328 -22.8278 68.7585
ENERGY: 900000 7.1234 8.0378 3.5245 0.0000 -10829.5876 1481.8174 0.0000 0.0000 1782.6038 -7546.4808 303.1589 -9329.0846 -7493.7153 300.3619 -246.0218 -164.9206 30307.7472 72.1765 162.0680
ENERGY: 1200000 4.3687 8.4210 4.5438 0.0000 -10725.4258 1451.0870 0.0000 0.0000 1749.2618 -7507.7434 297.4885 -9257.0052 -7481.8810 301.0894 -54.0684 18.5268 30015.4448 88.9941 174.3775
ENERGY: 1500000 3.5212 6.3995 6.3906 0.0000 -10679.2605 1431.5685 0.0000 0.0000 1741.0530 -7490.3277 296.0925 -9231.3807 -7483.3876 301.0684 43.1183 79.3322 30167.6270 75.0729 152.2387
TCL: Running FEP window  19: Lambda1 0.09999999999999969 Lambda2 0.049999999999999684 [dLambda -0.05 ]
TCL: Setting parameter firsttimestep to 0
TCL: Setting parameter alchLambda to 0.09999999999999969
Info: NONBONDED TABLE R-SQUARED SPACING: 0.0625
Info: NONBONDED TABLE SIZE: 705 POINTS
TCL: Setting parameter alchLambda2 to 0.049999999999999684
Info: NONBONDED TABLE R-SQUARED SPACING: 0.0625
Info: NONBONDED TABLE SIZE: 705 POINTS
TCL: Running for 1500000 steps
ETITLE: TS BOND ANGLE DIHED IMPRP ELECT VDW BOUNDARY MISC KINETIC TOTAL TEMP POTENTIAL TOTALAVG TEMPAVG PRESSURE GPRESSURE VOLUME PRESSAVG GPRESSAVG
ENERGY: 0 3.5212 6.3995 6.3906 0.0000 -10679.2614 1432.2248 0.0000 0.0000 1740.2158 -7490.5094 295.9501 -9230.7253 -7490.5094 295.9501 -4.4033 78.6633 30167.6270 -4.4033 78.6633
ENERGY: 300000 2.2556 7.1261 7.0703 0.0000 -10635.9220 1377.2032 0.0000 0.0000 1713.7666 -7528.5001 291.4520 -9242.2667 -7468.6699 297.2438 -457.0758 -423.3857 30287.0180 -66.2757 -21.5511
ENERGY: 600000 4.0109 9.9014 4.8022 0.0000 -10634.4905 1385.7158 0.0000 0.0000 1781.2889 -7448.7712 302.9352 -9230.0601 -7452.9929 300.4140 -579.8380 -528.1132 30169.4255 -95.5205 -44.9474
ENERGY: 900000 5.8093 10.2272 6.4208 0.0000 -10703.8164 1393.6291 0.0000 0.0000 1778.7659 -7508.9641 302.5062 -9287.7300 -7472.8537 300.2562 -407.9799 -360.8250 29912.5745 -148.5800 -90.4285
ENERGY: 1200000 5.1079 9.6763 4.5408 0.0000 -10752.8093 1457.3452 0.0000 0.0000 1757.4210 -7518.7181 298.8761 -9276.1391 -7473.6120 300.7098 -250.9816 -214.0730 30369.1129 -134.9690 -75.8645
ENERGY: 1500000 8.1962 8.2850 5.5767 0.0000 -10634.4568 1378.5583 0.0000 0.0000 1818.2262 -7415.6144 309.2170 -9233.8406 -7467.3470 301.0779 -713.5751 -671.2661 30395.2451 -132.8602 -70.6354
TCL: Running FEP window  20: Lambda1 0.049999999999999684 Lambda2 0.0    [dLambda -0.049999999999999684]
TCL: Setting parameter firsttimestep to 0
TCL: Setting parameter alchLambda to 0.049999999999999684
Info: NONBONDED TABLE R-SQUARED SPACING: 0.0625
Info: NONBONDED TABLE SIZE: 705 POINTS
TCL: Setting parameter alchLambda2 to 0.0
Info: NONBONDED TABLE R-SQUARED SPACING: 0.0625
Info: NONBONDED TABLE SIZE: 705 POINTS
TCL: Running for 1500000 steps
ETITLE: TS BOND ANGLE DIHED IMPRP ELECT VDW BOUNDARY MISC KINETIC TOTAL TEMP POTENTIAL TOTALAVG TEMPAVG PRESSURE GPRESSURE VOLUME PRESSAVG GPRESSAVG
ENERGY: 0 8.1962 8.2850 5.5767 0.0000 -10634.4581 1379.0249 0.0000 0.0000 1817.2845 -7416.0909 309.0568 -9233.3754 -7416.0909 309.0568 -747.8371 -675.0449 30395.2451 -747.8371 -675.0449
ENERGY: 300000 2.5027 7.6877 7.5516 0.0000 -10718.1762 1402.1493 0.0000 0.0000 1779.7024 -7518.5826 302.6654 -9298.2849 -7457.9653 303.9256 -515.7733 -422.9760 30158.0185 -359.5801 -290.5609
ENERGY: 600000 3.6547 10.0560 7.0657 0.0000 -10649.4420 1356.4905 0.0000 0.0000 1748.0759 -7524.0992 297.2869 -9272.1751 -7479.5363 299.0999 -989.6287 -938.0085 30503.5186 -703.6150 -646.9450
ENERGY: 900000 7.2130 9.5842 9.7871 0.0000 -10668.1978 1444.4439 0.0000 0.0000 1787.0291 -7410.1406 303.9114 -9197.1697 -7460.8825 298.5247 505.9166 476.5161 30042.6215 -415.2039 -361.9325
ENERGY: 1200000 7.2437 8.3167 5.4672 0.0000 -10672.1459 1379.6495 0.0000 0.0000 1731.7159 -7539.7529 294.5046 -9271.4688 -7463.8194 298.8397 -342.7191 -319.5251 29921.0720 -378.0542 -319.1352
ENERGY: 1500000 7.5222 5.9820 4.4425 0.0000 -10826.9493 1507.9465 0.0000 0.0000 1772.1365 -7528.9196 301.3787 -9301.0561 -7465.8927 299.0452 302.7839 368.1666 30049.0878 -296.0542 -228.9028
TCL: Exiting due to exit command.
