Info: SIMULATION PARAMETERS:
Info: TIMESTEP               2
Info: NUMBER OF STEPS        0
Info: STEPS PER CYCLE        10
Info: PERIODIC CELL BASIS 1  32.2951 0 0
Info: PERIODIC CELL BASIS 2  0 30.6217 0
Info: PERIODIC CELL BASIS 3  0 0 30.6076
Info: PERIODIC CELL CENTER   0 0 0
Info: WRAPPING WATERS AROUND PERIODIC BOUNDARIES ON OUTPUT.
Info: WRAPPING ALL CLUSTERS AROUND PERIODIC BOUNDARIES ON OUTPUT.
Info: FIRST LDB TIMESTEP     50
Info: LAST LDB TIMESTEP     -1
Info: HOM BACKGROUND SCALING 1
Info: PME BACKGROUND SCALING 1
Info: MIN ATOMS PER PATCH    40
Info: EMPTY PATCH LOAD       40 ATOMS
Info: VELOCITY FILE          mobley_9201263_equil.vel
Info: CENTER OF MASS MOVING INITIALLY? NO
Info: DIELECTRIC             1
Info: EXCLUDE                SCALED ONE-FOUR
Info: 1-4 ELECTROSTATICS SCALED BY 0.833333
Info: MODIFIED 1-4 VDW PARAMETERS WILL BE USED
Info: DCD FILENAME           mobley_9201263_prod.dcd
Info: DCD FREQUENCY          100000
Info: DCD FIRST STEP         100000
Info: DCD FILE WILL CONTAIN UNIT CELL DATA
Info: XST FILENAME           mobley_9201263_prod.xst
Info: XST FREQUENCY          100000
Info: NO VELOCITY DCD OUTPUT
Info: NO FORCE DCD OUTPUT
Info: OUTPUT FILENAME        mobley_9201263_prod
Info: BINARY OUTPUT FILES WILL BE USED
Info: RESTART FILENAME       mobley_9201263_prod.restart
Info: RESTART FREQUENCY      100000
Info: BINARY RESTART FILES WILL BE USED
Info: CUTOFF                 9
Info: PAIRLIST DISTANCE      11
Info: PAIRLIST SHRINK RATE   0.01
Info: PAIRLIST GROW RATE     0.01
Info: PAIRLIST TRIGGER       0.3
Info: PAIRLISTS PER CYCLE    2
Info: PAIRLISTS ENABLED
Info: MARGIN                 2
Info: HYDROGEN GROUP CUTOFF  2.5
Info: PATCH DIMENSION        15.5
Info: ENERGY OUTPUT STEPS    100000
Info: ENERGY EVALUATION STEPS    100000
Info: OUTPUT ENERGY PRECISION 4
Info: CROSSTERM ENERGY INCLUDED IN DIHEDRAL
Info: TIMING OUTPUT STEPS    1000000
Info: PRESSURE OUTPUT STEPS  100000
Info: ALCHEMICAL FEP ON
Info: FEP CURRENT LAMBDA VALUE     1
Info: FEP COMPARISON LAMBDA VALUE  0.95
Info: FEP INTRA-ALCHEMICAL NON-BONDED INTERACTIONS WILL BE RETAINED
Info: FEP INTRA-ALCHEMICAL BONDED INTERACTIONS WILL BE RETAINED
Info: FEP VDW SHIFTING COEFFICIENT 5
Info: FEP ELEC. ACTIVE FOR ANNIHILATED PARTICLES BETWEEN LAMBDA = 0 AND LAMBDA = 0.5
Info: FEP ELEC. ACTIVE FOR EXNIHILATED PARTICLES BETWEEN LAMBDA = 0.5 AND LAMBDA = 1
Info: FEP VDW ACTIVE FOR ANNIHILATED PARTICLES BETWEEN LAMBDA = 0 AND LAMBDA = 1
Info: FEP VDW ACTIVE FOR EXNIHILATED PARTICLES BETWEEN LAMBDA = 0 AND LAMBDA = 1
Info: FEP BOND ACTIVE FOR ANNIHILATED PARTICLES BETWEEN LAMBDA = 1 AND LAMBDA = 1
Info: FEP BOND ACTIVE FOR EXNIHILATED PARTICLES BETWEEN LAMBDA = 0 AND LAMBDA = 0
Info: LANGEVIN DYNAMICS ACTIVE
Info: LANGEVIN TEMPERATURE   300
Info: LANGEVIN USING BBK INTEGRATOR
Info: LANGEVIN DAMPING COEFFICIENT IS 1 INVERSE PS
Info: LANGEVIN DYNAMICS APPLIED TO HYDROGENS
Info: LANGEVIN PISTON PRESSURE CONTROL ACTIVE
Info:        TARGET PRESSURE IS 1.01325 BAR
Info:     OSCILLATION PERIOD IS 50 FS
Info:             DECAY TIME IS 25 FS
Info:     PISTON TEMPERATURE IS 300 K
Info:       PRESSURE CONTROL IS GROUP-BASED
Info:    INITIAL STRAIN RATE IS -0.000661766 -0.000661766 -0.000661766
Info:       CELL FLUCTUATION IS ISOTROPIC
Info: PARTICLE MESH EWALD (PME) ACTIVE
Info: PME TOLERANCE               1e-06
Info: PME EWALD COEFFICIENT       0.348832
Info: PME INTERPOLATION ORDER     4
Info: PME GRID DIMENSIONS         36 32 32
Info: PME MAXIMUM GRID SPACING    1
Info: PME CALCULATION WILL BE PERFORMED ON GPU
Info: FULL ELECTROSTATIC EVALUATION FREQUENCY      2
Info: USING VERLET I (r-RESPA) MTS SCHEME.
Info: C1 SPLITTING OF LONG RANGE ELECTROSTATICS
Info: PLACING ATOMS IN PATCHES BY HYDROGEN GROUPS
Info: RIGID BONDS TO HYDROGEN : ALL
Info:         ERROR TOLERANCE : 1e-08
Info:          MAX ITERATIONS : 100
Info: RIGID WATER USING SETTLE ALGORITHM
Info: RANDOM NUMBER SEED     1743730872
Info: USE HYDROGEN BONDS?    NO
Info: Using AMBER format force field!
Info: AMBER PARM FILE        mobley_9201263.prmtop
Info: COORDINATE PDB         mobley_9201263.pdb
Info: Exclusions will be read from PARM file!
Info: SCNB (VDW SCALING)     2
Info: USING ARITHMETIC MEAN TO COMBINE L-J SIGMA PARAMETERS
Info: BINARY COORDINATES     mobley_9201263_equil.coor
Info: SUMMARY OF PARAMETERS:
Info: 7 BONDS
Info: 8 ANGLES
Info:   8 HARMONIC
Info:   0 COSINE-BASED
Info: 3 DIHEDRAL
Info: 0 IMPROPER
Info: 0 CROSSTERM
Info: 0 VDW
Info: 28 VDW_PAIRS
Info: 0 NBTHOLE_PAIRS
Info: To read alchdata from file: mobley_9201263.pdb
Info: To read alchflag data from column: 5
Info: STRUCTURE SUMMARY:
Info: 2970 ATOMS
Info: 2969 BONDS
Info: 19 ANGLES
Info: 15 DIHEDRALS
Info: 0 IMPROPERS
Info: 0 CROSSTERMS
Info: 3003 EXCLUSIONS
Info: 2964 RIGID BONDS
Info: ALCH: 0 ATOMS TO DISAPPEAR IN FINAL STATE
Info: ALCH: 12 ATOMS TO APPEAR IN FINAL STATE
Info: 5946 DEGREES OF FREEDOM
Info: 992 HYDROGEN GROUPS
Info: 4 ATOMS IN LARGEST HYDROGEN GROUP
Info: 992 MIGRATION GROUPS
Info: 4 ATOMS IN LARGEST MIGRATION GROUP
Info: TOTAL MASS = 17873.9 amu
Info: TOTAL CHARGE = 0.000399966 e
Info: MASS DENSITY = 0.980581 g/cm^3
Info: ATOM DENSITY = 0.0981208 atoms/A^3
Info: ADDED 0 IMPLICIT EXCLUSIONS
Info: NONBONDED TABLE R-SQUARED SPACING: 0.0625
Info: NONBONDED TABLE SIZE: 705 POINTS
Info: REMOVING COM VELOCITY 0.0885681 -0.0387476 0.000491395
Info: Use 3D box decompostion in PME FFT.
Info: Updated CUDA force table with 4096 elements.
Info: Updated CUDA LJ table with 7 x 7 elements.
Info: Found 15 unique exclusion lists needing 24 bytes
TCL: Running for 1500000 steps
ETITLE: TS BOND ANGLE DIHED IMPRP ELECT VDW BOUNDARY MISC KINETIC TOTAL TEMP POTENTIAL TOTALAVG TEMPAVG PRESSURE GPRESSURE VOLUME PRESSAVG GPRESSAVG
ENERGY: 0 2.0944 6.4787 4.2015 0.0000 -10869.2889 1430.2127 0.0000 0.0000 1796.7639 -7629.5377 304.1281 -9426.3016 -7629.5377 304.1281 -25.6279 77.7008 30268.8145 -25.6279 77.7008
ENERGY: 300000 2.3884 3.6467 3.0887 0.0000 -10816.0114 1401.1872 0.0000 0.0000 1780.6391 -7625.0612 301.3987 -9405.7004 -7621.0828 300.4195 -257.2106 -183.2110 30671.3009 -166.3448 -85.4700
ENERGY: 600000 2.4623 5.1959 3.7451 0.0000 -10948.9186 1481.9322 0.0000 0.0000 1765.9763 -7689.6068 298.9168 -9455.5831 -7626.2717 300.8115 262.3096 336.7034 29932.8575 -245.2467 -162.7964
ENERGY: 900000 2.4648 8.5400 4.9072 0.0000 -10866.4064 1439.2634 0.0000 0.0000 1835.4273 -7575.8038 310.6724 -9411.2310 -7601.7591 303.2337 -93.9159 -41.7088 30983.5612 -119.2234 -48.1743
ENERGY: 1200000 3.5804 2.7104 4.9569 0.0000 -10797.7033 1481.9085 0.0000 0.0000 1729.2404 -7575.3065 292.6987 -9304.5470 -7592.8253 302.8913 717.0366 782.7904 30385.4426 -108.5581 -39.9213
ENERGY: 1500000 0.6531 5.2545 4.4017 0.0000 -10897.0364 1479.0592 0.0000 0.0000 1760.7625 -7646.9054 298.0343 -9407.6679 -7593.6702 302.7570 262.4239 252.4973 30429.9329 -38.0931 20.4678
TCL: Running FEP window   2: Lambda1 0.95   Lambda2 0.8999999999999999 [dLambda -0.050000000000000044]
TCL: Setting parameter firsttimestep to 0
TCL: Setting parameter alchLambda to 0.95
Info: NONBONDED TABLE R-SQUARED SPACING: 0.0625
Info: NONBONDED TABLE SIZE: 705 POINTS
TCL: Setting parameter alchLambda2 to 0.8999999999999999
Info: NONBONDED TABLE R-SQUARED SPACING: 0.0625
Info: NONBONDED TABLE SIZE: 705 POINTS
TCL: Running for 1500000 steps
ETITLE: TS BOND ANGLE DIHED IMPRP ELECT VDW BOUNDARY MISC KINETIC TOTAL TEMP POTENTIAL TOTALAVG TEMPAVG PRESSURE GPRESSURE VOLUME PRESSAVG GPRESSAVG
ENERGY: 0 0.6531 5.2545 4.4017 0.0000 -10894.7694 1478.2520 0.0000 0.0000 1759.8812 -7646.3270 297.8851 -9406.2081 -7646.3270 297.8851 164.9121 232.3204 30429.9329 164.9121 232.3204
ENERGY: 300000 2.0684 6.1626 3.6055 0.0000 -10988.7685 1496.9986 0.0000 0.0000 1795.0804 -7684.8530 303.8431 -9479.9334 -7659.8985 295.3442 348.3503 374.0928 30156.8669 -220.4214 -156.8564
ENERGY: 600000 3.3094 8.4677 4.1037 0.0000 -10853.3911 1492.6128 0.0000 0.0000 1706.4886 -7638.4091 288.8477 -9344.8977 -7648.7260 295.0656 488.3142 549.4887 30527.7275 -119.8960 -65.3783
ENERGY: 900000 0.6137 4.5156 4.2815 0.0000 -11002.3623 1537.0753 0.0000 0.0000 1765.0790 -7690.7972 298.7649 -9455.8762 -7652.8809 296.2722 602.2397 649.4092 30391.8628 -138.5976 -87.5817
ENERGY: 1200000 1.1005 6.9776 4.7268 0.0000 -10861.8321 1455.0097 0.0000 0.0000 1793.9954 -7600.0221 303.6594 -9394.0175 -7639.4802 298.2871 59.7389 115.1072 30536.0111 -132.2111 -79.2753
ENERGY: 1500000 0.7772 4.9566 4.2805 0.0000 -10803.7185 1443.5192 0.0000 0.0000 1735.8408 -7614.3442 293.8159 -9350.1850 -7639.1268 298.0606 -365.5950 -258.1762 31079.6873 -184.6465 -123.7761
TCL: Running FEP window   3: Lambda1 0.8999999999999999 Lambda2 0.8499999999999999 [dLambda -0.050000000000000044]
TCL: Setting parameter firsttimestep to 0
TCL: Setting parameter alchLambda to 0.8999999999999999
Info: NONBONDED TABLE R-SQUARED SPACING: 0.0625
Info: NONBONDED TABLE SIZE: 705 POINTS
TCL: Setting parameter alchLambda2 to 0.8499999999999999
Info: NONBONDED TABLE R-SQUARED SPACING: 0.0625
Info: NONBONDED TABLE SIZE: 705 POINTS
TCL: Running for 1500000 steps
ETITLE: TS BOND ANGLE DIHED IMPRP ELECT VDW BOUNDARY MISC KINETIC TOTAL TEMP POTENTIAL TOTALAVG TEMPAVG PRESSURE GPRESSURE VOLUME PRESSAVG GPRESSAVG
ENERGY: 0 0.7772 4.9566 4.2805 0.0000 -10800.9637 1442.9014 0.0000 0.0000 1734.9772 -7613.0709 293.6698 -9348.0481 -7613.0709 293.6698 -352.0368 -268.0727 31079.6873 -352.0368 -268.0727
ENERGY: 300000 3.3186 7.2233 3.3824 0.0000 -11024.7543 1546.5827 0.0000 0.0000 1811.5319 -7652.7153 306.6278 -9464.2472 -7636.1290 302.8656 460.5575 519.2695 31023.6342 232.5275 298.9068
ENERGY: 600000 1.2676 2.4140 3.4004 0.0000 -10942.2028 1465.2600 0.0000 0.0000 1761.1817 -7708.6791 298.1053 -9469.8608 -7668.0172 300.1773 307.9214 391.1938 29976.9900 158.0316 223.0684
ENERGY: 900000 1.5114 8.5064 3.7655 0.0000 -10696.1456 1336.3552 0.0000 0.0000 1803.9969 -7542.0103 305.3524 -9346.0072 -7652.2821 300.3444 -706.1634 -611.6978 31023.1150 42.7883 105.3338
ENERGY: 1200000 3.8507 2.4087 4.9171 0.0000 -10847.4198 1422.1261 0.0000 0.0000 1794.3817 -7619.7355 303.7248 -9414.1172 -7651.7937 300.6284 -216.2311 -164.9002 30639.9010 50.5498 108.6525
ENERGY: 1500000 1.1956 6.6619 3.8044 0.0000 -10977.7703 1493.1967 0.0000 0.0000 1859.8634 -7613.0483 314.8086 -9472.9118 -7647.8218 301.5632 38.3309 107.8104 30696.3055 34.2721 95.7396
TCL: Running FEP window   4: Lambda1 0.8499999999999999 Lambda2 0.7999999999999998 [dLambda -0.050000000000000044]
TCL: Setting parameter firsttimestep to 0
TCL: Setting parameter alchLambda to 0.8499999999999999
Info: NONBONDED TABLE R-SQUARED SPACING: 0.0625
Info: NONBONDED TABLE SIZE: 705 POINTS
TCL: Setting parameter alchLambda2 to 0.7999999999999998
Info: NONBONDED TABLE R-SQUARED SPACING: 0.0625
Info: NONBONDED TABLE SIZE: 705 POINTS
TCL: Running for 1500000 steps
ETITLE: TS BOND ANGLE DIHED IMPRP ELECT VDW BOUNDARY MISC KINETIC TOTAL TEMP POTENTIAL TOTALAVG TEMPAVG PRESSURE GPRESSURE VOLUME PRESSAVG GPRESSAVG
ENERGY: 0 1.1956 6.6619 3.8044 0.0000 -10974.8860 1491.5473 0.0000 0.0000 1858.9652 -7612.7117 314.6565 -9471.6768 -7612.7117 314.6565 2.7022 88.0071 30696.3055 2.7022 88.0071
ENERGY: 300000 3.5925 3.9575 3.1218 0.0000 -10907.5371 1437.8002 0.0000 0.0000 1770.5647 -7688.5004 299.6935 -9459.0651 -7661.6479 301.2225 -216.2463 -141.2928 30451.7178 -51.8328 11.9741
ENERGY: 600000 1.2709 6.2239 5.1565 0.0000 -10926.5076 1519.6195 0.0000 0.0000 1773.2650 -7620.9717 300.1505 -9394.2367 -7650.2810 300.8434 597.5610 683.4550 30540.3685 -41.7488 19.3467
ENERGY: 900000 1.8426 3.2648 3.6826 0.0000 -10786.2642 1446.3698 0.0000 0.0000 1780.9915 -7550.1128 301.4584 -9331.1044 -7632.8955 300.0113 14.4931 163.8055 30967.6033 -54.1514 11.5678
ENERGY: 1200000 1.4256 3.8581 4.5675 0.0000 -10832.3886 1359.2832 0.0000 0.0000 1810.6277 -7652.6265 306.4747 -9463.2542 -7627.9184 301.5049 -865.2349 -785.4023 30801.2056 -82.0578 -9.9738
ENERGY: 1500000 2.4471 5.2277 4.6818 0.0000 -10811.0966 1409.5183 0.0000 0.0000 1742.5554 -7646.6664 294.9525 -9389.2218 -7632.2158 300.2413 -298.6086 -298.9557 30634.4483 -130.6524 -61.8605
TCL: Running FEP window   5: Lambda1 0.7999999999999998 Lambda2 0.7499999999999998 [dLambda -0.050000000000000044]
TCL: Setting parameter firsttimestep to 0
TCL: Setting parameter alchLambda to 0.7999999999999998
Info: NONBONDED TABLE R-SQUARED SPACING: 0.0625
Info: NONBONDED TABLE SIZE: 705 POINTS
TCL: Setting parameter alchLambda2 to 0.7499999999999998
Info: NONBONDED TABLE R-SQUARED SPACING: 0.0625
Info: NONBONDED TABLE SIZE: 705 POINTS
TCL: Running for 1500000 steps
ETITLE: TS BOND ANGLE DIHED IMPRP ELECT VDW BOUNDARY MISC KINETIC TOTAL TEMP POTENTIAL TOTALAVG TEMPAVG PRESSURE GPRESSURE VOLUME PRESSAVG GPRESSAVG
ENERGY: 0 2.4471 5.2277 4.6818 0.0000 -10808.6577 1409.0457 0.0000 0.0000 1741.6978 -7645.5577 294.8073 -9387.2555 -7645.5577 294.8073 -398.5847 -305.6594 30634.4483 -398.5847 -305.6594
ENERGY: 300000 2.3039 5.6769 4.5887 0.0000 -10918.6843 1492.2704 0.0000 0.0000 1784.4549 -7629.3896 302.0446 -9413.8445 -7617.2701 301.6217 479.9775 566.1625 30217.3791 -242.3912 -153.6688
ENERGY: 600000 3.5926 5.5228 3.9195 0.0000 -10832.1817 1396.7562 0.0000 0.0000 1784.6174 -7637.7732 302.0721 -9422.3906 -7603.8042 301.8832 -616.6483 -576.9096 30639.9663 -122.6792 -47.2516
ENERGY: 900000 1.8556 3.4537 4.2286 0.0000 -10844.2955 1407.9895 0.0000 0.0000 1812.3723 -7614.3957 306.7700 -9426.7680 -7612.1122 301.1924 -191.8979 -117.5498 30388.9856 -185.8918 -118.7466
ENERGY: 1200000 2.4754 6.1802 4.0316 0.0000 -11047.6213 1573.6340 0.0000 0.0000 1830.0391 -7631.2610 309.7604 -9461.3000 -7606.8537 301.4550 1054.7620 1155.8284 29987.2006 -24.8782 43.9333
ENERGY: 1500000 1.3446 3.6957 4.2980 0.0000 -10980.0082 1520.9505 0.0000 0.0000 1755.1233 -7694.5961 297.0798 -9449.7194 -7609.0654 301.2194 427.3342 441.3490 30780.1990 -95.0179 -31.4229
TCL: Running FEP window   6: Lambda1 0.7499999999999998 Lambda2 0.6999999999999997 [dLambda -0.050000000000000044]
TCL: Setting parameter firsttimestep to 0
TCL: Setting parameter alchLambda to 0.7499999999999998
Info: NONBONDED TABLE R-SQUARED SPACING: 0.0625
Info: NONBONDED TABLE SIZE: 705 POINTS
TCL: Setting parameter alchLambda2 to 0.6999999999999997
Info: NONBONDED TABLE R-SQUARED SPACING: 0.0625
Info: NONBONDED TABLE SIZE: 705 POINTS
TCL: Running for 1500000 steps
ETITLE: TS BOND ANGLE DIHED IMPRP ELECT VDW BOUNDARY MISC KINETIC TOTAL TEMP POTENTIAL TOTALAVG TEMPAVG PRESSURE GPRESSURE VOLUME PRESSAVG GPRESSAVG
ENERGY: 0 1.3446 3.6957 4.2980 0.0000 -10977.8306 1521.0710 0.0000 0.0000 1754.2459 -7693.1755 296.9313 -9447.4213 -7693.1755 296.9313 359.3111 438.7027 30780.1990 359.3111 438.7027
ENERGY: 300000 0.3429 3.7849 4.4541 0.0000 -10832.8701 1410.3677 0.0000 0.0000 1741.5159 -7672.4045 294.7765 -9413.9204 -7643.1842 300.5177 -547.2102 -414.7226 30756.4518 -92.6892 -4.0562
ENERGY: 600000 2.8263 4.1395 3.4978 0.0000 -10793.3707 1383.3174 0.0000 0.0000 1745.2799 -7654.3099 295.4137 -9399.5898 -7639.2902 300.8544 -860.0932 -794.1094 31286.7500 14.7982 102.4845
ENERGY: 900000 3.5318 6.6990 4.9017 0.0000 -10848.5972 1465.9184 0.0000 0.0000 1798.7542 -7568.7921 304.4649 -9367.5464 -7618.5422 301.1745 150.6356 162.5275 30643.0593 -12.5856 56.0237
ENERGY: 1200000 0.7222 8.0114 4.6100 0.0000 -10934.4212 1484.1293 0.0000 0.0000 1806.0435 -7630.9049 305.6988 -9436.9484 -7615.9928 301.1199 6.1633 88.7330 30920.8505 -13.1483 53.1985
ENERGY: 1500000 2.2657 4.7095 6.3302 0.0000 -10846.1315 1482.3333 0.0000 0.0000 1853.5954 -7496.8974 313.7476 -9350.4928 -7613.8697 301.7969 364.3457 355.8731 30775.0644 65.4887 128.1590
TCL: Running FEP window   7: Lambda1 0.6999999999999997 Lambda2 0.6499999999999997 [dLambda -0.050000000000000044]
TCL: Setting parameter firsttimestep to 0
TCL: Setting parameter alchLambda to 0.6999999999999997
Info: NONBONDED TABLE R-SQUARED SPACING: 0.0625
Info: NONBONDED TABLE SIZE: 705 POINTS
TCL: Setting parameter alchLambda2 to 0.6499999999999997
Info: NONBONDED TABLE R-SQUARED SPACING: 0.0625
Info: NONBONDED TABLE SIZE: 705 POINTS
TCL: Running for 1500000 steps
ETITLE: TS BOND ANGLE DIHED IMPRP ELECT VDW BOUNDARY MISC KINETIC TOTAL TEMP POTENTIAL TOTALAVG TEMPAVG PRESSURE GPRESSURE VOLUME PRESSAVG GPRESSAVG
ENERGY: 0 2.2657 4.7095 6.3302 0.0000 -10843.4313 1481.1130 0.0000 0.0000 1852.7169 -7496.2959 313.5989 -9349.0128 -7496.2959 313.5989 241.5806 339.4621 30775.0644 241.5806 339.4621
ENERGY: 300000 2.9364 5.4107 4.3163 0.0000 -10730.3093 1368.3520 0.0000 0.0000 1752.5902 -7596.7036 296.6510 -9349.2938 -7602.0998 301.9201 -560.8409 -496.3425 30911.5508 46.0715 125.9036
ENERGY: 600000 2.0722 3.5556 4.1853 0.0000 -11102.2832 1575.8690 0.0000 0.0000 1807.7600 -7708.8412 305.9893 -9516.6012 -7625.3600 301.6172 841.8718 917.0972 29986.8102 204.0769 283.4037
ENERGY: 900000 0.9312 6.0717 3.8893 0.0000 -10756.1161 1406.1433 0.0000 0.0000 1786.2411 -7552.8396 302.3469 -9339.0807 -7609.5680 302.3958 -325.6437 -288.3455 31008.5813 85.7369 156.9413
ENERGY: 1200000 1.4062 3.3009 4.5938 0.0000 -10891.5673 1480.2453 0.0000 0.0000 1850.9494 -7551.0717 313.2997 -9402.0212 -7612.6310 301.8712 357.1406 477.1709 30191.9464 75.5302 150.4829
ENERGY: 1500000 0.7402 6.3338 3.4233 0.0000 -11013.6659 1520.0000 0.0000 0.0000 1712.7622 -7770.4063 289.9096 -9483.1685 -7621.9538 301.2461 456.1398 559.9671 30207.7376 47.8438 123.8896
TCL: Running FEP window   8: Lambda1 0.6499999999999997 Lambda2 0.5999999999999996 [dLambda -0.050000000000000044]
TCL: Setting parameter firsttimestep to 0
TCL: Setting parameter alchLambda to 0.6499999999999997
Info: NONBONDED TABLE R-SQUARED SPACING: 0.0625
Info: NONBONDED TABLE SIZE: 705 POINTS
TCL: Setting parameter alchLambda2 to 0.5999999999999996
Info: NONBONDED TABLE R-SQUARED SPACING: 0.0625
Info: NONBONDED TABLE SIZE: 705 POINTS
TCL: Running for 1500000 steps
ETITLE: TS BOND ANGLE DIHED IMPRP ELECT VDW BOUNDARY MISC KINETIC TOTAL TEMP POTENTIAL TOTALAVG TEMPAVG PRESSURE GPRESSURE VOLUME PRESSAVG GPRESSAVG
ENERGY: 0 0.7402 6.3338 3.4233 0.0000 -11012.5089 1519.4935 0.0000 0.0000 1711.8677 -7770.6504 289.7582 -9482.5181 -7770.6504 289.7582 456.4827 546.2110 30207.7376 456.4827 546.2110
ENERGY: 300000 1.9590 5.7382 4.6627 0.0000 -10793.4774 1423.9469 0.0000 0.0000 1821.7828 -7535.3879 308.3629 -9357.1707 -7656.5619 298.0270 -207.1927 -157.4499 30683.4885 396.5120 454.1326
ENERGY: 600000 0.9116 4.5975 4.7168 0.0000 -10877.6310 1463.9715 0.0000 0.0000 1782.2805 -7621.1531 301.6765 -9403.4336 -7634.6939 298.2865 243.7401 232.3880 30293.3407 70.8753 107.7158
ENERGY: 900000 0.7027 4.4190 4.5243 0.0000 -10791.1810 1428.5972 0.0000 0.0000 1744.8055 -7608.1324 295.3333 -9352.9378 -7641.3988 297.5619 -220.1047 -195.0261 30826.4387 -47.2501 -10.6947
ENERGY: 1200000 0.6762 5.7874 3.8520 0.0000 -10807.9659 1451.3054 0.0000 0.0000 1789.9715 -7556.3735 302.9783 -9346.3450 -7625.9795 298.9975 194.3579 248.8458 30409.4956 -97.5844 -54.3763
ENERGY: 1500000 2.2907 5.1072 4.3415 0.0000 -10918.2753 1503.9527 0.0000 0.0000 1774.6077 -7627.9756 300.3778 -9402.5833 -7627.0064 299.3379 314.1647 404.9617 30751.1003 -75.0842 -27.4546
TCL: Running FEP window   9: Lambda1 0.5999999999999996 Lambda2 0.5499999999999996 [dLambda -0.050000000000000044]
TCL: Setting parameter firsttimestep to 0
TCL: Setting parameter alchLambda to 0.5999999999999996
Info: NONBONDED TABLE R-SQUARED SPACING: 0.0625
Info: NONBONDED TABLE SIZE: 705 POINTS
TCL: Setting parameter alchLambda2 to 0.5499999999999996
Info: NONBONDED TABLE R-SQUARED SPACING: 0.0625
Info: NONBONDED TABLE SIZE: 705 POINTS
TCL: Running for 1500000 steps
ETITLE: TS BOND ANGLE DIHED IMPRP ELECT VDW BOUNDARY MISC KINETIC TOTAL TEMP POTENTIAL TOTALAVG TEMPAVG PRESSURE GPRESSURE VOLUME PRESSAVG GPRESSAVG
ENERGY: 0 2.2906 5.1072 4.3415 0.0000 -10917.7210 1504.0534 0.0000 0.0000 1773.7582 -7628.1702 300.2340 -9401.9284 -7628.1702 300.2340 306.0441 400.8938 30751.1003 306.0441 400.8938
ENERGY: 300000 3.6798 6.1102 4.9953 0.0000 -10970.2893 1524.6937 0.0000 0.0000 1760.6916 -7670.1187 298.0223 -9430.8103 -7632.9843 297.8116 613.9895 708.7302 30276.3629 -45.6569 23.9070
ENERGY: 600000 1.4255 5.1479 4.2939 0.0000 -10826.2297 1450.5793 0.0000 0.0000 1748.1118 -7616.6713 295.8930 -9364.7832 -7641.0402 297.5569 80.7387 127.2158 30476.7819 -57.0809 -1.5186
ENERGY: 900000 1.8379 7.1488 4.3498 0.0000 -10862.3970 1404.6074 0.0000 0.0000 1761.0320 -7683.4211 298.0799 -9444.4531 -7649.3540 297.0456 -491.4603 -475.6732 30289.0813 -20.1435 39.4914
ENERGY: 1200000 2.7560 8.3300 3.3029 0.0000 -10732.5240 1417.2047 0.0000 0.0000 1761.9424 -7538.9881 298.2340 -9300.9305 -7634.5645 297.3695 -58.4052 -31.1874 30281.6279 -21.4363 34.1163
ENERGY: 1500000 1.6011 2.9081 4.4541 0.0000 -10761.2118 1415.3149 0.0000 0.0000 1771.4415 -7565.4920 299.8419 -9336.9335 -7623.9888 298.0436 158.6643 205.9041 30247.1215 -28.5086 25.1304
TCL: Running FEP window  10: Lambda1 0.5499999999999996 Lambda2 0.4999999999999996 [dLambda -0.04999999999999999]
TCL: Setting parameter firsttimestep to 0
TCL: Setting parameter alchLambda to 0.5499999999999996
Info: NONBONDED TABLE R-SQUARED SPACING: 0.0625
Info: NONBONDED TABLE SIZE: 705 POINTS
TCL: Setting parameter alchLambda2 to 0.4999999999999996
Info: NONBONDED TABLE R-SQUARED SPACING: 0.0625
Info: NONBONDED TABLE SIZE: 705 POINTS
TCL: Running for 1500000 steps
ETITLE: TS BOND ANGLE DIHED IMPRP ELECT VDW BOUNDARY MISC KINETIC TOTAL TEMP POTENTIAL TOTALAVG TEMPAVG PRESSURE GPRESSURE VOLUME PRESSAVG GPRESSAVG
ENERGY: 0 1.6011 2.9081 4.4541 0.0000 -10760.9993 1415.1910 0.0000 0.0000 1770.5293 -7566.3157 299.6875 -9336.8450 -7566.3157 299.6875 131.1959 196.8900 30247.1215 131.1959 196.8900
ENERGY: 300000 1.2383 4.0687 3.8654 0.0000 -10888.5483 1503.9188 0.0000 0.0000 1805.2001 -7570.2570 305.5560 -9375.4571 -7574.4835 302.3960 470.0559 583.2459 30302.8482 247.9288 350.5782
ENERGY: 600000 2.0046 9.2000 6.8737 0.0000 -10800.5478 1452.2897 0.0000 0.0000 1794.7293 -7535.4505 303.7837 -9330.1798 -7583.5551 302.1371 226.4250 258.5601 30476.0484 180.8060 251.6070
ENERGY: 900000 1.3726 8.5222 4.3086 0.0000 -10864.2439 1460.4059 0.0000 0.0000 1776.9883 -7612.6463 300.7808 -9389.6346 -7575.7376 302.8373 363.1050 424.3394 30092.7156 84.9790 154.7804
ENERGY: 1200000 1.8690 5.8017 4.3737 0.0000 -10830.1152 1386.1340 0.0000 0.0000 1747.1900 -7684.7470 295.7370 -9431.9369 -7589.8331 301.3494 -673.0597 -554.5306 30684.5509 23.6392 95.1891
ENERGY: 1500000 0.8756 4.3537 4.6224 0.0000 -10805.5374 1485.1320 0.0000 0.0000 1790.3925 -7520.1613 303.0496 -9310.5538 -7587.0919 301.2923 142.0530 253.8197 31006.1531 -16.6915 58.4708
TCL: Running FEP window  11: Lambda1 0.4999999999999996 Lambda2 0.4499999999999996 [dLambda -0.04999999999999999]
TCL: Setting parameter firsttimestep to 0
TCL: Setting parameter alchLambda to 0.4999999999999996
Info: NONBONDED TABLE R-SQUARED SPACING: 0.0625
Info: NONBONDED TABLE SIZE: 705 POINTS
TCL: Setting parameter alchLambda2 to 0.4499999999999996
Info: NONBONDED TABLE R-SQUARED SPACING: 0.0625
Info: NONBONDED TABLE SIZE: 705 POINTS
TCL: Running for 1500000 steps
ETITLE: TS BOND ANGLE DIHED IMPRP ELECT VDW BOUNDARY MISC KINETIC TOTAL TEMP POTENTIAL TOTALAVG TEMPAVG PRESSURE GPRESSURE VOLUME PRESSAVG GPRESSAVG
ENERGY: 0 0.8756 4.3537 4.6224 0.0000 -10804.8036 1485.4635 0.0000 0.0000 1789.4564 -7520.0321 302.8912 -9309.4884 -7520.0321 302.8912 159.9207 254.4895 31006.1531 159.9207 254.4895
ENERGY: 300000 1.7323 3.8133 3.1749 0.0000 -10951.8009 1492.3699 0.0000 0.0000 1770.1672 -7680.5433 299.6262 -9450.7106 -7638.9786 301.0809 492.8516 516.6125 29860.3689 -30.1281 10.0794
ENERGY: 600000 1.3243 5.3269 3.4616 0.0000 -10748.8189 1345.4329 0.0000 0.0000 1796.9692 -7596.3040 304.1628 -9393.2733 -7651.0539 300.4676 -820.9786 -685.4108 30608.5103 -106.8769 -49.2081
ENERGY: 900000 1.6498 4.1953 3.9056 0.0000 -10906.8002 1383.1202 0.0000 0.0000 1710.6055 -7803.3238 289.5445 -9513.9293 -7650.2026 299.1976 -775.4417 -711.9393 30291.4595 -83.6649 -31.3734
ENERGY: 1200000 3.6713 4.4808 5.0396 0.0000 -10945.0433 1503.4025 0.0000 0.0000 1790.7618 -7637.6873 303.1121 -9428.4491 -7641.0559 300.9372 123.0167 146.6339 30787.9447 -31.2046 15.8029
ENERGY: 1500000 0.8904 8.7815 3.2954 0.0000 -10964.9413 1598.4867 0.0000 0.0000 1814.8273 -7538.6600 307.1855 -9353.4873 -7636.5646 300.7146 1364.9429 1408.1889 30217.7515 93.7303 148.0742
TCL: Running FEP window  12: Lambda1 0.4499999999999996 Lambda2 0.39999999999999963 [dLambda -0.04999999999999999]
TCL: Setting parameter firsttimestep to 0
TCL: Setting parameter alchLambda to 0.4499999999999996
Info: NONBONDED TABLE R-SQUARED SPACING: 0.0625
Info: NONBONDED TABLE SIZE: 705 POINTS
TCL: Setting parameter alchLambda2 to 0.39999999999999963
Info: NONBONDED TABLE R-SQUARED SPACING: 0.0625
Info: NONBONDED TABLE SIZE: 705 POINTS
TCL: Running for 1500000 steps
ETITLE: TS BOND ANGLE DIHED IMPRP ELECT VDW BOUNDARY MISC KINETIC TOTAL TEMP POTENTIAL TOTALAVG TEMPAVG PRESSURE GPRESSURE VOLUME PRESSAVG GPRESSAVG
ENERGY: 0 0.8904 8.7815 3.2954 0.0000 -10964.9422 1598.6579 0.0000 0.0000 1813.9159 -7539.4011 307.0313 -9353.3170 -7539.4011 307.0313 1332.3748 1408.3089 30217.7515 1332.3748 1408.3089
ENERGY: 300000 2.0981 3.6930 4.4319 0.0000 -10993.4670 1503.0059 0.0000 0.0000 1756.6998 -7723.5383 297.3466 -9480.2382 -7622.1718 303.3817 586.1312 636.6904 30048.7711 344.2286 392.5759
ENERGY: 600000 0.6290 6.7204 3.8980 0.0000 -10823.1764 1424.0429 0.0000 0.0000 1795.8523 -7592.0338 303.9738 -9387.8861 -7610.9227 302.6536 -96.5165 -37.5722 30410.6446 82.8141 134.5953
ENERGY: 900000 1.2851 5.3375 3.2383 0.0000 -10911.9372 1476.9306 0.0000 0.0000 1783.2288 -7641.9170 301.8371 -9425.1458 -7615.5255 303.2315 -31.0127 22.7882 30676.8594 77.0875 125.0341
ENERGY: 1200000 0.6431 2.5142 4.6951 0.0000 -10931.6916 1492.9655 0.0000 0.0000 1825.6989 -7605.1749 309.0257 -9430.8738 -7607.0227 304.3575 219.6773 216.2815 30446.0183 -24.9375 15.3335
ENERGY: 1500000 0.3010 4.4896 4.2784 0.0000 -10806.3206 1408.2807 0.0000 0.0000 1799.4162 -7589.5547 304.5770 -9388.9708 -7606.8366 303.9237 -343.4236 -222.5756 30451.8073 11.3345 61.7707
TCL: Running FEP window  13: Lambda1 0.39999999999999963 Lambda2 0.34999999999999964 [dLambda -0.04999999999999999]
TCL: Setting parameter firsttimestep to 0
TCL: Setting parameter alchLambda to 0.39999999999999963
Info: NONBONDED TABLE R-SQUARED SPACING: 0.0625
Info: NONBONDED TABLE SIZE: 705 POINTS
TCL: Setting parameter alchLambda2 to 0.34999999999999964
Info: NONBONDED TABLE R-SQUARED SPACING: 0.0625
Info: NONBONDED TABLE SIZE: 705 POINTS
TCL: Running for 1500000 steps
ETITLE: TS BOND ANGLE DIHED IMPRP ELECT VDW BOUNDARY MISC KINETIC TOTAL TEMP POTENTIAL TOTALAVG TEMPAVG PRESSURE GPRESSURE VOLUME PRESSAVG GPRESSAVG
ENERGY: 0 0.3010 4.4896 4.2784 0.0000 -10806.3198 1408.7025 0.0000 0.0000 1798.5293 -7590.0190 304.4269 -9388.5482 -7590.0190 304.4269 -309.2380 -223.8681 30451.8073 -309.2380 -223.8681
ENERGY: 300000 2.2002 5.6078 4.2538 0.0000 -10937.8857 1536.3369 0.0000 0.0000 1799.9729 -7589.5140 304.6712 -9389.4869 -7607.6477 301.0328 463.9363 550.0993 30708.0098 50.3282 150.6086
ENERGY: 600000 0.6280 4.2523 6.1477 0.0000 -10936.6930 1455.7295 0.0000 0.0000 1771.2702 -7698.6653 299.8129 -9469.9355 -7630.7803 301.0289 -0.5055 30.7083 30036.6354 -74.6027 15.3897
ENERGY: 900000 3.1169 6.9427 4.2578 0.0000 -10824.8404 1421.0424 0.0000 0.0000 1805.3266 -7584.1540 305.5774 -9389.4806 -7622.8159 300.9695 -493.5909 -378.5518 31083.5572 -162.9676 -76.5090
ENERGY: 1200000 0.3545 4.4820 4.3910 0.0000 -10694.0981 1336.0474 0.0000 0.0000 1758.8484 -7589.9748 297.7103 -9348.8232 -7627.6499 300.5911 -1044.0429 -938.6739 31108.2639 -183.9594 -101.4479
ENERGY: 1500000 3.7834 7.1627 4.5873 0.0000 -10809.7299 1421.1918 0.0000 0.0000 1769.4797 -7603.5250 299.5098 -9373.0047 -7616.7170 300.8378 30.1204 83.4895 30413.8267 -109.8968 -37.2577
TCL: Running FEP window  14: Lambda1 0.34999999999999964 Lambda2 0.29999999999999966 [dLambda -0.04999999999999999]
TCL: Setting parameter firsttimestep to 0
TCL: Setting parameter alchLambda to 0.34999999999999964
Info: NONBONDED TABLE R-SQUARED SPACING: 0.0625
Info: NONBONDED TABLE SIZE: 705 POINTS
TCL: Setting parameter alchLambda2 to 0.29999999999999966
Info: NONBONDED TABLE R-SQUARED SPACING: 0.0625
Info: NONBONDED TABLE SIZE: 705 POINTS
TCL: Running for 1500000 steps
ETITLE: TS BOND ANGLE DIHED IMPRP ELECT VDW BOUNDARY MISC KINETIC TOTAL TEMP POTENTIAL TOTALAVG TEMPAVG PRESSURE GPRESSURE VOLUME PRESSAVG GPRESSAVG
ENERGY: 0 3.7834 7.1627 4.5873 0.0000 -10809.7303 1421.1184 0.0000 0.0000 1768.6290 -7604.4497 299.3658 -9373.0786 -7604.4497 299.3658 -2.4056 76.8828 30413.8267 -2.4056 76.8828
ENERGY: 300000 3.8236 6.5327 4.0854 0.0000 -10795.2916 1398.8029 0.0000 0.0000 1828.5923 -7553.4548 309.5155 -9382.0471 -7583.9047 305.3012 -572.4051 -497.7248 30721.3276 -280.4040 -254.2972
ENERGY: 600000 3.0952 4.7572 4.2126 0.0000 -10965.3228 1561.4641 0.0000 0.0000 1814.7884 -7577.0053 307.1790 -9391.7937 -7615.9379 304.1510 641.8227 766.5417 30923.5391 -119.0478 -60.3614
ENERGY: 900000 4.1764 4.7585 4.2262 0.0000 -10862.9187 1481.0460 0.0000 0.0000 1767.7210 -7600.9908 299.2121 -9368.7117 -7617.9343 302.4278 283.2339 412.5181 30462.1508 -153.0382 -83.5256
ENERGY: 1200000 2.5062 3.4080 4.3571 0.0000 -10799.4478 1381.3370 0.0000 0.0000 1768.7653 -7639.0741 299.3889 -9407.8394 -7621.3430 302.0293 -667.6292 -557.7025 30591.5470 -236.8812 -169.0471
ENERGY: 1500000 3.0587 7.2985 5.1406 0.0000 -10906.8403 1492.3381 0.0000 0.0000 1734.1335 -7664.8710 293.5270 -9399.0045 -7628.2588 301.8417 97.7641 165.6396 30681.9722 -217.0796 -152.1812
TCL: Running FEP window  15: Lambda1 0.29999999999999966 Lambda2 0.24999999999999967 [dLambda -0.04999999999999999]
TCL: Setting parameter firsttimestep to 0
TCL: Setting parameter alchLambda to 0.29999999999999966
Info: NONBONDED TABLE R-SQUARED SPACING: 0.0625
Info: NONBONDED TABLE SIZE: 705 POINTS
TCL: Setting parameter alchLambda2 to 0.24999999999999967
Info: NONBONDED TABLE R-SQUARED SPACING: 0.0625
Info: NONBONDED TABLE SIZE: 705 POINTS
TCL: Running for 1500000 steps
ETITLE: TS BOND ANGLE DIHED IMPRP ELECT VDW BOUNDARY MISC KINETIC TOTAL TEMP POTENTIAL TOTALAVG TEMPAVG PRESSURE GPRESSURE VOLUME PRESSAVG GPRESSAVG
ENERGY: 0 3.0587 7.2985 5.1406 0.0000 -10906.8410 1492.3393 0.0000 0.0000 1733.2598 -7665.7442 293.3791 -9399.0040 -7665.7442 293.3791 89.1313 162.5575 30681.9722 89.1313 162.5575
ENERGY: 300000 1.5289 4.8659 4.4696 0.0000 -10748.6636 1405.6524 0.0000 0.0000 1829.2584 -7502.8884 309.6282 -9332.1469 -7599.9091 301.9334 -196.1488 -71.8980 30542.0072 -131.1766 -26.1822
ENERGY: 600000 1.2246 4.6614 4.1645 0.0000 -10751.9537 1421.0037 0.0000 0.0000 1788.8509 -7532.0487 302.7887 -9320.8995 -7588.1125 301.7417 -381.0263 -307.2873 31123.4867 -130.4188 -34.8685
ENERGY: 900000 3.5822 3.7814 4.5485 0.0000 -10769.7273 1379.4061 0.0000 0.0000 1808.9236 -7569.4856 306.1863 -9378.4092 -7588.6484 302.7139 -596.6697 -484.2655 30599.5495 -309.8195 -214.7507
ENERGY: 1200000 5.6654 8.7544 5.0262 0.0000 -10881.4099 1417.2119 0.0000 0.0000 1815.2671 -7629.4848 307.2600 -9444.7520 -7601.1772 302.4764 -525.3790 -475.1413 30812.1009 -154.0477 -69.6555
ENERGY: 1500000 1.6242 7.0938 4.3553 0.0000 -10771.5025 1417.7016 0.0000 0.0000 1770.5262 -7570.2014 299.6869 -9340.7275 -7611.5018 301.5258 -106.3813 12.7025 30518.4567 -156.0935 -72.0606
TCL: Running FEP window  16: Lambda1 0.24999999999999967 Lambda2 0.19999999999999968 [dLambda -0.04999999999999999]
TCL: Setting parameter firsttimestep to 0
TCL: Setting parameter alchLambda to 0.24999999999999967
Info: NONBONDED TABLE R-SQUARED SPACING: 0.0625
Info: NONBONDED TABLE SIZE: 705 POINTS
TCL: Setting parameter alchLambda2 to 0.19999999999999968
Info: NONBONDED TABLE R-SQUARED SPACING: 0.0625
Info: NONBONDED TABLE SIZE: 705 POINTS
TCL: Running for 1500000 steps
ETITLE: TS BOND ANGLE DIHED IMPRP ELECT VDW BOUNDARY MISC KINETIC TOTAL TEMP POTENTIAL TOTALAVG TEMPAVG PRESSURE GPRESSURE VOLUME PRESSAVG GPRESSAVG
ENERGY: 0 1.6242 7.0938 4.3553 0.0000 -10771.5020 1417.6226 0.0000 0.0000 1769.6464 -7571.1596 299.5380 -9340.8060 -7571.1596 299.5380 -79.7819 11.5930 30518.4567 -79.7819 11.5930
ENERGY: 300000 3.1120 6.1589 4.5892 0.0000 -10754.5210 1387.6852 0.0000 0.0000 1770.1293 -7582.8464 299.6198 -9352.9757 -7583.2927 302.9320 -492.7322 -471.0840 30715.8997 -268.7962 -209.8778
ENERGY: 600000 0.4456 6.1829 5.1036 0.0000 -10946.6610 1526.9639 0.0000 0.0000 1758.2808 -7649.6843 297.6142 -9407.9651 -7616.8634 300.0581 621.3420 629.1742 30344.3450 -122.6680 -77.2059
ENERGY: 900000 4.1671 5.7118 4.5571 0.0000 -10702.1124 1403.4716 0.0000 0.0000 1773.3535 -7510.8513 300.1655 -9284.2048 -7618.1210 299.2039 -50.7811 39.9348 30547.4838 -33.6131 14.6871
ENERGY: 1200000 2.9618 8.8733 4.0899 0.0000 -10807.1211 1393.3883 0.0000 0.0000 1762.7847 -7635.0230 298.3766 -9397.8077 -7622.4205 298.3601 -519.3199 -475.2798 30765.4863 -120.2118 -67.4888
ENERGY: 1500000 1.1574 6.0802 4.5410 0.0000 -10941.4820 1578.5861 0.0000 0.0000 1685.2895 -7665.8278 285.2594 -9351.1173 -7629.6929 297.4289 879.7075 962.0543 30683.3958 -66.0430 -10.8012
TCL: Running FEP window  17: Lambda1 0.19999999999999968 Lambda2 0.1499999999999997 [dLambda -0.04999999999999999]
TCL: Setting parameter firsttimestep to 0
TCL: Setting parameter alchLambda to 0.19999999999999968
Info: NONBONDED TABLE R-SQUARED SPACING: 0.0625
Info: NONBONDED TABLE SIZE: 705 POINTS
TCL: Setting parameter alchLambda2 to 0.1499999999999997
Info: NONBONDED TABLE R-SQUARED SPACING: 0.0625
Info: NONBONDED TABLE SIZE: 705 POINTS
TCL: Running for 1500000 steps
ETITLE: TS BOND ANGLE DIHED IMPRP ELECT VDW BOUNDARY MISC KINETIC TOTAL TEMP POTENTIAL TOTALAVG TEMPAVG PRESSURE GPRESSURE VOLUME PRESSAVG GPRESSAVG
ENERGY: 0 1.1574 6.0802 4.5410 0.0000 -10941.4811 1578.9625 0.0000 0.0000 1684.4265 -7666.3135 285.1133 -9350.7400 -7666.3135 285.1133 859.4362 960.9987 30683.3958 859.4362 960.9987
ENERGY: 300000 0.4940 6.2300 5.1370 0.0000 -10774.2568 1435.6665 0.0000 0.0000 1824.1217 -7502.6077 308.7588 -9326.7294 -7646.3718 295.6052 -235.4066 -191.7009 30871.5120 -209.9557 -159.6412
ENERGY: 600000 2.2548 3.3581 4.3845 0.0000 -10752.1593 1417.9384 0.0000 0.0000 1752.3189 -7571.9047 296.6051 -9324.2236 -7640.6084 295.4495 -170.2982 -100.5396 30773.6684 -116.2927 -54.2625
ENERGY: 900000 0.9459 3.2347 4.4775 0.0000 -10842.4309 1407.2150 0.0000 0.0000 1835.4723 -7591.0855 310.6800 -9426.5578 -7631.2046 297.1105 -319.1387 -231.1831 30196.0251 -65.8530 7.1065
ENERGY: 1200000 1.0504 8.8350 4.6978 0.0000 -10906.6220 1469.5323 0.0000 0.0000 1762.6804 -7659.8263 298.3589 -9422.5066 -7648.4015 297.6407 83.4299 198.3156 30474.3495 40.9911 115.3634
ENERGY: 1500000 1.2215 8.2079 4.1214 0.0000 -10946.4799 1495.4015 0.0000 0.0000 1819.7136 -7617.8140 308.0126 -9437.5277 -7637.8845 298.8681 161.1816 211.8193 30798.9611 51.0229 121.1559
TCL: Running FEP window  18: Lambda1 0.1499999999999997 Lambda2 0.09999999999999969 [dLambda -0.05 ]
TCL: Setting parameter firsttimestep to 0
TCL: Setting parameter alchLambda to 0.1499999999999997
Info: NONBONDED TABLE R-SQUARED SPACING: 0.0625
Info: NONBONDED TABLE SIZE: 705 POINTS
TCL: Setting parameter alchLambda2 to 0.09999999999999969
Info: NONBONDED TABLE R-SQUARED SPACING: 0.0625
Info: NONBONDED TABLE SIZE: 705 POINTS
TCL: Running for 1500000 steps
ETITLE: TS BOND ANGLE DIHED IMPRP ELECT VDW BOUNDARY MISC KINETIC TOTAL TEMP POTENTIAL TOTALAVG TEMPAVG PRESSURE GPRESSURE VOLUME PRESSAVG GPRESSAVG
ENERGY: 0 1.2215 8.2079 4.1214 0.0000 -10946.4803 1495.5926 0.0000 0.0000 1818.8496 -7618.4875 307.8664 -9437.3371 -7618.4875 307.8664 119.0754 209.1431 30798.9611 119.0754 209.1431
ENERGY: 300000 2.9865 4.7809 4.3348 0.0000 -10788.7703 1467.5024 0.0000 0.0000 1772.6851 -7536.4806 300.0524 -9309.1657 -7589.1961 302.9829 424.7144 469.9547 30561.6177 415.0049 468.2044
ENERGY: 600000 0.9562 4.4526 5.0725 0.0000 -10768.9263 1359.3492 0.0000 0.0000 1782.3223 -7616.7734 301.6836 -9399.0958 -7597.4224 302.3040 -700.0637 -630.7674 30431.8161 128.0837 204.5923
ENERGY: 900000 0.8243 9.5438 4.4244 0.0000 -10765.9592 1426.0342 0.0000 0.0000 1767.5985 -7557.5340 299.1914 -9325.1325 -7594.0361 301.6097 -173.9405 -98.5271 30690.4445 128.1596 203.1119
ENERGY: 1200000 2.3119 1.4462 3.3192 0.0000 -10836.5770 1396.3615 0.0000 0.0000 1783.9572 -7649.1812 301.9603 -9433.1383 -7603.3281 301.1174 -253.3518 -211.7750 30088.3391 59.9256 125.4427
ENERGY: 1500000 2.1537 6.6026 4.5960 0.0000 -11056.6146 1555.8954 0.0000 0.0000 1773.2077 -7714.1592 300.1408 -9487.3670 -7605.7274 301.7586 610.0671 651.3533 30142.3603 75.7810 142.4113
TCL: Running FEP window  19: Lambda1 0.09999999999999969 Lambda2 0.049999999999999684 [dLambda -0.05 ]
TCL: Setting parameter firsttimestep to 0
TCL: Setting parameter alchLambda to 0.09999999999999969
Info: NONBONDED TABLE R-SQUARED SPACING: 0.0625
Info: NONBONDED TABLE SIZE: 705 POINTS
TCL: Setting parameter alchLambda2 to 0.049999999999999684
Info: NONBONDED TABLE R-SQUARED SPACING: 0.0625
Info: NONBONDED TABLE SIZE: 705 POINTS
TCL: Running for 1500000 steps
ETITLE: TS BOND ANGLE DIHED IMPRP ELECT VDW BOUNDARY MISC KINETIC TOTAL TEMP POTENTIAL TOTALAVG TEMPAVG PRESSURE GPRESSURE VOLUME PRESSAVG GPRESSAVG
ENERGY: 0 2.1537 6.6026 4.5960 0.0000 -11056.6136 1555.7388 0.0000 0.0000 1772.3290 -7715.1935 299.9921 -9487.5225 -7715.1935 299.9921 572.6127 648.4129 30142.3603 572.6127 648.4129
ENERGY: 300000 0.9030 3.5016 5.0251 0.0000 -10708.1964 1302.8729 0.0000 0.0000 1746.7283 -7649.1654 295.6588 -9395.8937 -7636.3391 301.3761 -1032.6361 -1026.9750 30345.6923 10.7370 88.9058
ENERGY: 600000 0.6417 7.4620 3.0132 0.0000 -10847.9030 1416.6062 0.0000 0.0000 1790.9131 -7629.2669 303.1377 -9420.1800 -7655.9891 299.4853 -427.8986 -400.2450 30663.2156 16.6768 79.5886
ENERGY: 900000 1.1406 4.6632 4.2847 0.0000 -10857.3072 1419.3218 0.0000 0.0000 1790.3027 -7637.5942 303.0344 -9427.8968 -7647.2865 299.8232 -460.2752 -412.6372 30679.6516 -52.1622 12.4102
ENERGY: 1200000 1.7722 6.3677 4.1811 0.0000 -10805.6935 1435.3442 0.0000 0.0000 1779.4647 -7578.5637 301.1999 -9358.0284 -7634.5375 300.4570 -83.1917 -42.3581 30645.4080 -20.1530 42.1971
ENERGY: 1500000 0.8060 7.1405 4.5238 0.0000 -10852.0061 1510.1835 0.0000 0.0000 1770.0602 -7559.2921 299.6081 -9329.3522 -7629.4543 299.6610 436.1060 538.5183 30636.5120 -48.8902 15.4164
TCL: Running FEP window  20: Lambda1 0.049999999999999684 Lambda2 0.0    [dLambda -0.049999999999999684]
TCL: Setting parameter firsttimestep to 0
TCL: Setting parameter alchLambda to 0.049999999999999684
Info: NONBONDED TABLE R-SQUARED SPACING: 0.0625
Info: NONBONDED TABLE SIZE: 705 POINTS
TCL: Setting parameter alchLambda2 to 0.0
Info: NONBONDED TABLE R-SQUARED SPACING: 0.0625
Info: NONBONDED TABLE SIZE: 705 POINTS
TCL: Running for 1500000 steps
ETITLE: TS BOND ANGLE DIHED IMPRP ELECT VDW BOUNDARY MISC KINETIC TOTAL TEMP POTENTIAL TOTALAVG TEMPAVG PRESSURE GPRESSURE VOLUME PRESSAVG GPRESSAVG
ENERGY: 0 0.8060 7.1405 4.5238 0.0000 -10852.0059 1510.3648 0.0000 0.0000 1769.1859 -7559.9848 299.4601 -9329.1707 -7559.9848 299.4601 446.8284 540.4103 30636.5120 446.8284 540.4103
ENERGY: 300000 0.7928 9.7798 4.9601 0.0000 -10948.2315 1504.2998 0.0000 0.0000 1747.0252 -7681.3738 295.7091 -9428.3990 -7575.7582 299.6627 154.6424 304.3123 30653.7357 -258.5994 -161.9612
ENERGY: 600000 2.6838 3.4621 5.0941 0.0000 -10914.2403 1576.7778 0.0000 0.0000 1771.0682 -7555.1543 299.7787 -9326.2225 -7586.3042 300.6890 1082.7063 1105.3266 30774.1928 -104.5992 -16.0055
ENERGY: 900000 2.2168 5.7921 4.5079 0.0000 -10884.7642 1415.6729 0.0000 0.0000 1792.2991 -7664.2754 303.3723 -9456.5745 -7601.5037 301.3835 -329.0526 -256.2118 30043.9631 -218.6530 -137.1597
ENERGY: 1200000 2.7397 5.7774 3.7997 0.0000 -10771.4518 1418.4893 0.0000 0.0000 1797.4360 -7543.2097 304.2418 -9340.6457 -7594.6509 301.2168 -123.0538 -84.4223 30457.4987 -224.4910 -147.8712
ENERGY: 1500000 1.0501 3.8120 3.4960 0.0000 -10851.2020 1483.6149 0.0000 0.0000 1817.1602 -7542.0689 307.5804 -9359.2291 -7598.9433 301.3960 496.3764 561.0788 30182.0867 -125.5766 -52.1081
TCL: Exiting due to exit command.
