Info: SIMULATION PARAMETERS:
Info: TIMESTEP               2
Info: NUMBER OF STEPS        0
Info: STEPS PER CYCLE        10
Info: PERIODIC CELL BASIS 1  32.1338 0 0
Info: PERIODIC CELL BASIS 2  0 29.9454 0
Info: PERIODIC CELL BASIS 3  0 0 31.7887
Info: PERIODIC CELL CENTER   0 0 0
Info: WRAPPING WATERS AROUND PERIODIC BOUNDARIES ON OUTPUT.
Info: WRAPPING ALL CLUSTERS AROUND PERIODIC BOUNDARIES ON OUTPUT.
Info: FIRST LDB TIMESTEP     50
Info: LAST LDB TIMESTEP     -1
Info: HOM BACKGROUND SCALING 1
Info: PME BACKGROUND SCALING 1
Info: MIN ATOMS PER PATCH    40
Info: EMPTY PATCH LOAD       40 ATOMS
Info: VELOCITY FILE          mobley_6353617_equil.vel
Info: CENTER OF MASS MOVING INITIALLY? NO
Info: DIELECTRIC             1
Info: EXCLUDE                SCALED ONE-FOUR
Info: 1-4 ELECTROSTATICS SCALED BY 0.833333
Info: MODIFIED 1-4 VDW PARAMETERS WILL BE USED
Info: DCD FILENAME           mobley_6353617_prod.dcd
Info: DCD FREQUENCY          100000
Info: DCD FIRST STEP         100000
Info: DCD FILE WILL CONTAIN UNIT CELL DATA
Info: XST FILENAME           mobley_6353617_prod.xst
Info: XST FREQUENCY          100000
Info: NO VELOCITY DCD OUTPUT
Info: NO FORCE DCD OUTPUT
Info: OUTPUT FILENAME        mobley_6353617_prod
Info: BINARY OUTPUT FILES WILL BE USED
Info: RESTART FILENAME       mobley_6353617_prod.restart
Info: RESTART FREQUENCY      100000
Info: BINARY RESTART FILES WILL BE USED
Info: CUTOFF                 9
Info: PAIRLIST DISTANCE      11
Info: PAIRLIST SHRINK RATE   0.01
Info: PAIRLIST GROW RATE     0.01
Info: PAIRLIST TRIGGER       0.3
Info: PAIRLISTS PER CYCLE    2
Info: PAIRLISTS ENABLED
Info: MARGIN                 2
Info: HYDROGEN GROUP CUTOFF  2.5
Info: PATCH DIMENSION        15.5
Info: ENERGY OUTPUT STEPS    100000
Info: ENERGY EVALUATION STEPS    100000
Info: OUTPUT ENERGY PRECISION 4
Info: CROSSTERM ENERGY INCLUDED IN DIHEDRAL
Info: TIMING OUTPUT STEPS    1000000
Info: PRESSURE OUTPUT STEPS  100000
Info: ALCHEMICAL FEP ON
Info: FEP CURRENT LAMBDA VALUE     1
Info: FEP COMPARISON LAMBDA VALUE  0.95
Info: FEP INTRA-ALCHEMICAL NON-BONDED INTERACTIONS WILL BE RETAINED
Info: FEP INTRA-ALCHEMICAL BONDED INTERACTIONS WILL BE RETAINED
Info: FEP VDW SHIFTING COEFFICIENT 5
Info: FEP ELEC. ACTIVE FOR ANNIHILATED PARTICLES BETWEEN LAMBDA = 0 AND LAMBDA = 0.5
Info: FEP ELEC. ACTIVE FOR EXNIHILATED PARTICLES BETWEEN LAMBDA = 0.5 AND LAMBDA = 1
Info: FEP VDW ACTIVE FOR ANNIHILATED PARTICLES BETWEEN LAMBDA = 0 AND LAMBDA = 1
Info: FEP VDW ACTIVE FOR EXNIHILATED PARTICLES BETWEEN LAMBDA = 0 AND LAMBDA = 1
Info: FEP BOND ACTIVE FOR ANNIHILATED PARTICLES BETWEEN LAMBDA = 1 AND LAMBDA = 1
Info: FEP BOND ACTIVE FOR EXNIHILATED PARTICLES BETWEEN LAMBDA = 0 AND LAMBDA = 0
Info: LANGEVIN DYNAMICS ACTIVE
Info: LANGEVIN TEMPERATURE   300
Info: LANGEVIN USING BBK INTEGRATOR
Info: LANGEVIN DAMPING COEFFICIENT IS 1 INVERSE PS
Info: LANGEVIN DYNAMICS APPLIED TO HYDROGENS
Info: LANGEVIN PISTON PRESSURE CONTROL ACTIVE
Info:        TARGET PRESSURE IS 1.01325 BAR
Info:     OSCILLATION PERIOD IS 50 FS
Info:             DECAY TIME IS 25 FS
Info:     PISTON TEMPERATURE IS 300 K
Info:       PRESSURE CONTROL IS GROUP-BASED
Info:    INITIAL STRAIN RATE IS 4.0586e-05 4.0586e-05 4.0586e-05
Info:       CELL FLUCTUATION IS ISOTROPIC
Info: PARTICLE MESH EWALD (PME) ACTIVE
Info: PME TOLERANCE               1e-06
Info: PME EWALD COEFFICIENT       0.348832
Info: PME INTERPOLATION ORDER     4
Info: PME GRID DIMENSIONS         36 32 32
Info: PME MAXIMUM GRID SPACING    1
Info: PME CALCULATION WILL BE PERFORMED ON GPU
Info: FULL ELECTROSTATIC EVALUATION FREQUENCY      2
Info: USING VERLET I (r-RESPA) MTS SCHEME.
Info: C1 SPLITTING OF LONG RANGE ELECTROSTATICS
Info: PLACING ATOMS IN PATCHES BY HYDROGEN GROUPS
Info: RIGID BONDS TO HYDROGEN : ALL
Info:         ERROR TOLERANCE : 1e-08
Info:          MAX ITERATIONS : 100
Info: RIGID WATER USING SETTLE ALGORITHM
Info: RANDOM NUMBER SEED     1743758927
Info: USE HYDROGEN BONDS?    NO
Info: Using AMBER format force field!
Info: AMBER PARM FILE        mobley_6353617.prmtop
Info: COORDINATE PDB         mobley_6353617.pdb
Info: Exclusions will be read from PARM file!
Info: SCNB (VDW SCALING)     2
Info: USING ARITHMETIC MEAN TO COMBINE L-J SIGMA PARAMETERS
Info: BINARY COORDINATES     mobley_6353617_equil.coor
Info: SUMMARY OF PARAMETERS:
Info: 10 BONDS
Info: 12 ANGLES
Info:   12 HARMONIC
Info:   0 COSINE-BASED
Info: 9 DIHEDRAL
Info: 0 IMPROPER
Info: 0 CROSSTERM
Info: 0 VDW
Info: 45 VDW_PAIRS
Info: 0 NBTHOLE_PAIRS
Info: To read alchdata from file: mobley_6353617.pdb
Info: To read alchflag data from column: 5
Info: STRUCTURE SUMMARY:
Info: 2995 ATOMS
Info: 2995 BONDS
Info: 25 ANGLES
Info: 42 DIHEDRALS
Info: 0 IMPROPERS
Info: 0 CROSSTERMS
Info: 3047 EXCLUSIONS
Info: 2986 RIGID BONDS
Info: ALCH: 0 ATOMS TO DISAPPEAR IN FINAL STATE
Info: ALCH: 16 ATOMS TO APPEAR IN FINAL STATE
Info: 5999 DEGREES OF FREEDOM
Info: 1002 HYDROGEN GROUPS
Info: 4 ATOMS IN LARGEST HYDROGEN GROUP
Info: 1002 MIGRATION GROUPS
Info: 4 ATOMS IN LARGEST MIGRATION GROUP
Info: TOTAL MASS = 18011 amu
Info: TOTAL CHARGE = 1.30385e-08 e
Info: MASS DENSITY = 0.977762 g/cm^3
Info: ATOM DENSITY = 0.0979112 atoms/A^3
Info: ADDED 0 IMPLICIT EXCLUSIONS
Info: NONBONDED TABLE R-SQUARED SPACING: 0.0625
Info: NONBONDED TABLE SIZE: 705 POINTS
Info: REMOVING COM VELOCITY -0.0198557 -0.0794103 0.177605
Info: Use 3D box decompostion in PME FFT.
Info: Updated CUDA force table with 4096 elements.
Info: Updated CUDA LJ table with 9 x 9 elements.
Info: Found 17 unique exclusion lists needing 36 bytes
TCL: Running for 1500000 steps
ETITLE: TS BOND ANGLE DIHED IMPRP ELECT VDW BOUNDARY MISC KINETIC TOTAL TEMP POTENTIAL TOTALAVG TEMPAVG PRESSURE GPRESSURE VOLUME PRESSAVG GPRESSAVG
ENERGY: 0 2.8544 8.2290 5.7728 0.0000 -10919.5479 1445.3881 0.0000 0.0000 1797.7742 -7659.5295 301.6106 -9457.3037 -7659.5295 301.6106 -70.5632 17.8366 30588.9568 -70.5632 17.8366
ENERGY: 300000 4.8792 5.9058 7.8138 0.0000 -10997.6369 1518.6225 0.0000 0.0000 1795.1396 -7665.2761 301.1686 -9460.4156 -7652.0326 299.8386 489.6714 507.3034 30694.9563 43.2345 110.7354
ENERGY: 600000 2.0875 6.0525 7.5859 0.0000 -10854.9151 1411.9543 0.0000 0.0000 1804.9190 -7622.3158 302.8093 -9427.2349 -7650.2744 300.3787 -441.8908 -423.9251 31119.3285 -35.6759 31.8330
ENERGY: 900000 2.5819 4.1551 5.2437 0.0000 -10918.0223 1434.9821 0.0000 0.0000 1772.3169 -7698.7427 297.3397 -9471.0596 -7646.0792 300.8501 -189.6332 -173.7780 30547.0289 -48.0074 14.6104
ENERGY: 1200000 2.4298 2.8330 5.0655 0.0000 -10901.0598 1452.5093 0.0000 0.0000 1741.6289 -7696.5932 292.1912 -9438.2221 -7647.0991 300.7047 288.4970 385.7526 30204.4638 35.9728 99.2909
ENERGY: 1500000 2.5053 7.2954 5.2006 0.0000 -10912.8451 1490.6584 0.0000 0.0000 1802.6834 -7604.5021 302.4342 -9407.1855 -7643.9740 300.5515 260.0444 315.7045 30855.7562 33.9286 96.1047
TCL: Running FEP window   2: Lambda1 0.95   Lambda2 0.8999999999999999 [dLambda -0.050000000000000044]
TCL: Setting parameter firsttimestep to 0
TCL: Setting parameter alchLambda to 0.95
Info: NONBONDED TABLE R-SQUARED SPACING: 0.0625
Info: NONBONDED TABLE SIZE: 705 POINTS
TCL: Setting parameter alchLambda2 to 0.8999999999999999
Info: NONBONDED TABLE R-SQUARED SPACING: 0.0625
Info: NONBONDED TABLE SIZE: 705 POINTS
TCL: Running for 1500000 steps
ETITLE: TS BOND ANGLE DIHED IMPRP ELECT VDW BOUNDARY MISC KINETIC TOTAL TEMP POTENTIAL TOTALAVG TEMPAVG PRESSURE GPRESSURE VOLUME PRESSAVG GPRESSAVG
ENERGY: 0 2.5053 7.2954 5.2006 0.0000 -10910.7197 1489.7200 0.0000 0.0000 1801.8050 -7604.1935 302.2869 -9405.9984 -7604.1935 302.2869 210.4976 297.3626 30855.7562 210.4976 297.3626
ENERGY: 300000 2.3368 4.5676 4.4855 0.0000 -10882.3023 1447.8128 0.0000 0.0000 1774.7746 -7648.3250 297.7520 -9423.0996 -7665.1873 299.0188 -361.2839 -220.3917 31009.5938 17.8869 118.8242
ENERGY: 600000 2.7623 6.4960 4.6880 0.0000 -10839.2950 1457.0364 0.0000 0.0000 1838.6442 -7529.6681 308.4674 -9368.3123 -7627.5561 301.1599 272.5936 328.0392 30831.8672 -6.7486 67.9840
ENERGY: 900000 3.8547 5.8844 3.6288 0.0000 -10946.4757 1469.3386 0.0000 0.0000 1778.7086 -7685.0606 298.4120 -9463.7692 -7634.1377 299.8152 145.7404 240.3270 30402.2765 -63.5687 11.9093
ENERGY: 1200000 4.1727 5.4324 8.8853 0.0000 -10693.3669 1372.2551 0.0000 0.0000 1840.7762 -7461.8452 308.8250 -9302.6214 -7617.2321 301.2781 -528.5708 -456.4519 31410.4164 -44.3317 21.5107
ENERGY: 1500000 2.6630 5.7464 6.2749 0.0000 -10925.8442 1462.0161 0.0000 0.0000 1751.1614 -7697.9823 293.7905 -9449.1437 -7627.4036 300.5651 193.4211 251.7699 30340.0364 -43.5849 18.3305
TCL: Running FEP window   3: Lambda1 0.8999999999999999 Lambda2 0.8499999999999999 [dLambda -0.050000000000000044]
TCL: Setting parameter firsttimestep to 0
TCL: Setting parameter alchLambda to 0.8999999999999999
Info: NONBONDED TABLE R-SQUARED SPACING: 0.0625
Info: NONBONDED TABLE SIZE: 705 POINTS
TCL: Setting parameter alchLambda2 to 0.8499999999999999
Info: NONBONDED TABLE R-SQUARED SPACING: 0.0625
Info: NONBONDED TABLE SIZE: 705 POINTS
TCL: Running for 1500000 steps
ETITLE: TS BOND ANGLE DIHED IMPRP ELECT VDW BOUNDARY MISC KINETIC TOTAL TEMP POTENTIAL TOTALAVG TEMPAVG PRESSURE GPRESSURE VOLUME PRESSAVG GPRESSAVG
ENERGY: 0 2.6630 5.7464 6.2749 0.0000 -10923.9749 1462.2876 0.0000 0.0000 1750.2795 -7696.7235 293.6425 -9447.0030 -7696.7235 293.6425 175.5405 249.3607 30340.0364 175.5405 249.3607
ENERGY: 300000 0.6835 4.3040 4.9013 0.0000 -10919.6795 1488.4798 0.0000 0.0000 1760.6587 -7660.6522 295.3838 -9421.3108 -7636.7369 300.2409 494.7315 540.6041 30428.1281 421.6889 470.7298
ENERGY: 600000 3.3707 4.1358 6.1666 0.0000 -10932.8159 1423.4190 0.0000 0.0000 1805.6170 -7690.1069 302.9264 -9495.7239 -7644.6521 300.9542 -583.4532 -525.4813 30954.0877 157.8109 201.9787
ENERGY: 900000 5.4479 9.8892 5.0019 0.0000 -11028.2568 1529.1720 0.0000 0.0000 1758.4708 -7720.2750 295.0168 -9478.7458 -7664.2653 299.9593 259.4679 346.9295 30530.1839 151.7791 201.5923
ENERGY: 1200000 2.6369 3.4764 5.8033 0.0000 -10857.4124 1401.4054 0.0000 0.0000 1805.5362 -7638.5541 302.9129 -9444.0903 -7655.7425 300.0802 -615.7928 -553.3074 30746.6169 88.7863 154.8944
ENERGY: 1500000 3.9536 4.5703 5.5106 0.0000 -10878.9325 1432.9747 0.0000 0.0000 1808.5619 -7623.3614 303.4205 -9431.9234 -7644.1949 300.4099 -430.3447 -382.3699 30914.4318 28.7525 91.9972
TCL: Running FEP window   4: Lambda1 0.8499999999999999 Lambda2 0.7999999999999998 [dLambda -0.050000000000000044]
TCL: Setting parameter firsttimestep to 0
TCL: Setting parameter alchLambda to 0.8499999999999999
Info: NONBONDED TABLE R-SQUARED SPACING: 0.0625
Info: NONBONDED TABLE SIZE: 705 POINTS
TCL: Setting parameter alchLambda2 to 0.7999999999999998
Info: NONBONDED TABLE R-SQUARED SPACING: 0.0625
Info: NONBONDED TABLE SIZE: 705 POINTS
TCL: Running for 1500000 steps
ETITLE: TS BOND ANGLE DIHED IMPRP ELECT VDW BOUNDARY MISC KINETIC TOTAL TEMP POTENTIAL TOTALAVG TEMPAVG PRESSURE GPRESSURE VOLUME PRESSAVG GPRESSAVG
ENERGY: 0 3.9536 4.5703 5.5106 0.0000 -10877.6760 1432.7122 0.0000 0.0000 1807.6443 -7623.2851 303.2665 -9430.9294 -7623.2851 303.2665 -480.4112 -393.3998 30914.4318 -480.4112 -393.3998
ENERGY: 300000 2.2986 5.2421 4.7010 0.0000 -10982.8835 1468.1699 0.0000 0.0000 1756.1405 -7746.3315 294.6258 -9502.4720 -7661.3246 300.3014 -133.3479 -39.2211 30700.3586 0.0739 73.7727
ENERGY: 600000 2.3854 5.3222 6.7400 0.0000 -10927.1959 1465.4613 0.0000 0.0000 1730.6549 -7716.6321 290.3501 -9447.2870 -7643.2303 297.9620 31.3077 100.4975 30517.7395 -34.1288 25.7078
ENERGY: 900000 2.4559 5.7845 8.7404 0.0000 -10820.2369 1409.6585 0.0000 0.0000 1810.6124 -7582.9852 303.7645 -9393.5976 -7649.4702 298.2563 -212.7656 -125.5723 30463.1883 -13.1451 51.8303
ENERGY: 1200000 4.3357 3.6592 6.6151 0.0000 -10983.5804 1473.9417 0.0000 0.0000 1782.2393 -7712.7895 299.0044 -9495.0287 -7667.8417 298.1630 -204.9933 -138.1185 30649.7057 38.5701 102.6612
ENERGY: 1500000 1.3806 8.8085 9.0848 0.0000 -10957.8584 1485.6898 0.0000 0.0000 1776.1921 -7676.7027 297.9898 -9452.8948 -7658.1034 298.8490 256.5849 319.4426 30668.8247 12.3462 77.0707
TCL: Running FEP window   5: Lambda1 0.7999999999999998 Lambda2 0.7499999999999998 [dLambda -0.050000000000000044]
TCL: Setting parameter firsttimestep to 0
TCL: Setting parameter alchLambda to 0.7999999999999998
Info: NONBONDED TABLE R-SQUARED SPACING: 0.0625
Info: NONBONDED TABLE SIZE: 705 POINTS
TCL: Setting parameter alchLambda2 to 0.7499999999999998
Info: NONBONDED TABLE R-SQUARED SPACING: 0.0625
Info: NONBONDED TABLE SIZE: 705 POINTS
TCL: Running for 1500000 steps
ETITLE: TS BOND ANGLE DIHED IMPRP ELECT VDW BOUNDARY MISC KINETIC TOTAL TEMP POTENTIAL TOTALAVG TEMPAVG PRESSURE GPRESSURE VOLUME PRESSAVG GPRESSAVG
ENERGY: 0 1.3806 8.8084 9.0848 0.0000 -10956.0878 1484.6677 0.0000 0.0000 1775.2853 -7676.8610 297.8377 -9452.1462 -7676.8610 297.8377 220.0142 300.6466 30668.8247 220.0142 300.6466
ENERGY: 300000 1.7242 5.8829 4.0096 0.0000 -10701.7610 1369.1384 0.0000 0.0000 1786.1817 -7534.8242 299.6658 -9321.0059 -7620.3760 299.8195 -500.2386 -464.4421 30999.8750 -0.2297 62.2538
ENERGY: 600000 1.1611 6.5527 5.9813 0.0000 -10862.3922 1468.1477 0.0000 0.0000 1827.1211 -7553.4283 306.5341 -9380.5494 -7613.7280 300.5529 109.2316 151.9553 31137.1288 -34.7622 28.6576
ENERGY: 900000 2.1953 4.6117 13.4473 0.0000 -10848.9265 1435.9375 0.0000 0.0000 1759.9452 -7632.7894 295.2641 -9392.7347 -7623.7064 300.2327 -112.1362 -49.1859 30931.9457 -53.7670 9.0249
ENERGY: 1200000 2.4295 4.6656 7.4305 0.0000 -10939.2030 1493.2400 0.0000 0.0000 1790.9856 -7640.4517 300.4717 -9431.4373 -7625.2592 300.1336 315.8578 413.8658 30392.6815 -19.3033 46.0220
ENERGY: 1500000 3.7965 8.6256 5.5497 0.0000 -11085.6501 1528.0732 0.0000 0.0000 1807.6665 -7731.9386 303.2703 -9539.6051 -7635.1515 299.8426 278.7244 325.8299 30441.4450 26.3702 86.9000
TCL: Running FEP window   6: Lambda1 0.7499999999999998 Lambda2 0.6999999999999997 [dLambda -0.050000000000000044]
TCL: Setting parameter firsttimestep to 0
TCL: Setting parameter alchLambda to 0.7499999999999998
Info: NONBONDED TABLE R-SQUARED SPACING: 0.0625
Info: NONBONDED TABLE SIZE: 705 POINTS
TCL: Setting parameter alchLambda2 to 0.6999999999999997
Info: NONBONDED TABLE R-SQUARED SPACING: 0.0625
Info: NONBONDED TABLE SIZE: 705 POINTS
TCL: Running for 1500000 steps
ETITLE: TS BOND ANGLE DIHED IMPRP ELECT VDW BOUNDARY MISC KINETIC TOTAL TEMP POTENTIAL TOTALAVG TEMPAVG PRESSURE GPRESSURE VOLUME PRESSAVG GPRESSAVG
ENERGY: 0 3.7965 8.6256 5.5497 0.0000 -11083.7831 1528.0489 0.0000 0.0000 1806.7944 -7730.9680 303.1240 -9537.7624 -7730.9680 303.1240 243.7345 321.6551 30441.4450 243.7345 321.6551
ENERGY: 300000 3.3604 3.9992 3.0987 0.0000 -10938.1188 1503.8030 0.0000 0.0000 1835.1949 -7588.6627 307.8887 -9423.8575 -7700.7320 298.8500 469.5655 550.2982 30789.7409 162.3693 205.0274
ENERGY: 600000 1.3974 4.5274 5.6633 0.0000 -10896.2680 1486.5534 0.0000 0.0000 1847.6608 -7550.4657 309.9801 -9398.1265 -7655.6147 300.0630 271.7267 311.1186 30935.7316 58.3540 105.5222
ENERGY: 900000 2.4163 4.6129 3.7190 0.0000 -10798.7184 1383.7954 0.0000 0.0000 1811.6426 -7592.5323 303.9373 -9404.1749 -7654.6949 299.9133 -693.3501 -591.0296 31075.4882 -34.7468 29.5376
ENERGY: 1200000 3.2853 4.1661 4.2774 0.0000 -10922.2916 1503.4204 0.0000 0.0000 1737.5195 -7669.6229 291.5018 -9407.1424 -7648.0463 299.5342 265.0651 318.0524 30630.3721 -33.7941 34.6182
ENERGY: 1500000 2.1524 3.4985 7.9742 0.0000 -10899.3959 1417.9647 0.0000 0.0000 1797.4954 -7670.3107 301.5639 -9467.8061 -7649.6111 299.7797 -258.0051 -173.4926 30379.5304 -57.9094 14.6626
TCL: Running FEP window   7: Lambda1 0.6999999999999997 Lambda2 0.6499999999999997 [dLambda -0.050000000000000044]
TCL: Setting parameter firsttimestep to 0
TCL: Setting parameter alchLambda to 0.6999999999999997
Info: NONBONDED TABLE R-SQUARED SPACING: 0.0625
Info: NONBONDED TABLE SIZE: 705 POINTS
TCL: Setting parameter alchLambda2 to 0.6499999999999997
Info: NONBONDED TABLE R-SQUARED SPACING: 0.0625
Info: NONBONDED TABLE SIZE: 705 POINTS
TCL: Running for 1500000 steps
ETITLE: TS BOND ANGLE DIHED IMPRP ELECT VDW BOUNDARY MISC KINETIC TOTAL TEMP POTENTIAL TOTALAVG TEMPAVG PRESSURE GPRESSURE VOLUME PRESSAVG GPRESSAVG
ENERGY: 0 2.1524 3.4985 7.9742 0.0000 -10897.3885 1417.8644 0.0000 0.0000 1796.6228 -7669.2762 301.4175 -9465.8990 -7669.2762 301.4175 -265.5308 -177.2148 30379.5304 -265.5308 -177.2148
ENERGY: 300000 3.2258 5.5162 6.2723 0.0000 -10789.8150 1426.8734 0.0000 0.0000 1768.4070 -7579.5203 296.6837 -9347.9273 -7669.0119 298.1702 -174.9218 -101.4618 31134.9833 -74.9278 -21.9372
ENERGY: 600000 2.0634 3.3164 7.6956 0.0000 -10969.4660 1504.2335 0.0000 0.0000 1780.0496 -7672.1075 298.6370 -9452.1571 -7687.4542 296.6667 177.6534 209.7551 30653.1808 53.2325 95.9093
ENERGY: 900000 0.9770 5.7045 7.5982 0.0000 -10846.2958 1488.9390 0.0000 0.0000 1824.2272 -7518.8499 306.0486 -9343.0771 -7678.4720 297.3436 858.9188 856.0431 30295.7280 24.7937 71.4232
ENERGY: 1200000 4.7647 10.0313 5.8790 0.0000 -10856.5977 1412.5258 0.0000 0.0000 1826.2694 -7597.1274 306.3913 -9423.3968 -7676.9270 298.4560 -511.9411 -440.2607 30909.6535 -100.7421 -55.1367
ENERGY: 1500000 3.2168 4.5178 7.1175 0.0000 -10868.7688 1398.4519 0.0000 0.0000 1780.9119 -7674.5529 298.7817 -9455.4648 -7672.0771 298.1650 -877.0688 -830.7785 31093.9271 -151.4260 -104.6882
TCL: Running FEP window   8: Lambda1 0.6499999999999997 Lambda2 0.5999999999999996 [dLambda -0.050000000000000044]
TCL: Setting parameter firsttimestep to 0
TCL: Setting parameter alchLambda to 0.6499999999999997
Info: NONBONDED TABLE R-SQUARED SPACING: 0.0625
Info: NONBONDED TABLE SIZE: 705 POINTS
TCL: Setting parameter alchLambda2 to 0.5999999999999996
Info: NONBONDED TABLE R-SQUARED SPACING: 0.0625
Info: NONBONDED TABLE SIZE: 705 POINTS
TCL: Running for 1500000 steps
ETITLE: TS BOND ANGLE DIHED IMPRP ELECT VDW BOUNDARY MISC KINETIC TOTAL TEMP POTENTIAL TOTALAVG TEMPAVG PRESSURE GPRESSURE VOLUME PRESSAVG GPRESSAVG
ENERGY: 0 3.2168 4.5178 7.1175 0.0000 -10867.9090 1398.4779 0.0000 0.0000 1780.0514 -7674.5275 298.6373 -9454.5789 -7674.5275 298.6373 -930.2733 -837.0238 31093.9271 -930.2733 -837.0238
ENERGY: 300000 4.8899 2.9550 3.7543 0.0000 -10900.9887 1446.4174 0.0000 0.0000 1764.6178 -7678.3544 296.0480 -9442.9722 -7617.0654 301.4802 38.9323 70.2466 31000.1579 -360.3434 -312.2085
ENERGY: 600000 1.6681 7.7573 3.2650 0.0000 -10891.2680 1434.9674 0.0000 0.0000 1784.1226 -7659.4877 299.3203 -9443.6103 -7603.5716 301.8924 -255.2532 -156.7148 30878.6970 -217.6774 -170.8687
ENERGY: 900000 4.3879 5.0398 5.2225 0.0000 -10754.2978 1339.3419 0.0000 0.0000 1786.3900 -7613.9157 299.7007 -9400.3056 -7612.9059 299.7090 -1026.5842 -969.3375 30935.3763 -295.4049 -245.2167
ENERGY: 1200000 1.8892 3.3741 4.8293 0.0000 -10941.2797 1452.3563 0.0000 0.0000 1821.7581 -7657.0727 305.6344 -9478.8308 -7626.9459 300.4139 -276.0197 -169.9440 30874.1108 -325.1188 -276.6638
ENERGY: 1500000 2.9251 6.6956 4.3434 0.0000 -10813.9334 1432.3281 0.0000 0.0000 1749.4586 -7618.1824 293.5048 -9367.6411 -7637.1466 299.0167 -449.9477 -370.6459 31469.5564 -276.1925 -218.5787
TCL: Running FEP window   9: Lambda1 0.5999999999999996 Lambda2 0.5499999999999996 [dLambda -0.050000000000000044]
TCL: Setting parameter firsttimestep to 0
TCL: Setting parameter alchLambda to 0.5999999999999996
Info: NONBONDED TABLE R-SQUARED SPACING: 0.0625
Info: NONBONDED TABLE SIZE: 705 POINTS
TCL: Setting parameter alchLambda2 to 0.5499999999999996
Info: NONBONDED TABLE R-SQUARED SPACING: 0.0625
Info: NONBONDED TABLE SIZE: 705 POINTS
TCL: Running for 1500000 steps
ETITLE: TS BOND ANGLE DIHED IMPRP ELECT VDW BOUNDARY MISC KINETIC TOTAL TEMP POTENTIAL TOTALAVG TEMPAVG PRESSURE GPRESSURE VOLUME PRESSAVG GPRESSAVG
ENERGY: 0 2.9251 6.6956 4.3434 0.0000 -10813.0518 1432.7729 0.0000 0.0000 1748.6056 -7617.7092 293.3617 -9366.3148 -7617.7092 293.3617 -450.7429 -367.8839 31469.5564 -450.7429 -367.8839
ENERGY: 300000 4.9225 4.8716 4.4273 0.0000 -10744.0265 1358.8408 0.0000 0.0000 1730.1796 -7640.7846 290.2704 -9370.9642 -7618.9436 293.5569 -1043.7015 -988.5155 31432.4711 -426.3643 -365.7144
ENERGY: 600000 3.1217 3.8791 5.2202 0.0000 -10899.1918 1436.7005 0.0000 0.0000 1794.6278 -7655.6425 301.0828 -9450.2703 -7604.0541 298.7387 -280.4417 -170.1697 30852.4630 -380.6027 -317.4343
ENERGY: 900000 3.7218 4.3758 6.6115 0.0000 -10941.0064 1474.9390 0.0000 0.0000 1786.2251 -7665.1332 299.6731 -9451.3583 -7625.9208 298.7622 -105.3220 -73.2159 30892.0639 -184.3413 -122.5347
ENERGY: 1200000 2.6792 4.7129 4.6398 0.0000 -10711.9559 1325.4198 0.0000 0.0000 1811.3436 -7563.1606 303.8872 -9374.5042 -7614.0883 299.7028 -972.3995 -862.4986 30900.4732 -283.4878 -224.6258
ENERGY: 1500000 3.1280 5.9552 6.4120 0.0000 -10964.3612 1448.6125 0.0000 0.0000 1764.9163 -7735.3372 296.0981 -9500.2535 -7629.8614 299.9652 -404.2221 -248.4755 30521.2962 -247.0197 -185.4542
TCL: Running FEP window  10: Lambda1 0.5499999999999996 Lambda2 0.4999999999999996 [dLambda -0.04999999999999999]
TCL: Setting parameter firsttimestep to 0
TCL: Setting parameter alchLambda to 0.5499999999999996
Info: NONBONDED TABLE R-SQUARED SPACING: 0.0625
Info: NONBONDED TABLE SIZE: 705 POINTS
TCL: Setting parameter alchLambda2 to 0.4999999999999996
Info: NONBONDED TABLE R-SQUARED SPACING: 0.0625
Info: NONBONDED TABLE SIZE: 705 POINTS
TCL: Running for 1500000 steps
ETITLE: TS BOND ANGLE DIHED IMPRP ELECT VDW BOUNDARY MISC KINETIC TOTAL TEMP POTENTIAL TOTALAVG TEMPAVG PRESSURE GPRESSURE VOLUME PRESSAVG GPRESSAVG
ENERGY: 0 3.1280 5.9552 6.4120 0.0000 -10964.2228 1448.6901 0.0000 0.0000 1764.0161 -7736.0214 295.9471 -9500.0375 -7736.0214 295.9471 -338.7190 -255.4086 30521.2962 -338.7190 -255.4086
ENERGY: 300000 2.4952 4.1493 6.7873 0.0000 -10923.2945 1476.6530 0.0000 0.0000 1739.6934 -7693.5163 291.8665 -9433.2097 -7703.1934 297.6339 27.6285 219.3553 30507.7318 298.1588 411.3000
ENERGY: 600000 4.3406 4.3479 5.1380 0.0000 -10745.1418 1409.6007 0.0000 0.0000 1764.9721 -7556.7426 296.1075 -9321.7147 -7675.0401 297.4628 -314.6634 -333.3646 31140.1770 -67.4289 9.2497
ENERGY: 900000 1.2332 2.8422 5.4224 0.0000 -10789.7288 1338.5280 0.0000 0.0000 1827.2878 -7614.4152 306.5621 -9441.7030 -7672.4087 298.0676 -1101.3612 -1014.6549 31077.0430 -218.2934 -144.1584
ENERGY: 1200000 5.3274 5.4585 5.3000 0.0000 -10831.3871 1390.4156 0.0000 0.0000 1807.4126 -7617.4730 303.2277 -9424.8857 -7656.7044 298.6056 -698.5107 -617.2167 30790.1096 -208.1013 -131.9913
ENERGY: 1500000 7.4343 8.6413 6.3656 0.0000 -10814.8714 1406.0221 0.0000 0.0000 1750.9308 -7635.4773 293.7518 -9386.4081 -7648.5170 298.7816 -730.7072 -629.2527 30823.9025 -301.8828 -221.8574
TCL: Running FEP window  11: Lambda1 0.4999999999999996 Lambda2 0.4499999999999996 [dLambda -0.04999999999999999]
TCL: Setting parameter firsttimestep to 0
TCL: Setting parameter alchLambda to 0.4999999999999996
Info: NONBONDED TABLE R-SQUARED SPACING: 0.0625
Info: NONBONDED TABLE SIZE: 705 POINTS
TCL: Setting parameter alchLambda2 to 0.4499999999999996
Info: NONBONDED TABLE R-SQUARED SPACING: 0.0625
Info: NONBONDED TABLE SIZE: 705 POINTS
TCL: Running for 1500000 steps
ETITLE: TS BOND ANGLE DIHED IMPRP ELECT VDW BOUNDARY MISC KINETIC TOTAL TEMP POTENTIAL TOTALAVG TEMPAVG PRESSURE GPRESSURE VOLUME PRESSAVG GPRESSAVG
ENERGY: 0 7.4343 8.6413 6.3656 0.0000 -10814.8729 1405.9256 0.0000 0.0000 1750.0411 -7636.4650 293.6025 -9386.5061 -7636.4650 293.6025 -714.9225 -638.9029 30823.9025 -714.9225 -638.9029
ENERGY: 300000 3.0071 6.2236 5.8883 0.0000 -10834.3053 1442.2392 0.0000 0.0000 1826.7445 -7550.2027 306.4710 -9376.9472 -7634.0760 294.8956 54.3085 108.7657 30938.2507 -357.5137 -261.0072
ENERGY: 600000 4.0439 3.5073 4.2786 0.0000 -10914.8612 1471.6449 0.0000 0.0000 1716.8707 -7714.5157 288.0376 -9431.3864 -7634.6782 296.1540 -246.5434 -114.8251 30979.3002 -153.7251 -65.5550
ENERGY: 900000 1.2739 6.7218 6.7776 0.0000 -11031.4744 1520.5039 0.0000 0.0000 1734.7850 -7761.4121 291.0430 -9496.1972 -7652.3134 296.1825 187.2719 257.3955 30770.4682 -35.4985 53.4075
ENERGY: 1200000 4.0395 3.2745 3.6909 0.0000 -10919.6164 1472.6992 0.0000 0.0000 1764.6699 -7671.2424 296.0568 -9435.9124 -7641.7409 296.8292 7.7084 14.7230 30737.8308 -56.4869 20.0251
ENERGY: 1500000 7.0566 5.1690 4.7762 0.0000 -10913.4065 1460.9434 0.0000 0.0000 1785.5563 -7649.9050 299.5609 -9435.4613 -7646.1814 297.1971 -25.8129 61.4723 30754.0282 -107.5452 -37.5689
TCL: Running FEP window  12: Lambda1 0.4499999999999996 Lambda2 0.39999999999999963 [dLambda -0.04999999999999999]
TCL: Setting parameter firsttimestep to 0
TCL: Setting parameter alchLambda to 0.4499999999999996
Info: NONBONDED TABLE R-SQUARED SPACING: 0.0625
Info: NONBONDED TABLE SIZE: 705 POINTS
TCL: Setting parameter alchLambda2 to 0.39999999999999963
Info: NONBONDED TABLE R-SQUARED SPACING: 0.0625
Info: NONBONDED TABLE SIZE: 705 POINTS
TCL: Running for 1500000 steps
ETITLE: TS BOND ANGLE DIHED IMPRP ELECT VDW BOUNDARY MISC KINETIC TOTAL TEMP POTENTIAL TOTALAVG TEMPAVG PRESSURE GPRESSURE VOLUME PRESSAVG GPRESSAVG
ENERGY: 0 7.0565 5.1690 4.7762 0.0000 -10913.4054 1460.4239 0.0000 0.0000 1784.7039 -7651.2758 299.4178 -9435.9797 -7651.2758 299.4178 -41.8453 51.3603 30754.0282 -41.8453 51.3603
ENERGY: 300000 2.7569 6.4631 3.1767 0.0000 -10823.1872 1394.7798 0.0000 0.0000 1814.0707 -7601.9401 304.3447 -9416.0109 -7606.6650 301.2838 -488.4306 -434.6144 30816.2552 -168.5329 -118.1736
ENERGY: 600000 4.1431 9.2141 4.3613 0.0000 -10784.3030 1445.1224 0.0000 0.0000 1777.8870 -7543.5752 298.2742 -9321.4621 -7611.5404 300.3427 -205.7599 -122.8674 31118.3173 -168.9800 -118.4779
ENERGY: 900000 2.5581 7.0401 5.9028 0.0000 -10992.4750 1547.8773 0.0000 0.0000 1757.5423 -7671.5544 294.8610 -9429.0968 -7621.7967 299.7681 575.5164 594.8045 30705.3227 -229.5543 -173.6161
ENERGY: 1200000 2.8151 5.3570 8.3850 0.0000 -10967.9373 1536.7318 0.0000 0.0000 1732.5958 -7682.0525 290.6757 -9414.6483 -7626.3248 298.7479 436.0603 452.8855 30856.4203 -196.9678 -136.9793
ENERGY: 1500000 4.7492 7.8500 7.4190 0.0000 -11087.1143 1571.7664 0.0000 0.0000 1753.7582 -7741.5715 294.2261 -9495.3298 -7636.7957 298.0658 523.1992 602.8797 30415.4867 -178.7437 -121.5847
TCL: Running FEP window  13: Lambda1 0.39999999999999963 Lambda2 0.34999999999999964 [dLambda -0.04999999999999999]
TCL: Setting parameter firsttimestep to 0
TCL: Setting parameter alchLambda to 0.39999999999999963
Info: NONBONDED TABLE R-SQUARED SPACING: 0.0625
Info: NONBONDED TABLE SIZE: 705 POINTS
TCL: Setting parameter alchLambda2 to 0.34999999999999964
Info: NONBONDED TABLE R-SQUARED SPACING: 0.0625
Info: NONBONDED TABLE SIZE: 705 POINTS
TCL: Running for 1500000 steps
ETITLE: TS BOND ANGLE DIHED IMPRP ELECT VDW BOUNDARY MISC KINETIC TOTAL TEMP POTENTIAL TOTALAVG TEMPAVG PRESSURE GPRESSURE VOLUME PRESSAVG GPRESSAVG
ENERGY: 0 4.7492 7.8500 7.4190 0.0000 -11087.1143 1572.3572 0.0000 0.0000 1752.8756 -7741.8633 294.0781 -9494.7389 -7741.8633 294.0781 508.7548 600.3344 30415.4867 508.7548 600.3344
ENERGY: 300000 1.4905 6.5922 7.5433 0.0000 -10687.8261 1322.5854 0.0000 0.0000 1838.3974 -7511.2172 308.4260 -9349.6146 -7599.1169 301.7204 -1038.5468 -1029.9468 31249.4429 252.3008 315.2520
ENERGY: 600000 3.0751 2.8194 4.6096 0.0000 -11080.1334 1556.0502 0.0000 0.0000 1834.4828 -7679.0963 307.7692 -9513.5791 -7635.1670 302.0667 436.6602 538.2877 30373.3830 127.9570 187.6885
ENERGY: 900000 1.1236 4.0994 9.3438 0.0000 -10850.5951 1475.2166 0.0000 0.0000 1806.6439 -7554.1678 303.0987 -9360.8117 -7618.9499 301.7082 188.2540 179.4793 31021.0017 141.5400 186.0030
ENERGY: 1200000 1.5252 7.3805 5.5094 0.0000 -10838.8036 1435.6572 0.0000 0.0000 1801.2482 -7587.4830 302.1935 -9388.7312 -7625.1687 301.7864 -146.9806 -62.8618 30834.3982 107.3930 161.1810
ENERGY: 1500000 1.5770 5.7584 5.0158 0.0000 -10922.1848 1540.5933 0.0000 0.0000 1743.0680 -7626.1722 292.4327 -9369.2403 -7617.5161 300.5376 880.3896 986.5081 30651.6214 168.4063 226.6060
TCL: Running FEP window  14: Lambda1 0.34999999999999964 Lambda2 0.29999999999999966 [dLambda -0.04999999999999999]
TCL: Setting parameter firsttimestep to 0
TCL: Setting parameter alchLambda to 0.34999999999999964
Info: NONBONDED TABLE R-SQUARED SPACING: 0.0625
Info: NONBONDED TABLE SIZE: 705 POINTS
TCL: Setting parameter alchLambda2 to 0.29999999999999966
Info: NONBONDED TABLE R-SQUARED SPACING: 0.0625
Info: NONBONDED TABLE SIZE: 705 POINTS
TCL: Running for 1500000 steps
ETITLE: TS BOND ANGLE DIHED IMPRP ELECT VDW BOUNDARY MISC KINETIC TOTAL TEMP POTENTIAL TOTALAVG TEMPAVG PRESSURE GPRESSURE VOLUME PRESSAVG GPRESSAVG
ENERGY: 0 1.5770 5.7584 5.0158 0.0000 -10922.1848 1541.0840 0.0000 0.0000 1742.1914 -7626.5582 292.2856 -9368.7496 -7626.5582 292.2856 899.2236 986.8268 30651.6214 899.2236 986.8268
ENERGY: 300000 6.0414 3.7755 3.7272 0.0000 -10783.4975 1385.3560 0.0000 0.0000 1794.8628 -7589.7347 301.1222 -9384.5974 -7594.9189 298.5634 -677.8557 -604.8421 31142.6316 -276.7336 -213.9040
ENERGY: 600000 2.5759 5.9420 8.5294 0.0000 -10773.4060 1385.8862 0.0000 0.0000 1817.1041 -7553.3684 304.8536 -9370.4725 -7589.8259 300.2292 -495.9290 -425.2006 31107.7155 -288.9232 -225.3044
ENERGY: 900000 3.1826 3.9773 4.8991 0.0000 -10783.5072 1393.8623 0.0000 0.0000 1794.9702 -7582.6158 301.1402 -9377.5859 -7591.2877 300.1881 -659.6586 -607.4145 31179.1206 -354.8273 -293.0445
ENERGY: 1200000 2.4563 5.6985 5.1852 0.0000 -10873.0919 1460.7828 0.0000 0.0000 1824.8092 -7574.1599 306.1463 -9398.9691 -7597.8630 300.4987 -182.0642 -125.8097 31176.9435 -313.0397 -251.3783
ENERGY: 1500000 1.2963 3.0483 5.1690 0.0000 -10863.7794 1390.4419 0.0000 0.0000 1778.0352 -7685.7887 298.2991 -9463.8239 -7611.5416 299.7981 -679.1532 -607.4986 30863.5301 -443.3246 -376.2923
TCL: Running FEP window  15: Lambda1 0.29999999999999966 Lambda2 0.24999999999999967 [dLambda -0.04999999999999999]
TCL: Setting parameter firsttimestep to 0
TCL: Setting parameter alchLambda to 0.29999999999999966
Info: NONBONDED TABLE R-SQUARED SPACING: 0.0625
Info: NONBONDED TABLE SIZE: 705 POINTS
TCL: Setting parameter alchLambda2 to 0.24999999999999967
Info: NONBONDED TABLE R-SQUARED SPACING: 0.0625
Info: NONBONDED TABLE SIZE: 705 POINTS
TCL: Running for 1500000 steps
ETITLE: TS BOND ANGLE DIHED IMPRP ELECT VDW BOUNDARY MISC KINETIC TOTAL TEMP POTENTIAL TOTALAVG TEMPAVG PRESSURE GPRESSURE VOLUME PRESSAVG GPRESSAVG
ENERGY: 0 1.2963 3.0483 5.1690 0.0000 -10863.7819 1390.3758 0.0000 0.0000 1777.1262 -7686.7664 298.1466 -9463.8926 -7686.7664 298.1466 -694.8492 -611.3964 30863.5301 -694.8492 -611.3964
ENERGY: 300000 5.4832 3.7607 6.0494 0.0000 -10939.4590 1458.0118 0.0000 0.0000 1797.0965 -7669.0575 301.4970 -9466.1540 -7685.7192 294.5207 -148.1669 -93.5253 30601.2313 -414.3172 -348.0134
ENERGY: 600000 5.6630 5.4135 7.1004 0.0000 -10952.1381 1443.4535 0.0000 0.0000 1789.7084 -7700.7993 300.2574 -9490.5077 -7667.1544 297.7208 -639.8634 -550.2162 30733.9910 -305.7971 -248.9948
ENERGY: 900000 2.3760 6.4310 5.8015 0.0000 -10821.1737 1410.6633 0.0000 0.0000 1740.1804 -7655.7215 291.9482 -9395.9019 -7664.9753 297.5203 -690.0051 -627.7302 31051.9863 -314.8759 -260.8592
ENERGY: 1200000 0.9707 6.3491 4.0146 0.0000 -10960.0069 1472.4767 0.0000 0.0000 1818.3334 -7657.8623 305.0598 -9476.1957 -7668.0771 297.6648 154.7975 162.7263 30422.9815 -256.8444 -204.5954
ENERGY: 1500000 2.5457 5.7114 5.5238 0.0000 -10899.3663 1461.1006 0.0000 0.0000 1790.5064 -7633.9784 300.3913 -9424.4849 -7660.9807 298.1559 -142.5582 -84.4715 30856.1151 -232.5895 -177.7732
TCL: Running FEP window  16: Lambda1 0.24999999999999967 Lambda2 0.19999999999999968 [dLambda -0.04999999999999999]
TCL: Setting parameter firsttimestep to 0
TCL: Setting parameter alchLambda to 0.24999999999999967
Info: NONBONDED TABLE R-SQUARED SPACING: 0.0625
Info: NONBONDED TABLE SIZE: 705 POINTS
TCL: Setting parameter alchLambda2 to 0.19999999999999968
Info: NONBONDED TABLE R-SQUARED SPACING: 0.0625
Info: NONBONDED TABLE SIZE: 705 POINTS
TCL: Running for 1500000 steps
ETITLE: TS BOND ANGLE DIHED IMPRP ELECT VDW BOUNDARY MISC KINETIC TOTAL TEMP POTENTIAL TOTALAVG TEMPAVG PRESSURE GPRESSURE VOLUME PRESSAVG GPRESSAVG
ENERGY: 0 2.5457 5.7114 5.5238 0.0000 -10899.3662 1461.4487 0.0000 0.0000 1789.5911 -7634.5454 300.2378 -9424.1366 -7634.5454 300.2378 -162.5039 -84.4289 30856.1151 -162.5039 -84.4289
ENERGY: 300000 1.4621 4.5573 6.3071 0.0000 -10842.3973 1416.7753 0.0000 0.0000 1773.2857 -7640.0098 297.5022 -9413.2955 -7622.4918 299.4799 -370.9259 -312.1183 30664.5708 -87.8313 0.8173
ENERGY: 600000 3.5694 3.5882 3.5353 0.0000 -11074.9106 1482.1719 0.0000 0.0000 1788.5530 -7793.4927 300.0636 -9582.0458 -7672.9678 298.2838 -475.2107 -393.0574 30884.5999 -306.0045 -225.0609
ENERGY: 900000 2.0391 6.2633 7.0330 0.0000 -10884.0331 1458.5506 0.0000 0.0000 1804.4226 -7605.7246 302.7260 -9410.1472 -7655.0696 299.3320 99.1071 112.2512 30556.0163 -324.0966 -245.8864
ENERGY: 1200000 3.7417 5.5255 6.7524 0.0000 -10857.3807 1406.3273 0.0000 0.0000 1805.3866 -7629.6471 302.8878 -9435.0337 -7648.5497 299.8017 -599.5050 -490.8068 30681.4375 -377.3259 -291.8764
ENERGY: 1500000 2.5497 4.4333 5.5461 0.0000 -10934.6531 1481.5089 0.0000 0.0000 1826.5639 -7614.0512 306.4407 -9440.6151 -7649.2926 299.5838 -290.8635 -180.3651 31234.9009 -346.5885 -256.2466
TCL: Running FEP window  17: Lambda1 0.19999999999999968 Lambda2 0.1499999999999997 [dLambda -0.04999999999999999]
TCL: Setting parameter firsttimestep to 0
TCL: Setting parameter alchLambda to 0.19999999999999968
Info: NONBONDED TABLE R-SQUARED SPACING: 0.0625
Info: NONBONDED TABLE SIZE: 705 POINTS
TCL: Setting parameter alchLambda2 to 0.1499999999999997
Info: NONBONDED TABLE R-SQUARED SPACING: 0.0625
Info: NONBONDED TABLE SIZE: 705 POINTS
TCL: Running for 1500000 steps
ETITLE: TS BOND ANGLE DIHED IMPRP ELECT VDW BOUNDARY MISC KINETIC TOTAL TEMP POTENTIAL TOTALAVG TEMPAVG PRESSURE GPRESSURE VOLUME PRESSAVG GPRESSAVG
ENERGY: 0 2.5497 4.4333 5.5461 0.0000 -10934.6550 1481.4675 0.0000 0.0000 1825.6769 -7614.9814 306.2919 -9440.6583 -7614.9814 306.2919 -269.8538 -183.1687 31234.9009 -269.8538 -183.1687
ENERGY: 300000 1.8736 2.6015 5.1631 0.0000 -10927.1481 1506.7669 0.0000 0.0000 1780.6800 -7630.0629 298.7428 -9410.7429 -7605.6732 300.9086 286.9278 340.8222 30833.2877 132.0882 178.0773
ENERGY: 600000 3.1606 6.4087 4.0925 0.0000 -11061.4456 1527.5638 0.0000 0.0000 1771.4345 -7748.7855 297.1917 -9520.2200 -7633.3028 301.1336 646.2356 725.2326 29888.2384 214.6328 269.1000
ENERGY: 900000 4.4208 3.0582 6.6967 0.0000 -10965.0946 1491.8010 0.0000 0.0000 1749.5302 -7709.5877 293.5168 -9459.1179 -7629.9677 301.2289 0.1058 47.7597 30659.0600 61.5978 126.1003
ENERGY: 1200000 0.9465 6.4128 5.1343 0.0000 -10820.3180 1402.8858 0.0000 0.0000 1794.5280 -7610.4105 301.0660 -9404.9385 -7633.8018 300.7469 -480.4636 -389.7237 30835.9778 -20.0630 59.0394
ENERGY: 1500000 2.0658 5.1118 4.9417 0.0000 -10895.7246 1440.2958 0.0000 0.0000 1785.2423 -7658.0672 299.5082 -9443.3095 -7633.5025 301.1905 -286.9521 -279.1075 30882.0852 1.5412 78.5556
TCL: Running FEP window  18: Lambda1 0.1499999999999997 Lambda2 0.09999999999999969 [dLambda -0.05 ]
TCL: Setting parameter firsttimestep to 0
TCL: Setting parameter alchLambda to 0.1499999999999997
Info: NONBONDED TABLE R-SQUARED SPACING: 0.0625
Info: NONBONDED TABLE SIZE: 705 POINTS
TCL: Setting parameter alchLambda2 to 0.09999999999999969
Info: NONBONDED TABLE R-SQUARED SPACING: 0.0625
Info: NONBONDED TABLE SIZE: 705 POINTS
TCL: Running for 1500000 steps
ETITLE: TS BOND ANGLE DIHED IMPRP ELECT VDW BOUNDARY MISC KINETIC TOTAL TEMP POTENTIAL TOTALAVG TEMPAVG PRESSURE GPRESSURE VOLUME PRESSAVG GPRESSAVG
ENERGY: 0 2.0658 5.1118 4.9417 0.0000 -10895.7227 1440.6545 0.0000 0.0000 1784.3499 -7658.5991 299.3585 -9442.9490 -7658.5991 299.3585 -365.8200 -277.9483 30882.0852 -365.8200 -277.9483
ENERGY: 300000 3.4089 3.4480 3.4112 0.0000 -10932.1795 1483.7869 0.0000 0.0000 1838.6866 -7599.4379 308.4745 -9438.1245 -7662.7895 301.1787 285.7827 373.0996 30394.2423 248.2116 326.4503
ENERGY: 600000 3.1676 6.9600 7.2091 0.0000 -10986.9945 1518.4650 0.0000 0.0000 1740.2549 -7710.9379 291.9607 -9451.1927 -7656.6246 299.5227 402.7731 466.5267 30317.4709 -48.9647 15.5648
ENERGY: 900000 2.7707 2.9270 5.9320 0.0000 -10751.6518 1365.3462 0.0000 0.0000 1801.3511 -7573.3248 302.2107 -9374.6759 -7637.6932 300.4424 -704.3585 -619.7564 30606.6356 -77.3975 -10.7830
ENERGY: 1200000 2.0619 6.6113 9.5852 0.0000 -10824.1974 1468.1385 0.0000 0.0000 1706.6720 -7631.1284 286.3265 -9337.8004 -7635.6797 298.3981 -112.6888 16.8086 30751.3608 -20.1687 52.1473
ENERGY: 1500000 0.8004 2.3504 7.5487 0.0000 -10830.5912 1429.4559 0.0000 0.0000 1812.2754 -7578.1605 304.0435 -9390.4359 -7627.1313 299.4378 -223.3289 -159.7228 31003.1987 -91.9121 -20.9930
TCL: Running FEP window  19: Lambda1 0.09999999999999969 Lambda2 0.049999999999999684 [dLambda -0.05 ]
TCL: Setting parameter firsttimestep to 0
TCL: Setting parameter alchLambda to 0.09999999999999969
Info: NONBONDED TABLE R-SQUARED SPACING: 0.0625
Info: NONBONDED TABLE SIZE: 705 POINTS
TCL: Setting parameter alchLambda2 to 0.049999999999999684
Info: NONBONDED TABLE R-SQUARED SPACING: 0.0625
Info: NONBONDED TABLE SIZE: 705 POINTS
TCL: Running for 1500000 steps
ETITLE: TS BOND ANGLE DIHED IMPRP ELECT VDW BOUNDARY MISC KINETIC TOTAL TEMP POTENTIAL TOTALAVG TEMPAVG PRESSURE GPRESSURE VOLUME PRESSAVG GPRESSAVG
ENERGY: 0 0.8004 2.3504 7.5487 0.0000 -10830.5918 1428.5092 0.0000 0.0000 1811.4279 -7579.9552 303.9013 -9391.3831 -7579.9552 303.9013 -249.8966 -165.8545 31003.1987 -249.8966 -165.8545
ENERGY: 300000 4.9791 8.9364 5.6940 0.0000 -10877.0863 1447.0033 0.0000 0.0000 1769.4767 -7640.9969 296.8632 -9410.4736 -7616.7814 302.7312 -500.9076 -456.8895 31002.9514 -327.5869 -276.9540
ENERGY: 600000 3.6297 9.3123 6.5140 0.0000 -10835.2740 1396.3997 0.0000 0.0000 1802.2224 -7617.1960 302.3569 -9419.4183 -7618.2845 300.9667 -537.8382 -496.1291 30785.1468 -243.6083 -189.1925
ENERGY: 900000 3.1974 5.7930 6.0517 0.0000 -10875.3680 1427.8472 0.0000 0.0000 1758.7838 -7673.6949 295.0693 -9432.4787 -7636.8235 299.8991 -411.4602 -301.4075 30677.4066 -80.1188 -23.1873
ENERGY: 1200000 3.0012 4.2395 4.9924 0.0000 -10875.4042 1432.4015 0.0000 0.0000 1817.5235 -7613.2460 304.9240 -9430.7695 -7639.3330 299.2879 -508.2203 -478.9526 31027.3627 -97.3219 -35.2516
ENERGY: 1500000 0.7496 5.6418 5.2523 0.0000 -10844.0478 1430.7154 0.0000 0.0000 1760.6011 -7641.0875 295.3741 -9401.6886 -7630.3673 299.7695 -282.1627 -199.0341 30886.6495 -64.8959 -3.6120
TCL: Running FEP window  20: Lambda1 0.049999999999999684 Lambda2 0.0    [dLambda -0.049999999999999684]
TCL: Setting parameter firsttimestep to 0
TCL: Setting parameter alchLambda to 0.049999999999999684
Info: NONBONDED TABLE R-SQUARED SPACING: 0.0625
Info: NONBONDED TABLE SIZE: 705 POINTS
TCL: Setting parameter alchLambda2 to 0.0
Info: NONBONDED TABLE R-SQUARED SPACING: 0.0625
Info: NONBONDED TABLE SIZE: 705 POINTS
TCL: Running for 1500000 steps
ETITLE: TS BOND ANGLE DIHED IMPRP ELECT VDW BOUNDARY MISC KINETIC TOTAL TEMP POTENTIAL TOTALAVG TEMPAVG PRESSURE GPRESSURE VOLUME PRESSAVG GPRESSAVG
ENERGY: 0 0.7496 5.6418 5.2523 0.0000 -10844.0471 1430.1758 0.0000 0.0000 1759.7333 -7642.4943 295.2286 -9402.2275 -7642.4943 295.2286 -282.3154 -204.4528 30886.6495 -282.3154 -204.4528
ENERGY: 300000 4.6340 7.6356 6.4942 0.0000 -10849.1438 1489.5693 0.0000 0.0000 1768.6540 -7572.1567 296.7252 -9340.8107 -7593.8491 300.9390 201.4678 289.4607 30895.5275 -170.8712 -92.0617
ENERGY: 600000 2.7635 6.4177 7.2816 0.0000 -10869.5565 1466.0755 0.0000 0.0000 1788.3891 -7598.6292 300.0361 -9387.0183 -7604.8404 301.6704 -190.2353 -124.9917 31176.8750 -215.1648 -131.5920
ENERGY: 900000 2.8174 8.0627 5.4883 0.0000 -10909.2834 1493.9612 0.0000 0.0000 1781.6069 -7617.3469 298.8983 -9398.9538 -7596.9748 302.3097 -4.5571 111.8198 31314.5615 -5.5287 72.9020
ENERGY: 1200000 2.1677 7.8560 3.6999 0.0000 -10954.3945 1527.0412 0.0000 0.0000 1769.0416 -7644.5882 296.7902 -9413.6297 -7604.8733 302.1492 365.4508 399.1067 30899.5492 32.4512 107.0523
ENERGY: 1500000 2.3969 3.8664 4.9586 0.0000 -10882.3799 1447.3192 0.0000 0.0000 1823.3652 -7600.4737 305.9040 -9423.8388 -7611.1069 301.7984 -201.2549 -121.8734 30972.6792 65.5985 141.1893
TCL: Exiting due to exit command.
