Info: SIMULATION PARAMETERS:
Info: TIMESTEP               2
Info: NUMBER OF STEPS        0
Info: STEPS PER CYCLE        10
Info: PERIODIC CELL BASIS 1  31.1176 0 0
Info: PERIODIC CELL BASIS 2  0 29.7105 0
Info: PERIODIC CELL BASIS 3  0 0 33.31
Info: PERIODIC CELL CENTER   0 0 0
Info: WRAPPING WATERS AROUND PERIODIC BOUNDARIES ON OUTPUT.
Info: WRAPPING ALL CLUSTERS AROUND PERIODIC BOUNDARIES ON OUTPUT.
Info: FIRST LDB TIMESTEP     50
Info: LAST LDB TIMESTEP     -1
Info: HOM BACKGROUND SCALING 1
Info: PME BACKGROUND SCALING 1
Info: MIN ATOMS PER PATCH    40
Info: EMPTY PATCH LOAD       40 ATOMS
Info: VELOCITY FILE          mobley_4193752_equil.vel
Info: CENTER OF MASS MOVING INITIALLY? NO
Info: DIELECTRIC             1
Info: EXCLUDE                SCALED ONE-FOUR
Info: 1-4 ELECTROSTATICS SCALED BY 0.833333
Info: MODIFIED 1-4 VDW PARAMETERS WILL BE USED
Info: DCD FILENAME           mobley_4193752_prod.dcd
Info: DCD FREQUENCY          100000
Info: DCD FIRST STEP         100000
Info: DCD FILE WILL CONTAIN UNIT CELL DATA
Info: XST FILENAME           mobley_4193752_prod.xst
Info: XST FREQUENCY          100000
Info: NO VELOCITY DCD OUTPUT
Info: NO FORCE DCD OUTPUT
Info: OUTPUT FILENAME        mobley_4193752_prod
Info: BINARY OUTPUT FILES WILL BE USED
Info: RESTART FILENAME       mobley_4193752_prod.restart
Info: RESTART FREQUENCY      100000
Info: BINARY RESTART FILES WILL BE USED
Info: CUTOFF                 9
Info: PAIRLIST DISTANCE      11
Info: PAIRLIST SHRINK RATE   0.01
Info: PAIRLIST GROW RATE     0.01
Info: PAIRLIST TRIGGER       0.3
Info: PAIRLISTS PER CYCLE    2
Info: PAIRLISTS ENABLED
Info: MARGIN                 2
Info: HYDROGEN GROUP CUTOFF  2.5
Info: PATCH DIMENSION        15.5
Info: ENERGY OUTPUT STEPS    100000
Info: ENERGY EVALUATION STEPS    100000
Info: OUTPUT ENERGY PRECISION 4
Info: CROSSTERM ENERGY INCLUDED IN DIHEDRAL
Info: TIMING OUTPUT STEPS    1000000
Info: PRESSURE OUTPUT STEPS  100000
Info: ALCHEMICAL FEP ON
Info: FEP CURRENT LAMBDA VALUE     1
Info: FEP COMPARISON LAMBDA VALUE  0.95
Info: FEP INTRA-ALCHEMICAL NON-BONDED INTERACTIONS WILL BE RETAINED
Info: FEP INTRA-ALCHEMICAL BONDED INTERACTIONS WILL BE RETAINED
Info: FEP VDW SHIFTING COEFFICIENT 5
Info: FEP ELEC. ACTIVE FOR ANNIHILATED PARTICLES BETWEEN LAMBDA = 0 AND LAMBDA = 0.5
Info: FEP ELEC. ACTIVE FOR EXNIHILATED PARTICLES BETWEEN LAMBDA = 0.5 AND LAMBDA = 1
Info: FEP VDW ACTIVE FOR ANNIHILATED PARTICLES BETWEEN LAMBDA = 0 AND LAMBDA = 1
Info: FEP VDW ACTIVE FOR EXNIHILATED PARTICLES BETWEEN LAMBDA = 0 AND LAMBDA = 1
Info: FEP BOND ACTIVE FOR ANNIHILATED PARTICLES BETWEEN LAMBDA = 1 AND LAMBDA = 1
Info: FEP BOND ACTIVE FOR EXNIHILATED PARTICLES BETWEEN LAMBDA = 0 AND LAMBDA = 0
Info: LANGEVIN DYNAMICS ACTIVE
Info: LANGEVIN TEMPERATURE   300
Info: LANGEVIN USING BBK INTEGRATOR
Info: LANGEVIN DAMPING COEFFICIENT IS 1 INVERSE PS
Info: LANGEVIN DYNAMICS APPLIED TO HYDROGENS
Info: LANGEVIN PISTON PRESSURE CONTROL ACTIVE
Info:        TARGET PRESSURE IS 1.01325 BAR
Info:     OSCILLATION PERIOD IS 50 FS
Info:             DECAY TIME IS 25 FS
Info:     PISTON TEMPERATURE IS 300 K
Info:       PRESSURE CONTROL IS GROUP-BASED
Info:    INITIAL STRAIN RATE IS 0.000198383 0.000198383 0.000198383
Info:       CELL FLUCTUATION IS ISOTROPIC
Info: PARTICLE MESH EWALD (PME) ACTIVE
Info: PME TOLERANCE               1e-06
Info: PME EWALD COEFFICIENT       0.348832
Info: PME INTERPOLATION ORDER     4
Info: PME GRID DIMENSIONS         32 32 36
Info: PME MAXIMUM GRID SPACING    1
Info: PME CALCULATION WILL BE PERFORMED ON GPU
Info: FULL ELECTROSTATIC EVALUATION FREQUENCY      2
Info: USING VERLET I (r-RESPA) MTS SCHEME.
Info: C1 SPLITTING OF LONG RANGE ELECTROSTATICS
Info: PLACING ATOMS IN PATCHES BY HYDROGEN GROUPS
Info: RIGID BONDS TO HYDROGEN : ALL
Info:         ERROR TOLERANCE : 1e-08
Info:          MAX ITERATIONS : 100
Info: RIGID WATER USING SETTLE ALGORITHM
Info: RANDOM NUMBER SEED     1743738951
Info: USE HYDROGEN BONDS?    NO
Info: Using AMBER format force field!
Info: AMBER PARM FILE        mobley_4193752.prmtop
Info: COORDINATE PDB         mobley_4193752.pdb
Info: Exclusions will be read from PARM file!
Info: SCNB (VDW SCALING)     2
Info: USING ARITHMETIC MEAN TO COMBINE L-J SIGMA PARAMETERS
Info: BINARY COORDINATES     mobley_4193752_equil.coor
Info: SUMMARY OF PARAMETERS:
Info: 6 BONDS
Info: 5 ANGLES
Info:   5 HARMONIC
Info:   0 COSINE-BASED
Info: 3 DIHEDRAL
Info: 0 IMPROPER
Info: 0 CROSSTERM
Info: 0 VDW
Info: 21 VDW_PAIRS
Info: 0 NBTHOLE_PAIRS
Info: To read alchdata from file: mobley_4193752.pdb
Info: To read alchflag data from column: 5
Info: STRUCTURE SUMMARY:
Info: 2999 ATOMS
Info: 2999 BONDS
Info: 21 ANGLES
Info: 34 DIHEDRALS
Info: 0 IMPROPERS
Info: 0 CROSSTERMS
Info: 3045 EXCLUSIONS
Info: 2990 RIGID BONDS
Info: ALCH: 0 ATOMS TO DISAPPEAR IN FINAL STATE
Info: ALCH: 14 ATOMS TO APPEAR IN FINAL STATE
Info: 6007 DEGREES OF FREEDOM
Info: 1004 HYDROGEN GROUPS
Info: 3 ATOMS IN LARGEST HYDROGEN GROUP
Info: 1004 MIGRATION GROUPS
Info: 3 ATOMS IN LARGEST MIGRATION GROUP
Info: TOTAL MASS = 18049 amu
Info: TOTAL CHARGE = 7.45058e-09 e
Info: MASS DENSITY = 0.973245 g/cm^3
Info: ATOM DENSITY = 0.0973835 atoms/A^3
Info: ADDED 0 IMPLICIT EXCLUSIONS
Info: NONBONDED TABLE R-SQUARED SPACING: 0.0625
Info: NONBONDED TABLE SIZE: 705 POINTS
Info: REMOVING COM VELOCITY 0.107038 0.0271324 -0.0124208
Info: Use 3D box decompostion in PME FFT.
Info: Updated CUDA force table with 4096 elements.
Info: Updated CUDA LJ table with 6 x 6 elements.
Info: Found 16 unique exclusion lists needing 32 bytes
TCL: Running for 1500000 steps
ETITLE: TS BOND ANGLE DIHED IMPRP ELECT VDW BOUNDARY MISC KINETIC TOTAL TEMP POTENTIAL TOTALAVG TEMPAVG PRESSURE GPRESSURE VOLUME PRESSAVG GPRESSAVG
ENERGY: 0 3.8059 7.0883 1.6445 0.0000 -10898.1465 1420.4070 0.0000 0.0000 1799.7855 -7665.4152 301.5459 -9465.2007 -7665.4152 301.5459 -507.4153 -425.4318 30795.7724 -507.4153 -425.4318
ENERGY: 300000 2.1203 3.4447 3.4330 0.0000 -10753.1603 1390.9493 0.0000 0.0000 1765.1283 -7588.0846 295.7393 -9353.2129 -7614.0955 300.7422 -313.0601 -262.1085 31093.5773 -105.0939 -32.0441
ENERGY: 600000 1.7007 1.3609 3.9563 0.0000 -10895.2187 1420.2278 0.0000 0.0000 1736.9898 -7730.9833 291.0248 -9467.9730 -7624.0724 299.2195 -401.1275 -276.0440 30821.5127 -93.3691 -7.1620
ENERGY: 900000 2.4054 3.9135 1.5700 0.0000 -10781.5222 1418.9134 0.0000 0.0000 1743.5684 -7611.1516 292.1270 -9354.7200 -7624.7321 296.5812 -301.3603 -264.8184 31262.0218 -317.6361 -235.6534
ENERGY: 1200000 1.8338 4.0670 5.1285 0.0000 -10782.2089 1418.9450 0.0000 0.0000 1726.9875 -7625.2470 289.3490 -9352.2346 -7625.9570 295.9719 -399.5351 -354.3727 31322.3040 -232.1877 -159.5815
ENERGY: 1500000 3.3813 4.0316 3.2030 0.0000 -10914.2239 1470.3885 0.0000 0.0000 1736.1368 -7697.0827 290.8819 -9433.2195 -7622.7625 296.4486 -125.6963 -88.0671 30754.9694 -166.3301 -98.7363
TCL: Running FEP window   2: Lambda1 0.95   Lambda2 0.8999999999999999 [dLambda -0.050000000000000044]
TCL: Setting parameter firsttimestep to 0
TCL: Setting parameter alchLambda to 0.95
Info: NONBONDED TABLE R-SQUARED SPACING: 0.0625
Info: NONBONDED TABLE SIZE: 705 POINTS
TCL: Setting parameter alchLambda2 to 0.8999999999999999
Info: NONBONDED TABLE R-SQUARED SPACING: 0.0625
Info: NONBONDED TABLE SIZE: 705 POINTS
TCL: Running for 1500000 steps
ETITLE: TS BOND ANGLE DIHED IMPRP ELECT VDW BOUNDARY MISC KINETIC TOTAL TEMP POTENTIAL TOTALAVG TEMPAVG PRESSURE GPRESSURE VOLUME PRESSAVG GPRESSAVG
ENERGY: 0 3.3813 4.0316 3.2031 0.0000 -10913.5377 1470.6995 0.0000 0.0000 1735.2807 -7696.9416 290.7385 -9432.2223 -7696.9416 290.7385 -176.5816 -97.9623 30754.9694 -176.5816 -97.9623
ENERGY: 300000 5.1236 3.9829 4.0598 0.0000 -10850.1764 1465.4620 0.0000 0.0000 1785.6235 -7585.9247 299.1732 -9371.5482 -7618.0205 300.6903 151.4061 128.2104 30617.4446 162.3382 207.5584
ENERGY: 600000 5.6194 2.3335 3.0266 0.0000 -10965.0686 1512.3541 0.0000 0.0000 1764.9288 -7676.8061 295.7059 -9441.7349 -7642.6861 298.1893 342.6731 479.1718 30614.0682 170.2502 225.5853
ENERGY: 900000 2.8253 4.8777 2.9725 0.0000 -10755.6795 1432.0485 0.0000 0.0000 1822.3071 -7490.6485 305.3193 -9312.9555 -7615.0319 299.2445 -39.1148 8.3044 31066.8684 85.3789 133.7000
ENERGY: 1200000 2.8061 2.5937 3.7851 0.0000 -10765.9009 1409.2035 0.0000 0.0000 1831.2023 -7516.3103 306.8097 -9347.5126 -7607.8599 299.7817 -315.6602 -261.3402 31138.1007 35.3993 88.2821
ENERGY: 1500000 3.4031 4.2783 4.6147 0.0000 -10880.3422 1435.0103 0.0000 0.0000 1740.2933 -7692.7424 291.5783 -9433.0357 -7613.6998 299.2979 -529.3915 -388.3896 31086.7144 66.7878 127.9254
TCL: Running FEP window   3: Lambda1 0.8999999999999999 Lambda2 0.8499999999999999 [dLambda -0.050000000000000044]
TCL: Setting parameter firsttimestep to 0
TCL: Setting parameter alchLambda to 0.8999999999999999
Info: NONBONDED TABLE R-SQUARED SPACING: 0.0625
Info: NONBONDED TABLE SIZE: 705 POINTS
TCL: Setting parameter alchLambda2 to 0.8499999999999999
Info: NONBONDED TABLE R-SQUARED SPACING: 0.0625
Info: NONBONDED TABLE SIZE: 705 POINTS
TCL: Running for 1500000 steps
ETITLE: TS BOND ANGLE DIHED IMPRP ELECT VDW BOUNDARY MISC KINETIC TOTAL TEMP POTENTIAL TOTALAVG TEMPAVG PRESSURE GPRESSURE VOLUME PRESSAVG GPRESSAVG
ENERGY: 0 3.4031 4.2783 4.6147 0.0000 -10880.1644 1435.4706 0.0000 0.0000 1739.4237 -7692.9739 291.4326 -9432.3976 -7692.9739 291.4326 -478.1305 -392.5675 31086.7144 -478.1305 -392.5675
ENERGY: 300000 2.5445 2.2324 3.1349 0.0000 -10782.7747 1407.9736 0.0000 0.0000 1760.8549 -7606.0344 295.0233 -9366.8892 -7635.9391 297.7947 -308.5059 -214.1814 30864.3520 -148.3950 -68.0377
ENERGY: 600000 4.8105 1.8577 2.6333 0.0000 -10924.2594 1524.9500 0.0000 0.0000 1784.1221 -7605.8858 298.9216 -9390.0078 -7635.8935 296.9795 356.7403 489.9315 30819.9114 -59.7373 16.0531
ENERGY: 900000 2.0301 2.1234 4.9677 0.0000 -10911.6128 1506.2370 0.0000 0.0000 1777.4559 -7618.7987 297.8047 -9396.2546 -7626.1349 298.2118 302.8590 364.5348 31104.5207 -51.4494 18.9810
ENERGY: 1200000 1.8923 1.3442 4.4129 0.0000 -10772.0491 1317.1901 0.0000 0.0000 1765.8065 -7681.4031 295.8529 -9447.2096 -7628.2732 298.4162 -1113.2181 -1046.8756 31034.2966 -126.6137 -55.8036
ENERGY: 1500000 5.4125 1.6754 1.8653 0.0000 -10828.4900 1419.9757 0.0000 0.0000 1809.3991 -7590.1620 303.1567 -9399.5612 -7622.5256 297.9825 -467.1334 -414.2046 31186.0160 -161.5424 -94.4169
TCL: Running FEP window   4: Lambda1 0.8499999999999999 Lambda2 0.7999999999999998 [dLambda -0.050000000000000044]
TCL: Setting parameter firsttimestep to 0
TCL: Setting parameter alchLambda to 0.8499999999999999
Info: NONBONDED TABLE R-SQUARED SPACING: 0.0625
Info: NONBONDED TABLE SIZE: 705 POINTS
TCL: Setting parameter alchLambda2 to 0.7999999999999998
Info: NONBONDED TABLE R-SQUARED SPACING: 0.0625
Info: NONBONDED TABLE SIZE: 705 POINTS
TCL: Running for 1500000 steps
ETITLE: TS BOND ANGLE DIHED IMPRP ELECT VDW BOUNDARY MISC KINETIC TOTAL TEMP POTENTIAL TOTALAVG TEMPAVG PRESSURE GPRESSURE VOLUME PRESSAVG GPRESSAVG
ENERGY: 0 5.4125 1.6754 1.8653 0.0000 -10827.9114 1419.9227 0.0000 0.0000 1808.5221 -7590.5134 303.0097 -9399.0355 -7590.5134 303.0097 -512.6877 -424.6309 31186.0160 -512.6877 -424.6309
ENERGY: 300000 2.0809 3.3301 5.2033 0.0000 -10835.5338 1394.4681 0.0000 0.0000 1795.1345 -7635.3170 300.7667 -9430.4515 -7626.1713 300.0703 -522.4693 -509.2066 31052.6299 -326.1172 -281.1252
ENERGY: 600000 3.2840 5.1509 4.1701 0.0000 -10959.3805 1511.4207 0.0000 0.0000 1781.0955 -7654.2592 298.4145 -9435.3547 -7626.6853 302.2554 407.4730 469.4930 30707.4801 -25.0082 33.1111
ENERGY: 900000 6.2751 2.0750 4.4151 0.0000 -10757.5291 1418.3303 0.0000 0.0000 1751.9269 -7574.5067 293.5275 -9326.4336 -7617.1403 301.4189 -317.1102 -266.3190 31220.5548 -52.5253 0.0013
ENERGY: 1200000 1.7810 1.8216 2.1136 0.0000 -10757.3204 1402.7701 0.0000 0.0000 1802.2551 -7546.5790 301.9597 -9348.8341 -7600.9202 301.9739 -396.9192 -324.0742 31144.7235 -129.1150 -70.2252
ENERGY: 1500000 4.9890 3.9570 7.5999 0.0000 -10970.9250 1540.4190 0.0000 0.0000 1784.0738 -7629.8864 298.9135 -9413.9602 -7608.6803 301.9074 347.6709 446.3181 31078.3340 -78.4826 -14.7276
TCL: Running FEP window   5: Lambda1 0.7999999999999998 Lambda2 0.7499999999999998 [dLambda -0.050000000000000044]
TCL: Setting parameter firsttimestep to 0
TCL: Setting parameter alchLambda to 0.7999999999999998
Info: NONBONDED TABLE R-SQUARED SPACING: 0.0625
Info: NONBONDED TABLE SIZE: 705 POINTS
TCL: Setting parameter alchLambda2 to 0.7499999999999998
Info: NONBONDED TABLE R-SQUARED SPACING: 0.0625
Info: NONBONDED TABLE SIZE: 705 POINTS
TCL: Running for 1500000 steps
ETITLE: TS BOND ANGLE DIHED IMPRP ELECT VDW BOUNDARY MISC KINETIC TOTAL TEMP POTENTIAL TOTALAVG TEMPAVG PRESSURE GPRESSURE VOLUME PRESSAVG GPRESSAVG
ENERGY: 0 4.9890 3.9570 7.5999 0.0000 -10969.8095 1540.8008 0.0000 0.0000 1783.1942 -7629.2686 298.7662 -9412.4629 -7629.2686 298.7662 369.6694 441.4849 31078.3340 369.6694 441.4849
ENERGY: 300000 4.1825 2.3331 4.2276 0.0000 -10804.8462 1451.2125 0.0000 0.0000 1820.7669 -7522.1236 305.0613 -9342.8905 -7603.3291 299.7515 230.7974 259.0959 30630.5116 60.2643 105.4101
ENERGY: 600000 1.9090 5.8004 4.2527 0.0000 -10749.9768 1391.2094 0.0000 0.0000 1741.1184 -7605.6870 291.7165 -9346.8054 -7592.6663 298.4031 -397.4876 -326.4878 30796.0461 -145.6546 -100.5718
ENERGY: 900000 0.9642 3.0965 1.1685 0.0000 -10839.7181 1434.2120 0.0000 0.0000 1797.9381 -7602.3387 301.2364 -9400.2769 -7593.3842 298.7983 -135.3570 -25.9458 30587.7747 -163.2509 -104.2969
ENERGY: 1200000 1.7468 3.0144 2.4335 0.0000 -10900.9359 1481.2116 0.0000 0.0000 1818.1016 -7594.4280 304.6147 -9412.5296 -7605.6067 298.4436 35.0007 48.5251 31096.3764 -156.5603 -101.1826
ENERGY: 1500000 2.3686 2.1373 3.5370 0.0000 -10813.4933 1422.1672 0.0000 0.0000 1766.3500 -7616.9331 295.9440 -9383.2831 -7616.4604 298.5579 -244.4729 -163.2120 31345.5277 -112.9882 -51.1674
TCL: Running FEP window   6: Lambda1 0.7499999999999998 Lambda2 0.6999999999999997 [dLambda -0.050000000000000044]
TCL: Setting parameter firsttimestep to 0
TCL: Setting parameter alchLambda to 0.7499999999999998
Info: NONBONDED TABLE R-SQUARED SPACING: 0.0625
Info: NONBONDED TABLE SIZE: 705 POINTS
TCL: Setting parameter alchLambda2 to 0.6999999999999997
Info: NONBONDED TABLE R-SQUARED SPACING: 0.0625
Info: NONBONDED TABLE SIZE: 705 POINTS
TCL: Running for 1500000 steps
ETITLE: TS BOND ANGLE DIHED IMPRP ELECT VDW BOUNDARY MISC KINETIC TOTAL TEMP POTENTIAL TOTALAVG TEMPAVG PRESSURE GPRESSURE VOLUME PRESSAVG GPRESSAVG
ENERGY: 0 2.3686 2.1373 3.5370 0.0000 -10812.9834 1422.0483 0.0000 0.0000 1765.4663 -7617.4259 295.7959 -9382.8922 -7617.4259 295.7959 -253.8272 -173.8360 31345.5277 -253.8272 -173.8360
ENERGY: 300000 9.1682 1.7157 2.1029 0.0000 -10886.7451 1445.6484 0.0000 0.0000 1797.2308 -7630.8791 301.1179 -9428.1099 -7618.7380 299.3925 -276.4997 -232.2262 30798.1321 -154.2279 -81.8955
ENERGY: 600000 2.9223 7.4779 1.3190 0.0000 -11092.6235 1549.7396 0.0000 0.0000 1765.9946 -7765.1701 295.8844 -9531.1647 -7625.9430 298.6325 349.1462 423.9125 30682.0449 -87.2441 -27.5388
ENERGY: 900000 3.2803 2.4830 2.4005 0.0000 -10904.9687 1493.3814 0.0000 0.0000 1823.5935 -7579.8299 305.5349 -9403.4234 -7602.7646 300.6971 400.9554 490.3368 30424.4013 -51.5137 12.5536
ENERGY: 1200000 1.8281 3.8116 2.7472 0.0000 -10974.8997 1544.8812 0.0000 0.0000 1768.4198 -7653.2119 296.2908 -9421.6316 -7614.5673 300.7528 708.2635 697.7914 30826.6253 15.2846 76.6125
ENERGY: 1500000 2.6916 4.7832 3.6695 0.0000 -10743.9322 1390.5633 0.0000 0.0000 1775.8867 -7566.3380 297.5418 -9342.2246 -7611.0911 300.6841 -581.1989 -476.9624 31280.4910 -17.5719 50.6221
TCL: Running FEP window   7: Lambda1 0.6999999999999997 Lambda2 0.6499999999999997 [dLambda -0.050000000000000044]
TCL: Setting parameter firsttimestep to 0
TCL: Setting parameter alchLambda to 0.6999999999999997
Info: NONBONDED TABLE R-SQUARED SPACING: 0.0625
Info: NONBONDED TABLE SIZE: 705 POINTS
TCL: Setting parameter alchLambda2 to 0.6499999999999997
Info: NONBONDED TABLE R-SQUARED SPACING: 0.0625
Info: NONBONDED TABLE SIZE: 705 POINTS
TCL: Running for 1500000 steps
ETITLE: TS BOND ANGLE DIHED IMPRP ELECT VDW BOUNDARY MISC KINETIC TOTAL TEMP POTENTIAL TOTALAVG TEMPAVG PRESSURE GPRESSURE VOLUME PRESSAVG GPRESSAVG
ENERGY: 0 2.6916 4.7832 3.6695 0.0000 -10743.6127 1390.8623 0.0000 0.0000 1775.0000 -7566.6061 297.3933 -9341.6061 -7566.6061 297.3933 -569.5241 -483.9081 31280.4910 -569.5241 -483.9081
ENERGY: 300000 5.3811 2.9503 0.9675 0.0000 -10849.8976 1435.8438 0.0000 0.0000 1871.8683 -7532.8865 313.6231 -9404.7549 -7579.8725 298.9646 -234.1716 -181.0922 30953.8709 -382.8603 -316.4377
ENERGY: 600000 4.8224 2.4186 2.7172 0.0000 -10694.9414 1393.3679 0.0000 0.0000 1799.3112 -7492.3043 301.4665 -9291.6154 -7566.4089 299.0685 -492.2133 -461.9428 31154.7058 -311.9219 -253.4645
ENERGY: 900000 1.5026 2.4965 3.9556 0.0000 -10826.9947 1437.6168 0.0000 0.0000 1790.5540 -7590.8691 299.9993 -9381.4231 -7562.0672 300.2000 -118.1311 -67.5128 30820.2005 -75.7990 -17.5788
ENERGY: 1200000 2.2434 2.0116 5.7973 0.0000 -10859.3310 1404.7213 0.0000 0.0000 1770.4352 -7674.1221 296.6284 -9444.5574 -7590.5639 299.0707 -748.5022 -674.1310 30931.5834 -195.3380 -138.7944
ENERGY: 1500000 7.7702 3.9740 3.1499 0.0000 -10806.3361 1415.4245 0.0000 0.0000 1759.2410 -7616.7767 294.7529 -9376.0176 -7593.9814 298.8487 -679.4280 -570.3647 30986.5882 -217.5145 -157.3675
TCL: Running FEP window   8: Lambda1 0.6499999999999997 Lambda2 0.5999999999999996 [dLambda -0.050000000000000044]
TCL: Setting parameter firsttimestep to 0
TCL: Setting parameter alchLambda to 0.6499999999999997
Info: NONBONDED TABLE R-SQUARED SPACING: 0.0625
Info: NONBONDED TABLE SIZE: 705 POINTS
TCL: Setting parameter alchLambda2 to 0.5999999999999996
Info: NONBONDED TABLE R-SQUARED SPACING: 0.0625
Info: NONBONDED TABLE SIZE: 705 POINTS
TCL: Running for 1500000 steps
ETITLE: TS BOND ANGLE DIHED IMPRP ELECT VDW BOUNDARY MISC KINETIC TOTAL TEMP POTENTIAL TOTALAVG TEMPAVG PRESSURE GPRESSURE VOLUME PRESSAVG GPRESSAVG
ENERGY: 0 7.7702 3.9740 3.1499 0.0000 -10806.1873 1415.8508 0.0000 0.0000 1758.3417 -7617.1009 294.6022 -9375.4425 -7617.1009 294.6022 -674.0988 -574.2345 30986.5882 -674.0988 -574.2345
ENERGY: 300000 1.7930 6.0460 2.6387 0.0000 -10874.3125 1474.1314 0.0000 0.0000 1804.6509 -7585.0526 302.3611 -9389.7035 -7604.2646 299.9782 -40.8111 65.4880 31159.1178 -167.2725 -79.5316
ENERGY: 600000 3.7591 5.4128 2.8926 0.0000 -10836.0071 1472.4943 0.0000 0.0000 1726.1526 -7625.2957 289.2091 -9351.4483 -7617.8587 297.9937 230.6419 317.6051 30809.1124 -158.5599 -70.8682
ENERGY: 900000 5.3887 3.5300 2.8148 0.0000 -10887.4745 1521.8576 0.0000 0.0000 1750.8594 -7603.0241 293.3486 -9353.8835 -7604.1509 297.4152 561.7767 640.4489 30680.4377 -7.5161 72.9036
ENERGY: 1200000 2.9593 3.2661 1.2365 0.0000 -10891.7553 1506.5097 0.0000 0.0000 1781.2936 -7596.4899 298.4477 -9377.7836 -7591.9842 298.9205 541.4433 615.7643 30685.4454 87.1423 161.3747
ENERGY: 1500000 1.5875 2.6939 3.7340 0.0000 -10944.4252 1528.5250 0.0000 0.0000 1819.4042 -7588.4806 304.8330 -9407.8848 -7587.2016 300.0770 480.3329 571.8188 31016.6676 142.7773 213.5879
TCL: Running FEP window   9: Lambda1 0.5999999999999996 Lambda2 0.5499999999999996 [dLambda -0.050000000000000044]
TCL: Setting parameter firsttimestep to 0
TCL: Setting parameter alchLambda to 0.5999999999999996
Info: NONBONDED TABLE R-SQUARED SPACING: 0.0625
Info: NONBONDED TABLE SIZE: 705 POINTS
TCL: Setting parameter alchLambda2 to 0.5499999999999996
Info: NONBONDED TABLE R-SQUARED SPACING: 0.0625
Info: NONBONDED TABLE SIZE: 705 POINTS
TCL: Running for 1500000 steps
ETITLE: TS BOND ANGLE DIHED IMPRP ELECT VDW BOUNDARY MISC KINETIC TOTAL TEMP POTENTIAL TOTALAVG TEMPAVG PRESSURE GPRESSURE VOLUME PRESSAVG GPRESSAVG
ENERGY: 0 1.5875 2.6939 3.7340 0.0000 -10944.3005 1528.9339 0.0000 0.0000 1818.4865 -7588.8647 304.6792 -9407.3511 -7588.8647 304.6792 485.9709 566.8145 31016.6676 485.9709 566.8145
ENERGY: 300000 1.7509 2.9806 3.7405 0.0000 -10822.0693 1518.0626 0.0000 0.0000 1809.0460 -7486.4886 303.0975 -9295.5347 -7551.3444 302.7529 638.7660 683.2940 30901.1570 -51.3442 29.3901
ENERGY: 600000 1.5211 4.4011 3.4868 0.0000 -10747.4356 1385.2951 0.0000 0.0000 1788.5591 -7564.1723 299.6650 -9352.7315 -7572.3123 300.1799 -486.7538 -405.6126 30962.3321 -99.7297 -28.8554
ENERGY: 900000 2.5152 3.9119 2.9127 0.0000 -10939.9938 1478.5007 0.0000 0.0000 1803.6060 -7648.5473 302.1861 -9452.1533 -7583.0532 300.0282 13.9489 130.1816 30632.0952 -87.3348 -8.4500
ENERGY: 1200000 3.0186 1.9874 2.7256 0.0000 -10940.9173 1503.2615 0.0000 0.0000 1755.2499 -7674.6742 294.0842 -9429.9241 -7593.8454 300.2964 355.0865 350.2413 30452.2317 36.6146 97.7956
ENERGY: 1500000 2.5404 3.4245 3.9990 0.0000 -11039.1296 1585.0397 0.0000 0.0000 1791.5071 -7652.6189 300.1589 -9444.1260 -7600.9405 299.9159 925.8003 980.5978 30582.9990 115.2111 178.7451
TCL: Running FEP window  10: Lambda1 0.5499999999999996 Lambda2 0.4999999999999996 [dLambda -0.04999999999999999]
TCL: Setting parameter firsttimestep to 0
TCL: Setting parameter alchLambda to 0.5499999999999996
Info: NONBONDED TABLE R-SQUARED SPACING: 0.0625
Info: NONBONDED TABLE SIZE: 705 POINTS
TCL: Setting parameter alchLambda2 to 0.4999999999999996
Info: NONBONDED TABLE R-SQUARED SPACING: 0.0625
Info: NONBONDED TABLE SIZE: 705 POINTS
TCL: Running for 1500000 steps
ETITLE: TS BOND ANGLE DIHED IMPRP ELECT VDW BOUNDARY MISC KINETIC TOTAL TEMP POTENTIAL TOTALAVG TEMPAVG PRESSURE GPRESSURE VOLUME PRESSAVG GPRESSAVG
ENERGY: 0 2.5404 3.4245 3.9990 0.0000 -11038.9211 1585.1953 0.0000 0.0000 1790.5589 -7653.2030 300.0001 -9443.7619 -7653.2030 300.0001 886.0142 975.3849 30582.9990 886.0142 975.3849
ENERGY: 300000 4.6875 3.6837 4.9544 0.0000 -10824.8353 1371.3542 0.0000 0.0000 1737.3898 -7702.7655 291.0918 -9440.1554 -7697.8568 294.8807 -1175.2746 -1144.2969 31259.9445 -61.3737 3.3478
ENERGY: 600000 3.3437 2.3686 2.1177 0.0000 -10817.9405 1425.1917 0.0000 0.0000 1776.6603 -7608.2585 297.6714 -9384.9188 -7656.9147 293.9394 -400.3372 -323.8541 30798.3709 -284.4846 -213.8372
ENERGY: 900000 2.0086 3.0340 2.4129 0.0000 -10822.3494 1432.6228 0.0000 0.0000 1806.5692 -7575.7019 302.6825 -9382.2711 -7624.9067 297.9140 -70.7048 -38.7433 30710.6090 -257.7245 -200.9435
ENERGY: 1200000 2.7791 2.8229 2.3758 0.0000 -10807.5619 1411.3040 0.0000 0.0000 1791.1565 -7597.1237 300.1002 -9388.2802 -7632.4554 297.2062 -503.7491 -491.2576 31131.9819 -254.7881 -203.3689
ENERGY: 1500000 1.7524 4.9281 1.0778 0.0000 -10824.5082 1430.5061 0.0000 0.0000 1730.9978 -7655.2460 290.0209 -9386.2438 -7628.0136 296.4980 -367.0119 -297.2277 31050.1893 -214.1465 -159.8963
TCL: Running FEP window  11: Lambda1 0.4999999999999996 Lambda2 0.4499999999999996 [dLambda -0.04999999999999999]
TCL: Setting parameter firsttimestep to 0
TCL: Setting parameter alchLambda to 0.4999999999999996
Info: NONBONDED TABLE R-SQUARED SPACING: 0.0625
Info: NONBONDED TABLE SIZE: 705 POINTS
TCL: Setting parameter alchLambda2 to 0.4499999999999996
Info: NONBONDED TABLE R-SQUARED SPACING: 0.0625
Info: NONBONDED TABLE SIZE: 705 POINTS
TCL: Running for 1500000 steps
ETITLE: TS BOND ANGLE DIHED IMPRP ELECT VDW BOUNDARY MISC KINETIC TOTAL TEMP POTENTIAL TOTALAVG TEMPAVG PRESSURE GPRESSURE VOLUME PRESSAVG GPRESSAVG
ENERGY: 0 1.7524 4.9281 1.0778 0.0000 -10823.5642 1430.1722 0.0000 0.0000 1730.0836 -7655.5501 289.8677 -9385.6337 -7655.5501 289.8677 -384.3578 -304.0570 31050.1893 -384.3578 -304.0570
ENERGY: 300000 1.5420 2.5282 3.7976 0.0000 -10872.3534 1478.4434 0.0000 0.0000 1752.6800 -7633.3623 293.6536 -9386.0423 -7597.8497 298.1201 208.6367 253.4482 30483.1470 174.3170 238.3145
ENERGY: 600000 3.5081 3.7357 2.6357 0.0000 -10683.5318 1383.5995 0.0000 0.0000 1822.7105 -7467.3424 305.3869 -9290.0529 -7575.4638 299.4947 -658.8461 -594.6473 31612.6834 39.6214 96.6496
ENERGY: 900000 4.0579 2.2377 0.9563 0.0000 -10867.8610 1510.0733 0.0000 0.0000 1833.5745 -7516.9612 307.2071 -9350.5357 -7575.3935 299.8107 82.1176 201.2723 31367.5678 54.5567 122.4419
ENERGY: 1200000 1.9019 2.9189 2.4791 0.0000 -10935.3748 1560.1130 0.0000 0.0000 1794.8385 -7573.1235 300.7171 -9367.9620 -7566.0811 301.0895 847.6518 882.3449 30918.0331 128.9914 189.4606
ENERGY: 1500000 2.2552 3.9510 2.9334 0.0000 -11007.5764 1529.8136 0.0000 0.0000 1814.0032 -7654.6201 303.9281 -9468.6234 -7567.6410 301.7330 734.7902 752.8241 30038.7646 189.4864 247.3199
TCL: Running FEP window  12: Lambda1 0.4499999999999996 Lambda2 0.39999999999999963 [dLambda -0.04999999999999999]
TCL: Setting parameter firsttimestep to 0
TCL: Setting parameter alchLambda to 0.4499999999999996
Info: NONBONDED TABLE R-SQUARED SPACING: 0.0625
Info: NONBONDED TABLE SIZE: 705 POINTS
TCL: Setting parameter alchLambda2 to 0.39999999999999963
Info: NONBONDED TABLE R-SQUARED SPACING: 0.0625
Info: NONBONDED TABLE SIZE: 705 POINTS
TCL: Running for 1500000 steps
ETITLE: TS BOND ANGLE DIHED IMPRP ELECT VDW BOUNDARY MISC KINETIC TOTAL TEMP POTENTIAL TOTALAVG TEMPAVG PRESSURE GPRESSURE VOLUME PRESSAVG GPRESSAVG
ENERGY: 0 2.2552 3.9510 2.9334 0.0000 -11007.5771 1530.1121 0.0000 0.0000 1813.1166 -7655.2089 303.7795 -9468.3255 -7655.2089 303.7795 657.0945 750.8503 30038.7646 657.0945 750.8503
ENERGY: 300000 1.3861 5.7768 6.7191 0.0000 -10767.4940 1453.4634 0.0000 0.0000 1766.3103 -7533.8383 295.9373 -9300.1486 -7571.6575 303.0387 -8.5703 82.8791 31077.2769 22.1273 74.1369
ENERGY: 600000 0.8390 2.7292 3.0777 0.0000 -10786.8788 1466.3046 0.0000 0.0000 1789.1083 -7524.8200 299.7570 -9313.9282 -7577.4888 301.2140 431.1219 490.3007 30483.6022 71.3878 129.0590
ENERGY: 900000 1.8550 3.5298 2.1806 0.0000 -10954.1081 1499.2979 0.0000 0.0000 1813.8280 -7633.4168 303.8987 -9447.2448 -7587.7872 300.1966 361.5642 397.1544 30541.9349 -5.3777 52.7275
ENERGY: 1200000 5.9915 4.1924 2.3821 0.0000 -10826.1974 1434.1741 0.0000 0.0000 1834.5137 -7544.9435 307.3645 -9379.4572 -7589.5202 299.3979 -318.4698 -262.4777 31214.5204 -85.6810 -22.6159
ENERGY: 1500000 3.7955 5.7066 1.8997 0.0000 -10924.8337 1498.8060 0.0000 0.0000 1748.2648 -7666.3611 292.9139 -9414.6259 -7592.9007 299.1359 134.3525 195.4863 31064.1001 -29.1400 36.7556
TCL: Running FEP window  13: Lambda1 0.39999999999999963 Lambda2 0.34999999999999964 [dLambda -0.04999999999999999]
TCL: Setting parameter firsttimestep to 0
TCL: Setting parameter alchLambda to 0.39999999999999963
Info: NONBONDED TABLE R-SQUARED SPACING: 0.0625
Info: NONBONDED TABLE SIZE: 705 POINTS
TCL: Setting parameter alchLambda2 to 0.34999999999999964
Info: NONBONDED TABLE R-SQUARED SPACING: 0.0625
Info: NONBONDED TABLE SIZE: 705 POINTS
TCL: Running for 1500000 steps
ETITLE: TS BOND ANGLE DIHED IMPRP ELECT VDW BOUNDARY MISC KINETIC TOTAL TEMP POTENTIAL TOTALAVG TEMPAVG PRESSURE GPRESSURE VOLUME PRESSAVG GPRESSAVG
ENERGY: 0 3.7955 5.7066 1.8997 0.0000 -10924.8341 1499.2006 0.0000 0.0000 1747.4048 -7666.8268 292.7698 -9414.2317 -7666.8268 292.7698 121.6741 192.0404 31064.1001 121.6741 192.0404
ENERGY: 300000 5.5882 2.1316 4.1687 0.0000 -10872.9820 1433.5196 0.0000 0.0000 1732.4479 -7695.1262 290.2638 -9427.5740 -7603.4902 301.2000 -762.1228 -645.6500 31326.8314 262.1791 353.8568
ENERGY: 600000 1.7858 2.0934 8.0095 0.0000 -10699.8872 1370.4920 0.0000 0.0000 1813.6229 -7503.8836 303.8643 -9317.5065 -7577.2722 302.3119 -607.9887 -515.8176 31149.7266 101.0426 178.3268
ENERGY: 900000 0.4448 2.5756 2.1177 0.0000 -10951.9856 1487.4832 0.0000 0.0000 1773.0322 -7686.3322 297.0636 -9459.3644 -7593.9281 301.0213 -87.6602 28.2396 30873.0745 -10.8526 64.6628
ENERGY: 1200000 1.6758 3.9244 4.5920 0.0000 -10827.1523 1433.6015 0.0000 0.0000 1777.5774 -7605.7812 297.8251 -9383.3586 -7581.5737 301.5569 -411.6132 -337.4894 31416.3510 -8.0785 56.9327
ENERGY: 1500000 3.1887 3.8088 3.6375 0.0000 -10813.3945 1399.7507 0.0000 0.0000 1793.0158 -7609.9929 300.4117 -9403.0088 -7589.7839 300.6585 -542.8173 -565.4928 31222.6340 1.1038 60.1449
TCL: Running FEP window  14: Lambda1 0.34999999999999964 Lambda2 0.29999999999999966 [dLambda -0.04999999999999999]
TCL: Setting parameter firsttimestep to 0
TCL: Setting parameter alchLambda to 0.34999999999999964
Info: NONBONDED TABLE R-SQUARED SPACING: 0.0625
Info: NONBONDED TABLE SIZE: 705 POINTS
TCL: Setting parameter alchLambda2 to 0.29999999999999966
Info: NONBONDED TABLE R-SQUARED SPACING: 0.0625
Info: NONBONDED TABLE SIZE: 705 POINTS
TCL: Running for 1500000 steps
ETITLE: TS BOND ANGLE DIHED IMPRP ELECT VDW BOUNDARY MISC KINETIC TOTAL TEMP POTENTIAL TOTALAVG TEMPAVG PRESSURE GPRESSURE VOLUME PRESSAVG GPRESSAVG
ENERGY: 0 3.1887 3.8088 3.6375 0.0000 -10813.3945 1399.2246 0.0000 0.0000 1792.1065 -7611.4284 300.2594 -9403.5349 -7611.4284 300.2594 -647.9867 -575.8571 31222.6340 -647.9867 -575.8571
ENERGY: 300000 2.0013 3.7673 1.3807 0.0000 -10904.4639 1446.6250 0.0000 0.0000 1848.3354 -7602.3543 309.6803 -9450.6897 -7628.3992 302.8184 -46.2484 0.2646 30536.4661 33.2919 106.4831
ENERGY: 600000 5.8308 1.7383 1.7816 0.0000 -10800.5367 1447.5925 0.0000 0.0000 1793.5805 -7550.0129 300.5063 -9343.5935 -7608.3582 301.5584 -247.9461 -201.7018 30941.2680 11.7107 86.7325
ENERGY: 900000 3.0240 4.4724 2.0152 0.0000 -10798.3638 1382.6348 0.0000 0.0000 1781.7198 -7624.4975 298.5191 -9406.2173 -7614.7466 301.0491 -656.0169 -633.9153 30553.1879 -92.1864 -20.4980
ENERGY: 1200000 2.0882 2.3772 2.6972 0.0000 -10813.1099 1383.6016 0.0000 0.0000 1816.7918 -7605.5539 304.3953 -9422.3457 -7612.2391 300.2469 -746.3233 -643.0881 30885.6193 -206.9506 -131.0580
ENERGY: 1500000 1.8743 3.9978 1.9272 0.0000 -10944.1247 1532.5939 0.0000 0.0000 1767.2036 -7636.5279 296.0870 -9403.7314 -7616.8276 299.7247 608.5140 664.3002 30716.7544 -169.8792 -97.8126
TCL: Running FEP window  15: Lambda1 0.29999999999999966 Lambda2 0.24999999999999967 [dLambda -0.04999999999999999]
TCL: Setting parameter firsttimestep to 0
TCL: Setting parameter alchLambda to 0.29999999999999966
Info: NONBONDED TABLE R-SQUARED SPACING: 0.0625
Info: NONBONDED TABLE SIZE: 705 POINTS
TCL: Setting parameter alchLambda2 to 0.24999999999999967
Info: NONBONDED TABLE R-SQUARED SPACING: 0.0625
Info: NONBONDED TABLE SIZE: 705 POINTS
TCL: Running for 1500000 steps
ETITLE: TS BOND ANGLE DIHED IMPRP ELECT VDW BOUNDARY MISC KINETIC TOTAL TEMP POTENTIAL TOTALAVG TEMPAVG PRESSURE GPRESSURE VOLUME PRESSAVG GPRESSAVG
ENERGY: 0 1.8744 3.9978 1.9272 0.0000 -10944.1244 1532.8483 0.0000 0.0000 1766.2808 -7637.1961 295.9324 -9403.4768 -7637.1961 295.9324 585.8117 660.2948 30716.7544 585.8117 660.2948
ENERGY: 300000 3.1600 4.6671 7.7041 0.0000 -10922.3832 1511.9546 0.0000 0.0000 1824.6417 -7570.2558 305.7105 -9394.8975 -7600.3967 301.5006 127.6425 185.7286 31241.5624 246.6512 311.8595
ENERGY: 600000 3.8883 6.3011 2.9449 0.0000 -10839.9505 1453.8096 0.0000 0.0000 1797.2647 -7575.7420 301.1236 -9373.0067 -7608.2830 299.6547 -106.3269 -45.1275 30696.4944 266.2256 324.4388
ENERGY: 900000 3.0453 1.6064 4.1654 0.0000 -10848.0654 1458.6277 0.0000 0.0000 1788.0619 -7592.5588 299.5817 -9380.6207 -7591.9804 300.5661 12.5767 66.7731 30887.2640 155.8905 220.1370
ENERGY: 1200000 3.2776 2.9347 2.0712 0.0000 -10804.7722 1436.3237 0.0000 0.0000 1738.7663 -7621.3987 291.3225 -9360.1650 -7596.1911 298.6906 -393.7793 -327.4690 31176.8433 55.0888 119.8846
ENERGY: 1500000 3.3156 3.4177 2.0454 0.0000 -10860.7583 1436.9813 0.0000 0.0000 1807.0301 -7607.9682 302.7597 -9414.9982 -7591.6020 299.8154 -303.0959 -223.0259 30769.6046 -28.9030 34.0680
TCL: Running FEP window  16: Lambda1 0.24999999999999967 Lambda2 0.19999999999999968 [dLambda -0.04999999999999999]
TCL: Setting parameter firsttimestep to 0
TCL: Setting parameter alchLambda to 0.24999999999999967
Info: NONBONDED TABLE R-SQUARED SPACING: 0.0625
Info: NONBONDED TABLE SIZE: 705 POINTS
TCL: Setting parameter alchLambda2 to 0.19999999999999968
Info: NONBONDED TABLE R-SQUARED SPACING: 0.0625
Info: NONBONDED TABLE SIZE: 705 POINTS
TCL: Running for 1500000 steps
ETITLE: TS BOND ANGLE DIHED IMPRP ELECT VDW BOUNDARY MISC KINETIC TOTAL TEMP POTENTIAL TOTALAVG TEMPAVG PRESSURE GPRESSURE VOLUME PRESSAVG GPRESSAVG
ENERGY: 0 3.3156 3.4177 2.0454 0.0000 -10860.7574 1437.2612 0.0000 0.0000 1806.1554 -7608.5620 302.6132 -9414.7174 -7608.5620 302.6132 -317.1404 -225.1947 30769.6046 -317.1404 -225.1947
ENERGY: 300000 1.9531 2.8166 7.3830 0.0000 -10967.4593 1520.3487 0.0000 0.0000 1750.5635 -7684.3946 293.2990 -9434.9580 -7658.6876 298.5860 169.9933 264.2886 30527.5603 -247.8978 -196.9344
ENERGY: 600000 2.6226 2.7818 2.9652 0.0000 -10827.5960 1396.0132 0.0000 0.0000 1861.0583 -7562.1547 311.8119 -9423.2130 -7649.2006 299.4770 -559.0690 -537.1569 30824.5744 -382.5320 -332.8920
ENERGY: 900000 2.1019 2.0854 3.8006 0.0000 -10934.7286 1493.2522 0.0000 0.0000 1820.1599 -7613.3285 304.9596 -9433.4884 -7643.6774 299.6045 157.9115 208.8295 30627.9463 -274.5522 -224.6181
ENERGY: 1200000 1.8232 1.8180 4.1321 0.0000 -10846.5557 1509.0466 0.0000 0.0000 1801.1165 -7528.6194 301.7689 -9329.7359 -7627.7046 300.0961 502.5134 537.9862 31013.2126 -143.9701 -98.5602
ENERGY: 1500000 2.2067 4.2884 4.2641 0.0000 -10809.2025 1436.3358 0.0000 0.0000 1746.8325 -7615.2750 292.6739 -9362.1075 -7621.7711 299.9713 -289.1107 -239.3223 30925.6708 -141.0668 -92.8632
TCL: Running FEP window  17: Lambda1 0.19999999999999968 Lambda2 0.1499999999999997 [dLambda -0.04999999999999999]
TCL: Setting parameter firsttimestep to 0
TCL: Setting parameter alchLambda to 0.19999999999999968
Info: NONBONDED TABLE R-SQUARED SPACING: 0.0625
Info: NONBONDED TABLE SIZE: 705 POINTS
TCL: Setting parameter alchLambda2 to 0.1499999999999997
Info: NONBONDED TABLE R-SQUARED SPACING: 0.0625
Info: NONBONDED TABLE SIZE: 705 POINTS
TCL: Running for 1500000 steps
ETITLE: TS BOND ANGLE DIHED IMPRP ELECT VDW BOUNDARY MISC KINETIC TOTAL TEMP POTENTIAL TOTALAVG TEMPAVG PRESSURE GPRESSURE VOLUME PRESSAVG GPRESSAVG
ENERGY: 0 2.2067 4.2884 4.2641 0.0000 -10809.2015 1435.8389 0.0000 0.0000 1745.9604 -7616.6430 292.5278 -9362.6034 -7616.6430 292.5278 -323.4518 -243.8149 30925.6708 -323.4518 -243.8149
ENERGY: 300000 3.5748 5.0095 3.3586 0.0000 -10868.0352 1463.1167 0.0000 0.0000 1795.1358 -7597.8398 300.7669 -9392.9756 -7621.2555 296.0735 -127.9550 -72.6917 30716.6855 -33.1529 63.7802
ENERGY: 600000 4.6327 3.2478 1.8720 0.0000 -10811.0221 1414.9923 0.0000 0.0000 1757.4052 -7628.8721 294.4453 -9386.2773 -7611.7815 298.7815 -247.7668 -282.2851 30462.9207 -41.9946 25.1113
ENERGY: 900000 5.1231 2.2760 2.2003 0.0000 -10773.1188 1380.3596 0.0000 0.0000 1786.5514 -7596.6085 299.3286 -9383.1599 -7606.7326 299.4859 -715.3122 -675.3492 30858.8322 -125.7825 -63.9241
ENERGY: 1200000 3.0320 4.1166 4.6758 0.0000 -10831.5073 1438.8336 0.0000 0.0000 1775.2547 -7605.5947 297.4359 -9380.8494 -7620.1705 297.9313 -69.3342 -30.4654 30266.8117 -128.2433 -66.0380
ENERGY: 1500000 3.5270 3.1340 3.1363 0.0000 -10829.7230 1412.6304 0.0000 0.0000 1833.6572 -7573.6381 307.2210 -9407.2953 -7617.0992 298.0739 -591.6003 -556.0605 30942.6015 -73.4908 -14.6329
TCL: Running FEP window  18: Lambda1 0.1499999999999997 Lambda2 0.09999999999999969 [dLambda -0.05 ]
TCL: Setting parameter firsttimestep to 0
TCL: Setting parameter alchLambda to 0.1499999999999997
Info: NONBONDED TABLE R-SQUARED SPACING: 0.0625
Info: NONBONDED TABLE SIZE: 705 POINTS
TCL: Setting parameter alchLambda2 to 0.09999999999999969
Info: NONBONDED TABLE R-SQUARED SPACING: 0.0625
Info: NONBONDED TABLE SIZE: 705 POINTS
TCL: Running for 1500000 steps
ETITLE: TS BOND ANGLE DIHED IMPRP ELECT VDW BOUNDARY MISC KINETIC TOTAL TEMP POTENTIAL TOTALAVG TEMPAVG PRESSURE GPRESSURE VOLUME PRESSAVG GPRESSAVG
ENERGY: 0 3.5270 3.1340 3.1363 0.0000 -10829.7245 1412.5867 0.0000 0.0000 1832.7740 -7574.5665 307.0730 -9407.3405 -7574.5665 307.0730 -643.7321 -559.1601 30942.6015 -643.7321 -559.1601
ENERGY: 300000 2.8685 2.3143 0.9280 0.0000 -10887.8336 1470.5227 0.0000 0.0000 1768.3025 -7642.8976 296.2711 -9411.2002 -7596.5583 301.8776 -170.3827 -163.6580 31101.8106 -194.1646 -144.1222
ENERGY: 600000 2.6916 1.5190 2.0383 0.0000 -10898.5770 1557.7280 0.0000 0.0000 1775.6241 -7558.9761 297.4978 -9334.6002 -7588.9137 301.5772 643.6306 754.7416 30745.7091 -88.9441 -24.7590
ENERGY: 900000 1.3289 2.7316 7.6838 0.0000 -10934.4824 1522.1548 0.0000 0.0000 1806.5552 -7594.0281 302.6802 -9400.5833 -7575.3404 302.2472 228.8832 338.8083 30927.7020 -105.3493 -40.0535
ENERGY: 1200000 3.9691 1.9957 3.3775 0.0000 -10914.0159 1496.4957 0.0000 0.0000 1803.9342 -7604.2437 302.2410 -9408.1778 -7577.3856 301.7104 222.2785 277.5391 30444.0923 -147.3103 -85.7928
ENERGY: 1500000 1.5796 2.7847 4.5531 0.0000 -10924.4534 1478.3476 0.0000 0.0000 1829.4356 -7607.7528 306.5137 -9437.1884 -7581.2452 301.5330 53.0487 110.4192 30848.2918 -170.2793 -114.0103
TCL: Running FEP window  19: Lambda1 0.09999999999999969 Lambda2 0.049999999999999684 [dLambda -0.05 ]
TCL: Setting parameter firsttimestep to 0
TCL: Setting parameter alchLambda to 0.09999999999999969
Info: NONBONDED TABLE R-SQUARED SPACING: 0.0625
Info: NONBONDED TABLE SIZE: 705 POINTS
TCL: Setting parameter alchLambda2 to 0.049999999999999684
Info: NONBONDED TABLE R-SQUARED SPACING: 0.0625
Info: NONBONDED TABLE SIZE: 705 POINTS
TCL: Running for 1500000 steps
ETITLE: TS BOND ANGLE DIHED IMPRP ELECT VDW BOUNDARY MISC KINETIC TOTAL TEMP POTENTIAL TOTALAVG TEMPAVG PRESSURE GPRESSURE VOLUME PRESSAVG GPRESSAVG
ENERGY: 0 1.5796 2.7847 4.5531 0.0000 -10924.4532 1478.4237 0.0000 0.0000 1828.5529 -7608.5592 306.3658 -9437.1121 -7608.5592 306.3658 30.4322 110.0713 30848.2918 30.4322 110.0713
ENERGY: 300000 4.5261 7.2233 2.0841 0.0000 -10766.4260 1450.3135 0.0000 0.0000 1793.2813 -7508.9976 300.4562 -9302.2790 -7604.1983 297.4255 64.8090 133.1128 30767.9112 100.1529 149.1785
ENERGY: 600000 3.3783 2.6366 3.9928 0.0000 -10860.8990 1451.8472 0.0000 0.0000 1768.3060 -7630.7380 296.2717 -9399.0440 -7606.7401 296.8870 -268.2978 -227.3159 30981.8824 -65.6606 -20.9628
ENERGY: 900000 1.4608 5.0467 2.8272 0.0000 -10841.7549 1446.5047 0.0000 0.0000 1765.3623 -7620.5533 295.7785 -9385.9155 -7612.8991 297.8108 -129.7106 -0.4377 30327.5948 5.2978 45.7711
ENERGY: 1200000 1.1956 1.8341 2.7773 0.0000 -10973.8786 1497.8217 0.0000 0.0000 1762.9832 -7707.2666 295.3799 -9470.2498 -7617.4669 297.5262 -21.6733 67.5736 30801.6338 3.9552 46.1640
ENERGY: 1500000 2.8810 4.9981 4.4210 0.0000 -10813.7478 1480.1950 0.0000 0.0000 1785.4414 -7535.8113 299.1427 -9321.2527 -7615.4986 297.6680 359.9033 421.3473 30769.8340 12.9727 67.1957
TCL: Running FEP window  20: Lambda1 0.049999999999999684 Lambda2 0.0    [dLambda -0.049999999999999684]
TCL: Setting parameter firsttimestep to 0
TCL: Setting parameter alchLambda to 0.049999999999999684
Info: NONBONDED TABLE R-SQUARED SPACING: 0.0625
Info: NONBONDED TABLE SIZE: 705 POINTS
TCL: Setting parameter alchLambda2 to 0.0
Info: NONBONDED TABLE R-SQUARED SPACING: 0.0625
Info: NONBONDED TABLE SIZE: 705 POINTS
TCL: Running for 1500000 steps
ETITLE: TS BOND ANGLE DIHED IMPRP ELECT VDW BOUNDARY MISC KINETIC TOTAL TEMP POTENTIAL TOTALAVG TEMPAVG PRESSURE GPRESSURE VOLUME PRESSAVG GPRESSAVG
ENERGY: 0 2.8810 4.9981 4.4210 0.0000 -10813.7471 1480.7079 0.0000 0.0000 1784.5529 -7536.1862 298.9938 -9320.7391 -7536.1862 298.9938 334.9198 422.7285 30769.8340 334.9198 422.7285
ENERGY: 300000 1.7152 2.9618 3.8031 0.0000 -10877.3364 1455.0979 0.0000 0.0000 1739.3679 -7674.3905 291.4233 -9413.7584 -7602.6805 297.4320 121.5561 167.8449 30096.4409 290.6578 363.4042
ENERGY: 600000 1.5853 3.5737 3.4737 0.0000 -10843.3387 1482.7470 0.0000 0.0000 1810.4338 -7541.5252 303.3300 -9351.9590 -7593.9147 298.8891 395.0823 400.9829 30293.9774 147.6609 213.3732
ENERGY: 900000 2.2343 2.0938 3.2919 0.0000 -10934.0228 1492.5016 0.0000 0.0000 1763.8438 -7670.0575 295.5241 -9433.9013 -7592.5390 298.4470 -28.1415 0.5247 31131.9878 150.5539 208.2099
ENERGY: 1200000 4.2972 4.7856 1.4392 0.0000 -10873.0719 1422.9225 0.0000 0.0000 1770.8927 -7668.7347 296.7051 -9439.6274 -7599.4539 297.5970 -720.8824 -577.6458 30873.3926 34.1291 105.8756
ENERGY: 1500000 3.4255 2.1177 3.4222 0.0000 -10810.2642 1414.4285 0.0000 0.0000 1783.7445 -7603.1257 298.8584 -9386.8702 -7599.9127 297.8996 -346.3165 -316.0737 30819.5788 40.4018 108.7793
TCL: Exiting due to exit command.
