Info: SIMULATION PARAMETERS:
Info: TIMESTEP               2
Info: NUMBER OF STEPS        0
Info: STEPS PER CYCLE        10
Info: PERIODIC CELL BASIS 1  32.1373 0 0
Info: PERIODIC CELL BASIS 2  0 31.4233 0
Info: PERIODIC CELL BASIS 3  0 0 30.062
Info: PERIODIC CELL CENTER   0 0 0
Info: WRAPPING WATERS AROUND PERIODIC BOUNDARIES ON OUTPUT.
Info: WRAPPING ALL CLUSTERS AROUND PERIODIC BOUNDARIES ON OUTPUT.
Info: FIRST LDB TIMESTEP     50
Info: LAST LDB TIMESTEP     -1
Info: HOM BACKGROUND SCALING 1
Info: PME BACKGROUND SCALING 1
Info: MIN ATOMS PER PATCH    40
Info: EMPTY PATCH LOAD       40 ATOMS
Info: VELOCITY FILE          mobley_5263791_equil.vel
Info: CENTER OF MASS MOVING INITIALLY? NO
Info: DIELECTRIC             1
Info: EXCLUDE                SCALED ONE-FOUR
Info: 1-4 ELECTROSTATICS SCALED BY 0.833333
Info: MODIFIED 1-4 VDW PARAMETERS WILL BE USED
Info: DCD FILENAME           mobley_5263791_prod.dcd
Info: DCD FREQUENCY          100000
Info: DCD FIRST STEP         100000
Info: DCD FILE WILL CONTAIN UNIT CELL DATA
Info: XST FILENAME           mobley_5263791_prod.xst
Info: XST FREQUENCY          100000
Info: NO VELOCITY DCD OUTPUT
Info: NO FORCE DCD OUTPUT
Info: OUTPUT FILENAME        mobley_5263791_prod
Info: BINARY OUTPUT FILES WILL BE USED
Info: RESTART FILENAME       mobley_5263791_prod.restart
Info: RESTART FREQUENCY      100000
Info: BINARY RESTART FILES WILL BE USED
Info: CUTOFF                 9
Info: PAIRLIST DISTANCE      11
Info: PAIRLIST SHRINK RATE   0.01
Info: PAIRLIST GROW RATE     0.01
Info: PAIRLIST TRIGGER       0.3
Info: PAIRLISTS PER CYCLE    2
Info: PAIRLISTS ENABLED
Info: MARGIN                 2
Info: HYDROGEN GROUP CUTOFF  2.5
Info: PATCH DIMENSION        15.5
Info: ENERGY OUTPUT STEPS    100000
Info: ENERGY EVALUATION STEPS    100000
Info: OUTPUT ENERGY PRECISION 4
Info: CROSSTERM ENERGY INCLUDED IN DIHEDRAL
Info: TIMING OUTPUT STEPS    1000000
Info: PRESSURE OUTPUT STEPS  100000
Info: ALCHEMICAL FEP ON
Info: FEP CURRENT LAMBDA VALUE     1
Info: FEP COMPARISON LAMBDA VALUE  0.95
Info: FEP INTRA-ALCHEMICAL NON-BONDED INTERACTIONS WILL BE RETAINED
Info: FEP INTRA-ALCHEMICAL BONDED INTERACTIONS WILL BE RETAINED
Info: FEP VDW SHIFTING COEFFICIENT 5
Info: FEP ELEC. ACTIVE FOR ANNIHILATED PARTICLES BETWEEN LAMBDA = 0 AND LAMBDA = 0.5
Info: FEP ELEC. ACTIVE FOR EXNIHILATED PARTICLES BETWEEN LAMBDA = 0.5 AND LAMBDA = 1
Info: FEP VDW ACTIVE FOR ANNIHILATED PARTICLES BETWEEN LAMBDA = 0 AND LAMBDA = 1
Info: FEP VDW ACTIVE FOR EXNIHILATED PARTICLES BETWEEN LAMBDA = 0 AND LAMBDA = 1
Info: FEP BOND ACTIVE FOR ANNIHILATED PARTICLES BETWEEN LAMBDA = 1 AND LAMBDA = 1
Info: FEP BOND ACTIVE FOR EXNIHILATED PARTICLES BETWEEN LAMBDA = 0 AND LAMBDA = 0
Info: LANGEVIN DYNAMICS ACTIVE
Info: LANGEVIN TEMPERATURE   300
Info: LANGEVIN USING BBK INTEGRATOR
Info: LANGEVIN DAMPING COEFFICIENT IS 1 INVERSE PS
Info: LANGEVIN DYNAMICS APPLIED TO HYDROGENS
Info: LANGEVIN PISTON PRESSURE CONTROL ACTIVE
Info:        TARGET PRESSURE IS 1.01325 BAR
Info:     OSCILLATION PERIOD IS 50 FS
Info:             DECAY TIME IS 25 FS
Info:     PISTON TEMPERATURE IS 300 K
Info:       PRESSURE CONTROL IS GROUP-BASED
Info:    INITIAL STRAIN RATE IS 0.000249692 0.000249692 0.000249692
Info:       CELL FLUCTUATION IS ISOTROPIC
Info: PARTICLE MESH EWALD (PME) ACTIVE
Info: PME TOLERANCE               1e-06
Info: PME EWALD COEFFICIENT       0.348832
Info: PME INTERPOLATION ORDER     4
Info: PME GRID DIMENSIONS         36 32 32
Info: PME MAXIMUM GRID SPACING    1
Info: PME CALCULATION WILL BE PERFORMED ON GPU
Info: FULL ELECTROSTATIC EVALUATION FREQUENCY      2
Info: USING VERLET I (r-RESPA) MTS SCHEME.
Info: C1 SPLITTING OF LONG RANGE ELECTROSTATICS
Info: PLACING ATOMS IN PATCHES BY HYDROGEN GROUPS
Info: RIGID BONDS TO HYDROGEN : ALL
Info:         ERROR TOLERANCE : 1e-08
Info:          MAX ITERATIONS : 100
Info: RIGID WATER USING SETTLE ALGORITHM
Info: RANDOM NUMBER SEED     1743812408
Info: USE HYDROGEN BONDS?    NO
Info: Using AMBER format force field!
Info: AMBER PARM FILE        mobley_5263791.prmtop
Info: COORDINATE PDB         mobley_5263791.pdb
Info: Exclusions will be read from PARM file!
Info: SCNB (VDW SCALING)     2
Info: USING ARITHMETIC MEAN TO COMBINE L-J SIGMA PARAMETERS
Info: BINARY COORDINATES     mobley_5263791_equil.coor
Info: SUMMARY OF PARAMETERS:
Info: 7 BONDS
Info: 7 ANGLES
Info:   7 HARMONIC
Info:   0 COSINE-BASED
Info: 5 DIHEDRAL
Info: 0 IMPROPER
Info: 0 CROSSTERM
Info: 0 VDW
Info: 21 VDW_PAIRS
Info: 0 NBTHOLE_PAIRS
Info: To read alchdata from file: mobley_5263791.pdb
Info: To read alchflag data from column: 5
Info: STRUCTURE SUMMARY:
Info: 2943 ATOMS
Info: 2944 BONDS
Info: 42 ANGLES
Info: 69 DIHEDRALS
Info: 0 IMPROPERS
Info: 0 CROSSTERMS
Info: 3039 EXCLUSIONS
Info: 2931 RIGID BONDS
Info: ALCH: 0 ATOMS TO DISAPPEAR IN FINAL STATE
Info: ALCH: 24 ATOMS TO APPEAR IN FINAL STATE
Info: 5898 DEGREES OF FREEDOM
Info: 985 HYDROGEN GROUPS
Info: 4 ATOMS IN LARGEST HYDROGEN GROUP
Info: 985 MIGRATION GROUPS
Info: 4 ATOMS IN LARGEST MIGRATION GROUP
Info: TOTAL MASS = 17685.8 amu
Info: TOTAL CHARGE = 9.99849e-05 e
Info: MASS DENSITY = 0.967399 g/cm^3
Info: ATOM DENSITY = 0.0969421 atoms/A^3
Info: ADDED 0 IMPLICIT EXCLUSIONS
Info: NONBONDED TABLE R-SQUARED SPACING: 0.0625
Info: NONBONDED TABLE SIZE: 705 POINTS
Info: REDUCING NUMBER OF PATCHES TO IMPROVE LOAD BALANCE
Info: REMOVING COM VELOCITY 0.0693051 0.441449 0.166719
Info: Use 3D box decompostion in PME FFT.
Info: Updated CUDA force table with 4096 elements.
Info: Updated CUDA LJ table with 6 x 6 elements.
Info: Found 23 unique exclusion lists needing 76 bytes
TCL: Running for 1500000 steps
ETITLE: TS BOND ANGLE DIHED IMPRP ELECT VDW BOUNDARY MISC KINETIC TOTAL TEMP POTENTIAL TOTALAVG TEMPAVG PRESSURE GPRESSURE VOLUME PRESSAVG GPRESSAVG
ENERGY: 0 13.3563 8.0417 4.0851 0.0000 -10691.4528 1405.5245 0.0000 0.0000 1777.7359 -7482.7094 303.3562 -9260.4453 -7482.7094 303.3562 -273.1564 -188.2482 30358.3235 -273.1564 -188.2482
ENERGY: 300000 3.8946 6.6639 5.0760 0.0000 -10627.2424 1419.4605 0.0000 0.0000 1752.8312 -7439.3163 299.1064 -9192.1474 -7431.4520 302.6989 -242.3532 -147.8722 30239.3687 85.3220 149.2218
ENERGY: 600000 6.3942 9.8086 2.2746 0.0000 -10545.8197 1367.2904 0.0000 0.0000 1730.3924 -7429.6595 295.2774 -9160.0519 -7411.3416 301.4060 -547.5065 -467.0076 30413.7026 -73.4520 -29.3223
ENERGY: 900000 4.3471 7.6288 4.5536 0.0000 -10646.9458 1489.1349 0.0000 0.0000 1782.9155 -7358.3658 304.2400 -9141.2813 -7408.7081 301.3193 376.4869 433.7388 30372.4919 -188.5891 -139.7553
ENERGY: 1200000 4.7998 4.6130 5.7643 0.0000 -10660.9731 1436.5842 0.0000 0.0000 1691.0869 -7518.1248 288.5702 -9209.2117 -7423.6289 300.3154 -33.3157 73.5998 30232.7208 -167.3780 -113.8068
ENERGY: 1500000 3.1493 7.2998 4.7561 0.0000 -10606.8588 1427.2796 0.0000 0.0000 1758.7444 -7405.6295 300.1154 -9164.3739 -7420.3958 300.4569 -138.7128 -42.6304 30817.6618 -102.4658 -47.9443
TCL: Running FEP window   2: Lambda1 0.95   Lambda2 0.8999999999999999 [dLambda -0.050000000000000044]
TCL: Setting parameter firsttimestep to 0
TCL: Setting parameter alchLambda to 0.95
Info: NONBONDED TABLE R-SQUARED SPACING: 0.0625
Info: NONBONDED TABLE SIZE: 705 POINTS
TCL: Setting parameter alchLambda2 to 0.8999999999999999
Info: NONBONDED TABLE R-SQUARED SPACING: 0.0625
Info: NONBONDED TABLE SIZE: 705 POINTS
TCL: Running for 1500000 steps
ETITLE: TS BOND ANGLE DIHED IMPRP ELECT VDW BOUNDARY MISC KINETIC TOTAL TEMP POTENTIAL TOTALAVG TEMPAVG PRESSURE GPRESSURE VOLUME PRESSAVG GPRESSAVG
ENERGY: 0 3.1493 7.2998 4.7561 0.0000 -10606.1520 1427.5160 0.0000 0.0000 1757.8476 -7405.5831 299.9624 -9163.4307 -7405.5831 299.9624 -135.4118 -56.4288 30817.6618 -135.4118 -56.4288
ENERGY: 300000 3.3782 8.6102 7.8277 0.0000 -10559.7812 1428.2714 0.0000 0.0000 1771.0834 -7340.6103 302.2210 -9111.6937 -7375.8511 301.4883 68.5099 90.5864 30632.8168 -211.5672 -142.0380
ENERGY: 600000 3.2107 8.0546 4.0564 0.0000 -10458.6046 1381.9148 0.0000 0.0000 1749.3688 -7311.9992 298.5156 -9061.3680 -7376.1496 302.1652 -285.3711 -193.7318 30818.0063 -198.9224 -120.8222
ENERGY: 900000 4.1490 5.5727 5.2484 0.0000 -10644.7158 1437.2962 0.0000 0.0000 1758.8433 -7433.6062 300.1323 -9192.4495 -7402.7719 301.2723 78.1993 128.8716 30151.5198 -170.9328 -98.2055
ENERGY: 1200000 10.0350 7.5815 4.1154 0.0000 -10783.5922 1598.7129 0.0000 0.0000 1800.9807 -7362.1667 307.3227 -9163.1474 -7397.4193 302.0340 1062.8954 1078.6736 30266.5417 -87.0614 -24.9142
ENERGY: 1500000 5.0429 6.5086 4.0697 0.0000 -10603.3687 1430.6013 0.0000 0.0000 1731.0999 -7426.0463 295.3981 -9157.1462 -7394.2954 301.6717 -305.4238 -192.8593 30751.4347 -54.1314 9.7296
TCL: Running FEP window   3: Lambda1 0.8999999999999999 Lambda2 0.8499999999999999 [dLambda -0.050000000000000044]
TCL: Setting parameter firsttimestep to 0
TCL: Setting parameter alchLambda to 0.8999999999999999
Info: NONBONDED TABLE R-SQUARED SPACING: 0.0625
Info: NONBONDED TABLE SIZE: 705 POINTS
TCL: Setting parameter alchLambda2 to 0.8499999999999999
Info: NONBONDED TABLE R-SQUARED SPACING: 0.0625
Info: NONBONDED TABLE SIZE: 705 POINTS
TCL: Running for 1500000 steps
ETITLE: TS BOND ANGLE DIHED IMPRP ELECT VDW BOUNDARY MISC KINETIC TOTAL TEMP POTENTIAL TOTALAVG TEMPAVG PRESSURE GPRESSURE VOLUME PRESSAVG GPRESSAVG
ENERGY: 0 5.0429 6.5086 4.0697 0.0000 -10602.3105 1430.6299 0.0000 0.0000 1730.2507 -7425.8087 295.2532 -9156.0593 -7425.8087 295.2532 -303.6589 -207.6285 30751.4347 -303.6589 -207.6285
ENERGY: 300000 5.0443 9.9188 5.6170 0.0000 -10618.7801 1394.0882 0.0000 0.0000 1764.7126 -7439.3993 301.1339 -9204.1118 -7419.6617 297.7604 -285.2101 -247.5973 30432.2994 -132.5047 -52.5328
ENERGY: 600000 5.3819 7.5689 8.9071 0.0000 -10766.6507 1483.8984 0.0000 0.0000 1759.6545 -7501.2399 300.2707 -9260.8944 -7433.4682 298.8861 -130.9095 -100.3969 30359.3963 21.0937 90.2291
ENERGY: 900000 5.0548 5.1325 3.4379 0.0000 -10647.6755 1461.4338 0.0000 0.0000 1723.7776 -7448.8389 294.1486 -9172.6166 -7418.3838 299.5874 194.3768 252.4277 30352.5602 71.0712 139.3168
ENERGY: 1200000 4.4587 10.4343 1.1119 0.0000 -10598.0353 1455.1715 0.0000 0.0000 1809.3961 -7317.4630 308.7587 -9126.8591 -7409.1513 300.9413 328.2910 464.4714 30393.7555 41.6777 116.8162
ENERGY: 1500000 8.5040 10.9659 6.6125 0.0000 -10599.5707 1426.5143 0.0000 0.0000 1766.1337 -7380.8404 301.3764 -9146.9740 -7401.9401 301.7169 -122.9940 -48.0090 30257.3227 14.5327 89.2193
TCL: Running FEP window   4: Lambda1 0.8499999999999999 Lambda2 0.7999999999999998 [dLambda -0.050000000000000044]
TCL: Setting parameter firsttimestep to 0
TCL: Setting parameter alchLambda to 0.8499999999999999
Info: NONBONDED TABLE R-SQUARED SPACING: 0.0625
Info: NONBONDED TABLE SIZE: 705 POINTS
TCL: Setting parameter alchLambda2 to 0.7999999999999998
Info: NONBONDED TABLE R-SQUARED SPACING: 0.0625
Info: NONBONDED TABLE SIZE: 705 POINTS
TCL: Running for 1500000 steps
ETITLE: TS BOND ANGLE DIHED IMPRP ELECT VDW BOUNDARY MISC KINETIC TOTAL TEMP POTENTIAL TOTALAVG TEMPAVG PRESSURE GPRESSURE VOLUME PRESSAVG GPRESSAVG
ENERGY: 0 8.5041 10.9658 6.6125 0.0000 -10598.5733 1426.5557 0.0000 0.0000 1765.2605 -7380.6748 301.2274 -9145.9353 -7380.6748 301.2274 -138.8147 -58.4511 30257.3227 -138.8147 -58.4511
ENERGY: 300000 5.2602 4.5902 3.2959 0.0000 -10548.0075 1408.1371 0.0000 0.0000 1727.5447 -7399.1794 294.7915 -9126.7241 -7395.5200 298.6222 -303.2056 -172.9966 30416.5491 -243.7111 -164.0446
ENERGY: 600000 6.0174 8.6311 3.8192 0.0000 -10659.5350 1474.3851 0.0000 0.0000 1769.0295 -7397.6527 301.8705 -9166.6822 -7419.8161 297.8516 289.5962 392.3832 30720.2280 -279.3118 -193.1364
ENERGY: 900000 5.6105 11.2213 6.1212 0.0000 -10758.7403 1542.9695 0.0000 0.0000 1739.7103 -7453.1075 296.8674 -9192.8178 -7425.4476 298.3176 370.0686 416.9626 30747.4769 -185.2999 -112.2110
ENERGY: 1200000 2.2733 7.4989 3.6979 0.0000 -10605.5414 1417.3661 0.0000 0.0000 1766.6498 -7408.0553 301.4644 -9174.7051 -7420.7715 298.3937 -268.3418 -205.0770 30436.3893 -45.0558 25.3337
ENERGY: 1500000 3.0409 9.9014 4.7487 0.0000 -10576.7044 1413.1079 0.0000 0.0000 1766.3621 -7379.5435 301.4153 -9145.9055 -7427.4887 298.8585 -185.6092 -116.0438 30600.4523 -68.8315 -3.2542
TCL: Running FEP window   5: Lambda1 0.7999999999999998 Lambda2 0.7499999999999998 [dLambda -0.050000000000000044]
TCL: Setting parameter firsttimestep to 0
TCL: Setting parameter alchLambda to 0.7999999999999998
Info: NONBONDED TABLE R-SQUARED SPACING: 0.0625
Info: NONBONDED TABLE SIZE: 705 POINTS
TCL: Setting parameter alchLambda2 to 0.7499999999999998
Info: NONBONDED TABLE R-SQUARED SPACING: 0.0625
Info: NONBONDED TABLE SIZE: 705 POINTS
TCL: Running for 1500000 steps
ETITLE: TS BOND ANGLE DIHED IMPRP ELECT VDW BOUNDARY MISC KINETIC TOTAL TEMP POTENTIAL TOTALAVG TEMPAVG PRESSURE GPRESSURE VOLUME PRESSAVG GPRESSAVG
ENERGY: 0 3.0409 9.9014 4.7487 0.0000 -10576.1366 1413.5183 0.0000 0.0000 1765.4677 -7379.4596 301.2627 -9144.9273 -7379.4596 301.2627 -206.0296 -122.5734 30600.4523 -206.0296 -122.5734
ENERGY: 300000 4.5166 7.6151 2.5163 0.0000 -10713.0952 1459.6946 0.0000 0.0000 1767.9617 -7470.7908 301.6883 -9238.7525 -7424.1379 301.7128 199.1116 261.0861 30051.9930 -67.5441 11.5627
ENERGY: 600000 3.5029 7.0768 3.5163 0.0000 -10609.9925 1396.1017 0.0000 0.0000 1789.0455 -7410.7492 305.2861 -9199.7947 -7418.3799 301.0790 -595.5611 -548.8899 30620.6944 -354.5751 -297.1618
ENERGY: 900000 4.3485 5.1840 5.0829 0.0000 -10557.9520 1411.3590 0.0000 0.0000 1743.2740 -7388.7035 297.4756 -9131.9775 -7426.2617 300.0230 -274.8986 -221.0399 30375.0978 -340.9711 -278.6866
ENERGY: 1200000 7.5935 7.4698 7.8378 0.0000 -10550.2317 1373.3223 0.0000 0.0000 1749.9689 -7404.0395 298.6180 -9154.0084 -7433.4248 299.9134 -342.1045 -281.9701 30309.8048 -413.1383 -348.9762
ENERGY: 1500000 2.4672 6.5335 4.7615 0.0000 -10607.6511 1448.2707 0.0000 0.0000 1773.8601 -7371.7582 302.6948 -9145.6183 -7427.4908 300.3236 345.6774 445.5553 30269.6426 -319.2049 -252.4471
TCL: Running FEP window   6: Lambda1 0.7499999999999998 Lambda2 0.6999999999999997 [dLambda -0.050000000000000044]
TCL: Setting parameter firsttimestep to 0
TCL: Setting parameter alchLambda to 0.7499999999999998
Info: NONBONDED TABLE R-SQUARED SPACING: 0.0625
Info: NONBONDED TABLE SIZE: 705 POINTS
TCL: Setting parameter alchLambda2 to 0.6999999999999997
Info: NONBONDED TABLE R-SQUARED SPACING: 0.0625
Info: NONBONDED TABLE SIZE: 705 POINTS
TCL: Running for 1500000 steps
ETITLE: TS BOND ANGLE DIHED IMPRP ELECT VDW BOUNDARY MISC KINETIC TOTAL TEMP POTENTIAL TOTALAVG TEMPAVG PRESSURE GPRESSURE VOLUME PRESSAVG GPRESSAVG
ENERGY: 0 2.4672 6.5335 4.7615 0.0000 -10607.3008 1448.5015 0.0000 0.0000 1773.0018 -7372.0354 302.5484 -9145.0372 -7372.0354 302.5484 359.0728 438.2225 30269.6426 359.0728 438.2225
ENERGY: 300000 9.3572 8.2668 5.0436 0.0000 -10530.0931 1360.3679 0.0000 0.0000 1739.3760 -7407.6817 296.8104 -9147.0577 -7394.1681 299.2807 -609.3931 -553.7976 30080.6232 107.8890 155.0220
ENERGY: 600000 4.3435 6.9484 5.0695 0.0000 -10739.5268 1446.8832 0.0000 0.0000 1747.8113 -7528.4709 298.2498 -9276.2822 -7416.1509 298.8191 -8.8210 58.8260 29789.3200 -33.6802 32.6423
ENERGY: 900000 6.8866 9.9443 5.6898 0.0000 -10760.7906 1554.3561 0.0000 0.0000 1767.3464 -7416.5674 301.5833 -9183.9138 -7416.4107 299.3736 1037.0513 1105.5393 29788.5643 -66.7500 1.2937
ENERGY: 1200000 2.8468 8.8963 6.1200 0.0000 -10638.4741 1479.0056 0.0000 0.0000 1727.4993 -7414.1062 294.7837 -9141.6055 -7418.2193 299.6972 459.3258 457.4807 30483.3752 32.7557 92.2554
ENERGY: 1500000 5.2491 9.1104 6.0984 0.0000 -10603.2934 1397.2224 0.0000 0.0000 1783.4533 -7402.1599 304.3318 -9185.6132 -7410.2982 300.7127 -410.6070 -385.6900 30382.9915 -52.9738 8.4052
TCL: Running FEP window   7: Lambda1 0.6999999999999997 Lambda2 0.6499999999999997 [dLambda -0.050000000000000044]
TCL: Setting parameter firsttimestep to 0
TCL: Setting parameter alchLambda to 0.6999999999999997
Info: NONBONDED TABLE R-SQUARED SPACING: 0.0625
Info: NONBONDED TABLE SIZE: 705 POINTS
TCL: Setting parameter alchLambda2 to 0.6499999999999997
Info: NONBONDED TABLE R-SQUARED SPACING: 0.0625
Info: NONBONDED TABLE SIZE: 705 POINTS
TCL: Running for 1500000 steps
ETITLE: TS BOND ANGLE DIHED IMPRP ELECT VDW BOUNDARY MISC KINETIC TOTAL TEMP POTENTIAL TOTALAVG TEMPAVG PRESSURE GPRESSURE VOLUME PRESSAVG GPRESSAVG
ENERGY: 0 5.2491 9.1103 6.0984 0.0000 -10602.5726 1397.2294 0.0000 0.0000 1782.5966 -7402.2888 304.1856 -9184.8854 -7402.2888 304.1856 -479.0671 -391.6621 30382.9915 -479.0671 -391.6621
ENERGY: 300000 3.4204 16.8997 5.6718 0.0000 -10572.2155 1374.5076 0.0000 0.0000 1775.0872 -7396.6288 302.9042 -9171.7160 -7381.7570 304.3155 -567.9581 -512.0042 30210.1783 -64.0905 -15.6704
ENERGY: 600000 8.3329 9.5938 4.1160 0.0000 -10745.7635 1532.6411 0.0000 0.0000 1699.1972 -7491.8825 289.9542 -9191.0797 -7424.6421 301.9313 888.9935 942.2529 30067.3231 57.2493 107.9876
ENERGY: 900000 3.2045 12.4696 5.5838 0.0000 -10802.0582 1563.6437 0.0000 0.0000 1776.5814 -7440.5751 303.1592 -9217.1565 -7433.7228 301.0617 843.0584 865.7766 30394.8854 62.9684 116.4054
ENERGY: 1200000 6.2831 10.4546 3.2282 0.0000 -10643.7365 1414.0197 0.0000 0.0000 1749.3788 -7460.3720 298.5173 -9209.7508 -7428.6632 301.1596 -384.6695 -324.4307 30563.6208 26.7198 73.6802
ENERGY: 1500000 3.6642 6.6734 4.2999 0.0000 -10682.4356 1478.6839 0.0000 0.0000 1743.7925 -7445.3219 297.5640 -9189.1144 -7428.6242 301.4204 481.4018 547.7802 29776.1721 -31.0851 26.2669
TCL: Running FEP window   8: Lambda1 0.6499999999999997 Lambda2 0.5999999999999996 [dLambda -0.050000000000000044]
TCL: Setting parameter firsttimestep to 0
TCL: Setting parameter alchLambda to 0.6499999999999997
Info: NONBONDED TABLE R-SQUARED SPACING: 0.0625
Info: NONBONDED TABLE SIZE: 705 POINTS
TCL: Setting parameter alchLambda2 to 0.5999999999999996
Info: NONBONDED TABLE R-SQUARED SPACING: 0.0625
Info: NONBONDED TABLE SIZE: 705 POINTS
TCL: Running for 1500000 steps
ETITLE: TS BOND ANGLE DIHED IMPRP ELECT VDW BOUNDARY MISC KINETIC TOTAL TEMP POTENTIAL TOTALAVG TEMPAVG PRESSURE GPRESSURE VOLUME PRESSAVG GPRESSAVG
ENERGY: 0 3.6642 6.6734 4.2999 0.0000 -10681.5383 1478.5715 0.0000 0.0000 1742.9224 -7445.4071 297.4155 -9188.3294 -7445.4071 297.4155 449.7196 536.4914 29776.1721 449.7196 536.4914
ENERGY: 300000 6.5079 9.2424 5.0065 0.0000 -10655.1408 1453.5100 0.0000 0.0000 1746.9625 -7433.9113 298.1050 -9180.8738 -7432.3916 297.3481 160.2195 184.9694 30320.9363 -84.6952 -30.6217
ENERGY: 600000 4.2763 12.1824 6.1114 0.0000 -10719.3793 1498.9374 0.0000 0.0000 1731.2823 -7466.5895 295.4293 -9197.8719 -7415.3993 297.2903 348.6795 419.1776 30119.3628 80.0519 128.9055
ENERGY: 900000 4.6231 10.4569 7.0545 0.0000 -10695.7465 1480.7625 0.0000 0.0000 1747.0621 -7445.7874 298.1220 -9192.8496 -7418.2197 298.1390 341.8962 414.6534 30008.1992 30.6903 73.7318
ENERGY: 1200000 4.8553 6.1316 3.4912 0.0000 -10585.4637 1384.4429 0.0000 0.0000 1760.2210 -7426.3219 300.3674 -9186.5428 -7417.4324 298.6548 -301.1086 -318.1023 30128.2270 -22.7103 16.8075
ENERGY: 1500000 3.4459 6.9727 2.6738 0.0000 -10641.8255 1482.6721 0.0000 0.0000 1807.2655 -7338.7955 308.3952 -9146.0610 -7419.0267 298.7409 350.5876 386.0685 30638.4946 -7.5070 38.2059
TCL: Running FEP window   9: Lambda1 0.5999999999999996 Lambda2 0.5499999999999996 [dLambda -0.050000000000000044]
TCL: Setting parameter firsttimestep to 0
TCL: Setting parameter alchLambda to 0.5999999999999996
Info: NONBONDED TABLE R-SQUARED SPACING: 0.0625
Info: NONBONDED TABLE SIZE: 705 POINTS
TCL: Setting parameter alchLambda2 to 0.5499999999999996
Info: NONBONDED TABLE R-SQUARED SPACING: 0.0625
Info: NONBONDED TABLE SIZE: 705 POINTS
TCL: Running for 1500000 steps
ETITLE: TS BOND ANGLE DIHED IMPRP ELECT VDW BOUNDARY MISC KINETIC TOTAL TEMP POTENTIAL TOTALAVG TEMPAVG PRESSURE GPRESSURE VOLUME PRESSAVG GPRESSAVG
ENERGY: 0 3.4459 6.9727 2.6738 0.0000 -10641.8892 1482.5123 0.0000 0.0000 1806.3793 -7339.9053 308.2440 -9146.2847 -7339.9053 308.2440 303.7525 373.6137 30638.4946 303.7525 373.6137
ENERGY: 300000 2.1501 4.3181 6.7468 0.0000 -10576.4689 1377.1304 0.0000 0.0000 1773.5532 -7412.5703 302.6424 -9186.1234 -7404.9092 304.3913 -243.8445 -184.0488 30077.8057 -109.2512 -27.0247
ENERGY: 600000 5.2413 9.6625 2.8955 0.0000 -10503.9777 1352.3323 0.0000 0.0000 1753.1164 -7380.7297 299.1551 -9133.8460 -7392.6980 302.5474 -685.7051 -637.1303 30540.4910 32.1917 104.0878
ENERGY: 900000 4.9164 6.1340 6.4341 0.0000 -10624.1420 1446.0190 0.0000 0.0000 1740.1028 -7420.5357 296.9344 -9160.6385 -7402.0231 301.0539 102.4725 164.6142 30184.8819 30.6462 99.8376
ENERGY: 1200000 4.5965 7.5365 3.8755 0.0000 -10537.9762 1377.3335 0.0000 0.0000 1723.5218 -7421.1124 294.1050 -9144.6343 -7398.2844 300.2071 -129.7732 -108.2247 29862.3197 -176.4167 -121.8630
ENERGY: 1500000 6.9635 8.9373 1.5461 0.0000 -10491.4084 1307.4295 0.0000 0.0000 1795.7964 -7370.7355 306.4381 -9166.5319 -7406.8767 300.8218 -1072.6461 -972.3815 30321.9938 -250.6538 -189.6574
TCL: Running FEP window  10: Lambda1 0.5499999999999996 Lambda2 0.4999999999999996 [dLambda -0.04999999999999999]
TCL: Setting parameter firsttimestep to 0
TCL: Setting parameter alchLambda to 0.5499999999999996
Info: NONBONDED TABLE R-SQUARED SPACING: 0.0625
Info: NONBONDED TABLE SIZE: 705 POINTS
TCL: Setting parameter alchLambda2 to 0.4999999999999996
Info: NONBONDED TABLE R-SQUARED SPACING: 0.0625
Info: NONBONDED TABLE SIZE: 705 POINTS
TCL: Running for 1500000 steps
ETITLE: TS BOND ANGLE DIHED IMPRP ELECT VDW BOUNDARY MISC KINETIC TOTAL TEMP POTENTIAL TOTALAVG TEMPAVG PRESSURE GPRESSURE VOLUME PRESSAVG GPRESSAVG
ENERGY: 0 6.9635 8.9373 1.5461 0.0000 -10490.9799 1307.7341 0.0000 0.0000 1794.9344 -7370.8645 306.2910 -9165.7989 -7370.8645 306.2910 -1054.1566 -976.7745 30321.9938 -1054.1566 -976.7745
ENERGY: 300000 3.6451 9.3721 6.5799 0.0000 -10560.3718 1338.3150 0.0000 0.0000 1756.6389 -7445.8209 299.7562 -9202.4597 -7409.4175 302.9309 -1057.0671 -1007.4467 30473.3256 -10.1338 43.4862
ENERGY: 600000 4.4952 6.0758 7.2847 0.0000 -10645.3966 1440.5985 0.0000 0.0000 1729.2462 -7457.6963 295.0818 -9186.9424 -7414.5236 302.1136 71.0007 64.3970 30003.5558 -5.1554 37.7362
ENERGY: 900000 3.8295 4.5824 4.6231 0.0000 -10698.2766 1522.4002 0.0000 0.0000 1736.1728 -7426.6686 296.2638 -9162.8414 -7413.9059 302.5177 872.5411 933.1356 29969.6321 62.2641 106.5647
ENERGY: 1200000 3.9854 11.3250 3.9143 0.0000 -10712.0056 1481.3173 0.0000 0.0000 1769.8289 -7441.6347 302.0069 -9211.4635 -7417.2557 302.0094 448.4986 569.4481 29795.6305 47.2205 100.4618
ENERGY: 1500000 3.3847 7.7008 2.3315 0.0000 -10596.3320 1436.4221 0.0000 0.0000 1732.0361 -7414.4568 295.5579 -9146.4929 -7417.7956 300.9245 -152.0726 -64.5401 30829.9948 68.2922 129.8037
TCL: Running FEP window  11: Lambda1 0.4999999999999996 Lambda2 0.4499999999999996 [dLambda -0.04999999999999999]
TCL: Setting parameter firsttimestep to 0
TCL: Setting parameter alchLambda to 0.4999999999999996
Info: NONBONDED TABLE R-SQUARED SPACING: 0.0625
Info: NONBONDED TABLE SIZE: 705 POINTS
TCL: Setting parameter alchLambda2 to 0.4499999999999996
Info: NONBONDED TABLE R-SQUARED SPACING: 0.0625
Info: NONBONDED TABLE SIZE: 705 POINTS
TCL: Running for 1500000 steps
ETITLE: TS BOND ANGLE DIHED IMPRP ELECT VDW BOUNDARY MISC KINETIC TOTAL TEMP POTENTIAL TOTALAVG TEMPAVG PRESSURE GPRESSURE VOLUME PRESSAVG GPRESSAVG
ENERGY: 0 3.3847 7.7008 2.3315 0.0000 -10596.6588 1436.8623 0.0000 0.0000 1731.1370 -7415.2425 295.4045 -9146.3795 -7415.2425 295.4045 -151.3663 -68.9886 30829.9948 -151.3663 -68.9886
ENERGY: 300000 3.9533 6.2047 4.9031 0.0000 -10692.2582 1480.5048 0.0000 0.0000 1763.8682 -7432.8240 300.9898 -9196.6922 -7412.4044 299.3436 544.7979 598.5518 30053.2421 170.7046 258.6454
ENERGY: 600000 4.8754 5.1181 1.8848 0.0000 -10575.2113 1455.3345 0.0000 0.0000 1768.4115 -7339.5871 301.7651 -9107.9987 -7390.0048 300.7632 121.1343 170.0456 30674.1795 -7.6314 67.1667
ENERGY: 900000 3.7932 8.7750 3.2425 0.0000 -10709.1049 1511.1180 0.0000 0.0000 1728.8857 -7453.2905 295.0203 -9182.1762 -7400.1052 299.8034 303.4801 346.1432 30858.2350 107.5816 169.8372
ENERGY: 1200000 2.0585 15.9500 4.9192 0.0000 -10621.5873 1439.3095 0.0000 0.0000 1778.8007 -7380.5494 303.5379 -9159.3501 -7396.7422 299.7923 213.2814 244.1908 30272.4833 36.0775 98.7542
ENERGY: 1500000 3.7962 7.6962 4.9256 0.0000 -10800.1108 1565.4654 0.0000 0.0000 1764.5047 -7453.7228 301.0984 -9218.2275 -7407.7944 298.5972 999.9010 1055.3321 30013.7005 114.4629 175.3505
TCL: Running FEP window  12: Lambda1 0.4499999999999996 Lambda2 0.39999999999999963 [dLambda -0.04999999999999999]
TCL: Setting parameter firsttimestep to 0
TCL: Setting parameter alchLambda to 0.4499999999999996
Info: NONBONDED TABLE R-SQUARED SPACING: 0.0625
Info: NONBONDED TABLE SIZE: 705 POINTS
TCL: Setting parameter alchLambda2 to 0.39999999999999963
Info: NONBONDED TABLE R-SQUARED SPACING: 0.0625
Info: NONBONDED TABLE SIZE: 705 POINTS
TCL: Running for 1500000 steps
ETITLE: TS BOND ANGLE DIHED IMPRP ELECT VDW BOUNDARY MISC KINETIC TOTAL TEMP POTENTIAL TOTALAVG TEMPAVG PRESSURE GPRESSURE VOLUME PRESSAVG GPRESSAVG
ENERGY: 0 3.7962 7.6962 4.9256 0.0000 -10800.1115 1565.3535 0.0000 0.0000 1763.6675 -7454.6725 300.9555 -9218.3400 -7454.6725 300.9555 964.1714 1045.5528 30013.7005 964.1714 1045.5528
ENERGY: 300000 4.9609 8.3088 5.2039 0.0000 -10533.4258 1369.8986 0.0000 0.0000 1758.5060 -7386.5476 300.0748 -9145.0536 -7377.5175 302.0309 -613.0763 -475.6659 30630.2928 30.7604 117.0963
ENERGY: 600000 5.0576 6.5745 2.8215 0.0000 -10554.4214 1363.8160 0.0000 0.0000 1707.2438 -7468.9080 291.3273 -9176.1517 -7400.5768 300.0684 -935.4464 -883.7598 31002.3617 -268.9204 -196.3803
ENERGY: 900000 6.0367 7.7794 1.3070 0.0000 -10602.6664 1430.5219 0.0000 0.0000 1776.5353 -7380.4860 303.1513 -9157.0213 -7397.5250 301.3916 -204.6038 -189.9017 30630.2148 -311.2449 -251.0104
ENERGY: 1200000 6.6818 6.4394 3.6331 0.0000 -10593.5570 1385.8619 0.0000 0.0000 1791.2386 -7399.7023 305.6603 -9190.9409 -7399.8119 300.8584 -75.4562 -35.0677 29909.7836 -263.5253 -209.1916
ENERGY: 1500000 6.3388 10.5913 4.0423 0.0000 -10645.0012 1395.7224 0.0000 0.0000 1838.9639 -7389.3425 313.8043 -9228.3064 -7395.1176 302.6360 -791.4157 -733.8024 30638.6598 -293.3278 -234.8461
TCL: Running FEP window  13: Lambda1 0.39999999999999963 Lambda2 0.34999999999999964 [dLambda -0.04999999999999999]
TCL: Setting parameter firsttimestep to 0
TCL: Setting parameter alchLambda to 0.39999999999999963
Info: NONBONDED TABLE R-SQUARED SPACING: 0.0625
Info: NONBONDED TABLE SIZE: 705 POINTS
TCL: Setting parameter alchLambda2 to 0.34999999999999964
Info: NONBONDED TABLE R-SQUARED SPACING: 0.0625
Info: NONBONDED TABLE SIZE: 705 POINTS
TCL: Running for 1500000 steps
ETITLE: TS BOND ANGLE DIHED IMPRP ELECT VDW BOUNDARY MISC KINETIC TOTAL TEMP POTENTIAL TOTALAVG TEMPAVG PRESSURE GPRESSURE VOLUME PRESSAVG GPRESSAVG
ENERGY: 0 6.3388 10.5913 4.0423 0.0000 -10645.0022 1396.3895 0.0000 0.0000 1838.1040 -7389.5364 313.6575 -9227.6404 -7389.5364 313.6575 -806.2572 -734.6257 30638.6598 -806.2572 -734.6257
ENERGY: 300000 5.9104 6.6628 4.6685 0.0000 -10638.8163 1429.8991 0.0000 0.0000 1766.6951 -7424.9805 301.4722 -9191.6755 -7398.7515 304.9664 -128.1078 -63.9352 30074.7360 -290.3305 -233.8539
ENERGY: 600000 2.3744 6.6556 2.8282 0.0000 -10762.9864 1509.6187 0.0000 0.0000 1746.3117 -7495.1979 297.9939 -9241.5095 -7429.5551 301.8317 446.9641 569.6187 29746.6588 -156.8436 -98.7141
ENERGY: 900000 3.7460 6.8721 7.9015 0.0000 -10640.1158 1411.0739 0.0000 0.0000 1760.9141 -7449.6083 300.4857 -9210.5223 -7421.0869 301.6330 -8.2096 48.9115 29981.0542 -106.7486 -46.6991
ENERGY: 1200000 6.9061 10.0434 4.0707 0.0000 -10655.2173 1482.8102 0.0000 0.0000 1788.1536 -7363.2333 305.1339 -9151.3869 -7407.4407 302.1053 418.7783 468.3505 30218.7695 0.8638 57.1753
ENERGY: 1500000 3.6169 7.9147 6.8073 0.0000 -10668.8105 1423.8613 0.0000 0.0000 1825.1063 -7401.5041 311.4396 -9226.6103 -7412.5845 301.2953 -263.1221 -236.3659 29998.2576 -9.9658 44.0898
TCL: Running FEP window  14: Lambda1 0.34999999999999964 Lambda2 0.29999999999999966 [dLambda -0.04999999999999999]
TCL: Setting parameter firsttimestep to 0
TCL: Setting parameter alchLambda to 0.34999999999999964
Info: NONBONDED TABLE R-SQUARED SPACING: 0.0625
Info: NONBONDED TABLE SIZE: 705 POINTS
TCL: Setting parameter alchLambda2 to 0.29999999999999966
Info: NONBONDED TABLE R-SQUARED SPACING: 0.0625
Info: NONBONDED TABLE SIZE: 705 POINTS
TCL: Running for 1500000 steps
ETITLE: TS BOND ANGLE DIHED IMPRP ELECT VDW BOUNDARY MISC KINETIC TOTAL TEMP POTENTIAL TOTALAVG TEMPAVG PRESSURE GPRESSURE VOLUME PRESSAVG GPRESSAVG
ENERGY: 0 3.6169 7.9147 6.8073 0.0000 -10668.8122 1424.3979 0.0000 0.0000 1824.1973 -7401.8780 311.2844 -9226.0753 -7401.8780 311.2844 -330.5642 -238.4949 29998.2576 -330.5642 -238.4949
ENERGY: 300000 6.2569 8.5483 10.0582 0.0000 -10728.7058 1502.4187 0.0000 0.0000 1784.3943 -7417.0294 304.4924 -9201.4237 -7382.8162 304.2491 149.6699 219.0384 30466.8163 -148.4210 -87.6814
ENERGY: 600000 2.6033 9.1811 5.7303 0.0000 -10588.9776 1392.0118 0.0000 0.0000 1732.5606 -7446.8905 295.6474 -9179.4511 -7390.6755 302.9012 -174.9455 -103.3782 29747.6863 -15.0033 50.2388
ENERGY: 900000 2.0216 7.5899 5.1372 0.0000 -10677.9810 1427.5342 0.0000 0.0000 1792.5190 -7443.1790 305.8788 -9235.6980 -7403.9578 301.7788 -176.5908 -94.7352 30151.0460 -135.4722 -62.6941
ENERGY: 1200000 2.7758 9.8972 4.3145 0.0000 -10481.4956 1314.9449 0.0000 0.0000 1818.4674 -7331.0959 310.3067 -9149.5633 -7399.5630 302.6976 -909.0237 -833.7857 30491.7235 -215.2316 -137.9815
ENERGY: 1500000 7.3699 7.6189 2.2027 0.0000 -10643.9826 1383.3379 0.0000 0.0000 1759.7681 -7483.6852 300.2901 -9243.4532 -7405.7198 302.2551 -595.3717 -501.4372 30132.9768 -211.2336 -136.4231
TCL: Running FEP window  15: Lambda1 0.29999999999999966 Lambda2 0.24999999999999967 [dLambda -0.04999999999999999]
TCL: Setting parameter firsttimestep to 0
TCL: Setting parameter alchLambda to 0.29999999999999966
Info: NONBONDED TABLE R-SQUARED SPACING: 0.0625
Info: NONBONDED TABLE SIZE: 705 POINTS
TCL: Setting parameter alchLambda2 to 0.24999999999999967
Info: NONBONDED TABLE R-SQUARED SPACING: 0.0625
Info: NONBONDED TABLE SIZE: 705 POINTS
TCL: Running for 1500000 steps
ETITLE: TS BOND ANGLE DIHED IMPRP ELECT VDW BOUNDARY MISC KINETIC TOTAL TEMP POTENTIAL TOTALAVG TEMPAVG PRESSURE GPRESSURE VOLUME PRESSAVG GPRESSAVG
ENERGY: 0 7.3698 7.6189 2.2027 0.0000 -10643.9797 1383.5734 0.0000 0.0000 1758.8740 -7484.3408 300.1376 -9243.2148 -7484.3408 300.1376 -594.1999 -506.3470 30132.9768 -594.1999 -506.3470
ENERGY: 300000 4.1059 9.0722 5.9358 0.0000 -10514.9854 1331.4782 0.0000 0.0000 1766.7666 -7397.6267 301.4844 -9164.3933 -7408.0304 303.7006 -973.9232 -898.9039 30397.8656 -512.2142 -439.8018
ENERGY: 600000 1.6320 4.0885 5.3179 0.0000 -10725.4782 1502.4813 0.0000 0.0000 1808.7178 -7403.2406 308.6430 -9211.9584 -7406.5054 303.2979 791.5541 851.8457 29608.2101 -72.3635 -1.9188
ENERGY: 900000 3.9604 7.8465 2.4626 0.0000 -10530.6735 1377.5262 0.0000 0.0000 1697.6064 -7441.2714 289.6827 -9138.8777 -7402.1753 300.3572 -44.3466 -60.1439 29688.2570 -84.5527 -23.9583
ENERGY: 1200000 4.0069 7.6053 3.9129 0.0000 -10669.7999 1452.8794 0.0000 0.0000 1777.6600 -7423.7354 303.3432 -9201.3954 -7405.8993 300.4981 -20.7272 -34.3533 30241.3563 -107.4215 -63.6787
ENERGY: 1500000 8.2910 5.2325 4.6139 0.0000 -10573.7700 1369.6551 0.0000 0.0000 1807.6470 -7378.3304 308.4603 -9185.9774 -7404.4481 301.0501 -385.8013 -354.2369 30039.1656 -38.3131 9.2339
TCL: Running FEP window  16: Lambda1 0.24999999999999967 Lambda2 0.19999999999999968 [dLambda -0.04999999999999999]
TCL: Setting parameter firsttimestep to 0
TCL: Setting parameter alchLambda to 0.24999999999999967
Info: NONBONDED TABLE R-SQUARED SPACING: 0.0625
Info: NONBONDED TABLE SIZE: 705 POINTS
TCL: Setting parameter alchLambda2 to 0.19999999999999968
Info: NONBONDED TABLE R-SQUARED SPACING: 0.0625
Info: NONBONDED TABLE SIZE: 705 POINTS
TCL: Running for 1500000 steps
ETITLE: TS BOND ANGLE DIHED IMPRP ELECT VDW BOUNDARY MISC KINETIC TOTAL TEMP POTENTIAL TOTALAVG TEMPAVG PRESSURE GPRESSURE VOLUME PRESSAVG GPRESSAVG
ENERGY: 0 8.2910 5.2326 4.6139 0.0000 -10573.7686 1370.2924 0.0000 0.0000 1806.7892 -7378.5495 308.3139 -9185.3387 -7378.5495 308.3139 -437.1169 -356.3724 30039.1656 -437.1169 -356.3724
ENERGY: 300000 5.1331 11.0529 4.6255 0.0000 -10643.2642 1441.1102 0.0000 0.0000 1812.7684 -7368.5741 309.3342 -9181.3425 -7378.8659 306.6414 52.9307 113.9627 29874.1785 -125.0482 -49.8665
ENERGY: 600000 3.9886 8.2507 3.4373 0.0000 -10499.2236 1352.7623 0.0000 0.0000 1792.5500 -7338.2346 305.8841 -9130.7847 -7395.9144 302.8590 -610.3914 -535.1795 30228.6190 -232.0755 -170.0517
ENERGY: 900000 7.5992 11.9815 5.6072 0.0000 -10669.5705 1445.5378 0.0000 0.0000 1751.7778 -7447.0670 298.9266 -9198.8448 -7416.1176 300.8535 68.3935 38.7298 29867.4247 -261.1874 -211.8140
ENERGY: 1200000 3.9411 6.6922 6.0565 0.0000 -10618.2343 1429.3736 0.0000 0.0000 1780.0372 -7392.1336 303.7489 -9172.1708 -7415.3157 300.4068 79.0222 95.9680 30086.0861 -256.4864 -215.8133
ENERGY: 1500000 5.6655 10.5011 7.6204 0.0000 -10674.6762 1440.2807 0.0000 0.0000 1753.7703 -7456.8383 299.2666 -9210.6085 -7422.3384 300.2645 -162.2262 -28.7347 30071.1061 -275.9550 -230.6284
TCL: Running FEP window  17: Lambda1 0.19999999999999968 Lambda2 0.1499999999999997 [dLambda -0.04999999999999999]
TCL: Setting parameter firsttimestep to 0
TCL: Setting parameter alchLambda to 0.19999999999999968
Info: NONBONDED TABLE R-SQUARED SPACING: 0.0625
Info: NONBONDED TABLE SIZE: 705 POINTS
TCL: Setting parameter alchLambda2 to 0.1499999999999997
Info: NONBONDED TABLE R-SQUARED SPACING: 0.0625
Info: NONBONDED TABLE SIZE: 705 POINTS
TCL: Running for 1500000 steps
ETITLE: TS BOND ANGLE DIHED IMPRP ELECT VDW BOUNDARY MISC KINETIC TOTAL TEMP POTENTIAL TOTALAVG TEMPAVG PRESSURE GPRESSURE VOLUME PRESSAVG GPRESSAVG
ENERGY: 0 5.6655 10.5011 7.6204 0.0000 -10674.6767 1440.2306 0.0000 0.0000 1752.8932 -7457.7659 299.1170 -9210.6591 -7457.7659 299.1170 -120.8923 -36.5755 30071.1061 -120.8923 -36.5755
ENERGY: 300000 3.9253 10.4301 1.9676 0.0000 -10663.2864 1497.2950 0.0000 0.0000 1792.0972 -7357.5713 305.8068 -9149.6685 -7426.4348 303.8419 582.5162 658.9059 30113.7537 -265.5061 -168.5439
ENERGY: 600000 5.8510 9.1970 6.4089 0.0000 -10456.1177 1348.8320 0.0000 0.0000 1820.8808 -7264.9480 310.7185 -9085.8288 -7416.3527 301.6373 -261.7224 -258.5682 30134.2124 -127.3403 -56.9538
ENERGY: 900000 3.2748 10.5869 4.0882 0.0000 -10596.7055 1397.0871 0.0000 0.0000 1751.8438 -7429.8247 298.9379 -9181.6685 -7413.1989 300.8115 -424.7324 -370.3776 30109.0690 -165.8088 -104.8321
ENERGY: 1200000 5.9269 10.9824 1.8183 0.0000 -10570.4034 1406.9587 0.0000 0.0000 1799.2584 -7345.4586 307.0288 -9144.7171 -7406.1380 301.7195 -165.5859 -117.9534 30133.9990 -168.3704 -109.5784
ENERGY: 1500000 1.4345 8.2468 6.3853 0.0000 -10661.9729 1446.6768 0.0000 0.0000 1732.5739 -7466.6556 295.6497 -9199.2295 -7409.5045 301.6057 381.4046 411.3969 29963.7191 -126.1197 -66.2987
TCL: Running FEP window  18: Lambda1 0.1499999999999997 Lambda2 0.09999999999999969 [dLambda -0.05 ]
TCL: Setting parameter firsttimestep to 0
TCL: Setting parameter alchLambda to 0.1499999999999997
Info: NONBONDED TABLE R-SQUARED SPACING: 0.0625
Info: NONBONDED TABLE SIZE: 705 POINTS
TCL: Setting parameter alchLambda2 to 0.09999999999999969
Info: NONBONDED TABLE R-SQUARED SPACING: 0.0625
Info: NONBONDED TABLE SIZE: 705 POINTS
TCL: Running for 1500000 steps
ETITLE: TS BOND ANGLE DIHED IMPRP ELECT VDW BOUNDARY MISC KINETIC TOTAL TEMP POTENTIAL TOTALAVG TEMPAVG PRESSURE GPRESSURE VOLUME PRESSAVG GPRESSAVG
ENERGY: 0 1.4344 8.2468 6.3853 0.0000 -10661.9720 1446.5251 0.0000 0.0000 1731.6903 -7467.6900 295.4989 -9199.3803 -7467.6900 295.4989 315.1097 404.6910 29963.7191 315.1097 404.6910
ENERGY: 300000 4.1930 8.1146 6.3769 0.0000 -10738.1950 1521.3921 0.0000 0.0000 1730.4369 -7467.6814 295.2850 -9198.1183 -7424.6495 298.9819 462.5849 532.1560 29858.2199 471.7951 538.2010
ENERGY: 600000 9.0898 9.3058 2.9170 0.0000 -10647.8526 1422.4557 0.0000 0.0000 1724.1268 -7479.9574 294.2082 -9204.0842 -7425.1540 299.0181 -484.5623 -426.2356 30027.3091 134.9637 190.4174
ENERGY: 900000 5.3963 8.7094 5.3626 0.0000 -10620.8554 1412.3904 0.0000 0.0000 1744.9694 -7444.0273 297.7649 -9188.9967 -7412.4965 299.4005 -517.3687 -377.1681 30364.9443 29.1556 87.1035
ENERGY: 1200000 2.7440 6.6349 6.3717 0.0000 -10741.5404 1490.6406 0.0000 0.0000 1802.8240 -7432.3252 307.6373 -9235.1493 -7409.4654 300.9433 533.8001 594.9359 29338.6323 26.8998 87.3694
ENERGY: 1500000 5.6288 5.7808 2.9554 0.0000 -10801.0419 1518.9799 0.0000 0.0000 1722.6196 -7545.0775 293.9510 -9267.6970 -7422.1027 300.4269 371.7631 500.8424 29846.6406 -75.1447 -8.5817
TCL: Running FEP window  19: Lambda1 0.09999999999999969 Lambda2 0.049999999999999684 [dLambda -0.05 ]
TCL: Setting parameter firsttimestep to 0
TCL: Setting parameter alchLambda to 0.09999999999999969
Info: NONBONDED TABLE R-SQUARED SPACING: 0.0625
Info: NONBONDED TABLE SIZE: 705 POINTS
TCL: Setting parameter alchLambda2 to 0.049999999999999684
Info: NONBONDED TABLE R-SQUARED SPACING: 0.0625
Info: NONBONDED TABLE SIZE: 705 POINTS
TCL: Running for 1500000 steps
ETITLE: TS BOND ANGLE DIHED IMPRP ELECT VDW BOUNDARY MISC KINETIC TOTAL TEMP POTENTIAL TOTALAVG TEMPAVG PRESSURE GPRESSURE VOLUME PRESSAVG GPRESSAVG
ENERGY: 0 5.6288 5.7808 2.9554 0.0000 -10801.0414 1518.8635 0.0000 0.0000 1721.7331 -7546.0799 293.7998 -9267.8130 -7546.0799 293.7998 404.0196 496.8123 29846.6406 404.0196 496.8123
ENERGY: 300000 4.1603 10.4162 2.9873 0.0000 -10711.9222 1547.6449 0.0000 0.0000 1758.1244 -7388.5891 300.0096 -9146.7135 -7440.1935 299.7973 908.3573 972.9628 30073.8759 350.7174 432.5030
ENERGY: 600000 8.0957 10.1485 2.7964 0.0000 -10606.2910 1414.9077 0.0000 0.0000 1815.9913 -7354.3515 309.8842 -9170.3428 -7428.1035 300.9573 82.9422 118.9156 29644.3227 44.3008 126.8346
ENERGY: 900000 4.8375 10.1420 5.4231 0.0000 -10665.8647 1527.9256 0.0000 0.0000 1744.7003 -7372.8362 297.7189 -9117.5364 -7428.6341 300.3161 939.2361 963.0864 29928.9981 96.4332 169.9894
ENERGY: 1200000 4.7055 7.8410 3.6263 0.0000 -10530.8959 1446.2734 0.0000 0.0000 1743.5099 -7324.9398 297.5158 -9068.4497 -7409.6547 300.3994 18.2268 174.3006 30551.8296 94.8295 169.4682
ENERGY: 1500000 4.8593 5.2400 4.5298 0.0000 -10466.1055 1325.9746 0.0000 0.0000 1764.7530 -7360.7486 301.1408 -9125.5017 -7406.5460 300.3335 -849.7410 -797.6786 30242.4782 40.1133 106.3047
TCL: Running FEP window  20: Lambda1 0.049999999999999684 Lambda2 0.0    [dLambda -0.049999999999999684]
TCL: Setting parameter firsttimestep to 0
TCL: Setting parameter alchLambda to 0.049999999999999684
Info: NONBONDED TABLE R-SQUARED SPACING: 0.0625
Info: NONBONDED TABLE SIZE: 705 POINTS
TCL: Setting parameter alchLambda2 to 0.0
Info: NONBONDED TABLE R-SQUARED SPACING: 0.0625
Info: NONBONDED TABLE SIZE: 705 POINTS
TCL: Running for 1500000 steps
ETITLE: TS BOND ANGLE DIHED IMPRP ELECT VDW BOUNDARY MISC KINETIC TOTAL TEMP POTENTIAL TOTALAVG TEMPAVG PRESSURE GPRESSURE VOLUME PRESSAVG GPRESSAVG
ENERGY: 0 4.8593 5.2400 4.5298 0.0000 -10466.1074 1325.6535 0.0000 0.0000 1763.8944 -7361.9303 300.9942 -9125.8247 -7361.9303 300.9942 -881.1413 -802.8159 30242.4782 -881.1413 -802.8159
ENERGY: 300000 4.0812 7.5670 5.1865 0.0000 -10520.9362 1390.0917 0.0000 0.0000 1715.6438 -7398.3659 292.7607 -9114.0097 -7397.1475 297.9437 -127.1715 -19.6616 30058.7452 -231.0216 -142.4009
ENERGY: 600000 6.0868 7.9473 5.8702 0.0000 -10589.2046 1423.7085 0.0000 0.0000 1785.3307 -7360.2611 304.6522 -9145.5918 -7405.4974 297.5305 -211.9860 -202.0258 30228.8448 -75.6061 -1.7972
ENERGY: 900000 4.2096 9.1578 3.6155 0.0000 -10600.8703 1432.2797 0.0000 0.0000 1719.2176 -7432.3901 293.3705 -9151.6077 -7415.6482 297.3074 -25.0237 98.2068 29781.3639 -35.8876 40.2627
ENERGY: 1200000 7.9883 13.5251 2.7679 0.0000 -10631.1801 1443.1928 0.0000 0.0000 1761.7850 -7401.9209 300.6343 -9163.7059 -7422.9784 296.7425 -49.8603 -3.5724 29855.0207 55.5998 121.8362
ENERGY: 1500000 4.3111 11.1493 4.2873 0.0000 -10424.3575 1366.6807 0.0000 0.0000 1794.0394 -7243.8896 306.1383 -9037.9291 -7410.2659 297.4055 -700.8470 -640.6964 30987.1342 98.0799 162.7724
TCL: Exiting due to exit command.
