Info: SIMULATION PARAMETERS:
Info: TIMESTEP               2
Info: NUMBER OF STEPS        0
Info: STEPS PER CYCLE        10
Info: PERIODIC CELL BASIS 1  32.0062 0 0
Info: PERIODIC CELL BASIS 2  0 29.9664 0
Info: PERIODIC CELL BASIS 3  0 0 31.2461
Info: PERIODIC CELL CENTER   0 0 0
Info: WRAPPING WATERS AROUND PERIODIC BOUNDARIES ON OUTPUT.
Info: WRAPPING ALL CLUSTERS AROUND PERIODIC BOUNDARIES ON OUTPUT.
Info: FIRST LDB TIMESTEP     50
Info: LAST LDB TIMESTEP     -1
Info: HOM BACKGROUND SCALING 1
Info: PME BACKGROUND SCALING 1
Info: MIN ATOMS PER PATCH    40
Info: EMPTY PATCH LOAD       40 ATOMS
Info: VELOCITY FILE          mobley_7988076_equil.vel
Info: CENTER OF MASS MOVING INITIALLY? NO
Info: DIELECTRIC             1
Info: EXCLUDE                SCALED ONE-FOUR
Info: 1-4 ELECTROSTATICS SCALED BY 0.833333
Info: MODIFIED 1-4 VDW PARAMETERS WILL BE USED
Info: DCD FILENAME           mobley_7988076_prod.dcd
Info: DCD FREQUENCY          100000
Info: DCD FIRST STEP         100000
Info: DCD FILE WILL CONTAIN UNIT CELL DATA
Info: XST FILENAME           mobley_7988076_prod.xst
Info: XST FREQUENCY          100000
Info: NO VELOCITY DCD OUTPUT
Info: NO FORCE DCD OUTPUT
Info: OUTPUT FILENAME        mobley_7988076_prod
Info: BINARY OUTPUT FILES WILL BE USED
Info: RESTART FILENAME       mobley_7988076_prod.restart
Info: RESTART FREQUENCY      100000
Info: BINARY RESTART FILES WILL BE USED
Info: CUTOFF                 9
Info: PAIRLIST DISTANCE      11
Info: PAIRLIST SHRINK RATE   0.01
Info: PAIRLIST GROW RATE     0.01
Info: PAIRLIST TRIGGER       0.3
Info: PAIRLISTS PER CYCLE    2
Info: PAIRLISTS ENABLED
Info: MARGIN                 2
Info: HYDROGEN GROUP CUTOFF  2.5
Info: PATCH DIMENSION        15.5
Info: ENERGY OUTPUT STEPS    100000
Info: ENERGY EVALUATION STEPS    100000
Info: OUTPUT ENERGY PRECISION 4
Info: CROSSTERM ENERGY INCLUDED IN DIHEDRAL
Info: TIMING OUTPUT STEPS    1000000
Info: PRESSURE OUTPUT STEPS  100000
Info: ALCHEMICAL FEP ON
Info: FEP CURRENT LAMBDA VALUE     0
Info: FEP COMPARISON LAMBDA VALUE  0.05
Info: FEP INTRA-ALCHEMICAL NON-BONDED INTERACTIONS WILL BE RETAINED
Info: FEP INTRA-ALCHEMICAL BONDED INTERACTIONS WILL BE RETAINED
Info: FEP VDW SHIFTING COEFFICIENT 5
Info: FEP ELEC. ACTIVE FOR ANNIHILATED PARTICLES BETWEEN LAMBDA = 0 AND LAMBDA = 0.5
Info: FEP ELEC. ACTIVE FOR EXNIHILATED PARTICLES BETWEEN LAMBDA = 0.5 AND LAMBDA = 1
Info: FEP VDW ACTIVE FOR ANNIHILATED PARTICLES BETWEEN LAMBDA = 0 AND LAMBDA = 1
Info: FEP VDW ACTIVE FOR EXNIHILATED PARTICLES BETWEEN LAMBDA = 0 AND LAMBDA = 1
Info: FEP BOND ACTIVE FOR ANNIHILATED PARTICLES BETWEEN LAMBDA = 1 AND LAMBDA = 1
Info: FEP BOND ACTIVE FOR EXNIHILATED PARTICLES BETWEEN LAMBDA = 0 AND LAMBDA = 0
Info: LANGEVIN DYNAMICS ACTIVE
Info: LANGEVIN TEMPERATURE   300
Info: LANGEVIN USING BBK INTEGRATOR
Info: LANGEVIN DAMPING COEFFICIENT IS 1 INVERSE PS
Info: LANGEVIN DYNAMICS APPLIED TO HYDROGENS
Info: LANGEVIN PISTON PRESSURE CONTROL ACTIVE
Info:        TARGET PRESSURE IS 1.01325 BAR
Info:     OSCILLATION PERIOD IS 50 FS
Info:             DECAY TIME IS 25 FS
Info:     PISTON TEMPERATURE IS 300 K
Info:       PRESSURE CONTROL IS GROUP-BASED
Info:    INITIAL STRAIN RATE IS -0.000363012 -0.000363012 -0.000363012
Info:       CELL FLUCTUATION IS ISOTROPIC
Info: PARTICLE MESH EWALD (PME) ACTIVE
Info: PME TOLERANCE               1e-06
Info: PME EWALD COEFFICIENT       0.348832
Info: PME INTERPOLATION ORDER     4
Info: PME GRID DIMENSIONS         36 32 32
Info: PME MAXIMUM GRID SPACING    1
Info: PME CALCULATION WILL BE PERFORMED ON GPU
Info: FULL ELECTROSTATIC EVALUATION FREQUENCY      2
Info: USING VERLET I (r-RESPA) MTS SCHEME.
Info: C1 SPLITTING OF LONG RANGE ELECTROSTATICS
Info: PLACING ATOMS IN PATCHES BY HYDROGEN GROUPS
Info: RIGID BONDS TO HYDROGEN : ALL
Info:         ERROR TOLERANCE : 1e-08
Info:          MAX ITERATIONS : 100
Info: RIGID WATER USING SETTLE ALGORITHM
Info: RANDOM NUMBER SEED     1743752888
Info: USE HYDROGEN BONDS?    NO
Info: Using AMBER format force field!
Info: AMBER PARM FILE        mobley_7988076.prmtop
Info: COORDINATE PDB         mobley_7988076.pdb
Info: Exclusions will be read from PARM file!
Info: SCNB (VDW SCALING)     2
Info: USING ARITHMETIC MEAN TO COMBINE L-J SIGMA PARAMETERS
Info: BINARY COORDINATES     mobley_7988076_equil.coor
Info: SUMMARY OF PARAMETERS:
Info: 9 BONDS
Info: 8 ANGLES
Info:   8 HARMONIC
Info:   0 COSINE-BASED
Info: 5 DIHEDRAL
Info: 0 IMPROPER
Info: 0 CROSSTERM
Info: 0 VDW
Info: 28 VDW_PAIRS
Info: 0 NBTHOLE_PAIRS
Info: To read alchdata from file: mobley_7988076.pdb
Info: To read alchflag data from column: 5
Info: STRUCTURE SUMMARY:
Info: 2952 ATOMS
Info: 2952 BONDS
Info: 22 ANGLES
Info: 37 DIHEDRALS
Info: 0 IMPROPERS
Info: 0 CROSSTERMS
Info: 3001 EXCLUSIONS
Info: 2943 RIGID BONDS
Info: ALCH: 0 ATOMS TO DISAPPEAR IN FINAL STATE
Info: ALCH: 15 ATOMS TO APPEAR IN FINAL STATE
Info: 5913 DEGREES OF FREEDOM
Info: 988 HYDROGEN GROUPS
Info: 3 ATOMS IN LARGEST HYDROGEN GROUP
Info: 988 MIGRATION GROUPS
Info: 3 ATOMS IN LARGEST MIGRATION GROUP
Info: TOTAL MASS = 17759.8 amu
Info: TOTAL CHARGE = -2.18861e-08 e
Info: MASS DENSITY = 0.984086 g/cm^3
Info: ATOM DENSITY = 0.0985037 atoms/A^3
Info: ADDED 0 IMPLICIT EXCLUSIONS
Info: NONBONDED TABLE R-SQUARED SPACING: 0.0625
Info: NONBONDED TABLE SIZE: 705 POINTS
Info: REMOVING COM VELOCITY 0.106881 -0.0393435 0.0615538
Info: Use 3D box decompostion in PME FFT.
Info: Updated CUDA force table with 4096 elements.
Info: Updated CUDA LJ table with 7 x 7 elements.
Info: Found 17 unique exclusion lists needing 36 bytes
TCL: Running for 1500000 steps
ETITLE: TS BOND ANGLE DIHED IMPRP ELECT VDW BOUNDARY MISC KINETIC TOTAL TEMP POTENTIAL TOTALAVG TEMPAVG PRESSURE GPRESSURE VOLUME PRESSAVG GPRESSAVG
ENERGY: 0 3.7309 6.4328 3.5732 0.0000 -10747.9320 1463.4482 0.0000 0.0000 1756.2032 -7514.5436 298.9216 -9270.7468 -7514.5436 298.9216 294.8122 357.5882 29968.4274 294.8122 357.5882
ENERGY: 300000 2.3856 1.7156 2.0361 0.0000 -10805.6844 1502.7816 0.0000 0.0000 1787.5476 -7509.2178 304.2567 -9296.7654 -7485.9533 300.7639 145.8770 161.5726 30779.8270 -36.5169 11.5414
ENERGY: 600000 1.3817 4.1243 1.5086 0.0000 -10573.6624 1395.3234 0.0000 0.0000 1730.2927 -7441.0317 294.5114 -9171.3244 -7482.3852 299.5298 -198.0187 -125.9267 30643.5509 -139.5690 -94.0325
ENERGY: 900000 6.1525 2.9150 5.7307 0.0000 -10710.1765 1467.2850 0.0000 0.0000 1794.2252 -7433.8681 305.3933 -9228.0933 -7471.2456 301.8122 171.2748 260.0001 30302.6484 -211.7181 -154.5843
ENERGY: 1200000 3.5513 3.3424 4.2024 0.0000 -10728.9678 1488.2461 0.0000 0.0000 1752.9832 -7476.6425 298.3735 -9229.6256 -7486.4911 300.3106 651.5762 679.9652 30282.4300 -75.0050 -18.8807
ENERGY: 1500000 2.2412 2.8229 4.8087 0.0000 -10614.4294 1393.5090 0.0000 0.0000 1800.7120 -7410.3356 306.4974 -9211.0476 -7481.7332 300.0511 85.6007 180.6213 29922.7325 -127.9980 -68.0832
TCL: Running FEP window   2: Lambda1 0.05   Lambda2 0.1    [dLambda 0.05  ]
TCL: Setting parameter firsttimestep to 0
TCL: Setting parameter alchLambda to 0.05
Info: NONBONDED TABLE R-SQUARED SPACING: 0.0625
Info: NONBONDED TABLE SIZE: 705 POINTS
TCL: Setting parameter alchLambda2 to 0.1
Info: NONBONDED TABLE R-SQUARED SPACING: 0.0625
Info: NONBONDED TABLE SIZE: 705 POINTS
TCL: Running for 1500000 steps
ETITLE: TS BOND ANGLE DIHED IMPRP ELECT VDW BOUNDARY MISC KINETIC TOTAL TEMP POTENTIAL TOTALAVG TEMPAVG PRESSURE GPRESSURE VOLUME PRESSAVG GPRESSAVG
ENERGY: 0 2.2412 2.8229 4.8087 0.0000 -10614.4296 1397.5400 0.0000 0.0000 1799.8861 -7407.1307 306.3568 -9207.0168 -7407.1307 306.3568 108.6267 185.6324 29922.7325 108.6267 185.6324
ENERGY: 300000 4.5597 4.2922 1.7539 0.0000 -10596.8741 1336.1988 0.0000 0.0000 1802.2055 -7447.8641 306.7516 -9250.0696 -7453.5161 303.2244 -809.7393 -780.1851 30431.8783 -268.0039 -201.8274
ENERGY: 600000 2.0649 3.1223 3.5140 0.0000 -10550.8337 1350.0360 0.0000 0.0000 1678.3890 -7513.7075 285.6769 -9192.0965 -7491.4573 300.1316 -745.0211 -739.6046 30813.3289 -288.4654 -234.9603
ENERGY: 900000 5.4740 3.0358 1.5960 0.0000 -10611.7394 1386.0916 0.0000 0.0000 1723.3851 -7492.1568 293.3356 -9215.5419 -7485.7272 298.8946 -293.4736 -225.2199 30192.3683 -139.9861 -83.1209
ENERGY: 1200000 5.8377 4.3009 3.2039 0.0000 -10624.2964 1397.4130 0.0000 0.0000 1797.7842 -7415.7566 305.9990 -9213.5409 -7480.2203 299.2871 -158.0960 -110.8714 30101.8010 -217.9387 -161.3375
ENERGY: 1500000 3.2161 1.6472 2.1334 0.0000 -10630.7735 1378.8209 0.0000 0.0000 1761.6269 -7483.3289 299.8447 -9244.9559 -7471.7034 300.3969 -596.5325 -564.2167 30345.0400 -238.0144 -183.1062
TCL: Running FEP window   3: Lambda1 0.1    Lambda2 0.15000000000000002 [dLambda 0.05000000000000002]
TCL: Setting parameter firsttimestep to 0
TCL: Setting parameter alchLambda to 0.1
Info: NONBONDED TABLE R-SQUARED SPACING: 0.0625
Info: NONBONDED TABLE SIZE: 705 POINTS
TCL: Setting parameter alchLambda2 to 0.15000000000000002
Info: NONBONDED TABLE R-SQUARED SPACING: 0.0625
Info: NONBONDED TABLE SIZE: 705 POINTS
TCL: Running for 1500000 steps
ETITLE: TS BOND ANGLE DIHED IMPRP ELECT VDW BOUNDARY MISC KINETIC TOTAL TEMP POTENTIAL TOTALAVG TEMPAVG PRESSURE GPRESSURE VOLUME PRESSAVG GPRESSAVG
ENERGY: 0 3.2161 1.6472 2.1334 0.0000 -10630.7736 1382.9044 0.0000 0.0000 1760.7189 -7480.1537 299.6902 -9240.8726 -7480.1537 299.6902 -637.9559 -549.0620 30345.0400 -637.9559 -549.0620
ENERGY: 300000 2.9637 2.4190 2.5651 0.0000 -10731.3793 1508.6939 0.0000 0.0000 1780.5711 -7434.1664 303.0692 -9214.7375 -7480.6763 299.3765 536.3028 637.8340 30367.2528 111.0896 211.6515
ENERGY: 600000 1.9965 1.6771 3.0766 0.0000 -10752.9058 1456.8971 0.0000 0.0000 1764.3481 -7524.9106 300.3079 -9289.2587 -7495.5481 300.7003 78.3276 81.4369 30158.9234 10.6103 93.8206
ENERGY: 900000 5.8771 3.1183 3.0647 0.0000 -10803.8214 1508.3667 0.0000 0.0000 1724.4539 -7558.9407 293.5176 -9283.3947 -7495.0757 299.7407 458.5085 555.2388 30150.8792 18.1652 99.2019
ENERGY: 1200000 3.6973 3.8053 5.7287 0.0000 -10593.3256 1429.6485 0.0000 0.0000 1737.3040 -7413.1417 295.7048 -9150.4457 -7491.3978 298.9907 -99.0412 -13.2103 30483.1326 110.6070 184.8850
ENERGY: 1500000 4.0321 2.7321 4.6816 0.0000 -10636.9729 1417.3047 0.0000 0.0000 1823.7885 -7384.4338 310.4252 -9208.2223 -7494.2467 299.6752 -34.9678 40.1641 30227.1359 116.6998 186.8500
TCL: Running FEP window   4: Lambda1 0.15000000000000002 Lambda2 0.2    [dLambda 0.04999999999999999]
TCL: Setting parameter firsttimestep to 0
TCL: Setting parameter alchLambda to 0.15000000000000002
Info: NONBONDED TABLE R-SQUARED SPACING: 0.0625
Info: NONBONDED TABLE SIZE: 705 POINTS
TCL: Setting parameter alchLambda2 to 0.2
Info: NONBONDED TABLE R-SQUARED SPACING: 0.0625
Info: NONBONDED TABLE SIZE: 705 POINTS
TCL: Running for 1500000 steps
ETITLE: TS BOND ANGLE DIHED IMPRP ELECT VDW BOUNDARY MISC KINETIC TOTAL TEMP POTENTIAL TOTALAVG TEMPAVG PRESSURE GPRESSURE VOLUME PRESSAVG GPRESSAVG
ENERGY: 0 4.0321 2.7321 4.6816 0.0000 -10636.9724 1416.9971 0.0000 0.0000 1822.9152 -7385.6142 310.2766 -9208.5294 -7385.6142 310.2766 -27.4246 42.6046 30227.1359 -27.4246 42.6046
ENERGY: 300000 3.2538 4.3537 2.7907 0.0000 -10724.6295 1417.1232 0.0000 0.0000 1745.1283 -7551.9799 297.0365 -9297.1082 -7515.2755 298.9725 -663.6281 -564.6501 30439.6487 -223.3504 -142.3665
ENERGY: 600000 1.3020 1.3949 4.8627 0.0000 -10592.2851 1337.8727 0.0000 0.0000 1769.5105 -7477.3423 301.1866 -9246.8528 -7506.9480 299.8288 -900.9135 -854.3302 30395.8764 -333.3752 -268.9397
ENERGY: 900000 1.7893 2.1214 2.3142 0.0000 -10484.2188 1323.4571 0.0000 0.0000 1761.5899 -7392.9468 299.8384 -9154.5367 -7495.3251 299.8117 -724.1701 -716.9794 30891.0112 -399.9880 -339.2055
ENERGY: 1200000 6.3953 1.7438 5.0459 0.0000 -10748.0475 1498.4114 0.0000 0.0000 1741.2637 -7495.1873 296.3787 -9236.4510 -7492.6001 299.0329 466.0326 551.5279 30134.5316 -338.3099 -277.5651
ENERGY: 1500000 1.8610 5.5785 2.7559 0.0000 -10624.4146 1455.4487 0.0000 0.0000 1826.6963 -7332.0742 310.9201 -9158.7706 -7484.3243 298.9870 283.9480 368.0413 30344.7844 -213.7519 -155.0725
TCL: Running FEP window   5: Lambda1 0.2    Lambda2 0.25   [dLambda 0.04999999999999999]
TCL: Setting parameter firsttimestep to 0
TCL: Setting parameter alchLambda to 0.2
Info: NONBONDED TABLE R-SQUARED SPACING: 0.0625
Info: NONBONDED TABLE SIZE: 705 POINTS
TCL: Setting parameter alchLambda2 to 0.25
Info: NONBONDED TABLE R-SQUARED SPACING: 0.0625
Info: NONBONDED TABLE SIZE: 705 POINTS
TCL: Running for 1500000 steps
ETITLE: TS BOND ANGLE DIHED IMPRP ELECT VDW BOUNDARY MISC KINETIC TOTAL TEMP POTENTIAL TOTALAVG TEMPAVG PRESSURE GPRESSURE VOLUME PRESSAVG GPRESSAVG
ENERGY: 0 1.8610 5.5785 2.7559 0.0000 -10624.4140 1455.4815 0.0000 0.0000 1825.7789 -7332.9583 310.7640 -9158.7372 -7332.9583 310.7640 285.8342 373.0599 30344.7844 285.8342 373.0599
ENERGY: 300000 1.7485 2.8395 5.0603 0.0000 -10815.4512 1507.7645 0.0000 0.0000 1825.2691 -7472.7693 310.6772 -9298.0384 -7414.6634 304.3559 824.0050 885.9446 29665.9433 271.8112 320.2221
ENERGY: 600000 1.4312 2.4560 2.9646 0.0000 -10811.9356 1491.7380 0.0000 0.0000 1731.8490 -7581.4968 294.7763 -9313.3457 -7454.6915 303.7165 280.4081 347.7948 30026.2579 167.6476 211.5084
ENERGY: 900000 3.4183 5.0045 1.2230 0.0000 -10725.4783 1420.5530 0.0000 0.0000 1776.5977 -7518.6818 302.3929 -9295.2795 -7477.4641 301.6602 -354.3884 -302.7125 30583.8673 -42.5432 -2.8372
ENERGY: 1200000 4.1275 3.5254 3.4215 0.0000 -10821.0975 1533.8100 0.0000 0.0000 1769.6239 -7506.5892 301.2059 -9276.2132 -7483.5297 301.0599 631.8799 766.9246 29717.3102 -92.1030 -46.0293
ENERGY: 1500000 4.3952 1.5281 4.4483 0.0000 -10797.6733 1469.9960 0.0000 0.0000 1724.3733 -7592.9323 293.5038 -9317.3056 -7493.3997 300.9404 -210.3882 -171.4209 30563.6636 -20.6316 25.1609
TCL: Running FEP window   6: Lambda1 0.25   Lambda2 0.3    [dLambda 0.04999999999999999]
TCL: Setting parameter firsttimestep to 0
TCL: Setting parameter alchLambda to 0.25
Info: NONBONDED TABLE R-SQUARED SPACING: 0.0625
Info: NONBONDED TABLE SIZE: 705 POINTS
TCL: Setting parameter alchLambda2 to 0.3
Info: NONBONDED TABLE R-SQUARED SPACING: 0.0625
Info: NONBONDED TABLE SIZE: 705 POINTS
TCL: Running for 1500000 steps
ETITLE: TS BOND ANGLE DIHED IMPRP ELECT VDW BOUNDARY MISC KINETIC TOTAL TEMP POTENTIAL TOTALAVG TEMPAVG PRESSURE GPRESSURE VOLUME PRESSAVG GPRESSAVG
ENERGY: 0 4.3953 1.5281 4.4483 0.0000 -10797.6735 1469.7227 0.0000 0.0000 1723.5460 -7594.0330 293.3630 -9317.5790 -7594.0330 293.3630 -252.1879 -171.1184 30563.6636 -252.1879 -171.1184
ENERGY: 300000 1.5976 4.4960 7.6137 0.0000 -10720.7309 1476.5654 0.0000 0.0000 1780.9379 -7449.5204 303.1316 -9230.4583 -7487.9450 296.2900 324.6728 348.9364 30379.3025 40.8555 89.1550
ENERGY: 600000 1.7478 5.8415 5.8477 0.0000 -10621.8574 1337.5013 0.0000 0.0000 1769.7656 -7501.1534 301.2300 -9270.9191 -7492.7958 297.2302 -845.5998 -820.4452 30286.4827 -91.5158 -57.5347
ENERGY: 900000 3.9457 4.0039 4.2310 0.0000 -10662.1287 1381.3872 0.0000 0.0000 1747.5856 -7520.9753 297.4548 -9268.5609 -7489.7107 299.1250 -576.2895 -526.6002 30244.7581 2.0750 36.5706
ENERGY: 1200000 1.3421 5.5979 2.8919 0.0000 -10704.7130 1435.4207 0.0000 0.0000 1759.3275 -7500.1328 299.4534 -9259.4603 -7502.4325 298.3432 154.0003 201.6319 29995.7718 65.6228 109.0364
ENERGY: 1500000 5.6553 2.1014 0.5481 0.0000 -10765.0734 1514.7859 0.0000 0.0000 1757.6193 -7484.3634 299.1626 -9241.9826 -7502.6296 298.7415 168.2029 287.4556 31010.9423 54.1817 101.7092
TCL: Running FEP window   7: Lambda1 0.3    Lambda2 0.35   [dLambda 0.04999999999999999]
TCL: Setting parameter firsttimestep to 0
TCL: Setting parameter alchLambda to 0.3
Info: NONBONDED TABLE R-SQUARED SPACING: 0.0625
Info: NONBONDED TABLE SIZE: 705 POINTS
TCL: Setting parameter alchLambda2 to 0.35
Info: NONBONDED TABLE R-SQUARED SPACING: 0.0625
Info: NONBONDED TABLE SIZE: 705 POINTS
TCL: Running for 1500000 steps
ETITLE: TS BOND ANGLE DIHED IMPRP ELECT VDW BOUNDARY MISC KINETIC TOTAL TEMP POTENTIAL TOTALAVG TEMPAVG PRESSURE GPRESSURE VOLUME PRESSAVG GPRESSAVG
ENERGY: 0 5.6553 2.1014 0.5481 0.0000 -10765.0749 1514.2874 0.0000 0.0000 1756.7417 -7485.7409 299.0132 -9242.4827 -7485.7409 299.0132 212.8363 290.4809 31010.9423 212.8363 290.4809
ENERGY: 300000 3.3206 2.7964 1.9890 0.0000 -10610.9205 1322.1264 0.0000 0.0000 1744.3666 -7536.3214 296.9069 -9280.6881 -7527.3607 297.0516 -989.3671 -944.2901 30768.7245 -438.8510 -379.1653
ENERGY: 600000 3.1502 1.2250 2.4760 0.0000 -10595.8861 1377.3794 0.0000 0.0000 1767.6297 -7444.0258 300.8665 -9211.6555 -7513.6407 297.2519 -283.4649 -202.5968 30005.9994 -307.5052 -236.5255
ENERGY: 900000 2.2709 3.2124 1.6902 0.0000 -10600.3751 1394.0437 0.0000 0.0000 1772.5530 -7426.6048 301.7045 -9199.1578 -7485.6286 299.8491 178.8242 262.3131 29610.1426 -262.3822 -194.2992
ENERGY: 1200000 7.5328 2.6855 2.8860 0.0000 -10766.6246 1480.3579 0.0000 0.0000 1718.8487 -7554.3138 292.5635 -9273.1625 -7485.8491 300.0496 -68.8597 12.7003 30513.8244 -135.3343 -66.3536
ENERGY: 1500000 1.6987 3.5927 3.0129 0.0000 -10674.4499 1387.9324 0.0000 0.0000 1777.5668 -7500.6464 302.5579 -9278.2132 -7490.9880 299.7012 -675.9439 -619.2928 30714.2164 -145.6878 -81.5853
TCL: Running FEP window   8: Lambda1 0.35   Lambda2 0.39999999999999997 [dLambda 0.04999999999999999]
TCL: Setting parameter firsttimestep to 0
TCL: Setting parameter alchLambda to 0.35
Info: NONBONDED TABLE R-SQUARED SPACING: 0.0625
Info: NONBONDED TABLE SIZE: 705 POINTS
TCL: Setting parameter alchLambda2 to 0.39999999999999997
Info: NONBONDED TABLE R-SQUARED SPACING: 0.0625
Info: NONBONDED TABLE SIZE: 705 POINTS
TCL: Running for 1500000 steps
ETITLE: TS BOND ANGLE DIHED IMPRP ELECT VDW BOUNDARY MISC KINETIC TOTAL TEMP POTENTIAL TOTALAVG TEMPAVG PRESSURE GPRESSURE VOLUME PRESSAVG GPRESSAVG
ENERGY: 0 1.6987 3.5927 3.0129 0.0000 -10674.4495 1387.6194 0.0000 0.0000 1776.7170 -7501.8089 302.4132 -9278.5259 -7501.8089 302.4132 -686.9228 -617.9086 30714.2164 -686.9228 -617.9086
ENERGY: 300000 4.8700 2.2636 2.3094 0.0000 -10907.9557 1554.5762 0.0000 0.0000 1753.3432 -7590.5933 298.4348 -9343.9365 -7544.5844 297.8456 514.0706 560.7408 30209.0200 1.1155 70.3953
ENERGY: 600000 3.4880 2.5433 6.1147 0.0000 -10719.2437 1450.0567 0.0000 0.0000 1747.7916 -7509.2494 297.4898 -9257.0410 -7503.1741 298.0647 298.0423 320.0082 29794.1143 -124.1585 -63.5014
ENERGY: 900000 4.3003 5.1938 6.6434 0.0000 -10572.1931 1401.0588 0.0000 0.0000 1762.4760 -7392.5208 299.9893 -9154.9968 -7502.0984 298.3992 -238.4096 -158.5751 30528.1203 -112.7343 -50.7357
ENERGY: 1200000 6.8672 2.6295 2.6541 0.0000 -10613.8652 1386.6065 0.0000 0.0000 1739.4735 -7475.6344 296.0740 -9215.1079 -7505.8839 298.0505 -508.5083 -454.5749 30719.8493 -76.4912 -16.2354
ENERGY: 1500000 3.5785 3.4527 4.0954 0.0000 -10659.1239 1430.5427 0.0000 0.0000 1788.4201 -7429.0344 304.4052 -9217.4546 -7502.4115 298.3200 2.8481 19.6882 30598.5617 -51.8685 8.1712
TCL: Running FEP window   9: Lambda1 0.39999999999999997 Lambda2 0.44999999999999996 [dLambda 0.04999999999999999]
TCL: Setting parameter firsttimestep to 0
TCL: Setting parameter alchLambda to 0.39999999999999997
Info: NONBONDED TABLE R-SQUARED SPACING: 0.0625
Info: NONBONDED TABLE SIZE: 705 POINTS
TCL: Setting parameter alchLambda2 to 0.44999999999999996
Info: NONBONDED TABLE R-SQUARED SPACING: 0.0625
Info: NONBONDED TABLE SIZE: 705 POINTS
TCL: Running for 1500000 steps
ETITLE: TS BOND ANGLE DIHED IMPRP ELECT VDW BOUNDARY MISC KINETIC TOTAL TEMP POTENTIAL TOTALAVG TEMPAVG PRESSURE GPRESSURE VOLUME PRESSAVG GPRESSAVG
ENERGY: 0 3.5785 3.4527 4.0954 0.0000 -10659.1250 1430.9424 0.0000 0.0000 1787.5231 -7429.5329 304.2525 -9217.0560 -7429.5329 304.2525 -69.3077 25.3923 30598.5617 -69.3077 25.3923
ENERGY: 300000 3.5575 4.2070 4.0885 0.0000 -10631.7477 1427.6384 0.0000 0.0000 1761.1019 -7431.1545 299.7554 -9192.2564 -7460.3001 301.5068 -49.0252 4.0005 30526.6273 119.8972 161.5443
ENERGY: 600000 2.4890 1.9864 2.4734 0.0000 -10706.6108 1442.0465 0.0000 0.0000 1686.9996 -7570.6159 287.1425 -9257.6155 -7488.5618 299.7158 -72.7212 -22.8833 30292.1035 66.6348 121.6337
ENERGY: 900000 2.6967 3.3144 2.4724 0.0000 -10831.6250 1490.6945 0.0000 0.0000 1823.0156 -7509.4314 310.2937 -9332.4471 -7497.4240 299.7173 460.0984 458.9216 29655.8037 197.8103 249.6650
ENERGY: 1200000 1.4051 2.7311 1.2135 0.0000 -10578.3091 1368.9579 0.0000 0.0000 1777.4621 -7426.5393 302.5400 -9204.0014 -7501.3619 300.0299 -511.8698 -444.3115 30805.9165 1.5359 56.6739
ENERGY: 1500000 3.4351 6.8115 2.7505 0.0000 -10776.2822 1504.2622 0.0000 0.0000 1741.0164 -7518.0066 296.3366 -9259.0229 -7497.4544 299.6622 438.6068 445.4358 30221.4643 64.0583 109.9770
TCL: Running FEP window  10: Lambda1 0.44999999999999996 Lambda2 0.49999999999999994 [dLambda 0.04999999999999999]
TCL: Setting parameter firsttimestep to 0
TCL: Setting parameter alchLambda to 0.44999999999999996
Info: NONBONDED TABLE R-SQUARED SPACING: 0.0625
Info: NONBONDED TABLE SIZE: 705 POINTS
TCL: Setting parameter alchLambda2 to 0.49999999999999994
Info: NONBONDED TABLE R-SQUARED SPACING: 0.0625
Info: NONBONDED TABLE SIZE: 705 POINTS
TCL: Running for 1500000 steps
ETITLE: TS BOND ANGLE DIHED IMPRP ELECT VDW BOUNDARY MISC KINETIC TOTAL TEMP POTENTIAL TOTALAVG TEMPAVG PRESSURE GPRESSURE VOLUME PRESSAVG GPRESSAVG
ENERGY: 0 3.4351 6.8115 2.7505 0.0000 -10776.2811 1503.9679 0.0000 0.0000 1740.1114 -7519.2047 296.1826 -9259.3161 -7519.2047 296.1826 379.2650 450.0169 30221.4643 379.2650 450.0169
ENERGY: 300000 2.1829 3.3143 6.0063 0.0000 -10617.8004 1368.5584 0.0000 0.0000 1791.4779 -7446.2607 304.9256 -9237.7385 -7500.7084 300.9059 -527.2227 -524.0872 30563.3819 187.0531 223.7581
ENERGY: 600000 1.2704 3.4681 3.7196 0.0000 -10582.0640 1400.6800 0.0000 0.0000 1789.9522 -7382.9738 304.6660 -9172.9260 -7479.0664 300.0691 116.4506 130.5651 30618.7802 30.4285 69.4515
ENERGY: 900000 7.5654 3.1018 1.4146 0.0000 -10751.9315 1395.5165 0.0000 0.0000 1750.7103 -7593.6229 297.9866 -9344.3332 -7490.9060 299.1427 -837.9286 -806.1757 30797.0731 -101.6705 -60.5372
ENERGY: 1200000 1.8847 6.1662 3.4131 0.0000 -10663.8213 1422.1559 0.0000 0.0000 1737.4296 -7492.7719 295.7261 -9230.2015 -7500.6012 298.5321 26.9290 14.3889 30433.9212 -132.0307 -95.4725
ENERGY: 1500000 3.8890 2.3866 3.8688 0.0000 -10734.9432 1433.2192 0.0000 0.0000 1804.4759 -7487.1037 307.1380 -9291.5796 -7487.1955 299.7483 -176.3758 -127.5593 30401.6598 -84.6723 -41.9809
TCL: Running FEP window  11: Lambda1 0.49999999999999994 Lambda2 0.5499999999999999 [dLambda 0.04999999999999999]
TCL: Setting parameter firsttimestep to 0
TCL: Setting parameter alchLambda to 0.49999999999999994
Info: NONBONDED TABLE R-SQUARED SPACING: 0.0625
Info: NONBONDED TABLE SIZE: 705 POINTS
TCL: Setting parameter alchLambda2 to 0.5499999999999999
Info: NONBONDED TABLE R-SQUARED SPACING: 0.0625
Info: NONBONDED TABLE SIZE: 705 POINTS
TCL: Running for 1500000 steps
ETITLE: TS BOND ANGLE DIHED IMPRP ELECT VDW BOUNDARY MISC KINETIC TOTAL TEMP POTENTIAL TOTALAVG TEMPAVG PRESSURE GPRESSURE VOLUME PRESSAVG GPRESSAVG
ENERGY: 0 3.8890 2.3866 3.8688 0.0000 -10734.9433 1433.7110 0.0000 0.0000 1803.5978 -7487.4902 306.9886 -9291.0880 -7487.4902 306.9886 -198.6615 -116.8935 30401.6598 -198.6615 -116.8935
ENERGY: 300000 1.9189 4.4104 4.4976 0.0000 -10709.2660 1512.3616 0.0000 0.0000 1778.8227 -7407.2549 302.7716 -9186.0776 -7461.9980 305.5424 630.4275 647.1181 30660.1682 -80.4169 -23.4113
ENERGY: 600000 2.0535 3.8756 3.2890 0.0000 -10751.3100 1393.6454 0.0000 0.0000 1792.5349 -7555.9116 305.1056 -9348.4465 -7484.0527 302.5170 -379.8723 -318.8044 29997.3166 -176.7577 -119.3337
ENERGY: 900000 3.1199 5.3849 2.7189 0.0000 -10594.4840 1425.4370 0.0000 0.0000 1787.5247 -7370.2984 304.2528 -9157.8231 -7467.0975 301.8839 248.1236 295.3116 30501.5547 -107.0013 -44.0962
ENERGY: 1200000 4.5856 5.2904 2.9993 0.0000 -10741.0841 1409.8281 0.0000 0.0000 1780.9675 -7537.4134 303.1367 -9318.3808 -7470.6467 301.7138 -276.8365 -202.2380 29744.4415 -56.1333 -0.5222
ENERGY: 1500000 3.6724 3.3898 2.6542 0.0000 -10752.8709 1442.5307 0.0000 0.0000 1691.8312 -7608.7926 287.9649 -9300.6238 -7480.5672 300.5564 -457.3979 -346.8138 30383.0939 13.5301 68.7048
TCL: Running FEP window  12: Lambda1 0.5499999999999999 Lambda2 0.6    [dLambda 0.050000000000000044]
TCL: Setting parameter firsttimestep to 0
TCL: Setting parameter alchLambda to 0.5499999999999999
Info: NONBONDED TABLE R-SQUARED SPACING: 0.0625
Info: NONBONDED TABLE SIZE: 705 POINTS
TCL: Setting parameter alchLambda2 to 0.6
Info: NONBONDED TABLE R-SQUARED SPACING: 0.0625
Info: NONBONDED TABLE SIZE: 705 POINTS
TCL: Running for 1500000 steps
ETITLE: TS BOND ANGLE DIHED IMPRP ELECT VDW BOUNDARY MISC KINETIC TOTAL TEMP POTENTIAL TOTALAVG TEMPAVG PRESSURE GPRESSURE VOLUME PRESSAVG GPRESSAVG
ENERGY: 0 3.6724 3.3898 2.6542 0.0000 -10752.6654 1442.4365 0.0000 0.0000 1690.9391 -7609.5733 287.8130 -9300.5125 -7609.5733 287.8130 -423.7173 -343.3352 30383.0939 -423.7173 -343.3352
ENERGY: 300000 3.7579 2.2445 5.8431 0.0000 -10624.5085 1404.0152 0.0000 0.0000 1780.6486 -7427.9992 303.0824 -9208.6478 -7524.2212 296.3708 -249.8243 -246.9495 30630.2523 -178.1887 -144.2431
ENERGY: 600000 3.1605 1.5124 4.7038 0.0000 -10745.4110 1463.9873 0.0000 0.0000 1810.7120 -7461.3350 308.1995 -9272.0470 -7525.4947 296.3746 -20.0678 2.6537 30767.3711 85.8118 124.8705
ENERGY: 900000 1.2480 4.3296 2.3927 0.0000 -10831.4209 1518.8461 0.0000 0.0000 1776.4273 -7528.1773 302.3639 -9304.6045 -7511.5318 298.2821 623.4450 654.7378 30268.3891 -46.2180 -11.0330
ENERGY: 1200000 5.7604 4.5812 3.0057 0.0000 -10812.9673 1525.2835 0.0000 0.0000 1770.7916 -7503.5449 301.4047 -9274.3365 -7497.4544 299.6016 565.5232 611.6259 30549.5471 -66.4987 -27.9171
ENERGY: 1500000 1.7864 4.5381 6.7595 0.0000 -10602.3676 1375.4627 0.0000 0.0000 1800.4769 -7413.3439 306.4574 -9213.8209 -7485.8443 300.0695 -308.6980 -231.5304 30425.8438 -174.5577 -127.8873
TCL: Running FEP window  13: Lambda1 0.6    Lambda2 0.65   [dLambda 0.050000000000000044]
TCL: Setting parameter firsttimestep to 0
TCL: Setting parameter alchLambda to 0.6
Info: NONBONDED TABLE R-SQUARED SPACING: 0.0625
Info: NONBONDED TABLE SIZE: 705 POINTS
TCL: Setting parameter alchLambda2 to 0.65
Info: NONBONDED TABLE R-SQUARED SPACING: 0.0625
Info: NONBONDED TABLE SIZE: 705 POINTS
TCL: Running for 1500000 steps
ETITLE: TS BOND ANGLE DIHED IMPRP ELECT VDW BOUNDARY MISC KINETIC TOTAL TEMP POTENTIAL TOTALAVG TEMPAVG PRESSURE GPRESSURE VOLUME PRESSAVG GPRESSAVG
ENERGY: 0 1.7864 4.5381 6.7595 0.0000 -10602.2665 1375.9139 0.0000 0.0000 1799.5648 -7413.7037 306.3021 -9213.2685 -7413.7037 306.3021 -312.0880 -219.5175 30425.8438 -312.0880 -219.5175
ENERGY: 300000 4.6831 2.9335 5.5335 0.0000 -10562.1273 1345.1700 0.0000 0.0000 1753.9180 -7449.8892 298.5326 -9203.8072 -7446.7518 300.3307 -731.3263 -705.9688 30602.6404 -321.6775 -244.9462
ENERGY: 600000 3.3101 4.8094 3.8003 0.0000 -10739.4298 1357.5539 0.0000 0.0000 1769.4850 -7600.4711 301.1823 -9369.9561 -7466.7148 303.4070 -990.1188 -897.0212 29905.3174 -307.7150 -237.6916
ENERGY: 900000 0.6992 4.1231 6.8528 0.0000 -10756.4541 1417.8766 0.0000 0.0000 1752.5867 -7574.3156 298.3060 -9326.9023 -7478.0473 302.3259 -299.4465 -204.4226 30392.7787 -243.7121 -177.7264
ENERGY: 1200000 2.2032 4.7109 6.0763 0.0000 -10703.8464 1439.4478 0.0000 0.0000 1772.1494 -7479.2588 301.6358 -9251.4082 -7473.5401 301.8379 106.8030 188.3371 29912.2099 -167.5181 -101.4756
ENERGY: 1500000 2.6614 1.4498 5.1883 0.0000 -10801.8479 1486.2916 0.0000 0.0000 1769.7422 -7536.5146 301.2260 -9306.2568 -7475.3345 301.9001 223.8941 267.0513 30204.4088 -126.5145 -65.3969
TCL: Running FEP window  14: Lambda1 0.65   Lambda2 0.7000000000000001 [dLambda 0.050000000000000044]
TCL: Setting parameter firsttimestep to 0
TCL: Setting parameter alchLambda to 0.65
Info: NONBONDED TABLE R-SQUARED SPACING: 0.0625
Info: NONBONDED TABLE SIZE: 705 POINTS
TCL: Setting parameter alchLambda2 to 0.7000000000000001
Info: NONBONDED TABLE R-SQUARED SPACING: 0.0625
Info: NONBONDED TABLE SIZE: 705 POINTS
TCL: Running for 1500000 steps
ETITLE: TS BOND ANGLE DIHED IMPRP ELECT VDW BOUNDARY MISC KINETIC TOTAL TEMP POTENTIAL TOTALAVG TEMPAVG PRESSURE GPRESSURE VOLUME PRESSAVG GPRESSAVG
ENERGY: 0 2.6614 1.4498 5.1883 0.0000 -10802.6713 1486.1143 0.0000 0.0000 1768.8338 -7538.4236 301.0714 -9307.2575 -7538.4236 301.0714 189.2600 273.0644 30204.4088 189.2600 273.0644
ENERGY: 300000 2.8504 3.1494 8.1371 0.0000 -10689.8513 1423.0451 0.0000 0.0000 1785.5973 -7467.0719 303.9247 -9252.6692 -7466.0650 302.3924 -394.1844 -300.7627 30986.9709 215.2271 277.4515
ENERGY: 600000 3.8099 4.4288 5.3591 0.0000 -10628.0913 1377.6405 0.0000 0.0000 1781.9514 -7454.9015 303.3042 -9236.8529 -7470.6883 302.7065 -421.0867 -391.7991 30326.6864 82.7439 128.0492
ENERGY: 900000 3.2648 3.4428 5.5063 0.0000 -10632.8924 1361.7800 0.0000 0.0000 1747.1683 -7511.7302 297.3838 -9258.8986 -7484.9165 301.1706 -906.6029 -785.5232 30936.1926 -128.5924 -83.4009
ENERGY: 1200000 3.1514 2.7668 2.3867 0.0000 -10619.2198 1373.9678 0.0000 0.0000 1773.2077 -7463.7394 301.8159 -9236.9471 -7486.6168 300.2982 -597.3010 -496.9218 30469.6281 -179.3087 -132.2935
ENERGY: 1500000 1.2524 2.6072 6.6124 0.0000 -10725.3629 1500.9176 0.0000 0.0000 1836.8822 -7377.0912 312.6539 -9213.9734 -7474.4019 301.2534 837.3153 920.6160 29935.5490 -62.1444 -7.6242
TCL: Running FEP window  15: Lambda1 0.7000000000000001 Lambda2 0.7500000000000001 [dLambda 0.050000000000000044]
TCL: Setting parameter firsttimestep to 0
TCL: Setting parameter alchLambda to 0.7000000000000001
Info: NONBONDED TABLE R-SQUARED SPACING: 0.0625
Info: NONBONDED TABLE SIZE: 705 POINTS
TCL: Setting parameter alchLambda2 to 0.7500000000000001
Info: NONBONDED TABLE R-SQUARED SPACING: 0.0625
Info: NONBONDED TABLE SIZE: 705 POINTS
TCL: Running for 1500000 steps
ETITLE: TS BOND ANGLE DIHED IMPRP ELECT VDW BOUNDARY MISC KINETIC TOTAL TEMP POTENTIAL TOTALAVG TEMPAVG PRESSURE GPRESSURE VOLUME PRESSAVG GPRESSAVG
ENERGY: 0 1.2524 2.6072 6.6124 0.0000 -10725.2773 1500.8041 0.0000 0.0000 1836.0180 -7377.9832 312.5068 -9214.0012 -7377.9832 312.5068 846.0989 929.5468 29935.5490 846.0989 929.5468
ENERGY: 300000 1.3666 4.3851 2.5592 0.0000 -10817.7599 1507.1013 0.0000 0.0000 1739.0196 -7563.3281 295.9968 -9302.3477 -7486.4113 303.7188 584.4929 593.3708 30145.4336 444.2610 484.9717
ENERGY: 600000 2.0483 2.3538 5.2228 0.0000 -10724.9110 1517.6388 0.0000 0.0000 1786.4495 -7411.1977 304.0698 -9197.6473 -7481.2335 301.5983 626.1064 664.0284 30629.5563 191.0862 234.9982
ENERGY: 900000 3.8815 3.4376 1.6364 0.0000 -10876.3913 1608.4831 0.0000 0.0000 1766.6173 -7492.3353 300.6941 -9258.9526 -7480.4765 302.1540 1406.0887 1411.4761 30358.1219 298.9691 332.5311
ENERGY: 1200000 2.1977 2.8368 4.9172 0.0000 -10584.3643 1376.9854 0.0000 0.0000 1772.0883 -7425.3389 301.6254 -9197.4273 -7485.2128 302.4913 -312.8758 -199.6524 30380.7357 188.1777 231.5569
ENERGY: 1500000 3.6941 6.6733 4.3210 0.0000 -10612.9753 1433.3860 0.0000 0.0000 1800.1354 -7364.7655 306.3992 -9164.9009 -7464.9700 303.5365 320.4152 426.3276 30342.7390 169.1999 217.5362
TCL: Running FEP window  16: Lambda1 0.7500000000000001 Lambda2 0.8000000000000002 [dLambda 0.050000000000000044]
TCL: Setting parameter firsttimestep to 0
TCL: Setting parameter alchLambda to 0.7500000000000001
Info: NONBONDED TABLE R-SQUARED SPACING: 0.0625
Info: NONBONDED TABLE SIZE: 705 POINTS
TCL: Setting parameter alchLambda2 to 0.8000000000000002
Info: NONBONDED TABLE R-SQUARED SPACING: 0.0625
Info: NONBONDED TABLE SIZE: 705 POINTS
TCL: Running for 1500000 steps
ETITLE: TS BOND ANGLE DIHED IMPRP ELECT VDW BOUNDARY MISC KINETIC TOTAL TEMP POTENTIAL TOTALAVG TEMPAVG PRESSURE GPRESSURE VOLUME PRESSAVG GPRESSAVG
ENERGY: 0 3.6941 6.6733 4.3210 0.0000 -10614.8961 1434.5429 0.0000 0.0000 1799.2584 -7366.4065 306.2500 -9165.6649 -7366.4065 306.2500 359.6846 443.8572 30342.7390 359.6846 443.8572
ENERGY: 300000 3.9280 3.5966 3.0788 0.0000 -10771.5373 1479.5134 0.0000 0.0000 1785.2539 -7496.1666 303.8663 -9281.4205 -7450.4881 301.3255 351.0159 467.6237 30122.1012 28.7518 101.1093
ENERGY: 600000 4.9642 7.2461 3.6055 0.0000 -10658.2761 1388.8034 0.0000 0.0000 1775.4693 -7478.1875 302.2009 -9253.6568 -7459.6117 301.6005 -329.6951 -247.1495 30214.4379 21.9839 84.9413
ENERGY: 900000 1.0993 4.4306 2.0184 0.0000 -10730.4473 1469.7715 0.0000 0.0000 1777.1184 -7476.0091 302.4815 -9253.1275 -7484.0866 300.9111 140.7523 215.8424 30515.5017 122.5022 185.1005
ENERGY: 1200000 2.2183 2.1181 2.8012 0.0000 -10747.2305 1450.3835 0.0000 0.0000 1760.7720 -7528.9374 299.6992 -9289.7094 -7495.7083 301.5239 269.4477 252.3949 30256.7476 169.9907 225.9306
ENERGY: 1500000 1.6518 4.4304 1.7130 0.0000 -10810.0360 1457.1567 0.0000 0.0000 1720.0054 -7625.0786 292.7604 -9345.0840 -7509.8389 300.4973 167.6102 203.6020 30078.1184 169.3023 222.3879
TCL: Running FEP window  17: Lambda1 0.8000000000000002 Lambda2 0.8500000000000002 [dLambda 0.050000000000000044]
TCL: Setting parameter firsttimestep to 0
TCL: Setting parameter alchLambda to 0.8000000000000002
Info: NONBONDED TABLE R-SQUARED SPACING: 0.0625
Info: NONBONDED TABLE SIZE: 705 POINTS
TCL: Setting parameter alchLambda2 to 0.8500000000000002
Info: NONBONDED TABLE R-SQUARED SPACING: 0.0625
Info: NONBONDED TABLE SIZE: 705 POINTS
TCL: Running for 1500000 steps
ETITLE: TS BOND ANGLE DIHED IMPRP ELECT VDW BOUNDARY MISC KINETIC TOTAL TEMP POTENTIAL TOTALAVG TEMPAVG PRESSURE GPRESSURE VOLUME PRESSAVG GPRESSAVG
ENERGY: 0 1.6518 4.4304 1.7130 0.0000 -10811.6023 1457.1512 0.0000 0.0000 1719.1220 -7627.5338 292.6100 -9346.6559 -7627.5338 292.6100 126.3931 207.7013 30078.1184 126.3931 207.7013
ENERGY: 300000 3.1464 5.2907 3.3573 0.0000 -10654.1416 1427.4482 0.0000 0.0000 1758.8746 -7456.0244 299.3763 -9214.8990 -7493.9962 299.1696 -107.5192 -40.6999 30391.1693 -92.9383 -21.9687
ENERGY: 600000 3.4753 2.3977 5.2736 0.0000 -10696.5994 1472.3987 0.0000 0.0000 1716.7664 -7496.2878 292.2091 -9213.0542 -7494.5381 299.7520 483.6767 548.4519 30246.4562 -27.7812 38.1583
ENERGY: 900000 2.4091 4.8151 7.4175 0.0000 -10650.4168 1406.9545 0.0000 0.0000 1783.7215 -7445.0992 303.6054 -9228.8207 -7491.3372 299.9127 145.9707 212.5263 30084.9671 93.6750 159.6435
ENERGY: 1200000 2.7120 3.4667 5.4693 0.0000 -10865.6454 1510.8278 0.0000 0.0000 1758.7355 -7584.4342 299.3526 -9343.1697 -7500.0267 299.6180 541.7520 605.3904 30016.7487 138.6104 198.0966
ENERGY: 1500000 1.5089 2.5578 1.5937 0.0000 -10853.5387 1508.8568 0.0000 0.0000 1750.1059 -7588.9155 297.8838 -9339.0214 -7510.6426 299.2208 440.2051 532.1360 30097.7003 50.5908 118.1347
TCL: Running FEP window  18: Lambda1 0.8500000000000002 Lambda2 0.9000000000000002 [dLambda 0.050000000000000044]
TCL: Setting parameter firsttimestep to 0
TCL: Setting parameter alchLambda to 0.8500000000000002
Info: NONBONDED TABLE R-SQUARED SPACING: 0.0625
Info: NONBONDED TABLE SIZE: 705 POINTS
TCL: Setting parameter alchLambda2 to 0.9000000000000002
Info: NONBONDED TABLE R-SQUARED SPACING: 0.0625
Info: NONBONDED TABLE SIZE: 705 POINTS
TCL: Running for 1500000 steps
ETITLE: TS BOND ANGLE DIHED IMPRP ELECT VDW BOUNDARY MISC KINETIC TOTAL TEMP POTENTIAL TOTALAVG TEMPAVG PRESSURE GPRESSURE VOLUME PRESSAVG GPRESSAVG
ENERGY: 0 1.5089 2.5579 1.5937 0.0000 -10856.1984 1511.1378 0.0000 0.0000 1749.2717 -7590.1285 297.7418 -9339.4002 -7590.1285 297.7418 465.7699 558.8193 30097.7003 465.7699 558.8193
ENERGY: 300000 2.1358 4.2385 3.7541 0.0000 -10690.2779 1406.6154 0.0000 0.0000 1790.0327 -7483.5014 304.6797 -9273.5341 -7523.2921 300.9772 -139.5918 -119.0117 30481.8280 -372.7892 -301.4886
ENERGY: 600000 1.7930 3.3446 3.3796 0.0000 -10772.3264 1476.1378 0.0000 0.0000 1726.1917 -7561.4797 293.8133 -9287.6714 -7530.7134 299.8067 286.7354 298.2166 30325.7671 -159.9154 -101.6067
ENERGY: 900000 3.6283 1.3972 3.6764 0.0000 -10820.3551 1536.1966 0.0000 0.0000 1743.8283 -7531.6282 296.8153 -9275.4566 -7530.9826 298.8816 864.5113 979.9626 30275.1136 24.3703 83.1047
ENERGY: 1200000 2.3682 1.6656 2.9454 0.0000 -10768.2063 1471.9704 0.0000 0.0000 1752.3672 -7536.8894 298.2687 -9289.2566 -7526.4953 298.6974 473.0878 513.5844 29921.9605 -16.7304 43.7561
ENERGY: 1500000 3.3147 5.8878 2.7878 0.0000 -10814.8583 1485.2853 0.0000 0.0000 1797.5056 -7520.0770 305.9516 -9317.5826 -7516.1399 299.8926 283.8645 345.9322 30503.2353 38.0384 98.7063
TCL: Running FEP window  19: Lambda1 0.9000000000000002 Lambda2 0.9500000000000003 [dLambda 0.050000000000000044]
TCL: Setting parameter firsttimestep to 0
TCL: Setting parameter alchLambda to 0.9000000000000002
Info: NONBONDED TABLE R-SQUARED SPACING: 0.0625
Info: NONBONDED TABLE SIZE: 705 POINTS
TCL: Setting parameter alchLambda2 to 0.9500000000000003
Info: NONBONDED TABLE R-SQUARED SPACING: 0.0625
Info: NONBONDED TABLE SIZE: 705 POINTS
TCL: Running for 1500000 steps
ETITLE: TS BOND ANGLE DIHED IMPRP ELECT VDW BOUNDARY MISC KINETIC TOTAL TEMP POTENTIAL TOTALAVG TEMPAVG PRESSURE GPRESSURE VOLUME PRESSAVG GPRESSAVG
ENERGY: 0 3.3147 5.8878 2.7878 0.0000 -10817.0121 1485.9727 0.0000 0.0000 1796.6210 -7522.4280 305.8010 -9319.0490 -7522.4280 305.8010 297.4161 363.0953 30503.2353 297.4161 363.0953
ENERGY: 300000 7.3367 4.2939 5.5733 0.0000 -10597.7357 1395.7221 0.0000 0.0000 1779.7409 -7405.0687 302.9279 -9184.8096 -7483.9313 301.2408 -21.7339 -7.9203 30682.0434 173.0350 247.0198
ENERGY: 600000 0.6301 3.3700 2.7529 0.0000 -10689.5900 1467.6317 0.0000 0.0000 1743.0312 -7472.1741 296.6796 -9215.2053 -7477.4310 301.2786 264.5613 352.1858 30765.3949 -8.4877 70.5796
ENERGY: 900000 3.3994 3.0210 4.1733 0.0000 -10723.4998 1436.4110 0.0000 0.0000 1783.3015 -7493.1936 303.5340 -9276.4951 -7486.8631 299.9666 -192.0243 -129.5454 30727.7903 105.7436 183.1252
ENERGY: 1200000 3.8713 4.1386 6.2862 0.0000 -10687.2497 1386.5903 0.0000 0.0000 1822.4558 -7463.9076 310.1984 -9286.3634 -7484.3694 300.6034 -828.7268 -712.0065 30930.2023 -52.2846 23.0750
ENERGY: 1500000 1.0128 2.1044 2.8011 0.0000 -10661.9673 1342.5189 0.0000 0.0000 1773.0309 -7540.4991 301.7858 -9313.5300 -7486.6329 301.1532 -689.1639 -674.9723 30158.0954 -132.3372 -60.9964
TCL: Running FEP window  20: Lambda1 0.9500000000000003 Lambda2 1.0    [dLambda 0.04999999999999971]
TCL: Setting parameter firsttimestep to 0
TCL: Setting parameter alchLambda to 0.9500000000000003
Info: NONBONDED TABLE R-SQUARED SPACING: 0.0625
Info: NONBONDED TABLE SIZE: 705 POINTS
TCL: Setting parameter alchLambda2 to 1.0
Info: NONBONDED TABLE R-SQUARED SPACING: 0.0625
Info: NONBONDED TABLE SIZE: 705 POINTS
TCL: Running for 1500000 steps
ETITLE: TS BOND ANGLE DIHED IMPRP ELECT VDW BOUNDARY MISC KINETIC TOTAL TEMP POTENTIAL TOTALAVG TEMPAVG PRESSURE GPRESSURE VOLUME PRESSAVG GPRESSAVG
ENERGY: 0 1.0128 2.1044 2.8011 0.0000 -10663.8562 1343.1814 0.0000 0.0000 1772.1692 -7542.5873 301.6391 -9314.7565 -7542.5873 301.6391 -751.6347 -660.8283 30158.0954 -751.6347 -660.8283
ENERGY: 300000 3.4491 7.2071 5.9174 0.0000 -10654.6192 1422.1961 0.0000 0.0000 1743.6442 -7472.2053 296.7839 -9215.8495 -7506.7577 300.5333 -18.6256 79.5191 30553.8457 -498.2308 -423.4109
ENERGY: 600000 1.9856 4.8630 2.7365 0.0000 -10867.8050 1570.3911 0.0000 0.0000 1819.9428 -7467.8861 309.7706 -9287.8289 -7520.2502 300.6689 1045.8718 1175.4628 30151.8144 -55.2630 18.4378
ENERGY: 900000 2.4352 4.9094 8.0598 0.0000 -10638.8764 1391.9158 0.0000 0.0000 1758.0059 -7473.5503 299.2284 -9231.5562 -7514.8526 300.1694 -218.7592 -152.1445 30167.9240 85.8354 161.0732
ENERGY: 1200000 2.2971 5.5832 1.0472 0.0000 -10576.5709 1397.0455 0.0000 0.0000 1766.2837 -7404.3142 300.6374 -9170.5979 -7512.5534 299.9720 -280.8914 -204.0880 30739.9490 41.8348 117.1587
ENERGY: 1500000 2.5534 3.6986 2.4688 0.0000 -10646.1312 1350.5482 0.0000 0.0000 1757.4085 -7529.4536 299.1267 -9286.8621 -7509.6573 299.5891 -663.9460 -599.3988 30388.6660 -2.1771 72.2221
TCL: Exiting due to exit command.
