Info: SIMULATION PARAMETERS:
Info: TIMESTEP               2
Info: NUMBER OF STEPS        0
Info: STEPS PER CYCLE        10
Info: PERIODIC CELL BASIS 1  32.193 0 0
Info: PERIODIC CELL BASIS 2  0 29.3839 0
Info: PERIODIC CELL BASIS 3  0 0 31.4285
Info: PERIODIC CELL CENTER   0 0 0
Info: WRAPPING WATERS AROUND PERIODIC BOUNDARIES ON OUTPUT.
Info: WRAPPING ALL CLUSTERS AROUND PERIODIC BOUNDARIES ON OUTPUT.
Info: FIRST LDB TIMESTEP     50
Info: LAST LDB TIMESTEP     -1
Info: HOM BACKGROUND SCALING 1
Info: PME BACKGROUND SCALING 1
Info: MIN ATOMS PER PATCH    40
Info: EMPTY PATCH LOAD       40 ATOMS
Info: VELOCITY FILE          mobley_4043987_equil.vel
Info: CENTER OF MASS MOVING INITIALLY? NO
Info: DIELECTRIC             1
Info: EXCLUDE                SCALED ONE-FOUR
Info: 1-4 ELECTROSTATICS SCALED BY 0.833333
Info: MODIFIED 1-4 VDW PARAMETERS WILL BE USED
Info: DCD FILENAME           mobley_4043987_prod.dcd
Info: DCD FREQUENCY          100000
Info: DCD FIRST STEP         100000
Info: DCD FILE WILL CONTAIN UNIT CELL DATA
Info: XST FILENAME           mobley_4043987_prod.xst
Info: XST FREQUENCY          100000
Info: NO VELOCITY DCD OUTPUT
Info: NO FORCE DCD OUTPUT
Info: OUTPUT FILENAME        mobley_4043987_prod
Info: BINARY OUTPUT FILES WILL BE USED
Info: RESTART FILENAME       mobley_4043987_prod.restart
Info: RESTART FREQUENCY      100000
Info: BINARY RESTART FILES WILL BE USED
Info: CUTOFF                 9
Info: PAIRLIST DISTANCE      11
Info: PAIRLIST SHRINK RATE   0.01
Info: PAIRLIST GROW RATE     0.01
Info: PAIRLIST TRIGGER       0.3
Info: PAIRLISTS PER CYCLE    2
Info: PAIRLISTS ENABLED
Info: MARGIN                 2
Info: HYDROGEN GROUP CUTOFF  2.5
Info: PATCH DIMENSION        15.5
Info: ENERGY OUTPUT STEPS    100000
Info: ENERGY EVALUATION STEPS    100000
Info: OUTPUT ENERGY PRECISION 4
Info: CROSSTERM ENERGY INCLUDED IN DIHEDRAL
Info: TIMING OUTPUT STEPS    1000000
Info: PRESSURE OUTPUT STEPS  100000
Info: ALCHEMICAL FEP ON
Info: FEP CURRENT LAMBDA VALUE     1
Info: FEP COMPARISON LAMBDA VALUE  0.95
Info: FEP INTRA-ALCHEMICAL NON-BONDED INTERACTIONS WILL BE RETAINED
Info: FEP INTRA-ALCHEMICAL BONDED INTERACTIONS WILL BE RETAINED
Info: FEP VDW SHIFTING COEFFICIENT 5
Info: FEP ELEC. ACTIVE FOR ANNIHILATED PARTICLES BETWEEN LAMBDA = 0 AND LAMBDA = 0.5
Info: FEP ELEC. ACTIVE FOR EXNIHILATED PARTICLES BETWEEN LAMBDA = 0.5 AND LAMBDA = 1
Info: FEP VDW ACTIVE FOR ANNIHILATED PARTICLES BETWEEN LAMBDA = 0 AND LAMBDA = 1
Info: FEP VDW ACTIVE FOR EXNIHILATED PARTICLES BETWEEN LAMBDA = 0 AND LAMBDA = 1
Info: FEP BOND ACTIVE FOR ANNIHILATED PARTICLES BETWEEN LAMBDA = 1 AND LAMBDA = 1
Info: FEP BOND ACTIVE FOR EXNIHILATED PARTICLES BETWEEN LAMBDA = 0 AND LAMBDA = 0
Info: LANGEVIN DYNAMICS ACTIVE
Info: LANGEVIN TEMPERATURE   300
Info: LANGEVIN USING BBK INTEGRATOR
Info: LANGEVIN DAMPING COEFFICIENT IS 1 INVERSE PS
Info: LANGEVIN DYNAMICS APPLIED TO HYDROGENS
Info: LANGEVIN PISTON PRESSURE CONTROL ACTIVE
Info:        TARGET PRESSURE IS 1.01325 BAR
Info:     OSCILLATION PERIOD IS 50 FS
Info:             DECAY TIME IS 25 FS
Info:     PISTON TEMPERATURE IS 300 K
Info:       PRESSURE CONTROL IS GROUP-BASED
Info:    INITIAL STRAIN RATE IS 0.000435817 0.000435817 0.000435817
Info:       CELL FLUCTUATION IS ISOTROPIC
Info: PARTICLE MESH EWALD (PME) ACTIVE
Info: PME TOLERANCE               1e-06
Info: PME EWALD COEFFICIENT       0.348832
Info: PME INTERPOLATION ORDER     4
Info: PME GRID DIMENSIONS         36 32 32
Info: PME MAXIMUM GRID SPACING    1
Info: PME CALCULATION WILL BE PERFORMED ON GPU
Info: FULL ELECTROSTATIC EVALUATION FREQUENCY      2
Info: USING VERLET I (r-RESPA) MTS SCHEME.
Info: C1 SPLITTING OF LONG RANGE ELECTROSTATICS
Info: PLACING ATOMS IN PATCHES BY HYDROGEN GROUPS
Info: RIGID BONDS TO HYDROGEN : ALL
Info:         ERROR TOLERANCE : 1e-08
Info:          MAX ITERATIONS : 100
Info: RIGID WATER USING SETTLE ALGORITHM
Info: RANDOM NUMBER SEED     1743938016
Info: USE HYDROGEN BONDS?    NO
Info: Using AMBER format force field!
Info: AMBER PARM FILE        mobley_4043987.prmtop
Info: COORDINATE PDB         mobley_4043987.pdb
Info: Exclusions will be read from PARM file!
Info: SCNB (VDW SCALING)     2
Info: USING ARITHMETIC MEAN TO COMBINE L-J SIGMA PARAMETERS
Info: BINARY COORDINATES     mobley_4043987_equil.coor
Info: SUMMARY OF PARAMETERS:
Info: 4 BONDS
Info: 3 ANGLES
Info:   3 HARMONIC
Info:   0 COSINE-BASED
Info: 5 DIHEDRAL
Info: 0 IMPROPER
Info: 0 CROSSTERM
Info: 0 VDW
Info: 10 VDW_PAIRS
Info: 0 NBTHOLE_PAIRS
Info: To read alchdata from file: mobley_4043987.pdb
Info: To read alchflag data from column: 5
Info: STRUCTURE SUMMARY:
Info: 2942 ATOMS
Info: 2941 BONDS
Info: 42 ANGLES
Info: 62 DIHEDRALS
Info: 0 IMPROPERS
Info: 0 CROSSTERMS
Info: 3037 EXCLUSIONS
Info: 2935 RIGID BONDS
Info: ALCH: 0 ATOMS TO DISAPPEAR IN FINAL STATE
Info: ALCH: 23 ATOMS TO APPEAR IN FINAL STATE
Info: 5891 DEGREES OF FREEDOM
Info: 980 HYDROGEN GROUPS
Info: 4 ATOMS IN LARGEST HYDROGEN GROUP
Info: 980 MIGRATION GROUPS
Info: 4 ATOMS IN LARGEST MIGRATION GROUP
Info: TOTAL MASS = 17629.8 amu
Info: TOTAL CHARGE = 0.0002 e
Info: MASS DENSITY = 0.984718 g/cm^3
Info: ATOM DENSITY = 0.0989575 atoms/A^3
Info: ADDED 0 IMPLICIT EXCLUSIONS
Info: NONBONDED TABLE R-SQUARED SPACING: 0.0625
Info: NONBONDED TABLE SIZE: 705 POINTS
Info: REMOVING COM VELOCITY -0.0204242 -0.0863469 0.151896
Info: Use 3D box decompostion in PME FFT.
Info: Updated CUDA force table with 4096 elements.
Info: Updated CUDA LJ table with 4 x 4 elements.
Info: Found 26 unique exclusion lists needing 80 bytes
TCL: Running for 1500000 steps
ETITLE: TS BOND ANGLE DIHED IMPRP ELECT VDW BOUNDARY MISC KINETIC TOTAL TEMP POTENTIAL TOTALAVG TEMPAVG PRESSURE GPRESSURE VOLUME PRESSAVG GPRESSAVG
ENERGY: 0 1.2204 16.0167 2.9263 0.0000 -10673.4086 1464.2505 0.0000 0.0000 1816.6287 -7372.3660 310.3613 -9188.9948 -7372.3660 310.3613 613.1488 709.0507 29729.9332 613.1488 709.0507
ENERGY: 300000 3.0745 14.9695 6.0251 0.0000 -10783.0177 1557.4843 0.0000 0.0000 1737.6009 -7463.8635 296.8598 -9201.4643 -7425.3481 301.9650 742.1970 897.8488 30137.2994 524.1349 633.6156
ENERGY: 600000 1.0300 7.7795 4.9068 0.0000 -10579.7861 1398.5188 0.0000 0.0000 1740.4911 -7427.0598 297.3536 -9167.5509 -7430.1365 301.2385 -275.4164 -127.0750 30295.9578 440.2248 530.4765
ENERGY: 900000 2.0353 9.3524 5.8998 0.0000 -10508.4477 1302.4096 0.0000 0.0000 1779.8757 -7408.8749 304.0822 -9188.7506 -7433.9314 301.7758 -1114.4307 -971.8045 30544.2725 38.2462 138.5984
ENERGY: 1200000 0.8418 9.5029 4.3571 0.0000 -10563.1992 1411.0272 0.0000 0.0000 1753.8433 -7383.6270 299.6347 -9137.4703 -7440.8053 300.5858 72.2082 138.5875 30197.6878 33.6732 123.1666
ENERGY: 1500000 1.6440 10.0996 2.7331 0.0000 -10460.0692 1308.9132 0.0000 0.0000 1703.6805 -7432.9988 291.0647 -9136.6793 -7440.8241 300.2944 -605.5207 -599.3739 30040.5087 11.2847 90.5464
TCL: Running FEP window   2: Lambda1 0.95   Lambda2 0.8999999999999999 [dLambda -0.050000000000000044]
TCL: Setting parameter firsttimestep to 0
TCL: Setting parameter alchLambda to 0.95
Info: NONBONDED TABLE R-SQUARED SPACING: 0.0625
Info: NONBONDED TABLE SIZE: 705 POINTS
TCL: Setting parameter alchLambda2 to 0.8999999999999999
Info: NONBONDED TABLE R-SQUARED SPACING: 0.0625
Info: NONBONDED TABLE SIZE: 705 POINTS
TCL: Running for 1500000 steps
ETITLE: TS BOND ANGLE DIHED IMPRP ELECT VDW BOUNDARY MISC KINETIC TOTAL TEMP POTENTIAL TOTALAVG TEMPAVG PRESSURE GPRESSURE VOLUME PRESSAVG GPRESSAVG
ENERGY: 0 1.6440 10.0996 2.7331 0.0000 -10460.0784 1309.0710 0.0000 0.0000 1702.8338 -7433.6970 290.9200 -9136.5308 -7433.6970 290.9200 -679.4609 -613.5117 30040.5087 -679.4609 -613.5117
ENERGY: 300000 2.3476 8.8249 3.6457 0.0000 -10568.5708 1401.0839 0.0000 0.0000 1774.3457 -7378.3231 303.1375 -9152.6688 -7388.1887 299.0543 -192.5201 -121.4559 30552.5716 -5.1137 66.9071
ENERGY: 600000 1.0164 12.8290 3.3224 0.0000 -10679.5877 1446.2053 0.0000 0.0000 1789.3670 -7426.8476 305.7038 -9216.2147 -7403.7420 299.8911 212.5424 296.5172 30256.0163 109.8792 173.4932
ENERGY: 900000 3.7177 8.5637 3.1381 0.0000 -10492.5010 1373.0724 0.0000 0.0000 1768.1432 -7335.8658 302.0778 -9104.0091 -7395.6579 300.9911 -403.2609 -355.2230 30488.5054 142.6203 188.3097
ENERGY: 1200000 1.6479 13.8464 3.8258 0.0000 -10601.4541 1401.9218 0.0000 0.0000 1775.3394 -7404.8729 303.3072 -9180.2123 -7407.1137 300.9779 -102.4009 -39.4933 30183.6372 75.4322 128.0350
ENERGY: 1500000 1.0584 14.3160 4.5913 0.0000 -10691.4858 1497.4246 0.0000 0.0000 1805.0253 -7369.0702 308.3789 -9174.0955 -7399.8429 302.0553 655.1128 691.1556 30544.0157 29.4016 79.9368
TCL: Running FEP window   3: Lambda1 0.8999999999999999 Lambda2 0.8499999999999999 [dLambda -0.050000000000000044]
TCL: Setting parameter firsttimestep to 0
TCL: Setting parameter alchLambda to 0.8999999999999999
Info: NONBONDED TABLE R-SQUARED SPACING: 0.0625
Info: NONBONDED TABLE SIZE: 705 POINTS
TCL: Setting parameter alchLambda2 to 0.8499999999999999
Info: NONBONDED TABLE R-SQUARED SPACING: 0.0625
Info: NONBONDED TABLE SIZE: 705 POINTS
TCL: Running for 1500000 steps
ETITLE: TS BOND ANGLE DIHED IMPRP ELECT VDW BOUNDARY MISC KINETIC TOTAL TEMP POTENTIAL TOTALAVG TEMPAVG PRESSURE GPRESSURE VOLUME PRESSAVG GPRESSAVG
ENERGY: 0 1.0584 14.3160 4.5913 0.0000 -10691.4923 1497.9633 0.0000 0.0000 1804.1748 -7369.3885 308.2336 -9173.5633 -7369.3885 308.2336 593.2088 686.5634 30544.0157 593.2088 686.5634
ENERGY: 300000 1.1931 9.1402 2.7476 0.0000 -10707.6633 1408.0497 0.0000 0.0000 1807.7202 -7478.8125 308.8393 -9286.5327 -7431.9348 304.1372 -199.8441 -130.8423 29937.0115 15.6185 97.2846
ENERGY: 600000 3.1746 9.9901 3.2488 0.0000 -10521.5277 1339.5762 0.0000 0.0000 1775.0982 -7390.4397 303.2660 -9165.5380 -7421.3568 303.8835 -539.7701 -519.7410 30124.2859 100.3059 170.6650
ENERGY: 900000 2.9750 8.4164 3.0977 0.0000 -10682.5670 1462.8644 0.0000 0.0000 1760.7210 -7444.4923 300.8097 -9205.2134 -7423.0709 301.4299 319.9549 360.7957 30219.9880 91.2743 141.2122
ENERGY: 1200000 2.6148 10.6325 5.1339 0.0000 -10511.3161 1383.9459 0.0000 0.0000 1784.0003 -7324.9886 304.7869 -9108.9890 -7415.4864 302.0097 -298.6101 -253.8812 30660.0652 62.3482 103.4862
ENERGY: 1500000 3.7506 16.0770 3.0476 0.0000 -10590.7022 1428.2736 0.0000 0.0000 1712.7529 -7426.8005 292.6147 -9139.5534 -7426.6852 300.7946 66.2270 110.4439 30608.5792 68.7888 112.6500
TCL: Running FEP window   4: Lambda1 0.8499999999999999 Lambda2 0.7999999999999998 [dLambda -0.050000000000000044]
TCL: Setting parameter firsttimestep to 0
TCL: Setting parameter alchLambda to 0.8499999999999999
Info: NONBONDED TABLE R-SQUARED SPACING: 0.0625
Info: NONBONDED TABLE SIZE: 705 POINTS
TCL: Setting parameter alchLambda2 to 0.7999999999999998
Info: NONBONDED TABLE R-SQUARED SPACING: 0.0625
Info: NONBONDED TABLE SIZE: 705 POINTS
TCL: Running for 1500000 steps
ETITLE: TS BOND ANGLE DIHED IMPRP ELECT VDW BOUNDARY MISC KINETIC TOTAL TEMP POTENTIAL TOTALAVG TEMPAVG PRESSURE GPRESSURE VOLUME PRESSAVG GPRESSAVG
ENERGY: 0 3.7506 16.0770 3.0476 0.0000 -10590.7031 1428.5146 0.0000 0.0000 1711.8742 -7427.4390 292.4645 -9139.3132 -7427.4390 292.4645 27.0542 99.3747 30608.5792 27.0542 99.3747
ENERGY: 300000 2.0375 10.1717 2.9494 0.0000 -10518.4706 1342.3481 0.0000 0.0000 1730.1022 -7430.8616 295.5787 -9160.9638 -7425.2853 295.9800 -506.5266 -415.0979 30129.0200 47.3705 130.8234
ENERGY: 600000 0.8575 7.8369 2.9463 0.0000 -10644.3896 1423.6917 0.0000 0.0000 1801.2456 -7407.8116 307.7332 -9209.0571 -7416.6519 300.3329 -23.5708 -14.7810 30090.8548 91.1057 158.6292
ENERGY: 900000 1.8814 14.0708 5.5198 0.0000 -10679.1272 1463.2386 0.0000 0.0000 1811.5790 -7382.8378 309.4986 -9194.4167 -7430.6141 300.2279 288.1365 364.2235 29955.4279 81.6829 143.0160
ENERGY: 1200000 0.4586 15.5368 3.5068 0.0000 -10663.3767 1483.7241 0.0000 0.0000 1746.0539 -7414.0964 298.3040 -9160.1504 -7440.2842 298.7272 242.7626 363.9484 30518.4509 -11.9340 53.1356
ENERGY: 1500000 0.9433 10.6655 2.3138 0.0000 -10580.0762 1379.2595 0.0000 0.0000 1744.7158 -7442.1782 298.0753 -9186.8940 -7432.0350 299.8450 -177.3957 -76.2018 29989.9283 -80.2384 -12.5142
TCL: Running FEP window   5: Lambda1 0.7999999999999998 Lambda2 0.7499999999999998 [dLambda -0.050000000000000044]
TCL: Setting parameter firsttimestep to 0
TCL: Setting parameter alchLambda to 0.7999999999999998
Info: NONBONDED TABLE R-SQUARED SPACING: 0.0625
Info: NONBONDED TABLE SIZE: 705 POINTS
TCL: Setting parameter alchLambda2 to 0.7499999999999998
Info: NONBONDED TABLE R-SQUARED SPACING: 0.0625
Info: NONBONDED TABLE SIZE: 705 POINTS
TCL: Running for 1500000 steps
ETITLE: TS BOND ANGLE DIHED IMPRP ELECT VDW BOUNDARY MISC KINETIC TOTAL TEMP POTENTIAL TOTALAVG TEMPAVG PRESSURE GPRESSURE VOLUME PRESSAVG GPRESSAVG
ENERGY: 0 0.9433 10.6655 2.3138 0.0000 -10580.1015 1379.4855 0.0000 0.0000 1743.7846 -7442.9086 297.9163 -9186.6933 -7442.9086 297.9163 -168.9342 -86.1545 29989.9283 -168.9342 -86.1545
ENERGY: 300000 2.0077 13.9084 2.8010 0.0000 -10554.4147 1405.4240 0.0000 0.0000 1761.6651 -7368.6085 300.9710 -9130.2736 -7423.4579 299.3193 190.7852 271.7989 29922.0670 -51.7531 22.3681
ENERGY: 600000 0.7539 10.0860 4.4189 0.0000 -10814.7352 1498.5269 0.0000 0.0000 1779.0134 -7521.9362 303.9349 -9300.9496 -7442.9544 299.7732 207.0750 178.4773 30462.0457 71.8232 113.4038
ENERGY: 900000 1.7357 11.0918 3.6762 0.0000 -10655.5948 1410.2630 0.0000 0.0000 1744.2724 -7484.5557 297.9996 -9228.8281 -7456.6603 299.0449 -204.0383 -177.9928 30312.9478 45.6648 87.5662
ENERGY: 1200000 0.7780 11.9339 3.4633 0.0000 -10673.6984 1448.7957 0.0000 0.0000 1811.3715 -7397.3560 309.4631 -9208.7275 -7444.1370 299.6884 293.1945 331.4787 30327.7304 -5.3432 39.8203
ENERGY: 1500000 3.0566 10.3792 3.9069 0.0000 -10614.0154 1429.4080 0.0000 0.0000 1773.8805 -7393.3841 303.0580 -9167.2646 -7433.4907 299.9638 -262.2747 -155.5504 30476.7853 -88.7525 -37.3360
TCL: Running FEP window   6: Lambda1 0.7499999999999998 Lambda2 0.6999999999999997 [dLambda -0.050000000000000044]
TCL: Setting parameter firsttimestep to 0
TCL: Setting parameter alchLambda to 0.7499999999999998
Info: NONBONDED TABLE R-SQUARED SPACING: 0.0625
Info: NONBONDED TABLE SIZE: 705 POINTS
TCL: Setting parameter alchLambda2 to 0.6999999999999997
Info: NONBONDED TABLE R-SQUARED SPACING: 0.0625
Info: NONBONDED TABLE SIZE: 705 POINTS
TCL: Running for 1500000 steps
ETITLE: TS BOND ANGLE DIHED IMPRP ELECT VDW BOUNDARY MISC KINETIC TOTAL TEMP POTENTIAL TOTALAVG TEMPAVG PRESSURE GPRESSURE VOLUME PRESSAVG GPRESSAVG
ENERGY: 0 3.0566 10.3792 3.9069 0.0000 -10614.0054 1429.8166 0.0000 0.0000 1772.9659 -7393.8802 302.9017 -9166.8460 -7393.8802 302.9017 -246.1588 -164.3731 30476.7853 -246.1588 -164.3731
ENERGY: 300000 2.2235 10.1499 4.1283 0.0000 -10588.6441 1396.1888 0.0000 0.0000 1759.8769 -7416.0768 300.6655 -9175.9537 -7406.8173 301.6450 -451.8600 -345.8433 30523.3038 -38.1019 20.7883
ENERGY: 600000 1.8915 11.4412 6.0522 0.0000 -10690.2001 1450.3156 0.0000 0.0000 1755.0176 -7465.4819 299.8354 -9220.4996 -7420.3828 300.1474 -210.2190 -192.1489 30431.8629 -80.0083 -24.4146
ENERGY: 900000 1.3761 8.6298 7.8781 0.0000 -10503.5184 1321.7742 0.0000 0.0000 1803.2680 -7360.5922 308.0787 -9163.8602 -7412.0070 301.0551 -945.6920 -916.8477 30729.7907 -150.9565 -100.7274
ENERGY: 1200000 0.7996 11.4012 5.8323 0.0000 -10610.9605 1396.5890 0.0000 0.0000 1739.0981 -7457.2403 297.1156 -9196.3384 -7414.5158 300.5314 -382.6056 -332.0240 30370.6629 -88.9908 -39.1574
ENERGY: 1500000 0.9275 10.3745 2.9779 0.0000 -10513.2253 1350.9722 0.0000 0.0000 1791.0615 -7356.9117 305.9933 -9147.9732 -7409.3909 300.7918 -424.7091 -382.0864 30233.0066 -134.0138 -85.2897
TCL: Running FEP window   7: Lambda1 0.6999999999999997 Lambda2 0.6499999999999997 [dLambda -0.050000000000000044]
TCL: Setting parameter firsttimestep to 0
TCL: Setting parameter alchLambda to 0.6999999999999997
Info: NONBONDED TABLE R-SQUARED SPACING: 0.0625
Info: NONBONDED TABLE SIZE: 705 POINTS
TCL: Setting parameter alchLambda2 to 0.6499999999999997
Info: NONBONDED TABLE R-SQUARED SPACING: 0.0625
Info: NONBONDED TABLE SIZE: 705 POINTS
TCL: Running for 1500000 steps
ETITLE: TS BOND ANGLE DIHED IMPRP ELECT VDW BOUNDARY MISC KINETIC TOTAL TEMP POTENTIAL TOTALAVG TEMPAVG PRESSURE GPRESSURE VOLUME PRESSAVG GPRESSAVG
ENERGY: 0 0.9275 10.3745 2.9779 0.0000 -10513.2358 1351.2803 0.0000 0.0000 1790.2119 -7357.4637 305.8481 -9147.6756 -7357.4637 305.8481 -472.4195 -390.1876 30233.0066 -472.4195 -390.1876
ENERGY: 300000 1.2588 14.6930 3.4224 0.0000 -10672.0221 1511.4174 0.0000 0.0000 1742.4421 -7398.7884 297.6869 -9141.2305 -7397.6487 300.7398 1033.4693 1086.6125 29846.2481 142.9038 229.4765
ENERGY: 600000 1.8012 7.3745 4.4884 0.0000 -10645.4807 1411.0618 0.0000 0.0000 1771.8564 -7448.8984 302.7122 -9220.7548 -7383.0498 302.2918 -200.3834 -198.5553 30243.0466 10.3564 86.3404
ENERGY: 900000 1.8675 15.7479 3.6907 0.0000 -10478.3136 1319.7764 0.0000 0.0000 1758.9551 -7378.2761 300.5081 -9137.2312 -7387.8407 300.4942 -759.5723 -698.8823 30368.9235 -23.6623 50.4022
ENERGY: 1200000 1.8918 13.6213 2.6616 0.0000 -10608.6342 1437.8147 0.0000 0.0000 1760.6582 -7391.9866 300.7990 -9152.6448 -7405.3587 299.8072 406.6699 439.0821 30025.1840 79.4763 147.6916
ENERGY: 1500000 1.8873 9.2172 5.2665 0.0000 -10573.6493 1432.1844 0.0000 0.0000 1821.4581 -7303.6357 311.1864 -9125.0939 -7402.1980 300.4156 -124.6776 -94.3027 31122.6166 53.2206 122.4356
TCL: Running FEP window   8: Lambda1 0.6499999999999997 Lambda2 0.5999999999999996 [dLambda -0.050000000000000044]
TCL: Setting parameter firsttimestep to 0
TCL: Setting parameter alchLambda to 0.6499999999999997
Info: NONBONDED TABLE R-SQUARED SPACING: 0.0625
Info: NONBONDED TABLE SIZE: 705 POINTS
TCL: Setting parameter alchLambda2 to 0.5999999999999996
Info: NONBONDED TABLE R-SQUARED SPACING: 0.0625
Info: NONBONDED TABLE SIZE: 705 POINTS
TCL: Running for 1500000 steps
ETITLE: TS BOND ANGLE DIHED IMPRP ELECT VDW BOUNDARY MISC KINETIC TOTAL TEMP POTENTIAL TOTALAVG TEMPAVG PRESSURE GPRESSURE VOLUME PRESSAVG GPRESSAVG
ENERGY: 0 1.8873 9.2172 5.2665 0.0000 -10573.6784 1432.2145 0.0000 0.0000 1820.6016 -7304.4913 311.0400 -9125.0929 -7304.4913 311.0400 -166.3903 -99.9569 31122.6166 -166.3903 -99.9569
ENERGY: 300000 4.0948 11.6828 3.6255 0.0000 -10554.8667 1412.8376 0.0000 0.0000 1730.0356 -7392.5906 295.5673 -9122.6262 -7400.6630 302.6453 -133.2567 -38.1402 30212.1716 3.1424 99.8397
ENERGY: 600000 5.1417 10.2415 3.7660 0.0000 -10593.7454 1382.0630 0.0000 0.0000 1763.2143 -7429.3190 301.2357 -9192.5332 -7415.0553 303.4300 -559.4302 -504.2073 30357.7741 15.8046 82.8178
ENERGY: 900000 2.5745 10.0432 5.7945 0.0000 -10656.2959 1474.4323 0.0000 0.0000 1733.5492 -7429.9020 296.1676 -9163.4513 -7428.9136 300.7008 320.2075 339.7728 30363.6443 -74.3616 -24.8667
ENERGY: 1200000 2.2645 13.7048 3.9289 0.0000 -10563.1819 1390.7032 0.0000 0.0000 1774.9113 -7377.6692 303.2341 -9152.5804 -7427.2299 301.0490 -175.5434 -140.7219 30194.7384 1.4475 53.6227
ENERGY: 1500000 4.5645 16.5653 3.6037 0.0000 -10642.2845 1422.2829 0.0000 0.0000 1725.9427 -7469.3254 294.8681 -9195.2680 -7432.0325 300.3730 -154.1756 -94.8244 30376.7182 -61.6989 -8.4438
TCL: Running FEP window   9: Lambda1 0.5999999999999996 Lambda2 0.5499999999999996 [dLambda -0.050000000000000044]
TCL: Setting parameter firsttimestep to 0
TCL: Setting parameter alchLambda to 0.5999999999999996
Info: NONBONDED TABLE R-SQUARED SPACING: 0.0625
Info: NONBONDED TABLE SIZE: 705 POINTS
TCL: Setting parameter alchLambda2 to 0.5499999999999996
Info: NONBONDED TABLE R-SQUARED SPACING: 0.0625
Info: NONBONDED TABLE SIZE: 705 POINTS
TCL: Running for 1500000 steps
ETITLE: TS BOND ANGLE DIHED IMPRP ELECT VDW BOUNDARY MISC KINETIC TOTAL TEMP POTENTIAL TOTALAVG TEMPAVG PRESSURE GPRESSURE VOLUME PRESSAVG GPRESSAVG
ENERGY: 0 4.5645 16.5653 3.6037 0.0000 -10642.2688 1422.8705 0.0000 0.0000 1725.0480 -7469.6167 294.7152 -9194.6648 -7469.6167 294.7152 -169.4457 -95.7149 30376.7182 -169.4457 -95.7149
ENERGY: 300000 1.4332 10.7116 2.8130 0.0000 -10625.9413 1538.4921 0.0000 0.0000 1750.1860 -7322.3054 299.0099 -9072.4914 -7427.1661 299.3322 1260.0290 1339.8878 30184.6686 573.8339 631.2648
ENERGY: 600000 3.1549 9.3765 3.2278 0.0000 -10598.3333 1368.8148 0.0000 0.0000 1799.8789 -7413.8804 307.4997 -9213.7593 -7403.5135 302.0117 -523.4222 -448.8061 29929.2583 284.7492 347.0857
ENERGY: 900000 3.5380 12.8967 6.1044 0.0000 -10594.9568 1376.9342 0.0000 0.0000 1742.5541 -7452.9295 297.7060 -9195.4835 -7425.4130 300.5373 -639.2515 -547.1299 30049.6928 63.5864 123.3005
ENERGY: 1200000 3.3484 9.8082 5.9480 0.0000 -10652.4754 1410.5433 0.0000 0.0000 1746.2275 -7476.6001 298.3336 -9222.8276 -7425.6836 300.7269 -418.3154 -292.9231 30525.8921 31.8753 93.9519
ENERGY: 1500000 4.5350 10.4308 3.6933 0.0000 -10484.0121 1397.0748 0.0000 0.0000 1692.9731 -7375.3050 289.2354 -9068.2781 -7423.7659 299.9793 -262.0699 -147.6911 30769.6448 -65.2168 -2.4383
TCL: Running FEP window  10: Lambda1 0.5499999999999996 Lambda2 0.4999999999999996 [dLambda -0.04999999999999999]
TCL: Setting parameter firsttimestep to 0
TCL: Setting parameter alchLambda to 0.5499999999999996
Info: NONBONDED TABLE R-SQUARED SPACING: 0.0625
Info: NONBONDED TABLE SIZE: 705 POINTS
TCL: Setting parameter alchLambda2 to 0.4999999999999996
Info: NONBONDED TABLE R-SQUARED SPACING: 0.0625
Info: NONBONDED TABLE SIZE: 705 POINTS
TCL: Running for 1500000 steps
ETITLE: TS BOND ANGLE DIHED IMPRP ELECT VDW BOUNDARY MISC KINETIC TOTAL TEMP POTENTIAL TOTALAVG TEMPAVG PRESSURE GPRESSURE VOLUME PRESSAVG GPRESSAVG
ENERGY: 0 4.5350 10.4308 3.6933 0.0000 -10484.0222 1397.5581 0.0000 0.0000 1692.0989 -7375.7061 289.0860 -9067.8049 -7375.7061 289.0860 -229.5702 -151.4683 30769.6448 -229.5702 -151.4683
ENERGY: 300000 0.9206 11.3979 2.8030 0.0000 -10517.2040 1381.6911 0.0000 0.0000 1723.8122 -7396.5791 294.5041 -9120.3913 -7447.6591 292.4459 -231.6481 -166.4887 30514.4558 -102.6609 -10.0818
ENERGY: 600000 1.8683 11.7915 4.1021 0.0000 -10588.6251 1463.2691 0.0000 0.0000 1775.7654 -7331.8287 303.3800 -9107.5941 -7419.8762 295.1410 530.9921 585.7473 30044.4105 -55.3557 15.6587
ENERGY: 900000 1.3068 11.4312 3.6796 0.0000 -10595.3396 1435.6655 0.0000 0.0000 1786.5517 -7356.7048 305.2228 -9143.2565 -7411.8671 296.5883 -70.8433 -26.5071 30299.4871 -106.4167 -43.7433
ENERGY: 1200000 2.9699 8.1955 2.7778 0.0000 -10519.7359 1390.2447 0.0000 0.0000 1745.1896 -7370.3584 298.1563 -9115.5480 -7400.0067 298.3966 -36.1511 -10.0140 30301.0111 -123.9169 -64.7976
ENERGY: 1500000 1.2666 7.9356 2.4911 0.0000 -10652.2604 1463.2456 0.0000 0.0000 1761.0914 -7416.2302 300.8730 -9177.3215 -7397.7381 299.0754 101.0184 109.6977 30633.8087 -128.1685 -71.5798
TCL: Running FEP window  11: Lambda1 0.4999999999999996 Lambda2 0.4499999999999996 [dLambda -0.04999999999999999]
TCL: Setting parameter firsttimestep to 0
TCL: Setting parameter alchLambda to 0.4999999999999996
Info: NONBONDED TABLE R-SQUARED SPACING: 0.0625
Info: NONBONDED TABLE SIZE: 705 POINTS
TCL: Setting parameter alchLambda2 to 0.4499999999999996
Info: NONBONDED TABLE R-SQUARED SPACING: 0.0625
Info: NONBONDED TABLE SIZE: 705 POINTS
TCL: Running for 1500000 steps
ETITLE: TS BOND ANGLE DIHED IMPRP ELECT VDW BOUNDARY MISC KINETIC TOTAL TEMP POTENTIAL TOTALAVG TEMPAVG PRESSURE GPRESSURE VOLUME PRESSAVG GPRESSAVG
ENERGY: 0 1.2666 7.9356 2.4911 0.0000 -10652.2343 1463.5978 0.0000 0.0000 1760.2637 -7416.6796 300.7316 -9176.9433 -7416.6796 300.7316 32.3905 106.1326 30633.8087 32.3905 106.1326
ENERGY: 300000 2.5655 8.0057 3.5587 0.0000 -10591.0845 1423.5190 0.0000 0.0000 1773.4862 -7379.9493 302.9906 -9153.4355 -7423.1326 298.5636 -84.1511 -63.5298 30444.3350 -17.5159 26.9051
ENERGY: 600000 1.2212 13.3248 2.8230 0.0000 -10517.7805 1384.7998 0.0000 0.0000 1709.0726 -7406.5390 291.9859 -9115.6116 -7394.1554 299.2251 -280.0609 -264.5570 30553.3227 -61.4806 -19.7627
ENERGY: 900000 0.8444 15.0683 2.7228 0.0000 -10580.2542 1458.2093 0.0000 0.0000 1803.3309 -7300.0784 308.0894 -9103.4093 -7379.2781 300.7911 468.2990 520.0479 30063.6712 -4.6316 48.8624
ENERGY: 1200000 2.4362 10.1103 3.0703 0.0000 -10735.2485 1460.5897 0.0000 0.0000 1669.5860 -7589.4560 285.2398 -9259.0420 -7396.9606 299.5693 144.4580 189.3012 29646.9769 12.1598 65.9820
ENERGY: 1500000 1.7038 13.4900 4.5302 0.0000 -10446.5244 1336.2228 0.0000 0.0000 1735.6110 -7354.9666 296.5198 -9090.5776 -7395.7312 299.5468 -460.5284 -386.2004 30291.0775 -43.3264 10.3127
TCL: Running FEP window  12: Lambda1 0.4499999999999996 Lambda2 0.39999999999999963 [dLambda -0.04999999999999999]
TCL: Setting parameter firsttimestep to 0
TCL: Setting parameter alchLambda to 0.4499999999999996
Info: NONBONDED TABLE R-SQUARED SPACING: 0.0625
Info: NONBONDED TABLE SIZE: 705 POINTS
TCL: Setting parameter alchLambda2 to 0.39999999999999963
Info: NONBONDED TABLE R-SQUARED SPACING: 0.0625
Info: NONBONDED TABLE SIZE: 705 POINTS
TCL: Running for 1500000 steps
ETITLE: TS BOND ANGLE DIHED IMPRP ELECT VDW BOUNDARY MISC KINETIC TOTAL TEMP POTENTIAL TOTALAVG TEMPAVG PRESSURE GPRESSURE VOLUME PRESSAVG GPRESSAVG
ENERGY: 0 1.7038 13.4900 4.5302 0.0000 -10446.5257 1336.6013 0.0000 0.0000 1734.7046 -7355.4957 296.3650 -9090.2003 -7355.4957 296.3650 -456.8334 -389.0145 30291.0775 -456.8334 -389.0145
ENERGY: 300000 4.4349 12.2031 6.2354 0.0000 -10674.7891 1446.3441 0.0000 0.0000 1794.4112 -7411.1605 306.5655 -9205.5716 -7430.9106 299.8376 -61.3994 0.5118 30109.0830 -33.8030 51.2755
ENERGY: 600000 3.9414 8.8743 2.2604 0.0000 -10510.8625 1355.2578 0.0000 0.0000 1737.4477 -7403.0809 296.8336 -9140.5286 -7442.1158 297.1593 -713.9501 -593.0785 30405.4981 -320.3119 -228.9029
ENERGY: 900000 1.5085 9.4510 4.0243 0.0000 -10648.0359 1444.3098 0.0000 0.0000 1743.4902 -7445.2522 297.8660 -9188.7424 -7434.5993 298.6725 161.2200 175.8506 30060.3342 -109.9222 -27.6191
ENERGY: 1200000 3.7609 13.1572 2.8705 0.0000 -10669.2386 1470.9345 0.0000 0.0000 1744.8726 -7433.6431 298.1021 -9178.5156 -7431.2498 298.8277 227.9286 254.9590 30248.3898 -66.9944 8.7007
ENERGY: 1500000 4.8443 12.6899 3.7573 0.0000 -10513.0171 1405.2337 0.0000 0.0000 1729.5345 -7356.9576 295.4817 -9086.4920 -7423.7954 299.7902 -46.1129 82.3337 30036.2196 -71.8299 4.5639
TCL: Running FEP window  13: Lambda1 0.39999999999999963 Lambda2 0.34999999999999964 [dLambda -0.04999999999999999]
TCL: Setting parameter firsttimestep to 0
TCL: Setting parameter alchLambda to 0.39999999999999963
Info: NONBONDED TABLE R-SQUARED SPACING: 0.0625
Info: NONBONDED TABLE SIZE: 705 POINTS
TCL: Setting parameter alchLambda2 to 0.34999999999999964
Info: NONBONDED TABLE R-SQUARED SPACING: 0.0625
Info: NONBONDED TABLE SIZE: 705 POINTS
TCL: Running for 1500000 steps
ETITLE: TS BOND ANGLE DIHED IMPRP ELECT VDW BOUNDARY MISC KINETIC TOTAL TEMP POTENTIAL TOTALAVG TEMPAVG PRESSURE GPRESSURE VOLUME PRESSAVG GPRESSAVG
ENERGY: 0 4.8443 12.6899 3.7573 0.0000 -10513.0182 1404.3380 0.0000 0.0000 1728.6568 -7358.7320 295.3317 -9087.3888 -7358.7320 295.3317 -19.2542 67.7255 30036.2196 -19.2542 67.7255
ENERGY: 300000 0.5267 9.7188 3.7227 0.0000 -10736.6855 1513.2047 0.0000 0.0000 1842.1461 -7367.3665 314.7208 -9209.5126 -7395.8445 301.2085 510.8912 532.2985 30387.3099 96.5040 141.0370
ENERGY: 600000 2.1995 9.3126 2.8884 0.0000 -10716.4320 1514.9876 0.0000 0.0000 1769.3504 -7417.6935 302.2840 -9187.0440 -7423.5078 300.5784 841.4390 854.7158 29719.8692 262.1486 300.1547
ENERGY: 900000 1.0054 12.9529 4.1610 0.0000 -10603.0191 1437.0298 0.0000 0.0000 1787.0776 -7360.7924 305.3126 -9147.8700 -7415.2947 301.6271 -128.5393 10.1642 30594.2752 173.6990 218.7195
ENERGY: 1200000 1.6592 13.1083 3.5205 0.0000 -10566.2135 1351.3388 0.0000 0.0000 1744.6186 -7451.9681 298.0587 -9196.5867 -7415.6066 301.2833 -575.5182 -566.5297 29886.1612 149.9247 190.5306
ENERGY: 1500000 2.0145 8.1725 3.0216 0.0000 -10619.9493 1452.7556 0.0000 0.0000 1684.7256 -7469.2595 287.8263 -9153.9850 -7419.1804 300.5967 142.0089 235.2584 30191.3124 119.8457 165.5300
TCL: Running FEP window  14: Lambda1 0.34999999999999964 Lambda2 0.29999999999999966 [dLambda -0.04999999999999999]
TCL: Setting parameter firsttimestep to 0
TCL: Setting parameter alchLambda to 0.34999999999999964
Info: NONBONDED TABLE R-SQUARED SPACING: 0.0625
Info: NONBONDED TABLE SIZE: 705 POINTS
TCL: Setting parameter alchLambda2 to 0.29999999999999966
Info: NONBONDED TABLE R-SQUARED SPACING: 0.0625
Info: NONBONDED TABLE SIZE: 705 POINTS
TCL: Running for 1500000 steps
ETITLE: TS BOND ANGLE DIHED IMPRP ELECT VDW BOUNDARY MISC KINETIC TOTAL TEMP POTENTIAL TOTALAVG TEMPAVG PRESSURE GPRESSURE VOLUME PRESSAVG GPRESSAVG
ENERGY: 0 2.0145 8.1725 3.0216 0.0000 -10619.9480 1453.3978 0.0000 0.0000 1683.9130 -7469.4285 287.6875 -9153.3415 -7469.4285 287.6875 141.0349 236.1990 30191.3124 141.0349 236.1990
ENERGY: 300000 3.7539 11.2751 2.9382 0.0000 -10707.8385 1444.0182 0.0000 0.0000 1789.5826 -7456.2706 305.7406 -9245.8532 -7432.2392 300.2239 -211.5399 -81.2163 29831.1445 260.0287 335.7332
ENERGY: 600000 0.7151 10.7893 5.1330 0.0000 -10675.0181 1481.8554 0.0000 0.0000 1804.2094 -7372.3159 308.2395 -9176.5253 -7426.7726 301.2269 515.6005 546.9958 30020.3951 106.3765 169.3009
ENERGY: 900000 2.9540 6.5186 4.1924 0.0000 -10536.2174 1408.5668 0.0000 0.0000 1752.4989 -7361.4867 299.4051 -9113.9856 -7423.3725 300.7206 -131.6585 -40.9513 30614.8052 193.5311 255.5861
ENERGY: 1200000 1.5232 10.5041 3.3958 0.0000 -10517.8879 1309.4980 0.0000 0.0000 1750.5128 -7442.4540 299.0657 -9192.9668 -7416.1134 300.3887 -842.5766 -845.5518 30003.0306 54.3646 122.6570
ENERGY: 1500000 1.6109 11.4722 3.4535 0.0000 -10536.3775 1438.3728 0.0000 0.0000 1835.9803 -7245.4878 313.6674 -9081.4681 -7399.0726 301.3808 266.0412 315.8126 30348.8462 102.4517 161.7629
TCL: Running FEP window  15: Lambda1 0.29999999999999966 Lambda2 0.24999999999999967 [dLambda -0.04999999999999999]
TCL: Setting parameter firsttimestep to 0
TCL: Setting parameter alchLambda to 0.29999999999999966
Info: NONBONDED TABLE R-SQUARED SPACING: 0.0625
Info: NONBONDED TABLE SIZE: 705 POINTS
TCL: Setting parameter alchLambda2 to 0.24999999999999967
Info: NONBONDED TABLE R-SQUARED SPACING: 0.0625
Info: NONBONDED TABLE SIZE: 705 POINTS
TCL: Running for 1500000 steps
ETITLE: TS BOND ANGLE DIHED IMPRP ELECT VDW BOUNDARY MISC KINETIC TOTAL TEMP POTENTIAL TOTALAVG TEMPAVG PRESSURE GPRESSURE VOLUME PRESSAVG GPRESSAVG
ENERGY: 0 1.6109 11.4722 3.4535 0.0000 -10536.3782 1438.4917 0.0000 0.0000 1835.1376 -7246.2124 313.5234 -9081.3500 -7246.2124 313.5234 220.5547 311.0079 30348.8462 220.5547 311.0079
ENERGY: 300000 2.7038 13.6691 3.2710 0.0000 -10521.9849 1395.8624 0.0000 0.0000 1703.1644 -7403.3142 290.9765 -9106.4786 -7366.2842 299.9737 -447.7171 -357.2409 30625.7599 70.9276 149.5109
ENERGY: 600000 2.1268 10.0313 3.5478 0.0000 -10601.9972 1393.6465 0.0000 0.0000 1708.8825 -7483.7622 291.9534 -9192.6447 -7394.6905 300.0674 -560.8418 -476.3467 30690.0099 6.1994 79.9586
ENERGY: 900000 1.7974 14.1406 3.6494 0.0000 -10629.3090 1413.3364 0.0000 0.0000 1754.8798 -7441.5054 299.8118 -9196.3853 -7398.2324 300.2589 -142.7302 -51.3286 29645.6897 -122.7838 -57.4583
ENERGY: 1200000 1.8102 11.9306 2.8778 0.0000 -10529.3441 1355.8174 0.0000 0.0000 1784.4722 -7372.4358 304.8675 -9156.9080 -7386.4883 300.8021 -349.4200 -367.1454 29983.5304 -67.1774 -8.8771
ENERGY: 1500000 1.9506 9.1102 5.1673 0.0000 -10485.2587 1398.5504 0.0000 0.0000 1795.1283 -7275.3519 306.6880 -9070.4801 -7389.1518 300.6429 72.0277 239.3989 30094.4137 -77.7176 -6.0178
TCL: Running FEP window  16: Lambda1 0.24999999999999967 Lambda2 0.19999999999999968 [dLambda -0.04999999999999999]
TCL: Setting parameter firsttimestep to 0
TCL: Setting parameter alchLambda to 0.24999999999999967
Info: NONBONDED TABLE R-SQUARED SPACING: 0.0625
Info: NONBONDED TABLE SIZE: 705 POINTS
TCL: Setting parameter alchLambda2 to 0.19999999999999968
Info: NONBONDED TABLE R-SQUARED SPACING: 0.0625
Info: NONBONDED TABLE SIZE: 705 POINTS
TCL: Running for 1500000 steps
ETITLE: TS BOND ANGLE DIHED IMPRP ELECT VDW BOUNDARY MISC KINETIC TOTAL TEMP POTENTIAL TOTALAVG TEMPAVG PRESSURE GPRESSURE VOLUME PRESSAVG GPRESSAVG
ENERGY: 0 1.9506 9.1102 5.1673 0.0000 -10485.2580 1398.7169 0.0000 0.0000 1794.2627 -7276.0502 306.5402 -9070.3130 -7276.0502 306.5402 148.2632 232.3670 30094.4137 148.2632 232.3670
ENERGY: 300000 1.4645 14.8594 4.7623 0.0000 -10678.8643 1471.7581 0.0000 0.0000 1810.6910 -7375.3290 309.3469 -9186.0200 -7377.6064 302.5870 306.6743 345.8381 30178.6069 -80.9402 -9.4419
ENERGY: 600000 0.8802 14.1452 3.8488 0.0000 -10638.1619 1451.9323 0.0000 0.0000 1697.3783 -7469.9771 289.9880 -9167.3554 -7402.1252 302.3110 41.1716 122.8326 30437.0498 -164.7241 -93.8815
ENERGY: 900000 2.0748 14.0274 4.5290 0.0000 -10682.0713 1444.0417 0.0000 0.0000 1741.4046 -7475.9939 297.5097 -9217.3985 -7416.0766 300.8376 -116.3897 -58.7938 30248.3107 -131.7918 -65.1860
ENERGY: 1200000 1.7989 11.2741 4.3943 0.0000 -10689.5209 1449.8100 0.0000 0.0000 1701.6320 -7520.6117 290.7147 -9222.2437 -7418.0447 301.1758 -22.9231 55.7619 30279.2460 -164.0137 -91.6302
ENERGY: 1500000 4.4654 6.4092 2.6909 0.0000 -10617.5282 1435.2256 0.0000 0.0000 1743.7412 -7424.9959 297.9088 -9168.7371 -7422.6207 300.5572 -93.6047 -6.5880 30200.6846 -144.4598 -69.7699
TCL: Running FEP window  17: Lambda1 0.19999999999999968 Lambda2 0.1499999999999997 [dLambda -0.04999999999999999]
TCL: Setting parameter firsttimestep to 0
TCL: Setting parameter alchLambda to 0.19999999999999968
Info: NONBONDED TABLE R-SQUARED SPACING: 0.0625
Info: NONBONDED TABLE SIZE: 705 POINTS
TCL: Setting parameter alchLambda2 to 0.1499999999999997
Info: NONBONDED TABLE R-SQUARED SPACING: 0.0625
Info: NONBONDED TABLE SIZE: 705 POINTS
TCL: Running for 1500000 steps
ETITLE: TS BOND ANGLE DIHED IMPRP ELECT VDW BOUNDARY MISC KINETIC TOTAL TEMP POTENTIAL TOTALAVG TEMPAVG PRESSURE GPRESSURE VOLUME PRESSAVG GPRESSAVG
ENERGY: 0 4.4654 6.4092 2.6909 0.0000 -10617.5288 1435.2269 0.0000 0.0000 1742.8443 -7425.8921 297.7556 -9168.7363 -7425.8921 297.7556 -106.9381 -11.5792 30200.6846 -106.9381 -11.5792
ENERGY: 300000 3.3811 13.6154 4.3236 0.0000 -10621.0131 1381.7419 0.0000 0.0000 1772.1467 -7445.8043 302.7618 -9217.9511 -7427.5899 301.9490 -658.7650 -631.7011 30033.7511 -138.4120 -84.0844
ENERGY: 600000 1.5730 9.8422 3.1377 0.0000 -10517.7908 1333.0044 0.0000 0.0000 1707.7047 -7462.5289 291.7522 -9170.2335 -7446.6420 298.8531 -856.4502 -805.2347 30286.5228 -155.3981 -86.0342
ENERGY: 900000 0.6398 10.0165 5.0415 0.0000 -10625.3079 1446.0638 0.0000 0.0000 1711.2897 -7452.2566 292.3647 -9163.5463 -7442.1212 298.9954 16.1487 130.2881 30231.4331 -90.5666 -24.0853
ENERGY: 1200000 1.0510 8.9942 3.9680 0.0000 -10624.8402 1419.9624 0.0000 0.0000 1765.8618 -7425.0029 301.6880 -9190.8646 -7430.5221 299.6612 -13.1656 131.7852 29816.2670 52.2813 120.9120
ENERGY: 1500000 1.8606 11.2164 2.8932 0.0000 -10542.6828 1371.6897 0.0000 0.0000 1788.6639 -7366.3591 305.5836 -9155.0230 -7419.6307 300.5363 -217.2127 -136.2507 29974.7843 22.3596 92.4048
TCL: Running FEP window  18: Lambda1 0.1499999999999997 Lambda2 0.09999999999999969 [dLambda -0.05 ]
TCL: Setting parameter firsttimestep to 0
TCL: Setting parameter alchLambda to 0.1499999999999997
Info: NONBONDED TABLE R-SQUARED SPACING: 0.0625
Info: NONBONDED TABLE SIZE: 705 POINTS
TCL: Setting parameter alchLambda2 to 0.09999999999999969
Info: NONBONDED TABLE R-SQUARED SPACING: 0.0625
Info: NONBONDED TABLE SIZE: 705 POINTS
TCL: Running for 1500000 steps
ETITLE: TS BOND ANGLE DIHED IMPRP ELECT VDW BOUNDARY MISC KINETIC TOTAL TEMP POTENTIAL TOTALAVG TEMPAVG PRESSURE GPRESSURE VOLUME PRESSAVG GPRESSAVG
ENERGY: 0 1.8606 11.2164 2.8932 0.0000 -10542.6823 1372.1393 0.0000 0.0000 1787.8081 -7366.7648 305.4374 -9154.5729 -7366.7648 305.4374 -218.7646 -139.4103 29974.7843 -218.7646 -139.4103
ENERGY: 300000 2.8383 14.7335 4.2384 0.0000 -10762.8716 1502.9155 0.0000 0.0000 1721.9956 -7516.1502 294.1937 -9238.1458 -7395.3605 303.7177 293.5933 305.9098 30144.3943 -138.7052 -78.1876
ENERGY: 600000 1.5684 11.0259 3.0385 0.0000 -10728.3797 1479.9920 0.0000 0.0000 1822.5043 -7410.2506 311.3651 -9232.7549 -7386.6823 305.3626 187.4680 300.0109 29992.7388 -190.5351 -121.3717
ENERGY: 900000 4.1016 10.8176 2.2493 0.0000 -10610.6154 1436.6389 0.0000 0.0000 1804.0084 -7352.7996 308.2052 -9156.8080 -7407.0025 304.0015 0.0427 11.2758 30230.1660 -140.4184 -76.8221
ENERGY: 1200000 1.1252 14.2514 3.7555 0.0000 -10591.0133 1403.4457 0.0000 0.0000 1755.3958 -7413.0398 299.9000 -9168.4356 -7409.7603 303.3451 -165.5576 -159.4728 30047.1083 -142.0302 -92.0700
ENERGY: 1500000 2.5902 8.7670 3.9192 0.0000 -10779.0110 1536.7379 0.0000 0.0000 1756.0300 -7470.9667 300.0083 -9226.9967 -7408.6220 302.7819 435.8388 517.4108 30157.4557 -151.1038 -97.2451
TCL: Running FEP window  19: Lambda1 0.09999999999999969 Lambda2 0.049999999999999684 [dLambda -0.05 ]
TCL: Setting parameter firsttimestep to 0
TCL: Setting parameter alchLambda to 0.09999999999999969
Info: NONBONDED TABLE R-SQUARED SPACING: 0.0625
Info: NONBONDED TABLE SIZE: 705 POINTS
TCL: Setting parameter alchLambda2 to 0.049999999999999684
Info: NONBONDED TABLE R-SQUARED SPACING: 0.0625
Info: NONBONDED TABLE SIZE: 705 POINTS
TCL: Running for 1500000 steps
ETITLE: TS BOND ANGLE DIHED IMPRP ELECT VDW BOUNDARY MISC KINETIC TOTAL TEMP POTENTIAL TOTALAVG TEMPAVG PRESSURE GPRESSURE VOLUME PRESSAVG GPRESSAVG
ENERGY: 0 2.5902 8.7670 3.9192 0.0000 -10779.0123 1537.0989 0.0000 0.0000 1755.1517 -7471.4853 299.8583 -9226.6370 -7471.4853 299.8583 419.5690 516.1159 30157.4557 419.5690 516.1159
ENERGY: 300000 1.4949 9.1821 3.8793 0.0000 -10532.6589 1402.3693 0.0000 0.0000 1764.1950 -7351.5383 301.4033 -9115.7333 -7441.2110 297.3480 -333.1085 -235.0416 30726.5202 245.6776 311.8973
ENERGY: 600000 3.0567 17.0266 2.6024 0.0000 -10651.3125 1384.6982 0.0000 0.0000 1750.6993 -7493.2293 299.0976 -9243.9286 -7443.3463 299.9047 -756.9144 -670.2342 30139.2194 12.7742 94.7173
ENERGY: 900000 2.0319 19.4147 5.8985 0.0000 -10636.8494 1470.4698 0.0000 0.0000 1721.7808 -7417.2538 294.1570 -9139.0345 -7440.8031 298.6525 298.7259 385.9840 29938.4925 27.1179 104.9994
ENERGY: 1200000 3.1294 13.6395 5.0566 0.0000 -10517.0905 1400.9172 0.0000 0.0000 1703.9496 -7390.3983 291.1107 -9094.3479 -7447.3177 297.2958 -148.2557 -103.0319 30282.8597 14.6565 88.4787
ENERGY: 1500000 1.9630 10.6504 3.9441 0.0000 -10666.6915 1521.2975 0.0000 0.0000 1687.3572 -7441.4793 288.2759 -9128.8365 -7445.0587 296.8020 788.9534 882.8799 29709.0053 22.2526 96.5181
TCL: Running FEP window  20: Lambda1 0.049999999999999684 Lambda2 0.0    [dLambda -0.049999999999999684]
TCL: Setting parameter firsttimestep to 0
TCL: Setting parameter alchLambda to 0.049999999999999684
Info: NONBONDED TABLE R-SQUARED SPACING: 0.0625
Info: NONBONDED TABLE SIZE: 705 POINTS
TCL: Setting parameter alchLambda2 to 0.0
Info: NONBONDED TABLE R-SQUARED SPACING: 0.0625
Info: NONBONDED TABLE SIZE: 705 POINTS
TCL: Running for 1500000 steps
ETITLE: TS BOND ANGLE DIHED IMPRP ELECT VDW BOUNDARY MISC KINETIC TOTAL TEMP POTENTIAL TOTALAVG TEMPAVG PRESSURE GPRESSURE VOLUME PRESSAVG GPRESSAVG
ENERGY: 0 1.9630 10.6504 3.9441 0.0000 -10666.6909 1517.1283 0.0000 0.0000 1686.4842 -7446.5208 288.1268 -9133.0051 -7446.5208 288.1268 783.3101 868.4910 29709.0053 783.3101 868.4910
ENERGY: 300000 1.6623 12.8520 2.6333 0.0000 -10647.2245 1402.6933 0.0000 0.0000 1768.8572 -7458.5264 302.1998 -9227.3836 -7441.4145 297.1729 -579.3616 -549.0495 30535.7374 -190.7253 -138.8218
ENERGY: 600000 1.7118 11.7624 4.3867 0.0000 -10600.6265 1419.0980 0.0000 0.0000 1751.0001 -7412.6675 299.1490 -9163.6676 -7438.6895 297.2801 -21.8931 42.6609 29804.1672 -283.2348 -229.9977
ENERGY: 900000 2.6793 9.0024 4.5364 0.0000 -10623.6148 1425.9053 0.0000 0.0000 1827.2819 -7354.2095 312.1813 -9181.4914 -7421.9686 300.0999 71.8212 123.4244 29932.7583 -236.7302 -184.1472
ENERGY: 1200000 2.8024 11.6681 2.3433 0.0000 -10612.5414 1489.1301 0.0000 0.0000 1766.2731 -7340.3244 301.7583 -9106.5975 -7418.8224 299.8022 681.1347 653.9131 29899.8401 -173.5776 -123.2086
ENERGY: 1500000 4.3171 9.2671 6.9347 0.0000 -10638.3416 1460.5037 0.0000 0.0000 1728.4945 -7428.8246 295.3040 -9157.3190 -7412.7257 299.9040 105.4791 137.9082 30081.1578 -205.1403 -154.3023
TCL: Exiting due to exit command.
