Info: SIMULATION PARAMETERS:
Info: TIMESTEP               2
Info: NUMBER OF STEPS        0
Info: STEPS PER CYCLE        10
Info: PERIODIC CELL BASIS 1  31.0701 0 0
Info: PERIODIC CELL BASIS 2  0 30.6003 0
Info: PERIODIC CELL BASIS 3  0 0 31.7246
Info: PERIODIC CELL CENTER   0 0 0
Info: WRAPPING WATERS AROUND PERIODIC BOUNDARIES ON OUTPUT.
Info: WRAPPING ALL CLUSTERS AROUND PERIODIC BOUNDARIES ON OUTPUT.
Info: FIRST LDB TIMESTEP     50
Info: LAST LDB TIMESTEP     -1
Info: HOM BACKGROUND SCALING 1
Info: PME BACKGROUND SCALING 1
Info: MIN ATOMS PER PATCH    40
Info: EMPTY PATCH LOAD       40 ATOMS
Info: VELOCITY FILE          mobley_1674094_equil.vel
Info: CENTER OF MASS MOVING INITIALLY? NO
Info: DIELECTRIC             1
Info: EXCLUDE                SCALED ONE-FOUR
Info: 1-4 ELECTROSTATICS SCALED BY 0.833333
Info: MODIFIED 1-4 VDW PARAMETERS WILL BE USED
Info: DCD FILENAME           mobley_1674094_prod.dcd
Info: DCD FREQUENCY          100000
Info: DCD FIRST STEP         100000
Info: DCD FILE WILL CONTAIN UNIT CELL DATA
Info: XST FILENAME           mobley_1674094_prod.xst
Info: XST FREQUENCY          100000
Info: NO VELOCITY DCD OUTPUT
Info: NO FORCE DCD OUTPUT
Info: OUTPUT FILENAME        mobley_1674094_prod
Info: BINARY OUTPUT FILES WILL BE USED
Info: RESTART FILENAME       mobley_1674094_prod.restart
Info: RESTART FREQUENCY      100000
Info: BINARY RESTART FILES WILL BE USED
Info: CUTOFF                 9
Info: PAIRLIST DISTANCE      11
Info: PAIRLIST SHRINK RATE   0.01
Info: PAIRLIST GROW RATE     0.01
Info: PAIRLIST TRIGGER       0.3
Info: PAIRLISTS PER CYCLE    2
Info: PAIRLISTS ENABLED
Info: MARGIN                 2
Info: HYDROGEN GROUP CUTOFF  2.5
Info: PATCH DIMENSION        15.5
Info: ENERGY OUTPUT STEPS    100000
Info: ENERGY EVALUATION STEPS    100000
Info: OUTPUT ENERGY PRECISION 4
Info: CROSSTERM ENERGY INCLUDED IN DIHEDRAL
Info: TIMING OUTPUT STEPS    1000000
Info: PRESSURE OUTPUT STEPS  100000
Info: ALCHEMICAL FEP ON
Info: FEP CURRENT LAMBDA VALUE     0
Info: FEP COMPARISON LAMBDA VALUE  0.05
Info: FEP INTRA-ALCHEMICAL NON-BONDED INTERACTIONS WILL BE RETAINED
Info: FEP INTRA-ALCHEMICAL BONDED INTERACTIONS WILL BE RETAINED
Info: FEP VDW SHIFTING COEFFICIENT 5
Info: FEP ELEC. ACTIVE FOR ANNIHILATED PARTICLES BETWEEN LAMBDA = 0 AND LAMBDA = 0.5
Info: FEP ELEC. ACTIVE FOR EXNIHILATED PARTICLES BETWEEN LAMBDA = 0.5 AND LAMBDA = 1
Info: FEP VDW ACTIVE FOR ANNIHILATED PARTICLES BETWEEN LAMBDA = 0 AND LAMBDA = 1
Info: FEP VDW ACTIVE FOR EXNIHILATED PARTICLES BETWEEN LAMBDA = 0 AND LAMBDA = 1
Info: FEP BOND ACTIVE FOR ANNIHILATED PARTICLES BETWEEN LAMBDA = 1 AND LAMBDA = 1
Info: FEP BOND ACTIVE FOR EXNIHILATED PARTICLES BETWEEN LAMBDA = 0 AND LAMBDA = 0
Info: LANGEVIN DYNAMICS ACTIVE
Info: LANGEVIN TEMPERATURE   300
Info: LANGEVIN USING BBK INTEGRATOR
Info: LANGEVIN DAMPING COEFFICIENT IS 1 INVERSE PS
Info: LANGEVIN DYNAMICS APPLIED TO HYDROGENS
Info: LANGEVIN PISTON PRESSURE CONTROL ACTIVE
Info:        TARGET PRESSURE IS 1.01325 BAR
Info:     OSCILLATION PERIOD IS 50 FS
Info:             DECAY TIME IS 25 FS
Info:     PISTON TEMPERATURE IS 300 K
Info:       PRESSURE CONTROL IS GROUP-BASED
Info:    INITIAL STRAIN RATE IS -0.00038732 -0.00038732 -0.00038732
Info:       CELL FLUCTUATION IS ISOTROPIC
Info: PARTICLE MESH EWALD (PME) ACTIVE
Info: PME TOLERANCE               1e-06
Info: PME EWALD COEFFICIENT       0.348832
Info: PME INTERPOLATION ORDER     4
Info: PME GRID DIMENSIONS         32 32 32
Info: PME MAXIMUM GRID SPACING    1
Info: PME CALCULATION WILL BE PERFORMED ON GPU
Info: FULL ELECTROSTATIC EVALUATION FREQUENCY      2
Info: USING VERLET I (r-RESPA) MTS SCHEME.
Info: C1 SPLITTING OF LONG RANGE ELECTROSTATICS
Info: PLACING ATOMS IN PATCHES BY HYDROGEN GROUPS
Info: RIGID BONDS TO HYDROGEN : ALL
Info:         ERROR TOLERANCE : 1e-08
Info:          MAX ITERATIONS : 100
Info: RIGID WATER USING SETTLE ALGORITHM
Info: RANDOM NUMBER SEED     1743853052
Info: USE HYDROGEN BONDS?    NO
Info: Using AMBER format force field!
Info: AMBER PARM FILE        mobley_1674094.prmtop
Info: COORDINATE PDB         mobley_1674094.pdb
Info: Exclusions will be read from PARM file!
Info: SCNB (VDW SCALING)     2
Info: USING ARITHMETIC MEAN TO COMBINE L-J SIGMA PARAMETERS
Info: BINARY COORDINATES     mobley_1674094_equil.coor
Info: SUMMARY OF PARAMETERS:
Info: 7 BONDS
Info: 7 ANGLES
Info:   7 HARMONIC
Info:   0 COSINE-BASED
Info: 7 DIHEDRAL
Info: 0 IMPROPER
Info: 0 CROSSTERM
Info: 0 VDW
Info: 21 VDW_PAIRS
Info: 0 NBTHOLE_PAIRS
Info: To read alchdata from file: mobley_1674094.pdb
Info: To read alchflag data from column: 5
Info: STRUCTURE SUMMARY:
Info: 2917 ATOMS
Info: 2916 BONDS
Info: 26 ANGLES
Info: 33 DIHEDRALS
Info: 0 IMPROPERS
Info: 0 CROSSTERMS
Info: 2973 EXCLUSIONS
Info: 2911 RIGID BONDS
Info: ALCH: 0 ATOMS TO DISAPPEAR IN FINAL STATE
Info: ALCH: 16 ATOMS TO APPEAR IN FINAL STATE
Info: 5840 DEGREES OF FREEDOM
Info: 973 HYDROGEN GROUPS
Info: 4 ATOMS IN LARGEST HYDROGEN GROUP
Info: 973 MIGRATION GROUPS
Info: 4 ATOMS IN LARGEST MIGRATION GROUP
Info: TOTAL MASS = 17503.6 amu
Info: TOTAL CHARGE = 0.000199989 e
Info: MASS DENSITY = 0.963654 g/cm^3
Info: ATOM DENSITY = 0.0967099 atoms/A^3
Info: ADDED 0 IMPLICIT EXCLUSIONS
Info: NONBONDED TABLE R-SQUARED SPACING: 0.0625
Info: NONBONDED TABLE SIZE: 705 POINTS
Info: REMOVING COM VELOCITY -0.0836721 -0.0201265 0.00961714
Info: Use 3D box decompostion in PME FFT.
Info: Updated CUDA force table with 4096 elements.
Info: Updated CUDA LJ table with 6 x 6 elements.
Info: Found 19 unique exclusion lists needing 44 bytes
TCL: Running for 1500000 steps
ETITLE: TS BOND ANGLE DIHED IMPRP ELECT VDW BOUNDARY MISC KINETIC TOTAL TEMP POTENTIAL TOTALAVG TEMPAVG PRESSURE GPRESSURE VOLUME PRESSAVG GPRESSAVG
ENERGY: 0 2.4952 6.7476 2.1629 0.0000 -10499.8257 1301.7755 0.0000 0.0000 1723.7969 -7462.8476 297.0733 -9186.6446 -7462.8476 297.0733 -1320.4326 -1240.3893 30162.3857 -1320.4326 -1240.3893
ENERGY: 300000 2.1643 9.9273 1.0847 0.0000 -10462.1778 1426.3578 0.0000 0.0000 1760.1285 -7262.5153 303.3346 -9022.6437 -7367.1028 300.5082 456.1348 500.0309 29457.2558 -288.3436 -220.7498
ENERGY: 600000 2.1883 9.2933 0.8656 0.0000 -10700.6422 1489.2728 0.0000 0.0000 1729.3602 -7469.6620 298.0321 -9199.0222 -7397.5746 299.0743 224.9843 301.3565 30134.0852 -234.8915 -178.9872
ENERGY: 900000 2.7946 6.8735 0.8770 0.0000 -10564.1974 1407.4413 0.0000 0.0000 1713.7981 -7432.4129 295.3502 -9146.2111 -7385.9039 299.6237 -210.9075 -176.1296 29813.7414 -119.5681 -59.4067
ENERGY: 1200000 1.6663 5.2862 0.6355 0.0000 -10562.5324 1390.5291 0.0000 0.0000 1707.1060 -7457.3092 294.1969 -9164.4153 -7397.8385 299.0743 -128.4458 -85.3113 29522.7617 -153.4394 -98.8233
ENERGY: 1500000 2.2928 6.1468 1.3453 0.0000 -10502.9986 1370.5271 0.0000 0.0000 1736.3810 -7386.3056 299.2420 -9122.6866 -7390.1105 299.0836 -3.4127 -18.3797 29527.4064 -164.8391 -119.5765
TCL: Running FEP window   2: Lambda1 0.05   Lambda2 0.1    [dLambda 0.05  ]
TCL: Setting parameter firsttimestep to 0
TCL: Setting parameter alchLambda to 0.05
Info: NONBONDED TABLE R-SQUARED SPACING: 0.0625
Info: NONBONDED TABLE SIZE: 705 POINTS
TCL: Setting parameter alchLambda2 to 0.1
Info: NONBONDED TABLE R-SQUARED SPACING: 0.0625
Info: NONBONDED TABLE SIZE: 705 POINTS
TCL: Running for 1500000 steps
ETITLE: TS BOND ANGLE DIHED IMPRP ELECT VDW BOUNDARY MISC KINETIC TOTAL TEMP POTENTIAL TOTALAVG TEMPAVG PRESSURE GPRESSURE VOLUME PRESSAVG GPRESSAVG
ENERGY: 0 2.2928 6.1468 1.3453 0.0000 -10502.9983 1374.5284 0.0000 0.0000 1735.5306 -7383.1545 299.0955 -9118.6851 -7383.1545 299.0955 -82.0194 -9.9019 29527.4064 -82.0194 -9.9019
ENERGY: 300000 0.9786 7.7248 1.2987 0.0000 -10554.9699 1383.7401 0.0000 0.0000 1772.5016 -7388.7261 305.4669 -9161.2277 -7354.2334 304.4982 -355.5611 -313.3476 29947.8855 114.7250 173.1305
ENERGY: 600000 0.7352 6.9535 0.9371 0.0000 -10602.6203 1472.8216 0.0000 0.0000 1764.5504 -7356.6224 304.0966 -9121.1728 -7366.1489 303.1144 459.1634 541.0808 29905.0167 115.0171 171.4938
ENERGY: 900000 1.4923 12.1557 1.8292 0.0000 -10563.3363 1408.3147 0.0000 0.0000 1729.8645 -7409.6800 298.1190 -9139.5444 -7378.6926 302.3217 -139.3101 -126.8979 29798.5868 44.3291 108.0103
ENERGY: 1200000 1.1468 6.2766 0.6917 0.0000 -10575.9267 1480.9945 0.0000 0.0000 1818.7917 -7268.0253 313.4444 -9086.8170 -7364.7482 302.6634 782.2326 830.6882 29289.8903 3.1740 63.4327
ENERGY: 1500000 2.1469 4.2101 2.2777 0.0000 -10638.3161 1399.6862 0.0000 0.0000 1695.9040 -7534.0912 292.2663 -9229.9952 -7380.8916 302.0018 -334.6784 -237.3463 29386.0183 -35.4477 28.9773
TCL: Running FEP window   3: Lambda1 0.1    Lambda2 0.15000000000000002 [dLambda 0.05000000000000002]
TCL: Setting parameter firsttimestep to 0
TCL: Setting parameter alchLambda to 0.1
Info: NONBONDED TABLE R-SQUARED SPACING: 0.0625
Info: NONBONDED TABLE SIZE: 705 POINTS
TCL: Setting parameter alchLambda2 to 0.15000000000000002
Info: NONBONDED TABLE R-SQUARED SPACING: 0.0625
Info: NONBONDED TABLE SIZE: 705 POINTS
TCL: Running for 1500000 steps
ETITLE: TS BOND ANGLE DIHED IMPRP ELECT VDW BOUNDARY MISC KINETIC TOTAL TEMP POTENTIAL TOTALAVG TEMPAVG PRESSURE GPRESSURE VOLUME PRESSAVG GPRESSAVG
ENERGY: 0 2.1469 4.2101 2.2777 0.0000 -10638.3177 1400.0365 0.0000 0.0000 1695.0733 -7534.5733 292.1232 -9229.6466 -7534.5733 292.1232 -342.6985 -233.0232 29386.0183 -342.6985 -233.0232
ENERGY: 300000 4.9134 7.9076 1.2434 0.0000 -10528.6431 1394.0773 0.0000 0.0000 1787.1645 -7333.3370 307.9939 -9120.5014 -7391.5937 301.2863 -348.1295 -271.4373 30011.4746 -152.2061 -64.8566
ENERGY: 600000 2.9765 4.6222 1.3430 0.0000 -10474.4488 1341.9375 0.0000 0.0000 1764.2081 -7359.3615 304.0376 -9123.5696 -7368.3744 303.9346 -578.9961 -557.3358 29908.7947 -276.3741 -207.1654
ENERGY: 900000 2.0452 8.9035 1.8360 0.0000 -10631.1088 1525.0693 0.0000 0.0000 1726.8326 -7366.4221 297.5965 -9093.2547 -7360.4758 302.7200 799.5734 837.4362 29854.7954 -66.3634 5.0610
ENERGY: 1200000 3.9988 4.4342 0.6222 0.0000 -10562.9418 1389.1899 0.0000 0.0000 1744.8151 -7419.8816 300.6955 -9164.6966 -7370.5691 302.0375 -403.4243 -312.0817 29925.3000 -26.0507 51.0654
ENERGY: 1500000 0.3756 6.1818 2.4321 0.0000 -10495.3337 1371.2752 0.0000 0.0000 1732.0324 -7383.0365 298.4926 -9115.0689 -7367.5974 301.2788 -245.9174 -128.9655 29658.4522 -54.9949 27.7616
TCL: Running FEP window   4: Lambda1 0.15000000000000002 Lambda2 0.2    [dLambda 0.04999999999999999]
TCL: Setting parameter firsttimestep to 0
TCL: Setting parameter alchLambda to 0.15000000000000002
Info: NONBONDED TABLE R-SQUARED SPACING: 0.0625
Info: NONBONDED TABLE SIZE: 705 POINTS
TCL: Setting parameter alchLambda2 to 0.2
Info: NONBONDED TABLE R-SQUARED SPACING: 0.0625
Info: NONBONDED TABLE SIZE: 705 POINTS
TCL: Running for 1500000 steps
ETITLE: TS BOND ANGLE DIHED IMPRP ELECT VDW BOUNDARY MISC KINETIC TOTAL TEMP POTENTIAL TOTALAVG TEMPAVG PRESSURE GPRESSURE VOLUME PRESSAVG GPRESSAVG
ENERGY: 0 0.3756 6.1818 2.4321 0.0000 -10495.3337 1371.4492 0.0000 0.0000 1731.1876 -7383.7074 298.3470 -9114.8949 -7383.7074 298.3470 -223.4840 -125.1383 29658.4522 -223.4840 -125.1383
ENERGY: 300000 0.7969 6.9309 1.0248 0.0000 -10632.1832 1464.3288 0.0000 0.0000 1714.3098 -7444.7919 295.4383 -9159.1017 -7390.0660 299.4411 247.8920 310.9711 29846.2004 -202.3926 -119.9780
ENERGY: 600000 2.2594 6.4705 2.0308 0.0000 -10507.9565 1354.2088 0.0000 0.0000 1744.0776 -7398.9094 300.5684 -9142.9870 -7363.1444 299.6347 -698.9377 -662.8204 30059.8946 -196.2977 -151.0998
ENERGY: 900000 1.2360 5.3693 0.7693 0.0000 -10589.6637 1451.1327 0.0000 0.0000 1744.4644 -7386.6920 300.6351 -9131.1564 -7375.1343 299.8758 382.2405 374.9427 29775.8176 -202.6900 -154.4576
ENERGY: 1200000 2.4828 7.5893 2.3104 0.0000 -10573.3503 1438.1336 0.0000 0.0000 1715.6124 -7407.2217 295.6628 -9122.8341 -7380.1133 298.6688 19.5404 59.3734 29901.8671 -199.9626 -153.1793
ENERGY: 1500000 4.6775 7.6839 1.1598 0.0000 -10590.9511 1352.3664 0.0000 0.0000 1757.8915 -7467.1719 302.9491 -9225.0634 -7388.6194 299.2083 -952.8042 -858.5433 29677.9969 -139.0572 -94.4498
TCL: Running FEP window   5: Lambda1 0.2    Lambda2 0.25   [dLambda 0.04999999999999999]
TCL: Setting parameter firsttimestep to 0
TCL: Setting parameter alchLambda to 0.2
Info: NONBONDED TABLE R-SQUARED SPACING: 0.0625
Info: NONBONDED TABLE SIZE: 705 POINTS
TCL: Setting parameter alchLambda2 to 0.25
Info: NONBONDED TABLE R-SQUARED SPACING: 0.0625
Info: NONBONDED TABLE SIZE: 705 POINTS
TCL: Running for 1500000 steps
ETITLE: TS BOND ANGLE DIHED IMPRP ELECT VDW BOUNDARY MISC KINETIC TOTAL TEMP POTENTIAL TOTALAVG TEMPAVG PRESSURE GPRESSURE VOLUME PRESSAVG GPRESSAVG
ENERGY: 0 4.6775 7.6839 1.1598 0.0000 -10590.9514 1352.0260 0.0000 0.0000 1757.0003 -7468.4038 302.7955 -9225.4042 -7468.4038 302.7955 -941.7127 -856.9805 29677.9969 -941.7127 -856.9805
ENERGY: 300000 0.2817 8.4872 1.2314 0.0000 -10535.7255 1447.4594 0.0000 0.0000 1728.7746 -7349.4912 297.9311 -9078.2658 -7407.9619 298.7525 210.3530 271.8101 30219.9159 -372.8085 -300.9516
ENERGY: 600000 1.1700 7.0720 1.4097 0.0000 -10732.8362 1553.9874 0.0000 0.0000 1764.9197 -7404.2775 304.1603 -9169.1972 -7405.9259 300.1380 1061.4160 1121.9271 29760.4390 -37.8291 26.7203
ENERGY: 900000 3.1724 7.3023 1.3564 0.0000 -10609.6088 1491.8921 0.0000 0.0000 1771.9895 -7333.8962 305.3787 -9105.8856 -7384.9071 301.4019 433.2243 497.4615 29970.5455 89.9792 148.4657
ENERGY: 1200000 1.8458 4.1815 0.8149 0.0000 -10487.2261 1399.7037 0.0000 0.0000 1690.5272 -7390.1530 291.3397 -9080.6802 -7381.5671 300.5159 3.8478 66.6112 29731.5631 9.3887 72.3588
ENERGY: 1500000 0.6914 3.5630 3.3472 0.0000 -10541.0259 1394.7381 0.0000 0.0000 1757.5614 -7381.1248 302.8922 -9138.6863 -7377.8926 301.1810 -201.8588 -116.2159 29855.8160 -44.6090 22.6390
TCL: Running FEP window   6: Lambda1 0.25   Lambda2 0.3    [dLambda 0.04999999999999999]
TCL: Setting parameter firsttimestep to 0
TCL: Setting parameter alchLambda to 0.25
Info: NONBONDED TABLE R-SQUARED SPACING: 0.0625
Info: NONBONDED TABLE SIZE: 705 POINTS
TCL: Setting parameter alchLambda2 to 0.3
Info: NONBONDED TABLE R-SQUARED SPACING: 0.0625
Info: NONBONDED TABLE SIZE: 705 POINTS
TCL: Running for 1500000 steps
ETITLE: TS BOND ANGLE DIHED IMPRP ELECT VDW BOUNDARY MISC KINETIC TOTAL TEMP POTENTIAL TOTALAVG TEMPAVG PRESSURE GPRESSURE VOLUME PRESSAVG GPRESSAVG
ENERGY: 0 0.6914 3.5630 3.3472 0.0000 -10541.0261 1395.4602 0.0000 0.0000 1756.6598 -7381.3045 302.7368 -9137.9644 -7381.3045 302.7368 -179.7477 -106.9272 29855.8160 -179.7477 -106.9272
ENERGY: 300000 1.1984 13.0982 0.6634 0.0000 -10578.5024 1430.6526 0.0000 0.0000 1757.4303 -7375.4596 302.8696 -9132.8899 -7388.6562 300.7449 316.5308 375.1827 29646.0701 99.4883 159.6947
ENERGY: 600000 1.2611 5.7769 1.2309 0.0000 -10556.4109 1376.9212 0.0000 0.0000 1709.1152 -7462.1057 294.5431 -9171.2208 -7399.1281 297.9683 -536.8134 -407.7848 29583.3604 -146.9934 -80.7421
ENERGY: 900000 4.0993 7.0310 1.2039 0.0000 -10436.5607 1341.7795 0.0000 0.0000 1764.8353 -7317.6117 304.1457 -9082.4470 -7381.4344 298.5036 -482.3205 -499.4791 30048.7235 -225.8533 -163.2589
ENERGY: 1200000 0.8183 6.5113 0.7301 0.0000 -10548.5111 1424.8931 0.0000 0.0000 1785.5945 -7329.9639 307.7233 -9115.5584 -7380.0715 299.6807 296.4463 313.3561 29769.6284 -103.9377 -43.7588
ENERGY: 1500000 0.8456 11.2327 1.1930 0.0000 -10511.2385 1365.5317 0.0000 0.0000 1746.2560 -7386.1796 300.9438 -9132.4355 -7393.3724 299.1479 -530.7323 -484.9095 30225.3317 -147.7134 -83.6120
TCL: Running FEP window   7: Lambda1 0.3    Lambda2 0.35   [dLambda 0.04999999999999999]
TCL: Setting parameter firsttimestep to 0
TCL: Setting parameter alchLambda to 0.3
Info: NONBONDED TABLE R-SQUARED SPACING: 0.0625
Info: NONBONDED TABLE SIZE: 705 POINTS
TCL: Setting parameter alchLambda2 to 0.35
Info: NONBONDED TABLE R-SQUARED SPACING: 0.0625
Info: NONBONDED TABLE SIZE: 705 POINTS
TCL: Running for 1500000 steps
ETITLE: TS BOND ANGLE DIHED IMPRP ELECT VDW BOUNDARY MISC KINETIC TOTAL TEMP POTENTIAL TOTALAVG TEMPAVG PRESSURE GPRESSURE VOLUME PRESSAVG GPRESSAVG
ENERGY: 0 0.8456 11.2327 1.1930 0.0000 -10511.2388 1366.7832 0.0000 0.0000 1745.3796 -7385.8049 300.7928 -9131.1844 -7385.8049 300.7928 -548.2499 -472.9608 30225.3317 -548.2499 -472.9608
ENERGY: 300000 4.3152 4.5456 0.8985 0.0000 -10479.6206 1383.6977 0.0000 0.0000 1723.6065 -7362.5571 297.0405 -9086.1636 -7361.5139 300.6086 -102.6993 -53.0154 30001.7918 47.6405 91.7887
ENERGY: 600000 0.1401 5.2662 1.2788 0.0000 -10500.1953 1405.7800 0.0000 0.0000 1744.9149 -7342.8154 300.7127 -9087.7303 -7378.4623 298.7851 -73.2487 -56.4066 30078.9798 -130.7439 -89.6724
ENERGY: 900000 3.3960 4.6375 0.9532 0.0000 -10571.9210 1375.6853 0.0000 0.0000 1746.4070 -7440.8420 300.9699 -9187.2490 -7395.0563 299.2928 -691.3161 -626.5399 30123.4840 -163.1090 -104.1948
ENERGY: 1200000 0.9517 8.8093 0.8347 0.0000 -10648.9361 1484.9664 0.0000 0.0000 1725.9825 -7427.3914 297.4500 -9153.3739 -7397.8201 300.2771 502.5408 602.0139 29730.8316 -133.7096 -63.9686
ENERGY: 1500000 4.0528 14.1582 0.7130 0.0000 -10631.8847 1397.6625 0.0000 0.0000 1723.3883 -7491.9099 297.0029 -9215.2982 -7393.6554 300.4041 -467.6618 -389.8745 29953.7412 -127.0416 -60.6398
TCL: Running FEP window   8: Lambda1 0.35   Lambda2 0.39999999999999997 [dLambda 0.04999999999999999]
TCL: Setting parameter firsttimestep to 0
TCL: Setting parameter alchLambda to 0.35
Info: NONBONDED TABLE R-SQUARED SPACING: 0.0625
Info: NONBONDED TABLE SIZE: 705 POINTS
TCL: Setting parameter alchLambda2 to 0.39999999999999997
Info: NONBONDED TABLE R-SQUARED SPACING: 0.0625
Info: NONBONDED TABLE SIZE: 705 POINTS
TCL: Running for 1500000 steps
ETITLE: TS BOND ANGLE DIHED IMPRP ELECT VDW BOUNDARY MISC KINETIC TOTAL TEMP POTENTIAL TOTALAVG TEMPAVG PRESSURE GPRESSURE VOLUME PRESSAVG GPRESSAVG
ENERGY: 0 4.0528 14.1582 0.7130 0.0000 -10631.8843 1397.4895 0.0000 0.0000 1722.5571 -7492.9136 296.8596 -9215.4707 -7492.9136 296.8596 -460.1158 -385.2193 29953.7412 -460.1158 -385.2193
ENERGY: 300000 1.5724 7.2130 0.9684 0.0000 -10611.9505 1504.3251 0.0000 0.0000 1772.3710 -7325.5007 305.4444 -9097.8717 -7390.8982 303.4932 746.7947 862.0918 29831.3817 84.0530 186.5888
ENERGY: 600000 4.3789 7.7115 1.2487 0.0000 -10524.9862 1418.2605 0.0000 0.0000 1728.1441 -7365.2426 297.8225 -9093.3866 -7389.6647 300.1406 4.9317 -11.6607 30138.5559 76.3896 153.7718
ENERGY: 900000 2.4440 5.7267 0.6808 0.0000 -10579.0480 1513.4180 0.0000 0.0000 1708.7669 -7348.0116 294.4831 -9056.7785 -7389.4326 298.9459 731.4856 818.9680 30102.1272 57.9451 132.7056
ENERGY: 1200000 1.6159 6.8264 1.0266 0.0000 -10502.0131 1370.4189 0.0000 0.0000 1805.3813 -7316.7441 311.1333 -9122.1254 -7374.8424 300.7093 -319.5695 -321.8218 29935.8554 -28.0899 40.2107
ENERGY: 1500000 1.2064 6.9231 1.0220 0.0000 -10651.7744 1443.5087 0.0000 0.0000 1757.1167 -7441.9975 302.8155 -9199.1142 -7382.5741 300.1540 53.1297 113.8919 29855.4417 59.2194 122.8582
TCL: Running FEP window   9: Lambda1 0.39999999999999997 Lambda2 0.44999999999999996 [dLambda 0.04999999999999999]
TCL: Setting parameter firsttimestep to 0
TCL: Setting parameter alchLambda to 0.39999999999999997
Info: NONBONDED TABLE R-SQUARED SPACING: 0.0625
Info: NONBONDED TABLE SIZE: 705 POINTS
TCL: Setting parameter alchLambda2 to 0.44999999999999996
Info: NONBONDED TABLE R-SQUARED SPACING: 0.0625
Info: NONBONDED TABLE SIZE: 705 POINTS
TCL: Running for 1500000 steps
ETITLE: TS BOND ANGLE DIHED IMPRP ELECT VDW BOUNDARY MISC KINETIC TOTAL TEMP POTENTIAL TOTALAVG TEMPAVG PRESSURE GPRESSURE VOLUME PRESSAVG GPRESSAVG
ENERGY: 0 1.2064 6.9231 1.0220 0.0000 -10651.7745 1443.2288 0.0000 0.0000 1756.2469 -7443.1473 302.6656 -9199.3942 -7443.1473 302.6656 23.5142 115.2562 29855.4417 23.5142 115.2562
ENERGY: 300000 0.9780 3.9531 2.2470 0.0000 -10531.3566 1363.0859 0.0000 0.0000 1737.1343 -7423.9583 299.3718 -9161.0926 -7425.0876 300.1363 -426.4093 -385.6070 29695.8901 -93.9662 -33.5927
ENERGY: 600000 0.6329 9.0400 2.2738 0.0000 -10441.3969 1360.7741 0.0000 0.0000 1709.5674 -7359.1087 294.6211 -9068.6762 -7410.5772 299.3641 -642.5431 -659.5168 30386.2235 -140.1679 -93.9458
ENERGY: 900000 1.1585 8.9258 2.2052 0.0000 -10668.1458 1457.7473 0.0000 0.0000 1795.7523 -7402.3566 309.4739 -9198.1089 -7416.4791 299.7482 163.1068 233.5553 29901.1562 -149.8982 -95.7246
ENERGY: 1200000 1.9415 9.0813 1.0730 0.0000 -10604.2175 1434.1037 0.0000 0.0000 1758.9751 -7399.0429 303.1358 -9158.0180 -7406.4266 300.3586 -174.1954 -97.3820 30047.5155 -71.8351 -11.5913
ENERGY: 1500000 2.2458 9.0209 2.5294 0.0000 -10522.7317 1418.8707 0.0000 0.0000 1761.9700 -7328.0950 303.6519 -9090.0650 -7400.3160 300.5497 -205.6289 -127.1869 30575.8604 -29.7534 29.0435
TCL: Running FEP window  10: Lambda1 0.44999999999999996 Lambda2 0.49999999999999994 [dLambda 0.04999999999999999]
TCL: Setting parameter firsttimestep to 0
TCL: Setting parameter alchLambda to 0.44999999999999996
Info: NONBONDED TABLE R-SQUARED SPACING: 0.0625
Info: NONBONDED TABLE SIZE: 705 POINTS
TCL: Setting parameter alchLambda2 to 0.49999999999999994
Info: NONBONDED TABLE R-SQUARED SPACING: 0.0625
Info: NONBONDED TABLE SIZE: 705 POINTS
TCL: Running for 1500000 steps
ETITLE: TS BOND ANGLE DIHED IMPRP ELECT VDW BOUNDARY MISC KINETIC TOTAL TEMP POTENTIAL TOTALAVG TEMPAVG PRESSURE GPRESSURE VOLUME PRESSAVG GPRESSAVG
ENERGY: 0 2.2458 9.0209 2.5294 0.0000 -10522.7311 1419.1016 0.0000 0.0000 1761.1052 -7328.7282 303.5029 -9089.8334 -7328.7282 303.5029 -202.3255 -116.4442 30575.8604 -202.3255 -116.4442
ENERGY: 300000 0.7986 5.2675 0.7740 0.0000 -10559.5008 1399.0697 0.0000 0.0000 1738.5769 -7415.0141 299.6205 -9153.5910 -7390.1829 303.2790 53.3924 81.0526 29376.2071 8.6751 60.1122
ENERGY: 600000 0.1906 8.2982 1.1016 0.0000 -10741.3088 1515.7055 0.0000 0.0000 1733.2100 -7482.8028 298.6955 -9216.0128 -7400.9917 301.0781 658.2463 676.5032 29872.0338 49.8487 102.1260
ENERGY: 900000 0.7862 7.4312 0.8849 0.0000 -10480.0907 1413.5850 0.0000 0.0000 1795.8664 -7261.5371 309.4935 -9057.4035 -7384.7144 301.0554 221.4929 306.4402 29816.3298 20.7764 78.0100
ENERGY: 1200000 2.5693 12.9185 3.2566 0.0000 -10698.4055 1470.9685 0.0000 0.0000 1721.2063 -7487.4863 296.6268 -9208.6925 -7395.8740 300.8241 59.2712 121.7320 29937.8256 36.8225 97.3954
ENERGY: 1500000 1.3191 6.1950 1.1056 0.0000 -10517.4142 1419.8506 0.0000 0.0000 1778.7370 -7310.2070 306.5415 -9088.9440 -7397.0952 300.6250 -180.9646 -81.0584 30249.9549 15.4796 81.0532
TCL: Running FEP window  11: Lambda1 0.49999999999999994 Lambda2 0.5499999999999999 [dLambda 0.04999999999999999]
TCL: Setting parameter firsttimestep to 0
TCL: Setting parameter alchLambda to 0.49999999999999994
Info: NONBONDED TABLE R-SQUARED SPACING: 0.0625
Info: NONBONDED TABLE SIZE: 705 POINTS
TCL: Setting parameter alchLambda2 to 0.5499999999999999
Info: NONBONDED TABLE R-SQUARED SPACING: 0.0625
Info: NONBONDED TABLE SIZE: 705 POINTS
TCL: Running for 1500000 steps
ETITLE: TS BOND ANGLE DIHED IMPRP ELECT VDW BOUNDARY MISC KINETIC TOTAL TEMP POTENTIAL TOTALAVG TEMPAVG PRESSURE GPRESSURE VOLUME PRESSAVG GPRESSAVG
ENERGY: 0 1.3191 6.1950 1.1056 0.0000 -10517.4146 1420.1056 0.0000 0.0000 1777.8360 -7310.8533 306.3862 -9088.6893 -7310.8533 306.3862 -153.7478 -72.8725 30249.9549 -153.7478 -72.8725
ENERGY: 300000 1.8768 8.8853 0.6682 0.0000 -10479.2265 1440.0939 0.0000 0.0000 1734.8477 -7292.8546 298.9778 -9027.7023 -7346.0274 301.7039 365.5917 393.7594 30029.5217 -52.7905 3.7918
ENERGY: 600000 1.3965 8.5454 1.2136 0.0000 -10653.9944 1465.4941 0.0000 0.0000 1698.3616 -7478.9832 292.6899 -9177.3448 -7376.7107 300.6266 257.3273 272.2857 29979.5156 153.2116 205.3484
ENERGY: 900000 0.6951 5.3918 1.0091 0.0000 -10678.0664 1506.4177 0.0000 0.0000 1752.8389 -7411.7138 302.0783 -9164.5527 -7390.4993 299.2436 545.7501 563.9607 30044.1950 214.4231 262.7435
ENERGY: 1200000 0.9367 11.6213 3.4757 0.0000 -10575.9906 1346.8587 0.0000 0.0000 1728.9858 -7484.1125 297.9675 -9213.0983 -7394.4174 299.9472 -996.5820 -947.2766 30248.7050 106.1618 155.3038
ENERGY: 1500000 1.2837 6.2070 1.1236 0.0000 -10746.2709 1510.6571 0.0000 0.0000 1783.7276 -7443.2719 307.4016 -9226.9995 -7393.2322 301.1123 641.3642 672.6644 29521.6798 103.3405 152.1388
TCL: Running FEP window  12: Lambda1 0.5499999999999999 Lambda2 0.6    [dLambda 0.050000000000000044]
TCL: Setting parameter firsttimestep to 0
TCL: Setting parameter alchLambda to 0.5499999999999999
Info: NONBONDED TABLE R-SQUARED SPACING: 0.0625
Info: NONBONDED TABLE SIZE: 705 POINTS
TCL: Setting parameter alchLambda2 to 0.6
Info: NONBONDED TABLE R-SQUARED SPACING: 0.0625
Info: NONBONDED TABLE SIZE: 705 POINTS
TCL: Running for 1500000 steps
ETITLE: TS BOND ANGLE DIHED IMPRP ELECT VDW BOUNDARY MISC KINETIC TOTAL TEMP POTENTIAL TOTALAVG TEMPAVG PRESSURE GPRESSURE VOLUME PRESSAVG GPRESSAVG
ENERGY: 0 1.2838 6.2070 1.1236 0.0000 -10746.0704 1510.4249 0.0000 0.0000 1782.8644 -7444.1668 307.2528 -9227.0312 -7444.1668 307.2528 620.6306 677.2434 29521.6798 620.6306 677.2434
ENERGY: 300000 1.6433 5.1804 1.1070 0.0000 -10555.6957 1398.2943 0.0000 0.0000 1729.6033 -7419.8673 298.0740 -9149.4707 -7450.7639 300.0368 -332.4239 -233.8500 30088.6912 19.9939 77.7416
ENERGY: 600000 2.0706 3.3935 1.1342 0.0000 -10611.1701 1354.9440 0.0000 0.0000 1753.1577 -7496.4701 302.1332 -9249.6278 -7444.2378 300.7810 -634.0274 -529.9464 29263.5829 -56.1162 17.2378
ENERGY: 900000 1.6225 5.7235 1.1174 0.0000 -10684.5773 1541.7849 0.0000 0.0000 1705.9809 -7428.3480 294.0030 -9134.3289 -7414.6176 301.6189 1053.1330 1134.7831 29646.8334 -39.2800 37.2444
ENERGY: 1200000 2.6872 8.5905 0.7237 0.0000 -10484.9689 1413.0912 0.0000 0.0000 1802.7387 -7257.1376 310.6779 -9059.8764 -7404.7481 301.5773 241.1205 315.9147 30124.8517 -20.1237 45.2937
ENERGY: 1500000 4.1195 9.0443 1.4314 0.0000 -10583.9542 1425.8362 0.0000 0.0000 1722.6540 -7420.8689 296.8763 -9143.5229 -7403.5006 300.3755 -12.8471 106.5023 29855.2051 -89.1681 -20.4649
TCL: Running FEP window  13: Lambda1 0.6    Lambda2 0.65   [dLambda 0.050000000000000044]
TCL: Setting parameter firsttimestep to 0
TCL: Setting parameter alchLambda to 0.6
Info: NONBONDED TABLE R-SQUARED SPACING: 0.0625
Info: NONBONDED TABLE SIZE: 705 POINTS
TCL: Setting parameter alchLambda2 to 0.65
Info: NONBONDED TABLE R-SQUARED SPACING: 0.0625
Info: NONBONDED TABLE SIZE: 705 POINTS
TCL: Running for 1500000 steps
ETITLE: TS BOND ANGLE DIHED IMPRP ELECT VDW BOUNDARY MISC KINETIC TOTAL TEMP POTENTIAL TOTALAVG TEMPAVG PRESSURE GPRESSURE VOLUME PRESSAVG GPRESSAVG
ENERGY: 0 4.1195 9.0443 1.4314 0.0000 -10583.9088 1425.9326 0.0000 0.0000 1721.8102 -7421.5708 296.7309 -9143.3811 -7421.5708 296.7309 31.1494 119.0955 29855.2051 31.1494 119.0955
ENERGY: 300000 0.8377 4.4821 2.1081 0.0000 -10442.1129 1336.9811 0.0000 0.0000 1728.4046 -7369.2993 297.8674 -9097.7039 -7378.3973 299.6847 -545.8712 -459.0430 29971.8042 -397.0314 -328.7722
ENERGY: 600000 3.5054 6.3480 1.0472 0.0000 -10557.0744 1426.0327 0.0000 0.0000 1717.0773 -7403.0639 295.9153 -9120.1411 -7378.0071 300.3815 98.3865 193.5190 29865.8909 -272.8740 -205.5657
ENERGY: 900000 2.9737 8.4520 0.5187 0.0000 -10554.7811 1365.0153 0.0000 0.0000 1755.8273 -7421.9941 302.5933 -9177.8214 -7380.8300 298.9954 -508.3531 -450.3512 29780.2084 -287.6687 -223.0379
ENERGY: 1200000 1.6343 6.9842 1.1197 0.0000 -10640.0972 1511.2896 0.0000 0.0000 1799.4922 -7319.5772 310.1184 -9119.0694 -7386.6392 299.5952 734.6753 919.9711 29789.8168 -138.1120 -69.1964
ENERGY: 1500000 0.5810 5.8630 0.7120 0.0000 -10537.0780 1333.7148 0.0000 0.0000 1735.4011 -7460.8061 299.0731 -9196.2072 -7393.5274 299.8257 -722.0298 -677.8039 29935.6235 -160.4492 -95.6374
TCL: Running FEP window  14: Lambda1 0.65   Lambda2 0.7000000000000001 [dLambda 0.050000000000000044]
TCL: Setting parameter firsttimestep to 0
TCL: Setting parameter alchLambda to 0.65
Info: NONBONDED TABLE R-SQUARED SPACING: 0.0625
Info: NONBONDED TABLE SIZE: 705 POINTS
TCL: Setting parameter alchLambda2 to 0.7000000000000001
Info: NONBONDED TABLE R-SQUARED SPACING: 0.0625
Info: NONBONDED TABLE SIZE: 705 POINTS
TCL: Running for 1500000 steps
ETITLE: TS BOND ANGLE DIHED IMPRP ELECT VDW BOUNDARY MISC KINETIC TOTAL TEMP POTENTIAL TOTALAVG TEMPAVG PRESSURE GPRESSURE VOLUME PRESSAVG GPRESSAVG
ENERGY: 0 0.5810 5.8630 0.7120 0.0000 -10537.5523 1333.8449 0.0000 0.0000 1734.4987 -7462.0526 298.9176 -9196.5513 -7462.0526 298.9176 -758.5278 -666.5435 29935.6235 -758.5278 -666.5435
ENERGY: 300000 1.1712 8.7487 1.8072 0.0000 -10512.3488 1388.6738 0.0000 0.0000 1722.4239 -7389.5240 296.8367 -9111.9479 -7418.7101 297.9779 -89.2059 -43.7035 29767.7299 -243.1027 -173.5808
ENERGY: 600000 2.0555 4.8463 0.9457 0.0000 -10499.0918 1424.4424 0.0000 0.0000 1760.5642 -7306.2377 303.4097 -9066.8019 -7394.0089 299.2626 143.9371 215.0160 30131.6423 -87.3810 -19.6284
ENERGY: 900000 4.4130 5.9674 1.1651 0.0000 -10736.1339 1527.4362 0.0000 0.0000 1710.2268 -7486.9255 294.7347 -9197.1522 -7397.9336 298.0804 737.4507 790.4851 29526.6267 -69.1481 7.4260
ENERGY: 1200000 2.4641 7.0634 1.0172 0.0000 -10492.0896 1389.6679 0.0000 0.0000 1706.7659 -7385.1111 294.1383 -9091.8770 -7394.1491 297.4839 -305.2678 -243.9339 30206.2818 -66.6300 6.0997
ENERGY: 1500000 1.1442 9.0420 1.2416 0.0000 -10440.8705 1394.3153 0.0000 0.0000 1715.1183 -7320.0090 295.5777 -9035.1273 -7402.4505 296.9460 -25.7713 65.9654 30607.7451 -41.0866 30.0173
TCL: Running FEP window  15: Lambda1 0.7000000000000001 Lambda2 0.7500000000000001 [dLambda 0.050000000000000044]
TCL: Setting parameter firsttimestep to 0
TCL: Setting parameter alchLambda to 0.7000000000000001
Info: NONBONDED TABLE R-SQUARED SPACING: 0.0625
Info: NONBONDED TABLE SIZE: 705 POINTS
TCL: Setting parameter alchLambda2 to 0.7500000000000001
Info: NONBONDED TABLE R-SQUARED SPACING: 0.0625
Info: NONBONDED TABLE SIZE: 705 POINTS
TCL: Running for 1500000 steps
ETITLE: TS BOND ANGLE DIHED IMPRP ELECT VDW BOUNDARY MISC KINETIC TOTAL TEMP POTENTIAL TOTALAVG TEMPAVG PRESSURE GPRESSURE VOLUME PRESSAVG GPRESSAVG
ENERGY: 0 1.1442 9.0420 1.2416 0.0000 -10441.1703 1395.6140 0.0000 0.0000 1714.2599 -7319.8685 295.4297 -9034.1284 -7319.8685 295.4297 0.8750 84.7938 30607.7451 0.8750 84.7938
ENERGY: 300000 0.7886 8.5730 2.0195 0.0000 -10590.0784 1500.1533 0.0000 0.0000 1787.3064 -7291.2376 308.0183 -9078.5440 -7380.1508 299.1120 826.0922 879.6575 30010.0756 271.3914 350.5843
ENERGY: 600000 0.9248 3.6729 1.0430 0.0000 -10798.4008 1546.7523 0.0000 0.0000 1720.1985 -7525.8091 296.4532 -9246.0076 -7410.6414 298.0410 847.7907 870.0440 29551.1190 224.2934 285.0327
ENERGY: 900000 0.9617 8.4193 0.6489 0.0000 -10700.1471 1503.2343 0.0000 0.0000 1732.8207 -7454.0622 298.6284 -9186.8829 -7417.1891 297.9906 406.5868 497.4872 30120.4227 136.9939 192.9117
ENERGY: 1200000 1.9750 7.7706 0.6423 0.0000 -10637.5666 1461.3529 0.0000 0.0000 1799.7384 -7366.0874 310.1608 -9165.8257 -7409.8675 299.9204 -6.2612 69.2615 30263.4209 210.8399 269.5049
ENERGY: 1500000 1.6493 7.4459 1.7648 0.0000 -10493.5344 1373.5881 0.0000 0.0000 1731.0577 -7378.0286 298.3246 -9109.0864 -7411.2543 299.4401 -395.7069 -358.2973 30406.1956 125.3094 189.8459
TCL: Running FEP window  16: Lambda1 0.7500000000000001 Lambda2 0.8000000000000002 [dLambda 0.050000000000000044]
TCL: Setting parameter firsttimestep to 0
TCL: Setting parameter alchLambda to 0.7500000000000001
Info: NONBONDED TABLE R-SQUARED SPACING: 0.0625
Info: NONBONDED TABLE SIZE: 705 POINTS
TCL: Setting parameter alchLambda2 to 0.8000000000000002
Info: NONBONDED TABLE R-SQUARED SPACING: 0.0625
Info: NONBONDED TABLE SIZE: 705 POINTS
TCL: Running for 1500000 steps
ETITLE: TS BOND ANGLE DIHED IMPRP ELECT VDW BOUNDARY MISC KINETIC TOTAL TEMP POTENTIAL TOTALAVG TEMPAVG PRESSURE GPRESSURE VOLUME PRESSAVG GPRESSAVG
ENERGY: 0 1.6493 7.4459 1.7648 0.0000 -10493.6756 1373.0330 0.0000 0.0000 1730.2120 -7379.5706 298.1789 -9109.7826 -7379.5706 298.1789 -449.3870 -355.0730 30406.1956 -449.3870 -355.0730
ENERGY: 300000 2.5503 8.1660 1.4919 0.0000 -10590.2365 1453.1285 0.0000 0.0000 1744.8331 -7380.0668 300.6986 -9124.8999 -7404.4120 299.0782 430.7347 413.7930 29857.8464 44.4294 131.0471
ENERGY: 600000 1.4790 7.7531 0.6100 0.0000 -10457.2869 1326.9799 0.0000 0.0000 1745.7914 -7374.6736 300.8638 -9120.4650 -7377.9467 300.1897 -622.8200 -613.2793 29981.8332 -36.6881 25.5896
ENERGY: 900000 0.4076 8.2052 1.4765 0.0000 -10470.7330 1375.2925 0.0000 0.0000 1763.2777 -7322.0736 303.8773 -9085.3513 -7384.4219 299.2611 -298.9399 -247.8919 30196.4408 -195.0528 -137.5020
ENERGY: 1200000 1.4104 8.9793 2.1399 0.0000 -10661.1204 1483.1308 0.0000 0.0000 1759.6349 -7405.8250 303.2495 -9165.4599 -7393.7310 299.8905 727.7098 769.2696 29870.5748 -152.6030 -93.9832
ENERGY: 1500000 1.2931 7.1330 1.4066 0.0000 -10514.5967 1372.5074 0.0000 0.0000 1740.7729 -7391.4837 299.9989 -9132.2566 -7404.9383 299.0323 -445.9900 -305.5661 29995.4782 -47.3011 18.6033
TCL: Running FEP window  17: Lambda1 0.8000000000000002 Lambda2 0.8500000000000002 [dLambda 0.050000000000000044]
TCL: Setting parameter firsttimestep to 0
TCL: Setting parameter alchLambda to 0.8000000000000002
Info: NONBONDED TABLE R-SQUARED SPACING: 0.0625
Info: NONBONDED TABLE SIZE: 705 POINTS
TCL: Setting parameter alchLambda2 to 0.8500000000000002
Info: NONBONDED TABLE R-SQUARED SPACING: 0.0625
Info: NONBONDED TABLE SIZE: 705 POINTS
TCL: Running for 1500000 steps
ETITLE: TS BOND ANGLE DIHED IMPRP ELECT VDW BOUNDARY MISC KINETIC TOTAL TEMP POTENTIAL TOTALAVG TEMPAVG PRESSURE GPRESSURE VOLUME PRESSAVG GPRESSAVG
ENERGY: 0 1.2931 7.1330 1.4066 0.0000 -10514.7905 1372.5566 0.0000 0.0000 1739.8867 -7392.5146 299.8462 -9132.4013 -7392.5146 299.8462 -392.5907 -292.9766 29995.4782 -392.5907 -292.9766
ENERGY: 300000 1.9974 8.1525 1.3115 0.0000 -10483.7647 1404.5532 0.0000 0.0000 1747.4973 -7320.2528 301.1577 -9067.7501 -7389.0688 297.8482 116.4406 132.3307 30178.9841 -107.6022 -45.6259
ENERGY: 600000 0.7648 5.4854 1.0603 0.0000 -10544.8159 1419.1332 0.0000 0.0000 1721.8758 -7396.4964 296.7422 -9118.3722 -7396.6790 298.1734 -64.5800 2.0508 30377.4808 -373.6889 -308.0927
ENERGY: 900000 0.7810 10.6606 0.8651 0.0000 -10423.8127 1332.2934 0.0000 0.0000 1744.0373 -7335.1755 300.5615 -9079.2127 -7389.0767 299.3668 -431.7349 -369.7100 30173.6205 -323.3095 -251.9666
ENERGY: 1200000 1.9694 4.9313 1.0165 0.0000 -10536.5728 1415.3639 0.0000 0.0000 1719.9441 -7393.3477 296.4093 -9113.2918 -7388.4620 299.0024 -38.8012 39.6071 29982.7224 -233.8226 -162.5598
ENERGY: 1500000 1.1668 6.7519 1.5845 0.0000 -10656.6961 1414.4447 0.0000 0.0000 1819.7215 -7413.0269 313.6046 -9232.7483 -7395.8203 299.8585 -53.5450 -46.3972 29714.5644 -253.3581 -189.1347
TCL: Running FEP window  18: Lambda1 0.8500000000000002 Lambda2 0.9000000000000002 [dLambda 0.050000000000000044]
TCL: Setting parameter firsttimestep to 0
TCL: Setting parameter alchLambda to 0.8500000000000002
Info: NONBONDED TABLE R-SQUARED SPACING: 0.0625
Info: NONBONDED TABLE SIZE: 705 POINTS
TCL: Setting parameter alchLambda2 to 0.9000000000000002
Info: NONBONDED TABLE R-SQUARED SPACING: 0.0625
Info: NONBONDED TABLE SIZE: 705 POINTS
TCL: Running for 1500000 steps
ETITLE: TS BOND ANGLE DIHED IMPRP ELECT VDW BOUNDARY MISC KINETIC TOTAL TEMP POTENTIAL TOTALAVG TEMPAVG PRESSURE GPRESSURE VOLUME PRESSAVG GPRESSAVG
ENERGY: 0 1.1668 6.7519 1.5845 0.0000 -10656.8929 1414.2577 0.0000 0.0000 1818.8407 -7414.2914 313.4528 -9233.1321 -7414.2914 313.4528 -127.2275 -38.6546 29714.5644 -127.2275 -38.6546
ENERGY: 300000 1.2400 4.0472 1.4433 0.0000 -10395.4856 1381.2798 0.0000 0.0000 1711.5714 -7295.9039 294.9664 -9007.4753 -7388.3654 299.0821 -92.2349 -32.2121 30501.0302 -116.0518 -39.0011
ENERGY: 600000 1.9186 7.0908 1.0613 0.0000 -10564.8534 1395.1318 0.0000 0.0000 1734.5755 -7425.0754 298.9309 -9159.6509 -7388.8939 299.7553 -350.4940 -266.5214 29962.7822 55.4443 135.2148
ENERGY: 900000 2.1148 5.6881 0.7286 0.0000 -10620.9721 1472.1985 0.0000 0.0000 1800.2587 -7339.9834 310.2505 -9140.2421 -7392.3271 300.5788 190.3521 201.4725 30330.3865 69.7045 135.9221
ENERGY: 1200000 1.1024 10.4342 3.9221 0.0000 -10618.9305 1489.2149 0.0000 0.0000 1786.6922 -7327.5648 307.9125 -9114.2569 -7380.4608 301.7596 531.7620 616.5840 30194.8453 113.6580 177.6903
ENERGY: 1500000 1.3371 4.8183 1.7522 0.0000 -10458.1017 1336.9466 0.0000 0.0000 1768.8952 -7344.3523 304.8454 -9113.2475 -7381.4668 301.3938 -573.4340 -568.0365 30145.1483 30.3158 83.4672
TCL: Running FEP window  19: Lambda1 0.9000000000000002 Lambda2 0.9500000000000003 [dLambda 0.050000000000000044]
TCL: Setting parameter firsttimestep to 0
TCL: Setting parameter alchLambda to 0.9000000000000002
Info: NONBONDED TABLE R-SQUARED SPACING: 0.0625
Info: NONBONDED TABLE SIZE: 705 POINTS
TCL: Setting parameter alchLambda2 to 0.9500000000000003
Info: NONBONDED TABLE R-SQUARED SPACING: 0.0625
Info: NONBONDED TABLE SIZE: 705 POINTS
TCL: Running for 1500000 steps
ETITLE: TS BOND ANGLE DIHED IMPRP ELECT VDW BOUNDARY MISC KINETIC TOTAL TEMP POTENTIAL TOTALAVG TEMPAVG PRESSURE GPRESSURE VOLUME PRESSAVG GPRESSAVG
ENERGY: 0 1.3371 4.8183 1.7522 0.0000 -10458.4260 1336.5403 0.0000 0.0000 1768.0275 -7345.9507 304.6959 -9113.9782 -7345.9507 304.6959 -629.0911 -563.3545 30145.1483 -629.0911 -563.3545
ENERGY: 300000 0.9433 3.8240 0.7805 0.0000 -10647.7376 1490.3333 0.0000 0.0000 1778.6217 -7373.2349 306.5216 -9151.8565 -7384.4299 303.5066 591.0871 613.6182 29896.6185 29.3216 72.9482
ENERGY: 600000 3.3727 10.7511 2.2071 0.0000 -10590.5006 1427.0217 0.0000 0.0000 1716.6206 -7430.5274 295.8366 -9147.1480 -7396.7520 300.5976 -96.3217 -48.7578 29846.2943 69.8214 117.8009
ENERGY: 900000 0.4587 6.3335 1.4610 0.0000 -10569.3353 1388.6745 0.0000 0.0000 1738.5100 -7433.8976 299.6089 -9172.4077 -7399.7638 300.8543 -544.3946 -426.0421 30202.2090 -49.6953 13.1267
ENERGY: 1200000 1.2346 7.3264 0.8962 0.0000 -10793.1682 1582.8337 0.0000 0.0000 1802.2291 -7398.6483 310.5900 -9200.8773 -7391.2492 301.6048 1035.2203 1038.8910 30223.5620 -15.1735 40.1929
ENERGY: 1500000 4.1124 8.6087 2.1945 0.0000 -10575.2987 1492.8359 0.0000 0.0000 1779.4411 -7288.1060 306.6628 -9067.5472 -7380.6064 302.9491 743.2852 750.7575 29969.6368 4.6628 62.6753
TCL: Running FEP window  20: Lambda1 0.9500000000000003 Lambda2 1.0    [dLambda 0.04999999999999971]
TCL: Setting parameter firsttimestep to 0
TCL: Setting parameter alchLambda to 0.9500000000000003
Info: NONBONDED TABLE R-SQUARED SPACING: 0.0625
Info: NONBONDED TABLE SIZE: 705 POINTS
TCL: Setting parameter alchLambda2 to 1.0
Info: NONBONDED TABLE R-SQUARED SPACING: 0.0625
Info: NONBONDED TABLE SIZE: 705 POINTS
TCL: Running for 1500000 steps
ETITLE: TS BOND ANGLE DIHED IMPRP ELECT VDW BOUNDARY MISC KINETIC TOTAL TEMP POTENTIAL TOTALAVG TEMPAVG PRESSURE GPRESSURE VOLUME PRESSAVG GPRESSAVG
ENERGY: 0 4.1124 8.6087 2.1945 0.0000 -10575.5317 1492.2721 0.0000 0.0000 1778.5588 -7289.7851 306.5108 -9068.3439 -7289.7851 306.5108 680.9060 753.6197 29969.6368 680.9060 753.6197
ENERGY: 300000 2.7751 5.3524 0.8712 0.0000 -10572.1084 1370.1458 0.0000 0.0000 1763.2984 -7429.6655 303.8809 -9192.9639 -7384.1591 299.8953 -452.8893 -338.0408 29874.7143 181.0909 259.2428
ENERGY: 600000 0.5763 5.6047 1.5507 0.0000 -10594.5390 1404.8712 0.0000 0.0000 1769.7453 -7412.1907 304.9919 -9181.9361 -7383.2009 300.4029 -191.1982 -167.9971 29875.3559 -83.5222 -9.6343
ENERGY: 900000 1.7765 11.9516 1.0722 0.0000 -10646.0181 1450.9272 0.0000 0.0000 1755.5191 -7424.7715 302.5402 -9180.2906 -7383.2313 301.3394 269.6199 386.6000 29745.8506 9.2935 90.2149
ENERGY: 1200000 4.5819 8.7286 1.1052 0.0000 -10504.3039 1382.7804 0.0000 0.0000 1760.3849 -7346.7228 303.3788 -9107.1077 -7386.9570 301.3946 -319.3279 -268.2440 29898.7937 28.0544 102.1183
ENERGY: 1500000 1.5845 10.8316 2.0777 0.0000 -10528.4163 1436.3139 0.0000 0.0000 1734.3998 -7343.2087 298.9006 -9077.6085 -7378.0346 301.4742 84.0167 137.6580 30421.7083 68.0544 140.0489
TCL: Exiting due to exit command.
