Info: SIMULATION PARAMETERS:
Info: TIMESTEP               2
Info: NUMBER OF STEPS        0
Info: STEPS PER CYCLE        10
Info: PERIODIC CELL BASIS 1  30.9896 0 0
Info: PERIODIC CELL BASIS 2  0 29.5086 0
Info: PERIODIC CELL BASIS 3  0 0 33.3387
Info: PERIODIC CELL CENTER   0 0 0
Info: WRAPPING WATERS AROUND PERIODIC BOUNDARIES ON OUTPUT.
Info: WRAPPING ALL CLUSTERS AROUND PERIODIC BOUNDARIES ON OUTPUT.
Info: FIRST LDB TIMESTEP     50
Info: LAST LDB TIMESTEP     -1
Info: HOM BACKGROUND SCALING 1
Info: PME BACKGROUND SCALING 1
Info: MIN ATOMS PER PATCH    40
Info: EMPTY PATCH LOAD       40 ATOMS
Info: VELOCITY FILE          mobley_5326154_equil.vel
Info: CENTER OF MASS MOVING INITIALLY? NO
Info: DIELECTRIC             1
Info: EXCLUDE                SCALED ONE-FOUR
Info: 1-4 ELECTROSTATICS SCALED BY 0.833333
Info: MODIFIED 1-4 VDW PARAMETERS WILL BE USED
Info: DCD FILENAME           mobley_5326154_prod.dcd
Info: DCD FREQUENCY          100000
Info: DCD FIRST STEP         100000
Info: DCD FILE WILL CONTAIN UNIT CELL DATA
Info: XST FILENAME           mobley_5326154_prod.xst
Info: XST FREQUENCY          100000
Info: NO VELOCITY DCD OUTPUT
Info: NO FORCE DCD OUTPUT
Info: OUTPUT FILENAME        mobley_5326154_prod
Info: BINARY OUTPUT FILES WILL BE USED
Info: RESTART FILENAME       mobley_5326154_prod.restart
Info: RESTART FREQUENCY      100000
Info: BINARY RESTART FILES WILL BE USED
Info: CUTOFF                 9
Info: PAIRLIST DISTANCE      11
Info: PAIRLIST SHRINK RATE   0.01
Info: PAIRLIST GROW RATE     0.01
Info: PAIRLIST TRIGGER       0.3
Info: PAIRLISTS PER CYCLE    2
Info: PAIRLISTS ENABLED
Info: MARGIN                 2
Info: HYDROGEN GROUP CUTOFF  2.5
Info: PATCH DIMENSION        15.5
Info: ENERGY OUTPUT STEPS    100000
Info: ENERGY EVALUATION STEPS    100000
Info: OUTPUT ENERGY PRECISION 4
Info: CROSSTERM ENERGY INCLUDED IN DIHEDRAL
Info: TIMING OUTPUT STEPS    1000000
Info: PRESSURE OUTPUT STEPS  100000
Info: ALCHEMICAL FEP ON
Info: FEP CURRENT LAMBDA VALUE     1
Info: FEP COMPARISON LAMBDA VALUE  0.95
Info: FEP INTRA-ALCHEMICAL NON-BONDED INTERACTIONS WILL BE RETAINED
Info: FEP INTRA-ALCHEMICAL BONDED INTERACTIONS WILL BE RETAINED
Info: FEP VDW SHIFTING COEFFICIENT 5
Info: FEP ELEC. ACTIVE FOR ANNIHILATED PARTICLES BETWEEN LAMBDA = 0 AND LAMBDA = 0.5
Info: FEP ELEC. ACTIVE FOR EXNIHILATED PARTICLES BETWEEN LAMBDA = 0.5 AND LAMBDA = 1
Info: FEP VDW ACTIVE FOR ANNIHILATED PARTICLES BETWEEN LAMBDA = 0 AND LAMBDA = 1
Info: FEP VDW ACTIVE FOR EXNIHILATED PARTICLES BETWEEN LAMBDA = 0 AND LAMBDA = 1
Info: FEP BOND ACTIVE FOR ANNIHILATED PARTICLES BETWEEN LAMBDA = 1 AND LAMBDA = 1
Info: FEP BOND ACTIVE FOR EXNIHILATED PARTICLES BETWEEN LAMBDA = 0 AND LAMBDA = 0
Info: LANGEVIN DYNAMICS ACTIVE
Info: LANGEVIN TEMPERATURE   300
Info: LANGEVIN USING BBK INTEGRATOR
Info: LANGEVIN DAMPING COEFFICIENT IS 1 INVERSE PS
Info: LANGEVIN DYNAMICS APPLIED TO HYDROGENS
Info: LANGEVIN PISTON PRESSURE CONTROL ACTIVE
Info:        TARGET PRESSURE IS 1.01325 BAR
Info:     OSCILLATION PERIOD IS 50 FS
Info:             DECAY TIME IS 25 FS
Info:     PISTON TEMPERATURE IS 300 K
Info:       PRESSURE CONTROL IS GROUP-BASED
Info:    INITIAL STRAIN RATE IS 0.00012915 0.00012915 0.00012915
Info:       CELL FLUCTUATION IS ISOTROPIC
Info: PARTICLE MESH EWALD (PME) ACTIVE
Info: PME TOLERANCE               1e-06
Info: PME EWALD COEFFICIENT       0.348832
Info: PME INTERPOLATION ORDER     4
Info: PME GRID DIMENSIONS         32 32 36
Info: PME MAXIMUM GRID SPACING    1
Info: PME CALCULATION WILL BE PERFORMED ON GPU
Info: FULL ELECTROSTATIC EVALUATION FREQUENCY      2
Info: USING VERLET I (r-RESPA) MTS SCHEME.
Info: C1 SPLITTING OF LONG RANGE ELECTROSTATICS
Info: PLACING ATOMS IN PATCHES BY HYDROGEN GROUPS
Info: RIGID BONDS TO HYDROGEN : ALL
Info:         ERROR TOLERANCE : 1e-08
Info:          MAX ITERATIONS : 100
Info: RIGID WATER USING SETTLE ALGORITHM
Info: RANDOM NUMBER SEED     1743786031
Info: USE HYDROGEN BONDS?    NO
Info: Using AMBER format force field!
Info: AMBER PARM FILE        mobley_5326154.prmtop
Info: COORDINATE PDB         mobley_5326154.pdb
Info: Exclusions will be read from PARM file!
Info: SCNB (VDW SCALING)     2
Info: USING ARITHMETIC MEAN TO COMBINE L-J SIGMA PARAMETERS
Info: BINARY COORDINATES     mobley_5326154_equil.coor
Info: SUMMARY OF PARAMETERS:
Info: 7 BONDS
Info: 7 ANGLES
Info:   7 HARMONIC
Info:   0 COSINE-BASED
Info: 4 DIHEDRAL
Info: 0 IMPROPER
Info: 0 CROSSTERM
Info: 0 VDW
Info: 28 VDW_PAIRS
Info: 0 NBTHOLE_PAIRS
Info: To read alchdata from file: mobley_5326154.pdb
Info: To read alchflag data from column: 5
Info: STRUCTURE SUMMARY:
Info: 2945 ATOMS
Info: 2945 BONDS
Info: 33 ANGLES
Info: 47 DIHEDRALS
Info: 0 IMPROPERS
Info: 0 CROSSTERMS
Info: 3015 EXCLUSIONS
Info: 2936 RIGID BONDS
Info: ALCH: 0 ATOMS TO DISAPPEAR IN FINAL STATE
Info: ALCH: 20 ATOMS TO APPEAR IN FINAL STATE
Info: 5899 DEGREES OF FREEDOM
Info: 984 HYDROGEN GROUPS
Info: 4 ATOMS IN LARGEST HYDROGEN GROUP
Info: 984 MIGRATION GROUPS
Info: 4 ATOMS IN LARGEST MIGRATION GROUP
Info: TOTAL MASS = 17686.8 amu
Info: TOTAL CHARGE = -0.00029996 e
Info: MASS DENSITY = 0.963376 g/cm^3
Info: ATOM DENSITY = 0.0965991 atoms/A^3
Info: ADDED 0 IMPLICIT EXCLUSIONS
Info: NONBONDED TABLE R-SQUARED SPACING: 0.0625
Info: NONBONDED TABLE SIZE: 705 POINTS
Info: REMOVING COM VELOCITY 0.0881946 0.18642 0.166391
Info: Use 3D box decompostion in PME FFT.
Info: Updated CUDA force table with 4096 elements.
Info: Updated CUDA LJ table with 7 x 7 elements.
Info: Found 19 unique exclusion lists needing 52 bytes
TCL: Running for 1500000 steps
ETITLE: TS BOND ANGLE DIHED IMPRP ELECT VDW BOUNDARY MISC KINETIC TOTAL TEMP POTENTIAL TOTALAVG TEMPAVG PRESSURE GPRESSURE VOLUME PRESSAVG GPRESSAVG
ENERGY: 0 3.6785 9.0432 5.1651 0.0000 -10655.3020 1455.8711 0.0000 0.0000 1740.9791 -7440.5651 297.0336 -9181.5441 -7440.5651 297.0336 21.4929 112.2254 30486.8328 21.4929 112.2254
ENERGY: 300000 2.3228 4.6794 7.0038 0.0000 -10693.2709 1501.5616 0.0000 0.0000 1735.0358 -7442.6675 296.0196 -9177.7033 -7450.2691 297.1629 580.2423 631.8675 30210.6169 -107.8409 -49.3775
ENERGY: 600000 3.4395 6.2173 6.4948 0.0000 -10769.9666 1515.6020 0.0000 0.0000 1752.0114 -7486.2014 298.9158 -9238.2129 -7468.6923 296.7604 736.5499 854.1790 30207.6174 -140.7207 -61.1704
ENERGY: 900000 1.4230 3.7800 3.8799 0.0000 -10714.4792 1437.6387 0.0000 0.0000 1775.8034 -7491.9543 302.9751 -9267.7577 -7469.1954 298.1393 -106.2372 9.6564 30270.3576 -105.7474 -20.2065
ENERGY: 1200000 6.5637 6.2338 5.0210 0.0000 -10635.6123 1321.7059 0.0000 0.0000 1779.1432 -7516.9447 303.5449 -9296.0879 -7479.4429 297.8018 -1323.0301 -1213.9966 30509.1063 -158.6755 -80.2332
ENERGY: 1500000 4.6681 3.2166 2.6020 0.0000 -10692.1080 1410.4364 0.0000 0.0000 1763.6624 -7507.5226 300.9036 -9271.1850 -7484.6671 298.1780 -256.2164 -179.0116 29821.0273 -189.4784 -106.0479
TCL: Running FEP window   2: Lambda1 0.95   Lambda2 0.8999999999999999 [dLambda -0.050000000000000044]
TCL: Setting parameter firsttimestep to 0
TCL: Setting parameter alchLambda to 0.95
Info: NONBONDED TABLE R-SQUARED SPACING: 0.0625
Info: NONBONDED TABLE SIZE: 705 POINTS
TCL: Setting parameter alchLambda2 to 0.8999999999999999
Info: NONBONDED TABLE R-SQUARED SPACING: 0.0625
Info: NONBONDED TABLE SIZE: 705 POINTS
TCL: Running for 1500000 steps
ETITLE: TS BOND ANGLE DIHED IMPRP ELECT VDW BOUNDARY MISC KINETIC TOTAL TEMP POTENTIAL TOTALAVG TEMPAVG PRESSURE GPRESSURE VOLUME PRESSAVG GPRESSAVG
ENERGY: 0 4.6681 3.2166 2.6020 0.0000 -10690.2292 1409.6218 0.0000 0.0000 1762.7758 -7507.3451 300.7524 -9270.1209 -7507.3451 300.7524 -292.4431 -199.5827 29821.0273 -292.4431 -199.5827
ENERGY: 300000 2.4316 8.6888 1.0188 0.0000 -10775.3379 1498.9654 0.0000 0.0000 1761.4136 -7502.8196 300.5200 -9264.2333 -7476.2594 300.8645 477.6258 607.5617 29867.2809 11.1629 96.5244
ENERGY: 600000 4.5555 6.1854 3.4727 0.0000 -10760.6217 1509.4733 0.0000 0.0000 1787.9453 -7448.9894 305.0466 -9236.9347 -7458.5017 302.2558 571.5808 581.5567 30295.7977 -15.0569 58.1815
ENERGY: 900000 1.8417 8.4294 5.0796 0.0000 -10757.3203 1492.0927 0.0000 0.0000 1755.7804 -7494.0965 299.5589 -9249.8769 -7463.3478 301.3252 420.0036 464.7486 30003.8223 -13.9904 56.3250
ENERGY: 1200000 3.6834 6.8067 3.7947 0.0000 -10862.8419 1562.4178 0.0000 0.0000 1772.6921 -7513.4473 302.4442 -9286.1393 -7471.9558 300.8845 832.0365 866.7442 30335.9218 -47.6391 15.5079
ENERGY: 1500000 2.1270 6.1200 2.1748 0.0000 -10638.0543 1381.2588 0.0000 0.0000 1788.6892 -7457.6845 305.1735 -9246.3737 -7459.5275 302.5171 -415.3060 -335.7727 30202.2053 -123.2969 -55.1345
TCL: Running FEP window   3: Lambda1 0.8999999999999999 Lambda2 0.8499999999999999 [dLambda -0.050000000000000044]
TCL: Setting parameter firsttimestep to 0
TCL: Setting parameter alchLambda to 0.8999999999999999
Info: NONBONDED TABLE R-SQUARED SPACING: 0.0625
Info: NONBONDED TABLE SIZE: 705 POINTS
TCL: Setting parameter alchLambda2 to 0.8499999999999999
Info: NONBONDED TABLE R-SQUARED SPACING: 0.0625
Info: NONBONDED TABLE SIZE: 705 POINTS
TCL: Running for 1500000 steps
ETITLE: TS BOND ANGLE DIHED IMPRP ELECT VDW BOUNDARY MISC KINETIC TOTAL TEMP POTENTIAL TOTALAVG TEMPAVG PRESSURE GPRESSURE VOLUME PRESSAVG GPRESSAVG
ENERGY: 0 2.1270 6.1200 2.1748 0.0000 -10636.7767 1382.0112 0.0000 0.0000 1787.8202 -7456.5235 305.0253 -9244.3437 -7456.5235 305.0253 -424.9212 -336.4649 30202.2053 -424.9212 -336.4649
ENERGY: 300000 4.7708 5.7737 3.3733 0.0000 -10654.0700 1399.1930 0.0000 0.0000 1707.0446 -7533.9145 291.2439 -9240.9592 -7502.9707 297.5951 -529.5986 -360.0103 30205.0194 -242.4584 -135.7047
ENERGY: 600000 7.9617 6.9421 2.8333 0.0000 -10601.8529 1390.6050 0.0000 0.0000 1770.4342 -7423.0767 302.0590 -9193.5109 -7489.6800 298.4806 -447.3991 -379.2590 30807.7700 -296.0550 -200.6250
ENERGY: 900000 2.9868 6.6927 1.6252 0.0000 -10633.3239 1399.6500 0.0000 0.0000 1776.0915 -7446.2777 303.0242 -9222.3691 -7486.9399 298.8477 -79.9168 4.4197 30089.6808 -303.8485 -212.9418
ENERGY: 1200000 5.9022 3.7236 5.9542 0.0000 -10719.1129 1415.3242 0.0000 0.0000 1710.6115 -7577.5972 291.8525 -9288.2088 -7493.2035 298.0767 -419.8752 -299.3295 30113.0087 -272.8422 -181.9200
ENERGY: 1500000 2.9359 5.0016 5.5137 0.0000 -10631.0335 1377.4293 0.0000 0.0000 1765.0195 -7475.1335 301.1352 -9240.1530 -7488.7909 298.3483 -390.7450 -311.3817 30011.0000 -214.5135 -122.1724
TCL: Running FEP window   4: Lambda1 0.8499999999999999 Lambda2 0.7999999999999998 [dLambda -0.050000000000000044]
TCL: Setting parameter firsttimestep to 0
TCL: Setting parameter alchLambda to 0.8499999999999999
Info: NONBONDED TABLE R-SQUARED SPACING: 0.0625
Info: NONBONDED TABLE SIZE: 705 POINTS
TCL: Setting parameter alchLambda2 to 0.7999999999999998
Info: NONBONDED TABLE R-SQUARED SPACING: 0.0625
Info: NONBONDED TABLE SIZE: 705 POINTS
TCL: Running for 1500000 steps
ETITLE: TS BOND ANGLE DIHED IMPRP ELECT VDW BOUNDARY MISC KINETIC TOTAL TEMP POTENTIAL TOTALAVG TEMPAVG PRESSURE GPRESSURE VOLUME PRESSAVG GPRESSAVG
ENERGY: 0 2.9359 5.0016 5.5137 0.0000 -10629.6391 1376.9086 0.0000 0.0000 1764.1235 -7475.1557 300.9823 -9239.2793 -7475.1557 300.9823 -403.4770 -329.7786 30011.0000 -403.4770 -329.7786
ENERGY: 300000 2.5149 4.4700 2.5183 0.0000 -10477.6195 1300.3985 0.0000 0.0000 1742.2488 -7425.4691 297.2502 -9167.7178 -7450.1825 298.3724 -1062.5106 -1016.6097 30450.1942 -400.0064 -348.6182
ENERGY: 600000 3.4453 8.2081 2.8793 0.0000 -10647.0411 1408.6457 0.0000 0.0000 1781.7097 -7442.1530 303.9827 -9223.8627 -7455.9003 299.3613 -322.4697 -277.9727 30658.5587 -460.0622 -412.3121
ENERGY: 900000 3.2041 9.1006 3.9403 0.0000 -10675.4806 1466.0107 0.0000 0.0000 1802.6858 -7390.5391 307.5615 -9193.2249 -7442.1362 300.2839 56.7890 191.6089 30265.1643 -332.9552 -269.4303
ENERGY: 1200000 3.5721 6.7542 6.1581 0.0000 -10702.4923 1473.6360 0.0000 0.0000 1690.7357 -7521.6361 288.4614 -9212.3718 -7452.1812 298.9425 89.1353 213.4051 30116.1864 -302.4258 -230.4867
ENERGY: 1500000 3.5885 7.4614 5.6622 0.0000 -10823.3196 1494.6218 0.0000 0.0000 1766.5806 -7545.4051 301.4015 -9311.9857 -7459.1938 299.2276 231.0864 276.9007 30314.0399 -287.0649 -216.6741
TCL: Running FEP window   5: Lambda1 0.7999999999999998 Lambda2 0.7499999999999998 [dLambda -0.050000000000000044]
TCL: Setting parameter firsttimestep to 0
TCL: Setting parameter alchLambda to 0.7999999999999998
Info: NONBONDED TABLE R-SQUARED SPACING: 0.0625
Info: NONBONDED TABLE SIZE: 705 POINTS
TCL: Setting parameter alchLambda2 to 0.7499999999999998
Info: NONBONDED TABLE R-SQUARED SPACING: 0.0625
Info: NONBONDED TABLE SIZE: 705 POINTS
TCL: Running for 1500000 steps
ETITLE: TS BOND ANGLE DIHED IMPRP ELECT VDW BOUNDARY MISC KINETIC TOTAL TEMP POTENTIAL TOTALAVG TEMPAVG PRESSURE GPRESSURE VOLUME PRESSAVG GPRESSAVG
ENERGY: 0 3.5885 7.4614 5.6622 0.0000 -10822.4785 1494.7210 0.0000 0.0000 1765.7198 -7545.3256 301.2547 -9311.0454 -7545.3256 301.2547 190.1535 265.5476 30314.0399 190.1535 265.5476
ENERGY: 300000 3.9897 8.6227 9.5670 0.0000 -10575.6656 1360.5400 0.0000 0.0000 1773.8857 -7419.0606 302.6479 -9192.9462 -7473.4828 299.9308 -790.4346 -740.1538 30503.9917 -277.4139 -220.1416
ENERGY: 600000 5.8140 5.1637 2.0108 0.0000 -10790.7739 1477.2095 0.0000 0.0000 1768.9251 -7531.6508 301.8015 -9300.5759 -7498.9849 300.2372 535.8394 573.7092 29761.0108 -33.9674 12.2904
ENERGY: 900000 6.8451 5.3657 4.1815 0.0000 -10744.1675 1450.3959 0.0000 0.0000 1748.0445 -7529.3347 298.2390 -9277.3793 -7490.6551 300.8434 -162.3003 -90.2028 30368.8218 -53.5156 -6.2632
ENERGY: 1200000 2.2494 5.3022 4.7885 0.0000 -10782.9278 1485.7535 0.0000 0.0000 1742.0623 -7542.7720 297.2184 -9284.8343 -7490.6954 299.5676 472.7434 485.3987 29953.8251 -7.9141 36.9410
ENERGY: 1500000 5.0152 5.6849 6.8944 0.0000 -10580.2404 1368.3276 0.0000 0.0000 1761.5909 -7432.7274 300.5502 -9194.3183 -7487.6507 298.7897 -745.3951 -661.9883 30559.0411 -103.9573 -55.2999
TCL: Running FEP window   6: Lambda1 0.7499999999999998 Lambda2 0.6999999999999997 [dLambda -0.050000000000000044]
TCL: Setting parameter firsttimestep to 0
TCL: Setting parameter alchLambda to 0.7499999999999998
Info: NONBONDED TABLE R-SQUARED SPACING: 0.0625
Info: NONBONDED TABLE SIZE: 705 POINTS
TCL: Setting parameter alchLambda2 to 0.6999999999999997
Info: NONBONDED TABLE R-SQUARED SPACING: 0.0625
Info: NONBONDED TABLE SIZE: 705 POINTS
TCL: Running for 1500000 steps
ETITLE: TS BOND ANGLE DIHED IMPRP ELECT VDW BOUNDARY MISC KINETIC TOTAL TEMP POTENTIAL TOTALAVG TEMPAVG PRESSURE GPRESSURE VOLUME PRESSAVG GPRESSAVG
ENERGY: 0 5.0152 5.6849 6.8944 0.0000 -10579.4787 1368.9018 0.0000 0.0000 1760.7432 -7432.2392 300.4056 -9192.9825 -7432.2392 300.4056 -755.0540 -667.9673 30559.0411 -755.0540 -667.9673
ENERGY: 300000 2.2193 5.8713 6.9138 0.0000 -10605.6251 1381.2899 0.0000 0.0000 1747.2443 -7462.0866 298.1025 -9209.3308 -7414.3846 301.1043 -374.0426 -301.0957 30502.7483 -230.1006 -178.0517
ENERGY: 600000 3.0221 4.2211 5.9750 0.0000 -10810.1248 1482.7515 0.0000 0.0000 1736.8599 -7577.2953 296.3308 -9314.1551 -7454.2508 298.9719 139.3455 176.2129 30116.4044 -178.4985 -115.6688
ENERGY: 900000 3.5016 5.3125 8.8140 0.0000 -10478.9581 1286.7402 0.0000 0.0000 1742.4415 -7432.1482 297.2831 -9174.5898 -7454.1677 298.9462 -1042.5231 -975.4551 30589.1796 -299.6760 -241.4105
ENERGY: 1200000 3.5688 6.9297 0.8696 0.0000 -10619.1472 1430.7542 0.0000 0.0000 1672.9147 -7504.1103 285.4209 -9177.0250 -7473.6192 297.2313 199.8899 221.4069 30091.1546 -188.6173 -132.1096
ENERGY: 1500000 2.4711 6.4721 3.7948 0.0000 -10698.6423 1417.5752 0.0000 0.0000 1738.4541 -7529.8750 296.6028 -9268.3290 -7478.3213 297.7496 -218.3582 -196.5598 30195.1774 -229.0815 -173.4915
TCL: Running FEP window   7: Lambda1 0.6999999999999997 Lambda2 0.6499999999999997 [dLambda -0.050000000000000044]
TCL: Setting parameter firsttimestep to 0
TCL: Setting parameter alchLambda to 0.6999999999999997
Info: NONBONDED TABLE R-SQUARED SPACING: 0.0625
Info: NONBONDED TABLE SIZE: 705 POINTS
TCL: Setting parameter alchLambda2 to 0.6499999999999997
Info: NONBONDED TABLE R-SQUARED SPACING: 0.0625
Info: NONBONDED TABLE SIZE: 705 POINTS
TCL: Running for 1500000 steps
ETITLE: TS BOND ANGLE DIHED IMPRP ELECT VDW BOUNDARY MISC KINETIC TOTAL TEMP POTENTIAL TOTALAVG TEMPAVG PRESSURE GPRESSURE VOLUME PRESSAVG GPRESSAVG
ENERGY: 0 2.4711 6.4721 3.7948 0.0000 -10697.6260 1417.8062 0.0000 0.0000 1737.6094 -7529.4725 296.4587 -9267.0819 -7529.4725 296.4587 -282.4370 -203.1254 30195.1774 -282.4370 -203.1254
ENERGY: 300000 4.2960 4.4722 10.0647 0.0000 -10636.3818 1426.7623 0.0000 0.0000 1680.2483 -7510.5382 286.6721 -9190.7865 -7480.4836 297.5112 55.9657 176.7878 29685.8449 -87.6498 11.2642
ENERGY: 600000 1.5554 6.2318 5.7201 0.0000 -10768.1893 1543.2907 0.0000 0.0000 1746.7846 -7464.6067 298.0241 -9211.3913 -7462.1206 297.8173 930.3708 892.0320 30061.4871 196.8029 253.0437
ENERGY: 900000 5.8593 7.3072 4.8341 0.0000 -10638.7529 1445.3892 0.0000 0.0000 1709.6890 -7465.6740 291.6951 -9175.3631 -7475.2515 296.8556 -128.8996 -79.3143 30465.4646 101.1213 154.5314
ENERGY: 1200000 1.4218 3.6159 2.8817 0.0000 -10661.4693 1433.3738 0.0000 0.0000 1787.0428 -7433.1332 304.8926 -9220.1760 -7477.5165 297.8244 108.6571 192.0427 30081.0758 102.3184 159.7913
ENERGY: 1500000 5.7117 5.2446 4.2919 0.0000 -10543.3560 1356.1216 0.0000 0.0000 1781.5461 -7390.4401 303.9548 -9171.9862 -7460.1282 299.2056 -694.2493 -634.3573 30748.7855 43.9587 100.4967
TCL: Running FEP window   8: Lambda1 0.6499999999999997 Lambda2 0.5999999999999996 [dLambda -0.050000000000000044]
TCL: Setting parameter firsttimestep to 0
TCL: Setting parameter alchLambda to 0.6499999999999997
Info: NONBONDED TABLE R-SQUARED SPACING: 0.0625
Info: NONBONDED TABLE SIZE: 705 POINTS
TCL: Setting parameter alchLambda2 to 0.5999999999999996
Info: NONBONDED TABLE R-SQUARED SPACING: 0.0625
Info: NONBONDED TABLE SIZE: 705 POINTS
TCL: Running for 1500000 steps
ETITLE: TS BOND ANGLE DIHED IMPRP ELECT VDW BOUNDARY MISC KINETIC TOTAL TEMP POTENTIAL TOTALAVG TEMPAVG PRESSURE GPRESSURE VOLUME PRESSAVG GPRESSAVG
ENERGY: 0 5.7117 5.2446 4.2919 0.0000 -10543.0298 1356.3190 0.0000 0.0000 1780.5984 -7390.8643 303.7931 -9171.4626 -7390.8643 303.7931 -726.6644 -640.9208 30748.7855 -726.6644 -640.9208
ENERGY: 300000 1.7909 8.2625 12.9439 0.0000 -10567.4566 1330.8437 0.0000 0.0000 1773.0419 -7440.5737 302.5039 -9213.6156 -7411.1216 302.5687 -900.6867 -833.6533 30399.1719 -299.8419 -235.6103
ENERGY: 600000 2.0543 7.2257 2.8464 0.0000 -10573.7828 1409.4747 0.0000 0.0000 1706.3859 -7445.7958 291.1315 -9152.1817 -7409.9420 300.8969 -257.1494 -188.1082 30386.6962 -249.5888 -190.7093
ENERGY: 900000 1.4542 7.4060 5.2049 0.0000 -10513.3757 1388.6281 0.0000 0.0000 1762.8150 -7347.8674 300.7591 -9110.6825 -7402.7859 301.7230 177.9139 233.1085 30290.1605 -162.0964 -95.7755
ENERGY: 1200000 3.5565 7.2333 5.1163 0.0000 -10448.7786 1309.2703 0.0000 0.0000 1769.2084 -7354.3939 301.8499 -9123.6023 -7404.5795 301.5793 -896.5965 -804.0693 30798.2557 -166.7693 -102.3615
ENERGY: 1500000 1.8716 8.4045 7.5929 0.0000 -10736.8249 1443.5304 0.0000 0.0000 1764.1728 -7511.2527 300.9907 -9275.4255 -7417.6408 301.5496 -3.5763 -28.6778 29989.9481 -148.8939 -87.9356
TCL: Running FEP window   9: Lambda1 0.5999999999999996 Lambda2 0.5499999999999996 [dLambda -0.050000000000000044]
TCL: Setting parameter firsttimestep to 0
TCL: Setting parameter alchLambda to 0.5999999999999996
Info: NONBONDED TABLE R-SQUARED SPACING: 0.0625
Info: NONBONDED TABLE SIZE: 705 POINTS
TCL: Setting parameter alchLambda2 to 0.5499999999999996
Info: NONBONDED TABLE R-SQUARED SPACING: 0.0625
Info: NONBONDED TABLE SIZE: 705 POINTS
TCL: Running for 1500000 steps
ETITLE: TS BOND ANGLE DIHED IMPRP ELECT VDW BOUNDARY MISC KINETIC TOTAL TEMP POTENTIAL TOTALAVG TEMPAVG PRESSURE GPRESSURE VOLUME PRESSAVG GPRESSAVG
ENERGY: 0 1.8716 8.4045 7.5929 0.0000 -10736.2860 1443.6160 0.0000 0.0000 1763.3257 -7511.4753 300.8462 -9274.8010 -7511.4753 300.8462 -113.9532 -36.5855 29989.9481 -113.9532 -36.5855
ENERGY: 300000 3.3456 6.3215 2.0916 0.0000 -10726.4267 1477.1700 0.0000 0.0000 1768.0625 -7469.4355 301.6544 -9237.4980 -7433.5100 303.2706 433.5186 478.9691 30140.8419 -186.3941 -123.9936
ENERGY: 600000 3.0663 6.8278 7.3093 0.0000 -10686.4687 1446.8885 0.0000 0.0000 1785.2781 -7437.0987 304.5916 -9222.3768 -7440.9569 303.3470 270.3777 409.3038 29801.1516 -56.7532 16.5636
ENERGY: 900000 1.2019 5.3395 6.8783 0.0000 -10551.0835 1412.7331 0.0000 0.0000 1807.2250 -7317.7057 308.3360 -9124.9307 -7419.3403 303.7480 469.4486 513.9011 29980.8948 -28.3222 47.8817
ENERGY: 1200000 3.1232 2.6586 6.6527 0.0000 -10535.1377 1283.1755 0.0000 0.0000 1744.4470 -7495.0807 297.6252 -9239.5277 -7424.4257 302.4816 -1359.2667 -1240.2410 30178.7740 -118.5172 -48.1382
ENERGY: 1500000 1.4709 7.3431 3.3765 0.0000 -10698.9801 1460.7617 0.0000 0.0000 1798.0274 -7428.0006 306.7668 -9226.0280 -7423.4670 302.9687 133.9749 194.5394 30218.9507 -41.8649 30.3130
TCL: Running FEP window  10: Lambda1 0.5499999999999996 Lambda2 0.4999999999999996 [dLambda -0.04999999999999999]
TCL: Setting parameter firsttimestep to 0
TCL: Setting parameter alchLambda to 0.5499999999999996
Info: NONBONDED TABLE R-SQUARED SPACING: 0.0625
Info: NONBONDED TABLE SIZE: 705 POINTS
TCL: Setting parameter alchLambda2 to 0.4999999999999996
Info: NONBONDED TABLE R-SQUARED SPACING: 0.0625
Info: NONBONDED TABLE SIZE: 705 POINTS
TCL: Running for 1500000 steps
ETITLE: TS BOND ANGLE DIHED IMPRP ELECT VDW BOUNDARY MISC KINETIC TOTAL TEMP POTENTIAL TOTALAVG TEMPAVG PRESSURE GPRESSURE VOLUME PRESSAVG GPRESSAVG
ENERGY: 0 1.4709 7.3431 3.3765 0.0000 -10698.3382 1460.8861 0.0000 0.0000 1797.1820 -7428.0798 306.6225 -9225.2618 -7428.0798 306.6225 113.6097 187.8053 30218.9507 113.6097 187.8053
ENERGY: 300000 1.9202 9.2610 5.8371 0.0000 -10611.2679 1428.1963 0.0000 0.0000 1723.9790 -7442.0743 294.1331 -9166.0533 -7445.5795 301.7548 -180.0710 -179.1279 30680.2000 120.0225 163.2379
ENERGY: 600000 2.8911 8.4663 3.9148 0.0000 -10708.6110 1453.5411 0.0000 0.0000 1733.9926 -7505.8051 295.8416 -9239.7977 -7442.9590 302.0371 587.2352 618.6883 29423.6997 72.3894 117.0731
ENERGY: 900000 4.7271 6.7769 3.5801 0.0000 -10577.4846 1357.9904 0.0000 0.0000 1764.2042 -7440.2057 300.9961 -9204.4100 -7432.0839 301.8412 -258.9070 -201.0944 30091.1357 103.2351 145.9632
ENERGY: 1200000 1.0827 6.4085 2.6322 0.0000 -10575.4709 1358.8994 0.0000 0.0000 1779.6458 -7426.8023 303.6306 -9206.4481 -7434.3629 301.6217 -824.1952 -827.0835 30897.3725 35.3923 79.0426
ENERGY: 1500000 0.9611 7.0360 5.7079 0.0000 -10653.3978 1387.6095 0.0000 0.0000 1773.1132 -7478.9701 302.5161 -9252.0834 -7440.9784 301.3424 -259.5510 -238.7708 30104.7497 37.3329 81.2670
TCL: Running FEP window  11: Lambda1 0.4999999999999996 Lambda2 0.4499999999999996 [dLambda -0.04999999999999999]
TCL: Setting parameter firsttimestep to 0
TCL: Setting parameter alchLambda to 0.4999999999999996
Info: NONBONDED TABLE R-SQUARED SPACING: 0.0625
Info: NONBONDED TABLE SIZE: 705 POINTS
TCL: Setting parameter alchLambda2 to 0.4499999999999996
Info: NONBONDED TABLE R-SQUARED SPACING: 0.0625
Info: NONBONDED TABLE SIZE: 705 POINTS
TCL: Running for 1500000 steps
ETITLE: TS BOND ANGLE DIHED IMPRP ELECT VDW BOUNDARY MISC KINETIC TOTAL TEMP POTENTIAL TOTALAVG TEMPAVG PRESSURE GPRESSURE VOLUME PRESSAVG GPRESSAVG
ENERGY: 0 0.9611 7.0359 5.7079 0.0000 -10652.7243 1387.8520 0.0000 0.0000 1772.2247 -7478.9426 302.3645 -9251.1673 -7478.9426 302.3645 -320.1592 -242.3441 30104.7497 -320.1592 -242.3441
ENERGY: 300000 4.4748 7.3163 2.0493 0.0000 -10588.6205 1405.9294 0.0000 0.0000 1755.9538 -7412.8970 299.5885 -9168.8508 -7434.4786 300.3954 -344.5211 -253.1137 30347.1283 -8.0521 64.1950
ENERGY: 600000 3.3377 5.7624 7.9085 0.0000 -10436.7250 1353.9269 0.0000 0.0000 1758.0125 -7307.7770 299.9397 -9065.7895 -7424.9225 299.9287 -223.9921 -100.6153 30481.9721 -138.4491 -67.8591
ENERGY: 900000 2.7898 6.1998 3.5407 0.0000 -10643.5273 1400.2024 0.0000 0.0000 1731.2894 -7499.5052 295.3804 -9230.7946 -7431.2366 300.7744 -182.7316 -143.0010 30127.6497 -162.8971 -106.2556
ENERGY: 1200000 6.9804 9.4620 6.7126 0.0000 -10623.0758 1394.5664 0.0000 0.0000 1759.8437 -7445.5108 300.2521 -9205.3544 -7438.9753 301.1013 -670.7785 -574.5370 30603.8694 -161.2635 -97.2289
ENERGY: 1500000 1.7327 4.8288 9.7783 0.0000 -10729.8728 1457.9362 0.0000 0.0000 1748.7793 -7506.8174 298.3644 -9255.5967 -7446.4165 300.8259 -46.2487 62.3945 30070.2530 -139.2554 -81.0941
TCL: Running FEP window  12: Lambda1 0.4499999999999996 Lambda2 0.39999999999999963 [dLambda -0.04999999999999999]
TCL: Setting parameter firsttimestep to 0
TCL: Setting parameter alchLambda to 0.4499999999999996
Info: NONBONDED TABLE R-SQUARED SPACING: 0.0625
Info: NONBONDED TABLE SIZE: 705 POINTS
TCL: Setting parameter alchLambda2 to 0.39999999999999963
Info: NONBONDED TABLE R-SQUARED SPACING: 0.0625
Info: NONBONDED TABLE SIZE: 705 POINTS
TCL: Running for 1500000 steps
ETITLE: TS BOND ANGLE DIHED IMPRP ELECT VDW BOUNDARY MISC KINETIC TOTAL TEMP POTENTIAL TOTALAVG TEMPAVG PRESSURE GPRESSURE VOLUME PRESSAVG GPRESSAVG
ENERGY: 0 1.7327 4.8288 9.7784 0.0000 -10729.8733 1457.9839 0.0000 0.0000 1747.8660 -7507.6836 298.2086 -9255.5495 -7507.6836 298.2086 -18.6289 54.1759 30070.2530 -18.6289 54.1759
ENERGY: 300000 2.5847 6.1528 3.7550 0.0000 -10685.3641 1454.5827 0.0000 0.0000 1768.4477 -7449.8412 301.7201 -9218.2889 -7461.2394 301.4633 93.3531 129.3038 30090.2776 49.8502 129.4274
ENERGY: 600000 5.2793 5.0223 11.1140 0.0000 -10653.2088 1414.0533 0.0000 0.0000 1767.8939 -7449.8459 301.6256 -9217.7398 -7442.7596 302.3026 -510.2924 -374.1592 30257.7557 -58.6577 22.8749
ENERGY: 900000 3.3409 6.1680 2.8441 0.0000 -10802.1928 1517.9608 0.0000 0.0000 1792.4707 -7479.4084 305.8187 -9271.8790 -7442.8591 302.5920 649.8223 671.3502 29824.0582 101.3961 168.5480
ENERGY: 1200000 2.1293 7.1411 5.1742 0.0000 -10841.0356 1574.3315 0.0000 0.0000 1793.2916 -7458.9679 305.9588 -9252.2595 -7441.0564 302.5851 1402.1547 1427.3798 29645.8789 244.4255 311.2749
ENERGY: 1500000 4.1251 6.5485 5.9281 0.0000 -10637.3609 1381.1036 0.0000 0.0000 1788.9897 -7450.6659 305.2248 -9239.6556 -7443.1754 301.5759 -720.9740 -641.3549 30330.9114 79.7269 141.9237
TCL: Running FEP window  13: Lambda1 0.39999999999999963 Lambda2 0.34999999999999964 [dLambda -0.04999999999999999]
TCL: Setting parameter firsttimestep to 0
TCL: Setting parameter alchLambda to 0.39999999999999963
Info: NONBONDED TABLE R-SQUARED SPACING: 0.0625
Info: NONBONDED TABLE SIZE: 705 POINTS
TCL: Setting parameter alchLambda2 to 0.34999999999999964
Info: NONBONDED TABLE R-SQUARED SPACING: 0.0625
Info: NONBONDED TABLE SIZE: 705 POINTS
TCL: Running for 1500000 steps
ETITLE: TS BOND ANGLE DIHED IMPRP ELECT VDW BOUNDARY MISC KINETIC TOTAL TEMP POTENTIAL TOTALAVG TEMPAVG PRESSURE GPRESSURE VOLUME PRESSAVG GPRESSAVG
ENERGY: 0 4.1251 6.5485 5.9281 0.0000 -10637.3614 1381.1877 0.0000 0.0000 1788.1222 -7451.4498 305.0768 -9239.5719 -7451.4498 305.0768 -714.9558 -648.1560 30330.9114 -714.9558 -648.1560
ENERGY: 300000 6.0873 6.4735 8.8263 0.0000 -10679.1772 1406.1456 0.0000 0.0000 1761.2211 -7490.4233 300.4871 -9251.6444 -7457.2927 302.2823 -380.6801 -357.4080 30147.7155 -286.5131 -209.4629
ENERGY: 600000 1.4595 5.1397 4.5284 0.0000 -10745.1932 1521.3942 0.0000 0.0000 1773.1519 -7439.5195 302.5227 -9212.6714 -7446.1900 301.1593 616.3298 652.3219 30141.4207 -297.9822 -236.0700
ENERGY: 900000 5.5881 7.7339 5.3424 0.0000 -10697.9415 1476.8214 0.0000 0.0000 1770.5589 -7431.8969 302.0803 -9202.4558 -7444.9856 301.5731 809.1412 872.3246 29584.5391 -245.9588 -175.5190
ENERGY: 1200000 6.6012 7.9525 2.8383 0.0000 -10758.4658 1483.0724 0.0000 0.0000 1773.5590 -7484.4424 302.5921 -9258.0015 -7447.9362 301.2454 253.7712 235.7130 29983.4598 -227.1919 -169.0174
ENERGY: 1500000 3.6155 9.2467 1.6358 0.0000 -10518.3101 1388.8521 0.0000 0.0000 1759.2246 -7355.7353 300.1465 -9114.9599 -7447.3504 300.4919 -256.2478 -185.8450 30457.8823 -278.0113 -221.3461
TCL: Running FEP window  14: Lambda1 0.34999999999999964 Lambda2 0.29999999999999966 [dLambda -0.04999999999999999]
TCL: Setting parameter firsttimestep to 0
TCL: Setting parameter alchLambda to 0.34999999999999964
Info: NONBONDED TABLE R-SQUARED SPACING: 0.0625
Info: NONBONDED TABLE SIZE: 705 POINTS
TCL: Setting parameter alchLambda2 to 0.29999999999999966
Info: NONBONDED TABLE R-SQUARED SPACING: 0.0625
Info: NONBONDED TABLE SIZE: 705 POINTS
TCL: Running for 1500000 steps
ETITLE: TS BOND ANGLE DIHED IMPRP ELECT VDW BOUNDARY MISC KINETIC TOTAL TEMP POTENTIAL TOTALAVG TEMPAVG PRESSURE GPRESSURE VOLUME PRESSAVG GPRESSAVG
ENERGY: 0 3.6155 9.2467 1.6358 0.0000 -10518.3104 1389.3661 0.0000 0.0000 1758.3353 -7356.1110 299.9948 -9114.4463 -7356.1110 299.9948 -282.8185 -185.1174 30457.8823 -282.8185 -185.1174
ENERGY: 300000 2.0755 7.8097 6.8445 0.0000 -10701.1680 1451.7449 0.0000 0.0000 1736.9714 -7495.7220 296.3498 -9232.6934 -7452.8679 300.6011 -133.3053 -66.5629 30534.8850 -115.8988 -48.8010
ENERGY: 600000 3.7591 5.7119 3.9990 0.0000 -10561.6191 1341.6082 0.0000 0.0000 1708.6220 -7497.9188 291.5130 -9206.5409 -7440.9254 301.2843 -863.0205 -822.5716 30644.7551 -109.9634 -51.4251
ENERGY: 900000 3.6185 13.0063 2.1147 0.0000 -10748.9128 1498.6468 0.0000 0.0000 1765.6064 -7465.9199 301.2353 -9231.5264 -7438.7262 302.1949 359.8082 419.4057 30187.7137 -56.0426 4.1166
ENERGY: 1200000 5.3805 9.1732 5.0125 0.0000 -10472.2137 1318.8598 0.0000 0.0000 1775.5893 -7358.1984 302.9385 -9133.7877 -7431.3587 302.6582 -862.0192 -742.7286 30423.4784 -15.7365 54.1458
ENERGY: 1500000 2.3485 5.8384 8.9564 0.0000 -10754.8272 1527.5486 0.0000 0.0000 1812.3799 -7397.7554 309.2155 -9210.1354 -7431.2053 302.0181 813.6082 855.3997 30219.9695 51.3410 117.7395
TCL: Running FEP window  15: Lambda1 0.29999999999999966 Lambda2 0.24999999999999967 [dLambda -0.04999999999999999]
TCL: Setting parameter firsttimestep to 0
TCL: Setting parameter alchLambda to 0.29999999999999966
Info: NONBONDED TABLE R-SQUARED SPACING: 0.0625
Info: NONBONDED TABLE SIZE: 705 POINTS
TCL: Setting parameter alchLambda2 to 0.24999999999999967
Info: NONBONDED TABLE R-SQUARED SPACING: 0.0625
Info: NONBONDED TABLE SIZE: 705 POINTS
TCL: Running for 1500000 steps
ETITLE: TS BOND ANGLE DIHED IMPRP ELECT VDW BOUNDARY MISC KINETIC TOTAL TEMP POTENTIAL TOTALAVG TEMPAVG PRESSURE GPRESSURE VOLUME PRESSAVG GPRESSAVG
ENERGY: 0 2.3485 5.8384 8.9564 0.0000 -10754.8277 1527.7999 0.0000 0.0000 1811.5192 -7398.3655 309.0686 -9209.8847 -7398.3655 309.0686 783.2202 850.7241 30219.9695 783.2202 850.7241
ENERGY: 300000 2.2036 4.0311 9.6397 0.0000 -10583.1903 1368.5062 0.0000 0.0000 1757.5065 -7441.3032 299.8534 -9198.8098 -7443.3898 301.4142 -461.2512 -365.9751 30112.9150 92.0971 191.8780
ENERGY: 600000 4.4706 7.4409 1.8768 0.0000 -10746.9063 1487.5783 0.0000 0.0000 1775.4114 -7470.1283 302.9082 -9245.5396 -7455.1645 301.2382 192.2484 295.2553 29778.9996 42.9408 126.2303
ENERGY: 900000 1.8619 6.4263 6.9558 0.0000 -10592.6345 1451.8867 0.0000 0.0000 1765.8875 -7359.6162 301.2833 -9125.5037 -7454.5150 300.0987 346.6164 447.3644 30347.1761 -30.4649 37.1263
ENERGY: 1200000 5.5459 5.2688 3.3804 0.0000 -10464.3623 1305.3100 0.0000 0.0000 1814.9888 -7329.8684 309.6606 -9144.8572 -7451.4031 300.8698 -801.8385 -891.6108 30628.9873 -144.8956 -93.3634
ENERGY: 1500000 2.8661 4.5930 11.1715 0.0000 -10640.8670 1427.0749 0.0000 0.0000 1766.5949 -7428.5665 301.4040 -9195.1615 -7450.0904 300.3508 -23.9164 22.9366 30070.5284 -137.8824 -84.5424
TCL: Running FEP window  16: Lambda1 0.24999999999999967 Lambda2 0.19999999999999968 [dLambda -0.04999999999999999]
TCL: Setting parameter firsttimestep to 0
TCL: Setting parameter alchLambda to 0.24999999999999967
Info: NONBONDED TABLE R-SQUARED SPACING: 0.0625
Info: NONBONDED TABLE SIZE: 705 POINTS
TCL: Setting parameter alchLambda2 to 0.19999999999999968
Info: NONBONDED TABLE R-SQUARED SPACING: 0.0625
Info: NONBONDED TABLE SIZE: 705 POINTS
TCL: Running for 1500000 steps
ETITLE: TS BOND ANGLE DIHED IMPRP ELECT VDW BOUNDARY MISC KINETIC TOTAL TEMP POTENTIAL TOTALAVG TEMPAVG PRESSURE GPRESSURE VOLUME PRESSAVG GPRESSAVG
ENERGY: 0 2.8661 4.5930 11.1715 0.0000 -10640.8674 1427.2045 0.0000 0.0000 1765.7365 -7429.2958 301.2575 -9195.0323 -7429.2958 301.2575 -64.8191 18.5021 30070.5284 -64.8191 18.5021
ENERGY: 300000 3.9613 7.4720 7.5950 0.0000 -10760.0330 1517.9372 0.0000 0.0000 1737.8270 -7485.2406 296.4958 -9223.0676 -7465.8806 296.1751 443.4491 441.0868 30193.6673 57.5741 121.8035
ENERGY: 600000 3.6015 8.0779 3.7264 0.0000 -10581.6361 1400.4560 0.0000 0.0000 1705.3487 -7460.4256 290.9546 -9165.7744 -7456.6014 297.8440 -284.2723 -212.5922 30049.8908 -135.8570 -67.4224
ENERGY: 900000 4.7700 8.0534 4.3909 0.0000 -10750.9468 1550.8166 0.0000 0.0000 1788.9183 -7393.9977 305.2126 -9182.9160 -7450.0261 297.7262 1018.0810 1109.2447 29899.7919 81.9153 149.1325
ENERGY: 1200000 5.6960 6.2231 4.8127 0.0000 -10559.2577 1412.9770 0.0000 0.0000 1785.6108 -7343.9381 304.6483 -9129.5489 -7426.8611 300.1865 -229.3859 -187.9894 30613.4980 106.6616 172.1787
ENERGY: 1500000 3.8854 6.1463 5.5281 0.0000 -10600.1813 1402.6030 0.0000 0.0000 1784.0668 -7397.9518 304.3849 -9182.0186 -7434.6547 300.3129 -439.1239 -444.0315 30535.4722 -10.8327 46.8609
TCL: Running FEP window  17: Lambda1 0.19999999999999968 Lambda2 0.1499999999999997 [dLambda -0.04999999999999999]
TCL: Setting parameter firsttimestep to 0
TCL: Setting parameter alchLambda to 0.19999999999999968
Info: NONBONDED TABLE R-SQUARED SPACING: 0.0625
Info: NONBONDED TABLE SIZE: 705 POINTS
TCL: Setting parameter alchLambda2 to 0.1499999999999997
Info: NONBONDED TABLE R-SQUARED SPACING: 0.0625
Info: NONBONDED TABLE SIZE: 705 POINTS
TCL: Running for 1500000 steps
ETITLE: TS BOND ANGLE DIHED IMPRP ELECT VDW BOUNDARY MISC KINETIC TOTAL TEMP POTENTIAL TOTALAVG TEMPAVG PRESSURE GPRESSURE VOLUME PRESSAVG GPRESSAVG
ENERGY: 0 3.8854 6.1463 5.5281 0.0000 -10600.1803 1403.2434 0.0000 0.0000 1783.2205 -7398.1565 304.2405 -9181.3771 -7398.1565 304.2405 -521.9886 -443.8001 30535.4722 -521.9886 -443.8001
ENERGY: 300000 3.3168 5.3943 6.0869 0.0000 -10849.8586 1563.9051 0.0000 0.0000 1697.4008 -7573.7545 289.5986 -9271.1553 -7446.9433 297.5124 660.3593 660.4264 30400.9394 -275.0144 -263.0475
ENERGY: 600000 4.4949 5.9728 7.1996 0.0000 -10544.2169 1390.1980 0.0000 0.0000 1714.0246 -7422.3270 292.4348 -9136.3516 -7450.6945 296.2224 -373.3876 -314.1768 30325.9694 -169.1880 -124.9333
ENERGY: 900000 4.6904 8.4000 11.4389 0.0000 -10624.4053 1375.6235 0.0000 0.0000 1717.5444 -7506.7081 293.0353 -9224.2526 -7450.0592 297.9492 -463.6805 -433.5817 30009.1407 -180.2732 -150.6898
ENERGY: 1200000 1.7734 8.4118 8.0736 0.0000 -10638.7470 1437.5462 0.0000 0.0000 1829.8807 -7353.0612 312.2013 -9182.9419 -7453.4696 299.1423 -267.9870 -206.1093 30843.7303 -156.3486 -118.6382
ENERGY: 1500000 2.8797 6.5347 3.5388 0.0000 -10599.6599 1375.0895 0.0000 0.0000 1711.1093 -7500.5080 291.9374 -9211.6173 -7454.5818 298.7132 -646.3329 -582.3028 30173.3282 -127.0537 -74.0842
TCL: Running FEP window  18: Lambda1 0.1499999999999997 Lambda2 0.09999999999999969 [dLambda -0.05 ]
TCL: Setting parameter firsttimestep to 0
TCL: Setting parameter alchLambda to 0.1499999999999997
Info: NONBONDED TABLE R-SQUARED SPACING: 0.0625
Info: NONBONDED TABLE SIZE: 705 POINTS
TCL: Setting parameter alchLambda2 to 0.09999999999999969
Info: NONBONDED TABLE R-SQUARED SPACING: 0.0625
Info: NONBONDED TABLE SIZE: 705 POINTS
TCL: Running for 1500000 steps
ETITLE: TS BOND ANGLE DIHED IMPRP ELECT VDW BOUNDARY MISC KINETIC TOTAL TEMP POTENTIAL TOTALAVG TEMPAVG PRESSURE GPRESSURE VOLUME PRESSAVG GPRESSAVG
ENERGY: 0 2.8797 6.5346 3.5388 0.0000 -10599.6593 1374.7705 0.0000 0.0000 1710.2203 -7501.7154 291.7857 -9211.9357 -7501.7154 291.7857 -681.9771 -589.3082 30173.3282 -681.9771 -589.3082
ENERGY: 300000 3.0251 5.4816 10.9245 0.0000 -10660.8857 1428.9315 0.0000 0.0000 1743.0754 -7469.4476 297.3912 -9212.5230 -7451.2667 298.5441 -53.7397 -56.6763 30283.8621 -183.9674 -137.7359
ENERGY: 600000 2.7239 6.0881 8.8485 0.0000 -10628.9095 1435.3428 0.0000 0.0000 1825.9947 -7349.9114 311.5383 -9175.9061 -7450.4995 298.6954 130.1770 253.9577 30121.1169 -118.6259 -43.9416
ENERGY: 900000 1.6823 8.3555 5.5171 0.0000 -10849.4589 1577.4167 0.0000 0.0000 1716.4742 -7540.0131 292.8527 -9256.4872 -7456.7371 298.7318 1227.9722 1229.5116 29867.8453 149.4435 204.4435
ENERGY: 1200000 3.4883 6.7376 7.0122 0.0000 -10574.1027 1357.3082 0.0000 0.0000 1764.9814 -7434.5750 301.1287 -9199.5564 -7449.1487 298.6129 -758.5166 -693.4178 30355.7711 31.9324 86.4200
ENERGY: 1500000 4.6859 8.6672 4.7923 0.0000 -10464.9528 1281.0412 0.0000 0.0000 1764.9378 -7400.8283 301.1212 -9165.7661 -7454.2423 298.4796 -1390.2000 -1365.5280 30601.2878 -152.1368 -93.4741
TCL: Running FEP window  19: Lambda1 0.09999999999999969 Lambda2 0.049999999999999684 [dLambda -0.05 ]
TCL: Setting parameter firsttimestep to 0
TCL: Setting parameter alchLambda to 0.09999999999999969
Info: NONBONDED TABLE R-SQUARED SPACING: 0.0625
Info: NONBONDED TABLE SIZE: 705 POINTS
TCL: Setting parameter alchLambda2 to 0.049999999999999684
Info: NONBONDED TABLE R-SQUARED SPACING: 0.0625
Info: NONBONDED TABLE SIZE: 705 POINTS
TCL: Running for 1500000 steps
ETITLE: TS BOND ANGLE DIHED IMPRP ELECT VDW BOUNDARY MISC KINETIC TOTAL TEMP POTENTIAL TOTALAVG TEMPAVG PRESSURE GPRESSURE VOLUME PRESSAVG GPRESSAVG
ENERGY: 0 4.6860 8.6672 4.7923 0.0000 -10464.9538 1280.6717 0.0000 0.0000 1764.0580 -7402.0786 300.9711 -9166.1365 -7402.0786 300.9711 -1445.9268 -1368.9425 30601.2878 -1445.9268 -1368.9425
ENERGY: 300000 2.5765 4.6982 4.8626 0.0000 -10696.1516 1425.9351 0.0000 0.0000 1748.1246 -7509.9546 298.2527 -9258.0792 -7412.0049 302.8451 -279.2896 -221.0730 30178.2338 -766.4029 -700.9343
ENERGY: 600000 3.3302 6.2710 4.4021 0.0000 -10698.0609 1434.3328 0.0000 0.0000 1827.2539 -7422.4709 311.7532 -9249.7248 -7414.2060 305.9541 170.0860 198.9096 29810.1286 -475.5659 -410.2946
ENERGY: 900000 3.4142 7.6314 6.3264 0.0000 -10727.8225 1466.0651 0.0000 0.0000 1737.1939 -7507.1915 296.3878 -9244.3854 -7425.8580 303.2130 124.7227 170.5693 29966.1968 -478.2064 -408.7701
ENERGY: 1200000 3.6628 6.3967 11.2128 0.0000 -10598.6570 1425.4313 0.0000 0.0000 1732.5841 -7419.3693 295.6013 -9151.9535 -7433.6428 302.3559 191.1132 154.0267 30194.1569 -380.1925 -320.9745
ENERGY: 1500000 3.4692 3.8604 6.1857 0.0000 -10555.2764 1336.9086 0.0000 0.0000 1757.6341 -7447.2183 299.8751 -9204.8524 -7429.9788 302.3997 -797.0523 -708.0294 30060.7126 -401.7936 -341.7730
TCL: Running FEP window  20: Lambda1 0.049999999999999684 Lambda2 0.0    [dLambda -0.049999999999999684]
TCL: Setting parameter firsttimestep to 0
TCL: Setting parameter alchLambda to 0.049999999999999684
Info: NONBONDED TABLE R-SQUARED SPACING: 0.0625
Info: NONBONDED TABLE SIZE: 705 POINTS
TCL: Setting parameter alchLambda2 to 0.0
Info: NONBONDED TABLE R-SQUARED SPACING: 0.0625
Info: NONBONDED TABLE SIZE: 705 POINTS
TCL: Running for 1500000 steps
ETITLE: TS BOND ANGLE DIHED IMPRP ELECT VDW BOUNDARY MISC KINETIC TOTAL TEMP POTENTIAL TOTALAVG TEMPAVG PRESSURE GPRESSURE VOLUME PRESSAVG GPRESSAVG
ENERGY: 0 3.4692 3.8604 6.1857 0.0000 -10555.2751 1336.8512 0.0000 0.0000 1756.7257 -7448.1828 299.7202 -9204.9086 -7448.1828 299.7202 -788.1162 -710.8087 30060.7126 -788.1162 -710.8087
ENERGY: 300000 2.6976 6.4381 4.9145 0.0000 -10500.3429 1304.0332 0.0000 0.0000 1733.8489 -7448.4107 295.8171 -9182.2596 -7458.9951 297.2138 -828.2974 -743.0987 30000.0839 -405.3099 -355.4131
ENERGY: 600000 5.6039 11.2498 8.4813 0.0000 -10567.9833 1360.8794 0.0000 0.0000 1746.3001 -7435.4688 297.9414 -9181.7689 -7438.0547 300.4189 -651.3472 -600.2168 30332.4059 -468.0227 -414.1103
ENERGY: 900000 3.6860 3.5516 4.2997 0.0000 -10704.9379 1445.5441 0.0000 0.0000 1760.5971 -7487.2595 300.3807 -9247.8566 -7446.3589 299.4051 -313.7220 -206.4012 30398.3390 -338.0060 -266.7230
ENERGY: 1200000 3.8130 6.8891 5.8277 0.0000 -10637.2392 1393.3041 0.0000 0.0000 1762.6577 -7464.7477 300.7322 -9227.4054 -7444.6867 300.0684 -543.8735 -482.9940 30186.2651 -316.9289 -246.6801
ENERGY: 1500000 4.0847 7.2254 9.2532 0.0000 -10689.8281 1501.2421 0.0000 0.0000 1697.9080 -7470.1147 289.6851 -9168.0227 -7442.6422 299.7853 420.6226 490.7016 30164.3904 -235.8309 -168.4772
TCL: Exiting due to exit command.
