Info: SIMULATION PARAMETERS:
Info: TIMESTEP               2
Info: NUMBER OF STEPS        0
Info: STEPS PER CYCLE        10
Info: PERIODIC CELL BASIS 1  30.3938 0 0
Info: PERIODIC CELL BASIS 2  0 29.1987 0
Info: PERIODIC CELL BASIS 3  0 0 34.1007
Info: PERIODIC CELL CENTER   0 0 0
Info: WRAPPING WATERS AROUND PERIODIC BOUNDARIES ON OUTPUT.
Info: WRAPPING ALL CLUSTERS AROUND PERIODIC BOUNDARIES ON OUTPUT.
Info: FIRST LDB TIMESTEP     50
Info: LAST LDB TIMESTEP     -1
Info: HOM BACKGROUND SCALING 1
Info: PME BACKGROUND SCALING 1
Info: MIN ATOMS PER PATCH    40
Info: EMPTY PATCH LOAD       40 ATOMS
Info: VELOCITY FILE          mobley_4218209_equil.vel
Info: CENTER OF MASS MOVING INITIALLY? NO
Info: DIELECTRIC             1
Info: EXCLUDE                SCALED ONE-FOUR
Info: 1-4 ELECTROSTATICS SCALED BY 0.833333
Info: MODIFIED 1-4 VDW PARAMETERS WILL BE USED
Info: DCD FILENAME           mobley_4218209_prod.dcd
Info: DCD FREQUENCY          100000
Info: DCD FIRST STEP         100000
Info: DCD FILE WILL CONTAIN UNIT CELL DATA
Info: XST FILENAME           mobley_4218209_prod.xst
Info: XST FREQUENCY          100000
Info: NO VELOCITY DCD OUTPUT
Info: NO FORCE DCD OUTPUT
Info: OUTPUT FILENAME        mobley_4218209_prod
Info: BINARY OUTPUT FILES WILL BE USED
Info: RESTART FILENAME       mobley_4218209_prod.restart
Info: RESTART FREQUENCY      100000
Info: BINARY RESTART FILES WILL BE USED
Info: CUTOFF                 9
Info: PAIRLIST DISTANCE      11
Info: PAIRLIST SHRINK RATE   0.01
Info: PAIRLIST GROW RATE     0.01
Info: PAIRLIST TRIGGER       0.3
Info: PAIRLISTS PER CYCLE    2
Info: PAIRLISTS ENABLED
Info: MARGIN                 2
Info: HYDROGEN GROUP CUTOFF  2.5
Info: PATCH DIMENSION        15.5
Info: ENERGY OUTPUT STEPS    100000
Info: ENERGY EVALUATION STEPS    100000
Info: OUTPUT ENERGY PRECISION 4
Info: CROSSTERM ENERGY INCLUDED IN DIHEDRAL
Info: TIMING OUTPUT STEPS    1000000
Info: PRESSURE OUTPUT STEPS  100000
Info: ALCHEMICAL FEP ON
Info: FEP CURRENT LAMBDA VALUE     0
Info: FEP COMPARISON LAMBDA VALUE  0.05
Info: FEP INTRA-ALCHEMICAL NON-BONDED INTERACTIONS WILL BE RETAINED
Info: FEP INTRA-ALCHEMICAL BONDED INTERACTIONS WILL BE RETAINED
Info: FEP VDW SHIFTING COEFFICIENT 5
Info: FEP ELEC. ACTIVE FOR ANNIHILATED PARTICLES BETWEEN LAMBDA = 0 AND LAMBDA = 0.5
Info: FEP ELEC. ACTIVE FOR EXNIHILATED PARTICLES BETWEEN LAMBDA = 0.5 AND LAMBDA = 1
Info: FEP VDW ACTIVE FOR ANNIHILATED PARTICLES BETWEEN LAMBDA = 0 AND LAMBDA = 1
Info: FEP VDW ACTIVE FOR EXNIHILATED PARTICLES BETWEEN LAMBDA = 0 AND LAMBDA = 1
Info: FEP BOND ACTIVE FOR ANNIHILATED PARTICLES BETWEEN LAMBDA = 1 AND LAMBDA = 1
Info: FEP BOND ACTIVE FOR EXNIHILATED PARTICLES BETWEEN LAMBDA = 0 AND LAMBDA = 0
Info: LANGEVIN DYNAMICS ACTIVE
Info: LANGEVIN TEMPERATURE   300
Info: LANGEVIN USING BBK INTEGRATOR
Info: LANGEVIN DAMPING COEFFICIENT IS 1 INVERSE PS
Info: LANGEVIN DYNAMICS APPLIED TO HYDROGENS
Info: LANGEVIN PISTON PRESSURE CONTROL ACTIVE
Info:        TARGET PRESSURE IS 1.01325 BAR
Info:     OSCILLATION PERIOD IS 50 FS
Info:             DECAY TIME IS 25 FS
Info:     PISTON TEMPERATURE IS 300 K
Info:       PRESSURE CONTROL IS GROUP-BASED
Info:    INITIAL STRAIN RATE IS 5.89044e-05 5.89044e-05 5.89044e-05
Info:       CELL FLUCTUATION IS ISOTROPIC
Info: PARTICLE MESH EWALD (PME) ACTIVE
Info: PME TOLERANCE               1e-06
Info: PME EWALD COEFFICIENT       0.348832
Info: PME INTERPOLATION ORDER     4
Info: PME GRID DIMENSIONS         32 32 36
Info: PME MAXIMUM GRID SPACING    1
Info: PME CALCULATION WILL BE PERFORMED ON GPU
Info: FULL ELECTROSTATIC EVALUATION FREQUENCY      2
Info: USING VERLET I (r-RESPA) MTS SCHEME.
Info: C1 SPLITTING OF LONG RANGE ELECTROSTATICS
Info: PLACING ATOMS IN PATCHES BY HYDROGEN GROUPS
Info: RIGID BONDS TO HYDROGEN : ALL
Info:         ERROR TOLERANCE : 1e-08
Info:          MAX ITERATIONS : 100
Info: RIGID WATER USING SETTLE ALGORITHM
Info: RANDOM NUMBER SEED     1743776089
Info: USE HYDROGEN BONDS?    NO
Info: Using AMBER format force field!
Info: AMBER PARM FILE        mobley_4218209.prmtop
Info: COORDINATE PDB         mobley_4218209.pdb
Info: Exclusions will be read from PARM file!
Info: SCNB (VDW SCALING)     2
Info: USING ARITHMETIC MEAN TO COMBINE L-J SIGMA PARAMETERS
Info: BINARY COORDINATES     mobley_4218209_equil.coor
Info: SUMMARY OF PARAMETERS:
Info: 9 BONDS
Info: 9 ANGLES
Info:   9 HARMONIC
Info:   0 COSINE-BASED
Info: 5 DIHEDRAL
Info: 0 IMPROPER
Info: 0 CROSSTERM
Info: 0 VDW
Info: 45 VDW_PAIRS
Info: 0 NBTHOLE_PAIRS
Info: To read alchdata from file: mobley_4218209.pdb
Info: To read alchflag data from column: 5
Info: STRUCTURE SUMMARY:
Info: 2919 ATOMS
Info: 2919 BONDS
Info: 28 ANGLES
Info: 40 DIHEDRALS
Info: 0 IMPROPERS
Info: 0 CROSSTERMS
Info: 2977 EXCLUSIONS
Info: 2910 RIGID BONDS
Info: ALCH: 0 ATOMS TO DISAPPEAR IN FINAL STATE
Info: ALCH: 18 ATOMS TO APPEAR IN FINAL STATE
Info: 5847 DEGREES OF FREEDOM
Info: 976 HYDROGEN GROUPS
Info: 4 ATOMS IN LARGEST HYDROGEN GROUP
Info: 976 MIGRATION GROUPS
Info: 4 ATOMS IN LARGEST MIGRATION GROUP
Info: TOTAL MASS = 17544.6 amu
Info: TOTAL CHARGE = 9.99868e-05 e
Info: MASS DENSITY = 0.962702 g/cm^3
Info: ATOM DENSITY = 0.0964546 atoms/A^3
Info: ADDED 0 IMPLICIT EXCLUSIONS
Info: NONBONDED TABLE R-SQUARED SPACING: 0.0625
Info: NONBONDED TABLE SIZE: 705 POINTS
Info: REMOVING COM VELOCITY -0.0901372 -0.047355 -0.0210096
Info: Use 3D box decompostion in PME FFT.
Info: Updated CUDA force table with 4096 elements.
Info: Updated CUDA LJ table with 9 x 9 elements.
Info: Found 20 unique exclusion lists needing 48 bytes
TCL: Running for 1500000 steps
ETITLE: TS BOND ANGLE DIHED IMPRP ELECT VDW BOUNDARY MISC KINETIC TOTAL TEMP POTENTIAL TOTALAVG TEMPAVG PRESSURE GPRESSURE VOLUME PRESSAVG GPRESSAVG
ENERGY: 0 5.8341 4.1292 5.3542 0.0000 -10594.7725 1396.2274 0.0000 0.0000 1697.8874 -7485.3402 292.2578 -9183.2276 -7485.3402 292.2578 -514.6660 -426.7678 30262.9484 -514.6660 -426.7678
ENERGY: 300000 1.5881 5.0361 2.6908 0.0000 -10637.9066 1503.0748 0.0000 0.0000 1739.5938 -7385.9229 299.4368 -9125.5167 -7398.1909 300.0445 611.3472 640.5851 30026.8436 -224.5307 -187.4322
ENERGY: 600000 2.3088 4.3722 4.1239 0.0000 -10648.8067 1484.7467 0.0000 0.0000 1800.4010 -7352.8542 309.9035 -9153.2552 -7393.1529 301.5105 347.2669 426.5107 29931.9307 -8.8466 44.1603
ENERGY: 900000 3.3291 4.5982 5.1073 0.0000 -10659.4841 1411.0710 0.0000 0.0000 1802.9514 -7432.4270 310.3425 -9235.3785 -7404.7153 303.0587 -225.9249 -156.9777 29643.1825 -80.4594 -18.2507
ENERGY: 1200000 1.1508 5.7852 4.5852 0.0000 -10578.1975 1402.2839 0.0000 0.0000 1758.3779 -7406.0145 302.6701 -9164.3924 -7405.8250 301.9171 -196.5011 -192.5083 29991.7115 -178.4448 -116.0717
ENERGY: 1500000 1.9271 4.5570 5.8209 0.0000 -10495.5313 1391.9997 0.0000 0.0000 1757.2267 -7333.9999 302.4719 -9091.2267 -7402.0121 301.6311 -83.8493 50.9985 30278.8971 -90.5752 -25.0938
TCL: Running FEP window   2: Lambda1 0.05   Lambda2 0.1    [dLambda 0.05  ]
TCL: Setting parameter firsttimestep to 0
TCL: Setting parameter alchLambda to 0.05
Info: NONBONDED TABLE R-SQUARED SPACING: 0.0625
Info: NONBONDED TABLE SIZE: 705 POINTS
TCL: Setting parameter alchLambda2 to 0.1
Info: NONBONDED TABLE R-SQUARED SPACING: 0.0625
Info: NONBONDED TABLE SIZE: 705 POINTS
TCL: Running for 1500000 steps
ETITLE: TS BOND ANGLE DIHED IMPRP ELECT VDW BOUNDARY MISC KINETIC TOTAL TEMP POTENTIAL TOTALAVG TEMPAVG PRESSURE GPRESSURE VOLUME PRESSAVG GPRESSAVG
ENERGY: 0 1.9271 4.5570 5.8209 0.0000 -10495.5292 1394.6653 0.0000 0.0000 1756.3286 -7332.2304 302.3173 -9088.5590 -7332.2304 302.3173 -42.5116 59.5876 30278.8971 -42.5116 59.5876
ENERGY: 300000 1.6137 6.2061 3.0882 0.0000 -10663.4083 1494.8762 0.0000 0.0000 1793.1195 -7364.5046 308.6502 -9157.6242 -7355.8581 305.7847 601.7397 671.8850 29656.7641 230.7880 304.3982
ENERGY: 600000 2.6829 7.0036 5.4880 0.0000 -10574.7655 1427.6193 0.0000 0.0000 1696.9241 -7435.0475 292.0920 -9131.9716 -7380.7819 302.3818 -194.1743 -121.6513 30195.5714 318.5025 398.0894
ENERGY: 900000 1.6503 4.2523 5.2455 0.0000 -10556.7856 1404.2731 0.0000 0.0000 1673.7079 -7467.6564 288.0958 -9141.3643 -7402.7325 299.8493 -317.1422 -190.6572 30042.5375 105.2808 190.9669
ENERGY: 1200000 2.7471 7.2051 4.4808 0.0000 -10523.8121 1440.1931 0.0000 0.0000 1788.1833 -7281.0027 307.8005 -9069.1860 -7389.8703 301.3490 428.4422 522.8558 30078.5974 125.5213 202.6693
ENERGY: 1500000 2.8223 6.5654 3.9057 0.0000 -10691.7888 1430.4925 0.0000 0.0000 1694.0565 -7553.9465 291.5984 -9248.0030 -7395.6999 300.6062 95.9495 95.3725 29464.5342 55.3998 122.1023
TCL: Running FEP window   3: Lambda1 0.1    Lambda2 0.15000000000000002 [dLambda 0.05000000000000002]
TCL: Setting parameter firsttimestep to 0
TCL: Setting parameter alchLambda to 0.1
Info: NONBONDED TABLE R-SQUARED SPACING: 0.0625
Info: NONBONDED TABLE SIZE: 705 POINTS
TCL: Setting parameter alchLambda2 to 0.15000000000000002
Info: NONBONDED TABLE R-SQUARED SPACING: 0.0625
Info: NONBONDED TABLE SIZE: 705 POINTS
TCL: Running for 1500000 steps
ETITLE: TS BOND ANGLE DIHED IMPRP ELECT VDW BOUNDARY MISC KINETIC TOTAL TEMP POTENTIAL TOTALAVG TEMPAVG PRESSURE GPRESSURE VOLUME PRESSAVG GPRESSAVG
ENERGY: 0 2.8223 6.5654 3.9057 0.0000 -10691.7867 1432.9091 0.0000 0.0000 1693.1583 -7552.4260 291.4438 -9245.5843 -7552.4260 291.4438 25.4154 103.3197 29464.5342 25.4154 103.3197
ENERGY: 300000 2.0516 6.8799 5.3802 0.0000 -10707.6621 1556.3231 0.0000 0.0000 1735.4172 -7401.6102 298.7179 -9137.0274 -7458.9492 296.6070 1144.7352 1201.5508 29801.0289 312.2759 349.7352
ENERGY: 600000 2.0462 8.0129 5.5571 0.0000 -10425.8214 1391.4252 0.0000 0.0000 1769.4095 -7249.3705 304.5690 -9018.7800 -7410.9982 299.3656 145.5334 225.7922 30113.9054 100.0451 137.6279
ENERGY: 900000 2.2399 12.7549 5.6384 0.0000 -10745.5835 1534.6118 0.0000 0.0000 1706.5066 -7483.8318 293.7415 -9190.3384 -7417.9775 299.4414 667.0148 738.6525 29806.4317 132.6408 189.7269
ENERGY: 1200000 4.5113 3.6970 6.1790 0.0000 -10478.0693 1345.3063 0.0000 0.0000 1712.3194 -7406.0563 294.7420 -9118.3757 -7413.0130 298.9550 -469.5187 -428.2405 29959.7125 121.1281 183.9971
ENERGY: 1500000 2.5211 6.4056 4.6393 0.0000 -10583.7792 1446.7379 0.0000 0.0000 1754.2244 -7369.2507 301.9552 -9123.4752 -7411.6856 299.5348 275.9332 325.2620 29760.0585 92.5575 151.0860
TCL: Running FEP window   4: Lambda1 0.15000000000000002 Lambda2 0.2    [dLambda 0.04999999999999999]
TCL: Setting parameter firsttimestep to 0
TCL: Setting parameter alchLambda to 0.15000000000000002
Info: NONBONDED TABLE R-SQUARED SPACING: 0.0625
Info: NONBONDED TABLE SIZE: 705 POINTS
TCL: Setting parameter alchLambda2 to 0.2
Info: NONBONDED TABLE R-SQUARED SPACING: 0.0625
Info: NONBONDED TABLE SIZE: 705 POINTS
TCL: Running for 1500000 steps
ETITLE: TS BOND ANGLE DIHED IMPRP ELECT VDW BOUNDARY MISC KINETIC TOTAL TEMP POTENTIAL TOTALAVG TEMPAVG PRESSURE GPRESSURE VOLUME PRESSAVG GPRESSAVG
ENERGY: 0 2.5211 6.4056 4.6393 0.0000 -10583.7792 1446.2649 0.0000 0.0000 1753.3479 -7370.6003 301.8043 -9123.9483 -7370.6003 301.8043 234.0102 324.7504 29760.0585 234.0102 324.7504
ENERGY: 300000 2.1017 5.4970 6.6148 0.0000 -10670.1551 1498.2825 0.0000 0.0000 1723.9129 -7433.7460 296.7376 -9157.6590 -7386.0266 302.3433 558.2170 650.7751 29729.7415 390.7132 473.5120
ENERGY: 600000 1.0913 5.4529 7.4489 0.0000 -10721.8196 1444.8861 0.0000 0.0000 1728.9596 -7533.9807 297.6063 -9262.9403 -7406.6465 302.7779 100.2947 212.9014 29227.5216 157.7529 239.4758
ENERGY: 900000 5.0996 9.5799 4.7868 0.0000 -10537.9448 1369.5187 0.0000 0.0000 1687.7853 -7461.1747 290.5190 -9148.9599 -7414.3061 301.2910 -754.5340 -654.4435 30001.7257 2.9639 95.1916
ENERGY: 1200000 2.6825 7.4127 6.9108 0.0000 -10642.7646 1481.9529 0.0000 0.0000 1760.3685 -7383.4372 303.0127 -9143.8057 -7407.3288 301.2638 575.6928 659.4452 29752.1735 113.7323 193.6868
ENERGY: 1500000 2.5847 7.1546 4.9212 0.0000 -10507.8690 1406.7266 0.0000 0.0000 1706.7729 -7379.7089 293.7873 -9086.4818 -7402.1651 300.6184 -48.3878 -7.2706 29999.0974 150.6332 225.1483
TCL: Running FEP window   5: Lambda1 0.2    Lambda2 0.25   [dLambda 0.04999999999999999]
TCL: Setting parameter firsttimestep to 0
TCL: Setting parameter alchLambda to 0.2
Info: NONBONDED TABLE R-SQUARED SPACING: 0.0625
Info: NONBONDED TABLE SIZE: 705 POINTS
TCL: Setting parameter alchLambda2 to 0.25
Info: NONBONDED TABLE R-SQUARED SPACING: 0.0625
Info: NONBONDED TABLE SIZE: 705 POINTS
TCL: Running for 1500000 steps
ETITLE: TS BOND ANGLE DIHED IMPRP ELECT VDW BOUNDARY MISC KINETIC TOTAL TEMP POTENTIAL TOTALAVG TEMPAVG PRESSURE GPRESSURE VOLUME PRESSAVG GPRESSAVG
ENERGY: 0 2.5847 7.1546 4.9212 0.0000 -10507.8674 1406.8570 0.0000 0.0000 1705.8975 -7380.4523 293.6366 -9086.3498 -7380.4523 293.6366 -87.7855 -4.6533 29999.0974 -87.7855 -4.6533
ENERGY: 300000 1.9282 4.3576 6.4756 0.0000 -10615.6612 1473.7523 0.0000 0.0000 1769.0955 -7360.0520 304.5149 -9129.1475 -7390.6895 302.5938 470.4516 572.6304 29662.9477 86.5782 160.5753
ENERGY: 600000 2.6680 7.1667 5.9526 0.0000 -10659.0518 1458.0664 0.0000 0.0000 1729.1119 -7456.0862 297.6325 -9185.1981 -7425.4440 300.1850 301.6504 277.6192 29851.0056 197.6689 244.6877
ENERGY: 900000 3.4783 6.7078 2.5768 0.0000 -10586.0397 1462.9932 0.0000 0.0000 1723.9873 -7386.2962 296.7504 -9110.2836 -7415.9507 300.3313 159.1475 227.6732 30343.6962 172.7008 220.3498
ENERGY: 1200000 3.0051 4.2767 5.9076 0.0000 -10759.2542 1558.4953 0.0000 0.0000 1704.7056 -7482.8639 293.4315 -9187.5695 -7421.8187 299.4041 998.1578 1061.4774 29782.5495 186.8271 240.1421
ENERGY: 1500000 2.6549 4.8850 4.5817 0.0000 -10566.8665 1430.5278 0.0000 0.0000 1769.0769 -7355.1403 304.5117 -9124.2171 -7407.2511 301.0020 127.7077 251.4611 29797.4928 142.1402 197.7722
TCL: Running FEP window   6: Lambda1 0.25   Lambda2 0.3    [dLambda 0.04999999999999999]
TCL: Setting parameter firsttimestep to 0
TCL: Setting parameter alchLambda to 0.25
Info: NONBONDED TABLE R-SQUARED SPACING: 0.0625
Info: NONBONDED TABLE SIZE: 705 POINTS
TCL: Setting parameter alchLambda2 to 0.3
Info: NONBONDED TABLE R-SQUARED SPACING: 0.0625
Info: NONBONDED TABLE SIZE: 705 POINTS
TCL: Running for 1500000 steps
ETITLE: TS BOND ANGLE DIHED IMPRP ELECT VDW BOUNDARY MISC KINETIC TOTAL TEMP POTENTIAL TOTALAVG TEMPAVG PRESSURE GPRESSURE VOLUME PRESSAVG GPRESSAVG
ENERGY: 0 2.6549 4.8850 4.5817 0.0000 -10566.8671 1430.9159 0.0000 0.0000 1768.2175 -7355.6121 304.3638 -9123.8296 -7355.6121 304.3638 151.7150 257.7594 29797.4928 151.7150 257.7594
ENERGY: 300000 6.0438 6.2093 6.4626 0.0000 -10488.7492 1302.2873 0.0000 0.0000 1719.9448 -7447.8015 296.0546 -9167.7463 -7402.7254 302.6873 -966.6832 -979.0360 29717.5847 -134.0808 -96.0920
ENERGY: 600000 2.9067 4.4007 2.6778 0.0000 -10490.9253 1366.9636 0.0000 0.0000 1777.2389 -7336.7375 305.9166 -9113.9764 -7394.3297 302.8054 -121.7206 -59.3493 29836.3315 -58.6857 -15.9992
ENERGY: 900000 1.4999 7.2579 3.6969 0.0000 -10786.0750 1524.0898 0.0000 0.0000 1747.7509 -7501.7796 300.8409 -9249.5305 -7412.3017 301.1736 662.4641 742.8708 29290.8289 20.6212 67.1107
ENERGY: 1200000 4.6819 8.6791 2.7998 0.0000 -10713.7833 1447.0218 0.0000 0.0000 1777.4600 -7473.1408 305.9547 -9250.6008 -7427.4199 301.6988 -91.3123 -47.6245 29832.3220 -37.9618 6.9909
ENERGY: 1500000 3.6128 5.9675 5.3784 0.0000 -10624.3357 1434.1576 0.0000 0.0000 1751.2009 -7424.0185 301.4347 -9175.2194 -7414.1832 302.3059 -375.5225 -283.7366 30783.4920 -40.1446 10.5841
TCL: Running FEP window   7: Lambda1 0.3    Lambda2 0.35   [dLambda 0.04999999999999999]
TCL: Setting parameter firsttimestep to 0
TCL: Setting parameter alchLambda to 0.3
Info: NONBONDED TABLE R-SQUARED SPACING: 0.0625
Info: NONBONDED TABLE SIZE: 705 POINTS
TCL: Setting parameter alchLambda2 to 0.35
Info: NONBONDED TABLE R-SQUARED SPACING: 0.0625
Info: NONBONDED TABLE SIZE: 705 POINTS
TCL: Running for 1500000 steps
ETITLE: TS BOND ANGLE DIHED IMPRP ELECT VDW BOUNDARY MISC KINETIC TOTAL TEMP POTENTIAL TOTALAVG TEMPAVG PRESSURE GPRESSURE VOLUME PRESSAVG GPRESSAVG
ENERGY: 0 3.6128 5.9675 5.3784 0.0000 -10624.3375 1434.2650 0.0000 0.0000 1750.3060 -7424.8078 301.2807 -9175.1138 -7424.8078 301.2807 -362.5278 -279.9458 30783.4920 -362.5278 -279.9458
ENERGY: 300000 3.3362 4.1979 4.0030 0.0000 -10545.6362 1375.5449 0.0000 0.0000 1770.5780 -7387.9762 304.7701 -9158.5542 -7414.7386 302.8532 -564.7612 -486.5715 29901.5906 -152.8710 -91.0602
ENERGY: 600000 4.3262 7.3660 3.0600 0.0000 -10608.1742 1400.3154 0.0000 0.0000 1752.7014 -7440.4053 301.6930 -9193.1067 -7396.0289 301.8843 -376.9728 -280.7281 30042.1326 -184.8130 -103.4523
ENERGY: 900000 2.7764 5.0222 6.0133 0.0000 -10572.8590 1366.1386 0.0000 0.0000 1780.2882 -7412.6204 306.4415 -9192.9085 -7404.1088 301.8779 -723.0734 -638.6791 30480.9334 -85.5713 -4.0294
ENERGY: 1200000 3.9511 5.4109 8.9817 0.0000 -10571.1505 1378.7340 0.0000 0.0000 1744.0057 -7430.0671 300.1962 -9174.0728 -7413.4327 300.1108 -213.9727 -233.7998 29573.2755 -196.4514 -124.1809
ENERGY: 1500000 1.9663 4.6792 1.8267 0.0000 -10524.2934 1407.1223 0.0000 0.0000 1736.9601 -7371.7388 298.9834 -9108.6989 -7408.2959 300.4391 -63.5289 -31.2753 30060.7476 -214.3834 -149.3847
TCL: Running FEP window   8: Lambda1 0.35   Lambda2 0.39999999999999997 [dLambda 0.04999999999999999]
TCL: Setting parameter firsttimestep to 0
TCL: Setting parameter alchLambda to 0.35
Info: NONBONDED TABLE R-SQUARED SPACING: 0.0625
Info: NONBONDED TABLE SIZE: 705 POINTS
TCL: Setting parameter alchLambda2 to 0.39999999999999997
Info: NONBONDED TABLE R-SQUARED SPACING: 0.0625
Info: NONBONDED TABLE SIZE: 705 POINTS
TCL: Running for 1500000 steps
ETITLE: TS BOND ANGLE DIHED IMPRP ELECT VDW BOUNDARY MISC KINETIC TOTAL TEMP POTENTIAL TOTALAVG TEMPAVG PRESSURE GPRESSURE VOLUME PRESSAVG GPRESSAVG
ENERGY: 0 1.9663 4.6792 1.8267 0.0000 -10524.2938 1407.9121 0.0000 0.0000 1736.0859 -7371.8235 298.8330 -9107.9094 -7371.8235 298.8330 -96.2524 -18.0870 30060.7476 -96.2524 -18.0870
ENERGY: 300000 4.8616 7.5241 10.6151 0.0000 -10600.3053 1401.9331 0.0000 0.0000 1737.4063 -7437.9650 299.0602 -9175.3713 -7404.0163 300.0288 -262.9919 -219.6902 29960.3304 -15.0243 65.7936
ENERGY: 600000 0.8415 6.6918 4.0927 0.0000 -10549.9198 1399.8450 0.0000 0.0000 1677.8115 -7460.6373 288.8022 -9138.4488 -7416.5404 298.1692 -127.0537 -73.8316 30077.1638 -207.0628 -136.7141
ENERGY: 900000 6.9754 5.6440 5.2531 0.0000 -10571.2673 1393.9807 0.0000 0.0000 1771.7963 -7387.6179 304.9798 -9159.4141 -7408.0383 299.5134 -174.1809 -131.6449 30069.1372 -226.6316 -161.9303
ENERGY: 1200000 1.8485 4.5328 5.2673 0.0000 -10598.8569 1392.4783 0.0000 0.0000 1734.9790 -7459.7509 298.6424 -9194.7299 -7411.9526 299.6504 -184.5769 -216.5706 29858.0848 -241.9701 -184.0096
ENERGY: 1500000 3.6603 5.3797 6.8724 0.0000 -10686.0703 1457.8622 0.0000 0.0000 1776.3214 -7435.9742 305.7587 -9212.2956 -7407.5763 299.6955 12.2836 60.9259 29761.3300 -226.5015 -175.6493
TCL: Running FEP window   9: Lambda1 0.39999999999999997 Lambda2 0.44999999999999996 [dLambda 0.04999999999999999]
TCL: Setting parameter firsttimestep to 0
TCL: Setting parameter alchLambda to 0.39999999999999997
Info: NONBONDED TABLE R-SQUARED SPACING: 0.0625
Info: NONBONDED TABLE SIZE: 705 POINTS
TCL: Setting parameter alchLambda2 to 0.44999999999999996
Info: NONBONDED TABLE R-SQUARED SPACING: 0.0625
Info: NONBONDED TABLE SIZE: 705 POINTS
TCL: Running for 1500000 steps
ETITLE: TS BOND ANGLE DIHED IMPRP ELECT VDW BOUNDARY MISC KINETIC TOTAL TEMP POTENTIAL TOTALAVG TEMPAVG PRESSURE GPRESSURE VOLUME PRESSAVG GPRESSAVG
ENERGY: 0 3.6603 5.3797 6.8724 0.0000 -10686.0700 1457.4360 0.0000 0.0000 1775.4655 -7437.2560 305.6114 -9212.7215 -7437.2560 305.6114 -26.2438 64.0053 29761.3300 -26.2438 64.0053
ENERGY: 300000 1.5397 7.8449 3.5968 0.0000 -10609.5444 1443.1460 0.0000 0.0000 1764.3662 -7389.0509 303.7009 -9153.4170 -7455.0255 299.3835 481.4828 523.4354 29638.8044 -42.5687 4.4722
ENERGY: 600000 2.2117 7.8588 5.0154 0.0000 -10593.4757 1405.4757 0.0000 0.0000 1708.1974 -7464.7167 294.0325 -9172.9141 -7439.5602 299.3524 -191.4759 -72.0493 29564.0990 -219.1262 -144.5911
ENERGY: 900000 1.9009 6.0816 10.2775 0.0000 -10614.5999 1420.1087 0.0000 0.0000 1767.5444 -7408.6868 304.2479 -9176.2312 -7430.6270 299.7083 -204.0740 -107.9437 30305.6402 -130.7484 -52.0669
ENERGY: 1200000 5.7152 5.2792 4.3634 0.0000 -10692.4459 1498.8227 0.0000 0.0000 1801.0338 -7377.2317 310.0125 -9178.2655 -7422.2076 300.4020 751.5997 861.6324 29550.1402 -62.8539 16.2791
ENERGY: 1500000 1.9806 9.7157 5.6602 0.0000 -10578.1371 1372.0925 0.0000 0.0000 1726.6025 -7462.0855 297.2006 -9188.6880 -7411.7739 300.5334 -578.3854 -550.8369 30006.6704 -121.8719 -46.1359
TCL: Running FEP window  10: Lambda1 0.44999999999999996 Lambda2 0.49999999999999994 [dLambda 0.04999999999999999]
TCL: Setting parameter firsttimestep to 0
TCL: Setting parameter alchLambda to 0.44999999999999996
Info: NONBONDED TABLE R-SQUARED SPACING: 0.0625
Info: NONBONDED TABLE SIZE: 705 POINTS
TCL: Setting parameter alchLambda2 to 0.49999999999999994
Info: NONBONDED TABLE R-SQUARED SPACING: 0.0625
Info: NONBONDED TABLE SIZE: 705 POINTS
TCL: Running for 1500000 steps
ETITLE: TS BOND ANGLE DIHED IMPRP ELECT VDW BOUNDARY MISC KINETIC TOTAL TEMP POTENTIAL TOTALAVG TEMPAVG PRESSURE GPRESSURE VOLUME PRESSAVG GPRESSAVG
ENERGY: 0 1.9806 9.7158 5.6602 0.0000 -10578.1373 1371.5601 0.0000 0.0000 1725.7236 -7463.4970 297.0493 -9189.2205 -7463.4970 297.0493 -634.3341 -550.6703 30006.6704 -634.3341 -550.6703
ENERGY: 300000 1.7747 5.8915 6.4126 0.0000 -10525.2668 1388.5346 0.0000 0.0000 1717.7276 -7404.9259 295.6729 -9122.6536 -7435.5488 297.3565 56.3484 144.9970 29454.9701 -402.9897 -323.5943
ENERGY: 600000 3.2340 9.6426 3.7672 0.0000 -10537.3234 1400.2921 0.0000 0.0000 1733.8530 -7386.5346 298.4486 -9120.3876 -7418.1792 298.6073 -229.6314 -130.5525 30227.0400 -275.5604 -192.5817
ENERGY: 900000 2.0524 5.3968 6.7889 0.0000 -10678.0472 1437.7665 0.0000 0.0000 1727.2823 -7498.7604 297.3176 -9226.0427 -7434.4463 298.3161 56.9984 67.6711 29690.9197 -219.6517 -145.3660
ENERGY: 1200000 4.8614 7.5174 7.9281 0.0000 -10604.3233 1460.6242 0.0000 0.0000 1790.9390 -7332.4533 308.2748 -9123.3923 -7432.0396 299.2404 325.1764 349.4028 30006.3610 -175.1873 -105.2701
ENERGY: 1500000 0.8868 4.4336 3.5165 0.0000 -10581.7859 1397.5999 0.0000 0.0000 1670.6718 -7504.6773 287.5732 -9175.3491 -7438.1953 298.6093 -294.8240 -229.0969 29863.9132 -148.7337 -74.6579
TCL: Running FEP window  11: Lambda1 0.49999999999999994 Lambda2 0.5499999999999999 [dLambda 0.04999999999999999]
TCL: Setting parameter firsttimestep to 0
TCL: Setting parameter alchLambda to 0.49999999999999994
Info: NONBONDED TABLE R-SQUARED SPACING: 0.0625
Info: NONBONDED TABLE SIZE: 705 POINTS
TCL: Setting parameter alchLambda2 to 0.5499999999999999
Info: NONBONDED TABLE R-SQUARED SPACING: 0.0625
Info: NONBONDED TABLE SIZE: 705 POINTS
TCL: Running for 1500000 steps
ETITLE: TS BOND ANGLE DIHED IMPRP ELECT VDW BOUNDARY MISC KINETIC TOTAL TEMP POTENTIAL TOTALAVG TEMPAVG PRESSURE GPRESSURE VOLUME PRESSAVG GPRESSAVG
ENERGY: 0 0.8868 4.4336 3.5165 0.0000 -10581.7844 1397.2488 0.0000 0.0000 1669.7738 -7505.9248 287.4186 -9175.6987 -7505.9248 287.4186 -315.8911 -226.9005 29863.9132 -315.8911 -226.9005
ENERGY: 300000 3.7120 3.9598 4.4982 0.0000 -10511.1831 1406.9918 0.0000 0.0000 1726.4410 -7365.5803 297.1728 -9092.0212 -7429.1516 293.7850 -91.1775 3.0220 30206.6946 -198.9650 -134.3894
ENERGY: 600000 2.4247 3.8535 3.6521 0.0000 -10576.7740 1411.5487 0.0000 0.0000 1798.4874 -7356.8076 309.5742 -9155.2950 -7416.5266 299.0098 -232.4048 -182.4446 30098.7425 22.7869 83.4258
ENERGY: 900000 1.0354 6.3874 2.8145 0.0000 -10524.0520 1452.2501 0.0000 0.0000 1771.0225 -7290.5421 304.8466 -9061.5647 -7380.7921 301.4796 288.0381 332.3319 30492.9949 62.0183 123.2247
ENERGY: 1200000 3.0270 4.5457 3.3336 0.0000 -10570.2234 1398.5760 0.0000 0.0000 1745.2011 -7415.5398 300.4020 -9160.7410 -7390.7806 301.5231 -186.6865 -81.1156 29897.4200 148.3991 212.3431
ENERGY: 1500000 1.2927 3.1822 6.8902 0.0000 -10467.4284 1342.6403 0.0000 0.0000 1724.7235 -7388.6996 296.8771 -9113.4230 -7397.1168 301.4949 -640.9701 -579.6675 30519.4330 86.9983 149.7834
TCL: Running FEP window  12: Lambda1 0.5499999999999999 Lambda2 0.6    [dLambda 0.050000000000000044]
TCL: Setting parameter firsttimestep to 0
TCL: Setting parameter alchLambda to 0.5499999999999999
Info: NONBONDED TABLE R-SQUARED SPACING: 0.0625
Info: NONBONDED TABLE SIZE: 705 POINTS
TCL: Setting parameter alchLambda2 to 0.6
Info: NONBONDED TABLE R-SQUARED SPACING: 0.0625
Info: NONBONDED TABLE SIZE: 705 POINTS
TCL: Running for 1500000 steps
ETITLE: TS BOND ANGLE DIHED IMPRP ELECT VDW BOUNDARY MISC KINETIC TOTAL TEMP POTENTIAL TOTALAVG TEMPAVG PRESSURE GPRESSURE VOLUME PRESSAVG GPRESSAVG
ENERGY: 0 1.2927 3.1822 6.8902 0.0000 -10466.7947 1342.8795 0.0000 0.0000 1723.8534 -7388.6967 296.7274 -9112.5501 -7388.6967 296.7274 -656.2204 -569.3270 30519.4330 -656.2204 -569.3270
ENERGY: 300000 5.4123 6.2466 9.5222 0.0000 -10381.5376 1274.9448 0.0000 0.0000 1747.9709 -7337.4407 300.8787 -9085.4116 -7408.9948 296.1172 -1212.8355 -1074.4362 30417.9253 -460.0584 -374.0855
ENERGY: 600000 3.0995 4.3032 3.0310 0.0000 -10458.4080 1349.8953 0.0000 0.0000 1754.2555 -7343.8236 301.9605 -9098.0790 -7414.5645 296.8905 -709.2837 -659.6733 30478.5918 -319.0458 -247.4183
ENERGY: 900000 2.0623 3.9694 7.6151 0.0000 -10629.0237 1471.5793 0.0000 0.0000 1706.1440 -7437.6536 293.6791 -9143.7976 -7420.5120 296.9246 218.0082 321.1057 30161.7068 -377.5132 -296.0410
ENERGY: 1200000 1.5583 5.2209 5.1264 0.0000 -10681.4656 1482.7539 0.0000 0.0000 1724.1516 -7462.6545 296.7787 -9186.8061 -7410.0525 297.9953 284.3949 334.2933 30071.0621 -331.5905 -250.2398
ENERGY: 1500000 3.1966 4.7754 5.6862 0.0000 -10604.4793 1399.1282 0.0000 0.0000 1794.1770 -7397.5158 308.8322 -9191.6929 -7417.8625 298.3909 -239.1221 -114.6552 29814.9238 -290.9484 -207.6340
TCL: Running FEP window  13: Lambda1 0.6    Lambda2 0.65   [dLambda 0.050000000000000044]
TCL: Setting parameter firsttimestep to 0
TCL: Setting parameter alchLambda to 0.6
Info: NONBONDED TABLE R-SQUARED SPACING: 0.0625
Info: NONBONDED TABLE SIZE: 705 POINTS
TCL: Setting parameter alchLambda2 to 0.65
Info: NONBONDED TABLE R-SQUARED SPACING: 0.0625
Info: NONBONDED TABLE SIZE: 705 POINTS
TCL: Running for 1500000 steps
ETITLE: TS BOND ANGLE DIHED IMPRP ELECT VDW BOUNDARY MISC KINETIC TOTAL TEMP POTENTIAL TOTALAVG TEMPAVG PRESSURE GPRESSURE VOLUME PRESSAVG GPRESSAVG
ENERGY: 0 3.1966 4.7754 5.6862 0.0000 -10604.9560 1398.9975 0.0000 0.0000 1793.3289 -7398.9714 308.6862 -9192.3003 -7398.9714 308.6862 -202.9459 -109.6849 29814.9238 -202.9459 -109.6849
ENERGY: 300000 3.9576 8.3660 9.2626 0.0000 -10554.3474 1440.4895 0.0000 0.0000 1722.9392 -7369.3326 296.5700 -9092.2718 -7391.6428 298.4902 332.7279 312.4505 29836.7995 413.5398 444.0612
ENERGY: 600000 2.8841 6.5909 8.1547 0.0000 -10578.6638 1410.1767 0.0000 0.0000 1762.5183 -7388.3391 303.3828 -9150.8574 -7399.1668 301.0524 -399.8014 -355.0819 30245.4232 126.9259 154.7849
ENERGY: 900000 0.8819 6.5288 4.1293 0.0000 -10655.0307 1411.6535 0.0000 0.0000 1771.1350 -7460.7022 304.8660 -9231.8372 -7417.6054 301.9849 123.0292 158.2120 29469.5841 203.1690 234.5421
ENERGY: 1200000 2.1433 7.6549 4.8767 0.0000 -10661.0512 1453.8705 0.0000 0.0000 1694.0190 -7498.4869 291.5920 -9192.5058 -7429.3178 300.6695 91.8637 156.9538 30014.0058 260.6607 301.6300
ENERGY: 1500000 2.5246 7.3669 5.7157 0.0000 -10504.2657 1363.6677 0.0000 0.0000 1747.2449 -7377.7461 300.7538 -9124.9909 -7423.5375 299.6047 -550.3308 -506.3457 30250.9403 154.1020 196.5664
TCL: Running FEP window  14: Lambda1 0.65   Lambda2 0.7000000000000001 [dLambda 0.050000000000000044]
TCL: Setting parameter firsttimestep to 0
TCL: Setting parameter alchLambda to 0.65
Info: NONBONDED TABLE R-SQUARED SPACING: 0.0625
Info: NONBONDED TABLE SIZE: 705 POINTS
TCL: Setting parameter alchLambda2 to 0.7000000000000001
Info: NONBONDED TABLE R-SQUARED SPACING: 0.0625
Info: NONBONDED TABLE SIZE: 705 POINTS
TCL: Running for 1500000 steps
ETITLE: TS BOND ANGLE DIHED IMPRP ELECT VDW BOUNDARY MISC KINETIC TOTAL TEMP POTENTIAL TOTALAVG TEMPAVG PRESSURE GPRESSURE VOLUME PRESSAVG GPRESSAVG
ENERGY: 0 2.5246 7.3669 5.7157 0.0000 -10505.0859 1363.1655 0.0000 0.0000 1746.3593 -7379.9540 300.6013 -9126.3133 -7379.9540 300.6013 -599.8337 -505.7788 30250.9403 -599.8337 -505.7788
ENERGY: 300000 6.6952 2.9014 9.3065 0.0000 -10729.0054 1465.5091 0.0000 0.0000 1716.7007 -7527.8924 295.4962 -9244.5932 -7439.1219 299.8302 24.9743 115.7464 29891.4296 -51.4696 -18.7437
ENERGY: 600000 2.7544 6.8096 7.0361 0.0000 -10655.0382 1480.0098 0.0000 0.0000 1757.5069 -7400.9214 302.5202 -9158.4283 -7418.3818 300.8818 523.5960 551.5436 29738.9196 82.2598 130.8829
ENERGY: 900000 2.1049 4.8590 9.2318 0.0000 -10573.2902 1450.2851 0.0000 0.0000 1752.8381 -7353.9713 301.7165 -9106.8094 -7417.2621 301.8757 250.8350 259.2657 30153.3501 136.8783 186.6231
ENERGY: 1200000 2.9909 6.5810 4.2522 0.0000 -10559.8144 1420.9918 0.0000 0.0000 1795.5764 -7329.4221 309.0731 -9124.9985 -7412.9553 302.0771 188.2201 291.1850 29932.5410 81.7094 143.0918
ENERGY: 1500000 2.3480 6.7534 3.8558 0.0000 -10567.7379 1428.3919 0.0000 0.0000 1745.6096 -7380.7792 300.4723 -9126.3888 -7417.4915 301.4642 -109.6802 -58.0830 30377.1001 -19.9688 46.4492
TCL: Running FEP window  15: Lambda1 0.7000000000000001 Lambda2 0.7500000000000001 [dLambda 0.050000000000000044]
TCL: Setting parameter firsttimestep to 0
TCL: Setting parameter alchLambda to 0.7000000000000001
Info: NONBONDED TABLE R-SQUARED SPACING: 0.0625
Info: NONBONDED TABLE SIZE: 705 POINTS
TCL: Setting parameter alchLambda2 to 0.7500000000000001
Info: NONBONDED TABLE R-SQUARED SPACING: 0.0625
Info: NONBONDED TABLE SIZE: 705 POINTS
TCL: Running for 1500000 steps
ETITLE: TS BOND ANGLE DIHED IMPRP ELECT VDW BOUNDARY MISC KINETIC TOTAL TEMP POTENTIAL TOTALAVG TEMPAVG PRESSURE GPRESSURE VOLUME PRESSAVG GPRESSAVG
ENERGY: 0 2.3480 6.7534 3.8558 0.0000 -10568.3025 1428.2325 0.0000 0.0000 1744.7610 -7382.3518 300.3262 -9127.1128 -7382.3518 300.3262 -136.6178 -53.8919 30377.1001 -136.6178 -53.8919
ENERGY: 300000 2.2457 5.4128 3.0654 0.0000 -10670.9118 1454.6098 0.0000 0.0000 1704.2727 -7501.3054 293.3569 -9205.5781 -7429.0269 299.0333 356.5533 379.2031 29688.0611 39.5671 119.3015
ENERGY: 600000 2.4839 3.4554 9.4971 0.0000 -10671.6999 1466.4482 0.0000 0.0000 1715.8909 -7473.9244 295.3568 -9189.8153 -7423.9136 297.8630 624.4570 645.2214 29571.0792 113.4329 171.8226
ENERGY: 900000 1.4063 5.6667 4.1322 0.0000 -10648.8427 1427.3446 0.0000 0.0000 1667.2859 -7543.0070 286.9904 -9210.2929 -7446.2166 295.8164 -330.3012 -248.6484 30188.3779 91.4949 156.7518
ENERGY: 1200000 2.8365 9.5446 6.8682 0.0000 -10500.9479 1393.0293 0.0000 0.0000 1781.4109 -7307.2583 306.6348 -9088.6693 -7429.3747 296.6406 -312.5165 -233.8054 30421.8517 64.8892 130.3183
ENERGY: 1500000 2.3427 5.1030 5.6610 0.0000 -10595.1922 1348.7770 0.0000 0.0000 1682.9562 -7550.3523 289.6877 -9233.3085 -7435.5793 296.4045 -753.4802 -755.5506 29916.5885 -8.6206 48.3447
TCL: Running FEP window  16: Lambda1 0.7500000000000001 Lambda2 0.8000000000000002 [dLambda 0.050000000000000044]
TCL: Setting parameter firsttimestep to 0
TCL: Setting parameter alchLambda to 0.7500000000000001
Info: NONBONDED TABLE R-SQUARED SPACING: 0.0625
Info: NONBONDED TABLE SIZE: 705 POINTS
TCL: Setting parameter alchLambda2 to 0.8000000000000002
Info: NONBONDED TABLE R-SQUARED SPACING: 0.0625
Info: NONBONDED TABLE SIZE: 705 POINTS
TCL: Running for 1500000 steps
ETITLE: TS BOND ANGLE DIHED IMPRP ELECT VDW BOUNDARY MISC KINETIC TOTAL TEMP POTENTIAL TOTALAVG TEMPAVG PRESSURE GPRESSURE VOLUME PRESSAVG GPRESSAVG
ENERGY: 0 2.3427 5.1030 5.6610 0.0000 -10597.7560 1350.8798 0.0000 0.0000 1682.0912 -7551.6783 289.5388 -9233.7696 -7551.6783 289.5388 -823.2140 -732.0359 29916.5885 -823.2140 -732.0359
ENERGY: 300000 1.0831 10.5963 5.3341 0.0000 -10595.6941 1449.2621 0.0000 0.0000 1758.9376 -7370.4808 302.7664 -9129.4184 -7459.0323 296.7152 296.9818 306.3128 30002.4359 -497.3778 -424.0404
ENERGY: 600000 2.5626 2.4698 5.2195 0.0000 -10527.6211 1357.4069 0.0000 0.0000 1739.7674 -7420.1949 299.4667 -9159.9623 -7441.7063 297.8543 -736.7652 -597.2196 30164.8043 -257.8305 -169.6483
ENERGY: 900000 1.6145 6.3372 6.1517 0.0000 -10496.3588 1371.1998 0.0000 0.0000 1739.5575 -7371.4982 299.4305 -9111.0557 -7420.8261 299.3522 -552.3190 -416.8559 30673.8369 -160.8025 -77.5908
ENERGY: 1200000 4.8336 6.1516 7.1235 0.0000 -10483.3709 1343.5335 0.0000 0.0000 1769.1209 -7352.6078 304.5193 -9121.7287 -7412.3557 300.5608 -368.6105 -344.2938 30312.6075 -176.2664 -105.1306
ENERGY: 1500000 2.8849 4.2737 6.5943 0.0000 -10539.0714 1418.3354 0.0000 0.0000 1754.3964 -7352.5866 301.9848 -9106.9831 -7409.8479 300.2051 224.7484 280.9062 29714.5358 -94.4735 -27.4250
TCL: Running FEP window  17: Lambda1 0.8000000000000002 Lambda2 0.8500000000000002 [dLambda 0.050000000000000044]
TCL: Setting parameter firsttimestep to 0
TCL: Setting parameter alchLambda to 0.8000000000000002
Info: NONBONDED TABLE R-SQUARED SPACING: 0.0625
Info: NONBONDED TABLE SIZE: 705 POINTS
TCL: Setting parameter alchLambda2 to 0.8500000000000002
Info: NONBONDED TABLE R-SQUARED SPACING: 0.0625
Info: NONBONDED TABLE SIZE: 705 POINTS
TCL: Running for 1500000 steps
ETITLE: TS BOND ANGLE DIHED IMPRP ELECT VDW BOUNDARY MISC KINETIC TOTAL TEMP POTENTIAL TOTALAVG TEMPAVG PRESSURE GPRESSURE VOLUME PRESSAVG GPRESSAVG
ENERGY: 0 2.8849 4.2737 6.5943 0.0000 -10540.2601 1418.4021 0.0000 0.0000 1753.5323 -7354.5728 301.8360 -9108.1051 -7354.5728 301.8360 209.5280 285.5984 29714.5358 209.5280 285.5984
ENERGY: 300000 2.2310 10.8268 3.2665 0.0000 -10583.3050 1440.4764 0.0000 0.0000 1704.5131 -7421.9912 293.3983 -9126.5043 -7407.3918 297.6606 706.7160 789.1875 29416.5100 71.3775 133.4566
ENERGY: 600000 2.4847 4.8165 5.3327 0.0000 -10469.3799 1377.5549 0.0000 0.0000 1764.4681 -7314.7231 303.7184 -9079.1912 -7398.2181 298.3390 -23.0252 -9.2946 30114.9672 56.7045 96.4318
ENERGY: 900000 1.7175 3.0904 7.0604 0.0000 -10659.7562 1469.8619 0.0000 0.0000 1695.2990 -7482.7271 291.8123 -9178.0261 -7406.8504 298.7027 384.7849 425.1887 30059.4789 14.1280 51.2257
ENERGY: 1200000 5.9204 4.8288 6.2650 0.0000 -10441.9760 1319.5116 0.0000 0.0000 1741.0351 -7364.4151 299.6849 -9105.4502 -7415.1450 298.5904 -791.2899 -738.0709 30289.7801 -104.9911 -73.0074
ENERGY: 1500000 1.2193 7.9259 5.2940 0.0000 -10646.5023 1503.4305 0.0000 0.0000 1755.1061 -7373.5265 302.1069 -9128.6326 -7417.1906 298.4727 738.5369 804.6879 30195.7300 -173.2565 -134.8775
TCL: Running FEP window  18: Lambda1 0.8500000000000002 Lambda2 0.9000000000000002 [dLambda 0.050000000000000044]
TCL: Setting parameter firsttimestep to 0
TCL: Setting parameter alchLambda to 0.8500000000000002
Info: NONBONDED TABLE R-SQUARED SPACING: 0.0625
Info: NONBONDED TABLE SIZE: 705 POINTS
TCL: Setting parameter alchLambda2 to 0.9000000000000002
Info: NONBONDED TABLE R-SQUARED SPACING: 0.0625
Info: NONBONDED TABLE SIZE: 705 POINTS
TCL: Running for 1500000 steps
ETITLE: TS BOND ANGLE DIHED IMPRP ELECT VDW BOUNDARY MISC KINETIC TOTAL TEMP POTENTIAL TOTALAVG TEMPAVG PRESSURE GPRESSURE VOLUME PRESSAVG GPRESSAVG
ENERGY: 0 1.2193 7.9259 5.2940 0.0000 -10647.7277 1503.8573 0.0000 0.0000 1754.2317 -7375.1995 301.9564 -9129.4312 -7375.1995 301.9564 738.9234 821.7688 30195.7300 738.9234 821.7688
ENERGY: 300000 2.0060 3.3758 10.5022 0.0000 -10663.1791 1446.8717 0.0000 0.0000 1759.1681 -7441.2553 302.8061 -9200.4234 -7381.3741 300.3737 432.6210 490.7222 29713.8384 -150.2179 -88.0039
ENERGY: 600000 4.2488 4.2193 7.2612 0.0000 -10497.8598 1308.4789 0.0000 0.0000 1734.3222 -7439.3294 298.5294 -9173.6517 -7411.9289 300.2480 -1004.1667 -929.2896 30184.1927 -186.1646 -117.7196
ENERGY: 900000 4.4264 13.7942 5.9169 0.0000 -10646.4989 1428.8333 0.0000 0.0000 1698.7038 -7494.8243 292.3984 -9193.5280 -7425.6911 299.1090 74.8703 194.5851 29737.0702 -94.1853 -15.2855
ENERGY: 1200000 2.5627 3.8559 7.5937 0.0000 -10579.7643 1461.8861 0.0000 0.0000 1780.4563 -7323.4096 306.4704 -9103.8658 -7427.0996 299.0674 875.9885 928.7607 29399.5205 -66.3397 10.6937
ENERGY: 1500000 2.9172 4.8037 6.5387 0.0000 -10560.3786 1416.3560 0.0000 0.0000 1767.6872 -7362.0758 304.2725 -9129.7631 -7422.0151 299.6688 334.2725 414.7451 30033.2799 -30.8088 45.2361
TCL: Running FEP window  19: Lambda1 0.9000000000000002 Lambda2 0.9500000000000003 [dLambda 0.050000000000000044]
TCL: Setting parameter firsttimestep to 0
TCL: Setting parameter alchLambda to 0.9000000000000002
Info: NONBONDED TABLE R-SQUARED SPACING: 0.0625
Info: NONBONDED TABLE SIZE: 705 POINTS
TCL: Setting parameter alchLambda2 to 0.9500000000000003
Info: NONBONDED TABLE R-SQUARED SPACING: 0.0625
Info: NONBONDED TABLE SIZE: 705 POINTS
TCL: Running for 1500000 steps
ETITLE: TS BOND ANGLE DIHED IMPRP ELECT VDW BOUNDARY MISC KINETIC TOTAL TEMP POTENTIAL TOTALAVG TEMPAVG PRESSURE GPRESSURE VOLUME PRESSAVG GPRESSAVG
ENERGY: 0 2.9172 4.8037 6.5387 0.0000 -10561.9486 1417.7020 0.0000 0.0000 1766.8224 -7363.1647 304.1236 -9129.9871 -7363.1647 304.1236 380.3898 438.1073 30033.2799 380.3898 438.1073
ENERGY: 300000 1.8758 5.9615 7.0816 0.0000 -10407.4185 1322.9574 0.0000 0.0000 1719.2849 -7350.2573 295.9410 -9069.5422 -7388.7489 300.6328 -824.2850 -744.5853 30537.8419 -187.3975 -117.1278
ENERGY: 600000 4.4610 4.2346 4.1960 0.0000 -10644.2920 1410.3734 0.0000 0.0000 1734.2747 -7486.7523 298.5212 -9221.0270 -7410.4386 299.8471 1.8460 68.6511 29590.6775 -251.3960 -189.2861
ENERGY: 900000 3.4168 5.7946 2.7505 0.0000 -10618.2873 1400.3947 0.0000 0.0000 1805.1530 -7400.7778 310.7215 -9205.9308 -7405.9839 301.2332 -448.9124 -354.5563 30305.6307 -186.0110 -120.1304
ENERGY: 1200000 3.4850 8.5143 6.5358 0.0000 -10360.1702 1309.0036 0.0000 0.0000 1706.0915 -7326.5399 293.6700 -9032.6315 -7396.2398 301.2149 -772.5492 -741.9346 30730.5151 -196.5296 -127.5936
ENERGY: 1500000 2.4989 8.1428 2.7373 0.0000 -10575.7140 1439.6708 0.0000 0.0000 1736.8806 -7385.7836 298.9698 -9122.6642 -7399.1287 301.4486 339.9399 517.7230 29648.5994 -155.5084 -80.8699
TCL: Running FEP window  20: Lambda1 0.9500000000000003 Lambda2 1.0    [dLambda 0.04999999999999971]
TCL: Setting parameter firsttimestep to 0
TCL: Setting parameter alchLambda to 0.9500000000000003
Info: NONBONDED TABLE R-SQUARED SPACING: 0.0625
Info: NONBONDED TABLE SIZE: 705 POINTS
TCL: Setting parameter alchLambda2 to 1.0
Info: NONBONDED TABLE R-SQUARED SPACING: 0.0625
Info: NONBONDED TABLE SIZE: 705 POINTS
TCL: Running for 1500000 steps
ETITLE: TS BOND ANGLE DIHED IMPRP ELECT VDW BOUNDARY MISC KINETIC TOTAL TEMP POTENTIAL TOTALAVG TEMPAVG PRESSURE GPRESSURE VOLUME PRESSAVG GPRESSAVG
ENERGY: 0 2.4989 8.1428 2.7373 0.0000 -10577.3032 1439.8426 0.0000 0.0000 1736.0241 -7388.0576 298.8223 -9124.0816 -7388.0576 298.8223 425.3797 530.3866 29648.5994 425.3797 530.3866
ENERGY: 300000 1.8225 2.8401 6.0745 0.0000 -10503.7928 1295.0177 0.0000 0.0000 1770.4735 -7427.5645 304.7521 -9198.0380 -7399.1858 299.5796 -1107.4479 -1013.9499 30007.1860 -261.9960 -180.7026
ENERGY: 600000 6.6953 5.3108 8.5496 0.0000 -10625.2195 1495.7039 0.0000 0.0000 1765.6879 -7343.2720 303.9284 -9108.9599 -7382.0949 299.9829 905.3805 999.7009 29924.9528 21.7968 104.0827
ENERGY: 900000 2.0992 4.5698 6.5130 0.0000 -10631.3621 1461.8966 0.0000 0.0000 1725.2347 -7431.0488 296.9651 -9156.2835 -7377.4929 299.2023 299.2849 339.7223 30324.1548 70.5954 133.2546
ENERGY: 1200000 2.5852 4.8982 10.1981 0.0000 -10517.6701 1431.8226 0.0000 0.0000 1701.4707 -7366.6953 292.8746 -9068.1660 -7381.3958 299.5660 435.8331 485.7641 30236.3144 79.7293 136.8557
ENERGY: 1500000 1.9555 7.4101 3.8714 0.0000 -10432.2049 1312.4584 0.0000 0.0000 1763.6817 -7342.8278 303.5830 -9106.5095 -7392.7707 299.7620 -1096.1353 -1015.3198 30998.8005 -76.4790 -19.2167
TCL: Exiting due to exit command.
