Info: SIMULATION PARAMETERS:
Info: TIMESTEP               2
Info: NUMBER OF STEPS        0
Info: STEPS PER CYCLE        10
Info: PERIODIC CELL BASIS 1  30.2085 0 0
Info: PERIODIC CELL BASIS 2  0 31.5967 0
Info: PERIODIC CELL BASIS 3  0 0 31.5473
Info: PERIODIC CELL CENTER   0 0 0
Info: WRAPPING WATERS AROUND PERIODIC BOUNDARIES ON OUTPUT.
Info: WRAPPING ALL CLUSTERS AROUND PERIODIC BOUNDARIES ON OUTPUT.
Info: FIRST LDB TIMESTEP     50
Info: LAST LDB TIMESTEP     -1
Info: HOM BACKGROUND SCALING 1
Info: PME BACKGROUND SCALING 1
Info: MIN ATOMS PER PATCH    40
Info: EMPTY PATCH LOAD       40 ATOMS
Info: VELOCITY FILE          mobley_6854178_equil.vel
Info: CENTER OF MASS MOVING INITIALLY? NO
Info: DIELECTRIC             1
Info: EXCLUDE                SCALED ONE-FOUR
Info: 1-4 ELECTROSTATICS SCALED BY 0.833333
Info: MODIFIED 1-4 VDW PARAMETERS WILL BE USED
Info: DCD FILENAME           mobley_6854178_prod.dcd
Info: DCD FREQUENCY          100000
Info: DCD FIRST STEP         100000
Info: DCD FILE WILL CONTAIN UNIT CELL DATA
Info: XST FILENAME           mobley_6854178_prod.xst
Info: XST FREQUENCY          100000
Info: NO VELOCITY DCD OUTPUT
Info: NO FORCE DCD OUTPUT
Info: OUTPUT FILENAME        mobley_6854178_prod
Info: BINARY OUTPUT FILES WILL BE USED
Info: RESTART FILENAME       mobley_6854178_prod.restart
Info: RESTART FREQUENCY      100000
Info: BINARY RESTART FILES WILL BE USED
Info: CUTOFF                 9
Info: PAIRLIST DISTANCE      11
Info: PAIRLIST SHRINK RATE   0.01
Info: PAIRLIST GROW RATE     0.01
Info: PAIRLIST TRIGGER       0.3
Info: PAIRLISTS PER CYCLE    2
Info: PAIRLISTS ENABLED
Info: MARGIN                 2
Info: HYDROGEN GROUP CUTOFF  2.5
Info: PATCH DIMENSION        15.5
Info: ENERGY OUTPUT STEPS    100000
Info: ENERGY EVALUATION STEPS    100000
Info: OUTPUT ENERGY PRECISION 4
Info: CROSSTERM ENERGY INCLUDED IN DIHEDRAL
Info: TIMING OUTPUT STEPS    1000000
Info: PRESSURE OUTPUT STEPS  100000
Info: ALCHEMICAL FEP ON
Info: FEP CURRENT LAMBDA VALUE     0
Info: FEP COMPARISON LAMBDA VALUE  0.05
Info: FEP INTRA-ALCHEMICAL NON-BONDED INTERACTIONS WILL BE RETAINED
Info: FEP INTRA-ALCHEMICAL BONDED INTERACTIONS WILL BE RETAINED
Info: FEP VDW SHIFTING COEFFICIENT 5
Info: FEP ELEC. ACTIVE FOR ANNIHILATED PARTICLES BETWEEN LAMBDA = 0 AND LAMBDA = 0.5
Info: FEP ELEC. ACTIVE FOR EXNIHILATED PARTICLES BETWEEN LAMBDA = 0.5 AND LAMBDA = 1
Info: FEP VDW ACTIVE FOR ANNIHILATED PARTICLES BETWEEN LAMBDA = 0 AND LAMBDA = 1
Info: FEP VDW ACTIVE FOR EXNIHILATED PARTICLES BETWEEN LAMBDA = 0 AND LAMBDA = 1
Info: FEP BOND ACTIVE FOR ANNIHILATED PARTICLES BETWEEN LAMBDA = 1 AND LAMBDA = 1
Info: FEP BOND ACTIVE FOR EXNIHILATED PARTICLES BETWEEN LAMBDA = 0 AND LAMBDA = 0
Info: LANGEVIN DYNAMICS ACTIVE
Info: LANGEVIN TEMPERATURE   300
Info: LANGEVIN USING BBK INTEGRATOR
Info: LANGEVIN DAMPING COEFFICIENT IS 1 INVERSE PS
Info: LANGEVIN DYNAMICS APPLIED TO HYDROGENS
Info: LANGEVIN PISTON PRESSURE CONTROL ACTIVE
Info:        TARGET PRESSURE IS 1.01325 BAR
Info:     OSCILLATION PERIOD IS 50 FS
Info:             DECAY TIME IS 25 FS
Info:     PISTON TEMPERATURE IS 300 K
Info:       PRESSURE CONTROL IS GROUP-BASED
Info:    INITIAL STRAIN RATE IS 0.000749118 0.000749118 0.000749118
Info:       CELL FLUCTUATION IS ISOTROPIC
Info: PARTICLE MESH EWALD (PME) ACTIVE
Info: PME TOLERANCE               1e-06
Info: PME EWALD COEFFICIENT       0.348832
Info: PME INTERPOLATION ORDER     4
Info: PME GRID DIMENSIONS         32 32 32
Info: PME MAXIMUM GRID SPACING    1
Info: PME CALCULATION WILL BE PERFORMED ON GPU
Info: FULL ELECTROSTATIC EVALUATION FREQUENCY      2
Info: USING VERLET I (r-RESPA) MTS SCHEME.
Info: C1 SPLITTING OF LONG RANGE ELECTROSTATICS
Info: PLACING ATOMS IN PATCHES BY HYDROGEN GROUPS
Info: RIGID BONDS TO HYDROGEN : ALL
Info:         ERROR TOLERANCE : 1e-08
Info:          MAX ITERATIONS : 100
Info: RIGID WATER USING SETTLE ALGORITHM
Info: RANDOM NUMBER SEED     1743854610
Info: USE HYDROGEN BONDS?    NO
Info: Using AMBER format force field!
Info: AMBER PARM FILE        mobley_6854178.prmtop
Info: COORDINATE PDB         mobley_6854178.pdb
Info: Exclusions will be read from PARM file!
Info: SCNB (VDW SCALING)     2
Info: USING ARITHMETIC MEAN TO COMBINE L-J SIGMA PARAMETERS
Info: BINARY COORDINATES     mobley_6854178_equil.coor
Info: SUMMARY OF PARAMETERS:
Info: 9 BONDS
Info: 10 ANGLES
Info:   10 HARMONIC
Info:   0 COSINE-BASED
Info: 10 DIHEDRAL
Info: 0 IMPROPER
Info: 0 CROSSTERM
Info: 0 VDW
Info: 45 VDW_PAIRS
Info: 0 NBTHOLE_PAIRS
Info: To read alchdata from file: mobley_6854178.pdb
Info: To read alchflag data from column: 5
Info: STRUCTURE SUMMARY:
Info: 2912 ATOMS
Info: 2911 BONDS
Info: 22 ANGLES
Info: 33 DIHEDRALS
Info: 0 IMPROPERS
Info: 0 CROSSTERMS
Info: 2956 EXCLUSIONS
Info: 2906 RIGID BONDS
Info: ALCH: 0 ATOMS TO DISAPPEAR IN FINAL STATE
Info: ALCH: 14 ATOMS TO APPEAR IN FINAL STATE
Info: 5830 DEGREES OF FREEDOM
Info: 972 HYDROGEN GROUPS
Info: 4 ATOMS IN LARGEST HYDROGEN GROUP
Info: 972 MIGRATION GROUPS
Info: 4 ATOMS IN LARGEST MIGRATION GROUP
Info: TOTAL MASS = 17491.6 amu
Info: TOTAL CHARGE = 7.45058e-08 e
Info: MASS DENSITY = 0.964616 g/cm^3
Info: ATOM DENSITY = 0.096707 atoms/A^3
Info: ADDED 0 IMPLICIT EXCLUSIONS
Info: NONBONDED TABLE R-SQUARED SPACING: 0.0625
Info: NONBONDED TABLE SIZE: 705 POINTS
Info: REMOVING COM VELOCITY 0.0124818 -0.0513467 -0.0975291
Info: Use 3D box decompostion in PME FFT.
Info: Updated CUDA force table with 4096 elements.
Info: Updated CUDA LJ table with 9 x 9 elements.
Info: Found 17 unique exclusion lists needing 36 bytes
TCL: Running for 1500000 steps
ETITLE: TS BOND ANGLE DIHED IMPRP ELECT VDW BOUNDARY MISC KINETIC TOTAL TEMP POTENTIAL TOTALAVG TEMPAVG PRESSURE GPRESSURE VOLUME PRESSAVG GPRESSAVG
ENERGY: 0 1.6554 5.9217 6.4274 0.0000 -10477.8232 1353.2541 0.0000 0.0000 1752.1976 -7358.3670 302.4857 -9110.5646 -7358.3670 302.4857 -696.3126 -612.3248 30111.5603 -696.3126 -612.3248
ENERGY: 300000 2.8232 3.4413 4.9470 0.0000 -10606.5007 1408.2565 0.0000 0.0000 1732.0156 -7455.0171 299.0017 -9187.0327 -7383.2571 303.3765 -522.6449 -461.2947 30195.0182 -163.8811 -111.7582
ENERGY: 600000 2.8871 6.0918 6.6756 0.0000 -10457.6379 1380.3791 0.0000 0.0000 1760.3389 -7301.2654 303.8912 -9061.6043 -7377.1048 300.3525 -347.3496 -287.2071 30092.8444 -349.9304 -299.7647
ENERGY: 900000 2.2251 5.3051 5.8997 0.0000 -10459.3135 1371.2873 0.0000 0.0000 1689.5317 -7385.0647 291.6676 -9074.5963 -7378.3362 299.5324 -239.2277 -238.3251 29967.1178 -167.4372 -117.7193
ENERGY: 1200000 0.9393 6.5823 5.5728 0.0000 -10619.6197 1489.1398 0.0000 0.0000 1754.5081 -7362.8776 302.8846 -9117.3857 -7380.5872 299.6631 587.4390 645.0964 29798.8810 -31.2394 19.9745
ENERGY: 1500000 4.1864 4.0987 5.1915 0.0000 -10453.1313 1341.5421 0.0000 0.0000 1711.9301 -7386.1825 295.5343 -9098.1126 -7385.5790 298.8284 -676.6398 -649.4390 29858.6289 -156.1081 -99.6353
TCL: Running FEP window   2: Lambda1 0.05   Lambda2 0.1    [dLambda 0.05  ]
TCL: Setting parameter firsttimestep to 0
TCL: Setting parameter alchLambda to 0.05
Info: NONBONDED TABLE R-SQUARED SPACING: 0.0625
Info: NONBONDED TABLE SIZE: 705 POINTS
TCL: Setting parameter alchLambda2 to 0.1
Info: NONBONDED TABLE R-SQUARED SPACING: 0.0625
Info: NONBONDED TABLE SIZE: 705 POINTS
TCL: Running for 1500000 steps
ETITLE: TS BOND ANGLE DIHED IMPRP ELECT VDW BOUNDARY MISC KINETIC TOTAL TEMP POTENTIAL TOTALAVG TEMPAVG PRESSURE GPRESSURE VOLUME PRESSAVG GPRESSAVG
ENERGY: 0 4.1864 4.0987 5.1915 0.0000 -10453.1311 1345.4843 0.0000 0.0000 1711.0572 -7383.1130 295.3836 -9094.1702 -7383.1130 295.3836 -736.3697 -643.9585 29858.6289 -736.3697 -643.9585
ENERGY: 300000 1.4854 6.5051 5.1425 0.0000 -10591.4168 1437.5645 0.0000 0.0000 1740.1964 -7400.5229 300.4139 -9140.7193 -7379.5180 298.4520 429.8188 462.1018 29603.2831 4.0642 58.8658
ENERGY: 600000 3.1282 4.8641 6.2413 0.0000 -10533.0349 1396.0505 0.0000 0.0000 1731.1301 -7391.6207 298.8488 -9122.7508 -7396.1226 300.1062 -214.0949 -232.4543 29835.6559 -220.8715 -173.4156
ENERGY: 900000 4.1191 7.5622 4.3703 0.0000 -10751.6900 1532.5482 0.0000 0.0000 1770.6855 -7432.4046 305.6774 -9203.0901 -7395.4699 301.0054 450.6425 562.4951 29869.9157 -117.9676 -63.5393
ENERGY: 1200000 1.9911 6.7167 5.7827 0.0000 -10548.4727 1374.8268 0.0000 0.0000 1692.1550 -7467.0004 292.1204 -9159.1554 -7400.7654 300.6347 -712.0819 -685.0370 30312.8202 -253.8406 -201.5091
ENERGY: 1500000 0.7985 4.1701 6.4465 0.0000 -10537.6687 1438.8942 0.0000 0.0000 1782.7413 -7304.6180 307.7586 -9087.3593 -7395.5105 300.6134 179.2989 295.6945 30121.2085 -250.0999 -194.5908
TCL: Running FEP window   3: Lambda1 0.1    Lambda2 0.15000000000000002 [dLambda 0.05000000000000002]
TCL: Setting parameter firsttimestep to 0
TCL: Setting parameter alchLambda to 0.1
Info: NONBONDED TABLE R-SQUARED SPACING: 0.0625
Info: NONBONDED TABLE SIZE: 705 POINTS
TCL: Setting parameter alchLambda2 to 0.15000000000000002
Info: NONBONDED TABLE R-SQUARED SPACING: 0.0625
Info: NONBONDED TABLE SIZE: 705 POINTS
TCL: Running for 1500000 steps
ETITLE: TS BOND ANGLE DIHED IMPRP ELECT VDW BOUNDARY MISC KINETIC TOTAL TEMP POTENTIAL TOTALAVG TEMPAVG PRESSURE GPRESSURE VOLUME PRESSAVG GPRESSAVG
ENERGY: 0 0.7985 4.1701 6.4465 0.0000 -10537.6706 1439.9611 0.0000 0.0000 1781.8509 -7304.4435 307.6049 -9086.2944 -7304.4435 307.6049 219.4098 301.0798 30121.2085 219.4098 301.0798
ENERGY: 300000 2.5100 9.7353 6.7591 0.0000 -10597.2394 1447.2356 0.0000 0.0000 1706.8567 -7424.1427 294.6584 -9130.9994 -7362.9413 300.5722 230.2401 219.5278 29867.1035 385.2533 423.3052
ENERGY: 600000 1.0924 5.7792 6.0225 0.0000 -10506.0190 1374.6372 0.0000 0.0000 1743.2914 -7375.1962 300.9482 -9118.4876 -7373.7695 301.2498 -111.0912 -115.2164 29618.6580 49.8783 95.0600
ENERGY: 900000 0.6268 6.2581 5.7490 0.0000 -10595.5956 1443.0799 0.0000 0.0000 1753.1415 -7386.7404 302.6487 -9139.8818 -7386.6167 301.5403 21.2890 82.9329 30081.2114 47.0498 97.0183
ENERGY: 1200000 1.8761 5.4572 5.0991 0.0000 -10541.8318 1391.2576 0.0000 0.0000 1798.5417 -7339.6001 310.4862 -9138.1417 -7389.6534 301.3308 -207.2872 -192.4000 29820.6332 -23.1364 30.8792
ENERGY: 1500000 1.4567 4.5289 6.2655 0.0000 -10465.7088 1455.7222 0.0000 0.0000 1740.7698 -7256.9656 300.5129 -8997.7354 -7377.4676 300.9060 495.3280 495.0672 30292.4848 -14.4660 33.8105
TCL: Running FEP window   4: Lambda1 0.15000000000000002 Lambda2 0.2    [dLambda 0.04999999999999999]
TCL: Setting parameter firsttimestep to 0
TCL: Setting parameter alchLambda to 0.15000000000000002
Info: NONBONDED TABLE R-SQUARED SPACING: 0.0625
Info: NONBONDED TABLE SIZE: 705 POINTS
TCL: Setting parameter alchLambda2 to 0.2
Info: NONBONDED TABLE R-SQUARED SPACING: 0.0625
Info: NONBONDED TABLE SIZE: 705 POINTS
TCL: Running for 1500000 steps
ETITLE: TS BOND ANGLE DIHED IMPRP ELECT VDW BOUNDARY MISC KINETIC TOTAL TEMP POTENTIAL TOTALAVG TEMPAVG PRESSURE GPRESSURE VOLUME PRESSAVG GPRESSAVG
ENERGY: 0 1.4567 4.5289 6.2655 0.0000 -10465.7086 1461.4716 0.0000 0.0000 1739.8892 -7252.0967 300.3609 -8991.9859 -7252.0967 300.3609 426.9827 513.1922 30292.4848 426.9827 513.1922
ENERGY: 300000 0.6779 9.6079 5.0405 0.0000 -10493.3939 1397.8540 0.0000 0.0000 1718.4324 -7361.7811 296.6568 -9080.2136 -7373.4052 298.4592 -164.7126 -50.5422 30155.8440 -89.5049 -9.7191
ENERGY: 600000 1.3424 8.6585 5.2469 0.0000 -10458.0823 1435.3693 0.0000 0.0000 1691.1425 -7316.3227 291.9457 -9007.4652 -7366.5103 298.8315 525.2834 567.0431 29875.6915 -22.0986 59.9148
ENERGY: 900000 3.1255 7.1089 5.8845 0.0000 -10532.9459 1421.6294 0.0000 0.0000 1703.9352 -7391.2624 294.1541 -9095.1976 -7390.0660 298.6964 -78.7330 -14.1718 30044.6507 -80.1070 -4.7266
ENERGY: 1200000 0.5130 8.0720 4.6054 0.0000 -10461.8767 1340.4782 0.0000 0.0000 1709.9490 -7398.2592 295.1923 -9108.2082 -7388.9650 298.4001 -595.4022 -478.7418 29696.6896 -152.5119 -73.9303
ENERGY: 1500000 1.7429 4.6421 6.8145 0.0000 -10587.7232 1366.8096 0.0000 0.0000 1752.4824 -7455.2317 302.5349 -9207.7141 -7390.7693 297.7818 -722.0984 -694.0091 30043.4772 -197.1387 -125.9433
TCL: Running FEP window   5: Lambda1 0.2    Lambda2 0.25   [dLambda 0.04999999999999999]
TCL: Setting parameter firsttimestep to 0
TCL: Setting parameter alchLambda to 0.2
Info: NONBONDED TABLE R-SQUARED SPACING: 0.0625
Info: NONBONDED TABLE SIZE: 705 POINTS
TCL: Setting parameter alchLambda2 to 0.25
Info: NONBONDED TABLE R-SQUARED SPACING: 0.0625
Info: NONBONDED TABLE SIZE: 705 POINTS
TCL: Running for 1500000 steps
ETITLE: TS BOND ANGLE DIHED IMPRP ELECT VDW BOUNDARY MISC KINETIC TOTAL TEMP POTENTIAL TOTALAVG TEMPAVG PRESSURE GPRESSURE VOLUME PRESSAVG GPRESSAVG
ENERGY: 0 1.7429 4.6421 6.8145 0.0000 -10587.7244 1366.4958 0.0000 0.0000 1751.6216 -7456.4075 302.3863 -9208.0291 -7456.4075 302.3863 -771.1730 -694.4025 30043.4772 -771.1730 -694.4025
ENERGY: 300000 0.7063 4.1019 5.9171 0.0000 -10667.5851 1496.5352 0.0000 0.0000 1774.1695 -7386.1552 306.2788 -9160.3246 -7412.2657 299.2921 557.9316 636.2252 29574.5318 -304.3258 -219.0204
ENERGY: 600000 1.5145 2.8940 5.5961 0.0000 -10546.5179 1439.9748 0.0000 0.0000 1710.8840 -7385.6545 295.3537 -9096.5385 -7412.6464 299.8244 -122.0013 -85.3340 30491.4596 -160.9425 -87.3916
ENERGY: 900000 1.0381 3.8385 6.5324 0.0000 -10401.0894 1362.8896 0.0000 0.0000 1723.8647 -7302.9260 297.5946 -9026.7908 -7407.5391 299.5673 -282.9626 -186.2670 30136.2837 -159.4479 -96.4557
ENERGY: 1200000 2.2898 6.1499 4.4987 0.0000 -10655.9165 1454.8633 0.0000 0.0000 1693.9750 -7494.1398 292.4346 -9188.1148 -7420.2994 298.3628 304.0497 400.6903 29353.5236 -88.3882 -18.0411
ENERGY: 1500000 0.7484 4.3211 5.8648 0.0000 -10534.5383 1356.3857 0.0000 0.0000 1767.7530 -7399.4655 305.1711 -9167.2184 -7421.9043 298.5470 -656.2603 -608.7263 29892.7153 -22.6930 42.5979
TCL: Running FEP window   6: Lambda1 0.25   Lambda2 0.3    [dLambda 0.04999999999999999]
TCL: Setting parameter firsttimestep to 0
TCL: Setting parameter alchLambda to 0.25
Info: NONBONDED TABLE R-SQUARED SPACING: 0.0625
Info: NONBONDED TABLE SIZE: 705 POINTS
TCL: Setting parameter alchLambda2 to 0.3
Info: NONBONDED TABLE R-SQUARED SPACING: 0.0625
Info: NONBONDED TABLE SIZE: 705 POINTS
TCL: Running for 1500000 steps
ETITLE: TS BOND ANGLE DIHED IMPRP ELECT VDW BOUNDARY MISC KINETIC TOTAL TEMP POTENTIAL TOTALAVG TEMPAVG PRESSURE GPRESSURE VOLUME PRESSAVG GPRESSAVG
ENERGY: 0 0.7484 4.3211 5.8648 0.0000 -10534.5395 1357.5319 0.0000 0.0000 1766.8886 -7399.1847 305.0219 -9166.0733 -7399.1847 305.0219 -682.1979 -600.1875 29892.7153 -682.1979 -600.1875
ENERGY: 300000 2.7848 5.7470 5.7681 0.0000 -10534.1939 1408.9429 0.0000 0.0000 1776.8277 -7334.1233 306.7377 -9110.9510 -7408.2290 302.1421 -110.3560 -33.8120 29931.6187 -202.5641 -130.4438
ENERGY: 600000 5.1670 9.2435 6.5223 0.0000 -10531.6898 1354.0182 0.0000 0.0000 1713.4878 -7443.2509 295.8032 -9156.7387 -7417.1926 298.1968 -643.0720 -586.5471 29792.6822 -258.6246 -197.4367
ENERGY: 900000 2.0293 5.5243 8.9585 0.0000 -10544.2871 1431.3023 0.0000 0.0000 1768.2471 -7328.2257 305.2564 -9096.4728 -7406.3790 299.3815 366.5016 389.0535 29581.4744 -65.4477 -6.1074
ENERGY: 1200000 1.6457 4.5501 7.3796 0.0000 -10616.0025 1496.1319 0.0000 0.0000 1787.1117 -7319.1835 308.5130 -9106.2952 -7395.7772 299.8317 657.2936 663.6179 29741.3155 -89.9166 -36.6464
ENERGY: 1500000 0.2537 5.9065 4.6861 0.0000 -10472.0966 1337.1318 0.0000 0.0000 1719.4285 -7404.6901 296.8287 -9124.1185 -7390.2040 299.6819 -729.3704 -605.0627 29687.5835 -184.3115 -122.0243
TCL: Running FEP window   7: Lambda1 0.3    Lambda2 0.35   [dLambda 0.04999999999999999]
TCL: Setting parameter firsttimestep to 0
TCL: Setting parameter alchLambda to 0.3
Info: NONBONDED TABLE R-SQUARED SPACING: 0.0625
Info: NONBONDED TABLE SIZE: 705 POINTS
TCL: Setting parameter alchLambda2 to 0.35
Info: NONBONDED TABLE R-SQUARED SPACING: 0.0625
Info: NONBONDED TABLE SIZE: 705 POINTS
TCL: Running for 1500000 steps
ETITLE: TS BOND ANGLE DIHED IMPRP ELECT VDW BOUNDARY MISC KINETIC TOTAL TEMP POTENTIAL TOTALAVG TEMPAVG PRESSURE GPRESSURE VOLUME PRESSAVG GPRESSAVG
ENERGY: 0 0.2537 5.9065 4.6861 0.0000 -10472.0959 1336.9246 0.0000 0.0000 1718.5756 -7405.7494 296.6815 -9124.3250 -7405.7494 296.6815 -700.8074 -604.8988 29687.5835 -700.8074 -604.8988
ENERGY: 300000 0.8568 8.0670 4.5256 0.0000 -10562.2231 1454.1993 0.0000 0.0000 1723.8002 -7370.7742 297.5834 -9094.5744 -7369.5753 301.7750 271.4810 304.1425 29938.8268 -101.7727 -10.1331
ENERGY: 600000 1.9940 3.3842 6.1522 0.0000 -10678.3282 1449.6548 0.0000 0.0000 1734.5752 -7482.5679 299.4436 -9217.1431 -7392.7584 301.1689 60.2181 81.4145 29691.1465 24.3485 93.1267
ENERGY: 900000 4.1292 3.8538 4.1791 0.0000 -10613.1528 1472.7096 0.0000 0.0000 1766.2079 -7362.0732 304.9044 -9128.2811 -7376.3859 302.5831 436.4437 457.8662 29797.4109 27.5488 88.4656
ENERGY: 1200000 1.4376 6.8896 5.4034 0.0000 -10396.0292 1302.0604 0.0000 0.0000 1720.5996 -7359.6385 297.0309 -9080.2380 -7389.8801 300.0529 -916.8683 -858.8171 30395.8127 -3.1100 58.9992
ENERGY: 1500000 2.6732 5.3379 5.6088 0.0000 -10568.5157 1435.3806 0.0000 0.0000 1792.7119 -7326.8033 309.4798 -9119.5152 -7395.3403 300.2400 308.7684 325.3990 29633.2434 -11.5048 49.4099
TCL: Running FEP window   8: Lambda1 0.35   Lambda2 0.39999999999999997 [dLambda 0.04999999999999999]
TCL: Setting parameter firsttimestep to 0
TCL: Setting parameter alchLambda to 0.35
Info: NONBONDED TABLE R-SQUARED SPACING: 0.0625
Info: NONBONDED TABLE SIZE: 705 POINTS
TCL: Setting parameter alchLambda2 to 0.39999999999999997
Info: NONBONDED TABLE R-SQUARED SPACING: 0.0625
Info: NONBONDED TABLE SIZE: 705 POINTS
TCL: Running for 1500000 steps
ETITLE: TS BOND ANGLE DIHED IMPRP ELECT VDW BOUNDARY MISC KINETIC TOTAL TEMP POTENTIAL TOTALAVG TEMPAVG PRESSURE GPRESSURE VOLUME PRESSAVG GPRESSAVG
ENERGY: 0 2.6732 5.3379 5.6088 0.0000 -10568.5155 1436.1815 0.0000 0.0000 1791.8538 -7326.8604 309.3317 -9118.7141 -7326.8604 309.3317 261.3358 338.8863 29633.2434 261.3358 338.8863
ENERGY: 300000 0.5956 3.0683 6.2906 0.0000 -10544.4635 1416.3751 0.0000 0.0000 1703.1651 -7414.9688 294.0212 -9118.1339 -7359.0307 302.1984 84.4755 120.4039 29695.2632 252.1294 309.6745
ENERGY: 600000 1.6701 6.0800 4.6782 0.0000 -10621.2338 1408.5044 0.0000 0.0000 1764.6203 -7435.6807 304.6303 -9200.3010 -7385.7239 301.4655 -408.4294 -365.1422 30142.6649 161.4594 216.6751
ENERGY: 900000 0.8851 5.6718 4.7381 0.0000 -10635.0696 1450.0146 0.0000 0.0000 1717.6287 -7456.1312 296.5180 -9173.7599 -7404.4052 299.9839 202.3030 265.6186 29694.3860 117.7816 181.0988
ENERGY: 1200000 2.8631 3.9948 6.1598 0.0000 -10546.2260 1356.8165 0.0000 0.0000 1735.8912 -7440.5006 299.6707 -9176.3919 -7411.4166 299.2922 -493.9917 -421.8968 29713.8610 -12.5517 54.5227
ENERGY: 1500000 1.0201 5.3398 4.8906 0.0000 -10639.0560 1435.2652 0.0000 0.0000 1730.4056 -7462.1347 298.7237 -9192.5403 -7422.9110 298.0003 172.0106 159.5074 29646.8091 -10.2280 51.7615
TCL: Running FEP window   9: Lambda1 0.39999999999999997 Lambda2 0.44999999999999996 [dLambda 0.04999999999999999]
TCL: Setting parameter firsttimestep to 0
TCL: Setting parameter alchLambda to 0.39999999999999997
Info: NONBONDED TABLE R-SQUARED SPACING: 0.0625
Info: NONBONDED TABLE SIZE: 705 POINTS
TCL: Setting parameter alchLambda2 to 0.44999999999999996
Info: NONBONDED TABLE R-SQUARED SPACING: 0.0625
Info: NONBONDED TABLE SIZE: 705 POINTS
TCL: Running for 1500000 steps
ETITLE: TS BOND ANGLE DIHED IMPRP ELECT VDW BOUNDARY MISC KINETIC TOTAL TEMP POTENTIAL TOTALAVG TEMPAVG PRESSURE GPRESSURE VOLUME PRESSAVG GPRESSAVG
ENERGY: 0 1.0201 5.3398 4.8906 0.0000 -10639.0553 1435.3412 0.0000 0.0000 1729.5708 -7462.8929 298.5796 -9192.4637 -7462.8929 298.5796 77.2029 167.2470 29646.8091 77.2029 167.2470
ENERGY: 300000 2.2425 2.4314 4.6931 0.0000 -10357.7108 1305.4815 0.0000 0.0000 1786.2822 -7256.5802 308.3698 -9042.8624 -7367.9352 302.5069 -592.7705 -499.4660 29927.6021 49.8650 110.8317
ENERGY: 600000 1.7523 7.3212 5.1792 0.0000 -10628.4595 1426.8188 0.0000 0.0000 1752.1910 -7435.1969 302.4846 -9187.3878 -7373.7995 302.9172 -87.6804 -32.4431 29667.7171 -118.9444 -58.1805
ENERGY: 900000 4.4916 5.4149 5.4352 0.0000 -10486.5662 1390.6329 0.0000 0.0000 1735.7121 -7344.8794 299.6398 -9080.5916 -7386.0828 302.5939 -402.2533 -317.9857 30036.1334 -129.2687 -72.7097
ENERGY: 1200000 1.2204 6.9536 5.9863 0.0000 -10572.6801 1446.3104 0.0000 0.0000 1822.4265 -7289.7829 314.6095 -9112.2094 -7383.7673 303.3136 468.3672 427.1678 29654.9052 -45.6671 2.8052
ENERGY: 1500000 0.9129 6.6970 6.3876 0.0000 -10616.8845 1495.7828 0.0000 0.0000 1705.4678 -7401.6363 294.4187 -9107.1041 -7389.8452 301.8382 575.3135 710.9385 29741.7477 -10.5602 50.3263
TCL: Running FEP window  10: Lambda1 0.44999999999999996 Lambda2 0.49999999999999994 [dLambda 0.04999999999999999]
TCL: Setting parameter firsttimestep to 0
TCL: Setting parameter alchLambda to 0.44999999999999996
Info: NONBONDED TABLE R-SQUARED SPACING: 0.0625
Info: NONBONDED TABLE SIZE: 705 POINTS
TCL: Setting parameter alchLambda2 to 0.49999999999999994
Info: NONBONDED TABLE R-SQUARED SPACING: 0.0625
Info: NONBONDED TABLE SIZE: 705 POINTS
TCL: Running for 1500000 steps
ETITLE: TS BOND ANGLE DIHED IMPRP ELECT VDW BOUNDARY MISC KINETIC TOTAL TEMP POTENTIAL TOTALAVG TEMPAVG PRESSURE GPRESSURE VOLUME PRESSAVG GPRESSAVG
ENERGY: 0 0.9129 6.6970 6.3876 0.0000 -10616.8846 1495.8571 0.0000 0.0000 1704.5697 -7402.4602 294.2636 -9107.0299 -7402.4602 294.2636 644.8046 716.8950 29741.7477 644.8046 716.8950
ENERGY: 300000 0.2946 4.5636 6.1147 0.0000 -10524.4085 1396.3234 0.0000 0.0000 1741.2718 -7375.8405 300.5996 -9117.1122 -7403.7579 298.6425 -73.5835 -28.8758 29755.2497 -55.8120 -14.8949
ENERGY: 600000 2.9877 3.9258 7.2278 0.0000 -10589.4097 1445.1638 0.0000 0.0000 1762.8575 -7367.2469 304.3260 -9130.1044 -7405.4939 298.7739 250.4750 307.1326 30151.1999 -132.7309 -91.1776
ENERGY: 900000 1.2319 5.5898 5.8913 0.0000 -10538.0084 1443.1996 0.0000 0.0000 1760.2245 -7321.8712 303.8714 -9082.0957 -7396.2338 300.2536 372.2112 399.0781 30028.6315 -88.9209 -40.0463
ENERGY: 1200000 2.5916 7.4486 4.0684 0.0000 -10569.0895 1388.1625 0.0000 0.0000 1678.6121 -7488.2064 289.7825 -9166.8185 -7403.3864 298.6688 -89.0960 -86.6002 29633.0373 -120.9366 -69.3676
ENERGY: 1500000 3.2649 4.9223 4.8751 0.0000 -10681.0874 1446.9753 0.0000 0.0000 1730.3119 -7490.7380 298.7076 -9221.0498 -7403.2924 298.9686 -406.4533 -321.1823 30289.9305 -158.0110 -101.8181
TCL: Running FEP window  11: Lambda1 0.49999999999999994 Lambda2 0.5499999999999999 [dLambda 0.04999999999999999]
TCL: Setting parameter firsttimestep to 0
TCL: Setting parameter alchLambda to 0.49999999999999994
Info: NONBONDED TABLE R-SQUARED SPACING: 0.0625
Info: NONBONDED TABLE SIZE: 705 POINTS
TCL: Setting parameter alchLambda2 to 0.5499999999999999
Info: NONBONDED TABLE R-SQUARED SPACING: 0.0625
Info: NONBONDED TABLE SIZE: 705 POINTS
TCL: Running for 1500000 steps
ETITLE: TS BOND ANGLE DIHED IMPRP ELECT VDW BOUNDARY MISC KINETIC TOTAL TEMP POTENTIAL TOTALAVG TEMPAVG PRESSURE GPRESSURE VOLUME PRESSAVG GPRESSAVG
ENERGY: 0 3.2649 4.9223 4.8751 0.0000 -10681.0875 1447.1096 0.0000 0.0000 1729.4534 -7491.4622 298.5594 -9220.9157 -7491.4622 298.5594 -399.9329 -314.0049 30289.9305 -399.9329 -314.0049
ENERGY: 300000 0.2613 7.4319 5.6731 0.0000 -10705.0854 1503.0201 0.0000 0.0000 1767.5651 -7421.1339 305.1387 -9188.6990 -7425.4417 302.8488 352.4674 424.8690 30167.9989 -73.3265 0.1041
ENERGY: 600000 0.5993 4.2152 5.4757 0.0000 -10596.6010 1494.4154 0.0000 0.0000 1729.1688 -7362.7265 298.5102 -9091.8954 -7408.9990 300.9275 529.1371 613.2764 29913.7448 -45.4654 29.1428
ENERGY: 900000 2.9887 4.3074 4.8585 0.0000 -10582.9975 1435.1551 0.0000 0.0000 1823.9002 -7311.7876 314.8639 -9135.6878 -7395.8510 301.0930 94.0594 150.3348 30109.6017 -60.3550 7.3011
ENERGY: 1200000 1.2917 7.3530 4.7136 0.0000 -10477.8145 1409.0039 0.0000 0.0000 1703.7237 -7351.7287 294.1176 -9055.4524 -7390.9394 301.2606 -131.1717 -35.7520 30313.1628 -106.7127 -35.6327
ENERGY: 1500000 0.5805 3.8561 6.3859 0.0000 -10394.6581 1358.0858 0.0000 0.0000 1743.9452 -7281.8045 301.0611 -9025.7497 -7384.1232 301.1974 -332.9610 -273.8434 30269.8434 -151.9926 -86.8897
TCL: Running FEP window  12: Lambda1 0.5499999999999999 Lambda2 0.6    [dLambda 0.050000000000000044]
TCL: Setting parameter firsttimestep to 0
TCL: Setting parameter alchLambda to 0.5499999999999999
Info: NONBONDED TABLE R-SQUARED SPACING: 0.0625
Info: NONBONDED TABLE SIZE: 705 POINTS
TCL: Setting parameter alchLambda2 to 0.6
Info: NONBONDED TABLE R-SQUARED SPACING: 0.0625
Info: NONBONDED TABLE SIZE: 705 POINTS
TCL: Running for 1500000 steps
ETITLE: TS BOND ANGLE DIHED IMPRP ELECT VDW BOUNDARY MISC KINETIC TOTAL TEMP POTENTIAL TOTALAVG TEMPAVG PRESSURE GPRESSURE VOLUME PRESSAVG GPRESSAVG
ENERGY: 0 0.5805 3.8561 6.3859 0.0000 -10395.2549 1358.0778 0.0000 0.0000 1743.1128 -7283.2418 300.9174 -9026.3546 -7283.2418 300.9174 -354.2611 -272.5202 30269.8434 -354.2611 -272.5202
ENERGY: 300000 2.8353 5.1727 5.7512 0.0000 -10476.6631 1338.4129 0.0000 0.0000 1753.6468 -7370.8442 302.7359 -9124.4910 -7399.1705 301.0734 -633.7855 -595.5221 30080.2275 -421.1295 -353.1945
ENERGY: 600000 1.8534 7.2622 6.8595 0.0000 -10453.7362 1386.9418 0.0000 0.0000 1756.9915 -7293.8277 303.3133 -9050.8193 -7403.9305 300.4817 -42.4429 30.7412 30215.7215 -328.9188 -270.8786
ENERGY: 900000 2.0189 9.4881 5.0510 0.0000 -10656.5475 1468.0896 0.0000 0.0000 1684.5028 -7487.3972 290.7994 -9171.8999 -7403.6054 299.4647 56.8277 156.8813 30011.6433 -226.1204 -156.5955
ENERGY: 1200000 1.1661 5.7374 4.6377 0.0000 -10658.2455 1505.4330 0.0000 0.0000 1708.9767 -7432.2945 295.0244 -9141.2712 -7406.2437 299.7109 779.8074 875.2710 29618.1446 -239.8505 -177.5740
ENERGY: 1500000 1.4400 7.0781 5.1318 0.0000 -10447.6533 1358.7041 0.0000 0.0000 1730.8578 -7344.4415 298.8018 -9075.2992 -7402.8255 299.4942 -475.3904 -471.5735 30140.7785 -272.9050 -213.8829
TCL: Running FEP window  13: Lambda1 0.6    Lambda2 0.65   [dLambda 0.050000000000000044]
TCL: Setting parameter firsttimestep to 0
TCL: Setting parameter alchLambda to 0.6
Info: NONBONDED TABLE R-SQUARED SPACING: 0.0625
Info: NONBONDED TABLE SIZE: 705 POINTS
TCL: Setting parameter alchLambda2 to 0.65
Info: NONBONDED TABLE R-SQUARED SPACING: 0.0625
Info: NONBONDED TABLE SIZE: 705 POINTS
TCL: Running for 1500000 steps
ETITLE: TS BOND ANGLE DIHED IMPRP ELECT VDW BOUNDARY MISC KINETIC TOTAL TEMP POTENTIAL TOTALAVG TEMPAVG PRESSURE GPRESSURE VOLUME PRESSAVG GPRESSAVG
ENERGY: 0 1.4400 7.0781 5.1318 0.0000 -10447.9684 1358.9223 0.0000 0.0000 1730.0062 -7345.3900 298.6548 -9075.3962 -7345.3900 298.6548 -546.9476 -465.6255 30140.7785 -546.9476 -465.6255
ENERGY: 300000 0.4665 4.9873 5.3152 0.0000 -10432.2414 1294.1433 0.0000 0.0000 1745.8194 -7381.5097 301.3847 -9127.3291 -7380.3612 299.0580 -1320.7169 -1205.7132 30529.1255 -474.8560 -385.0328
ENERGY: 600000 0.9269 7.5982 5.0692 0.0000 -10436.6155 1337.1347 0.0000 0.0000 1739.9859 -7345.9006 300.3776 -9085.8866 -7389.6357 299.1874 -607.3336 -533.6608 29946.4998 -284.4517 -209.1500
ENERGY: 900000 5.6478 7.3666 6.9510 0.0000 -10483.8081 1359.5083 0.0000 0.0000 1761.3416 -7342.9928 304.0643 -9104.3344 -7388.2861 299.5802 -598.2041 -571.7302 30291.5300 -297.1653 -229.3978
ENERGY: 1200000 0.7257 7.6896 4.4904 0.0000 -10559.4003 1376.1660 0.0000 0.0000 1777.6385 -7392.6901 306.8777 -9170.3286 -7395.4025 300.1115 -433.8182 -357.7181 30017.2734 -278.9974 -206.9312
ENERGY: 1500000 1.3557 8.4679 5.1651 0.0000 -10628.2115 1449.2483 0.0000 0.0000 1752.3227 -7411.6518 302.5073 -9163.9745 -7404.7478 299.8650 253.9031 287.1228 29807.9853 -220.2977 -159.0020
TCL: Running FEP window  14: Lambda1 0.65   Lambda2 0.7000000000000001 [dLambda 0.050000000000000044]
TCL: Setting parameter firsttimestep to 0
TCL: Setting parameter alchLambda to 0.65
Info: NONBONDED TABLE R-SQUARED SPACING: 0.0625
Info: NONBONDED TABLE SIZE: 705 POINTS
TCL: Setting parameter alchLambda2 to 0.7000000000000001
Info: NONBONDED TABLE R-SQUARED SPACING: 0.0625
Info: NONBONDED TABLE SIZE: 705 POINTS
TCL: Running for 1500000 steps
ETITLE: TS BOND ANGLE DIHED IMPRP ELECT VDW BOUNDARY MISC KINETIC TOTAL TEMP POTENTIAL TOTALAVG TEMPAVG PRESSURE GPRESSURE VOLUME PRESSAVG GPRESSAVG
ENERGY: 0 1.3557 8.4679 5.1651 0.0000 -10628.9525 1449.4270 0.0000 0.0000 1751.4737 -7413.0630 302.3608 -9164.5367 -7413.0630 302.3608 220.6475 295.7403 29807.9853 220.6475 295.7403
ENERGY: 300000 0.7885 2.9414 4.5152 0.0000 -10496.2926 1410.0953 0.0000 0.0000 1789.2549 -7288.6972 308.8830 -9077.9521 -7352.9885 305.0194 184.2834 189.4151 29994.8294 238.3669 284.8562
ENERGY: 600000 1.5931 5.1452 4.7544 0.0000 -10474.7036 1383.1420 0.0000 0.0000 1664.8302 -7415.2387 287.4033 -9080.0689 -7362.6921 303.5175 -226.8939 -236.3651 30089.2822 76.7887 125.2392
ENERGY: 900000 1.7700 4.3235 5.0047 0.0000 -10354.0992 1340.1013 0.0000 0.0000 1728.4033 -7274.4965 298.3781 -9002.8997 -7351.4877 302.8171 -555.4488 -504.9803 30624.1735 35.8629 89.8854
ENERGY: 1200000 2.6621 8.3576 6.0465 0.0000 -10546.6216 1451.1968 0.0000 0.0000 1725.0789 -7353.2797 297.8042 -9078.3586 -7354.1409 302.3321 310.0067 385.1223 30118.5296 159.8712 217.2508
ENERGY: 1500000 3.8077 5.3540 4.7815 0.0000 -10506.7185 1343.7437 0.0000 0.0000 1723.4119 -7425.6197 297.5164 -9149.0316 -7358.1238 301.9190 -746.4679 -688.4735 29946.1445 71.7830 127.2787
TCL: Running FEP window  15: Lambda1 0.7000000000000001 Lambda2 0.7500000000000001 [dLambda 0.050000000000000044]
TCL: Setting parameter firsttimestep to 0
TCL: Setting parameter alchLambda to 0.7000000000000001
Info: NONBONDED TABLE R-SQUARED SPACING: 0.0625
Info: NONBONDED TABLE SIZE: 705 POINTS
TCL: Setting parameter alchLambda2 to 0.7500000000000001
Info: NONBONDED TABLE R-SQUARED SPACING: 0.0625
Info: NONBONDED TABLE SIZE: 705 POINTS
TCL: Running for 1500000 steps
ETITLE: TS BOND ANGLE DIHED IMPRP ELECT VDW BOUNDARY MISC KINETIC TOTAL TEMP POTENTIAL TOTALAVG TEMPAVG PRESSURE GPRESSURE VOLUME PRESSAVG GPRESSAVG
ENERGY: 0 3.8077 5.3540 4.7815 0.0000 -10507.4551 1343.2931 0.0000 0.0000 1722.5285 -7427.6905 297.3639 -9150.2189 -7427.6905 297.3639 -762.3424 -686.8409 29946.1445 -762.3424 -686.8409
ENERGY: 300000 0.8895 6.9198 6.7381 0.0000 -10573.4716 1391.6722 0.0000 0.0000 1733.4128 -7433.8391 299.2429 -9167.2519 -7412.4439 296.4354 -346.3000 -257.2867 29787.2120 -197.0612 -149.9576
ENERGY: 600000 1.5349 5.1976 6.0607 0.0000 -10486.0136 1363.5016 0.0000 0.0000 1764.6168 -7345.1020 304.6297 -9109.7188 -7413.7986 299.6933 -412.8977 -336.7087 30202.5351 -184.7135 -131.5771
ENERGY: 900000 0.3164 5.0722 5.8799 0.0000 -10558.1239 1394.8611 0.0000 0.0000 1747.2105 -7404.7838 301.6248 -9151.9943 -7413.1099 299.0937 191.9317 276.6691 29374.1862 -160.4302 -93.4518
ENERGY: 1200000 2.3123 6.1923 5.2117 0.0000 -10567.4395 1435.9586 0.0000 0.0000 1725.5460 -7392.2185 297.8848 -9117.7645 -7407.3183 299.5363 209.3630 309.3625 29892.5037 -117.6423 -54.4173
ENERGY: 1500000 1.0241 5.4057 4.7951 0.0000 -10550.1975 1411.3244 0.0000 0.0000 1695.5298 -7432.1184 292.7031 -9127.6481 -7418.1857 298.7483 -57.2736 -30.5528 29925.5264 -52.7998 3.7052
TCL: Running FEP window  16: Lambda1 0.7500000000000001 Lambda2 0.8000000000000002 [dLambda 0.050000000000000044]
TCL: Setting parameter firsttimestep to 0
TCL: Setting parameter alchLambda to 0.7500000000000001
Info: NONBONDED TABLE R-SQUARED SPACING: 0.0625
Info: NONBONDED TABLE SIZE: 705 POINTS
TCL: Setting parameter alchLambda2 to 0.8000000000000002
Info: NONBONDED TABLE R-SQUARED SPACING: 0.0625
Info: NONBONDED TABLE SIZE: 705 POINTS
TCL: Running for 1500000 steps
ETITLE: TS BOND ANGLE DIHED IMPRP ELECT VDW BOUNDARY MISC KINETIC TOTAL TEMP POTENTIAL TOTALAVG TEMPAVG PRESSURE GPRESSURE VOLUME PRESSAVG GPRESSAVG
ENERGY: 0 1.0241 5.4057 4.7951 0.0000 -10550.7941 1411.4543 0.0000 0.0000 1694.6773 -7433.4376 292.5559 -9128.1148 -7433.4376 292.5559 -101.6760 -22.7493 29925.5264 -101.6760 -22.7493
ENERGY: 300000 1.5794 6.4843 4.4564 0.0000 -10700.9421 1414.6119 0.0000 0.0000 1671.5822 -7602.2279 288.5689 -9273.8102 -7459.9864 296.6055 -412.8011 -433.1736 29971.6770 -235.4108 -169.3211
ENERGY: 600000 0.3520 5.7864 4.4767 0.0000 -10612.4392 1418.9455 0.0000 0.0000 1710.3211 -7472.5576 295.2565 -9182.8786 -7465.5715 295.6317 -162.0106 -80.9219 30053.7741 -174.7040 -111.7112
ENERGY: 900000 1.1600 6.1912 6.2285 0.0000 -10559.1304 1483.3792 0.0000 0.0000 1690.9369 -7371.2345 291.9102 -9062.1714 -7446.1974 295.7711 574.6348 656.4697 30413.4789 -63.4549 -4.2993
ENERGY: 1200000 0.3069 4.7000 5.0514 0.0000 -10553.3082 1405.9924 0.0000 0.0000 1760.5693 -7376.6882 303.9310 -9137.2575 -7434.9677 297.2720 -51.4313 87.4037 29831.2174 -60.1976 2.9282
ENERGY: 1500000 0.7704 6.9148 4.0801 0.0000 -10520.1891 1368.7897 0.0000 0.0000 1722.8021 -7416.8320 297.4111 -9139.6341 -7428.2537 297.4898 -421.0845 -324.9347 29946.4664 -126.8476 -60.5227
TCL: Running FEP window  17: Lambda1 0.8000000000000002 Lambda2 0.8500000000000002 [dLambda 0.050000000000000044]
TCL: Setting parameter firsttimestep to 0
TCL: Setting parameter alchLambda to 0.8000000000000002
Info: NONBONDED TABLE R-SQUARED SPACING: 0.0625
Info: NONBONDED TABLE SIZE: 705 POINTS
TCL: Setting parameter alchLambda2 to 0.8500000000000002
Info: NONBONDED TABLE R-SQUARED SPACING: 0.0625
Info: NONBONDED TABLE SIZE: 705 POINTS
TCL: Running for 1500000 steps
ETITLE: TS BOND ANGLE DIHED IMPRP ELECT VDW BOUNDARY MISC KINETIC TOTAL TEMP POTENTIAL TOTALAVG TEMPAVG PRESSURE GPRESSURE VOLUME PRESSAVG GPRESSAVG
ENERGY: 0 0.7704 6.9148 4.0801 0.0000 -10520.5009 1369.1020 0.0000 0.0000 1721.9437 -7417.6898 297.2630 -9139.6336 -7417.6898 297.2630 -396.1318 -313.1535 29946.4664 -396.1318 -313.1535
ENERGY: 300000 2.3702 4.3494 4.8507 0.0000 -10593.6035 1463.3499 0.0000 0.0000 1784.3033 -7334.3799 308.0282 -9118.6832 -7386.3541 304.3728 423.7973 494.3419 30116.4704 46.1321 94.4008
ENERGY: 600000 0.3669 5.6936 4.7033 0.0000 -10667.3197 1514.7550 0.0000 0.0000 1721.3179 -7420.4830 297.1549 -9141.8009 -7390.2956 301.3124 1009.3078 1076.2817 29462.7059 207.3455 263.0778
ENERGY: 900000 0.8145 4.0231 7.8666 0.0000 -10712.9375 1491.5071 0.0000 0.0000 1774.9287 -7433.7974 306.4099 -9208.7261 -7393.6771 302.3774 285.2930 356.3442 30073.7271 67.2595 133.2451
ENERGY: 1200000 1.7855 2.9043 4.6826 0.0000 -10541.6517 1418.7717 0.0000 0.0000 1727.3834 -7386.1242 298.2020 -9113.5076 -7395.5142 301.7800 -14.5098 80.1707 30113.9172 56.3887 130.3209
ENERGY: 1500000 2.6230 9.9933 6.5805 0.0000 -10706.7449 1485.7280 0.0000 0.0000 1695.4353 -7506.3847 292.6867 -9201.8201 -7391.6139 301.8002 216.5083 306.7990 29811.8727 21.2529 96.2197
TCL: Running FEP window  18: Lambda1 0.8500000000000002 Lambda2 0.9000000000000002 [dLambda 0.050000000000000044]
TCL: Setting parameter firsttimestep to 0
TCL: Setting parameter alchLambda to 0.8500000000000002
Info: NONBONDED TABLE R-SQUARED SPACING: 0.0625
Info: NONBONDED TABLE SIZE: 705 POINTS
TCL: Setting parameter alchLambda2 to 0.9000000000000002
Info: NONBONDED TABLE R-SQUARED SPACING: 0.0625
Info: NONBONDED TABLE SIZE: 705 POINTS
TCL: Running for 1500000 steps
ETITLE: TS BOND ANGLE DIHED IMPRP ELECT VDW BOUNDARY MISC KINETIC TOTAL TEMP POTENTIAL TOTALAVG TEMPAVG PRESSURE GPRESSURE VOLUME PRESSAVG GPRESSAVG
ENERGY: 0 2.6230 9.9933 6.5805 0.0000 -10708.4242 1486.5130 0.0000 0.0000 1694.5664 -7508.1479 292.5367 -9202.7143 -7508.1479 292.5367 240.6217 319.7062 29811.8727 240.6217 319.7062
ENERGY: 300000 1.3185 5.6220 6.1268 0.0000 -10505.0617 1419.8761 0.0000 0.0000 1718.5700 -7353.5483 296.6805 -9072.1182 -7403.3590 298.9691 149.4325 199.1423 29972.5269 -32.4991 7.1235
ENERGY: 600000 0.6964 6.7866 5.4065 0.0000 -10522.2036 1394.8852 0.0000 0.0000 1771.9225 -7342.5065 305.8909 -9114.4289 -7404.2066 300.4621 -92.0088 -22.0966 30013.7839 -323.8962 -280.0186
ENERGY: 900000 2.2366 3.5139 6.4405 0.0000 -10528.0732 1396.4654 0.0000 0.0000 1742.8437 -7376.5731 300.8710 -9119.4167 -7399.6234 301.4239 -45.8726 -31.6631 29917.2084 -142.0625 -87.2857
ENERGY: 1200000 2.4725 6.3732 4.8205 0.0000 -10490.1898 1344.5606 0.0000 0.0000 1730.5927 -7401.3703 298.7560 -9131.9631 -7395.2156 302.2860 -994.2146 -942.4304 30656.8250 -253.8133 -198.8984
ENERGY: 1500000 2.6824 7.3079 4.7998 0.0000 -10596.2369 1449.0682 0.0000 0.0000 1714.4705 -7417.9081 295.9728 -9132.3786 -7398.8482 301.3632 370.4623 410.0239 29733.2608 -101.3163 -42.3683
TCL: Running FEP window  19: Lambda1 0.9000000000000002 Lambda2 0.9500000000000003 [dLambda 0.050000000000000044]
TCL: Setting parameter firsttimestep to 0
TCL: Setting parameter alchLambda to 0.9000000000000002
Info: NONBONDED TABLE R-SQUARED SPACING: 0.0625
Info: NONBONDED TABLE SIZE: 705 POINTS
TCL: Setting parameter alchLambda2 to 0.9500000000000003
Info: NONBONDED TABLE R-SQUARED SPACING: 0.0625
Info: NONBONDED TABLE SIZE: 705 POINTS
TCL: Running for 1500000 steps
ETITLE: TS BOND ANGLE DIHED IMPRP ELECT VDW BOUNDARY MISC KINETIC TOTAL TEMP POTENTIAL TOTALAVG TEMPAVG PRESSURE GPRESSURE VOLUME PRESSAVG GPRESSAVG
ENERGY: 0 2.6824 7.3079 4.7998 0.0000 -10597.1636 1450.8001 0.0000 0.0000 1713.5924 -7417.9810 295.8212 -9131.5734 -7417.9810 295.8212 364.7069 440.0500 29733.2608 364.7069 440.0500
ENERGY: 300000 1.3503 3.6775 4.8872 0.0000 -10639.6028 1468.4031 0.0000 0.0000 1754.5300 -7406.7546 302.8884 -9161.2846 -7389.8580 300.5700 388.3131 446.5045 30089.1301 139.0784 225.8169
ENERGY: 600000 1.1960 6.3790 4.8165 0.0000 -10503.6707 1381.5670 0.0000 0.0000 1756.6656 -7353.0466 303.2571 -9109.7122 -7377.5797 302.4965 -81.1317 -56.9306 29993.4001 -74.1574 6.2312
ENERGY: 900000 2.1875 6.0052 5.2662 0.0000 -10560.6657 1400.9337 0.0000 0.0000 1779.6884 -7366.5848 307.2315 -9146.2732 -7379.3548 303.6858 -343.3507 -232.5214 30051.6061 32.9061 113.7051
ENERGY: 1200000 1.7589 4.9615 4.2387 0.0000 -10606.8927 1510.7522 0.0000 0.0000 1761.5274 -7323.6538 304.0964 -9085.1813 -7378.9558 303.2972 1020.1234 1081.8287 29650.5252 169.6851 254.5501
ENERGY: 1500000 4.0412 6.5080 5.1186 0.0000 -10525.9202 1458.2252 0.0000 0.0000 1693.8214 -7358.2058 292.4081 -9052.0273 -7377.3859 302.3630 72.0639 102.1070 30650.1742 92.0148 170.6790
TCL: Running FEP window  20: Lambda1 0.9500000000000003 Lambda2 1.0    [dLambda 0.04999999999999971]
TCL: Setting parameter firsttimestep to 0
TCL: Setting parameter alchLambda to 0.9500000000000003
Info: NONBONDED TABLE R-SQUARED SPACING: 0.0625
Info: NONBONDED TABLE SIZE: 705 POINTS
TCL: Setting parameter alchLambda2 to 1.0
Info: NONBONDED TABLE R-SQUARED SPACING: 0.0625
Info: NONBONDED TABLE SIZE: 705 POINTS
TCL: Running for 1500000 steps
ETITLE: TS BOND ANGLE DIHED IMPRP ELECT VDW BOUNDARY MISC KINETIC TOTAL TEMP POTENTIAL TOTALAVG TEMPAVG PRESSURE GPRESSURE VOLUME PRESSAVG GPRESSAVG
ENERGY: 0 4.0412 6.5080 5.1186 0.0000 -10527.0066 1458.9050 0.0000 0.0000 1692.9510 -7359.4829 292.2579 -9052.4338 -7359.4829 292.2579 42.6771 121.0996 30650.1742 42.6771 121.0996
ENERGY: 300000 1.5390 9.9608 4.1086 0.0000 -10613.5256 1435.4660 0.0000 0.0000 1668.1455 -7494.3056 287.9756 -9162.4511 -7429.1506 296.1350 16.5036 73.3344 29939.9421 63.1489 139.0097
ENERGY: 600000 1.0241 8.5124 9.5448 0.0000 -10586.5000 1375.6785 0.0000 0.0000 1745.6261 -7446.1139 301.3513 -9191.7401 -7435.8139 299.2097 -528.6144 -394.7837 29758.8070 -32.5873 44.9281
ENERGY: 900000 0.7026 4.1337 5.9233 0.0000 -10524.4020 1312.2445 0.0000 0.0000 1754.4014 -7446.9965 302.8662 -9201.3979 -7427.7488 300.1536 -1017.5680 -927.1855 29836.0008 -168.9972 -84.7152
ENERGY: 1200000 0.2971 4.5024 5.5155 0.0000 -10564.5263 1422.0174 0.0000 0.0000 1772.7972 -7359.3967 306.0419 -9132.1939 -7416.8592 300.2872 273.1748 364.4400 29509.4571 -102.0470 -15.9847
ENERGY: 1500000 1.1570 5.0129 6.8196 0.0000 -10673.4993 1451.6162 0.0000 0.0000 1745.9341 -7462.9596 301.4045 -9208.8937 -7411.1119 300.6381 211.2935 233.3433 29605.5243 -63.4957 17.0308
TCL: Exiting due to exit command.
