Info: SIMULATION PARAMETERS:
Info: TIMESTEP               2
Info: NUMBER OF STEPS        0
Info: STEPS PER CYCLE        10
Info: PERIODIC CELL BASIS 1  30.4866 0 0
Info: PERIODIC CELL BASIS 2  0 29.8939 0
Info: PERIODIC CELL BASIS 3  0 0 33.3778
Info: PERIODIC CELL CENTER   0 0 0
Info: WRAPPING WATERS AROUND PERIODIC BOUNDARIES ON OUTPUT.
Info: WRAPPING ALL CLUSTERS AROUND PERIODIC BOUNDARIES ON OUTPUT.
Info: FIRST LDB TIMESTEP     50
Info: LAST LDB TIMESTEP     -1
Info: HOM BACKGROUND SCALING 1
Info: PME BACKGROUND SCALING 1
Info: MIN ATOMS PER PATCH    40
Info: EMPTY PATCH LOAD       40 ATOMS
Info: VELOCITY FILE          mobley_8127829_equil.vel
Info: CENTER OF MASS MOVING INITIALLY? NO
Info: DIELECTRIC             1
Info: EXCLUDE                SCALED ONE-FOUR
Info: 1-4 ELECTROSTATICS SCALED BY 0.833333
Info: MODIFIED 1-4 VDW PARAMETERS WILL BE USED
Info: DCD FILENAME           mobley_8127829_prod.dcd
Info: DCD FREQUENCY          100000
Info: DCD FIRST STEP         100000
Info: DCD FILE WILL CONTAIN UNIT CELL DATA
Info: XST FILENAME           mobley_8127829_prod.xst
Info: XST FREQUENCY          100000
Info: NO VELOCITY DCD OUTPUT
Info: NO FORCE DCD OUTPUT
Info: OUTPUT FILENAME        mobley_8127829_prod
Info: BINARY OUTPUT FILES WILL BE USED
Info: RESTART FILENAME       mobley_8127829_prod.restart
Info: RESTART FREQUENCY      100000
Info: BINARY RESTART FILES WILL BE USED
Info: CUTOFF                 9
Info: PAIRLIST DISTANCE      11
Info: PAIRLIST SHRINK RATE   0.01
Info: PAIRLIST GROW RATE     0.01
Info: PAIRLIST TRIGGER       0.3
Info: PAIRLISTS PER CYCLE    2
Info: PAIRLISTS ENABLED
Info: MARGIN                 2
Info: HYDROGEN GROUP CUTOFF  2.5
Info: PATCH DIMENSION        15.5
Info: ENERGY OUTPUT STEPS    100000
Info: ENERGY EVALUATION STEPS    100000
Info: OUTPUT ENERGY PRECISION 4
Info: CROSSTERM ENERGY INCLUDED IN DIHEDRAL
Info: TIMING OUTPUT STEPS    1000000
Info: PRESSURE OUTPUT STEPS  100000
Info: ALCHEMICAL FEP ON
Info: FEP CURRENT LAMBDA VALUE     0
Info: FEP COMPARISON LAMBDA VALUE  0.05
Info: FEP INTRA-ALCHEMICAL NON-BONDED INTERACTIONS WILL BE RETAINED
Info: FEP INTRA-ALCHEMICAL BONDED INTERACTIONS WILL BE RETAINED
Info: FEP VDW SHIFTING COEFFICIENT 5
Info: FEP ELEC. ACTIVE FOR ANNIHILATED PARTICLES BETWEEN LAMBDA = 0 AND LAMBDA = 0.5
Info: FEP ELEC. ACTIVE FOR EXNIHILATED PARTICLES BETWEEN LAMBDA = 0.5 AND LAMBDA = 1
Info: FEP VDW ACTIVE FOR ANNIHILATED PARTICLES BETWEEN LAMBDA = 0 AND LAMBDA = 1
Info: FEP VDW ACTIVE FOR EXNIHILATED PARTICLES BETWEEN LAMBDA = 0 AND LAMBDA = 1
Info: FEP BOND ACTIVE FOR ANNIHILATED PARTICLES BETWEEN LAMBDA = 1 AND LAMBDA = 1
Info: FEP BOND ACTIVE FOR EXNIHILATED PARTICLES BETWEEN LAMBDA = 0 AND LAMBDA = 0
Info: LANGEVIN DYNAMICS ACTIVE
Info: LANGEVIN TEMPERATURE   300
Info: LANGEVIN USING BBK INTEGRATOR
Info: LANGEVIN DAMPING COEFFICIENT IS 1 INVERSE PS
Info: LANGEVIN DYNAMICS APPLIED TO HYDROGENS
Info: LANGEVIN PISTON PRESSURE CONTROL ACTIVE
Info:        TARGET PRESSURE IS 1.01325 BAR
Info:     OSCILLATION PERIOD IS 50 FS
Info:             DECAY TIME IS 25 FS
Info:     PISTON TEMPERATURE IS 300 K
Info:       PRESSURE CONTROL IS GROUP-BASED
Info:    INITIAL STRAIN RATE IS -6.30812e-06 -6.30812e-06 -6.30812e-06
Info:       CELL FLUCTUATION IS ISOTROPIC
Info: PARTICLE MESH EWALD (PME) ACTIVE
Info: PME TOLERANCE               1e-06
Info: PME EWALD COEFFICIENT       0.348832
Info: PME INTERPOLATION ORDER     4
Info: PME GRID DIMENSIONS         32 32 36
Info: PME MAXIMUM GRID SPACING    1
Info: PME CALCULATION WILL BE PERFORMED ON GPU
Info: FULL ELECTROSTATIC EVALUATION FREQUENCY      2
Info: USING VERLET I (r-RESPA) MTS SCHEME.
Info: C1 SPLITTING OF LONG RANGE ELECTROSTATICS
Info: PLACING ATOMS IN PATCHES BY HYDROGEN GROUPS
Info: RIGID BONDS TO HYDROGEN : ALL
Info:         ERROR TOLERANCE : 1e-08
Info:          MAX ITERATIONS : 100
Info: RIGID WATER USING SETTLE ALGORITHM
Info: RANDOM NUMBER SEED     1743776975
Info: USE HYDROGEN BONDS?    NO
Info: Using AMBER format force field!
Info: AMBER PARM FILE        mobley_8127829.prmtop
Info: COORDINATE PDB         mobley_8127829.pdb
Info: Exclusions will be read from PARM file!
Info: SCNB (VDW SCALING)     2
Info: USING ARITHMETIC MEAN TO COMBINE L-J SIGMA PARAMETERS
Info: BINARY COORDINATES     mobley_8127829_equil.coor
Info: SUMMARY OF PARAMETERS:
Info: 7 BONDS
Info: 7 ANGLES
Info:   7 HARMONIC
Info:   0 COSINE-BASED
Info: 5 DIHEDRAL
Info: 0 IMPROPER
Info: 0 CROSSTERM
Info: 0 VDW
Info: 21 VDW_PAIRS
Info: 0 NBTHOLE_PAIRS
Info: To read alchdata from file: mobley_8127829.pdb
Info: To read alchflag data from column: 5
Info: STRUCTURE SUMMARY:
Info: 2970 ATOMS
Info: 2970 BONDS
Info: 30 ANGLES
Info: 45 DIHEDRALS
Info: 0 IMPROPERS
Info: 0 CROSSTERMS
Info: 3036 EXCLUSIONS
Info: 2962 RIGID BONDS
Info: ALCH: 0 ATOMS TO DISAPPEAR IN FINAL STATE
Info: ALCH: 18 ATOMS TO APPEAR IN FINAL STATE
Info: 5948 DEGREES OF FREEDOM
Info: 992 HYDROGEN GROUPS
Info: 4 ATOMS IN LARGEST HYDROGEN GROUP
Info: 992 MIGRATION GROUPS
Info: 4 ATOMS IN LARGEST MIGRATION GROUP
Info: TOTAL MASS = 17833.9 amu
Info: TOTAL CHARGE = 1.86265e-08 e
Info: MASS DENSITY = 0.973544 g/cm^3
Info: ATOM DENSITY = 0.0976352 atoms/A^3
Info: ADDED 0 IMPLICIT EXCLUSIONS
Info: NONBONDED TABLE R-SQUARED SPACING: 0.0625
Info: NONBONDED TABLE SIZE: 705 POINTS
Info: REMOVING COM VELOCITY 0.02764 0.0697772 0.112428
Info: Use 3D box decompostion in PME FFT.
Info: Updated CUDA force table with 4096 elements.
Info: Updated CUDA LJ table with 6 x 6 elements.
Info: Found 17 unique exclusion lists needing 44 bytes
TCL: Running for 1500000 steps
ETITLE: TS BOND ANGLE DIHED IMPRP ELECT VDW BOUNDARY MISC KINETIC TOTAL TEMP POTENTIAL TOTALAVG TEMPAVG PRESSURE GPRESSURE VOLUME PRESSAVG GPRESSAVG
ENERGY: 0 1.6095 6.9019 1.6620 0.0000 -10716.4432 1435.7163 0.0000 0.0000 1787.5664 -7482.9870 302.4695 -9270.5534 -7482.9870 302.4695 49.5140 136.8745 30419.3595 49.5140 136.8745
ENERGY: 300000 3.1041 6.3993 2.9315 0.0000 -10521.7795 1270.7827 0.0000 0.0000 1775.8119 -7462.7500 300.4806 -9238.5619 -7488.0603 299.9869 -1590.5441 -1527.2222 31288.0949 -562.0747 -507.5435
ENERGY: 600000 0.7210 4.0180 4.1160 0.0000 -10749.2969 1487.4629 0.0000 0.0000 1790.6523 -7462.3267 302.9917 -9252.9790 -7488.7512 299.7229 395.2339 466.0534 30516.9804 -280.5993 -216.9682
ENERGY: 900000 2.2432 5.7983 1.7158 0.0000 -10746.4687 1433.0410 0.0000 0.0000 1800.6864 -7502.9841 304.6895 -9303.6705 -7505.9866 300.8488 -174.3254 -130.9928 30230.3893 -183.9202 -120.1119
ENERGY: 1200000 2.1174 9.3785 3.0934 0.0000 -10757.1811 1475.1390 0.0000 0.0000 1754.5163 -7512.9363 296.8772 -9267.4527 -7498.4259 301.0453 25.7888 90.1492 30591.4887 -132.5216 -72.4084
ENERGY: 1500000 0.9027 5.4734 4.8108 0.0000 -10765.0261 1458.7899 0.0000 0.0000 1721.4867 -7573.5627 291.2883 -9295.0494 -7503.2524 300.4269 133.1596 218.7417 30550.6549 -74.0200 -12.6784
TCL: Running FEP window   2: Lambda1 0.05   Lambda2 0.1    [dLambda 0.05  ]
TCL: Setting parameter firsttimestep to 0
TCL: Setting parameter alchLambda to 0.05
Info: NONBONDED TABLE R-SQUARED SPACING: 0.0625
Info: NONBONDED TABLE SIZE: 705 POINTS
TCL: Setting parameter alchLambda2 to 0.1
Info: NONBONDED TABLE R-SQUARED SPACING: 0.0625
Info: NONBONDED TABLE SIZE: 705 POINTS
TCL: Running for 1500000 steps
ETITLE: TS BOND ANGLE DIHED IMPRP ELECT VDW BOUNDARY MISC KINETIC TOTAL TEMP POTENTIAL TOTALAVG TEMPAVG PRESSURE GPRESSURE VOLUME PRESSAVG GPRESSAVG
ENERGY: 0 0.9027 5.4734 4.8108 0.0000 -10765.0260 1459.9803 0.0000 0.0000 1720.6354 -7573.2234 291.1443 -9293.8587 -7573.2234 291.1443 123.1618 220.5494 30550.6549 123.1618 220.5494
ENERGY: 300000 3.8010 5.6814 2.3834 0.0000 -10794.7886 1511.5361 0.0000 0.0000 1806.1642 -7465.2224 305.6164 -9271.3866 -7523.7716 297.7655 221.4681 356.6712 30671.8317 236.3582 324.0659
ENERGY: 600000 1.7455 6.2101 4.9369 0.0000 -10777.5341 1509.3416 0.0000 0.0000 1764.9053 -7490.3946 298.6351 -9255.2998 -7522.5479 297.7197 635.7657 643.4066 30338.9901 355.7622 411.7746
ENERGY: 900000 4.5196 7.6872 2.8527 0.0000 -10736.3287 1399.4056 0.0000 0.0000 1765.5007 -7556.3628 298.7358 -9321.8635 -7517.9500 298.6766 -869.6693 -796.3811 30901.0638 124.3637 183.6387
ENERGY: 1200000 1.1053 4.3143 5.2667 0.0000 -10789.0304 1473.5836 0.0000 0.0000 1728.9503 -7575.8102 292.5512 -9304.7605 -7516.6675 298.8843 247.4928 278.8433 30437.1156 80.7396 132.3811
ENERGY: 1500000 1.3982 6.4090 3.4994 0.0000 -10844.9234 1489.6284 0.0000 0.0000 1785.6027 -7558.3858 302.1372 -9343.9885 -7514.3911 299.2183 -115.6739 17.7860 30620.0726 87.0759 142.6775
TCL: Running FEP window   3: Lambda1 0.1    Lambda2 0.15000000000000002 [dLambda 0.05000000000000002]
TCL: Setting parameter firsttimestep to 0
TCL: Setting parameter alchLambda to 0.1
Info: NONBONDED TABLE R-SQUARED SPACING: 0.0625
Info: NONBONDED TABLE SIZE: 705 POINTS
TCL: Setting parameter alchLambda2 to 0.15000000000000002
Info: NONBONDED TABLE R-SQUARED SPACING: 0.0625
Info: NONBONDED TABLE SIZE: 705 POINTS
TCL: Running for 1500000 steps
ETITLE: TS BOND ANGLE DIHED IMPRP ELECT VDW BOUNDARY MISC KINETIC TOTAL TEMP POTENTIAL TOTALAVG TEMPAVG PRESSURE GPRESSURE VOLUME PRESSAVG GPRESSAVG
ENERGY: 0 1.3982 6.4090 3.4994 0.0000 -10844.9232 1490.1354 0.0000 0.0000 1784.6929 -7558.7884 301.9833 -9343.4812 -7558.7884 301.9833 -63.7519 23.8589 30620.0726 -63.7519 23.8589
ENERGY: 300000 1.4174 6.5335 2.6535 0.0000 -10713.3254 1386.1674 0.0000 0.0000 1818.2399 -7498.3137 307.6597 -9316.5536 -7521.6700 300.1039 -450.0385 -418.0727 30476.6583 -161.9873 -123.0083
ENERGY: 600000 4.3244 4.9731 2.2567 0.0000 -10702.0842 1378.4921 0.0000 0.0000 1799.2956 -7512.7424 304.4542 -9312.0380 -7510.3731 301.9066 -644.5356 -542.8218 30368.9577 -37.6573 21.6733
ENERGY: 900000 2.3692 7.0731 3.6701 0.0000 -10655.9582 1408.9288 0.0000 0.0000 1816.7966 -7417.1203 307.4155 -9233.9169 -7501.1581 302.2180 -113.3314 -21.7835 30463.2867 124.4117 183.9378
ENERGY: 1200000 1.6135 5.0051 3.6765 0.0000 -10459.4162 1269.3879 0.0000 0.0000 1787.4435 -7392.2897 302.4487 -9179.7332 -7494.4349 301.7987 -1350.0504 -1242.9096 30972.2014 -20.2770 42.3223
ENERGY: 1500000 2.9461 11.3084 2.9031 0.0000 -10730.7740 1442.7588 0.0000 0.0000 1731.9162 -7538.9414 293.0531 -9270.8576 -7504.7465 300.8899 -85.7860 -65.5992 30448.6328 12.3811 68.7180
TCL: Running FEP window   4: Lambda1 0.15000000000000002 Lambda2 0.2    [dLambda 0.04999999999999999]
TCL: Setting parameter firsttimestep to 0
TCL: Setting parameter alchLambda to 0.15000000000000002
Info: NONBONDED TABLE R-SQUARED SPACING: 0.0625
Info: NONBONDED TABLE SIZE: 705 POINTS
TCL: Setting parameter alchLambda2 to 0.2
Info: NONBONDED TABLE R-SQUARED SPACING: 0.0625
Info: NONBONDED TABLE SIZE: 705 POINTS
TCL: Running for 1500000 steps
ETITLE: TS BOND ANGLE DIHED IMPRP ELECT VDW BOUNDARY MISC KINETIC TOTAL TEMP POTENTIAL TOTALAVG TEMPAVG PRESSURE GPRESSURE VOLUME PRESSAVG GPRESSAVG
ENERGY: 0 2.9461 11.3084 2.9031 0.0000 -10730.7759 1442.6410 0.0000 0.0000 1731.0378 -7539.9394 292.9045 -9270.9773 -7539.9394 292.9045 -144.6763 -63.8262 30448.6328 -144.6763 -63.8262
ENERGY: 300000 1.8757 6.1390 0.6039 0.0000 -10789.7819 1474.2457 0.0000 0.0000 1728.1643 -7578.7534 292.4182 -9306.9177 -7554.0235 299.0129 312.8282 350.8226 30173.0642 41.7861 111.0991
ENERGY: 600000 2.1473 8.4557 1.4688 0.0000 -10770.1163 1419.4570 0.0000 0.0000 1722.1790 -7616.4085 291.4055 -9338.5875 -7547.6859 299.0231 -466.7001 -360.2946 30470.6047 156.0876 223.1274
ENERGY: 900000 2.8598 4.3910 1.7804 0.0000 -10737.1978 1416.5218 0.0000 0.0000 1714.3961 -7597.2487 290.0886 -9311.6448 -7545.6957 298.3778 -233.9843 -231.0333 30310.1133 65.1319 120.2976
ENERGY: 1200000 3.5820 5.4038 2.5468 0.0000 -10782.3348 1475.7804 0.0000 0.0000 1746.1468 -7548.8750 295.4610 -9295.0218 -7529.4638 299.2847 212.8080 327.7772 29997.7332 -23.1806 36.7935
ENERGY: 1500000 1.5242 6.8233 3.7596 0.0000 -10730.6730 1478.1705 0.0000 0.0000 1775.4821 -7464.9132 300.4248 -9240.3954 -7528.5593 299.2614 -10.7564 44.7943 31232.5491 64.4984 122.5860
TCL: Running FEP window   5: Lambda1 0.2    Lambda2 0.25   [dLambda 0.04999999999999999]
TCL: Setting parameter firsttimestep to 0
TCL: Setting parameter alchLambda to 0.2
Info: NONBONDED TABLE R-SQUARED SPACING: 0.0625
Info: NONBONDED TABLE SIZE: 705 POINTS
TCL: Setting parameter alchLambda2 to 0.25
Info: NONBONDED TABLE R-SQUARED SPACING: 0.0625
Info: NONBONDED TABLE SIZE: 705 POINTS
TCL: Running for 1500000 steps
ETITLE: TS BOND ANGLE DIHED IMPRP ELECT VDW BOUNDARY MISC KINETIC TOTAL TEMP POTENTIAL TOTALAVG TEMPAVG PRESSURE GPRESSURE VOLUME PRESSAVG GPRESSAVG
ENERGY: 0 1.5242 6.8234 3.7596 0.0000 -10730.6729 1478.1688 0.0000 0.0000 1774.5898 -7465.8071 300.2738 -9240.3969 -7465.8071 300.2738 -21.2800 47.3103 31232.5491 -21.2800 47.3103
ENERGY: 300000 2.5680 4.8090 2.8238 0.0000 -10848.9846 1453.6482 0.0000 0.0000 1849.4021 -7535.7334 312.9326 -9385.1355 -7492.4965 307.2158 4.4767 78.4155 30199.4342 -79.0708 -22.2194
ENERGY: 600000 0.8775 5.2939 1.7784 0.0000 -10689.4371 1484.2781 0.0000 0.0000 1706.8525 -7490.3568 288.8121 -9197.2093 -7503.1196 302.2704 461.1107 513.9511 30483.9969 -11.6201 45.8999
ENERGY: 900000 2.7572 6.5720 1.7199 0.0000 -10677.3532 1413.1002 0.0000 0.0000 1761.6378 -7491.5660 298.0822 -9253.2038 -7501.0641 301.4691 153.3411 153.1783 30290.3723 -47.1917 6.5824
ENERGY: 1200000 4.2243 4.5480 4.6577 0.0000 -10661.3075 1422.8202 0.0000 0.0000 1815.5422 -7409.5151 307.2032 -9225.0573 -7494.1448 302.7534 -472.2419 -414.8248 31412.6743 -128.9801 -80.6751
ENERGY: 1500000 2.3210 9.7085 2.1770 0.0000 -10740.4172 1428.3769 0.0000 0.0000 1794.3596 -7503.4740 303.6190 -9297.8337 -7499.7601 302.8897 -157.1891 -170.6120 30439.4079 -118.9067 -74.2248
TCL: Running FEP window   6: Lambda1 0.25   Lambda2 0.3    [dLambda 0.04999999999999999]
TCL: Setting parameter firsttimestep to 0
TCL: Setting parameter alchLambda to 0.25
Info: NONBONDED TABLE R-SQUARED SPACING: 0.0625
Info: NONBONDED TABLE SIZE: 705 POINTS
TCL: Setting parameter alchLambda2 to 0.3
Info: NONBONDED TABLE R-SQUARED SPACING: 0.0625
Info: NONBONDED TABLE SIZE: 705 POINTS
TCL: Running for 1500000 steps
ETITLE: TS BOND ANGLE DIHED IMPRP ELECT VDW BOUNDARY MISC KINETIC TOTAL TEMP POTENTIAL TOTALAVG TEMPAVG PRESSURE GPRESSURE VOLUME PRESSAVG GPRESSAVG
ENERGY: 0 2.3210 9.7085 2.1771 0.0000 -10740.4167 1428.3860 0.0000 0.0000 1793.4810 -7504.3432 303.4703 -9297.8241 -7504.3432 303.4703 -254.3223 -166.1714 30439.4079 -254.3223 -166.1714
ENERGY: 300000 3.8002 5.5475 6.8022 0.0000 -10796.5992 1463.1922 0.0000 0.0000 1758.2697 -7558.9874 297.5123 -9317.2571 -7507.6287 301.3140 -53.9623 10.9305 30355.1381 -100.8268 -28.9428
ENERGY: 600000 4.1518 4.2468 1.9900 0.0000 -10702.1326 1440.6818 0.0000 0.0000 1735.8131 -7515.2491 293.7125 -9251.0622 -7503.3990 301.7242 -77.5247 -23.5848 30602.0863 -75.4678 2.3712
ENERGY: 900000 5.5153 3.8588 4.3062 0.0000 -10623.9232 1441.7192 0.0000 0.0000 1759.8438 -7408.6798 297.7786 -9168.5236 -7500.2236 300.2498 11.3886 100.7920 30741.9741 -154.8040 -80.3370
ENERGY: 1200000 3.4773 5.9225 3.3736 0.0000 -10597.6464 1368.6873 0.0000 0.0000 1787.0684 -7429.1173 302.3853 -9216.1857 -7491.1248 300.8155 -723.7461 -638.7582 30917.0587 -249.8060 -174.9890
ENERGY: 1500000 4.4170 5.7598 1.6862 0.0000 -10749.7592 1449.4931 0.0000 0.0000 1778.9940 -7509.4091 301.0190 -9288.4031 -7497.3932 300.2850 115.9330 163.9427 30357.5289 -218.4109 -152.6584
TCL: Running FEP window   7: Lambda1 0.3    Lambda2 0.35   [dLambda 0.04999999999999999]
TCL: Setting parameter firsttimestep to 0
TCL: Setting parameter alchLambda to 0.3
Info: NONBONDED TABLE R-SQUARED SPACING: 0.0625
Info: NONBONDED TABLE SIZE: 705 POINTS
TCL: Setting parameter alchLambda2 to 0.35
Info: NONBONDED TABLE R-SQUARED SPACING: 0.0625
Info: NONBONDED TABLE SIZE: 705 POINTS
TCL: Running for 1500000 steps
ETITLE: TS BOND ANGLE DIHED IMPRP ELECT VDW BOUNDARY MISC KINETIC TOTAL TEMP POTENTIAL TOTALAVG TEMPAVG PRESSURE GPRESSURE VOLUME PRESSAVG GPRESSAVG
ENERGY: 0 4.4170 5.7598 1.6862 0.0000 -10749.7589 1451.0238 0.0000 0.0000 1778.1120 -7508.7601 300.8698 -9286.8721 -7508.7601 300.8698 92.2174 176.3606 30357.5289 92.2174 176.3606
ENERGY: 300000 1.7246 3.5627 1.6983 0.0000 -10816.2405 1501.5430 0.0000 0.0000 1811.8797 -7495.8323 306.5835 -9307.7119 -7496.3856 303.0299 443.3084 496.9508 30443.0157 -40.2232 27.0204
ENERGY: 600000 4.5010 2.8323 3.3587 0.0000 -10677.2069 1409.1806 0.0000 0.0000 1756.8041 -7500.5303 297.2643 -9257.3344 -7486.5620 302.2227 -704.1083 -621.2112 30764.5660 -204.3457 -107.0866
ENERGY: 900000 1.3510 4.6581 4.4073 0.0000 -10848.4186 1507.3060 0.0000 0.0000 1758.5034 -7572.1928 297.5518 -9330.6962 -7479.2986 302.5707 183.0185 273.5528 30488.6939 -259.5640 -165.6943
ENERGY: 1200000 1.7683 9.2252 6.2324 0.0000 -10926.2866 1542.4608 0.0000 0.0000 1783.7123 -7582.8876 301.8174 -9366.5999 -7498.7947 301.8778 509.0671 564.0966 30246.8177 -215.9868 -122.8223
ENERGY: 1500000 4.0274 4.0038 3.3493 0.0000 -10831.0671 1482.3001 0.0000 0.0000 1756.7121 -7580.6743 297.2487 -9337.3864 -7500.4289 301.8820 -113.4508 -33.6080 30495.3009 -183.4621 -92.0515
TCL: Running FEP window   8: Lambda1 0.35   Lambda2 0.39999999999999997 [dLambda 0.04999999999999999]
TCL: Setting parameter firsttimestep to 0
TCL: Setting parameter alchLambda to 0.35
Info: NONBONDED TABLE R-SQUARED SPACING: 0.0625
Info: NONBONDED TABLE SIZE: 705 POINTS
TCL: Setting parameter alchLambda2 to 0.39999999999999997
Info: NONBONDED TABLE R-SQUARED SPACING: 0.0625
Info: NONBONDED TABLE SIZE: 705 POINTS
TCL: Running for 1500000 steps
ETITLE: TS BOND ANGLE DIHED IMPRP ELECT VDW BOUNDARY MISC KINETIC TOTAL TEMP POTENTIAL TOTALAVG TEMPAVG PRESSURE GPRESSURE VOLUME PRESSAVG GPRESSAVG
ENERGY: 0 4.0274 4.0038 3.3493 0.0000 -10831.0673 1482.4957 0.0000 0.0000 1755.8548 -7581.3364 297.1037 -9337.1912 -7581.3364 297.1037 -111.0838 -25.9542 30495.3009 -111.0838 -25.9542
ENERGY: 300000 1.7940 7.9988 4.8884 0.0000 -10770.5897 1473.9684 0.0000 0.0000 1750.7553 -7531.1848 296.2408 -9281.9400 -7534.2038 301.7116 293.9882 330.1741 30405.0266 222.2060 275.8394
ENERGY: 600000 2.6154 6.4623 4.0856 0.0000 -10680.0038 1389.3944 0.0000 0.0000 1857.8651 -7419.5811 314.3646 -9277.4462 -7515.4602 302.3657 -330.3295 -299.0479 30590.9939 100.4715 147.4393
ENERGY: 900000 1.6362 9.7968 1.5239 0.0000 -10703.3615 1434.5106 0.0000 0.0000 1776.5296 -7479.3644 300.6020 -9255.8940 -7496.2408 302.2433 29.6782 83.2118 30524.2439 -61.5693 -13.7423
ENERGY: 1200000 4.2559 5.7813 4.4661 0.0000 -10823.2038 1463.5284 0.0000 0.0000 1778.3738 -7566.7984 300.9141 -9345.1722 -7502.8807 302.2696 -111.1598 -12.0123 30418.3437 -116.2890 -63.4491
ENERGY: 1500000 2.8260 6.3616 2.6065 0.0000 -10476.6013 1295.2154 0.0000 0.0000 1828.1652 -7341.4266 309.3391 -9169.5917 -7493.9156 302.9063 -1028.0740 -1001.3238 30890.1205 -160.5111 -105.0167
TCL: Running FEP window   9: Lambda1 0.39999999999999997 Lambda2 0.44999999999999996 [dLambda 0.04999999999999999]
TCL: Setting parameter firsttimestep to 0
TCL: Setting parameter alchLambda to 0.39999999999999997
Info: NONBONDED TABLE R-SQUARED SPACING: 0.0625
Info: NONBONDED TABLE SIZE: 705 POINTS
TCL: Setting parameter alchLambda2 to 0.44999999999999996
Info: NONBONDED TABLE R-SQUARED SPACING: 0.0625
Info: NONBONDED TABLE SIZE: 705 POINTS
TCL: Running for 1500000 steps
ETITLE: TS BOND ANGLE DIHED IMPRP ELECT VDW BOUNDARY MISC KINETIC TOTAL TEMP POTENTIAL TOTALAVG TEMPAVG PRESSURE GPRESSURE VOLUME PRESSAVG GPRESSAVG
ENERGY: 0 2.8260 6.3616 2.6065 0.0000 -10476.5999 1295.2167 0.0000 0.0000 1827.2876 -7342.3014 309.1906 -9169.5890 -7342.3014 309.1906 -1058.2843 -997.7653 30890.1205 -1058.2843 -997.7653
ENERGY: 300000 2.3358 7.1000 1.9394 0.0000 -10623.0524 1425.7690 0.0000 0.0000 1774.1533 -7411.7549 300.1999 -9185.9082 -7470.1711 302.2576 -32.6414 28.2538 30942.6404 -242.2885 -168.8472
ENERGY: 600000 2.7375 7.3779 5.2327 0.0000 -10845.1648 1548.3001 0.0000 0.0000 1793.7362 -7487.7805 303.5135 -9281.5167 -7493.1958 301.6741 704.6759 776.9997 30419.9307 128.1817 198.1166
ENERGY: 900000 3.9878 7.2763 2.0044 0.0000 -10600.4077 1312.9550 0.0000 0.0000 1816.1026 -7458.0817 307.2980 -9274.1843 -7492.9299 302.4921 -1039.0814 -972.3229 30370.3008 38.3021 104.7212
ENERGY: 1200000 1.3645 6.4167 1.6095 0.0000 -10830.8518 1537.3865 0.0000 0.0000 1753.2349 -7530.8397 296.6604 -9284.0745 -7490.6363 301.1934 695.1121 751.8668 30217.7186 -27.8629 38.4361
ENERGY: 1500000 2.6436 2.4142 1.9773 0.0000 -10842.6131 1532.2672 0.0000 0.0000 1783.7127 -7519.5980 301.8174 -9303.3107 -7488.0276 301.2197 594.9059 584.0524 30726.0965 13.8954 70.8661
TCL: Running FEP window  10: Lambda1 0.44999999999999996 Lambda2 0.49999999999999994 [dLambda 0.04999999999999999]
TCL: Setting parameter firsttimestep to 0
TCL: Setting parameter alchLambda to 0.44999999999999996
Info: NONBONDED TABLE R-SQUARED SPACING: 0.0625
Info: NONBONDED TABLE SIZE: 705 POINTS
TCL: Setting parameter alchLambda2 to 0.49999999999999994
Info: NONBONDED TABLE R-SQUARED SPACING: 0.0625
Info: NONBONDED TABLE SIZE: 705 POINTS
TCL: Running for 1500000 steps
ETITLE: TS BOND ANGLE DIHED IMPRP ELECT VDW BOUNDARY MISC KINETIC TOTAL TEMP POTENTIAL TOTALAVG TEMPAVG PRESSURE GPRESSURE VOLUME PRESSAVG GPRESSAVG
ENERGY: 0 2.6436 2.4142 1.9773 0.0000 -10842.6133 1532.3804 0.0000 0.0000 1782.8340 -7520.3638 301.6687 -9303.1977 -7520.3638 301.6687 532.7780 593.1429 30726.0965 532.7780 593.1429
ENERGY: 300000 1.8095 3.9155 2.5526 0.0000 -10831.3287 1510.9353 0.0000 0.0000 1714.2792 -7597.8365 290.0688 -9312.1157 -7568.0411 298.2362 588.2247 666.1175 29865.0548 69.0846 147.3237
ENERGY: 600000 4.1586 6.4672 1.3047 0.0000 -10908.0062 1616.2161 0.0000 0.0000 1755.8262 -7524.0335 297.0988 -9279.8597 -7537.4426 300.0747 1276.9519 1377.7457 30193.9154 285.2497 366.0809
ENERGY: 900000 6.7341 5.3796 0.5664 0.0000 -10764.1086 1435.5345 0.0000 0.0000 1780.6539 -7535.2400 301.2999 -9315.8939 -7534.5056 299.3735 -444.3388 -399.2744 30915.5257 180.6527 254.7582
ENERGY: 1200000 0.6104 6.5253 2.7045 0.0000 -10766.2679 1483.9465 0.0000 0.0000 1687.6368 -7584.8444 285.5607 -9272.4812 -7522.3195 299.1340 247.4762 321.3340 30422.9332 202.3941 275.4354
ENERGY: 1500000 4.3295 4.4821 3.2563 0.0000 -10656.5334 1414.3619 0.0000 0.0000 1784.7582 -7445.3455 301.9943 -9230.1037 -7518.7638 299.1558 -383.8994 -331.5341 30660.2991 202.8043 267.5272
TCL: Running FEP window  11: Lambda1 0.49999999999999994 Lambda2 0.5499999999999999 [dLambda 0.04999999999999999]
TCL: Setting parameter firsttimestep to 0
TCL: Setting parameter alchLambda to 0.49999999999999994
Info: NONBONDED TABLE R-SQUARED SPACING: 0.0625
Info: NONBONDED TABLE SIZE: 705 POINTS
TCL: Setting parameter alchLambda2 to 0.5499999999999999
Info: NONBONDED TABLE R-SQUARED SPACING: 0.0625
Info: NONBONDED TABLE SIZE: 705 POINTS
TCL: Running for 1500000 steps
ETITLE: TS BOND ANGLE DIHED IMPRP ELECT VDW BOUNDARY MISC KINETIC TOTAL TEMP POTENTIAL TOTALAVG TEMPAVG PRESSURE GPRESSURE VOLUME PRESSAVG GPRESSAVG
ENERGY: 0 4.3295 4.4821 3.2563 0.0000 -10656.5331 1414.3079 0.0000 0.0000 1783.8482 -7446.3092 301.8404 -9230.1574 -7446.3092 301.8404 -405.9945 -324.1898 30660.2991 -405.9945 -324.1898
ENERGY: 300000 2.4787 5.2245 3.2360 0.0000 -10752.7580 1453.9202 0.0000 0.0000 1733.1626 -7554.7360 293.2640 -9287.8986 -7548.0934 297.4350 -233.7545 -158.6809 31006.4902 -183.4921 -102.4019
ENERGY: 600000 2.1693 3.6625 1.6815 0.0000 -10770.2984 1474.4570 0.0000 0.0000 1778.7217 -7509.6065 300.9729 -9288.3282 -7539.3547 299.3411 535.3436 522.9914 30309.7572 -19.0070 38.8346
ENERGY: 900000 2.5828 9.5665 4.1894 0.0000 -10685.9846 1404.8306 0.0000 0.0000 1789.0412 -7475.7741 302.7191 -9264.8153 -7529.4676 299.8794 -170.4425 -158.7598 30539.9582 26.2930 72.6897
ENERGY: 1200000 1.7266 6.3475 3.7003 0.0000 -10739.9112 1455.8513 0.0000 0.0000 1762.4652 -7509.8203 298.2222 -9272.2855 -7523.8003 298.9889 60.2272 95.9434 30505.2214 6.2461 54.4406
ENERGY: 1500000 2.8080 8.7230 2.6683 0.0000 -10755.4141 1526.9337 0.0000 0.0000 1760.7362 -7453.5448 297.9296 -9214.2810 -7517.9380 298.8980 536.5817 686.5393 30664.8245 6.6714 57.9032
TCL: Running FEP window  12: Lambda1 0.5499999999999999 Lambda2 0.6    [dLambda 0.050000000000000044]
TCL: Setting parameter firsttimestep to 0
TCL: Setting parameter alchLambda to 0.5499999999999999
Info: NONBONDED TABLE R-SQUARED SPACING: 0.0625
Info: NONBONDED TABLE SIZE: 705 POINTS
TCL: Setting parameter alchLambda2 to 0.6
Info: NONBONDED TABLE R-SQUARED SPACING: 0.0625
Info: NONBONDED TABLE SIZE: 705 POINTS
TCL: Running for 1500000 steps
ETITLE: TS BOND ANGLE DIHED IMPRP ELECT VDW BOUNDARY MISC KINETIC TOTAL TEMP POTENTIAL TOTALAVG TEMPAVG PRESSURE GPRESSURE VOLUME PRESSAVG GPRESSAVG
ENERGY: 0 2.8080 8.7230 2.6683 0.0000 -10755.3545 1527.4672 0.0000 0.0000 1759.8284 -7453.8595 297.7760 -9213.6879 -7453.8595 297.7760 619.0790 698.5513 30664.8245 619.0790 698.5513
ENERGY: 300000 2.3698 6.1010 4.4363 0.0000 -10800.7233 1452.8847 0.0000 0.0000 1749.9797 -7584.9518 296.1096 -9334.9315 -7527.7926 301.3985 12.4401 2.3380 30551.6209 177.4428 238.8530
ENERGY: 600000 2.5150 6.2643 3.9160 0.0000 -10776.4241 1506.5557 0.0000 0.0000 1789.3427 -7467.8304 302.7701 -9257.1731 -7497.1152 302.2088 562.6022 624.1520 30423.7275 7.1435 64.5834
ENERGY: 900000 3.6007 6.1976 2.6797 0.0000 -10749.1759 1453.1010 0.0000 0.0000 1719.1261 -7564.4708 290.8889 -9283.5969 -7502.8505 300.0170 -103.1708 -62.0071 30447.0318 -10.3730 52.8129
ENERGY: 1200000 1.2505 6.2683 1.1322 0.0000 -10670.4598 1388.7455 0.0000 0.0000 1725.3625 -7547.7007 291.9441 -9273.0632 -7507.5992 299.2351 -221.4352 -125.9653 30349.3689 -46.6836 14.8330
ENERGY: 1500000 1.8473 5.2017 4.3936 0.0000 -10729.7981 1430.5127 0.0000 0.0000 1739.9178 -7547.9249 294.4070 -9287.8427 -7512.1008 299.5068 -97.6875 -72.8853 30483.5066 -41.9097 23.6654
TCL: Running FEP window  13: Lambda1 0.6    Lambda2 0.65   [dLambda 0.050000000000000044]
TCL: Setting parameter firsttimestep to 0
TCL: Setting parameter alchLambda to 0.6
Info: NONBONDED TABLE R-SQUARED SPACING: 0.0625
Info: NONBONDED TABLE SIZE: 705 POINTS
TCL: Setting parameter alchLambda2 to 0.65
Info: NONBONDED TABLE R-SQUARED SPACING: 0.0625
Info: NONBONDED TABLE SIZE: 705 POINTS
TCL: Running for 1500000 steps
ETITLE: TS BOND ANGLE DIHED IMPRP ELECT VDW BOUNDARY MISC KINETIC TOTAL TEMP POTENTIAL TOTALAVG TEMPAVG PRESSURE GPRESSURE VOLUME PRESSAVG GPRESSAVG
ENERGY: 0 1.8473 5.2017 4.3936 0.0000 -10730.2039 1430.3344 0.0000 0.0000 1739.0253 -7549.4016 294.2560 -9288.4269 -7549.4016 294.2560 -154.2770 -66.5733 30483.5066 -154.2770 -66.5733
ENERGY: 300000 1.8709 6.9795 2.7076 0.0000 -10822.8525 1455.6211 0.0000 0.0000 1724.6639 -7631.0096 291.8259 -9355.6734 -7532.1836 296.0154 -75.7500 42.6528 30280.7682 -94.9312 -34.0759
ENERGY: 600000 0.9367 4.5922 1.6331 0.0000 -10768.9839 1464.5376 0.0000 0.0000 1759.8718 -7537.4125 297.7834 -9297.2843 -7534.9610 297.5753 307.2345 312.3156 30206.9098 -171.9823 -132.9006
ENERGY: 900000 4.1425 3.7738 2.6200 0.0000 -10821.8201 1508.9665 0.0000 0.0000 1746.2362 -7556.0812 295.4761 -9302.3173 -7522.3834 298.9190 5.3893 51.2023 31143.0674 -113.4123 -66.9641
ENERGY: 1200000 1.6100 5.4907 6.4325 0.0000 -10697.0538 1419.2165 0.0000 0.0000 1798.7406 -7465.5636 304.3603 -9264.3042 -7524.0123 299.4681 -260.5685 -184.6401 30721.7481 -87.9639 -42.2920
ENERGY: 1500000 2.8009 9.1816 3.2746 0.0000 -10654.0546 1346.1020 0.0000 0.0000 1720.8024 -7571.8932 291.1725 -9292.6955 -7534.2414 299.3838 -1205.6328 -1122.3064 30845.7359 -90.8023 -45.5482
TCL: Running FEP window  14: Lambda1 0.65   Lambda2 0.7000000000000001 [dLambda 0.050000000000000044]
TCL: Setting parameter firsttimestep to 0
TCL: Setting parameter alchLambda to 0.65
Info: NONBONDED TABLE R-SQUARED SPACING: 0.0625
Info: NONBONDED TABLE SIZE: 705 POINTS
TCL: Setting parameter alchLambda2 to 0.7000000000000001
Info: NONBONDED TABLE R-SQUARED SPACING: 0.0625
Info: NONBONDED TABLE SIZE: 705 POINTS
TCL: Running for 1500000 steps
ETITLE: TS BOND ANGLE DIHED IMPRP ELECT VDW BOUNDARY MISC KINETIC TOTAL TEMP POTENTIAL TOTALAVG TEMPAVG PRESSURE GPRESSURE VOLUME PRESSAVG GPRESSAVG
ENERGY: 0 2.8009 9.1816 3.2746 0.0000 -10653.7617 1345.8898 0.0000 0.0000 1719.9237 -7572.6912 291.0239 -9292.6149 -7572.6912 291.0239 -1207.6878 -1116.4830 30845.7359 -1207.6878 -1116.4830
ENERGY: 300000 3.0048 4.0968 1.9870 0.0000 -10619.6288 1342.0937 0.0000 0.0000 1820.7390 -7447.7074 308.0826 -9268.4465 -7508.9960 300.8260 -1132.1409 -1117.8677 31530.3926 -564.8113 -503.8434
ENERGY: 600000 4.5715 7.6289 5.0840 0.0000 -10635.1689 1347.1441 0.0000 0.0000 1717.8227 -7552.9176 290.6684 -9270.7403 -7513.0949 300.6448 -981.0513 -914.8230 30896.0244 -452.5810 -405.7436
ENERGY: 900000 2.1217 3.0309 2.5921 0.0000 -10792.3379 1524.2768 0.0000 0.0000 1810.1434 -7450.1731 306.2897 -9260.3165 -7493.2436 300.2987 605.0275 687.4270 30449.3108 -243.1532 -194.5280
ENERGY: 1200000 1.2599 8.2363 2.5046 0.0000 -10670.2373 1405.7033 0.0000 0.0000 1767.0844 -7485.4487 299.0038 -9252.5332 -7490.1089 300.6693 -288.8661 -188.7315 30604.3342 -282.2112 -217.0734
ENERGY: 1500000 2.5984 5.1373 2.3188 0.0000 -10675.3872 1364.9003 0.0000 0.0000 1756.3599 -7544.0725 297.1891 -9300.4324 -7499.2960 300.2681 -376.5040 -330.2158 30335.2617 -281.0536 -216.9199
TCL: Running FEP window  15: Lambda1 0.7000000000000001 Lambda2 0.7500000000000001 [dLambda 0.050000000000000044]
TCL: Setting parameter firsttimestep to 0
TCL: Setting parameter alchLambda to 0.7000000000000001
Info: NONBONDED TABLE R-SQUARED SPACING: 0.0625
Info: NONBONDED TABLE SIZE: 705 POINTS
TCL: Setting parameter alchLambda2 to 0.7500000000000001
Info: NONBONDED TABLE R-SQUARED SPACING: 0.0625
Info: NONBONDED TABLE SIZE: 705 POINTS
TCL: Running for 1500000 steps
ETITLE: TS BOND ANGLE DIHED IMPRP ELECT VDW BOUNDARY MISC KINETIC TOTAL TEMP POTENTIAL TOTALAVG TEMPAVG PRESSURE GPRESSURE VOLUME PRESSAVG GPRESSAVG
ENERGY: 0 2.5984 5.1373 2.3188 0.0000 -10675.5371 1364.7568 0.0000 0.0000 1755.4659 -7545.2599 297.0379 -9300.7259 -7545.2599 297.0379 -414.0100 -323.3716 30335.2617 -414.0100 -323.3716
ENERGY: 300000 6.0970 3.4876 2.5302 0.0000 -10728.5216 1469.3223 0.0000 0.0000 1783.6997 -7463.3848 301.8152 -9247.0845 -7498.1153 300.3219 292.1415 419.5436 30557.3827 27.7931 105.6942
ENERGY: 600000 3.1799 3.8682 4.4329 0.0000 -10740.4547 1467.1556 0.0000 0.0000 1834.7771 -7427.0410 310.4579 -9261.8181 -7494.0198 300.8639 495.9299 552.0916 30260.1478 -33.3877 40.4618
ENERGY: 900000 0.6782 7.2141 5.9657 0.0000 -10733.3022 1431.1721 0.0000 0.0000 1768.9713 -7519.3008 299.3231 -9288.2721 -7504.8521 301.1394 -106.2762 -79.0760 30585.2899 36.9551 101.2667
ENERGY: 1200000 2.1126 3.9587 2.1934 0.0000 -10724.9547 1448.9942 0.0000 0.0000 1830.8107 -7436.8851 309.7868 -9267.6958 -7507.7293 301.6030 431.5669 499.8375 30200.1471 58.3781 127.7417
ENERGY: 1500000 1.7404 5.7276 2.1689 0.0000 -10634.8636 1333.2878 0.0000 0.0000 1780.2775 -7511.6614 301.2362 -9291.9389 -7502.4941 302.2296 -1013.8739 -1017.6208 31023.5065 -30.0151 34.8095
TCL: Running FEP window  16: Lambda1 0.7500000000000001 Lambda2 0.8000000000000002 [dLambda 0.050000000000000044]
TCL: Setting parameter firsttimestep to 0
TCL: Setting parameter alchLambda to 0.7500000000000001
Info: NONBONDED TABLE R-SQUARED SPACING: 0.0625
Info: NONBONDED TABLE SIZE: 705 POINTS
TCL: Setting parameter alchLambda2 to 0.8000000000000002
Info: NONBONDED TABLE R-SQUARED SPACING: 0.0625
Info: NONBONDED TABLE SIZE: 705 POINTS
TCL: Running for 1500000 steps
ETITLE: TS BOND ANGLE DIHED IMPRP ELECT VDW BOUNDARY MISC KINETIC TOTAL TEMP POTENTIAL TOTALAVG TEMPAVG PRESSURE GPRESSURE VOLUME PRESSAVG GPRESSAVG
ENERGY: 0 1.7404 5.7276 2.1690 0.0000 -10635.4619 1333.4108 0.0000 0.0000 1779.4014 -7513.0128 301.0879 -9292.4142 -7513.0128 301.0879 -1082.0110 -1011.9773 31023.5065 -1082.0110 -1011.9773
ENERGY: 300000 3.1920 4.4958 2.4599 0.0000 -10676.9755 1409.9208 0.0000 0.0000 1718.0671 -7538.8400 290.7097 -9256.9071 -7524.9254 298.0884 -27.6568 -5.0509 30360.7819 -188.7952 -139.5492
ENERGY: 600000 2.7620 6.3163 3.7462 0.0000 -10779.4189 1473.1594 0.0000 0.0000 1776.6154 -7516.8195 300.6165 -9293.4349 -7508.6144 298.9314 54.5020 125.8281 30681.8319 -39.7753 9.2541
ENERGY: 900000 4.0159 7.3254 3.1377 0.0000 -10876.8340 1511.9886 0.0000 0.0000 1761.0697 -7589.2968 297.9861 -9350.3664 -7522.0197 298.3378 228.3205 284.1189 30549.5020 27.2159 78.2953
ENERGY: 1200000 1.0126 4.8586 3.7004 0.0000 -10825.5343 1472.9078 0.0000 0.0000 1742.2150 -7600.8399 294.7957 -9343.0549 -7530.0699 297.7909 5.1425 74.6609 30736.9939 -7.9071 48.1283
ENERGY: 1500000 1.4331 10.0791 1.7394 0.0000 -10896.2177 1601.5176 0.0000 0.0000 1824.1242 -7457.3243 308.6554 -9281.4485 -7522.9648 298.8902 1309.7465 1383.0945 30373.7534 157.4769 214.5111
TCL: Running FEP window  17: Lambda1 0.8000000000000002 Lambda2 0.8500000000000002 [dLambda 0.050000000000000044]
TCL: Setting parameter firsttimestep to 0
TCL: Setting parameter alchLambda to 0.8000000000000002
Info: NONBONDED TABLE R-SQUARED SPACING: 0.0625
Info: NONBONDED TABLE SIZE: 705 POINTS
TCL: Setting parameter alchLambda2 to 0.8500000000000002
Info: NONBONDED TABLE R-SQUARED SPACING: 0.0625
Info: NONBONDED TABLE SIZE: 705 POINTS
TCL: Running for 1500000 steps
ETITLE: TS BOND ANGLE DIHED IMPRP ELECT VDW BOUNDARY MISC KINETIC TOTAL TEMP POTENTIAL TOTALAVG TEMPAVG PRESSURE GPRESSURE VOLUME PRESSAVG GPRESSAVG
ENERGY: 0 1.4331 10.0791 1.7394 0.0000 -10896.2554 1601.1255 0.0000 0.0000 1823.2205 -7458.6577 308.5025 -9281.8782 -7458.6577 308.5025 1298.5390 1385.9117 30373.7534 1298.5390 1385.9117
ENERGY: 300000 3.4786 6.0611 4.7615 0.0000 -10648.7694 1360.4601 0.0000 0.0000 1833.5300 -7440.4781 310.2469 -9274.0081 -7489.9546 303.7546 -795.8755 -752.6883 31080.1374 122.1247 208.4314
ENERGY: 600000 1.4226 6.0489 2.3359 0.0000 -10790.9072 1486.5740 0.0000 0.0000 1782.9917 -7511.5341 301.6954 -9294.5258 -7497.5124 302.8795 288.0273 320.2318 30782.0519 -29.3297 42.8777
ENERGY: 900000 4.2271 5.8188 2.0421 0.0000 -10570.4146 1440.9551 0.0000 0.0000 1754.9338 -7362.4377 296.9478 -9117.3715 -7486.4321 300.7219 423.1544 455.7609 31100.9134 -15.9727 48.8134
ENERGY: 1200000 3.6863 4.5021 3.5217 0.0000 -10766.6619 1462.7278 0.0000 0.0000 1729.3705 -7562.8536 292.6223 -9292.2241 -7497.7690 299.4048 28.0705 14.9406 30522.1130 11.7779 63.0040
ENERGY: 1500000 2.4118 4.9811 3.5946 0.0000 -10722.5482 1442.4749 0.0000 0.0000 1719.0027 -7550.0831 290.8680 -9269.0858 -7489.9157 300.4238 -372.2655 -307.3789 31231.4399 -57.8058 -8.6312
TCL: Running FEP window  18: Lambda1 0.8500000000000002 Lambda2 0.9000000000000002 [dLambda 0.050000000000000044]
TCL: Setting parameter firsttimestep to 0
TCL: Setting parameter alchLambda to 0.8500000000000002
Info: NONBONDED TABLE R-SQUARED SPACING: 0.0625
Info: NONBONDED TABLE SIZE: 705 POINTS
TCL: Setting parameter alchLambda2 to 0.9000000000000002
Info: NONBONDED TABLE R-SQUARED SPACING: 0.0625
Info: NONBONDED TABLE SIZE: 705 POINTS
TCL: Running for 1500000 steps
ETITLE: TS BOND ANGLE DIHED IMPRP ELECT VDW BOUNDARY MISC KINETIC TOTAL TEMP POTENTIAL TOTALAVG TEMPAVG PRESSURE GPRESSURE VOLUME PRESSAVG GPRESSAVG
ENERGY: 0 2.4119 4.9811 3.5946 0.0000 -10722.4465 1442.1981 0.0000 0.0000 1718.1025 -7551.1584 290.7157 -9269.2609 -7551.1584 290.7157 -389.6483 -300.2257 31231.4399 -389.6483 -300.2257
ENERGY: 300000 3.8066 5.4332 3.9626 0.0000 -10615.2732 1368.8036 0.0000 0.0000 1762.2747 -7470.9926 298.1900 -9233.2673 -7482.7160 298.7820 -625.0037 -599.5814 30801.9449 -252.1548 -166.3778
ENERGY: 600000 1.4310 12.0744 2.4539 0.0000 -10837.6651 1490.8840 0.0000 0.0000 1806.1406 -7524.6813 305.6124 -9330.8219 -7501.1971 301.0455 217.9808 229.7066 30494.5881 -138.4704 -71.6511
ENERGY: 900000 4.2440 4.5121 0.9488 0.0000 -10706.8131 1359.9906 0.0000 0.0000 1790.7737 -7546.3439 303.0122 -9337.1176 -7499.4035 301.0204 -979.9454 -912.8913 30801.8453 -259.3078 -188.1726
ENERGY: 1200000 1.2694 7.1676 3.7879 0.0000 -10662.0673 1388.1308 0.0000 0.0000 1752.4301 -7509.2815 296.5242 -9261.7115 -7496.9690 301.1701 -612.6175 -573.2870 31007.9558 -300.9741 -231.7416
ENERGY: 1500000 1.8779 6.9912 1.6615 0.0000 -10804.4622 1487.0617 0.0000 0.0000 1748.6125 -7558.2575 295.8782 -9306.8700 -7509.1060 300.6720 414.3624 470.6911 30564.5942 -157.9222 -90.6440
TCL: Running FEP window  19: Lambda1 0.9000000000000002 Lambda2 0.9500000000000003 [dLambda 0.050000000000000044]
TCL: Setting parameter firsttimestep to 0
TCL: Setting parameter alchLambda to 0.9000000000000002
Info: NONBONDED TABLE R-SQUARED SPACING: 0.0625
Info: NONBONDED TABLE SIZE: 705 POINTS
TCL: Setting parameter alchLambda2 to 0.9500000000000003
Info: NONBONDED TABLE R-SQUARED SPACING: 0.0625
Info: NONBONDED TABLE SIZE: 705 POINTS
TCL: Running for 1500000 steps
ETITLE: TS BOND ANGLE DIHED IMPRP ELECT VDW BOUNDARY MISC KINETIC TOTAL TEMP POTENTIAL TOTALAVG TEMPAVG PRESSURE GPRESSURE VOLUME PRESSAVG GPRESSAVG
ENERGY: 0 1.8779 6.9912 1.6615 0.0000 -10805.2713 1487.1477 0.0000 0.0000 1747.7694 -7559.8236 295.7356 -9307.5931 -7559.8236 295.7356 401.6709 480.0395 30564.5942 401.6709 480.0395
ENERGY: 300000 5.3517 3.4685 2.3835 0.0000 -10711.7456 1411.3952 0.0000 0.0000 1748.9840 -7540.1628 295.9411 -9289.1468 -7548.9830 295.7480 -487.7527 -439.7095 30814.8377 89.2371 127.7707
ENERGY: 600000 2.0470 8.2732 1.5342 0.0000 -10887.3672 1485.2484 0.0000 0.0000 1766.1873 -7624.0771 298.8520 -9390.2643 -7555.9281 297.6127 -61.8811 26.4806 30635.8056 105.9130 151.5959
ENERGY: 900000 3.3574 6.4504 3.2305 0.0000 -10635.9230 1330.1328 0.0000 0.0000 1759.4029 -7533.3490 297.7040 -9292.7519 -7550.4565 297.3652 -1063.3208 -981.4635 30570.5046 99.4628 156.9711
ENERGY: 1200000 1.4443 8.3815 3.0684 0.0000 -10826.8841 1524.8892 0.0000 0.0000 1788.4616 -7500.6390 302.6210 -9289.1006 -7555.6185 296.7397 996.4371 1042.8834 30113.6684 210.3885 268.5779
ENERGY: 1500000 1.2141 4.0096 1.8036 0.0000 -10767.6276 1512.4471 0.0000 0.0000 1767.6387 -7480.5145 299.0976 -9248.1532 -7541.7567 297.5848 757.5950 795.9349 30689.7077 251.4545 310.6803
TCL: Running FEP window  20: Lambda1 0.9500000000000003 Lambda2 1.0    [dLambda 0.04999999999999971]
TCL: Setting parameter firsttimestep to 0
TCL: Setting parameter alchLambda to 0.9500000000000003
Info: NONBONDED TABLE R-SQUARED SPACING: 0.0625
Info: NONBONDED TABLE SIZE: 705 POINTS
TCL: Setting parameter alchLambda2 to 1.0
Info: NONBONDED TABLE R-SQUARED SPACING: 0.0625
Info: NONBONDED TABLE SIZE: 705 POINTS
TCL: Running for 1500000 steps
ETITLE: TS BOND ANGLE DIHED IMPRP ELECT VDW BOUNDARY MISC KINETIC TOTAL TEMP POTENTIAL TOTALAVG TEMPAVG PRESSURE GPRESSURE VOLUME PRESSAVG GPRESSAVG
ENERGY: 0 1.2141 4.0096 1.8036 0.0000 -10768.0529 1512.4901 0.0000 0.0000 1766.7163 -7481.8191 298.9415 -9248.5354 -7481.8191 298.9415 717.6616 807.7696 30689.7077 717.6616 807.7696
ENERGY: 300000 1.1295 4.0977 2.5390 0.0000 -10618.4904 1333.5733 0.0000 0.0000 1845.4459 -7431.7049 312.2631 -9277.1508 -7496.3452 300.3457 -1059.9430 -1012.7119 31268.9707 -129.0194 -74.8545
ENERGY: 600000 4.4520 6.8427 3.0229 0.0000 -10701.1231 1358.5454 0.0000 0.0000 1805.4983 -7522.7619 305.5037 -9328.2602 -7497.4445 299.9587 -942.2219 -885.0291 30749.7898 -224.2245 -147.0253
ENERGY: 900000 2.3513 8.4021 5.4668 0.0000 -10611.0367 1387.6136 0.0000 0.0000 1772.0252 -7435.1776 299.8398 -9207.2028 -7493.9926 299.3357 -339.0164 -356.4032 30977.3365 -60.0930 7.8475
ENERGY: 1200000 5.8970 5.7538 2.6852 0.0000 -10811.1156 1439.4326 0.0000 0.0000 1701.6357 -7655.7112 287.9294 -9357.3469 -7510.2575 299.5189 -278.5660 -215.5760 30396.4940 -8.9640 64.9433
ENERGY: 1500000 3.2324 6.6492 3.5896 0.0000 -10725.8608 1468.3394 0.0000 0.0000 1737.5326 -7506.5176 294.0034 -9244.0502 -7516.1162 298.9594 221.5001 270.3971 30568.7658 -93.7640 -21.4516
TCL: Exiting due to exit command.
