Info: SIMULATION PARAMETERS:
Info: TIMESTEP               2
Info: NUMBER OF STEPS        0
Info: STEPS PER CYCLE        10
Info: PERIODIC CELL BASIS 1  33.6709 0 0
Info: PERIODIC CELL BASIS 2  0 32.3256 0
Info: PERIODIC CELL BASIS 3  0 0 27.801
Info: PERIODIC CELL CENTER   0 0 0
Info: WRAPPING WATERS AROUND PERIODIC BOUNDARIES ON OUTPUT.
Info: WRAPPING ALL CLUSTERS AROUND PERIODIC BOUNDARIES ON OUTPUT.
Info: FIRST LDB TIMESTEP     50
Info: LAST LDB TIMESTEP     -1
Info: HOM BACKGROUND SCALING 1
Info: PME BACKGROUND SCALING 1
Info: MIN ATOMS PER PATCH    40
Info: EMPTY PATCH LOAD       40 ATOMS
Info: VELOCITY FILE          mobley_9007496_equil.vel
Info: CENTER OF MASS MOVING INITIALLY? NO
Info: DIELECTRIC             1
Info: EXCLUDE                SCALED ONE-FOUR
Info: 1-4 ELECTROSTATICS SCALED BY 0.833333
Info: MODIFIED 1-4 VDW PARAMETERS WILL BE USED
Info: DCD FILENAME           mobley_9007496_prod.dcd
Info: DCD FREQUENCY          100000
Info: DCD FIRST STEP         100000
Info: DCD FILE WILL CONTAIN UNIT CELL DATA
Info: XST FILENAME           mobley_9007496_prod.xst
Info: XST FREQUENCY          100000
Info: NO VELOCITY DCD OUTPUT
Info: NO FORCE DCD OUTPUT
Info: OUTPUT FILENAME        mobley_9007496_prod
Info: BINARY OUTPUT FILES WILL BE USED
Info: RESTART FILENAME       mobley_9007496_prod.restart
Info: RESTART FREQUENCY      100000
Info: BINARY RESTART FILES WILL BE USED
Info: CUTOFF                 9
Info: PAIRLIST DISTANCE      11
Info: PAIRLIST SHRINK RATE   0.01
Info: PAIRLIST GROW RATE     0.01
Info: PAIRLIST TRIGGER       0.3
Info: PAIRLISTS PER CYCLE    2
Info: PAIRLISTS ENABLED
Info: MARGIN                 2
Info: HYDROGEN GROUP CUTOFF  2.5
Info: PATCH DIMENSION        15.5
Info: ENERGY OUTPUT STEPS    100000
Info: ENERGY EVALUATION STEPS    100000
Info: OUTPUT ENERGY PRECISION 4
Info: CROSSTERM ENERGY INCLUDED IN DIHEDRAL
Info: TIMING OUTPUT STEPS    1000000
Info: PRESSURE OUTPUT STEPS  100000
Info: ALCHEMICAL FEP ON
Info: FEP CURRENT LAMBDA VALUE     0
Info: FEP COMPARISON LAMBDA VALUE  0.05
Info: FEP INTRA-ALCHEMICAL NON-BONDED INTERACTIONS WILL BE RETAINED
Info: FEP INTRA-ALCHEMICAL BONDED INTERACTIONS WILL BE RETAINED
Info: FEP VDW SHIFTING COEFFICIENT 5
Info: FEP ELEC. ACTIVE FOR ANNIHILATED PARTICLES BETWEEN LAMBDA = 0 AND LAMBDA = 0.5
Info: FEP ELEC. ACTIVE FOR EXNIHILATED PARTICLES BETWEEN LAMBDA = 0.5 AND LAMBDA = 1
Info: FEP VDW ACTIVE FOR ANNIHILATED PARTICLES BETWEEN LAMBDA = 0 AND LAMBDA = 1
Info: FEP VDW ACTIVE FOR EXNIHILATED PARTICLES BETWEEN LAMBDA = 0 AND LAMBDA = 1
Info: FEP BOND ACTIVE FOR ANNIHILATED PARTICLES BETWEEN LAMBDA = 1 AND LAMBDA = 1
Info: FEP BOND ACTIVE FOR EXNIHILATED PARTICLES BETWEEN LAMBDA = 0 AND LAMBDA = 0
Info: LANGEVIN DYNAMICS ACTIVE
Info: LANGEVIN TEMPERATURE   300
Info: LANGEVIN USING BBK INTEGRATOR
Info: LANGEVIN DAMPING COEFFICIENT IS 1 INVERSE PS
Info: LANGEVIN DYNAMICS APPLIED TO HYDROGENS
Info: LANGEVIN PISTON PRESSURE CONTROL ACTIVE
Info:        TARGET PRESSURE IS 1.01325 BAR
Info:     OSCILLATION PERIOD IS 50 FS
Info:             DECAY TIME IS 25 FS
Info:     PISTON TEMPERATURE IS 300 K
Info:       PRESSURE CONTROL IS GROUP-BASED
Info:    INITIAL STRAIN RATE IS 2.66709e-05 2.66709e-05 2.66709e-05
Info:       CELL FLUCTUATION IS ISOTROPIC
Info: PARTICLE MESH EWALD (PME) ACTIVE
Info: PME TOLERANCE               1e-06
Info: PME EWALD COEFFICIENT       0.348832
Info: PME INTERPOLATION ORDER     4
Info: PME GRID DIMENSIONS         36 36 28
Info: PME MAXIMUM GRID SPACING    1
Info: PME CALCULATION WILL BE PERFORMED ON GPU
Info: FULL ELECTROSTATIC EVALUATION FREQUENCY      2
Info: USING VERLET I (r-RESPA) MTS SCHEME.
Info: C1 SPLITTING OF LONG RANGE ELECTROSTATICS
Info: PLACING ATOMS IN PATCHES BY HYDROGEN GROUPS
Info: RIGID BONDS TO HYDROGEN : ALL
Info:         ERROR TOLERANCE : 1e-08
Info:          MAX ITERATIONS : 100
Info: RIGID WATER USING SETTLE ALGORITHM
Info: RANDOM NUMBER SEED     1743814556
Info: USE HYDROGEN BONDS?    NO
Info: Using AMBER format force field!
Info: AMBER PARM FILE        mobley_9007496.prmtop
Info: COORDINATE PDB         mobley_9007496.pdb
Info: Exclusions will be read from PARM file!
Info: SCNB (VDW SCALING)     2
Info: USING ARITHMETIC MEAN TO COMBINE L-J SIGMA PARAMETERS
Info: BINARY COORDINATES     mobley_9007496_equil.coor
Info: SUMMARY OF PARAMETERS:
Info: 11 BONDS
Info: 12 ANGLES
Info:   12 HARMONIC
Info:   0 COSINE-BASED
Info: 7 DIHEDRAL
Info: 0 IMPROPER
Info: 0 CROSSTERM
Info: 0 VDW
Info: 55 VDW_PAIRS
Info: 0 NBTHOLE_PAIRS
Info: To read alchdata from file: mobley_9007496.pdb
Info: To read alchflag data from column: 5
Info: STRUCTURE SUMMARY:
Info: 2927 ATOMS
Info: 2928 BONDS
Info: 43 ANGLES
Info: 71 DIHEDRALS
Info: 0 IMPROPERS
Info: 0 CROSSTERMS
Info: 3023 EXCLUSIONS
Info: 2912 RIGID BONDS
Info: ALCH: 0 ATOMS TO DISAPPEAR IN FINAL STATE
Info: ALCH: 26 ATOMS TO APPEAR IN FINAL STATE
Info: 5869 DEGREES OF FREEDOM
Info: 982 HYDROGEN GROUPS
Info: 4 ATOMS IN LARGEST HYDROGEN GROUP
Info: 982 MIGRATION GROUPS
Info: 4 ATOMS IN LARGEST MIGRATION GROUP
Info: TOTAL MASS = 17622.7 amu
Info: TOTAL CHARGE = 0.000300014 e
Info: MASS DENSITY = 0.967099 g/cm^3
Info: ATOM DENSITY = 0.0967302 atoms/A^3
Info: ADDED 0 IMPLICIT EXCLUSIONS
Info: NONBONDED TABLE R-SQUARED SPACING: 0.0625
Info: NONBONDED TABLE SIZE: 705 POINTS
Info: REDUCING NUMBER OF PATCHES TO IMPROVE LOAD BALANCE
Info: REMOVING COM VELOCITY 0.1519 -0.0509875 -0.015276
Info: Use 3D box decompostion in PME FFT.
Info: Updated CUDA force table with 4096 elements.
Info: Updated CUDA LJ table with 10 x 10 elements.
Info: Found 25 unique exclusion lists needing 80 bytes
TCL: Running for 1500000 steps
ETITLE: TS BOND ANGLE DIHED IMPRP ELECT VDW BOUNDARY MISC KINETIC TOTAL TEMP POTENTIAL TOTALAVG TEMPAVG PRESSURE GPRESSURE VOLUME PRESSAVG GPRESSAVG
ENERGY: 0 8.2716 10.1253 6.7791 0.0000 -10534.3761 1413.3233 0.0000 0.0000 1758.0933 -7337.7835 301.4867 -9095.8768 -7337.7835 301.4867 -123.0057 -37.4619 30259.4164 -123.0057 -37.4619
ENERGY: 300000 7.7136 11.2258 5.7201 0.0000 -10636.6715 1437.3257 0.0000 0.0000 1762.2624 -7412.4240 302.2017 -9174.6863 -7416.1420 299.4485 59.1057 45.9376 30404.6077 194.6463 231.2565
ENERGY: 600000 4.9110 8.1680 13.8395 0.0000 -10536.1993 1353.9245 0.0000 0.0000 1717.7476 -7437.6088 294.5680 -9155.3564 -7419.5589 298.6325 -797.8447 -675.7355 30202.3174 -23.2225 25.7365
ENERGY: 900000 6.0324 7.9393 4.6871 0.0000 -10659.4487 1453.2292 0.0000 0.0000 1733.6599 -7453.9008 297.2968 -9187.5608 -7430.8080 298.7024 66.0619 20.2832 29614.1075 23.3422 71.9520
ENERGY: 1200000 7.9170 8.1972 11.1800 0.0000 -10478.5721 1283.1386 0.0000 0.0000 1734.6752 -7433.4642 297.4709 -9168.1394 -7434.0093 298.6718 -1511.8575 -1427.6261 30009.6008 -144.1764 -83.1220
ENERGY: 1500000 7.1570 8.9696 5.7601 0.0000 -10602.7600 1432.4920 0.0000 0.0000 1762.7115 -7385.6698 302.2787 -9148.3813 -7426.8471 298.9731 -228.2481 -104.2494 29915.2697 -158.4514 -99.5103
TCL: Running FEP window   2: Lambda1 0.05   Lambda2 0.1    [dLambda 0.05  ]
TCL: Setting parameter firsttimestep to 0
TCL: Setting parameter alchLambda to 0.05
Info: NONBONDED TABLE R-SQUARED SPACING: 0.0625
Info: NONBONDED TABLE SIZE: 705 POINTS
TCL: Setting parameter alchLambda2 to 0.1
Info: NONBONDED TABLE R-SQUARED SPACING: 0.0625
Info: NONBONDED TABLE SIZE: 705 POINTS
TCL: Running for 1500000 steps
ETITLE: TS BOND ANGLE DIHED IMPRP ELECT VDW BOUNDARY MISC KINETIC TOTAL TEMP POTENTIAL TOTALAVG TEMPAVG PRESSURE GPRESSURE VOLUME PRESSAVG GPRESSAVG
ENERGY: 0 7.1571 8.9696 5.7601 0.0000 -10602.7619 1436.0627 0.0000 0.0000 1761.8095 -7383.0030 302.1240 -9144.8125 -7383.0030 302.1240 -191.6133 -92.4950 29915.2697 -191.6133 -92.4950
ENERGY: 300000 2.9368 8.8665 5.9903 0.0000 -10728.6717 1477.3176 0.0000 0.0000 1733.4077 -7500.1527 297.2535 -9233.5604 -7404.5220 303.6957 303.0223 322.4834 29887.3189 -228.3481 -133.3408
ENERGY: 600000 3.4642 5.8046 8.9385 0.0000 -10475.9194 1350.5717 0.0000 0.0000 1754.7768 -7352.3635 300.9180 -9107.1403 -7395.7947 302.4204 -482.7930 -462.4507 29869.7314 -299.1511 -222.6801
ENERGY: 900000 5.3971 10.7086 6.4346 0.0000 -10570.8270 1457.6954 0.0000 0.0000 1711.4565 -7379.1348 293.4892 -9090.5914 -7390.9033 301.4083 576.8715 610.7601 29506.4694 -100.6346 -27.8302
ENERGY: 1200000 5.2296 11.3408 4.0126 0.0000 -10460.9114 1388.6198 0.0000 0.0000 1725.5677 -7326.1408 295.9091 -9051.7085 -7374.0504 300.5485 -176.0699 -104.8853 30055.0992 -156.4167 -83.1784
ENERGY: 1500000 2.1821 11.1483 5.4118 0.0000 -10644.9282 1512.6681 0.0000 0.0000 1761.3357 -7352.1822 302.0427 -9113.5179 -7370.4540 300.8602 602.6892 728.8623 30096.4268 -91.3301 -21.6099
TCL: Running FEP window   3: Lambda1 0.1    Lambda2 0.15000000000000002 [dLambda 0.05000000000000002]
TCL: Setting parameter firsttimestep to 0
TCL: Setting parameter alchLambda to 0.1
Info: NONBONDED TABLE R-SQUARED SPACING: 0.0625
Info: NONBONDED TABLE SIZE: 705 POINTS
TCL: Setting parameter alchLambda2 to 0.15000000000000002
Info: NONBONDED TABLE R-SQUARED SPACING: 0.0625
Info: NONBONDED TABLE SIZE: 705 POINTS
TCL: Running for 1500000 steps
ETITLE: TS BOND ANGLE DIHED IMPRP ELECT VDW BOUNDARY MISC KINETIC TOTAL TEMP POTENTIAL TOTALAVG TEMPAVG PRESSURE GPRESSURE VOLUME PRESSAVG GPRESSAVG
ENERGY: 0 2.1821 11.1483 5.4118 0.0000 -10644.9258 1516.4052 0.0000 0.0000 1760.4617 -7349.3167 301.8929 -9109.7784 -7349.3167 301.8929 655.4816 743.7705 30096.4268 655.4816 743.7705
ENERGY: 300000 6.4683 7.8755 10.6979 0.0000 -10543.1731 1341.7905 0.0000 0.0000 1732.1697 -7444.1712 297.0412 -9176.3409 -7381.5681 300.9355 -829.0096 -740.4355 30179.3354 -391.9206 -308.4448
ENERGY: 600000 9.1628 4.7560 4.7253 0.0000 -10504.0558 1346.2070 0.0000 0.0000 1766.3193 -7372.8855 302.8974 -9139.2048 -7404.3915 299.0943 -1083.3382 -1075.4131 30229.3140 -455.2109 -396.8681
ENERGY: 900000 6.6826 6.9773 9.5252 0.0000 -10564.1834 1405.6833 0.0000 0.0000 1742.3773 -7392.9377 298.7917 -9135.3150 -7400.8080 299.5499 84.4802 105.4574 29719.5581 -452.6850 -405.8132
ENERGY: 1200000 3.6708 6.2586 5.8372 0.0000 -10653.7689 1468.7924 0.0000 0.0000 1760.1969 -7409.0131 301.8475 -9169.2100 -7400.1226 300.4758 87.3036 171.1140 30362.6859 -403.8924 -355.2190
ENERGY: 1500000 4.1922 8.0371 8.1630 0.0000 -10788.2474 1429.3610 0.0000 0.0000 1782.8434 -7555.6508 305.7310 -9338.4941 -7403.2701 300.5174 -610.5473 -550.8792 29767.9605 -330.4818 -280.8099
TCL: Running FEP window   4: Lambda1 0.15000000000000002 Lambda2 0.2    [dLambda 0.04999999999999999]
TCL: Setting parameter firsttimestep to 0
TCL: Setting parameter alchLambda to 0.15000000000000002
Info: NONBONDED TABLE R-SQUARED SPACING: 0.0625
Info: NONBONDED TABLE SIZE: 705 POINTS
TCL: Setting parameter alchLambda2 to 0.2
Info: NONBONDED TABLE R-SQUARED SPACING: 0.0625
Info: NONBONDED TABLE SIZE: 705 POINTS
TCL: Running for 1500000 steps
ETITLE: TS BOND ANGLE DIHED IMPRP ELECT VDW BOUNDARY MISC KINETIC TOTAL TEMP POTENTIAL TOTALAVG TEMPAVG PRESSURE GPRESSURE VOLUME PRESSAVG GPRESSAVG
ENERGY: 0 4.1922 8.0371 8.1630 0.0000 -10788.2473 1432.5982 0.0000 0.0000 1781.9747 -7553.2821 305.5820 -9335.2569 -7553.2821 305.5820 -611.1736 -532.0175 29767.9605 -611.1736 -532.0175
ENERGY: 300000 5.5112 10.2090 7.4368 0.0000 -10625.6196 1475.0355 0.0000 0.0000 1785.4609 -7341.9663 306.1799 -9127.4272 -7407.7282 306.5623 360.3523 462.5195 30015.8117 21.7653 124.4363
ENERGY: 600000 12.6176 11.2415 7.2614 0.0000 -10457.9045 1387.0699 0.0000 0.0000 1754.8996 -7284.8146 300.9390 -9039.7142 -7380.8977 304.7518 -52.0425 62.7043 29911.8576 89.4631 185.8399
ENERGY: 900000 3.7439 13.1281 12.4064 0.0000 -10469.9538 1290.4957 0.0000 0.0000 1716.2443 -7433.9354 294.3102 -9150.1797 -7397.4846 302.2531 -1058.4990 -1001.5213 30023.9925 -32.2575 57.4403
ENERGY: 1200000 8.2077 9.0180 3.0583 0.0000 -10480.8072 1354.5213 0.0000 0.0000 1781.9180 -7324.0839 305.5723 -9106.0019 -7392.2294 302.4009 -688.1862 -647.7061 29969.0916 -94.2227 -13.1357
ENERGY: 1500000 6.3919 9.8362 5.3391 0.0000 -10641.3658 1465.9572 0.0000 0.0000 1817.0434 -7336.7978 311.5958 -9153.8413 -7384.4369 302.9166 817.9052 898.5077 29394.8921 -99.8086 -17.1940
TCL: Running FEP window   5: Lambda1 0.2    Lambda2 0.25   [dLambda 0.04999999999999999]
TCL: Setting parameter firsttimestep to 0
TCL: Setting parameter alchLambda to 0.2
Info: NONBONDED TABLE R-SQUARED SPACING: 0.0625
Info: NONBONDED TABLE SIZE: 705 POINTS
TCL: Setting parameter alchLambda2 to 0.25
Info: NONBONDED TABLE R-SQUARED SPACING: 0.0625
Info: NONBONDED TABLE SIZE: 705 POINTS
TCL: Running for 1500000 steps
ETITLE: TS BOND ANGLE DIHED IMPRP ELECT VDW BOUNDARY MISC KINETIC TOTAL TEMP POTENTIAL TOTALAVG TEMPAVG PRESSURE GPRESSURE VOLUME PRESSAVG GPRESSAVG
ENERGY: 0 6.3919 9.8362 5.3391 0.0000 -10641.3656 1466.5375 0.0000 0.0000 1816.1809 -7337.0799 311.4479 -9153.2609 -7337.0799 311.4479 824.6842 907.6456 29394.8921 824.6842 907.6456
ENERGY: 300000 4.4466 10.0291 6.4333 0.0000 -10616.2512 1405.0293 0.0000 0.0000 1706.1747 -7484.1382 292.5835 -9190.3128 -7376.8330 306.9173 -389.0110 -314.0167 29873.6820 144.6938 202.3878
ENERGY: 600000 4.6069 12.2675 4.4214 0.0000 -10579.0486 1459.2637 0.0000 0.0000 1807.2809 -7291.2081 309.9217 -9098.4890 -7395.8198 303.2646 480.0095 508.2640 29706.4113 192.0835 239.2645
ENERGY: 900000 3.9447 10.6979 10.5426 0.0000 -10701.7554 1458.6767 0.0000 0.0000 1742.9863 -7474.9072 298.8961 -9217.8935 -7409.8974 302.4292 215.1266 251.8918 29463.6905 101.9893 151.9960
ENERGY: 1200000 4.5038 8.8510 7.6471 0.0000 -10530.2331 1422.2866 0.0000 0.0000 1720.3987 -7366.5459 295.0227 -9086.9446 -7411.4299 300.7423 177.1210 245.9739 29866.9700 -13.8887 36.1132
ENERGY: 1500000 4.0913 8.3142 9.3132 0.0000 -10665.4571 1433.8669 0.0000 0.0000 1773.9380 -7435.9336 304.2038 -9209.8716 -7404.6331 300.5067 158.9586 278.4073 29459.3736 -20.0457 29.9962
TCL: Running FEP window   6: Lambda1 0.25   Lambda2 0.3    [dLambda 0.04999999999999999]
TCL: Setting parameter firsttimestep to 0
TCL: Setting parameter alchLambda to 0.25
Info: NONBONDED TABLE R-SQUARED SPACING: 0.0625
Info: NONBONDED TABLE SIZE: 705 POINTS
TCL: Setting parameter alchLambda2 to 0.3
Info: NONBONDED TABLE R-SQUARED SPACING: 0.0625
Info: NONBONDED TABLE SIZE: 705 POINTS
TCL: Running for 1500000 steps
ETITLE: TS BOND ANGLE DIHED IMPRP ELECT VDW BOUNDARY MISC KINETIC TOTAL TEMP POTENTIAL TOTALAVG TEMPAVG PRESSURE GPRESSURE VOLUME PRESSAVG GPRESSAVG
ENERGY: 0 4.0913 8.3142 9.3132 0.0000 -10665.4580 1434.3624 0.0000 0.0000 1773.0311 -7436.3459 304.0483 -9209.3769 -7436.3459 304.0483 206.3438 288.6217 29459.3736 206.3438 288.6217
ENERGY: 300000 5.1920 9.2385 7.7155 0.0000 -10440.8779 1369.5700 0.0000 0.0000 1704.7466 -7344.4153 292.3386 -9049.1619 -7396.4233 299.8167 -214.8886 -176.8828 30448.8537 59.6315 142.0207
ENERGY: 600000 5.2143 6.8786 6.1081 0.0000 -10717.4116 1454.9040 0.0000 0.0000 1774.6915 -7469.6152 304.3331 -9244.3066 -7416.6375 300.2811 43.9271 131.8258 29717.7363 113.9377 177.0087
ENERGY: 900000 9.9995 9.8772 7.0649 0.0000 -10553.4022 1382.0582 0.0000 0.0000 1794.9786 -7349.4238 307.8120 -9144.4024 -7405.4923 301.4441 -518.0473 -462.4080 30249.4474 18.1351 85.0966
ENERGY: 1200000 2.9948 7.2564 6.5283 0.0000 -10573.0063 1371.9474 0.0000 0.0000 1746.3188 -7437.9606 299.4676 -9184.2794 -7402.0736 301.2493 -462.2380 -424.3174 29966.0321 18.2623 82.9316
ENERGY: 1500000 7.5898 5.6859 5.0713 0.0000 -10602.9745 1478.4041 0.0000 0.0000 1702.6075 -7403.6158 291.9717 -9106.2233 -7407.0563 300.4701 482.1678 521.4377 29845.3088 33.3088 94.9799
TCL: Running FEP window   7: Lambda1 0.3    Lambda2 0.35   [dLambda 0.04999999999999999]
TCL: Setting parameter firsttimestep to 0
TCL: Setting parameter alchLambda to 0.3
Info: NONBONDED TABLE R-SQUARED SPACING: 0.0625
Info: NONBONDED TABLE SIZE: 705 POINTS
TCL: Setting parameter alchLambda2 to 0.35
Info: NONBONDED TABLE R-SQUARED SPACING: 0.0625
Info: NONBONDED TABLE SIZE: 705 POINTS
TCL: Running for 1500000 steps
ETITLE: TS BOND ANGLE DIHED IMPRP ELECT VDW BOUNDARY MISC KINETIC TOTAL TEMP POTENTIAL TOTALAVG TEMPAVG PRESSURE GPRESSURE VOLUME PRESSAVG GPRESSAVG
ENERGY: 0 7.5898 5.6859 5.0713 0.0000 -10602.9744 1479.0262 0.0000 0.0000 1701.7553 -7403.8458 291.8256 -9105.6011 -7403.8458 291.8256 460.5761 532.0046 29845.3088 460.5761 532.0046
ENERGY: 300000 3.5543 7.3607 6.2334 0.0000 -10576.6231 1414.3539 0.0000 0.0000 1747.2662 -7397.8546 299.6300 -9145.1208 -7435.7358 297.1685 -126.3452 -44.1891 29959.5858 32.9431 101.1208
ENERGY: 600000 5.7120 8.0800 8.8575 0.0000 -10651.7515 1405.8429 0.0000 0.0000 1755.0406 -7468.2184 300.9632 -9223.2590 -7438.9654 299.5151 -548.7960 -440.3825 29904.6303 -153.4626 -89.5266
ENERGY: 900000 10.7950 14.2032 7.0287 0.0000 -10562.7071 1357.1720 0.0000 0.0000 1748.2261 -7425.2820 299.7946 -9173.5082 -7425.7269 299.5137 -818.7268 -722.6682 29864.7002 -256.1859 -189.8802
ENERGY: 1200000 6.4014 5.6383 8.6034 0.0000 -10637.3194 1492.2422 0.0000 0.0000 1780.7358 -7343.6984 305.3696 -9124.4342 -7417.9470 300.1199 206.4756 273.4530 30386.2951 -216.1932 -145.8708
ENERGY: 1500000 4.6842 13.4625 6.6574 0.0000 -10648.5420 1459.1943 0.0000 0.0000 1748.0268 -7416.5168 299.7605 -9164.5436 -7424.5282 299.3924 365.3640 404.5553 29936.1736 -134.9016 -69.9118
TCL: Running FEP window   8: Lambda1 0.35   Lambda2 0.39999999999999997 [dLambda 0.04999999999999999]
TCL: Setting parameter firsttimestep to 0
TCL: Setting parameter alchLambda to 0.35
Info: NONBONDED TABLE R-SQUARED SPACING: 0.0625
Info: NONBONDED TABLE SIZE: 705 POINTS
TCL: Setting parameter alchLambda2 to 0.39999999999999997
Info: NONBONDED TABLE R-SQUARED SPACING: 0.0625
Info: NONBONDED TABLE SIZE: 705 POINTS
TCL: Running for 1500000 steps
ETITLE: TS BOND ANGLE DIHED IMPRP ELECT VDW BOUNDARY MISC KINETIC TOTAL TEMP POTENTIAL TOTALAVG TEMPAVG PRESSURE GPRESSURE VOLUME PRESSAVG GPRESSAVG
ENERGY: 0 4.6842 13.4625 6.6574 0.0000 -10648.5429 1459.1486 0.0000 0.0000 1747.1249 -7417.4653 299.6058 -9164.5902 -7417.4653 299.6058 317.8206 412.8331 29936.1736 317.8206 412.8331
ENERGY: 300000 4.7776 6.4598 9.4145 0.0000 -10563.5063 1343.4003 0.0000 0.0000 1750.8622 -7448.5919 300.2467 -9199.4542 -7427.9427 298.7129 -1080.0440 -964.3524 30163.3526 -85.8971 -22.0854
ENERGY: 600000 4.4294 9.9279 7.7078 0.0000 -10715.6774 1556.5112 0.0000 0.0000 1727.6222 -7409.4790 296.2614 -9137.1011 -7411.6672 299.5498 1008.4649 1034.7309 29904.6594 -58.8703 14.8238
ENERGY: 900000 5.1696 9.4507 8.8229 0.0000 -10552.6168 1371.9864 0.0000 0.0000 1678.6228 -7478.5644 287.8587 -9157.1872 -7416.5091 298.0619 -521.4759 -467.2616 30143.0014 -43.8825 22.5926
ENERGY: 1200000 2.9521 6.5900 5.3669 0.0000 -10518.3589 1353.9177 0.0000 0.0000 1683.2033 -7466.3289 288.6442 -9149.5322 -7418.3380 297.6929 -609.2777 -520.6450 30078.6585 -71.1147 -3.4681
ENERGY: 1500000 8.1857 8.3800 9.5772 0.0000 -10571.1521 1384.6018 0.0000 0.0000 1789.3946 -7371.0129 306.8544 -9160.4074 -7411.4008 299.1964 -118.2914 -106.7724 29778.6582 -37.0364 30.1369
TCL: Running FEP window   9: Lambda1 0.39999999999999997 Lambda2 0.44999999999999996 [dLambda 0.04999999999999999]
TCL: Setting parameter firsttimestep to 0
TCL: Setting parameter alchLambda to 0.39999999999999997
Info: NONBONDED TABLE R-SQUARED SPACING: 0.0625
Info: NONBONDED TABLE SIZE: 705 POINTS
TCL: Setting parameter alchLambda2 to 0.44999999999999996
Info: NONBONDED TABLE R-SQUARED SPACING: 0.0625
Info: NONBONDED TABLE SIZE: 705 POINTS
TCL: Running for 1500000 steps
ETITLE: TS BOND ANGLE DIHED IMPRP ELECT VDW BOUNDARY MISC KINETIC TOTAL TEMP POTENTIAL TOTALAVG TEMPAVG PRESSURE GPRESSURE VOLUME PRESSAVG GPRESSAVG
ENERGY: 0 8.1858 8.3800 9.5772 0.0000 -10571.1528 1384.4811 0.0000 0.0000 1788.4989 -7372.0299 306.7008 -9160.5288 -7372.0299 306.7008 -191.5211 -100.9524 29778.6582 -191.5211 -100.9524
ENERGY: 300000 5.8514 6.9532 8.3967 0.0000 -10665.5344 1456.6522 0.0000 0.0000 1757.3759 -7430.3050 301.3637 -9187.6809 -7430.6138 301.2289 -53.5007 55.2143 30252.5626 333.7441 425.6984
ENERGY: 600000 8.1526 7.5639 7.5694 0.0000 -10649.5245 1466.7092 0.0000 0.0000 1734.5411 -7424.9882 297.4479 -9159.5294 -7406.3766 299.8948 570.1440 680.0412 29500.5280 146.1911 233.3665
ENERGY: 900000 5.3559 9.1313 8.3416 0.0000 -10528.9924 1331.9741 0.0000 0.0000 1710.3117 -7463.8777 293.2929 -9174.1894 -7406.0769 298.4177 -960.7191 -950.0133 30111.0194 57.6671 134.5559
ENERGY: 1200000 3.6461 6.9569 10.5117 0.0000 -10683.5946 1478.1034 0.0000 0.0000 1768.5055 -7415.8710 303.2723 -9184.3765 -7404.4619 299.5208 539.5556 594.8440 29817.1466 197.9486 270.9129
ENERGY: 1500000 8.7559 10.4950 5.4014 0.0000 -10627.2170 1462.8474 0.0000 0.0000 1707.5095 -7432.2079 292.8124 -9139.7174 -7409.2256 298.7215 360.1297 471.9633 29811.3687 104.1980 175.3089
TCL: Running FEP window  10: Lambda1 0.44999999999999996 Lambda2 0.49999999999999994 [dLambda 0.04999999999999999]
TCL: Setting parameter firsttimestep to 0
TCL: Setting parameter alchLambda to 0.44999999999999996
Info: NONBONDED TABLE R-SQUARED SPACING: 0.0625
Info: NONBONDED TABLE SIZE: 705 POINTS
TCL: Setting parameter alchLambda2 to 0.49999999999999994
Info: NONBONDED TABLE R-SQUARED SPACING: 0.0625
Info: NONBONDED TABLE SIZE: 705 POINTS
TCL: Running for 1500000 steps
ETITLE: TS BOND ANGLE DIHED IMPRP ELECT VDW BOUNDARY MISC KINETIC TOTAL TEMP POTENTIAL TOTALAVG TEMPAVG PRESSURE GPRESSURE VOLUME PRESSAVG GPRESSAVG
ENERGY: 0 8.7559 10.4950 5.4014 0.0000 -10627.2183 1462.3932 0.0000 0.0000 1706.6407 -7433.5322 292.6634 -9140.1728 -7433.5322 292.6634 389.4903 479.5030 29811.3687 389.4903 479.5030
ENERGY: 300000 5.3904 5.4671 8.7619 0.0000 -10376.0230 1314.6528 0.0000 0.0000 1770.3153 -7271.4355 303.5826 -9041.7508 -7358.6141 300.5103 -583.8523 -541.8876 30647.5875 244.5784 306.3387
ENERGY: 600000 7.0642 12.1783 7.4814 0.0000 -10709.0683 1502.5675 0.0000 0.0000 1762.9551 -7416.8218 302.3204 -9179.7769 -7377.8928 300.6101 630.0941 643.4546 29901.2181 216.0908 262.5693
ENERGY: 900000 3.7080 7.8105 11.3867 0.0000 -10467.1610 1388.1012 0.0000 0.0000 1745.0636 -7311.0911 299.2523 -9056.1547 -7370.1171 301.2255 -195.0082 -118.1178 30752.4038 160.2540 218.4373
ENERGY: 1200000 4.0732 10.8524 10.5459 0.0000 -10500.0405 1388.6133 0.0000 0.0000 1755.9611 -7329.9946 301.1211 -9085.9557 -7375.5935 301.6461 -163.0845 -122.6424 30190.3760 146.9790 203.0009
ENERGY: 1500000 6.2567 7.7538 6.8786 0.0000 -10684.6467 1463.8403 0.0000 0.0000 1744.2436 -7455.6738 299.1117 -9199.9173 -7384.1873 301.5962 -114.4970 -114.2146 30277.5015 88.7556 141.7286
TCL: Running FEP window  11: Lambda1 0.49999999999999994 Lambda2 0.5499999999999999 [dLambda 0.04999999999999999]
TCL: Setting parameter firsttimestep to 0
TCL: Setting parameter alchLambda to 0.49999999999999994
Info: NONBONDED TABLE R-SQUARED SPACING: 0.0625
Info: NONBONDED TABLE SIZE: 705 POINTS
TCL: Setting parameter alchLambda2 to 0.5499999999999999
Info: NONBONDED TABLE R-SQUARED SPACING: 0.0625
Info: NONBONDED TABLE SIZE: 705 POINTS
TCL: Running for 1500000 steps
ETITLE: TS BOND ANGLE DIHED IMPRP ELECT VDW BOUNDARY MISC KINETIC TOTAL TEMP POTENTIAL TOTALAVG TEMPAVG PRESSURE GPRESSURE VOLUME PRESSAVG GPRESSAVG
ENERGY: 0 6.2567 7.7538 6.8786 0.0000 -10684.6455 1463.6469 0.0000 0.0000 1743.3545 -7456.7551 298.9592 -9200.1096 -7456.7551 298.9592 -184.0056 -107.7684 30277.5015 -184.0056 -107.7684
ENERGY: 300000 7.9932 11.6257 6.3692 0.0000 -10617.9497 1414.2127 0.0000 0.0000 1707.2514 -7470.4976 292.7681 -9177.7489 -7457.9532 298.2781 -507.9623 -442.4241 30506.5114 -289.1809 -229.4220
ENERGY: 600000 4.2171 11.6215 9.8717 0.0000 -10728.3342 1534.8151 0.0000 0.0000 1735.6368 -7432.1720 297.6358 -9167.8088 -7437.4025 297.9968 1050.2443 1149.3191 29908.0949 110.9723 176.0118
ENERGY: 900000 5.0699 9.0777 8.7403 0.0000 -10688.0078 1430.7296 0.0000 0.0000 1760.9967 -7473.3936 301.9846 -9234.3903 -7437.6838 298.3522 -230.9086 -186.2705 30174.2258 -25.8308 26.3475
ENERGY: 1200000 6.1417 6.0877 12.6115 0.0000 -10549.6404 1320.4900 0.0000 0.0000 1794.9173 -7409.3922 307.8015 -9204.3095 -7424.6405 299.0013 -730.7904 -625.4824 30075.4779 -53.3919 1.0415
ENERGY: 1500000 3.1459 5.2290 8.2224 0.0000 -10637.8247 1413.1492 0.0000 0.0000 1779.9835 -7428.0946 305.2406 -9208.0780 -7416.0038 299.5057 -58.9316 57.6482 29841.1166 -94.5038 -34.1115
TCL: Running FEP window  12: Lambda1 0.5499999999999999 Lambda2 0.6    [dLambda 0.050000000000000044]
TCL: Setting parameter firsttimestep to 0
TCL: Setting parameter alchLambda to 0.5499999999999999
Info: NONBONDED TABLE R-SQUARED SPACING: 0.0625
Info: NONBONDED TABLE SIZE: 705 POINTS
TCL: Setting parameter alchLambda2 to 0.6
Info: NONBONDED TABLE R-SQUARED SPACING: 0.0625
Info: NONBONDED TABLE SIZE: 705 POINTS
TCL: Running for 1500000 steps
ETITLE: TS BOND ANGLE DIHED IMPRP ELECT VDW BOUNDARY MISC KINETIC TOTAL TEMP POTENTIAL TOTALAVG TEMPAVG PRESSURE GPRESSURE VOLUME PRESSAVG GPRESSAVG
ENERGY: 0 3.1459 5.2290 8.2224 0.0000 -10638.2432 1412.1318 0.0000 0.0000 1779.0937 -7430.4203 305.0880 -9209.5140 -7430.4203 305.0880 -15.5507 58.4636 29841.1166 -15.5507 58.4636
ENERGY: 300000 4.2020 6.9384 4.8667 0.0000 -10637.3844 1454.5535 0.0000 0.0000 1711.3075 -7455.5164 293.4637 -9166.8238 -7475.1144 296.7214 -199.9678 -135.9580 30622.8397 -250.5103 -193.6300
ENERGY: 600000 6.2195 6.2011 11.2899 0.0000 -10532.6502 1369.7307 0.0000 0.0000 1814.5659 -7324.6431 311.1709 -9139.2090 -7424.2247 299.3248 -289.9575 -280.8829 29661.7501 -271.3525 -223.9139
ENERGY: 900000 5.9542 6.4168 4.5305 0.0000 -10582.4173 1425.8601 0.0000 0.0000 1654.9941 -7484.6615 283.8068 -9139.6556 -7416.2501 298.7803 206.6494 237.9480 29737.5755 -224.8985 -180.9239
ENERGY: 1200000 4.9924 7.8688 7.2035 0.0000 -10464.1760 1357.5319 0.0000 0.0000 1780.7773 -7305.8021 305.3767 -9086.5794 -7401.6834 299.7650 -127.1702 -71.3621 30399.1945 -150.8767 -105.6133
ENERGY: 1500000 5.3598 9.6895 4.5203 0.0000 -10611.0864 1403.3501 0.0000 0.0000 1767.3888 -7420.7779 303.0808 -9188.1667 -7395.7482 301.4372 -148.1515 -112.7949 29965.6848 -93.1993 -43.2565
TCL: Running FEP window  13: Lambda1 0.6    Lambda2 0.65   [dLambda 0.050000000000000044]
TCL: Setting parameter firsttimestep to 0
TCL: Setting parameter alchLambda to 0.6
Info: NONBONDED TABLE R-SQUARED SPACING: 0.0625
Info: NONBONDED TABLE SIZE: 705 POINTS
TCL: Setting parameter alchLambda2 to 0.65
Info: NONBONDED TABLE R-SQUARED SPACING: 0.0625
Info: NONBONDED TABLE SIZE: 705 POINTS
TCL: Running for 1500000 steps
ETITLE: TS BOND ANGLE DIHED IMPRP ELECT VDW BOUNDARY MISC KINETIC TOTAL TEMP POTENTIAL TOTALAVG TEMPAVG PRESSURE GPRESSURE VOLUME PRESSAVG GPRESSAVG
ENERGY: 0 5.3598 9.6895 4.5203 0.0000 -10610.7583 1403.7047 0.0000 0.0000 1766.5044 -7420.9796 302.9291 -9187.4840 -7420.9796 302.9291 -182.9351 -94.2527 29965.6848 -182.9351 -94.2527
ENERGY: 300000 4.8800 6.0127 8.2923 0.0000 -10780.5534 1486.7109 0.0000 0.0000 1754.1630 -7520.4945 300.8127 -9274.6576 -7412.6586 304.8846 49.7728 138.3893 30043.2800 -74.1153 -14.3947
ENERGY: 600000 4.3340 6.5153 6.7690 0.0000 -10602.0004 1462.6947 0.0000 0.0000 1715.8386 -7405.8489 294.2407 -9121.6874 -7414.9576 301.6860 300.5240 422.5022 29670.6042 -7.4846 70.9563
ENERGY: 900000 7.1180 8.9294 11.3152 0.0000 -10423.0869 1237.8850 0.0000 0.0000 1718.6245 -7439.2148 294.7184 -9157.8393 -7418.3859 300.9257 -1721.8357 -1700.0964 30233.2747 -222.1524 -147.2512
ENERGY: 1200000 3.9256 10.6650 7.4042 0.0000 -10575.1541 1409.1425 0.0000 0.0000 1719.0469 -7424.9698 294.7908 -9144.0167 -7411.6658 300.3995 39.0761 96.1692 29888.0843 -205.0009 -133.3610
ENERGY: 1500000 4.0016 5.8800 9.7152 0.0000 -10597.6456 1411.1336 0.0000 0.0000 1656.7538 -7510.1613 284.1085 -9166.9151 -7421.0266 298.7184 -431.6575 -273.5925 30371.3908 -292.0923 -215.1096
TCL: Running FEP window  14: Lambda1 0.65   Lambda2 0.7000000000000001 [dLambda 0.050000000000000044]
TCL: Setting parameter firsttimestep to 0
TCL: Setting parameter alchLambda to 0.65
Info: NONBONDED TABLE R-SQUARED SPACING: 0.0625
Info: NONBONDED TABLE SIZE: 705 POINTS
TCL: Setting parameter alchLambda2 to 0.7000000000000001
Info: NONBONDED TABLE R-SQUARED SPACING: 0.0625
Info: NONBONDED TABLE SIZE: 705 POINTS
TCL: Running for 1500000 steps
ETITLE: TS BOND ANGLE DIHED IMPRP ELECT VDW BOUNDARY MISC KINETIC TOTAL TEMP POTENTIAL TOTALAVG TEMPAVG PRESSURE GPRESSURE VOLUME PRESSAVG GPRESSAVG
ENERGY: 0 4.0016 5.8800 9.7152 0.0000 -10598.0674 1410.4766 0.0000 0.0000 1655.9003 -7512.0936 283.9622 -9167.9939 -7512.0936 283.9622 -361.7428 -268.1687 30371.3908 -361.7428 -268.1687
ENERGY: 300000 5.1589 5.6637 5.4979 0.0000 -10486.7462 1368.5046 0.0000 0.0000 1743.4935 -7358.4277 298.9831 -9101.9212 -7421.5938 296.1868 -528.6560 -459.4880 30436.5871 -276.5972 -195.4086
ENERGY: 600000 7.4582 6.2525 10.8322 0.0000 -10539.1878 1376.3964 0.0000 0.0000 1732.2866 -7405.9620 297.0613 -9138.2486 -7424.9901 297.2983 -422.7725 -415.2511 30291.2631 -266.0221 -194.7464
ENERGY: 900000 11.6223 8.4041 6.1620 0.0000 -10678.9109 1458.5501 0.0000 0.0000 1769.1414 -7425.0312 303.3813 -9194.1725 -7429.2265 297.8103 -254.8609 -138.6185 30269.5162 -186.7754 -122.5181
ENERGY: 1200000 4.3331 10.3260 11.9919 0.0000 -10668.9370 1497.0802 0.0000 0.0000 1716.2224 -7428.9835 294.3065 -9145.2059 -7429.6757 298.1158 525.9477 647.5005 30218.8033 -100.3623 -26.4420
ENERGY: 1500000 7.5008 8.0771 7.7509 0.0000 -10554.6514 1351.0189 0.0000 0.0000 1728.6834 -7451.6204 296.4434 -9180.3038 -7426.9352 298.2465 -631.1114 -622.0489 30153.3855 -178.1205 -111.8401
TCL: Running FEP window  15: Lambda1 0.7000000000000001 Lambda2 0.7500000000000001 [dLambda 0.050000000000000044]
TCL: Setting parameter firsttimestep to 0
TCL: Setting parameter alchLambda to 0.7000000000000001
Info: NONBONDED TABLE R-SQUARED SPACING: 0.0625
Info: NONBONDED TABLE SIZE: 705 POINTS
TCL: Setting parameter alchLambda2 to 0.7500000000000001
Info: NONBONDED TABLE R-SQUARED SPACING: 0.0625
Info: NONBONDED TABLE SIZE: 705 POINTS
TCL: Running for 1500000 steps
ETITLE: TS BOND ANGLE DIHED IMPRP ELECT VDW BOUNDARY MISC KINETIC TOTAL TEMP POTENTIAL TOTALAVG TEMPAVG PRESSURE GPRESSURE VOLUME PRESSAVG GPRESSAVG
ENERGY: 0 7.5007 8.0771 7.7509 0.0000 -10554.9043 1351.1382 0.0000 0.0000 1727.8511 -7452.5862 296.3006 -9180.4374 -7452.5862 296.3006 -691.6934 -609.8083 30153.3855 -691.6934 -609.8083
ENERGY: 300000 1.9124 7.2914 8.1010 0.0000 -10662.1921 1426.4311 0.0000 0.0000 1673.2289 -7545.2273 286.9338 -9218.4563 -7481.5391 292.5499 -261.3972 -168.0358 30264.8333 -432.8186 -344.1265
ENERGY: 600000 3.0516 8.8545 6.6837 0.0000 -10593.2847 1465.1674 0.0000 0.0000 1715.9844 -7393.5430 294.2657 -9109.5275 -7458.4105 295.8090 672.0877 651.1473 30138.0607 -160.8949 -89.7319
ENERGY: 900000 4.8171 12.8853 7.3586 0.0000 -10644.9407 1502.3134 0.0000 0.0000 1723.3405 -7394.2258 295.5271 -9117.5664 -7440.0369 297.2952 477.4669 551.5853 30592.5432 -34.0900 42.2100
ENERGY: 1200000 4.8555 7.5609 4.9778 0.0000 -10581.8692 1367.1997 0.0000 0.0000 1718.4097 -7478.8654 294.6816 -9197.2752 -7437.7335 297.6475 -367.8300 -287.9836 29789.3074 -3.1268 73.2887
ENERGY: 1500000 5.4911 9.1797 7.6524 0.0000 -10523.2592 1343.9171 0.0000 0.0000 1740.9256 -7416.0934 298.5427 -9157.0190 -7440.9121 297.4897 -778.8320 -708.3362 30853.7687 -50.0963 25.1788
TCL: Running FEP window  16: Lambda1 0.7500000000000001 Lambda2 0.8000000000000002 [dLambda 0.050000000000000044]
TCL: Setting parameter firsttimestep to 0
TCL: Setting parameter alchLambda to 0.7500000000000001
Info: NONBONDED TABLE R-SQUARED SPACING: 0.0625
Info: NONBONDED TABLE SIZE: 705 POINTS
TCL: Setting parameter alchLambda2 to 0.8000000000000002
Info: NONBONDED TABLE R-SQUARED SPACING: 0.0625
Info: NONBONDED TABLE SIZE: 705 POINTS
TCL: Running for 1500000 steps
ETITLE: TS BOND ANGLE DIHED IMPRP ELECT VDW BOUNDARY MISC KINETIC TOTAL TEMP POTENTIAL TOTALAVG TEMPAVG PRESSURE GPRESSURE VOLUME PRESSAVG GPRESSAVG
ENERGY: 0 5.4911 9.1797 7.6524 0.0000 -10524.9456 1344.8209 0.0000 0.0000 1740.0360 -7417.7655 298.3902 -9157.8015 -7417.7655 298.3902 -783.9638 -688.6929 30853.7687 -783.9638 -688.6929
ENERGY: 300000 3.3998 6.7452 8.2863 0.0000 -10693.5827 1503.0876 0.0000 0.0000 1732.7260 -7439.3377 297.1366 -9172.0637 -7449.0929 297.6280 525.7532 627.3488 30086.0639 -193.8499 -118.6313
ENERGY: 600000 11.0212 13.3834 7.6132 0.0000 -10724.9671 1483.2813 0.0000 0.0000 1722.4104 -7487.2576 295.3676 -9209.6680 -7429.5024 299.1546 35.5979 135.4668 30096.0071 -85.5804 -18.6300
ENERGY: 900000 3.1186 7.4911 5.0560 0.0000 -10672.7050 1480.1857 0.0000 0.0000 1784.8551 -7391.9985 306.0760 -9176.8536 -7419.8902 298.6325 360.8812 423.2026 30375.1159 -132.0862 -59.7333
ENERGY: 1200000 2.9570 8.6514 8.7689 0.0000 -10532.8563 1390.8087 0.0000 0.0000 1759.9487 -7361.7216 301.8049 -9121.6703 -7422.0273 298.3008 -213.9858 -153.3923 30686.2518 -161.6707 -100.6630
ENERGY: 1500000 4.8506 10.3494 9.4131 0.0000 -10536.1902 1380.9920 0.0000 0.0000 1809.5167 -7321.0684 310.3051 -9130.5851 -7419.7459 299.1718 -224.2995 -179.8237 30034.0285 -118.4060 -57.1856
TCL: Running FEP window  17: Lambda1 0.8000000000000002 Lambda2 0.8500000000000002 [dLambda 0.050000000000000044]
TCL: Setting parameter firsttimestep to 0
TCL: Setting parameter alchLambda to 0.8000000000000002
Info: NONBONDED TABLE R-SQUARED SPACING: 0.0625
Info: NONBONDED TABLE SIZE: 705 POINTS
TCL: Setting parameter alchLambda2 to 0.8500000000000002
Info: NONBONDED TABLE R-SQUARED SPACING: 0.0625
Info: NONBONDED TABLE SIZE: 705 POINTS
TCL: Running for 1500000 steps
ETITLE: TS BOND ANGLE DIHED IMPRP ELECT VDW BOUNDARY MISC KINETIC TOTAL TEMP POTENTIAL TOTALAVG TEMPAVG PRESSURE GPRESSURE VOLUME PRESSAVG GPRESSAVG
ENERGY: 0 4.8506 10.3494 9.4131 0.0000 -10538.5670 1381.0185 0.0000 0.0000 1808.6588 -7324.2766 310.1580 -9132.9354 -7324.2766 310.1580 -255.5142 -169.4601 30034.0285 -255.5142 -169.4601
ENERGY: 300000 3.3828 8.5665 9.4421 0.0000 -10571.1745 1412.1821 0.0000 0.0000 1740.5092 -7397.0918 298.4713 -9137.6010 -7391.0959 302.1004 -25.0004 41.1815 29944.6971 -197.9811 -130.8880
ENERGY: 600000 6.2010 14.2811 8.0879 0.0000 -10681.2448 1461.1220 0.0000 0.0000 1750.0857 -7441.4671 300.1135 -9191.5528 -7399.3269 303.0008 207.5915 250.6365 30019.5892 -127.8623 -67.5340
ENERGY: 900000 7.2906 7.5066 7.9699 0.0000 -10563.3361 1397.0733 0.0000 0.0000 1798.5070 -7344.9888 308.4171 -9143.4958 -7392.1898 303.2574 -44.1592 5.1144 29862.2756 -67.0065 -4.6103
ENERGY: 1200000 6.3417 7.0886 5.8117 0.0000 -10620.4843 1435.3615 0.0000 0.0000 1722.0548 -7443.8260 295.3067 -9165.8808 -7400.8852 301.2454 -78.8676 -41.6238 30355.6254 -10.0040 42.1333
ENERGY: 1500000 6.5232 6.2191 6.1225 0.0000 -10585.2309 1404.6216 0.0000 0.0000 1729.1357 -7432.6089 296.5209 -9161.7445 -7407.2249 300.0788 -224.2593 -234.0344 30333.1356 -18.2145 34.7426
TCL: Running FEP window  18: Lambda1 0.8500000000000002 Lambda2 0.9000000000000002 [dLambda 0.050000000000000044]
TCL: Setting parameter firsttimestep to 0
TCL: Setting parameter alchLambda to 0.8500000000000002
Info: NONBONDED TABLE R-SQUARED SPACING: 0.0625
Info: NONBONDED TABLE SIZE: 705 POINTS
TCL: Setting parameter alchLambda2 to 0.9000000000000002
Info: NONBONDED TABLE R-SQUARED SPACING: 0.0625
Info: NONBONDED TABLE SIZE: 705 POINTS
TCL: Running for 1500000 steps
ETITLE: TS BOND ANGLE DIHED IMPRP ELECT VDW BOUNDARY MISC KINETIC TOTAL TEMP POTENTIAL TOTALAVG TEMPAVG PRESSURE GPRESSURE VOLUME PRESSAVG GPRESSAVG
ENERGY: 0 6.5232 6.2191 6.1225 0.0000 -10587.1222 1405.2095 0.0000 0.0000 1728.2649 -7434.7830 296.3716 -9163.0479 -7434.7830 296.3716 -296.8556 -216.9863 30333.1356 -296.8556 -216.9863
ENERGY: 300000 2.1923 8.5246 6.0198 0.0000 -10575.2656 1389.1455 0.0000 0.0000 1737.9299 -7431.4535 298.0290 -9169.3834 -7372.4296 300.3979 -190.8059 -106.9201 30077.3446 51.1692 108.9595
ENERGY: 600000 8.0621 4.7082 8.1167 0.0000 -10610.1179 1454.9107 0.0000 0.0000 1787.2578 -7347.0624 306.4880 -9134.3202 -7394.5191 301.0131 138.9464 140.4006 30525.8599 -129.3128 -74.5672
ENERGY: 900000 6.0406 5.9337 8.3509 0.0000 -10504.2500 1343.5518 0.0000 0.0000 1722.9631 -7417.4098 295.4624 -9140.3729 -7396.5643 300.6001 -894.8997 -828.9403 30877.7523 -320.8311 -267.2348
ENERGY: 1200000 4.9198 7.0000 8.2096 0.0000 -10561.3781 1415.2856 0.0000 0.0000 1760.7825 -7365.1805 301.9479 -9125.9631 -7404.7782 301.0581 -127.6214 -1.0105 30354.0050 -258.0090 -198.4290
ENERGY: 1500000 4.5580 9.1199 7.6965 0.0000 -10568.4635 1429.7214 0.0000 0.0000 1786.0078 -7331.3598 306.2736 -9117.3676 -7392.0972 301.4208 417.8166 462.9804 29920.5303 -207.4531 -142.7118
TCL: Running FEP window  19: Lambda1 0.9000000000000002 Lambda2 0.9500000000000003 [dLambda 0.050000000000000044]
TCL: Setting parameter firsttimestep to 0
TCL: Setting parameter alchLambda to 0.9000000000000002
Info: NONBONDED TABLE R-SQUARED SPACING: 0.0625
Info: NONBONDED TABLE SIZE: 705 POINTS
TCL: Setting parameter alchLambda2 to 0.9500000000000003
Info: NONBONDED TABLE R-SQUARED SPACING: 0.0625
Info: NONBONDED TABLE SIZE: 705 POINTS
TCL: Running for 1500000 steps
ETITLE: TS BOND ANGLE DIHED IMPRP ELECT VDW BOUNDARY MISC KINETIC TOTAL TEMP POTENTIAL TOTALAVG TEMPAVG PRESSURE GPRESSURE VOLUME PRESSAVG GPRESSAVG
ENERGY: 0 4.5580 9.1199 7.6965 0.0000 -10570.3921 1430.9143 0.0000 0.0000 1785.1681 -7332.9353 306.1296 -9118.1034 -7332.9353 306.1296 417.4231 492.3671 29920.5303 417.4231 492.3671
ENERGY: 300000 5.1472 11.8117 3.6899 0.0000 -10477.5722 1340.7649 0.0000 0.0000 1745.0257 -7371.1327 299.2458 -9116.1585 -7384.6832 300.9223 -681.2879 -617.6781 30556.6433 306.1336 383.4981
ENERGY: 600000 4.1304 9.4359 11.5217 0.0000 -10593.3475 1417.5866 0.0000 0.0000 1713.7585 -7436.9144 293.8840 -9150.6729 -7419.1896 299.2353 132.0683 128.2139 29972.0903 419.5379 478.6025
ENERGY: 900000 4.7886 5.8525 10.4052 0.0000 -10682.0721 1449.1539 0.0000 0.0000 1742.0512 -7469.8205 298.7358 -9211.8718 -7428.6120 299.0198 606.3167 623.6638 29925.4739 170.5492 233.4715
ENERGY: 1200000 7.3709 8.1449 6.9795 0.0000 -10766.1170 1476.2476 0.0000 0.0000 1747.7098 -7519.6641 299.7061 -9267.3739 -7440.2498 299.2707 330.0987 391.3272 29540.4337 172.9539 243.2352
ENERGY: 1500000 11.9873 6.1978 6.2886 0.0000 -10626.2287 1455.0312 0.0000 0.0000 1767.4949 -7379.2290 303.0990 -9146.7239 -7435.0695 299.8662 194.7995 277.6138 29908.1535 202.0232 277.2015
TCL: Running FEP window  20: Lambda1 0.9500000000000003 Lambda2 1.0    [dLambda 0.04999999999999971]
TCL: Setting parameter firsttimestep to 0
TCL: Setting parameter alchLambda to 0.9500000000000003
Info: NONBONDED TABLE R-SQUARED SPACING: 0.0625
Info: NONBONDED TABLE SIZE: 705 POINTS
TCL: Setting parameter alchLambda2 to 1.0
Info: NONBONDED TABLE R-SQUARED SPACING: 0.0625
Info: NONBONDED TABLE SIZE: 705 POINTS
TCL: Running for 1500000 steps
ETITLE: TS BOND ANGLE DIHED IMPRP ELECT VDW BOUNDARY MISC KINETIC TOTAL TEMP POTENTIAL TOTALAVG TEMPAVG PRESSURE GPRESSURE VOLUME PRESSAVG GPRESSAVG
ENERGY: 0 11.9873 6.1978 6.2886 0.0000 -10627.4081 1455.0267 0.0000 0.0000 1766.6475 -7381.2602 302.9536 -9147.9077 -7381.2602 302.9536 206.9745 292.3095 29908.1535 206.9745 292.3095
ENERGY: 300000 6.5172 10.1043 8.3849 0.0000 -10574.3422 1404.9080 0.0000 0.0000 1761.3378 -7383.0899 302.0431 -9144.4278 -7411.2514 300.7750 -305.8017 -303.4719 30460.1629 -15.0536 18.2076
ENERGY: 600000 6.4421 7.5481 8.1773 0.0000 -10520.9459 1378.1055 0.0000 0.0000 1759.9363 -7360.7365 301.8028 -9120.6729 -7401.9364 301.7487 -325.1002 -239.1936 30429.4936 -76.8679 -36.5877
ENERGY: 900000 3.5891 10.3994 11.3001 0.0000 -10578.4435 1363.5435 0.0000 0.0000 1725.1699 -7464.4414 295.8409 -9189.6113 -7424.7151 300.1662 -694.8617 -655.1059 30595.5652 -173.2197 -133.1490
ENERGY: 1200000 2.2759 8.7386 8.9451 0.0000 -10635.7914 1434.2140 0.0000 0.0000 1705.6383 -7475.9795 292.4915 -9181.6178 -7431.9406 300.0237 175.0079 225.1501 30271.5311 -137.3635 -91.9869
ENERGY: 1500000 8.4120 7.9126 8.2032 0.0000 -10514.3472 1349.5347 0.0000 0.0000 1793.0550 -7347.2297 307.4821 -9140.2847 -7423.2275 300.7148 -256.6588 -184.9184 29830.3669 -160.6245 -116.9202
TCL: Exiting due to exit command.
