Info: SIMULATION PARAMETERS:
Info: TIMESTEP               2
Info: NUMBER OF STEPS        0
Info: STEPS PER CYCLE        10
Info: PERIODIC CELL BASIS 1  30.7875 0 0
Info: PERIODIC CELL BASIS 2  0 28.6958 0
Info: PERIODIC CELL BASIS 3  0 0 35.1239
Info: PERIODIC CELL CENTER   0 0 0
Info: WRAPPING WATERS AROUND PERIODIC BOUNDARIES ON OUTPUT.
Info: WRAPPING ALL CLUSTERS AROUND PERIODIC BOUNDARIES ON OUTPUT.
Info: FIRST LDB TIMESTEP     50
Info: LAST LDB TIMESTEP     -1
Info: HOM BACKGROUND SCALING 1
Info: PME BACKGROUND SCALING 1
Info: MIN ATOMS PER PATCH    40
Info: EMPTY PATCH LOAD       40 ATOMS
Info: VELOCITY FILE          mobley_1328936_equil.vel
Info: CENTER OF MASS MOVING INITIALLY? NO
Info: DIELECTRIC             1
Info: EXCLUDE                SCALED ONE-FOUR
Info: 1-4 ELECTROSTATICS SCALED BY 0.833333
Info: MODIFIED 1-4 VDW PARAMETERS WILL BE USED
Info: DCD FILENAME           mobley_1328936_prod.dcd
Info: DCD FREQUENCY          100000
Info: DCD FIRST STEP         100000
Info: DCD FILE WILL CONTAIN UNIT CELL DATA
Info: XST FILENAME           mobley_1328936_prod.xst
Info: XST FREQUENCY          100000
Info: NO VELOCITY DCD OUTPUT
Info: NO FORCE DCD OUTPUT
Info: OUTPUT FILENAME        mobley_1328936_prod
Info: BINARY OUTPUT FILES WILL BE USED
Info: RESTART FILENAME       mobley_1328936_prod.restart
Info: RESTART FREQUENCY      100000
Info: BINARY RESTART FILES WILL BE USED
Info: CUTOFF                 9
Info: PAIRLIST DISTANCE      11
Info: PAIRLIST SHRINK RATE   0.01
Info: PAIRLIST GROW RATE     0.01
Info: PAIRLIST TRIGGER       0.3
Info: PAIRLISTS PER CYCLE    2
Info: PAIRLISTS ENABLED
Info: MARGIN                 2
Info: HYDROGEN GROUP CUTOFF  2.5
Info: PATCH DIMENSION        15.5
Info: ENERGY OUTPUT STEPS    100000
Info: ENERGY EVALUATION STEPS    100000
Info: OUTPUT ENERGY PRECISION 4
Info: CROSSTERM ENERGY INCLUDED IN DIHEDRAL
Info: TIMING OUTPUT STEPS    1000000
Info: PRESSURE OUTPUT STEPS  100000
Info: ALCHEMICAL FEP ON
Info: FEP CURRENT LAMBDA VALUE     1
Info: FEP COMPARISON LAMBDA VALUE  0.95
Info: FEP INTRA-ALCHEMICAL NON-BONDED INTERACTIONS WILL BE RETAINED
Info: FEP INTRA-ALCHEMICAL BONDED INTERACTIONS WILL BE RETAINED
Info: FEP VDW SHIFTING COEFFICIENT 5
Info: FEP ELEC. ACTIVE FOR ANNIHILATED PARTICLES BETWEEN LAMBDA = 0 AND LAMBDA = 0.5
Info: FEP ELEC. ACTIVE FOR EXNIHILATED PARTICLES BETWEEN LAMBDA = 0.5 AND LAMBDA = 1
Info: FEP VDW ACTIVE FOR ANNIHILATED PARTICLES BETWEEN LAMBDA = 0 AND LAMBDA = 1
Info: FEP VDW ACTIVE FOR EXNIHILATED PARTICLES BETWEEN LAMBDA = 0 AND LAMBDA = 1
Info: FEP BOND ACTIVE FOR ANNIHILATED PARTICLES BETWEEN LAMBDA = 1 AND LAMBDA = 1
Info: FEP BOND ACTIVE FOR EXNIHILATED PARTICLES BETWEEN LAMBDA = 0 AND LAMBDA = 0
Info: LANGEVIN DYNAMICS ACTIVE
Info: LANGEVIN TEMPERATURE   300
Info: LANGEVIN USING BBK INTEGRATOR
Info: LANGEVIN DAMPING COEFFICIENT IS 1 INVERSE PS
Info: LANGEVIN DYNAMICS APPLIED TO HYDROGENS
Info: LANGEVIN PISTON PRESSURE CONTROL ACTIVE
Info:        TARGET PRESSURE IS 1.01325 BAR
Info:     OSCILLATION PERIOD IS 50 FS
Info:             DECAY TIME IS 25 FS
Info:     PISTON TEMPERATURE IS 300 K
Info:       PRESSURE CONTROL IS GROUP-BASED
Info:    INITIAL STRAIN RATE IS -0.000319564 -0.000319564 -0.000319564
Info:       CELL FLUCTUATION IS ISOTROPIC
Info: PARTICLE MESH EWALD (PME) ACTIVE
Info: PME TOLERANCE               1e-06
Info: PME EWALD COEFFICIENT       0.348832
Info: PME INTERPOLATION ORDER     4
Info: PME GRID DIMENSIONS         32 32 36
Info: PME MAXIMUM GRID SPACING    1
Info: PME CALCULATION WILL BE PERFORMED ON GPU
Info: FULL ELECTROSTATIC EVALUATION FREQUENCY      2
Info: USING VERLET I (r-RESPA) MTS SCHEME.
Info: C1 SPLITTING OF LONG RANGE ELECTROSTATICS
Info: PLACING ATOMS IN PATCHES BY HYDROGEN GROUPS
Info: RIGID BONDS TO HYDROGEN : ALL
Info:         ERROR TOLERANCE : 1e-08
Info:          MAX ITERATIONS : 100
Info: RIGID WATER USING SETTLE ALGORITHM
Info: RANDOM NUMBER SEED     1743857302
Info: USE HYDROGEN BONDS?    NO
Info: Using AMBER format force field!
Info: AMBER PARM FILE        mobley_1328936.prmtop
Info: COORDINATE PDB         mobley_1328936.pdb
Info: Exclusions will be read from PARM file!
Info: SCNB (VDW SCALING)     2
Info: USING ARITHMETIC MEAN TO COMBINE L-J SIGMA PARAMETERS
Info: BINARY COORDINATES     mobley_1328936_equil.coor
Info: SUMMARY OF PARAMETERS:
Info: 11 BONDS
Info: 12 ANGLES
Info:   12 HARMONIC
Info:   0 COSINE-BASED
Info: 7 DIHEDRAL
Info: 0 IMPROPER
Info: 0 CROSSTERM
Info: 0 VDW
Info: 45 VDW_PAIRS
Info: 0 NBTHOLE_PAIRS
Info: To read alchdata from file: mobley_1328936.pdb
Info: To read alchflag data from column: 5
Info: STRUCTURE SUMMARY:
Info: 2984 ATOMS
Info: 2984 BONDS
Info: 31 ANGLES
Info: 45 DIHEDRALS
Info: 0 IMPROPERS
Info: 0 CROSSTERMS
Info: 3049 EXCLUSIONS
Info: 2971 RIGID BONDS
Info: ALCH: 0 ATOMS TO DISAPPEAR IN FINAL STATE
Info: ALCH: 20 ATOMS TO APPEAR IN FINAL STATE
Info: 5981 DEGREES OF FREEDOM
Info: 1001 HYDROGEN GROUPS
Info: 4 ATOMS IN LARGEST HYDROGEN GROUP
Info: 1001 MIGRATION GROUPS
Info: 4 ATOMS IN LARGEST MIGRATION GROUP
Info: TOTAL MASS = 17981 amu
Info: TOTAL CHARGE = 9.99682e-05 e
Info: MASS DENSITY = 0.962223 g/cm^3
Info: ATOM DENSITY = 0.0961618 atoms/A^3
Info: ADDED 0 IMPLICIT EXCLUSIONS
Info: NONBONDED TABLE R-SQUARED SPACING: 0.0625
Info: NONBONDED TABLE SIZE: 705 POINTS
Info: REMOVING COM VELOCITY 0.11567 0.0731424 0.0954513
Info: Use 3D box decompostion in PME FFT.
Info: Updated CUDA force table with 4096 elements.
Info: Updated CUDA LJ table with 9 x 9 elements.
Info: Found 22 unique exclusion lists needing 56 bytes
TCL: Running for 1500000 steps
ETITLE: TS BOND ANGLE DIHED IMPRP ELECT VDW BOUNDARY MISC KINETIC TOTAL TEMP POTENTIAL TOTALAVG TEMPAVG PRESSURE GPRESSURE VOLUME PRESSAVG GPRESSAVG
ENERGY: 0 5.6799 8.5489 2.3870 0.0000 -10706.0966 1393.6728 0.0000 0.0000 1808.0935 -7487.7145 304.2548 -9295.8080 -7487.7145 304.2548 -433.0599 -333.4740 31031.0180 -433.0599 -333.4740
ENERGY: 300000 3.3665 6.9025 5.1986 0.0000 -10782.9081 1384.7507 0.0000 0.0000 1805.8364 -7576.8534 303.8750 -9382.6898 -7539.2408 300.0437 -654.1933 -627.0325 30759.0196 -131.7710 -60.4115
ENERGY: 600000 5.2977 8.2100 4.0580 0.0000 -10798.9019 1425.6679 0.0000 0.0000 1794.4049 -7561.2633 301.9514 -9355.6683 -7557.2353 301.5808 -60.0008 -4.5863 30490.3068 -137.2624 -76.0856
ENERGY: 900000 4.3937 4.9832 4.4674 0.0000 -10682.6085 1337.7125 0.0000 0.0000 1789.3574 -7541.6943 301.1020 -9331.0517 -7547.0196 300.5107 -848.3746 -811.1870 30783.7120 -321.6098 -255.2688
ENERGY: 1200000 2.8988 5.7423 7.9692 0.0000 -10740.7411 1391.3467 0.0000 0.0000 1790.0237 -7542.7604 301.2141 -9332.7841 -7548.0761 301.1931 -343.3241 -329.7643 30873.5527 -269.6100 -205.5966
ENERGY: 1500000 1.8688 2.8897 10.2197 0.0000 -10688.2056 1389.1334 0.0000 0.0000 1792.1366 -7491.9575 301.5697 -9284.0941 -7545.0118 301.5038 -568.0866 -544.5271 31227.8807 -248.8048 -183.5344
TCL: Running FEP window   2: Lambda1 0.95   Lambda2 0.8999999999999999 [dLambda -0.050000000000000044]
TCL: Setting parameter firsttimestep to 0
TCL: Setting parameter alchLambda to 0.95
Info: NONBONDED TABLE R-SQUARED SPACING: 0.0625
Info: NONBONDED TABLE SIZE: 705 POINTS
TCL: Setting parameter alchLambda2 to 0.8999999999999999
Info: NONBONDED TABLE R-SQUARED SPACING: 0.0625
Info: NONBONDED TABLE SIZE: 705 POINTS
TCL: Running for 1500000 steps
ETITLE: TS BOND ANGLE DIHED IMPRP ELECT VDW BOUNDARY MISC KINETIC TOTAL TEMP POTENTIAL TOTALAVG TEMPAVG PRESSURE GPRESSURE VOLUME PRESSAVG GPRESSAVG
ENERGY: 0 1.8688 2.8897 10.2197 0.0000 -10686.9734 1389.1859 0.0000 0.0000 1791.2479 -7491.5614 301.4202 -9282.8094 -7491.5614 301.4202 -630.8554 -556.6336 31227.8807 -630.8554 -556.6336
ENERGY: 300000 5.2357 2.6802 3.0028 0.0000 -10826.3425 1485.3139 0.0000 0.0000 1766.5248 -7563.5851 297.2599 -9330.1099 -7557.4260 302.3473 408.3424 496.5340 30398.1786 -250.1412 -182.1796
ENERGY: 600000 2.2097 5.7169 6.3870 0.0000 -10786.3557 1402.7251 0.0000 0.0000 1798.1494 -7571.1676 302.5815 -9369.3170 -7563.2195 301.5092 -398.2697 -323.0787 30866.6008 -414.9336 -354.6647
ENERGY: 900000 3.1969 8.1142 5.4660 0.0000 -10906.6392 1511.0997 0.0000 0.0000 1793.5830 -7585.1794 301.8131 -9378.7624 -7555.4455 301.7831 243.4563 291.0379 30747.3126 -362.4434 -304.8372
ENERGY: 1200000 3.0385 6.0340 5.6262 0.0000 -10818.1653 1454.2746 0.0000 0.0000 1742.2705 -7606.9216 293.1785 -9349.1920 -7556.6444 301.7811 124.1533 208.9914 30370.3082 -262.5593 -198.6928
ENERGY: 1500000 3.3170 4.9714 3.8129 0.0000 -10675.7722 1344.8498 0.0000 0.0000 1791.8011 -7527.0199 301.5132 -9318.8210 -7560.8661 300.5463 -996.7339 -939.0020 31137.7712 -338.1413 -277.7866
TCL: Running FEP window   3: Lambda1 0.8999999999999999 Lambda2 0.8499999999999999 [dLambda -0.050000000000000044]
TCL: Setting parameter firsttimestep to 0
TCL: Setting parameter alchLambda to 0.8999999999999999
Info: NONBONDED TABLE R-SQUARED SPACING: 0.0625
Info: NONBONDED TABLE SIZE: 705 POINTS
TCL: Setting parameter alchLambda2 to 0.8499999999999999
Info: NONBONDED TABLE R-SQUARED SPACING: 0.0625
Info: NONBONDED TABLE SIZE: 705 POINTS
TCL: Running for 1500000 steps
ETITLE: TS BOND ANGLE DIHED IMPRP ELECT VDW BOUNDARY MISC KINETIC TOTAL TEMP POTENTIAL TOTALAVG TEMPAVG PRESSURE GPRESSURE VOLUME PRESSAVG GPRESSAVG
ENERGY: 0 3.3170 4.9714 3.8129 0.0000 -10674.6650 1344.7939 0.0000 0.0000 1790.9132 -7526.8564 301.3638 -9317.7697 -7526.8564 301.3638 -1043.0662 -955.3420 31137.7712 -1043.0662 -955.3420
ENERGY: 300000 2.0883 9.1117 3.2556 0.0000 -10795.3408 1482.2916 0.0000 0.0000 1799.9841 -7498.6094 302.8902 -9298.5936 -7558.3260 300.6948 429.2078 517.4920 30215.4960 -252.5753 -178.1080
ENERGY: 600000 6.9355 3.5623 4.4706 0.0000 -10775.7983 1395.1295 0.0000 0.0000 1735.0153 -7630.6851 291.9577 -9365.7004 -7587.9319 299.6448 -492.3299 -432.6544 30390.2047 -138.4335 -65.7906
ENERGY: 900000 2.8544 4.7620 5.0399 0.0000 -10795.5532 1465.5087 0.0000 0.0000 1778.5988 -7538.7894 299.2916 -9317.3882 -7559.2651 300.5448 176.0935 236.1521 31178.8364 -251.3779 -185.5705
ENERGY: 1200000 3.3126 5.6523 2.5890 0.0000 -10796.7829 1423.5023 0.0000 0.0000 1714.1450 -7647.5819 288.4457 -9361.7268 -7570.1967 298.9889 -435.5094 -349.6623 30634.9369 -282.8647 -215.2463
ENERGY: 1500000 3.0091 4.7740 3.5914 0.0000 -10957.3203 1569.6794 0.0000 0.0000 1744.1135 -7632.1529 293.4887 -9376.2664 -7575.8012 297.8915 881.9074 964.3827 30614.9365 -250.5062 -184.3488
TCL: Running FEP window   4: Lambda1 0.8499999999999999 Lambda2 0.7999999999999998 [dLambda -0.050000000000000044]
TCL: Setting parameter firsttimestep to 0
TCL: Setting parameter alchLambda to 0.8499999999999999
Info: NONBONDED TABLE R-SQUARED SPACING: 0.0625
Info: NONBONDED TABLE SIZE: 705 POINTS
TCL: Setting parameter alchLambda2 to 0.7999999999999998
Info: NONBONDED TABLE R-SQUARED SPACING: 0.0625
Info: NONBONDED TABLE SIZE: 705 POINTS
TCL: Running for 1500000 steps
ETITLE: TS BOND ANGLE DIHED IMPRP ELECT VDW BOUNDARY MISC KINETIC TOTAL TEMP POTENTIAL TOTALAVG TEMPAVG PRESSURE GPRESSURE VOLUME PRESSAVG GPRESSAVG
ENERGY: 0 3.0091 4.7740 3.5914 0.0000 -10955.3838 1569.5747 0.0000 0.0000 1743.2062 -7631.2285 293.3360 -9374.4347 -7631.2285 293.3360 871.8470 954.3358 30614.9365 871.8470 954.3358
ENERGY: 300000 6.9379 7.0253 3.9979 0.0000 -10906.3691 1494.7681 0.0000 0.0000 1829.4070 -7564.2329 307.8413 -9393.6399 -7582.4691 300.0445 443.2200 470.1729 30255.3054 306.0404 356.3996
ENERGY: 600000 2.8873 5.1074 5.0182 0.0000 -10750.6812 1419.7951 0.0000 0.0000 1819.7605 -7498.1127 306.2181 -9317.8732 -7536.7867 302.2182 -38.4609 26.2369 30626.2909 326.9440 378.2464
ENERGY: 900000 3.3466 8.1263 6.5607 0.0000 -10779.3804 1384.3912 0.0000 0.0000 1806.4542 -7570.5014 303.9790 -9376.9556 -7542.5413 302.2100 -492.6373 -408.7206 30562.0196 115.9952 171.9315
ENERGY: 1200000 2.5040 9.6980 6.1113 0.0000 -10701.5468 1403.9795 0.0000 0.0000 1816.0434 -7463.2106 305.5926 -9279.2539 -7545.7291 301.9719 -209.9687 -161.2875 30900.1998 115.7904 171.6124
ENERGY: 1500000 3.4482 5.4126 2.7026 0.0000 -10951.6261 1523.5790 0.0000 0.0000 1747.3747 -7669.1089 294.0374 -9416.4837 -7550.2941 301.7615 347.3125 372.9104 30620.6068 117.7086 167.4926
TCL: Running FEP window   5: Lambda1 0.7999999999999998 Lambda2 0.7499999999999998 [dLambda -0.050000000000000044]
TCL: Setting parameter firsttimestep to 0
TCL: Setting parameter alchLambda to 0.7999999999999998
Info: NONBONDED TABLE R-SQUARED SPACING: 0.0625
Info: NONBONDED TABLE SIZE: 705 POINTS
TCL: Setting parameter alchLambda2 to 0.7499999999999998
Info: NONBONDED TABLE R-SQUARED SPACING: 0.0625
Info: NONBONDED TABLE SIZE: 705 POINTS
TCL: Running for 1500000 steps
ETITLE: TS BOND ANGLE DIHED IMPRP ELECT VDW BOUNDARY MISC KINETIC TOTAL TEMP POTENTIAL TOTALAVG TEMPAVG PRESSURE GPRESSURE VOLUME PRESSAVG GPRESSAVG
ENERGY: 0 3.4482 5.4126 2.7026 0.0000 -10950.1993 1523.0272 0.0000 0.0000 1746.4860 -7669.1227 293.8879 -9415.6087 -7669.1227 293.8879 269.7408 356.6449 30620.6068 269.7408 356.6449
ENERGY: 300000 2.8029 7.2118 8.1064 0.0000 -10759.7789 1422.9946 0.0000 0.0000 1852.5043 -7466.1589 311.7280 -9318.6632 -7587.7848 297.5586 146.5521 209.3116 30411.4245 305.0142 382.6524
ENERGY: 600000 8.0312 6.4078 4.1550 0.0000 -10782.0850 1452.7324 0.0000 0.0000 1766.7494 -7544.0092 297.2977 -9310.7586 -7569.3666 299.1296 -212.0043 -151.4831 30916.2669 149.7296 213.1444
ENERGY: 900000 8.1411 6.3081 2.3291 0.0000 -10818.1309 1459.9841 0.0000 0.0000 1869.0779 -7472.2905 314.5169 -9341.3685 -7569.1147 298.8559 92.5401 189.7856 30587.5588 25.1082 92.4519
ENERGY: 1200000 4.3099 11.3368 2.6812 0.0000 -10920.1376 1564.3523 0.0000 0.0000 1839.0384 -7498.4191 309.4620 -9337.4575 -7562.7327 299.2335 873.9071 946.6864 30496.8188 110.9831 182.7786
ENERGY: 1500000 4.0037 3.3211 1.2852 0.0000 -10779.0981 1453.8959 0.0000 0.0000 1753.9933 -7562.5989 295.1512 -9316.5922 -7565.8218 299.1328 91.2491 225.9075 30711.4896 126.9303 198.6501
TCL: Running FEP window   6: Lambda1 0.7499999999999998 Lambda2 0.6999999999999997 [dLambda -0.050000000000000044]
TCL: Setting parameter firsttimestep to 0
TCL: Setting parameter alchLambda to 0.7499999999999998
Info: NONBONDED TABLE R-SQUARED SPACING: 0.0625
Info: NONBONDED TABLE SIZE: 705 POINTS
TCL: Setting parameter alchLambda2 to 0.6999999999999997
Info: NONBONDED TABLE R-SQUARED SPACING: 0.0625
Info: NONBONDED TABLE SIZE: 705 POINTS
TCL: Running for 1500000 steps
ETITLE: TS BOND ANGLE DIHED IMPRP ELECT VDW BOUNDARY MISC KINETIC TOTAL TEMP POTENTIAL TOTALAVG TEMPAVG PRESSURE GPRESSURE VOLUME PRESSAVG GPRESSAVG
ENERGY: 0 4.0037 3.3211 1.2852 0.0000 -10777.9366 1453.6566 0.0000 0.0000 1753.1413 -7562.5287 295.0078 -9315.6700 -7562.5287 295.0078 132.1269 208.6860 30711.4896 132.1269 208.6860
ENERGY: 300000 6.2028 5.8778 4.2763 0.0000 -10826.3698 1478.5116 0.0000 0.0000 1812.0966 -7519.4048 304.9284 -9331.5014 -7552.7939 299.4828 50.0088 118.9572 30621.8465 -113.2753 -22.4639
ENERGY: 600000 5.8628 6.6683 5.1595 0.0000 -10743.3006 1421.9473 0.0000 0.0000 1839.1638 -7464.4989 309.4831 -9303.6628 -7527.9305 301.2793 -251.6501 -229.2036 30665.4700 10.4501 68.7369
ENERGY: 900000 3.6902 7.0982 4.1048 0.0000 -10690.8517 1459.0548 0.0000 0.0000 1787.1002 -7429.8035 300.7222 -9216.9037 -7516.6939 300.9319 56.7953 148.1269 31365.1218 -34.1557 26.0521
ENERGY: 1200000 2.4722 8.1785 5.4168 0.0000 -10765.0631 1421.5556 0.0000 0.0000 1805.6511 -7521.7888 303.8438 -9327.4399 -7520.3995 300.5816 -256.7648 -216.4002 30682.6385 -17.2350 38.5564
ENERGY: 1500000 4.1022 9.2963 4.3283 0.0000 -10657.2865 1389.0963 0.0000 0.0000 1770.4285 -7480.0348 297.9168 -9250.4634 -7515.5679 300.5777 -560.3871 -524.4331 31043.1618 -144.1396 -92.3040
TCL: Running FEP window   7: Lambda1 0.6999999999999997 Lambda2 0.6499999999999997 [dLambda -0.050000000000000044]
TCL: Setting parameter firsttimestep to 0
TCL: Setting parameter alchLambda to 0.6999999999999997
Info: NONBONDED TABLE R-SQUARED SPACING: 0.0625
Info: NONBONDED TABLE SIZE: 705 POINTS
TCL: Setting parameter alchLambda2 to 0.6499999999999997
Info: NONBONDED TABLE R-SQUARED SPACING: 0.0625
Info: NONBONDED TABLE SIZE: 705 POINTS
TCL: Running for 1500000 steps
ETITLE: TS BOND ANGLE DIHED IMPRP ELECT VDW BOUNDARY MISC KINETIC TOTAL TEMP POTENTIAL TOTALAVG TEMPAVG PRESSURE GPRESSURE VOLUME PRESSAVG GPRESSAVG
ENERGY: 0 4.1022 9.2963 4.3283 0.0000 -10656.3493 1389.9340 0.0000 0.0000 1769.5590 -7479.1295 297.7705 -9248.6885 -7479.1295 297.7705 -610.2874 -525.7281 31043.1618 -610.2874 -525.7281
ENERGY: 300000 1.1636 9.9360 4.5991 0.0000 -10699.0723 1443.2567 0.0000 0.0000 1730.5011 -7509.6158 291.1980 -9240.1169 -7493.7545 299.2081 284.9882 314.5846 30854.9325 174.2914 226.3989
ENERGY: 600000 5.9351 6.2868 2.6513 0.0000 -10812.7608 1455.6945 0.0000 0.0000 1824.9177 -7517.2755 307.0859 -9342.1931 -7506.9357 300.6616 -33.5485 -24.5322 30688.3304 182.3695 229.2242
ENERGY: 900000 5.0447 5.9425 5.6691 0.0000 -10854.0961 1505.9399 0.0000 0.0000 1856.9634 -7474.5365 312.4784 -9331.5000 -7497.3595 303.6128 518.5415 552.2347 30466.2222 167.3406 217.1784
ENERGY: 1200000 2.1278 7.2787 6.1430 0.0000 -10814.9916 1469.5664 0.0000 0.0000 1773.7526 -7556.1231 298.4762 -9329.8757 -7516.1398 302.6716 246.6799 231.9176 30530.9869 149.3137 196.6403
ENERGY: 1500000 2.9338 7.4644 5.3759 0.0000 -10831.8870 1474.8915 0.0000 0.0000 1825.5574 -7515.6640 307.1935 -9341.2214 -7516.7496 302.5455 217.3653 177.6986 30870.2936 121.8650 171.2810
TCL: Running FEP window   8: Lambda1 0.6499999999999997 Lambda2 0.5999999999999996 [dLambda -0.050000000000000044]
TCL: Setting parameter firsttimestep to 0
TCL: Setting parameter alchLambda to 0.6499999999999997
Info: NONBONDED TABLE R-SQUARED SPACING: 0.0625
Info: NONBONDED TABLE SIZE: 705 POINTS
TCL: Setting parameter alchLambda2 to 0.5999999999999996
Info: NONBONDED TABLE R-SQUARED SPACING: 0.0625
Info: NONBONDED TABLE SIZE: 705 POINTS
TCL: Running for 1500000 steps
ETITLE: TS BOND ANGLE DIHED IMPRP ELECT VDW BOUNDARY MISC KINETIC TOTAL TEMP POTENTIAL TOTALAVG TEMPAVG PRESSURE GPRESSURE VOLUME PRESSAVG GPRESSAVG
ENERGY: 0 2.9338 7.4644 5.3759 0.0000 -10830.6915 1475.5236 0.0000 0.0000 1824.6674 -7514.7263 307.0438 -9339.3938 -7514.7263 307.0438 101.2806 175.1914 30870.2936 101.2806 175.1914
ENERGY: 300000 5.4365 2.8408 3.9943 0.0000 -10693.0650 1433.4625 0.0000 0.0000 1768.7639 -7478.5670 297.6367 -9247.3309 -7518.9629 300.4242 1.7173 66.8925 30570.7872 -16.9320 42.7940
ENERGY: 600000 3.4139 4.8615 3.7402 0.0000 -10776.1981 1426.6735 0.0000 0.0000 1764.8347 -7572.6744 296.9755 -9337.5091 -7526.4094 301.0747 -411.2860 -354.7895 30956.7880 -166.7021 -98.6603
ENERGY: 900000 5.3868 5.8968 2.5253 0.0000 -10652.4888 1354.7962 0.0000 0.0000 1750.7996 -7533.0841 294.6138 -9283.8837 -7534.8197 299.5523 -824.2530 -785.9879 30858.6926 -156.0385 -95.5134
ENERGY: 1200000 3.2388 4.0907 6.1595 0.0000 -10751.2764 1459.3689 0.0000 0.0000 1792.8076 -7485.6109 301.6826 -9278.4184 -7530.6230 299.6244 -165.4487 -179.5645 31267.8270 -212.3043 -164.4965
ENERGY: 1500000 5.9732 3.7871 3.0795 0.0000 -10755.0751 1423.5154 0.0000 0.0000 1846.6708 -7472.0491 310.7464 -9318.7198 -7537.7277 300.2462 -400.6283 -273.9449 30657.4822 -213.9531 -157.9523
TCL: Running FEP window   9: Lambda1 0.5999999999999996 Lambda2 0.5499999999999996 [dLambda -0.050000000000000044]
TCL: Setting parameter firsttimestep to 0
TCL: Setting parameter alchLambda to 0.5999999999999996
Info: NONBONDED TABLE R-SQUARED SPACING: 0.0625
Info: NONBONDED TABLE SIZE: 705 POINTS
TCL: Setting parameter alchLambda2 to 0.5499999999999996
Info: NONBONDED TABLE R-SQUARED SPACING: 0.0625
Info: NONBONDED TABLE SIZE: 705 POINTS
TCL: Running for 1500000 steps
ETITLE: TS BOND ANGLE DIHED IMPRP ELECT VDW BOUNDARY MISC KINETIC TOTAL TEMP POTENTIAL TOTALAVG TEMPAVG PRESSURE GPRESSURE VOLUME PRESSAVG GPRESSAVG
ENERGY: 0 5.9732 3.7871 3.0795 0.0000 -10754.3854 1423.8049 0.0000 0.0000 1845.7665 -7471.9743 310.5942 -9317.7408 -7471.9743 310.5942 -381.8112 -280.7233 30657.4822 -381.8112 -280.7233
ENERGY: 300000 3.2845 5.4094 10.3716 0.0000 -10612.6818 1404.5413 0.0000 0.0000 1772.2100 -7416.8649 298.2166 -9189.0749 -7478.6180 300.4564 85.0373 115.9127 30831.7853 -68.8213 -22.7563
ENERGY: 600000 1.5080 4.4335 7.0853 0.0000 -10706.0659 1360.8554 0.0000 0.0000 1815.6231 -7516.5605 305.5219 -9332.1837 -7487.7797 301.8468 -917.7951 -869.0454 31183.6635 -218.7992 -159.7191
ENERGY: 900000 3.6317 4.4460 6.0230 0.0000 -10869.4656 1500.9538 0.0000 0.0000 1766.5156 -7587.8956 297.2584 -9354.4112 -7498.8301 301.2705 19.0284 122.3654 30799.9620 -65.2320 -1.1117
ENERGY: 1200000 6.5679 7.2322 4.3910 0.0000 -10779.2706 1519.2207 0.0000 0.0000 1773.8275 -7468.0314 298.4887 -9241.8588 -7500.6480 301.9456 908.9541 907.5713 30290.4339 106.4287 167.0489
ENERGY: 1500000 4.0701 4.7548 4.9991 0.0000 -10871.7315 1525.1582 0.0000 0.0000 1800.1768 -7532.5724 302.9226 -9332.7493 -7501.1691 301.8118 399.5191 415.9533 30800.1498 163.6365 217.8901
TCL: Running FEP window  10: Lambda1 0.5499999999999996 Lambda2 0.4999999999999996 [dLambda -0.04999999999999999]
TCL: Setting parameter firsttimestep to 0
TCL: Setting parameter alchLambda to 0.5499999999999996
Info: NONBONDED TABLE R-SQUARED SPACING: 0.0625
Info: NONBONDED TABLE SIZE: 705 POINTS
TCL: Setting parameter alchLambda2 to 0.4999999999999996
Info: NONBONDED TABLE R-SQUARED SPACING: 0.0625
Info: NONBONDED TABLE SIZE: 705 POINTS
TCL: Running for 1500000 steps
ETITLE: TS BOND ANGLE DIHED IMPRP ELECT VDW BOUNDARY MISC KINETIC TOTAL TEMP POTENTIAL TOTALAVG TEMPAVG PRESSURE GPRESSURE VOLUME PRESSAVG GPRESSAVG
ENERGY: 0 4.0701 4.7548 4.9991 0.0000 -10871.6144 1525.6518 0.0000 0.0000 1799.2836 -7532.8550 302.7723 -9332.1386 -7532.8550 302.7723 330.3604 415.6343 30800.1498 330.3604 415.6343
ENERGY: 300000 9.8319 12.2476 6.3443 0.0000 -10687.5192 1405.4527 0.0000 0.0000 1789.4082 -7464.2345 301.1106 -9253.6427 -7490.6634 303.1269 -553.5161 -508.4044 31288.3010 -212.2645 -144.0559
ENERGY: 600000 4.7565 9.4459 3.4993 0.0000 -10733.5086 1398.1203 0.0000 0.0000 1796.6211 -7521.0655 302.3243 -9317.6866 -7497.6305 302.3186 -559.4535 -485.8594 31025.6024 -229.2015 -151.2776
ENERGY: 900000 7.1634 4.7113 1.9334 0.0000 -10812.3825 1500.9501 0.0000 0.0000 1745.9859 -7551.6383 293.8037 -9297.6242 -7511.3491 301.6011 401.1096 372.3990 30851.1143 -129.1198 -62.6886
ENERGY: 1200000 2.8956 5.5034 3.2986 0.0000 -10700.1065 1420.9968 0.0000 0.0000 1774.7778 -7492.6343 298.6487 -9267.4121 -7513.3707 300.9667 -15.2468 2.0792 30719.5854 -71.7627 -6.9133
ENERGY: 1500000 5.0518 4.6734 4.6297 0.0000 -10756.9033 1453.4830 0.0000 0.0000 1760.3553 -7528.7100 296.2217 -9289.0654 -7507.1433 301.0199 -248.0503 -141.2950 31082.2100 -137.6694 -69.4883
TCL: Running FEP window  11: Lambda1 0.4999999999999996 Lambda2 0.4499999999999996 [dLambda -0.04999999999999999]
TCL: Setting parameter firsttimestep to 0
TCL: Setting parameter alchLambda to 0.4999999999999996
Info: NONBONDED TABLE R-SQUARED SPACING: 0.0625
Info: NONBONDED TABLE SIZE: 705 POINTS
TCL: Setting parameter alchLambda2 to 0.4499999999999996
Info: NONBONDED TABLE R-SQUARED SPACING: 0.0625
Info: NONBONDED TABLE SIZE: 705 POINTS
TCL: Running for 1500000 steps
ETITLE: TS BOND ANGLE DIHED IMPRP ELECT VDW BOUNDARY MISC KINETIC TOTAL TEMP POTENTIAL TOTALAVG TEMPAVG PRESSURE GPRESSURE VOLUME PRESSAVG GPRESSAVG
ENERGY: 0 5.0518 4.6734 4.6297 0.0000 -10756.8591 1453.5440 0.0000 0.0000 1759.4962 -7529.4640 296.0772 -9288.9602 -7529.4640 296.0772 -241.8592 -150.3593 31082.2100 -241.8592 -150.3593
ENERGY: 300000 6.6710 5.7989 2.9810 0.0000 -10733.6998 1417.0134 0.0000 0.0000 1732.7876 -7568.4480 291.5828 -9301.2356 -7552.9533 301.4373 -204.5254 -218.0846 30395.6111 127.6922 145.6628
ENERGY: 600000 4.6497 6.8783 2.8055 0.0000 -10688.1564 1427.4610 0.0000 0.0000 1814.2554 -7432.1064 305.2917 -9246.3619 -7554.5434 299.2651 359.7521 354.2349 30556.2276 -52.2771 -14.9168
ENERGY: 900000 5.4920 6.3283 4.1667 0.0000 -10797.9656 1498.0932 0.0000 0.0000 1821.5277 -7462.3577 306.5154 -9283.8853 -7547.9128 300.4201 271.8272 366.6301 30606.3782 -10.8884 37.3286
ENERGY: 1200000 6.4057 3.8998 2.0343 0.0000 -10866.6287 1557.8497 0.0000 0.0000 1793.6702 -7502.7690 301.8278 -9296.4392 -7527.8853 302.0692 862.0792 917.8788 30355.8908 91.4855 138.4858
ENERGY: 1500000 4.7051 5.4824 5.2278 0.0000 -10755.4793 1453.6926 0.0000 0.0000 1708.3956 -7577.9758 287.4783 -9286.3714 -7527.9603 301.0262 -202.0379 -141.4119 30981.0371 64.9137 117.9994
TCL: Running FEP window  12: Lambda1 0.4499999999999996 Lambda2 0.39999999999999963 [dLambda -0.04999999999999999]
TCL: Setting parameter firsttimestep to 0
TCL: Setting parameter alchLambda to 0.4499999999999996
Info: NONBONDED TABLE R-SQUARED SPACING: 0.0625
Info: NONBONDED TABLE SIZE: 705 POINTS
TCL: Setting parameter alchLambda2 to 0.39999999999999963
Info: NONBONDED TABLE R-SQUARED SPACING: 0.0625
Info: NONBONDED TABLE SIZE: 705 POINTS
TCL: Running for 1500000 steps
ETITLE: TS BOND ANGLE DIHED IMPRP ELECT VDW BOUNDARY MISC KINETIC TOTAL TEMP POTENTIAL TOTALAVG TEMPAVG PRESSURE GPRESSURE VOLUME PRESSAVG GPRESSAVG
ENERGY: 0 4.7051 5.4824 5.2278 0.0000 -10755.4810 1454.4911 0.0000 0.0000 1707.4995 -7578.0752 287.3275 -9285.5746 -7578.0752 287.3275 -216.4369 -141.8419 30981.0371 -216.4369 -141.8419
ENERGY: 300000 6.4968 3.3746 5.6276 0.0000 -10822.4083 1486.3731 0.0000 0.0000 1760.4134 -7560.1228 296.2315 -9320.5362 -7558.0825 292.9001 -93.9070 -3.8948 30727.2586 -441.7441 -360.1764
ENERGY: 600000 5.5578 6.2878 9.8300 0.0000 -10757.5558 1391.8102 0.0000 0.0000 1822.1198 -7521.9501 306.6151 -9344.0699 -7547.7921 296.9207 -497.4321 -451.7586 30430.4543 -387.9220 -307.6535
ENERGY: 900000 3.5200 7.6964 4.7750 0.0000 -10784.9774 1400.9644 0.0000 0.0000 1815.3598 -7552.6618 305.4776 -9368.0217 -7559.8640 297.8380 -330.6349 -224.8703 30489.8272 -302.0554 -218.7241
ENERGY: 1200000 3.5866 4.5766 6.4689 0.0000 -10720.7290 1414.8921 0.0000 0.0000 1787.0855 -7504.1194 300.7197 -9291.2049 -7550.5647 298.1769 -425.9214 -331.3946 30967.2327 -289.6633 -216.4422
ENERGY: 1500000 6.9311 4.5209 3.5655 0.0000 -10893.9971 1518.1032 0.0000 0.0000 1773.8601 -7587.0162 298.4942 -9360.8764 -7545.5062 298.6466 609.4528 683.4531 30312.2704 -162.4663 -87.6660
TCL: Running FEP window  13: Lambda1 0.39999999999999963 Lambda2 0.34999999999999964 [dLambda -0.04999999999999999]
TCL: Setting parameter firsttimestep to 0
TCL: Setting parameter alchLambda to 0.39999999999999963
Info: NONBONDED TABLE R-SQUARED SPACING: 0.0625
Info: NONBONDED TABLE SIZE: 705 POINTS
TCL: Setting parameter alchLambda2 to 0.34999999999999964
Info: NONBONDED TABLE R-SQUARED SPACING: 0.0625
Info: NONBONDED TABLE SIZE: 705 POINTS
TCL: Running for 1500000 steps
ETITLE: TS BOND ANGLE DIHED IMPRP ELECT VDW BOUNDARY MISC KINETIC TOTAL TEMP POTENTIAL TOTALAVG TEMPAVG PRESSURE GPRESSURE VOLUME PRESSAVG GPRESSAVG
ENERGY: 0 6.9311 4.5209 3.5655 0.0000 -10893.9971 1518.4881 0.0000 0.0000 1773.0039 -7587.4876 298.3502 -9360.4915 -7587.4876 298.3502 610.4348 678.3528 30312.2704 610.4348 678.3528
ENERGY: 300000 6.6371 7.9438 2.3652 0.0000 -10929.5917 1559.0607 0.0000 0.0000 1786.1198 -7567.4651 300.5572 -9353.5849 -7583.2881 296.5556 1084.9047 1094.0126 30379.8469 258.4674 294.8155
ENERGY: 600000 8.0672 8.5364 9.1545 0.0000 -10811.1571 1492.3202 0.0000 0.0000 1856.5275 -7436.5513 312.4050 -9293.0788 -7537.7268 301.2550 183.9905 284.5724 30736.5247 362.6824 407.1500
ENERGY: 900000 4.8282 6.3033 6.0767 0.0000 -10873.6864 1497.9403 0.0000 0.0000 1818.0450 -7540.4928 305.9294 -9358.5378 -7533.9855 301.7111 181.8050 212.1359 30783.8850 195.6498 237.6914
ENERGY: 1200000 1.6689 3.6779 6.0095 0.0000 -10935.2614 1571.4419 0.0000 0.0000 1817.9745 -7534.4887 305.9175 -9352.4632 -7533.5408 301.7678 833.6900 921.0936 30528.6488 264.0034 314.2413
ENERGY: 1500000 7.2103 4.2181 5.8043 0.0000 -10707.4501 1455.9652 0.0000 0.0000 1858.0420 -7376.2102 312.6599 -9234.2522 -7514.2690 302.7094 -52.6934 17.6122 31246.5168 169.3258 218.1368
TCL: Running FEP window  14: Lambda1 0.34999999999999964 Lambda2 0.29999999999999966 [dLambda -0.04999999999999999]
TCL: Setting parameter firsttimestep to 0
TCL: Setting parameter alchLambda to 0.34999999999999964
Info: NONBONDED TABLE R-SQUARED SPACING: 0.0625
Info: NONBONDED TABLE SIZE: 705 POINTS
TCL: Setting parameter alchLambda2 to 0.29999999999999966
Info: NONBONDED TABLE R-SQUARED SPACING: 0.0625
Info: NONBONDED TABLE SIZE: 705 POINTS
TCL: Running for 1500000 steps
ETITLE: TS BOND ANGLE DIHED IMPRP ELECT VDW BOUNDARY MISC KINETIC TOTAL TEMP POTENTIAL TOTALAVG TEMPAVG PRESSURE GPRESSURE VOLUME PRESSAVG GPRESSAVG
ENERGY: 0 7.2103 4.2182 5.8043 0.0000 -10707.4508 1456.4369 0.0000 0.0000 1857.1512 -7376.6300 312.5099 -9233.7812 -7376.6300 312.5099 -66.7449 15.1398 31246.5168 -66.7449 15.1398
ENERGY: 300000 6.0458 6.5442 6.1690 0.0000 -10955.6786 1549.3761 0.0000 0.0000 1796.8616 -7590.6819 302.3648 -9387.5435 -7543.7962 298.5472 427.6902 550.8764 30510.0496 40.7574 121.4759
ENERGY: 600000 4.3697 6.0194 8.1841 0.0000 -10699.5714 1405.5338 0.0000 0.0000 1788.4538 -7487.0105 300.9500 -9275.4643 -7529.2564 300.0398 -609.0314 -460.2799 30959.0799 -34.0763 46.2026
ENERGY: 900000 3.5734 5.5020 5.1241 0.0000 -10837.5820 1468.4097 0.0000 0.0000 1746.9749 -7607.9980 293.9702 -9354.9729 -7545.2927 299.7789 -288.3197 -178.8584 30855.6130 -99.6677 -21.1812
ENERGY: 1200000 4.7071 3.7660 5.2241 0.0000 -10884.1117 1534.0620 0.0000 0.0000 1779.4858 -7556.8667 299.4409 -9336.3525 -7548.8356 299.5329 382.6273 443.1137 30708.2920 36.0211 115.3045
ENERGY: 1500000 4.0048 6.3197 4.9451 0.0000 -10828.5505 1452.2455 0.0000 0.0000 1821.4157 -7539.6197 306.4966 -9361.0353 -7544.9269 300.1635 24.3070 74.7190 30291.8728 -16.3065 58.2183
TCL: Running FEP window  15: Lambda1 0.29999999999999966 Lambda2 0.24999999999999967 [dLambda -0.04999999999999999]
TCL: Setting parameter firsttimestep to 0
TCL: Setting parameter alchLambda to 0.29999999999999966
Info: NONBONDED TABLE R-SQUARED SPACING: 0.0625
Info: NONBONDED TABLE SIZE: 705 POINTS
TCL: Setting parameter alchLambda2 to 0.24999999999999967
Info: NONBONDED TABLE R-SQUARED SPACING: 0.0625
Info: NONBONDED TABLE SIZE: 705 POINTS
TCL: Running for 1500000 steps
ETITLE: TS BOND ANGLE DIHED IMPRP ELECT VDW BOUNDARY MISC KINETIC TOTAL TEMP POTENTIAL TOTALAVG TEMPAVG PRESSURE GPRESSURE VOLUME PRESSAVG GPRESSAVG
ENERGY: 0 4.0048 6.3197 4.9451 0.0000 -10828.5508 1452.0534 0.0000 0.0000 1820.5371 -7540.6908 306.3487 -9361.2279 -7540.6908 306.3487 -12.1091 66.0879 30291.8728 -12.1091 66.0879
ENERGY: 300000 3.7172 5.3567 4.7909 0.0000 -10850.7207 1484.7965 0.0000 0.0000 1834.1483 -7517.9111 308.6392 -9352.0594 -7543.8672 301.0434 -8.1370 34.9822 30947.2609 -203.3498 -145.1703
ENERGY: 600000 5.7690 5.5025 3.6049 0.0000 -10682.5273 1396.0474 0.0000 0.0000 1824.7610 -7446.8424 307.0595 -9271.6034 -7521.3456 303.2425 -432.9904 -369.2898 31044.9489 -214.5356 -153.5123
ENERGY: 900000 3.7867 4.3892 6.0449 0.0000 -10894.9269 1534.3273 0.0000 0.0000 1749.9134 -7596.4654 294.4646 -9346.3788 -7518.4750 302.1915 597.1337 611.2369 30637.4122 -109.6415 -62.2302
ENERGY: 1200000 3.7436 9.7716 5.2156 0.0000 -10886.1629 1582.2542 0.0000 0.0000 1811.5501 -7473.6278 304.8365 -9285.1778 -7519.6062 301.6535 1245.3296 1381.9163 30165.1171 4.3311 60.9842
ENERGY: 1500000 5.1544 7.3440 4.3516 0.0000 -10806.7907 1389.2697 0.0000 0.0000 1764.5278 -7636.1431 296.9239 -9400.6709 -7520.2569 301.4119 -510.8383 -470.3935 30509.2387 -27.3162 31.5821
TCL: Running FEP window  16: Lambda1 0.24999999999999967 Lambda2 0.19999999999999968 [dLambda -0.04999999999999999]
TCL: Setting parameter firsttimestep to 0
TCL: Setting parameter alchLambda to 0.24999999999999967
Info: NONBONDED TABLE R-SQUARED SPACING: 0.0625
Info: NONBONDED TABLE SIZE: 705 POINTS
TCL: Setting parameter alchLambda2 to 0.19999999999999968
Info: NONBONDED TABLE R-SQUARED SPACING: 0.0625
Info: NONBONDED TABLE SIZE: 705 POINTS
TCL: Running for 1500000 steps
ETITLE: TS BOND ANGLE DIHED IMPRP ELECT VDW BOUNDARY MISC KINETIC TOTAL TEMP POTENTIAL TOTALAVG TEMPAVG PRESSURE GPRESSURE VOLUME PRESSAVG GPRESSAVG
ENERGY: 0 5.1545 7.3440 4.3516 0.0000 -10806.7889 1390.0316 0.0000 0.0000 1763.6631 -7636.2441 296.7783 -9399.9072 -7636.2441 296.7783 -559.1160 -472.9363 30509.2387 -559.1160 -472.9363
ENERGY: 300000 8.5655 4.2565 4.2028 0.0000 -10595.2427 1349.3499 0.0000 0.0000 1775.6666 -7453.2014 298.7982 -9228.8680 -7595.3994 295.5819 -471.2334 -379.9211 30901.7961 76.3100 156.1652
ENERGY: 600000 3.3208 8.9147 3.2545 0.0000 -10660.9431 1391.1616 0.0000 0.0000 1746.3894 -7507.9021 293.8716 -9254.2915 -7550.9247 297.4838 -286.6884 -148.0410 30618.4956 -105.1650 -21.5843
ENERGY: 900000 3.5075 5.1061 7.2936 0.0000 -10926.8579 1520.2577 0.0000 0.0000 1754.7960 -7635.8970 295.2862 -9390.6929 -7561.4166 296.1982 372.3836 432.4729 30271.7765 22.0747 96.1903
ENERGY: 1200000 1.6035 4.0165 5.9215 0.0000 -10891.2091 1548.1029 0.0000 0.0000 1777.3293 -7554.2354 299.0780 -9331.5646 -7556.8751 296.7674 793.2002 862.0331 30434.7288 98.8253 168.9533
ENERGY: 1500000 4.3845 4.3897 1.3930 0.0000 -10741.9754 1402.2984 0.0000 0.0000 1827.6118 -7501.8980 307.5392 -9329.5098 -7545.0309 297.9144 -803.4644 -779.8173 31628.4282 42.4488 109.9689
TCL: Running FEP window  17: Lambda1 0.19999999999999968 Lambda2 0.1499999999999997 [dLambda -0.04999999999999999]
TCL: Setting parameter firsttimestep to 0
TCL: Setting parameter alchLambda to 0.19999999999999968
Info: NONBONDED TABLE R-SQUARED SPACING: 0.0625
Info: NONBONDED TABLE SIZE: 705 POINTS
TCL: Setting parameter alchLambda2 to 0.1499999999999997
Info: NONBONDED TABLE R-SQUARED SPACING: 0.0625
Info: NONBONDED TABLE SIZE: 705 POINTS
TCL: Running for 1500000 steps
ETITLE: TS BOND ANGLE DIHED IMPRP ELECT VDW BOUNDARY MISC KINETIC TOTAL TEMP POTENTIAL TOTALAVG TEMPAVG PRESSURE GPRESSURE VOLUME PRESSAVG GPRESSAVG
ENERGY: 0 4.3845 4.3897 1.3930 0.0000 -10741.9777 1401.9675 0.0000 0.0000 1826.7098 -7503.1332 307.3875 -9329.8431 -7503.1332 307.3875 -851.2898 -789.2976 31628.4282 -851.2898 -789.2976
ENERGY: 300000 5.7427 10.3396 2.2461 0.0000 -10713.1923 1439.2025 0.0000 0.0000 1781.8007 -7473.8608 299.8304 -9255.6615 -7506.0606 300.1203 -42.7615 30.9972 30736.2492 -466.7931 -393.0191
ENERGY: 600000 4.1784 5.2502 6.6526 0.0000 -10734.5128 1431.7839 0.0000 0.0000 1807.4887 -7479.1590 304.1531 -9286.6477 -7533.3884 299.2145 -224.1434 -105.3943 30497.3926 -445.8184 -371.5448
ENERGY: 900000 3.1771 6.7476 4.5689 0.0000 -10827.8809 1480.4570 0.0000 0.0000 1754.7152 -7578.2152 295.2727 -9332.9304 -7538.8140 297.7360 -192.1689 -58.0982 30888.2601 -333.7489 -253.8418
ENERGY: 1200000 4.0959 5.2534 7.4361 0.0000 -10900.1986 1491.5043 0.0000 0.0000 1777.6895 -7614.2193 299.1386 -9391.9089 -7545.3436 298.4925 278.5307 307.2531 30064.1214 -191.6340 -124.5292
ENERGY: 1500000 3.6001 7.8458 3.8829 0.0000 -10731.8254 1452.8619 0.0000 0.0000 1779.2380 -7484.3967 299.3992 -9263.6347 -7539.2921 299.5372 102.9226 147.6607 30351.2970 -123.7267 -62.0220
TCL: Running FEP window  18: Lambda1 0.1499999999999997 Lambda2 0.09999999999999969 [dLambda -0.05 ]
TCL: Setting parameter firsttimestep to 0
TCL: Setting parameter alchLambda to 0.1499999999999997
Info: NONBONDED TABLE R-SQUARED SPACING: 0.0625
Info: NONBONDED TABLE SIZE: 705 POINTS
TCL: Setting parameter alchLambda2 to 0.09999999999999969
Info: NONBONDED TABLE R-SQUARED SPACING: 0.0625
Info: NONBONDED TABLE SIZE: 705 POINTS
TCL: Running for 1500000 steps
ETITLE: TS BOND ANGLE DIHED IMPRP ELECT VDW BOUNDARY MISC KINETIC TOTAL TEMP POTENTIAL TOTALAVG TEMPAVG PRESSURE GPRESSURE VOLUME PRESSAVG GPRESSAVG
ENERGY: 0 3.6001 7.8458 3.8829 0.0000 -10731.8262 1453.4651 0.0000 0.0000 1778.3095 -7484.7228 299.2430 -9263.0323 -7484.7228 299.2430 60.8669 147.3166 30351.2970 60.8669 147.3166
ENERGY: 300000 4.9530 4.5798 5.8574 0.0000 -10764.3259 1439.2007 0.0000 0.0000 1804.7046 -7505.0304 303.6846 -9309.7351 -7536.0191 298.1151 -121.9858 -45.6106 30521.9932 5.3199 62.9492
ENERGY: 600000 1.6885 6.8405 6.9186 0.0000 -10773.9607 1514.6604 0.0000 0.0000 1783.1078 -7460.7449 300.0504 -9243.8526 -7513.2544 299.3822 691.2584 802.2829 30273.8858 -55.5888 24.3908
ENERGY: 900000 7.1965 5.9149 6.0158 0.0000 -10787.5853 1442.5060 0.0000 0.0000 1797.7885 -7528.1636 302.5208 -9325.9521 -7505.0561 300.4838 10.1708 72.0859 30136.7443 -41.4997 24.8359
ENERGY: 1200000 5.8287 4.9356 7.0691 0.0000 -10898.3950 1518.5981 0.0000 0.0000 1793.5924 -7568.3710 301.8147 -9361.9635 -7508.6701 300.7085 179.1063 287.5735 30336.5659 -24.9218 49.7519
ENERGY: 1500000 4.0648 8.6908 8.7992 0.0000 -10716.7540 1344.3760 0.0000 0.0000 1715.2857 -7635.5375 288.6377 -9350.8232 -7517.3410 300.3921 -1228.8913 -1103.4803 30864.0840 -123.2350 -48.7512
TCL: Running FEP window  19: Lambda1 0.09999999999999969 Lambda2 0.049999999999999684 [dLambda -0.05 ]
TCL: Setting parameter firsttimestep to 0
TCL: Setting parameter alchLambda to 0.09999999999999969
Info: NONBONDED TABLE R-SQUARED SPACING: 0.0625
Info: NONBONDED TABLE SIZE: 705 POINTS
TCL: Setting parameter alchLambda2 to 0.049999999999999684
Info: NONBONDED TABLE R-SQUARED SPACING: 0.0625
Info: NONBONDED TABLE SIZE: 705 POINTS
TCL: Running for 1500000 steps
ETITLE: TS BOND ANGLE DIHED IMPRP ELECT VDW BOUNDARY MISC KINETIC TOTAL TEMP POTENTIAL TOTALAVG TEMPAVG PRESSURE GPRESSURE VOLUME PRESSAVG GPRESSAVG
ENERGY: 0 4.0648 8.6908 8.7992 0.0000 -10716.7541 1342.7277 0.0000 0.0000 1714.4260 -7638.0455 288.4930 -9352.4716 -7638.0455 288.4930 -1213.6644 -1116.2587 30864.0840 -1213.6644 -1116.2587
ENERGY: 300000 3.1889 3.8974 4.6825 0.0000 -10811.5877 1507.7358 0.0000 0.0000 1742.2197 -7549.8633 293.1700 -9292.0830 -7546.4230 295.0060 727.5904 709.8494 30210.6873 -556.8506 -504.3033
ENERGY: 600000 3.6627 4.9799 6.5319 0.0000 -10735.5560 1433.0695 0.0000 0.0000 1728.7589 -7558.5531 290.9049 -9287.3120 -7547.3546 295.2441 -303.3304 -219.0070 30610.5861 -246.2109 -203.4259
ENERGY: 900000 3.1248 8.0785 8.3894 0.0000 -10656.4725 1384.5223 0.0000 0.0000 1795.1670 -7457.1904 302.0796 -9252.3574 -7531.5666 297.0197 -814.0302 -642.8616 30856.9503 -353.5466 -298.8212
ENERGY: 1200000 5.8451 6.1695 7.8241 0.0000 -10746.5233 1445.0219 0.0000 0.0000 1777.6515 -7504.0113 299.1322 -9281.6628 -7525.3088 298.2293 -208.5661 -159.8590 30633.0939 -235.1822 -177.7551
ENERGY: 1500000 3.0059 5.4961 2.7155 0.0000 -10740.8020 1463.3208 0.0000 0.0000 1802.5322 -7463.7315 303.3190 -9266.2637 -7515.3708 298.6524 214.7292 217.5027 30563.0558 -186.4853 -130.9355
TCL: Running FEP window  20: Lambda1 0.049999999999999684 Lambda2 0.0    [dLambda -0.049999999999999684]
TCL: Setting parameter firsttimestep to 0
TCL: Setting parameter alchLambda to 0.049999999999999684
Info: NONBONDED TABLE R-SQUARED SPACING: 0.0625
Info: NONBONDED TABLE SIZE: 705 POINTS
TCL: Setting parameter alchLambda2 to 0.0
Info: NONBONDED TABLE R-SQUARED SPACING: 0.0625
Info: NONBONDED TABLE SIZE: 705 POINTS
TCL: Running for 1500000 steps
ETITLE: TS BOND ANGLE DIHED IMPRP ELECT VDW BOUNDARY MISC KINETIC TOTAL TEMP POTENTIAL TOTALAVG TEMPAVG PRESSURE GPRESSURE VOLUME PRESSAVG GPRESSAVG
ENERGY: 0 3.0059 5.4961 2.7155 0.0000 -10740.8013 1461.4636 0.0000 0.0000 1801.6632 -7466.4571 303.1728 -9268.1203 -7466.4571 303.1728 127.4856 210.7163 30563.0558 127.4856 210.7163
ENERGY: 300000 4.1190 11.4095 3.9586 0.0000 -10680.0107 1418.9128 0.0000 0.0000 1741.3959 -7500.2149 293.0314 -9241.6108 -7528.7091 299.3724 -389.4891 -318.4582 30810.5293 -10.2252 31.4473
ENERGY: 600000 3.8281 4.5856 4.7992 0.0000 -10680.3210 1418.0277 0.0000 0.0000 1763.9141 -7485.1663 296.8206 -9249.0804 -7516.2155 299.3362 -472.0730 -378.0277 31144.8449 -82.4041 -26.7037
ENERGY: 900000 6.3430 5.9456 2.6929 0.0000 -10733.0516 1463.0217 0.0000 0.0000 1737.4906 -7517.5578 292.3742 -9255.0484 -7523.0518 298.6746 23.3216 -8.5634 30861.7457 -66.4589 -18.3839
ENERGY: 1200000 5.7479 5.6819 2.7754 0.0000 -10933.9003 1506.3035 0.0000 0.0000 1736.3989 -7676.9927 292.1905 -9413.3916 -7537.6737 298.0283 -133.4336 -115.3999 30638.9023 -73.5883 -34.9886
ENERGY: 1500000 5.7942 3.9602 7.3796 0.0000 -10766.2028 1459.1995 0.0000 0.0000 1756.1358 -7533.7335 295.5117 -9289.8693 -7533.8377 298.1366 -486.4133 -394.1398 31068.3276 -186.9107 -142.5555
TCL: Exiting due to exit command.
