Info: SIMULATION PARAMETERS:
Info: TIMESTEP               2
Info: NUMBER OF STEPS        0
Info: STEPS PER CYCLE        10
Info: PERIODIC CELL BASIS 1  30.5645 0 0
Info: PERIODIC CELL BASIS 2  0 31.9841 0
Info: PERIODIC CELL BASIS 3  0 0 31.2083
Info: PERIODIC CELL CENTER   0 0 0
Info: WRAPPING WATERS AROUND PERIODIC BOUNDARIES ON OUTPUT.
Info: WRAPPING ALL CLUSTERS AROUND PERIODIC BOUNDARIES ON OUTPUT.
Info: FIRST LDB TIMESTEP     50
Info: LAST LDB TIMESTEP     -1
Info: HOM BACKGROUND SCALING 1
Info: PME BACKGROUND SCALING 1
Info: MIN ATOMS PER PATCH    40
Info: EMPTY PATCH LOAD       40 ATOMS
Info: VELOCITY FILE          mobley_6334915_equil.vel
Info: CENTER OF MASS MOVING INITIALLY? NO
Info: DIELECTRIC             1
Info: EXCLUDE                SCALED ONE-FOUR
Info: 1-4 ELECTROSTATICS SCALED BY 0.833333
Info: MODIFIED 1-4 VDW PARAMETERS WILL BE USED
Info: DCD FILENAME           mobley_6334915_prod.dcd
Info: DCD FREQUENCY          100000
Info: DCD FIRST STEP         100000
Info: DCD FILE WILL CONTAIN UNIT CELL DATA
Info: XST FILENAME           mobley_6334915_prod.xst
Info: XST FREQUENCY          100000
Info: NO VELOCITY DCD OUTPUT
Info: NO FORCE DCD OUTPUT
Info: OUTPUT FILENAME        mobley_6334915_prod
Info: BINARY OUTPUT FILES WILL BE USED
Info: RESTART FILENAME       mobley_6334915_prod.restart
Info: RESTART FREQUENCY      100000
Info: BINARY RESTART FILES WILL BE USED
Info: CUTOFF                 9
Info: PAIRLIST DISTANCE      11
Info: PAIRLIST SHRINK RATE   0.01
Info: PAIRLIST GROW RATE     0.01
Info: PAIRLIST TRIGGER       0.3
Info: PAIRLISTS PER CYCLE    2
Info: PAIRLISTS ENABLED
Info: MARGIN                 2
Info: HYDROGEN GROUP CUTOFF  2.5
Info: PATCH DIMENSION        15.5
Info: ENERGY OUTPUT STEPS    100000
Info: ENERGY EVALUATION STEPS    100000
Info: OUTPUT ENERGY PRECISION 4
Info: CROSSTERM ENERGY INCLUDED IN DIHEDRAL
Info: TIMING OUTPUT STEPS    1000000
Info: PRESSURE OUTPUT STEPS  100000
Info: ALCHEMICAL FEP ON
Info: FEP CURRENT LAMBDA VALUE     1
Info: FEP COMPARISON LAMBDA VALUE  0.95
Info: FEP INTRA-ALCHEMICAL NON-BONDED INTERACTIONS WILL BE RETAINED
Info: FEP INTRA-ALCHEMICAL BONDED INTERACTIONS WILL BE RETAINED
Info: FEP VDW SHIFTING COEFFICIENT 5
Info: FEP ELEC. ACTIVE FOR ANNIHILATED PARTICLES BETWEEN LAMBDA = 0 AND LAMBDA = 0.5
Info: FEP ELEC. ACTIVE FOR EXNIHILATED PARTICLES BETWEEN LAMBDA = 0.5 AND LAMBDA = 1
Info: FEP VDW ACTIVE FOR ANNIHILATED PARTICLES BETWEEN LAMBDA = 0 AND LAMBDA = 1
Info: FEP VDW ACTIVE FOR EXNIHILATED PARTICLES BETWEEN LAMBDA = 0 AND LAMBDA = 1
Info: FEP BOND ACTIVE FOR ANNIHILATED PARTICLES BETWEEN LAMBDA = 1 AND LAMBDA = 1
Info: FEP BOND ACTIVE FOR EXNIHILATED PARTICLES BETWEEN LAMBDA = 0 AND LAMBDA = 0
Info: LANGEVIN DYNAMICS ACTIVE
Info: LANGEVIN TEMPERATURE   300
Info: LANGEVIN USING BBK INTEGRATOR
Info: LANGEVIN DAMPING COEFFICIENT IS 1 INVERSE PS
Info: LANGEVIN DYNAMICS APPLIED TO HYDROGENS
Info: LANGEVIN PISTON PRESSURE CONTROL ACTIVE
Info:        TARGET PRESSURE IS 1.01325 BAR
Info:     OSCILLATION PERIOD IS 50 FS
Info:             DECAY TIME IS 25 FS
Info:     PISTON TEMPERATURE IS 300 K
Info:       PRESSURE CONTROL IS GROUP-BASED
Info:    INITIAL STRAIN RATE IS -0.000230975 -0.000230975 -0.000230975
Info:       CELL FLUCTUATION IS ISOTROPIC
Info: PARTICLE MESH EWALD (PME) ACTIVE
Info: PME TOLERANCE               1e-06
Info: PME EWALD COEFFICIENT       0.348832
Info: PME INTERPOLATION ORDER     4
Info: PME GRID DIMENSIONS         32 32 32
Info: PME MAXIMUM GRID SPACING    1
Info: PME CALCULATION WILL BE PERFORMED ON GPU
Info: FULL ELECTROSTATIC EVALUATION FREQUENCY      2
Info: USING VERLET I (r-RESPA) MTS SCHEME.
Info: C1 SPLITTING OF LONG RANGE ELECTROSTATICS
Info: PLACING ATOMS IN PATCHES BY HYDROGEN GROUPS
Info: RIGID BONDS TO HYDROGEN : ALL
Info:         ERROR TOLERANCE : 1e-08
Info:          MAX ITERATIONS : 100
Info: RIGID WATER USING SETTLE ALGORITHM
Info: RANDOM NUMBER SEED     1743935599
Info: USE HYDROGEN BONDS?    NO
Info: Using AMBER format force field!
Info: AMBER PARM FILE        mobley_6334915.prmtop
Info: COORDINATE PDB         mobley_6334915.pdb
Info: Exclusions will be read from PARM file!
Info: SCNB (VDW SCALING)     2
Info: USING ARITHMETIC MEAN TO COMBINE L-J SIGMA PARAMETERS
Info: BINARY COORDINATES     mobley_6334915_equil.coor
Info: SUMMARY OF PARAMETERS:
Info: 11 BONDS
Info: 16 ANGLES
Info:   16 HARMONIC
Info:   0 COSINE-BASED
Info: 12 DIHEDRAL
Info: 0 IMPROPER
Info: 0 CROSSTERM
Info: 0 VDW
Info: 45 VDW_PAIRS
Info: 0 NBTHOLE_PAIRS
Info: To read alchdata from file: mobley_6334915.pdb
Info: To read alchflag data from column: 5
Info: STRUCTURE SUMMARY:
Info: 2987 ATOMS
Info: 2986 BONDS
Info: 33 ANGLES
Info: 41 DIHEDRALS
Info: 0 IMPROPERS
Info: 0 CROSSTERMS
Info: 3052 EXCLUSIONS
Info: 2975 RIGID BONDS
Info: ALCH: 0 ATOMS TO DISAPPEAR IN FINAL STATE
Info: ALCH: 20 ATOMS TO APPEAR IN FINAL STATE
Info: 5986 DEGREES OF FREEDOM
Info: 1001 HYDROGEN GROUPS
Info: 4 ATOMS IN LARGEST HYDROGEN GROUP
Info: 1001 MIGRATION GROUPS
Info: 4 ATOMS IN LARGEST MIGRATION GROUP
Info: TOTAL MASS = 18075.2 amu
Info: TOTAL CHARGE = -9.99272e-05 e
Info: MASS DENSITY = 0.983834 g/cm^3
Info: ATOM DENSITY = 0.097907 atoms/A^3
Info: ADDED 0 IMPLICIT EXCLUSIONS
Info: NONBONDED TABLE R-SQUARED SPACING: 0.0625
Info: NONBONDED TABLE SIZE: 705 POINTS
Info: REMOVING COM VELOCITY 0.00369186 -0.0358826 -0.0942197
Info: Use 3D box decompostion in PME FFT.
Info: Updated CUDA force table with 4096 elements.
Info: Updated CUDA LJ table with 9 x 9 elements.
Info: Found 23 unique exclusion lists needing 52 bytes
TCL: Running for 1500000 steps
ETITLE: TS BOND ANGLE DIHED IMPRP ELECT VDW BOUNDARY MISC KINETIC TOTAL TEMP POTENTIAL TOTALAVG TEMPAVG PRESSURE GPRESSURE VOLUME PRESSAVG GPRESSAVG
ENERGY: 0 2.7776 12.1230 10.2497 0.0000 -10792.1150 1396.2896 0.0000 0.0000 1795.7921 -7574.8830 301.9324 -9370.6751 -7574.8830 301.9324 -183.3776 -90.5791 30508.5441 -183.3776 -90.5791
ENERGY: 300000 4.6694 12.6934 10.0404 0.0000 -10755.8711 1412.2340 0.0000 0.0000 1799.5762 -7516.6577 302.5686 -9316.2339 -7544.1300 301.8371 -323.8917 -226.4442 31031.9668 -213.4404 -141.6323
ENERGY: 600000 3.8369 11.8984 8.7129 0.0000 -10896.9270 1518.0936 0.0000 0.0000 1811.0557 -7543.3296 304.4987 -9354.3853 -7562.7254 299.5721 297.4154 349.9861 30822.7177 -47.8193 15.8367
ENERGY: 900000 6.7003 14.0676 8.5431 0.0000 -10925.6876 1480.7790 0.0000 0.0000 1753.4812 -7662.1164 294.8185 -9415.5976 -7572.4599 297.7988 12.4209 94.3480 30857.1935 -111.4391 -49.7964
ENERGY: 1200000 2.1117 7.5360 7.9301 0.0000 -10875.1805 1477.8331 0.0000 0.0000 1793.7227 -7586.0468 301.5845 -9379.7695 -7582.7538 297.6233 295.4091 362.4391 30912.1013 -178.5136 -114.5828
ENERGY: 1500000 5.0641 11.3486 8.1722 0.0000 -10766.5404 1434.4366 0.0000 0.0000 1784.7834 -7522.7355 300.0815 -9307.5189 -7574.3294 298.1104 185.1562 230.9872 30694.8312 -190.1984 -128.0610
TCL: Running FEP window   2: Lambda1 0.95   Lambda2 0.8999999999999999 [dLambda -0.050000000000000044]
TCL: Setting parameter firsttimestep to 0
TCL: Setting parameter alchLambda to 0.95
Info: NONBONDED TABLE R-SQUARED SPACING: 0.0625
Info: NONBONDED TABLE SIZE: 705 POINTS
TCL: Setting parameter alchLambda2 to 0.8999999999999999
Info: NONBONDED TABLE R-SQUARED SPACING: 0.0625
Info: NONBONDED TABLE SIZE: 705 POINTS
TCL: Running for 1500000 steps
ETITLE: TS BOND ANGLE DIHED IMPRP ELECT VDW BOUNDARY MISC KINETIC TOTAL TEMP POTENTIAL TOTALAVG TEMPAVG PRESSURE GPRESSURE VOLUME PRESSAVG GPRESSAVG
ENERGY: 0 5.0641 11.3486 8.1722 0.0000 -10762.2997 1432.8550 0.0000 0.0000 1783.8773 -7520.9826 299.9291 -9304.8598 -7520.9826 299.9291 121.0120 202.9755 30694.8312 121.0120 202.9755
ENERGY: 300000 2.5247 8.9052 9.6395 0.0000 -10921.1866 1490.9035 0.0000 0.0000 1717.4747 -7691.7389 288.7646 -9409.2136 -7549.8153 299.7181 -113.8548 -70.6171 31442.9238 75.7557 119.6084
ENERGY: 600000 6.8124 20.5156 8.0103 0.0000 -10766.2175 1388.1481 0.0000 0.0000 1845.4243 -7497.3068 310.2772 -9342.7311 -7533.8839 302.3478 -645.7053 -539.3237 30952.9849 -38.0869 24.4807
ENERGY: 900000 2.9174 7.0401 7.3736 0.0000 -10806.7761 1375.5107 0.0000 0.0000 1753.6956 -7660.2387 294.8546 -9413.9343 -7558.8710 302.0752 -770.5562 -771.2062 30772.9230 -131.9067 -75.1128
ENERGY: 1200000 3.3011 15.4867 9.3402 0.0000 -10918.9154 1498.7616 0.0000 0.0000 1857.9678 -7534.0580 312.3862 -9392.0258 -7559.1463 301.9988 240.1465 334.6191 30659.1987 -183.4184 -121.7697
ENERGY: 1500000 1.7584 12.9915 7.8360 0.0000 -10719.1861 1407.1240 0.0000 0.0000 1802.0114 -7487.4649 302.9781 -9289.4763 -7557.1435 301.1500 -388.4061 -386.4696 31473.9488 -220.5539 -163.1461
TCL: Running FEP window   3: Lambda1 0.8999999999999999 Lambda2 0.8499999999999999 [dLambda -0.050000000000000044]
TCL: Setting parameter firsttimestep to 0
TCL: Setting parameter alchLambda to 0.8999999999999999
Info: NONBONDED TABLE R-SQUARED SPACING: 0.0625
Info: NONBONDED TABLE SIZE: 705 POINTS
TCL: Setting parameter alchLambda2 to 0.8499999999999999
Info: NONBONDED TABLE R-SQUARED SPACING: 0.0625
Info: NONBONDED TABLE SIZE: 705 POINTS
TCL: Running for 1500000 steps
ETITLE: TS BOND ANGLE DIHED IMPRP ELECT VDW BOUNDARY MISC KINETIC TOTAL TEMP POTENTIAL TOTALAVG TEMPAVG PRESSURE GPRESSURE VOLUME PRESSAVG GPRESSAVG
ENERGY: 0 1.7584 12.9915 7.8360 0.0000 -10714.6487 1405.5683 0.0000 0.0000 1801.1450 -7485.3496 302.8324 -9286.4946 -7485.3496 302.8324 -497.9021 -411.4431 31473.9488 -497.9021 -411.4431
ENERGY: 300000 1.8301 8.6510 9.9397 0.0000 -10794.7801 1465.9898 0.0000 0.0000 1762.7315 -7545.6380 296.3738 -9308.3696 -7526.7543 301.8556 103.7911 263.9802 30886.3987 108.3412 208.9822
ENERGY: 600000 3.3248 5.3653 8.6681 0.0000 -10707.3740 1391.8507 0.0000 0.0000 1792.3534 -7505.8117 301.3542 -9298.1650 -7530.2169 302.3590 -449.8468 -358.2913 31268.9750 160.3971 246.1852
ENERGY: 900000 5.5128 7.5940 9.7779 0.0000 -10787.6442 1447.4167 0.0000 0.0000 1750.9680 -7566.3748 294.3960 -9317.3429 -7542.6622 301.1822 -97.1134 6.7992 30586.4512 182.8536 270.4299
ENERGY: 1200000 2.3862 6.0699 9.6056 0.0000 -10911.9167 1531.3735 0.0000 0.0000 1781.2280 -7581.2535 299.4837 -9362.4815 -7553.1302 300.2978 513.4642 552.9958 30747.3793 97.2852 179.3941
ENERGY: 1500000 2.2721 12.6969 9.3446 0.0000 -11108.0578 1631.0543 0.0000 0.0000 1773.0612 -7679.6287 298.1106 -9452.6899 -7557.3049 300.3677 1196.4886 1319.1401 30238.3792 214.6347 297.8940
TCL: Running FEP window   4: Lambda1 0.8499999999999999 Lambda2 0.7999999999999998 [dLambda -0.050000000000000044]
TCL: Setting parameter firsttimestep to 0
TCL: Setting parameter alchLambda to 0.8499999999999999
Info: NONBONDED TABLE R-SQUARED SPACING: 0.0625
Info: NONBONDED TABLE SIZE: 705 POINTS
TCL: Setting parameter alchLambda2 to 0.7999999999999998
Info: NONBONDED TABLE R-SQUARED SPACING: 0.0625
Info: NONBONDED TABLE SIZE: 705 POINTS
TCL: Running for 1500000 steps
ETITLE: TS BOND ANGLE DIHED IMPRP ELECT VDW BOUNDARY MISC KINETIC TOTAL TEMP POTENTIAL TOTALAVG TEMPAVG PRESSURE GPRESSURE VOLUME PRESSAVG GPRESSAVG
ENERGY: 0 2.2721 12.6969 9.3446 0.0000 -11102.8860 1627.4854 0.0000 0.0000 1772.1712 -7678.9158 297.9609 -9451.0870 -7678.9158 297.9609 1190.6869 1275.5099 30238.3792 1190.6869 1275.5099
ENERGY: 300000 8.7175 9.3419 9.9638 0.0000 -10765.2803 1407.4506 0.0000 0.0000 1758.6876 -7571.1188 295.6939 -9329.8064 -7590.3416 299.2987 -192.7515 -134.5373 30981.3089 442.1315 502.6944
ENERGY: 600000 4.6219 9.0301 8.6081 0.0000 -10745.5076 1389.1067 0.0000 0.0000 1796.7878 -7537.3530 302.0998 -9334.1408 -7569.5744 300.6576 -558.6492 -511.5876 30785.2066 334.3494 394.2256
ENERGY: 900000 3.0491 9.6987 7.0672 0.0000 -10818.2429 1471.0616 0.0000 0.0000 1740.7073 -7586.6590 292.6708 -9327.3663 -7573.4931 299.5534 89.5138 144.0481 30963.2607 282.5814 329.9773
ENERGY: 1200000 6.0465 16.0750 10.1586 0.0000 -10791.0783 1407.2227 0.0000 0.0000 1791.4681 -7560.1074 301.2054 -9351.5755 -7570.2566 299.4187 -336.8122 -286.4986 31088.1425 205.1107 259.5339
ENERGY: 1500000 9.0486 13.0808 8.1411 0.0000 -10960.8528 1539.9555 0.0000 0.0000 1796.0938 -7594.5330 301.9831 -9390.6268 -7578.0058 298.2641 360.5346 426.1290 30684.2860 190.0231 247.1529
TCL: Running FEP window   5: Lambda1 0.7999999999999998 Lambda2 0.7499999999999998 [dLambda -0.050000000000000044]
TCL: Setting parameter firsttimestep to 0
TCL: Setting parameter alchLambda to 0.7999999999999998
Info: NONBONDED TABLE R-SQUARED SPACING: 0.0625
Info: NONBONDED TABLE SIZE: 705 POINTS
TCL: Setting parameter alchLambda2 to 0.7499999999999998
Info: NONBONDED TABLE R-SQUARED SPACING: 0.0625
Info: NONBONDED TABLE SIZE: 705 POINTS
TCL: Running for 1500000 steps
ETITLE: TS BOND ANGLE DIHED IMPRP ELECT VDW BOUNDARY MISC KINETIC TOTAL TEMP POTENTIAL TOTALAVG TEMPAVG PRESSURE GPRESSURE VOLUME PRESSAVG GPRESSAVG
ENERGY: 0 9.0486 13.0808 8.1411 0.0000 -10956.8310 1537.2849 0.0000 0.0000 1795.2283 -7594.0474 301.8376 -9389.2757 -7594.0474 301.8376 315.1636 394.0848 30684.2860 315.1636 394.0848
ENERGY: 300000 7.5178 11.1471 7.4009 0.0000 -10801.4354 1452.7510 0.0000 0.0000 1811.1202 -7511.4984 304.5096 -9322.6186 -7566.0885 299.5262 -49.1226 -75.1295 31244.0251 -200.5323 -147.8335
ENERGY: 600000 4.1762 14.7238 7.7385 0.0000 -10842.5253 1370.5036 0.0000 0.0000 1755.4848 -7689.8984 295.1554 -9445.3832 -7584.8395 299.0887 -727.6238 -629.2272 30432.4150 -139.5473 -77.7161
ENERGY: 900000 5.0014 11.3488 7.7053 0.0000 -10751.5077 1383.5176 0.0000 0.0000 1836.7160 -7507.2186 308.8131 -9343.9346 -7571.3275 299.6670 -450.4200 -382.0538 30663.1838 -117.1486 -57.5272
ENERGY: 1200000 3.5827 9.8466 9.5471 0.0000 -10837.8168 1428.7223 0.0000 0.0000 1836.1324 -7549.9856 308.7150 -9386.1181 -7578.8394 299.2507 -158.3453 -74.6894 30619.7932 -80.0785 -22.6894
ENERGY: 1500000 4.1792 9.7960 7.9020 0.0000 -10744.8933 1373.4426 0.0000 0.0000 1735.6747 -7613.8986 291.8247 -9349.5733 -7579.3821 299.1074 -594.8770 -476.1861 30954.4111 -93.3336 -29.2640
TCL: Running FEP window   6: Lambda1 0.7499999999999998 Lambda2 0.6999999999999997 [dLambda -0.050000000000000044]
TCL: Setting parameter firsttimestep to 0
TCL: Setting parameter alchLambda to 0.7499999999999998
Info: NONBONDED TABLE R-SQUARED SPACING: 0.0625
Info: NONBONDED TABLE SIZE: 705 POINTS
TCL: Setting parameter alchLambda2 to 0.6999999999999997
Info: NONBONDED TABLE R-SQUARED SPACING: 0.0625
Info: NONBONDED TABLE SIZE: 705 POINTS
TCL: Running for 1500000 steps
ETITLE: TS BOND ANGLE DIHED IMPRP ELECT VDW BOUNDARY MISC KINETIC TOTAL TEMP POTENTIAL TOTALAVG TEMPAVG PRESSURE GPRESSURE VOLUME PRESSAVG GPRESSAVG
ENERGY: 0 4.1792 9.7960 7.9020 0.0000 -10741.4459 1371.9313 0.0000 0.0000 1734.7587 -7612.8785 291.6707 -9347.6373 -7612.8785 291.6707 -572.6836 -494.2416 30954.4111 -572.6836 -494.2416
ENERGY: 300000 2.7808 11.8506 11.5426 0.0000 -10911.0194 1488.5532 0.0000 0.0000 1753.2889 -7643.0033 294.7862 -9396.2922 -7626.2884 294.4697 251.4378 283.8409 30595.0582 -144.1631 -83.9519
ENERGY: 600000 2.2350 17.4991 8.1677 0.0000 -10821.2681 1412.4168 0.0000 0.0000 1794.5936 -7586.3558 301.7309 -9380.9494 -7593.8256 297.1489 -360.8854 -307.8525 30690.4022 -78.5341 -28.4702
ENERGY: 900000 3.4829 8.2888 8.4207 0.0000 -10713.8043 1274.0574 0.0000 0.0000 1775.5382 -7644.0164 298.5271 -9419.5546 -7585.1019 298.0791 -1721.5260 -1708.8335 30954.3825 -194.6070 -143.2557
ENERGY: 1200000 3.5266 5.8451 7.4988 0.0000 -10662.2908 1381.7530 0.0000 0.0000 1784.3515 -7479.3159 300.0089 -9263.6674 -7581.8107 298.2986 -439.5898 -386.8204 31088.2123 -86.4418 -31.2802
ENERGY: 1500000 1.9867 10.3948 8.5185 0.0000 -11045.5472 1567.9471 0.0000 0.0000 1790.3679 -7666.3322 301.0204 -9456.7001 -7579.6508 299.2249 688.6093 656.5857 30680.8661 -42.7313 1.0866
TCL: Running FEP window   7: Lambda1 0.6999999999999997 Lambda2 0.6499999999999997 [dLambda -0.050000000000000044]
TCL: Setting parameter firsttimestep to 0
TCL: Setting parameter alchLambda to 0.6999999999999997
Info: NONBONDED TABLE R-SQUARED SPACING: 0.0625
Info: NONBONDED TABLE SIZE: 705 POINTS
TCL: Setting parameter alchLambda2 to 0.6499999999999997
Info: NONBONDED TABLE R-SQUARED SPACING: 0.0625
Info: NONBONDED TABLE SIZE: 705 POINTS
TCL: Running for 1500000 steps
ETITLE: TS BOND ANGLE DIHED IMPRP ELECT VDW BOUNDARY MISC KINETIC TOTAL TEMP POTENTIAL TOTALAVG TEMPAVG PRESSURE GPRESSURE VOLUME PRESSAVG GPRESSAVG
ENERGY: 0 1.9867 10.3948 8.5185 0.0000 -11042.8260 1568.2330 0.0000 0.0000 1789.4709 -7664.2222 300.8696 -9453.6931 -7664.2222 300.8696 590.8975 654.4959 30680.8661 590.8975 654.4959
ENERGY: 300000 3.2128 11.9136 10.3321 0.0000 -10739.7844 1445.9313 0.0000 0.0000 1782.5690 -7485.8257 299.7092 -9268.3947 -7542.7922 304.9725 297.3552 386.4747 30605.2518 433.2959 493.4080
ENERGY: 600000 4.2213 10.0229 8.0222 0.0000 -10813.2537 1470.1652 0.0000 0.0000 1768.5300 -7552.2921 297.3487 -9320.8221 -7545.0655 302.1579 179.8146 278.0032 30843.9668 295.1349 369.8986
ENERGY: 900000 2.0565 8.2931 8.2976 0.0000 -10875.8633 1471.2056 0.0000 0.0000 1756.3547 -7629.6558 295.3017 -9386.0104 -7565.0825 300.8316 190.3919 265.0919 30372.3150 137.9370 216.6901
ENERGY: 1200000 5.7478 8.6406 8.9006 0.0000 -10798.2565 1480.8386 0.0000 0.0000 1759.8945 -7534.2343 295.8968 -9294.1289 -7560.6620 300.3715 337.3980 356.3047 30578.6738 99.4143 164.4546
ENERGY: 1500000 2.5050 14.3337 7.8282 0.0000 -10814.9962 1525.9264 0.0000 0.0000 1824.1587 -7440.2443 306.7018 -9264.4030 -7549.3682 300.8026 588.5284 655.8923 31219.4596 138.5395 202.6704
TCL: Running FEP window   8: Lambda1 0.6499999999999997 Lambda2 0.5999999999999996 [dLambda -0.050000000000000044]
TCL: Setting parameter firsttimestep to 0
TCL: Setting parameter alchLambda to 0.6499999999999997
Info: NONBONDED TABLE R-SQUARED SPACING: 0.0625
Info: NONBONDED TABLE SIZE: 705 POINTS
TCL: Setting parameter alchLambda2 to 0.5999999999999996
Info: NONBONDED TABLE R-SQUARED SPACING: 0.0625
Info: NONBONDED TABLE SIZE: 705 POINTS
TCL: Running for 1500000 steps
ETITLE: TS BOND ANGLE DIHED IMPRP ELECT VDW BOUNDARY MISC KINETIC TOTAL TEMP POTENTIAL TOTALAVG TEMPAVG PRESSURE GPRESSURE VOLUME PRESSAVG GPRESSAVG
ENERGY: 0 2.5050 14.3337 7.8282 0.0000 -10812.8605 1525.6878 0.0000 0.0000 1823.3139 -7439.1920 306.5597 -9262.5059 -7439.1920 306.5597 559.1669 652.5035 31219.4596 559.1669 652.5035
ENERGY: 300000 2.7120 9.1706 9.2766 0.0000 -10735.0349 1386.7278 0.0000 0.0000 1791.2240 -7535.9240 301.1643 -9327.1480 -7532.9873 301.5199 -498.9817 -469.4534 30741.6415 -146.3250 -92.5376
ENERGY: 600000 4.8667 11.9191 9.3108 0.0000 -10668.6047 1366.6358 0.0000 0.0000 1777.5279 -7498.3443 298.8616 -9275.8723 -7539.2168 300.5705 -476.6907 -442.9317 31093.5838 -196.6195 -135.3429
ENERGY: 900000 3.7915 9.3153 8.1455 0.0000 -10797.6056 1430.0506 0.0000 0.0000 1794.8067 -7551.4960 301.7667 -9346.3027 -7534.7364 300.7662 187.2116 192.6437 30537.2662 -169.4766 -113.6673
ENERGY: 1200000 3.3111 9.8766 7.5410 0.0000 -10804.8579 1416.1443 0.0000 0.0000 1811.5438 -7556.4411 304.5808 -9367.9849 -7544.6915 300.5474 -333.8493 -326.2955 31067.3241 -186.2161 -128.9857
ENERGY: 1500000 2.7320 17.6166 8.1403 0.0000 -10540.4321 1292.2591 0.0000 0.0000 1774.0069 -7445.6771 298.2696 -9219.6840 -7541.2360 299.8833 -992.8640 -887.5796 31255.6688 -220.4456 -164.7134
TCL: Running FEP window   9: Lambda1 0.5999999999999996 Lambda2 0.5499999999999996 [dLambda -0.050000000000000044]
TCL: Setting parameter firsttimestep to 0
TCL: Setting parameter alchLambda to 0.5999999999999996
Info: NONBONDED TABLE R-SQUARED SPACING: 0.0625
Info: NONBONDED TABLE SIZE: 705 POINTS
TCL: Setting parameter alchLambda2 to 0.5499999999999996
Info: NONBONDED TABLE R-SQUARED SPACING: 0.0625
Info: NONBONDED TABLE SIZE: 705 POINTS
TCL: Running for 1500000 steps
ETITLE: TS BOND ANGLE DIHED IMPRP ELECT VDW BOUNDARY MISC KINETIC TOTAL TEMP POTENTIAL TOTALAVG TEMPAVG PRESSURE GPRESSURE VOLUME PRESSAVG GPRESSAVG
ENERGY: 0 2.7320 17.6166 8.1403 0.0000 -10538.1258 1292.4672 0.0000 0.0000 1773.1422 -7444.0273 298.1242 -9217.1696 -7444.0273 298.1242 -963.4264 -891.2044 31255.6688 -963.4264 -891.2044
ENERGY: 300000 3.7153 9.0431 9.5724 0.0000 -10736.3888 1386.6137 0.0000 0.0000 1804.8073 -7522.6369 303.4482 -9327.4443 -7505.5967 301.7578 -614.0421 -554.6116 31158.1781 -172.3413 -100.3287
ENERGY: 600000 4.9567 11.9918 8.7381 0.0000 -10859.7016 1493.9474 0.0000 0.0000 1789.0267 -7551.0410 300.7949 -9340.0676 -7526.7865 302.3385 558.1560 567.9969 30124.2853 -26.5852 41.3994
ENERGY: 900000 5.0781 11.9325 9.9557 0.0000 -10867.0176 1447.1617 0.0000 0.0000 1789.0438 -7603.8458 300.7978 -9392.8896 -7544.8830 301.8538 -119.3858 -97.2110 30903.9320 -139.6714 -77.5714
ENERGY: 1200000 3.8791 11.4701 7.9712 0.0000 -10889.4744 1469.7971 0.0000 0.0000 1773.3809 -7622.9760 298.1643 -9396.3569 -7548.7509 300.5692 -126.4285 -82.4207 31024.9294 -211.7449 -148.1485
ENERGY: 1500000 2.2440 6.8767 10.1224 0.0000 -10713.8232 1411.1682 0.0000 0.0000 1816.4656 -7466.9463 305.4083 -9283.4119 -7543.9431 300.8432 -0.9863 111.0494 30551.2180 -163.5791 -100.1985
TCL: Running FEP window  10: Lambda1 0.5499999999999996 Lambda2 0.4999999999999996 [dLambda -0.04999999999999999]
TCL: Setting parameter firsttimestep to 0
TCL: Setting parameter alchLambda to 0.5499999999999996
Info: NONBONDED TABLE R-SQUARED SPACING: 0.0625
Info: NONBONDED TABLE SIZE: 705 POINTS
TCL: Setting parameter alchLambda2 to 0.4999999999999996
Info: NONBONDED TABLE R-SQUARED SPACING: 0.0625
Info: NONBONDED TABLE SIZE: 705 POINTS
TCL: Running for 1500000 steps
ETITLE: TS BOND ANGLE DIHED IMPRP ELECT VDW BOUNDARY MISC KINETIC TOTAL TEMP POTENTIAL TOTALAVG TEMPAVG PRESSURE GPRESSURE VOLUME PRESSAVG GPRESSAVG
ENERGY: 0 2.2440 6.8767 10.1224 0.0000 -10713.8729 1411.4286 0.0000 0.0000 1815.5894 -7467.6116 305.2610 -9283.2010 -7467.6116 305.2610 -1.1585 102.0661 30551.2180 -1.1585 102.0661
ENERGY: 300000 10.9761 8.9139 8.2090 0.0000 -10733.7843 1450.7526 0.0000 0.0000 1736.0779 -7518.8548 291.8925 -9254.9327 -7512.8951 299.1974 -17.3229 11.4288 30783.5874 49.1101 87.6909
ENERGY: 600000 6.0419 8.4542 7.6629 0.0000 -10697.9841 1364.5458 0.0000 0.0000 1756.9086 -7554.3706 295.3948 -9311.2792 -7520.8716 299.7438 -862.1162 -836.3185 31344.5662 55.2765 88.6192
ENERGY: 900000 3.0102 12.1488 7.9331 0.0000 -10760.6305 1441.9117 0.0000 0.0000 1763.8213 -7531.8055 296.5571 -9295.6268 -7524.6516 299.6573 -12.4990 3.7356 30808.8775 25.2410 63.0380
ENERGY: 1200000 3.8197 10.8357 10.2504 0.0000 -10861.4215 1492.5684 0.0000 0.0000 1807.9532 -7535.9940 303.9771 -9343.9472 -7523.4106 300.3025 191.5061 224.6280 30983.9387 69.3534 110.8142
ENERGY: 1500000 2.9023 18.2918 8.7659 0.0000 -10616.9212 1378.4785 0.0000 0.0000 1763.2622 -7445.2204 296.4630 -9208.4826 -7535.7829 299.2990 -292.7615 -232.9312 31080.0484 112.2897 156.3610
TCL: Running FEP window  11: Lambda1 0.4999999999999996 Lambda2 0.4499999999999996 [dLambda -0.04999999999999999]
TCL: Setting parameter firsttimestep to 0
TCL: Setting parameter alchLambda to 0.4999999999999996
Info: NONBONDED TABLE R-SQUARED SPACING: 0.0625
Info: NONBONDED TABLE SIZE: 705 POINTS
TCL: Setting parameter alchLambda2 to 0.4499999999999996
Info: NONBONDED TABLE R-SQUARED SPACING: 0.0625
Info: NONBONDED TABLE SIZE: 705 POINTS
TCL: Running for 1500000 steps
ETITLE: TS BOND ANGLE DIHED IMPRP ELECT VDW BOUNDARY MISC KINETIC TOTAL TEMP POTENTIAL TOTALAVG TEMPAVG PRESSURE GPRESSURE VOLUME PRESSAVG GPRESSAVG
ENERGY: 0 2.9023 18.2918 8.7659 0.0000 -10616.6080 1379.0974 0.0000 0.0000 1762.3812 -7445.1693 296.3149 -9207.5505 -7445.1693 296.3149 -315.5667 -234.8082 31080.0484 -315.5667 -234.8082
ENERGY: 300000 10.4131 9.0440 9.6290 0.0000 -10906.7268 1525.1956 0.0000 0.0000 1842.9511 -7509.4940 309.8614 -9352.4451 -7502.5410 300.6205 741.0491 764.0450 30380.2529 -49.8129 0.8365
ENERGY: 600000 4.1627 10.7472 8.8120 0.0000 -10763.8552 1375.2840 0.0000 0.0000 1793.3632 -7571.4861 301.5240 -9364.8493 -7525.2373 300.5565 -519.8845 -457.4451 30751.8754 75.3677 131.0290
ENERGY: 900000 2.1561 8.5771 9.7117 0.0000 -10738.2068 1400.9094 0.0000 0.0000 1754.8963 -7561.9561 295.0565 -9316.8525 -7535.3687 299.5643 -586.0283 -493.3231 30852.8414 -148.0873 -90.4382
ENERGY: 1200000 5.0026 13.9611 9.1264 0.0000 -10787.1997 1462.5884 0.0000 0.0000 1768.7859 -7527.7353 297.3918 -9296.5212 -7539.7007 299.8211 56.2750 90.5872 30812.8245 -75.7512 -27.3617
ENERGY: 1500000 2.0683 7.6329 8.9325 0.0000 -10882.9399 1469.6235 0.0000 0.0000 1814.2908 -7580.3918 305.0427 -9394.6826 -7538.4873 300.3458 -89.2329 -32.9466 30701.7454 -121.2292 -73.3443
TCL: Running FEP window  12: Lambda1 0.4499999999999996 Lambda2 0.39999999999999963 [dLambda -0.04999999999999999]
TCL: Setting parameter firsttimestep to 0
TCL: Setting parameter alchLambda to 0.4499999999999996
Info: NONBONDED TABLE R-SQUARED SPACING: 0.0625
Info: NONBONDED TABLE SIZE: 705 POINTS
TCL: Setting parameter alchLambda2 to 0.39999999999999963
Info: NONBONDED TABLE R-SQUARED SPACING: 0.0625
Info: NONBONDED TABLE SIZE: 705 POINTS
TCL: Running for 1500000 steps
ETITLE: TS BOND ANGLE DIHED IMPRP ELECT VDW BOUNDARY MISC KINETIC TOTAL TEMP POTENTIAL TOTALAVG TEMPAVG PRESSURE GPRESSURE VOLUME PRESSAVG GPRESSAVG
ENERGY: 0 2.0683 7.6329 8.9325 0.0000 -10882.9381 1469.8945 0.0000 0.0000 1813.4035 -7581.0065 304.8935 -9394.4100 -7581.0065 304.8935 -113.9906 -40.1305 30701.7454 -113.9906 -40.1305
ENERGY: 300000 2.5558 9.3701 9.7868 0.0000 -10766.4492 1429.4806 0.0000 0.0000 1762.2657 -7552.9903 296.2955 -9315.2560 -7564.9937 303.1743 -10.4952 122.8739 30350.8064 17.3622 88.1388
ENERGY: 600000 3.5442 10.0568 10.7278 0.0000 -10878.2751 1511.9587 0.0000 0.0000 1797.5706 -7544.4169 302.2314 -9341.9875 -7556.4782 302.1279 677.1173 767.7725 30299.4598 -88.0720 -22.7844
ENERGY: 900000 2.6765 11.8588 9.8877 0.0000 -10943.7912 1554.7817 0.0000 0.0000 1786.3997 -7578.1869 300.3532 -9364.5866 -7551.0788 301.0577 677.8645 766.3791 30688.2136 -81.9188 -23.4665
ENERGY: 1200000 4.3850 6.0517 9.5000 0.0000 -10859.4609 1464.4545 0.0000 0.0000 1750.7648 -7624.3050 294.3618 -9375.0698 -7564.0115 299.3826 58.8374 154.5997 30347.2671 9.4132 71.6877
ENERGY: 1500000 4.5697 9.2170 8.7280 0.0000 -10685.5699 1392.4496 0.0000 0.0000 1766.7124 -7503.8933 297.0431 -9270.6056 -7547.1731 299.5373 -356.2176 -251.2681 31049.9877 -25.8181 42.4729
TCL: Running FEP window  13: Lambda1 0.39999999999999963 Lambda2 0.34999999999999964 [dLambda -0.04999999999999999]
TCL: Setting parameter firsttimestep to 0
TCL: Setting parameter alchLambda to 0.39999999999999963
Info: NONBONDED TABLE R-SQUARED SPACING: 0.0625
Info: NONBONDED TABLE SIZE: 705 POINTS
TCL: Setting parameter alchLambda2 to 0.34999999999999964
Info: NONBONDED TABLE R-SQUARED SPACING: 0.0625
Info: NONBONDED TABLE SIZE: 705 POINTS
TCL: Running for 1500000 steps
ETITLE: TS BOND ANGLE DIHED IMPRP ELECT VDW BOUNDARY MISC KINETIC TOTAL TEMP POTENTIAL TOTALAVG TEMPAVG PRESSURE GPRESSURE VOLUME PRESSAVG GPRESSAVG
ENERGY: 0 4.5697 9.2170 8.7280 0.0000 -10685.5703 1393.1932 0.0000 0.0000 1765.8465 -7504.0158 296.8976 -9269.8624 -7504.0158 296.8976 -338.1504 -251.1822 31049.9877 -338.1504 -251.1822
ENERGY: 300000 4.9624 7.0267 10.9410 0.0000 -10863.2215 1481.5591 0.0000 0.0000 1775.5080 -7583.2242 298.5220 -9358.7322 -7528.6655 296.6748 468.3375 521.1152 30159.8552 -154.5039 -97.0198
ENERGY: 600000 6.4389 5.1624 10.7091 0.0000 -10859.9262 1432.7742 0.0000 0.0000 1886.3574 -7518.4841 317.1595 -9404.8416 -7524.2157 300.6963 -584.9800 -456.4370 30920.6464 -235.5914 -162.0511
ENERGY: 900000 3.7622 12.0544 9.9109 0.0000 -10833.8480 1483.4630 0.0000 0.0000 1771.7432 -7552.9145 297.8890 -9324.6577 -7527.3878 299.7081 396.7378 448.8143 30638.1093 -11.8007 51.8426
ENERGY: 1200000 3.3049 10.6048 9.2398 0.0000 -10758.4733 1418.7038 0.0000 0.0000 1858.8755 -7457.7445 312.5388 -9316.6200 -7516.6078 301.0170 -153.0562 -122.3372 30848.6104 16.9439 81.5310
ENERGY: 1500000 4.6023 10.1044 8.5810 0.0000 -10822.3447 1492.4953 0.0000 0.0000 1753.7080 -7552.8538 294.8567 -9306.5617 -7527.0199 299.9347 30.6021 65.0851 30975.8490 5.3072 66.5545
TCL: Running FEP window  14: Lambda1 0.34999999999999964 Lambda2 0.29999999999999966 [dLambda -0.04999999999999999]
TCL: Setting parameter firsttimestep to 0
TCL: Setting parameter alchLambda to 0.34999999999999964
Info: NONBONDED TABLE R-SQUARED SPACING: 0.0625
Info: NONBONDED TABLE SIZE: 705 POINTS
TCL: Setting parameter alchLambda2 to 0.29999999999999966
Info: NONBONDED TABLE R-SQUARED SPACING: 0.0625
Info: NONBONDED TABLE SIZE: 705 POINTS
TCL: Running for 1500000 steps
ETITLE: TS BOND ANGLE DIHED IMPRP ELECT VDW BOUNDARY MISC KINETIC TOTAL TEMP POTENTIAL TOTALAVG TEMPAVG PRESSURE GPRESSURE VOLUME PRESSAVG GPRESSAVG
ENERGY: 0 4.6023 10.1044 8.5810 0.0000 -10822.3453 1492.9176 0.0000 0.0000 1752.8404 -7553.2996 294.7108 -9306.1400 -7553.2996 294.7108 -20.3007 59.9371 30975.8490 -20.3007 59.9371
ENERGY: 300000 4.4119 11.4774 8.9049 0.0000 -10676.3025 1352.7073 0.0000 0.0000 1768.5699 -7530.2312 297.3554 -9298.8010 -7521.9913 298.8843 -768.8857 -682.0504 30645.9280 56.1447 111.8047
ENERGY: 600000 1.5582 10.9859 8.5251 0.0000 -10763.2431 1427.0936 0.0000 0.0000 1793.3298 -7521.7505 301.5184 -9315.0802 -7539.0510 299.5170 -98.1617 -83.8088 30630.6128 -34.6861 16.3496
ENERGY: 900000 2.3920 14.9811 8.0963 0.0000 -10842.8230 1448.9619 0.0000 0.0000 1798.9437 -7569.4480 302.4623 -9368.3917 -7536.2721 299.0055 -112.1480 -127.9259 30892.7852 25.4679 72.5366
ENERGY: 1200000 6.0592 6.6325 8.5753 0.0000 -10846.5213 1528.5887 0.0000 0.0000 1801.8330 -7494.8325 302.9481 -9296.6655 -7538.0999 299.3050 626.3948 801.1517 30642.7346 40.6374 101.9316
ENERGY: 1500000 4.5605 12.1370 8.4037 0.0000 -10817.7713 1519.6267 0.0000 0.0000 1805.0135 -7468.0298 303.4828 -9273.0434 -7539.5713 299.4270 628.3557 700.7990 30804.0584 127.9716 186.1582
TCL: Running FEP window  15: Lambda1 0.29999999999999966 Lambda2 0.24999999999999967 [dLambda -0.04999999999999999]
TCL: Setting parameter firsttimestep to 0
TCL: Setting parameter alchLambda to 0.29999999999999966
Info: NONBONDED TABLE R-SQUARED SPACING: 0.0625
Info: NONBONDED TABLE SIZE: 705 POINTS
TCL: Setting parameter alchLambda2 to 0.24999999999999967
Info: NONBONDED TABLE R-SQUARED SPACING: 0.0625
Info: NONBONDED TABLE SIZE: 705 POINTS
TCL: Running for 1500000 steps
ETITLE: TS BOND ANGLE DIHED IMPRP ELECT VDW BOUNDARY MISC KINETIC TOTAL TEMP POTENTIAL TOTALAVG TEMPAVG PRESSURE GPRESSURE VOLUME PRESSAVG GPRESSAVG
ENERGY: 0 4.5605 12.1370 8.4037 0.0000 -10817.7704 1519.7906 0.0000 0.0000 1804.1503 -7468.7283 303.3377 -9272.8785 -7468.7283 303.3377 612.7266 696.6883 30804.0584 612.7266 696.6883
ENERGY: 300000 3.7759 11.6104 7.7790 0.0000 -10680.2865 1441.1321 0.0000 0.0000 1816.1974 -7399.7917 305.3632 -9215.9890 -7487.4210 302.5485 94.5348 198.5709 30818.9328 206.6073 278.4587
ENERGY: 600000 2.3248 8.2851 9.1684 0.0000 -10803.0966 1488.5339 0.0000 0.0000 1794.8067 -7499.9777 301.7667 -9294.7844 -7499.8894 300.2657 433.3765 579.2262 30378.5570 114.6433 203.5753
ENERGY: 900000 2.7252 7.0846 8.8697 0.0000 -10725.1349 1391.4821 0.0000 0.0000 1755.1554 -7559.8178 295.1000 -9314.9733 -7508.9871 300.1154 -437.1985 -329.4970 30662.8987 59.3636 142.0483
ENERGY: 1200000 4.1369 9.4868 8.5647 0.0000 -10731.9535 1398.9069 0.0000 0.0000 1793.6864 -7517.1718 301.5784 -9310.8582 -7512.3878 300.2029 -379.7670 -375.2483 31074.8165 -91.7102 -16.7722
ENERGY: 1500000 3.3528 11.0142 9.1794 0.0000 -10925.3537 1532.4005 0.0000 0.0000 1830.7341 -7538.6727 307.8073 -9369.4068 -7520.6878 300.8558 484.7202 554.0588 30726.3014 24.1839 91.9306
TCL: Running FEP window  16: Lambda1 0.24999999999999967 Lambda2 0.19999999999999968 [dLambda -0.04999999999999999]
TCL: Setting parameter firsttimestep to 0
TCL: Setting parameter alchLambda to 0.24999999999999967
Info: NONBONDED TABLE R-SQUARED SPACING: 0.0625
Info: NONBONDED TABLE SIZE: 705 POINTS
TCL: Setting parameter alchLambda2 to 0.19999999999999968
Info: NONBONDED TABLE R-SQUARED SPACING: 0.0625
Info: NONBONDED TABLE SIZE: 705 POINTS
TCL: Running for 1500000 steps
ETITLE: TS BOND ANGLE DIHED IMPRP ELECT VDW BOUNDARY MISC KINETIC TOTAL TEMP POTENTIAL TOTALAVG TEMPAVG PRESSURE GPRESSURE VOLUME PRESSAVG GPRESSAVG
ENERGY: 0 3.3528 11.0142 9.1794 0.0000 -10925.3524 1532.9568 0.0000 0.0000 1829.8453 -7539.0038 307.6579 -9368.8492 -7539.0038 307.6579 467.8143 551.1413 30726.3014 467.8143 551.1413
ENERGY: 300000 4.4410 14.0099 8.2651 0.0000 -10837.4971 1446.5903 0.0000 0.0000 1768.4202 -7595.7706 297.3303 -9364.1908 -7560.5560 299.5143 -241.3791 -232.4481 30495.3259 82.9146 135.6476
ENERGY: 600000 1.7200 9.6682 8.4537 0.0000 -10734.9744 1479.2202 0.0000 0.0000 1803.5371 -7432.3752 303.2346 -9235.9123 -7549.8928 299.0014 221.9831 272.0745 31171.0924 102.7054 179.4740
ENERGY: 900000 5.5474 6.4415 8.8973 0.0000 -10850.2073 1437.8934 0.0000 0.0000 1826.9036 -7564.5242 307.1633 -9391.4277 -7559.7139 299.5398 -319.6060 -276.9572 30375.3952 169.0569 242.3120
ENERGY: 1200000 2.4993 11.6556 10.4005 0.0000 -10742.2236 1392.9850 0.0000 0.0000 1769.1678 -7555.5154 297.4560 -9324.6832 -7547.7016 300.5668 -412.1610 -333.3271 30513.1145 20.4665 92.6985
ENERGY: 1500000 2.4162 11.6521 7.9495 0.0000 -10786.5385 1478.9468 0.0000 0.0000 1822.4124 -7463.1614 306.4082 -9285.5738 -7546.9063 300.7757 396.5744 395.5786 30668.2269 -18.4906 49.3261
TCL: Running FEP window  17: Lambda1 0.19999999999999968 Lambda2 0.1499999999999997 [dLambda -0.04999999999999999]
TCL: Setting parameter firsttimestep to 0
TCL: Setting parameter alchLambda to 0.19999999999999968
Info: NONBONDED TABLE R-SQUARED SPACING: 0.0625
Info: NONBONDED TABLE SIZE: 705 POINTS
TCL: Setting parameter alchLambda2 to 0.1499999999999997
Info: NONBONDED TABLE R-SQUARED SPACING: 0.0625
Info: NONBONDED TABLE SIZE: 705 POINTS
TCL: Running for 1500000 steps
ETITLE: TS BOND ANGLE DIHED IMPRP ELECT VDW BOUNDARY MISC KINETIC TOTAL TEMP POTENTIAL TOTALAVG TEMPAVG PRESSURE GPRESSURE VOLUME PRESSAVG GPRESSAVG
ENERGY: 0 2.4162 11.6521 7.9495 0.0000 -10786.5404 1479.4785 0.0000 0.0000 1821.5133 -7463.5307 306.2570 -9285.0440 -7463.5307 306.2570 319.5019 391.6172 30668.2269 319.5019 391.6172
ENERGY: 300000 2.4229 8.4171 9.7991 0.0000 -10746.2212 1415.6811 0.0000 0.0000 1802.9519 -7506.9490 303.1362 -9309.9009 -7507.7465 305.0974 -151.1477 -123.6623 30551.7055 -52.9177 5.8283
ENERGY: 600000 5.7504 8.2471 9.3158 0.0000 -10934.8546 1535.7677 0.0000 0.0000 1763.6279 -7612.1456 296.5245 -9375.7735 -7531.8838 303.5365 621.7123 679.6853 30547.6328 184.9507 247.5883
ENERGY: 900000 7.9218 9.0882 8.8003 0.0000 -10916.0666 1536.3161 0.0000 0.0000 1830.8847 -7523.0554 307.8326 -9353.9401 -7538.7122 302.8277 519.4472 576.6918 30580.2232 218.2265 285.7200
ENERGY: 1200000 9.2660 11.0745 8.6397 0.0000 -10898.4413 1525.3904 0.0000 0.0000 1823.6470 -7520.4237 306.6157 -9344.0707 -7536.7384 303.3662 546.2998 646.4636 30440.1633 150.8146 225.1479
ENERGY: 1500000 2.3721 11.4164 7.7573 0.0000 -10986.8385 1562.5800 0.0000 0.0000 1813.3670 -7589.3457 304.8873 -9402.7127 -7536.7454 303.4098 986.4240 1041.9942 29888.4360 139.5403 213.2441
TCL: Running FEP window  18: Lambda1 0.1499999999999997 Lambda2 0.09999999999999969 [dLambda -0.05 ]
TCL: Setting parameter firsttimestep to 0
TCL: Setting parameter alchLambda to 0.1499999999999997
Info: NONBONDED TABLE R-SQUARED SPACING: 0.0625
Info: NONBONDED TABLE SIZE: 705 POINTS
TCL: Setting parameter alchLambda2 to 0.09999999999999969
Info: NONBONDED TABLE R-SQUARED SPACING: 0.0625
Info: NONBONDED TABLE SIZE: 705 POINTS
TCL: Running for 1500000 steps
ETITLE: TS BOND ANGLE DIHED IMPRP ELECT VDW BOUNDARY MISC KINETIC TOTAL TEMP POTENTIAL TOTALAVG TEMPAVG PRESSURE GPRESSURE VOLUME PRESSAVG GPRESSAVG
ENERGY: 0 2.3721 11.4164 7.7573 0.0000 -10986.8407 1563.1206 0.0000 0.0000 1812.4560 -7589.7183 304.7342 -9402.1743 -7589.7183 304.7342 952.4307 1038.3199 29888.4360 952.4307 1038.3199
ENERGY: 300000 1.7013 14.7644 8.8968 0.0000 -10752.1174 1437.2563 0.0000 0.0000 1802.6309 -7486.8677 303.0822 -9289.4986 -7540.4426 300.7019 49.6575 129.9796 30666.9911 99.4861 166.4804
ENERGY: 600000 7.1247 10.8784 10.4333 0.0000 -10777.3774 1417.5696 0.0000 0.0000 1866.9654 -7464.4060 313.8990 -9331.3714 -7516.4749 302.3505 -12.8837 103.7108 30589.5173 278.0115 362.7129
ENERGY: 900000 7.9070 7.5465 10.0413 0.0000 -10692.3845 1327.6970 0.0000 0.0000 1753.9813 -7585.2115 294.9026 -9339.1928 -7525.4918 300.1611 -1295.2538 -1279.7287 31150.8299 -44.8951 26.8019
ENERGY: 1200000 3.8681 5.8163 9.5042 0.0000 -10770.0482 1396.3232 0.0000 0.0000 1817.8829 -7536.6535 305.6466 -9354.5364 -7532.4051 300.0253 -575.4061 -512.2458 30788.4653 -57.1443 15.8309
ENERGY: 1500000 4.8914 8.8525 9.9761 0.0000 -10829.3285 1458.2149 0.0000 0.0000 1788.4006 -7558.9931 300.6897 -9347.3937 -7528.9156 300.7947 32.5550 67.0529 30460.4820 13.8149 80.2733
TCL: Running FEP window  19: Lambda1 0.09999999999999969 Lambda2 0.049999999999999684 [dLambda -0.05 ]
TCL: Setting parameter firsttimestep to 0
TCL: Setting parameter alchLambda to 0.09999999999999969
Info: NONBONDED TABLE R-SQUARED SPACING: 0.0625
Info: NONBONDED TABLE SIZE: 705 POINTS
TCL: Setting parameter alchLambda2 to 0.049999999999999684
Info: NONBONDED TABLE R-SQUARED SPACING: 0.0625
Info: NONBONDED TABLE SIZE: 705 POINTS
TCL: Running for 1500000 steps
ETITLE: TS BOND ANGLE DIHED IMPRP ELECT VDW BOUNDARY MISC KINETIC TOTAL TEMP POTENTIAL TOTALAVG TEMPAVG PRESSURE GPRESSURE VOLUME PRESSAVG GPRESSAVG
ENERGY: 0 4.8914 8.8525 9.9761 0.0000 -10829.3286 1457.5667 0.0000 0.0000 1787.5315 -7560.5104 300.5435 -9348.0419 -7560.5104 300.5435 -10.7167 59.6502 30460.4820 -10.7167 59.6502
ENERGY: 300000 1.6883 7.8336 8.0020 0.0000 -10751.0974 1468.4744 0.0000 0.0000 1755.2484 -7509.8509 295.1157 -9265.0993 -7544.2217 300.0542 136.0408 229.9093 30839.9994 -68.8110 -17.0747
ENERGY: 600000 5.6152 9.1161 9.6707 0.0000 -10768.5747 1456.8588 0.0000 0.0000 1793.3359 -7493.9780 301.5194 -9287.3139 -7525.2385 298.0101 -35.9269 -24.5976 30709.7827 -25.0547 20.6574
ENERGY: 900000 3.3938 14.5388 7.9795 0.0000 -10709.8604 1389.3056 0.0000 0.0000 1812.6109 -7482.0319 304.7602 -9294.6428 -7521.8324 299.7996 -342.6289 -253.7115 30876.7998 -92.4187 -41.4415
ENERGY: 1200000 3.1055 10.5235 9.2592 0.0000 -10772.1967 1395.6860 0.0000 0.0000 1756.1797 -7597.4429 295.2722 -9353.6226 -7533.7943 299.0524 -506.6799 -400.1008 30454.2341 -75.5956 -19.4911
ENERGY: 1500000 5.7225 6.1327 8.7937 0.0000 -10786.2528 1446.1846 0.0000 0.0000 1765.6750 -7553.7444 296.8687 -9319.4194 -7533.2614 299.1366 -27.0760 48.6280 30637.5577 -111.0212 -54.0212
TCL: Running FEP window  20: Lambda1 0.049999999999999684 Lambda2 0.0    [dLambda -0.049999999999999684]
TCL: Setting parameter firsttimestep to 0
TCL: Setting parameter alchLambda to 0.049999999999999684
Info: NONBONDED TABLE R-SQUARED SPACING: 0.0625
Info: NONBONDED TABLE SIZE: 705 POINTS
TCL: Setting parameter alchLambda2 to 0.0
Info: NONBONDED TABLE R-SQUARED SPACING: 0.0625
Info: NONBONDED TABLE SIZE: 705 POINTS
TCL: Running for 1500000 steps
ETITLE: TS BOND ANGLE DIHED IMPRP ELECT VDW BOUNDARY MISC KINETIC TOTAL TEMP POTENTIAL TOTALAVG TEMPAVG PRESSURE GPRESSURE VOLUME PRESSAVG GPRESSAVG
ENERGY: 0 5.7225 6.1327 8.7937 0.0000 -10786.2537 1446.1057 0.0000 0.0000 1764.7845 -7554.7147 296.7190 -9319.4992 -7554.7147 296.7190 -32.2238 43.7586 30637.5577 -32.2238 43.7586
ENERGY: 300000 1.3204 7.4389 9.1489 0.0000 -10693.8609 1375.7737 0.0000 0.0000 1813.6659 -7486.5131 304.9376 -9300.1789 -7559.3991 299.4637 -631.8484 -500.6651 30583.5972 -93.1613 -27.9172
ENERGY: 600000 2.2403 9.2228 9.3659 0.0000 -10721.1091 1424.9232 0.0000 0.0000 1785.7438 -7489.6132 300.2430 -9275.3570 -7549.7036 299.6765 -108.9640 -64.1875 30693.5753 -96.4705 -37.0265
ENERGY: 900000 2.2675 9.8080 11.5091 0.0000 -10711.6843 1382.7200 0.0000 0.0000 1764.0836 -7541.2961 296.6012 -9305.3797 -7555.4030 298.8238 -425.1227 -377.6282 30486.0956 -216.8710 -160.5760
ENERGY: 1200000 2.7395 12.0078 10.6064 0.0000 -10943.5230 1499.7462 0.0000 0.0000 1743.2513 -7675.1719 293.0986 -9418.4232 -7562.1373 299.5635 134.9363 200.0422 30235.1209 -92.3233 -40.4301
ENERGY: 1500000 3.7973 8.1896 9.9478 0.0000 -10937.0415 1547.8601 0.0000 0.0000 1842.0878 -7525.1589 309.7163 -9367.2467 -7556.8989 299.5454 574.7831 626.4636 30695.5000 -19.7491 31.4900
TCL: Exiting due to exit command.
