Info: SIMULATION PARAMETERS:
Info: TIMESTEP               2
Info: NUMBER OF STEPS        0
Info: STEPS PER CYCLE        10
Info: PERIODIC CELL BASIS 1  30.8972 0 0
Info: PERIODIC CELL BASIS 2  0 31.5976 0
Info: PERIODIC CELL BASIS 3  0 0 31.6656
Info: PERIODIC CELL CENTER   0 0 0
Info: WRAPPING WATERS AROUND PERIODIC BOUNDARIES ON OUTPUT.
Info: WRAPPING ALL CLUSTERS AROUND PERIODIC BOUNDARIES ON OUTPUT.
Info: FIRST LDB TIMESTEP     50
Info: LAST LDB TIMESTEP     -1
Info: HOM BACKGROUND SCALING 1
Info: PME BACKGROUND SCALING 1
Info: MIN ATOMS PER PATCH    40
Info: EMPTY PATCH LOAD       40 ATOMS
Info: VELOCITY FILE          mobley_6911232_equil.vel
Info: CENTER OF MASS MOVING INITIALLY? NO
Info: DIELECTRIC             1
Info: EXCLUDE                SCALED ONE-FOUR
Info: 1-4 ELECTROSTATICS SCALED BY 0.833333
Info: MODIFIED 1-4 VDW PARAMETERS WILL BE USED
Info: DCD FILENAME           mobley_6911232_prod.dcd
Info: DCD FREQUENCY          100000
Info: DCD FIRST STEP         100000
Info: DCD FILE WILL CONTAIN UNIT CELL DATA
Info: XST FILENAME           mobley_6911232_prod.xst
Info: XST FREQUENCY          100000
Info: NO VELOCITY DCD OUTPUT
Info: NO FORCE DCD OUTPUT
Info: OUTPUT FILENAME        mobley_6911232_prod
Info: BINARY OUTPUT FILES WILL BE USED
Info: RESTART FILENAME       mobley_6911232_prod.restart
Info: RESTART FREQUENCY      100000
Info: BINARY RESTART FILES WILL BE USED
Info: CUTOFF                 9
Info: PAIRLIST DISTANCE      11
Info: PAIRLIST SHRINK RATE   0.01
Info: PAIRLIST GROW RATE     0.01
Info: PAIRLIST TRIGGER       0.3
Info: PAIRLISTS PER CYCLE    2
Info: PAIRLISTS ENABLED
Info: MARGIN                 2
Info: HYDROGEN GROUP CUTOFF  2.5
Info: PATCH DIMENSION        15.5
Info: ENERGY OUTPUT STEPS    100000
Info: ENERGY EVALUATION STEPS    100000
Info: OUTPUT ENERGY PRECISION 4
Info: CROSSTERM ENERGY INCLUDED IN DIHEDRAL
Info: TIMING OUTPUT STEPS    1000000
Info: PRESSURE OUTPUT STEPS  100000
Info: ALCHEMICAL FEP ON
Info: FEP CURRENT LAMBDA VALUE     0
Info: FEP COMPARISON LAMBDA VALUE  0.05
Info: FEP INTRA-ALCHEMICAL NON-BONDED INTERACTIONS WILL BE RETAINED
Info: FEP INTRA-ALCHEMICAL BONDED INTERACTIONS WILL BE RETAINED
Info: FEP VDW SHIFTING COEFFICIENT 5
Info: FEP ELEC. ACTIVE FOR ANNIHILATED PARTICLES BETWEEN LAMBDA = 0 AND LAMBDA = 0.5
Info: FEP ELEC. ACTIVE FOR EXNIHILATED PARTICLES BETWEEN LAMBDA = 0.5 AND LAMBDA = 1
Info: FEP VDW ACTIVE FOR ANNIHILATED PARTICLES BETWEEN LAMBDA = 0 AND LAMBDA = 1
Info: FEP VDW ACTIVE FOR EXNIHILATED PARTICLES BETWEEN LAMBDA = 0 AND LAMBDA = 1
Info: FEP BOND ACTIVE FOR ANNIHILATED PARTICLES BETWEEN LAMBDA = 1 AND LAMBDA = 1
Info: FEP BOND ACTIVE FOR EXNIHILATED PARTICLES BETWEEN LAMBDA = 0 AND LAMBDA = 0
Info: LANGEVIN DYNAMICS ACTIVE
Info: LANGEVIN TEMPERATURE   300
Info: LANGEVIN USING BBK INTEGRATOR
Info: LANGEVIN DAMPING COEFFICIENT IS 1 INVERSE PS
Info: LANGEVIN DYNAMICS APPLIED TO HYDROGENS
Info: LANGEVIN PISTON PRESSURE CONTROL ACTIVE
Info:        TARGET PRESSURE IS 1.01325 BAR
Info:     OSCILLATION PERIOD IS 50 FS
Info:             DECAY TIME IS 25 FS
Info:     PISTON TEMPERATURE IS 300 K
Info:       PRESSURE CONTROL IS GROUP-BASED
Info:    INITIAL STRAIN RATE IS 0.000213767 0.000213767 0.000213767
Info:       CELL FLUCTUATION IS ISOTROPIC
Info: PARTICLE MESH EWALD (PME) ACTIVE
Info: PME TOLERANCE               1e-06
Info: PME EWALD COEFFICIENT       0.348832
Info: PME INTERPOLATION ORDER     4
Info: PME GRID DIMENSIONS         32 32 32
Info: PME MAXIMUM GRID SPACING    1
Info: PME CALCULATION WILL BE PERFORMED ON GPU
Info: FULL ELECTROSTATIC EVALUATION FREQUENCY      2
Info: USING VERLET I (r-RESPA) MTS SCHEME.
Info: C1 SPLITTING OF LONG RANGE ELECTROSTATICS
Info: PLACING ATOMS IN PATCHES BY HYDROGEN GROUPS
Info: RIGID BONDS TO HYDROGEN : ALL
Info:         ERROR TOLERANCE : 1e-08
Info:          MAX ITERATIONS : 100
Info: RIGID WATER USING SETTLE ALGORITHM
Info: RANDOM NUMBER SEED     1743724967
Info: USE HYDROGEN BONDS?    NO
Info: Using AMBER format force field!
Info: AMBER PARM FILE        mobley_6911232.prmtop
Info: COORDINATE PDB         mobley_6911232.pdb
Info: Exclusions will be read from PARM file!
Info: SCNB (VDW SCALING)     2
Info: USING ARITHMETIC MEAN TO COMBINE L-J SIGMA PARAMETERS
Info: BINARY COORDINATES     mobley_6911232_equil.coor
Info: SUMMARY OF PARAMETERS:
Info: 6 BONDS
Info: 7 ANGLES
Info:   7 HARMONIC
Info:   0 COSINE-BASED
Info: 6 DIHEDRAL
Info: 0 IMPROPER
Info: 0 CROSSTERM
Info: 0 VDW
Info: 21 VDW_PAIRS
Info: 0 NBTHOLE_PAIRS
Info: To read alchdata from file: mobley_6911232.pdb
Info: To read alchflag data from column: 5
Info: STRUCTURE SUMMARY:
Info: 3000 ATOMS
Info: 2999 BONDS
Info: 19 ANGLES
Info: 19 DIHEDRALS
Info: 0 IMPROPERS
Info: 0 CROSSTERMS
Info: 3033 EXCLUSIONS
Info: 2996 RIGID BONDS
Info: ALCH: 0 ATOMS TO DISAPPEAR IN FINAL STATE
Info: ALCH: 12 ATOMS TO APPEAR IN FINAL STATE
Info: 6004 DEGREES OF FREEDOM
Info: 1000 HYDROGEN GROUPS
Info: 4 ATOMS IN LARGEST HYDROGEN GROUP
Info: 1000 MIGRATION GROUPS
Info: 4 ATOMS IN LARGEST MIGRATION GROUP
Info: TOTAL MASS = 18004 amu
Info: TOTAL CHARGE = 0.000200026 e
Info: MASS DENSITY = 0.967095 g/cm^3
Info: ATOM DENSITY = 0.0970423 atoms/A^3
Info: ADDED 0 IMPLICIT EXCLUSIONS
Info: NONBONDED TABLE R-SQUARED SPACING: 0.0625
Info: NONBONDED TABLE SIZE: 705 POINTS
Info: REMOVING COM VELOCITY 0.149039 0.109112 0.287639
Info: Use 3D box decompostion in PME FFT.
Info: Updated CUDA force table with 4096 elements.
Info: Updated CUDA LJ table with 6 x 6 elements.
Info: Found 15 unique exclusion lists needing 28 bytes
TCL: Running for 1500000 steps
ETITLE: TS BOND ANGLE DIHED IMPRP ELECT VDW BOUNDARY MISC KINETIC TOTAL TEMP POTENTIAL TOTALAVG TEMPAVG PRESSURE GPRESSURE VOLUME PRESSAVG GPRESSAVG
ENERGY: 0 3.3317 4.7169 1.3122 0.0000 -10876.5196 1426.0946 0.0000 0.0000 1782.5520 -7658.5122 298.8078 -9441.0642 -7658.5122 298.8078 -528.3407 -460.0527 30914.3432 -528.3407 -460.0527
ENERGY: 300000 1.7327 6.0353 2.2455 0.0000 -11053.6838 1533.5683 0.0000 0.0000 1813.0502 -7697.0518 303.9202 -9510.1020 -7655.9399 302.0961 186.7747 212.1587 30553.7786 -119.6654 -51.3231
ENERGY: 600000 1.3727 7.7396 1.7906 0.0000 -10801.0295 1418.4002 0.0000 0.0000 1869.5132 -7502.2131 313.3850 -9371.7263 -7615.9588 301.7065 -182.1748 -172.0610 30758.6745 -233.0487 -168.3328
ENERGY: 900000 2.7257 7.4493 2.9499 0.0000 -10691.7836 1351.3406 0.0000 0.0000 1746.8062 -7580.5120 292.8157 -9327.3181 -7612.7778 299.5780 -658.3493 -594.8810 30578.4866 -53.1159 7.0317
ENERGY: 1200000 0.3332 5.1521 1.6016 0.0000 -10783.9507 1370.9628 0.0000 0.0000 1837.1013 -7568.7998 307.9518 -9405.9010 -7605.7822 300.1421 -861.1677 -860.5548 31308.6503 -52.0823 -1.0240
ENERGY: 1500000 0.7903 2.5558 0.9059 0.0000 -10904.4070 1478.6972 0.0000 0.0000 1816.7724 -7604.6854 304.5441 -9421.4578 -7607.2081 300.4447 -26.9776 66.5379 30559.2972 -59.1450 4.3436
TCL: Running FEP window   2: Lambda1 0.05   Lambda2 0.1    [dLambda 0.05  ]
TCL: Setting parameter firsttimestep to 0
TCL: Setting parameter alchLambda to 0.05
Info: NONBONDED TABLE R-SQUARED SPACING: 0.0625
Info: NONBONDED TABLE SIZE: 705 POINTS
TCL: Setting parameter alchLambda2 to 0.1
Info: NONBONDED TABLE R-SQUARED SPACING: 0.0625
Info: NONBONDED TABLE SIZE: 705 POINTS
TCL: Running for 1500000 steps
ETITLE: TS BOND ANGLE DIHED IMPRP ELECT VDW BOUNDARY MISC KINETIC TOTAL TEMP POTENTIAL TOTALAVG TEMPAVG PRESSURE GPRESSURE VOLUME PRESSAVG GPRESSAVG
ENERGY: 0 0.7903 2.5558 0.9059 0.0000 -10904.4068 1479.5829 0.0000 0.0000 1815.8888 -7604.6832 304.3960 -9420.5720 -7604.6832 304.3960 -19.7175 67.8507 30559.2972 -19.7175 67.8507
ENERGY: 300000 1.3376 4.1259 1.0082 0.0000 -10765.8936 1418.0531 0.0000 0.0000 1817.9057 -7523.4632 304.7341 -9341.3689 -7586.5224 305.7444 61.5812 97.5896 30618.2925 -175.5252 -112.9753
ENERGY: 600000 1.7220 1.9587 4.4133 0.0000 -10821.2258 1409.7377 0.0000 0.0000 1827.8598 -7575.5343 306.4027 -9403.3941 -7581.7197 305.1054 -571.8201 -484.5953 30973.6908 -203.7572 -131.4147
ENERGY: 900000 0.7400 3.1224 1.5473 0.0000 -10918.9184 1500.9172 0.0000 0.0000 1773.3166 -7639.2749 297.2597 -9412.5915 -7592.6946 302.6992 126.2340 186.6067 30915.2095 -135.6266 -65.1473
ENERGY: 1200000 0.4158 7.6739 1.8518 0.0000 -10886.1613 1467.0066 0.0000 0.0000 1851.8794 -7557.3337 310.4291 -9409.2131 -7601.8651 302.2496 -23.7819 84.1454 30686.2690 -119.6317 -50.8427
ENERGY: 1500000 0.5114 2.4122 1.9334 0.0000 -10831.5532 1460.6971 0.0000 0.0000 1795.8879 -7570.1111 301.0433 -9365.9991 -7600.5750 301.8573 -96.6753 -71.2548 31155.6148 -125.2702 -60.0964
TCL: Running FEP window   3: Lambda1 0.1    Lambda2 0.15000000000000002 [dLambda 0.05000000000000002]
TCL: Setting parameter firsttimestep to 0
TCL: Setting parameter alchLambda to 0.1
Info: NONBONDED TABLE R-SQUARED SPACING: 0.0625
Info: NONBONDED TABLE SIZE: 705 POINTS
TCL: Setting parameter alchLambda2 to 0.15000000000000002
Info: NONBONDED TABLE R-SQUARED SPACING: 0.0625
Info: NONBONDED TABLE SIZE: 705 POINTS
TCL: Running for 1500000 steps
ETITLE: TS BOND ANGLE DIHED IMPRP ELECT VDW BOUNDARY MISC KINETIC TOTAL TEMP POTENTIAL TOTALAVG TEMPAVG PRESSURE GPRESSURE VOLUME PRESSAVG GPRESSAVG
ENERGY: 0 0.5114 2.4122 1.9334 0.0000 -10831.5526 1461.3678 0.0000 0.0000 1794.9622 -7570.3656 300.8881 -9365.3278 -7570.3656 300.8881 -139.1103 -68.2871 31155.6148 -139.1103 -68.2871
ENERGY: 300000 0.1530 6.8412 1.6452 0.0000 -10840.6947 1467.4188 0.0000 0.0000 1784.0333 -7580.6033 299.0561 -9364.6365 -7559.7604 303.5400 173.5187 213.3331 30680.8107 106.0021 176.8308
ENERGY: 600000 0.8563 5.5112 1.3316 0.0000 -10788.5817 1367.9678 0.0000 0.0000 1767.5992 -7645.3155 296.3013 -9412.9147 -7602.4062 301.9281 -614.3791 -607.1286 30626.7147 -17.1064 50.3087
ENERGY: 900000 1.2656 3.2964 1.5592 0.0000 -10862.7117 1465.2048 0.0000 0.0000 1779.1701 -7612.2155 298.2409 -9391.3857 -7612.6426 300.4704 -119.1780 -97.6840 31069.6201 -72.1156 -13.2048
ENERGY: 1200000 0.1130 5.0545 2.8551 0.0000 -10952.5048 1500.6564 0.0000 0.0000 1751.1651 -7692.6607 293.5464 -9443.8258 -7616.7745 300.0424 -238.0578 -139.1543 31281.7900 -10.6515 46.1107
ENERGY: 1500000 0.6170 7.0853 2.4111 0.0000 -10877.9343 1481.1934 0.0000 0.0000 1832.9436 -7553.6838 307.2549 -9386.6274 -7614.8798 300.3745 250.3347 284.3166 30762.9028 75.7034 129.3738
TCL: Running FEP window   4: Lambda1 0.15000000000000002 Lambda2 0.2    [dLambda 0.04999999999999999]
TCL: Setting parameter firsttimestep to 0
TCL: Setting parameter alchLambda to 0.15000000000000002
Info: NONBONDED TABLE R-SQUARED SPACING: 0.0625
Info: NONBONDED TABLE SIZE: 705 POINTS
TCL: Setting parameter alchLambda2 to 0.2
Info: NONBONDED TABLE R-SQUARED SPACING: 0.0625
Info: NONBONDED TABLE SIZE: 705 POINTS
TCL: Running for 1500000 steps
ETITLE: TS BOND ANGLE DIHED IMPRP ELECT VDW BOUNDARY MISC KINETIC TOTAL TEMP POTENTIAL TOTALAVG TEMPAVG PRESSURE GPRESSURE VOLUME PRESSAVG GPRESSAVG
ENERGY: 0 0.6170 7.0853 2.4111 0.0000 -10877.9346 1481.1144 0.0000 0.0000 1832.0653 -7554.6414 307.1077 -9386.7067 -7554.6414 307.1077 213.1444 286.4069 30762.9028 213.1444 286.4069
ENERGY: 300000 1.4621 3.0605 1.3469 0.0000 -10731.7441 1342.2081 0.0000 0.0000 1778.7521 -7604.9144 298.1708 -9383.6665 -7559.5637 307.6795 -1035.0932 -978.5531 31169.4130 -95.7574 -26.4994
ENERGY: 600000 2.0875 4.8096 1.0354 0.0000 -10887.7615 1463.5106 0.0000 0.0000 1766.1015 -7650.2169 296.0502 -9416.3185 -7577.5052 305.4851 185.9278 249.7798 30402.6738 -37.4342 37.2957
ENERGY: 900000 0.3799 8.1207 2.1374 0.0000 -10853.7259 1482.2758 0.0000 0.0000 1753.7435 -7607.0687 293.9786 -9360.8123 -7583.8085 304.0339 334.1243 407.5606 30637.7536 -77.4148 -3.4796
ENERGY: 1200000 0.3322 6.0406 1.3693 0.0000 -10979.5420 1509.1391 0.0000 0.0000 1785.3903 -7677.2706 299.2836 -9462.6608 -7587.6082 303.0722 362.1019 416.1105 30526.2333 -15.2700 59.6709
ENERGY: 1500000 0.9174 7.2592 2.8480 0.0000 -10819.2087 1417.4258 0.0000 0.0000 1777.0434 -7613.7149 297.8844 -9390.7583 -7590.8621 302.8062 -645.1226 -556.6140 31192.3641 -34.3219 35.9407
TCL: Running FEP window   5: Lambda1 0.2    Lambda2 0.25   [dLambda 0.04999999999999999]
TCL: Setting parameter firsttimestep to 0
TCL: Setting parameter alchLambda to 0.2
Info: NONBONDED TABLE R-SQUARED SPACING: 0.0625
Info: NONBONDED TABLE SIZE: 705 POINTS
TCL: Setting parameter alchLambda2 to 0.25
Info: NONBONDED TABLE R-SQUARED SPACING: 0.0625
Info: NONBONDED TABLE SIZE: 705 POINTS
TCL: Running for 1500000 steps
ETITLE: TS BOND ANGLE DIHED IMPRP ELECT VDW BOUNDARY MISC KINETIC TOTAL TEMP POTENTIAL TOTALAVG TEMPAVG PRESSURE GPRESSURE VOLUME PRESSAVG GPRESSAVG
ENERGY: 0 0.9174 7.2592 2.8480 0.0000 -10819.2094 1417.6310 0.0000 0.0000 1776.1820 -7614.3718 297.7400 -9390.5538 -7614.3718 297.7400 -638.2104 -555.3175 31192.3641 -638.2104 -555.3175
ENERGY: 300000 0.3444 4.0636 2.6242 0.0000 -10842.1499 1501.9540 0.0000 0.0000 1780.3272 -7552.8365 298.4348 -9333.1637 -7592.5539 301.2137 592.5499 623.8162 30664.7571 -240.4111 -182.1817
ENERGY: 600000 1.0392 4.9572 1.5925 0.0000 -11039.9974 1582.7166 0.0000 0.0000 1763.4973 -7686.1945 295.6137 -9449.6919 -7618.7877 299.3667 992.6974 1082.2844 30205.6850 -41.7421 28.0863
ENERGY: 900000 0.5869 4.0475 2.3405 0.0000 -10845.8245 1442.1007 0.0000 0.0000 1795.0522 -7601.6966 300.9032 -9396.7489 -7632.2682 299.0475 -153.3222 -121.5537 30991.2358 58.6439 128.5721
ENERGY: 1200000 1.1390 4.0812 1.6129 0.0000 -10929.6246 1498.2380 0.0000 0.0000 1818.3789 -7606.1746 304.8134 -9424.5535 -7630.8845 299.4142 55.4383 222.9900 30693.9224 -62.7176 16.0049
ENERGY: 1500000 0.2209 4.7205 2.6668 0.0000 -11035.8396 1555.0183 0.0000 0.0000 1824.6764 -7648.5367 305.8691 -9473.2131 -7631.8961 300.2872 479.2465 554.2978 30795.4638 -7.0982 72.1750
TCL: Running FEP window   6: Lambda1 0.25   Lambda2 0.3    [dLambda 0.04999999999999999]
TCL: Setting parameter firsttimestep to 0
TCL: Setting parameter alchLambda to 0.25
Info: NONBONDED TABLE R-SQUARED SPACING: 0.0625
Info: NONBONDED TABLE SIZE: 705 POINTS
TCL: Setting parameter alchLambda2 to 0.3
Info: NONBONDED TABLE R-SQUARED SPACING: 0.0625
Info: NONBONDED TABLE SIZE: 705 POINTS
TCL: Running for 1500000 steps
ETITLE: TS BOND ANGLE DIHED IMPRP ELECT VDW BOUNDARY MISC KINETIC TOTAL TEMP POTENTIAL TOTALAVG TEMPAVG PRESSURE GPRESSURE VOLUME PRESSAVG GPRESSAVG
ENERGY: 0 0.2209 4.7205 2.6668 0.0000 -11035.8406 1555.7977 0.0000 0.0000 1823.7634 -7648.6713 305.7160 -9472.4347 -7648.6713 305.7160 475.7788 559.5733 30795.4638 475.7788 559.5733
ENERGY: 300000 0.7289 3.3525 1.3032 0.0000 -10878.3354 1469.9490 0.0000 0.0000 1750.5599 -7652.4419 293.4450 -9403.0018 -7644.5899 301.6204 -251.4327 -194.8832 31288.5526 260.5430 323.6983
ENERGY: 600000 3.0618 5.4109 2.8049 0.0000 -10796.0025 1448.8566 0.0000 0.0000 1766.4417 -7569.4266 296.1072 -9335.8683 -7633.1081 300.3801 -223.3063 -157.4352 31190.0140 66.5242 135.5266
ENERGY: 900000 1.4767 8.1322 1.5584 0.0000 -10924.8046 1511.2691 0.0000 0.0000 1798.2769 -7604.0913 301.4437 -9402.3682 -7619.3962 302.1348 305.3718 384.4221 30722.5222 65.8210 134.6265
ENERGY: 1200000 0.1545 4.1831 1.6349 0.0000 -10989.8974 1534.8057 0.0000 0.0000 1824.6644 -7624.4548 305.8671 -9449.1191 -7604.8100 303.0691 274.8900 302.6991 31129.9381 102.8509 169.8793
ENERGY: 1500000 0.2879 3.5478 1.3429 0.0000 -10788.9902 1389.7707 0.0000 0.0000 1806.7832 -7587.2577 302.8696 -9394.0409 -7602.7281 302.0402 -543.9992 -505.7510 30830.4585 -14.7263 48.7807
TCL: Running FEP window   7: Lambda1 0.3    Lambda2 0.35   [dLambda 0.04999999999999999]
TCL: Setting parameter firsttimestep to 0
TCL: Setting parameter alchLambda to 0.3
Info: NONBONDED TABLE R-SQUARED SPACING: 0.0625
Info: NONBONDED TABLE SIZE: 705 POINTS
TCL: Setting parameter alchLambda2 to 0.35
Info: NONBONDED TABLE R-SQUARED SPACING: 0.0625
Info: NONBONDED TABLE SIZE: 705 POINTS
TCL: Running for 1500000 steps
ETITLE: TS BOND ANGLE DIHED IMPRP ELECT VDW BOUNDARY MISC KINETIC TOTAL TEMP POTENTIAL TOTALAVG TEMPAVG PRESSURE GPRESSURE VOLUME PRESSAVG GPRESSAVG
ENERGY: 0 0.2879 3.5478 1.3429 0.0000 -10788.9889 1390.1063 0.0000 0.0000 1805.9068 -7587.7972 302.7227 -9393.7040 -7587.7972 302.7227 -579.1136 -499.6916 30830.4585 -579.1136 -499.6916
ENERGY: 300000 2.2317 6.4275 2.2355 0.0000 -10961.2846 1528.3843 0.0000 0.0000 1806.1304 -7615.8751 302.7602 -9422.0055 -7592.2826 302.8149 591.9003 632.0728 30516.1397 218.9537 269.2272
ENERGY: 600000 0.7799 3.4748 2.0470 0.0000 -10935.7035 1474.1268 0.0000 0.0000 1807.5332 -7647.7419 302.9954 -9455.2750 -7614.2669 302.0948 148.8072 159.4446 30400.2934 126.1652 176.9727
ENERGY: 900000 1.3187 4.1629 1.3731 0.0000 -10900.8751 1520.3243 0.0000 0.0000 1718.2099 -7655.4863 288.0222 -9373.6962 -7624.0205 300.2002 341.7329 419.7308 30804.4937 119.3342 173.3820
ENERGY: 1200000 0.4887 9.4593 2.5299 0.0000 -10837.1575 1452.8377 0.0000 0.0000 1802.6385 -7569.2034 302.1749 -9371.8418 -7619.9946 300.8036 -103.9843 -56.0460 31022.4294 97.6603 155.8159
ENERGY: 1500000 0.5645 3.2974 1.8982 0.0000 -10827.5800 1417.7348 0.0000 0.0000 1769.0794 -7635.0057 296.5494 -9404.0851 -7625.8172 300.1686 -420.4043 -332.0041 30898.2248 94.0014 157.2733
TCL: Running FEP window   8: Lambda1 0.35   Lambda2 0.39999999999999997 [dLambda 0.04999999999999999]
TCL: Setting parameter firsttimestep to 0
TCL: Setting parameter alchLambda to 0.35
Info: NONBONDED TABLE R-SQUARED SPACING: 0.0625
Info: NONBONDED TABLE SIZE: 705 POINTS
TCL: Setting parameter alchLambda2 to 0.39999999999999997
Info: NONBONDED TABLE R-SQUARED SPACING: 0.0625
Info: NONBONDED TABLE SIZE: 705 POINTS
TCL: Running for 1500000 steps
ETITLE: TS BOND ANGLE DIHED IMPRP ELECT VDW BOUNDARY MISC KINETIC TOTAL TEMP POTENTIAL TOTALAVG TEMPAVG PRESSURE GPRESSURE VOLUME PRESSAVG GPRESSAVG
ENERGY: 0 0.5645 3.2974 1.8982 0.0000 -10827.5804 1417.6844 0.0000 0.0000 1768.1891 -7635.9469 296.4001 -9404.1360 -7635.9469 296.4001 -422.4832 -329.9972 30898.2248 -422.4832 -329.9972
ENERGY: 300000 0.4079 4.2667 1.2277 0.0000 -10814.8521 1431.9989 0.0000 0.0000 1752.4277 -7624.5231 293.7581 -9376.9509 -7645.7042 295.7459 -317.3570 -280.0918 31362.4441 -106.8955 -61.0083
ENERGY: 600000 2.0964 4.6506 1.0132 0.0000 -10861.3935 1459.6024 0.0000 0.0000 1751.7017 -7642.3292 293.6364 -9394.0309 -7644.5536 294.8125 -54.6445 -8.8437 30848.2702 -244.7987 -187.8153
ENERGY: 900000 1.2234 5.2809 2.1621 0.0000 -10988.0612 1527.1573 0.0000 0.0000 1766.4959 -7685.7416 296.1163 -9452.2375 -7648.7341 295.8241 313.2441 420.6408 30370.1665 -150.8716 -90.6704
ENERGY: 1200000 0.4892 1.3205 2.0579 0.0000 -10852.7836 1456.3016 0.0000 0.0000 1801.0193 -7591.5952 301.9034 -9392.6145 -7640.3996 297.4274 -263.9071 -142.7941 31331.4879 -109.5209 -53.8528
ENERGY: 1500000 0.3076 6.7836 1.5128 0.0000 -10879.5465 1458.4947 0.0000 0.0000 1797.7749 -7614.6729 301.3596 -9412.4478 -7635.7748 298.3886 -97.3473 -4.1174 30930.4403 -139.2290 -82.2264
TCL: Running FEP window   9: Lambda1 0.39999999999999997 Lambda2 0.44999999999999996 [dLambda 0.04999999999999999]
TCL: Setting parameter firsttimestep to 0
TCL: Setting parameter alchLambda to 0.39999999999999997
Info: NONBONDED TABLE R-SQUARED SPACING: 0.0625
Info: NONBONDED TABLE SIZE: 705 POINTS
TCL: Setting parameter alchLambda2 to 0.44999999999999996
Info: NONBONDED TABLE R-SQUARED SPACING: 0.0625
Info: NONBONDED TABLE SIZE: 705 POINTS
TCL: Running for 1500000 steps
ETITLE: TS BOND ANGLE DIHED IMPRP ELECT VDW BOUNDARY MISC KINETIC TOTAL TEMP POTENTIAL TOTALAVG TEMPAVG PRESSURE GPRESSURE VOLUME PRESSAVG GPRESSAVG
ENERGY: 0 0.3076 6.7837 1.5128 0.0000 -10879.5479 1458.6878 0.0000 0.0000 1796.8976 -7615.3585 301.2125 -9412.2561 -7615.3585 301.2125 -84.4885 -0.4461 30930.4403 -84.4885 -0.4461
ENERGY: 300000 0.0097 4.8168 1.3365 0.0000 -10762.3536 1478.9131 0.0000 0.0000 1816.4812 -7460.7963 304.4953 -9277.2775 -7596.4784 302.3510 417.3774 459.0986 30836.3532 367.1083 441.9806
ENERGY: 600000 0.8647 4.3400 2.7067 0.0000 -10709.5242 1361.8541 0.0000 0.0000 1836.0868 -7503.6719 307.7818 -9339.7587 -7593.3362 300.3407 -544.9382 -489.5197 30950.3394 119.4443 190.1429
ENERGY: 900000 0.4836 6.1499 2.2486 0.0000 -10898.9741 1508.3868 0.0000 0.0000 1828.7858 -7552.9194 306.5579 -9381.7052 -7605.2050 300.1746 395.8155 493.5088 30815.0287 -3.1590 73.2161
ENERGY: 1200000 1.4848 2.9020 1.1144 0.0000 -10845.7473 1479.8331 0.0000 0.0000 1763.1142 -7597.2988 295.5494 -9360.4131 -7606.3654 299.2626 297.3838 322.8640 30775.0945 128.7405 198.8433
ENERGY: 1500000 1.3930 6.9471 1.2660 0.0000 -10818.4861 1410.6425 0.0000 0.0000 1765.1446 -7633.0928 295.8898 -9398.2374 -7608.8879 299.3401 -408.7122 -317.1019 30791.1564 136.4134 209.3833
TCL: Running FEP window  10: Lambda1 0.44999999999999996 Lambda2 0.49999999999999994 [dLambda 0.04999999999999999]
TCL: Setting parameter firsttimestep to 0
TCL: Setting parameter alchLambda to 0.44999999999999996
Info: NONBONDED TABLE R-SQUARED SPACING: 0.0625
Info: NONBONDED TABLE SIZE: 705 POINTS
TCL: Setting parameter alchLambda2 to 0.49999999999999994
Info: NONBONDED TABLE R-SQUARED SPACING: 0.0625
Info: NONBONDED TABLE SIZE: 705 POINTS
TCL: Running for 1500000 steps
ETITLE: TS BOND ANGLE DIHED IMPRP ELECT VDW BOUNDARY MISC KINETIC TOTAL TEMP POTENTIAL TOTALAVG TEMPAVG PRESSURE GPRESSURE VOLUME PRESSAVG GPRESSAVG
ENERGY: 0 1.3930 6.9471 1.2660 0.0000 -10818.4879 1410.7248 0.0000 0.0000 1764.2340 -7633.9229 295.7372 -9398.1569 -7633.9229 295.7372 -394.3619 -312.5261 30791.1564 -394.3619 -312.5261
ENERGY: 300000 0.3854 4.1674 3.2082 0.0000 -10794.7304 1419.8511 0.0000 0.0000 1767.1591 -7599.9591 296.2275 -9367.1182 -7621.8575 299.8214 -323.0751 -212.9571 30948.1251 -237.9173 -142.2329
ENERGY: 600000 0.3784 3.1254 1.5917 0.0000 -11025.5062 1569.3951 0.0000 0.0000 1791.0897 -7659.9258 300.2390 -9451.0155 -7625.8768 300.2132 846.1533 935.1378 30358.6610 -81.1773 11.7546
ENERGY: 900000 1.1467 5.1455 1.4375 0.0000 -10817.4017 1434.9686 0.0000 0.0000 1754.1399 -7620.5634 294.0451 -9374.7033 -7624.1171 298.7092 -350.9007 -267.6657 31151.7661 -137.6552 -50.3867
ENERGY: 1200000 0.6628 6.0846 0.8752 0.0000 -10849.6939 1425.2870 0.0000 0.0000 1742.1277 -7674.6566 292.0315 -9416.7843 -7624.5466 297.9235 -391.2146 -362.8522 30930.6228 -154.5878 -83.8754
ENERGY: 1500000 1.9279 8.1740 1.2856 0.0000 -10795.4778 1308.8838 0.0000 0.0000 1785.6525 -7689.5540 299.3275 -9475.2065 -7626.6269 298.5982 -1144.4495 -1103.1713 30628.5559 -203.4850 -133.2371
TCL: Running FEP window  11: Lambda1 0.49999999999999994 Lambda2 0.5499999999999999 [dLambda 0.04999999999999999]
TCL: Setting parameter firsttimestep to 0
TCL: Setting parameter alchLambda to 0.49999999999999994
Info: NONBONDED TABLE R-SQUARED SPACING: 0.0625
Info: NONBONDED TABLE SIZE: 705 POINTS
TCL: Setting parameter alchLambda2 to 0.5499999999999999
Info: NONBONDED TABLE R-SQUARED SPACING: 0.0625
Info: NONBONDED TABLE SIZE: 705 POINTS
TCL: Running for 1500000 steps
ETITLE: TS BOND ANGLE DIHED IMPRP ELECT VDW BOUNDARY MISC KINETIC TOTAL TEMP POTENTIAL TOTALAVG TEMPAVG PRESSURE GPRESSURE VOLUME PRESSAVG GPRESSAVG
ENERGY: 0 1.9279 8.1740 1.2856 0.0000 -10795.4790 1308.6507 0.0000 0.0000 1784.7632 -7690.6776 299.1785 -9475.4408 -7690.6776 299.1785 -1167.5983 -1102.8044 30628.5559 -1167.5983 -1102.8044
ENERGY: 300000 0.4751 7.3170 1.1428 0.0000 -11022.8857 1522.9500 0.0000 0.0000 1827.3465 -7663.6543 306.3167 -9491.0008 -7655.8889 300.2722 385.8488 461.9020 30532.3827 -422.6902 -350.7595
ENERGY: 600000 2.8338 5.6332 1.4182 0.0000 -10801.2849 1433.6241 0.0000 0.0000 1773.9583 -7583.8172 297.3672 -9357.7755 -7629.5619 299.7411 -176.0135 -133.1184 30855.4459 -248.4975 -188.8042
ENERGY: 900000 0.8607 4.6096 0.8918 0.0000 -10887.6058 1502.0099 0.0000 0.0000 1804.3145 -7574.9193 302.4558 -9379.2338 -7617.1774 300.2242 332.2869 404.3918 30928.9468 -170.3056 -116.6229
ENERGY: 1200000 0.9468 3.3603 2.9780 0.0000 -10978.1667 1465.2486 0.0000 0.0000 1825.3595 -7680.2734 305.9836 -9505.6329 -7616.2296 300.8880 -361.2348 -221.8737 31175.9853 -162.2588 -92.5114
ENERGY: 1500000 0.3944 8.2646 1.3066 0.0000 -11018.6090 1625.6963 0.0000 0.0000 1799.5918 -7583.3553 301.6642 -9382.9471 -7622.5714 300.5279 1430.1324 1502.6920 30539.9927 -11.6891 55.8166
TCL: Running FEP window  12: Lambda1 0.5499999999999999 Lambda2 0.6    [dLambda 0.050000000000000044]
TCL: Setting parameter firsttimestep to 0
TCL: Setting parameter alchLambda to 0.5499999999999999
Info: NONBONDED TABLE R-SQUARED SPACING: 0.0625
Info: NONBONDED TABLE SIZE: 705 POINTS
TCL: Setting parameter alchLambda2 to 0.6
Info: NONBONDED TABLE R-SQUARED SPACING: 0.0625
Info: NONBONDED TABLE SIZE: 705 POINTS
TCL: Running for 1500000 steps
ETITLE: TS BOND ANGLE DIHED IMPRP ELECT VDW BOUNDARY MISC KINETIC TOTAL TEMP POTENTIAL TOTALAVG TEMPAVG PRESSURE GPRESSURE VOLUME PRESSAVG GPRESSAVG
ENERGY: 0 0.3944 8.2646 1.3066 0.0000 -11018.8280 1626.0494 0.0000 0.0000 1798.6783 -7584.1347 301.5110 -9382.8130 -7584.1347 301.5110 1428.3312 1512.2786 30539.9927 1428.3312 1512.2786
ENERGY: 300000 0.0584 4.3550 1.1530 0.0000 -10827.4207 1460.0945 0.0000 0.0000 1793.2041 -7568.5557 300.5934 -9361.7598 -7606.8846 297.0500 5.9979 95.1534 31154.8318 100.3694 183.5541
ENERGY: 600000 0.5062 5.0840 1.2084 0.0000 -11008.8499 1522.8692 0.0000 0.0000 1761.3260 -7717.8561 295.2497 -9479.1820 -7615.5127 298.2212 205.6599 245.7133 30705.0946 198.2863 254.1445
ENERGY: 900000 1.7578 5.2692 1.4011 0.0000 -10667.6543 1326.8129 0.0000 0.0000 1775.4032 -7557.0102 297.6094 -9332.4134 -7600.6632 298.3708 -1186.5580 -1107.5068 31553.5719 -65.7961 -4.0673
ENERGY: 1200000 0.2244 7.4052 1.0889 0.0000 -10854.0425 1437.1694 0.0000 0.0000 1734.7065 -7673.4481 290.7875 -9408.1546 -7601.2791 299.3342 -552.9691 -496.6857 31255.1549 -151.5168 -91.8507
ENERGY: 1500000 0.7088 6.7009 0.8964 0.0000 -10872.6173 1443.0969 0.0000 0.0000 1817.4448 -7603.7695 304.6568 -9421.2143 -7600.5098 299.5848 -174.8270 -121.0860 30730.3508 -144.5255 -86.0626
TCL: Running FEP window  13: Lambda1 0.6    Lambda2 0.65   [dLambda 0.050000000000000044]
TCL: Setting parameter firsttimestep to 0
TCL: Setting parameter alchLambda to 0.6
Info: NONBONDED TABLE R-SQUARED SPACING: 0.0625
Info: NONBONDED TABLE SIZE: 705 POINTS
TCL: Setting parameter alchLambda2 to 0.65
Info: NONBONDED TABLE R-SQUARED SPACING: 0.0625
Info: NONBONDED TABLE SIZE: 705 POINTS
TCL: Running for 1500000 steps
ETITLE: TS BOND ANGLE DIHED IMPRP ELECT VDW BOUNDARY MISC KINETIC TOTAL TEMP POTENTIAL TOTALAVG TEMPAVG PRESSURE GPRESSURE VOLUME PRESSAVG GPRESSAVG
ENERGY: 0 0.7088 6.7009 0.8964 0.0000 -10872.3797 1442.8423 0.0000 0.0000 1816.5341 -7604.6972 304.5042 -9421.2313 -7604.6972 304.5042 -215.4845 -118.0274 30730.3508 -215.4845 -118.0274
ENERGY: 300000 0.9829 2.6914 0.9942 0.0000 -11012.1461 1488.3863 0.0000 0.0000 1804.6685 -7714.4228 302.5152 -9519.0913 -7620.5163 302.6226 -25.5225 0.5536 30619.4292 82.7126 137.6405
ENERGY: 600000 1.9727 2.8021 5.0346 0.0000 -10886.5719 1489.9913 0.0000 0.0000 1840.4969 -7546.2742 308.5211 -9386.7712 -7608.6709 302.6639 473.7265 486.8964 30653.5343 99.7724 173.0236
ENERGY: 900000 0.7371 4.2156 1.7367 0.0000 -10938.6734 1476.7983 0.0000 0.0000 1785.2261 -7669.9596 299.2560 -9455.1857 -7613.7688 301.5981 98.7796 180.2107 30366.4413 39.1751 106.5335
ENERGY: 1200000 1.2103 6.5711 1.6621 0.0000 -10978.9987 1533.7128 0.0000 0.0000 1774.6927 -7661.1497 297.4903 -9435.8424 -7610.6028 301.9223 381.3758 438.5096 31091.2012 -6.6597 51.1679
ENERGY: 1500000 0.9286 6.5412 1.3508 0.0000 -10994.0805 1463.4869 0.0000 0.0000 1792.5241 -7729.2490 300.4794 -9521.7730 -7619.7035 301.7268 -308.5287 -294.1326 30912.8982 -42.5623 10.7710
TCL: Running FEP window  14: Lambda1 0.65   Lambda2 0.7000000000000001 [dLambda 0.050000000000000044]
TCL: Setting parameter firsttimestep to 0
TCL: Setting parameter alchLambda to 0.65
Info: NONBONDED TABLE R-SQUARED SPACING: 0.0625
Info: NONBONDED TABLE SIZE: 705 POINTS
TCL: Setting parameter alchLambda2 to 0.7000000000000001
Info: NONBONDED TABLE R-SQUARED SPACING: 0.0625
Info: NONBONDED TABLE SIZE: 705 POINTS
TCL: Running for 1500000 steps
ETITLE: TS BOND ANGLE DIHED IMPRP ELECT VDW BOUNDARY MISC KINETIC TOTAL TEMP POTENTIAL TOTALAVG TEMPAVG PRESSURE GPRESSURE VOLUME PRESSAVG GPRESSAVG
ENERGY: 0 0.9286 6.5412 1.3508 0.0000 -10994.4496 1463.4370 0.0000 0.0000 1791.6146 -7730.5774 300.3269 -9522.1921 -7730.5774 300.3269 -369.3437 -290.0045 30912.8982 -369.3437 -290.0045
ENERGY: 300000 2.4644 3.4605 2.1428 0.0000 -10984.7725 1497.6228 0.0000 0.0000 1779.2679 -7699.8141 298.2573 -9479.0820 -7683.4639 299.8627 -2.7478 108.8600 30603.3512 -51.3847 31.3179
ENERGY: 600000 0.6107 6.4666 2.4460 0.0000 -10833.9043 1453.8998 0.0000 0.0000 1796.8680 -7573.6132 301.2076 -9370.4811 -7662.3273 298.1116 -189.5721 -134.0617 31341.3351 -182.2841 -98.9372
ENERGY: 900000 1.6401 6.1227 2.3885 0.0000 -10853.7742 1460.7507 0.0000 0.0000 1804.4695 -7578.4026 302.4818 -9382.8722 -7634.9003 300.3140 -218.9500 -97.2681 31156.3797 -171.3723 -81.8180
ENERGY: 1200000 0.2064 5.7444 1.3356 0.0000 -10812.1795 1413.8196 0.0000 0.0000 1812.8259 -7578.2476 303.8826 -9391.0735 -7634.1569 299.5733 -264.3736 -137.2714 30776.1711 -143.0013 -60.7769
ENERGY: 1500000 0.1851 7.5186 1.5044 0.0000 -10935.1814 1490.6186 0.0000 0.0000 1810.8596 -7624.4951 303.5530 -9435.3547 -7632.5976 300.0162 83.8333 155.9019 30787.3290 -150.8967 -73.2940
TCL: Running FEP window  15: Lambda1 0.7000000000000001 Lambda2 0.7500000000000001 [dLambda 0.050000000000000044]
TCL: Setting parameter firsttimestep to 0
TCL: Setting parameter alchLambda to 0.7000000000000001
Info: NONBONDED TABLE R-SQUARED SPACING: 0.0625
Info: NONBONDED TABLE SIZE: 705 POINTS
TCL: Setting parameter alchLambda2 to 0.7500000000000001
Info: NONBONDED TABLE R-SQUARED SPACING: 0.0625
Info: NONBONDED TABLE SIZE: 705 POINTS
TCL: Running for 1500000 steps
ETITLE: TS BOND ANGLE DIHED IMPRP ELECT VDW BOUNDARY MISC KINETIC TOTAL TEMP POTENTIAL TOTALAVG TEMPAVG PRESSURE GPRESSURE VOLUME PRESSAVG GPRESSAVG
ENERGY: 0 0.1851 7.5185 1.5044 0.0000 -10935.3343 1491.6632 0.0000 0.0000 1809.9328 -7624.5302 303.3976 -9434.4630 -7624.5302 303.3976 95.4264 174.0424 30787.3290 95.4264 174.0424
ENERGY: 300000 0.6395 4.7014 0.8869 0.0000 -10679.9028 1369.7333 0.0000 0.0000 1757.9093 -7546.0324 294.6770 -9303.9417 -7594.5858 298.1219 -604.6347 -494.3357 31345.2036 -66.4227 12.9192
ENERGY: 600000 1.3953 3.4034 2.1571 0.0000 -10701.5367 1336.1802 0.0000 0.0000 1757.3013 -7601.0995 294.5750 -9358.4008 -7594.2105 298.0262 -882.9792 -793.7337 30948.7048 -144.4301 -58.0419
ENERGY: 900000 0.0493 4.2836 1.1428 0.0000 -10834.6139 1476.1967 0.0000 0.0000 1819.8249 -7533.1166 305.0558 -9352.9415 -7580.2597 300.6472 343.4407 398.6409 30862.8021 -148.0042 -68.5444
ENERGY: 1200000 0.9928 5.3863 2.1275 0.0000 -10879.9761 1491.4570 0.0000 0.0000 1812.1496 -7567.8629 303.7692 -9380.0125 -7583.8138 300.2940 215.9973 332.2235 30854.6745 -137.9225 -59.8646
ENERGY: 1500000 2.3012 6.6486 1.8534 0.0000 -10816.8038 1403.6506 0.0000 0.0000 1808.9217 -7593.4282 303.2281 -9402.3499 -7590.6828 300.5007 -413.2033 -386.0276 31028.7960 -125.7918 -51.5079
TCL: Running FEP window  16: Lambda1 0.7500000000000001 Lambda2 0.8000000000000002 [dLambda 0.050000000000000044]
TCL: Setting parameter firsttimestep to 0
TCL: Setting parameter alchLambda to 0.7500000000000001
Info: NONBONDED TABLE R-SQUARED SPACING: 0.0625
Info: NONBONDED TABLE SIZE: 705 POINTS
TCL: Setting parameter alchLambda2 to 0.8000000000000002
Info: NONBONDED TABLE R-SQUARED SPACING: 0.0625
Info: NONBONDED TABLE SIZE: 705 POINTS
TCL: Running for 1500000 steps
ETITLE: TS BOND ANGLE DIHED IMPRP ELECT VDW BOUNDARY MISC KINETIC TOTAL TEMP POTENTIAL TOTALAVG TEMPAVG PRESSURE GPRESSURE VOLUME PRESSAVG GPRESSAVG
ENERGY: 0 2.3012 6.6486 1.8534 0.0000 -10817.1240 1403.9780 0.0000 0.0000 1808.0699 -7594.2728 303.0853 -9402.3427 -7594.2728 303.0853 -468.5799 -377.1019 31028.7960 -468.5799 -377.1019
ENERGY: 300000 0.6604 5.1034 1.7936 0.0000 -10844.6392 1475.0540 0.0000 0.0000 1797.6564 -7564.3715 301.3397 -9362.0278 -7558.9361 305.9724 113.7283 176.4719 31026.5411 -4.8945 91.7209
ENERGY: 600000 0.8893 5.5482 1.9229 0.0000 -10824.6150 1404.8517 0.0000 0.0000 1800.4878 -7610.9150 301.8144 -9411.4029 -7586.3613 304.2907 -464.9634 -329.3369 30879.5753 -12.0492 63.4267
ENERGY: 900000 2.1349 7.3015 3.0724 0.0000 -10937.8646 1472.9786 0.0000 0.0000 1792.3656 -7660.0116 300.4528 -9452.3772 -7612.1458 302.1867 -158.6712 -79.4610 30901.1793 43.1234 108.6465
ENERGY: 1200000 0.9873 3.1841 0.9337 0.0000 -10959.6083 1520.5511 0.0000 0.0000 1809.4101 -7624.5419 303.3100 -9433.9520 -7614.0646 302.0601 485.2141 544.1517 30791.2143 10.9348 73.3590
ENERGY: 1500000 1.4999 8.4335 3.3755 0.0000 -10861.8812 1468.7223 0.0000 0.0000 1770.6155 -7609.2344 296.8069 -9379.8499 -7615.0924 301.2116 -76.6606 30.3165 30994.5160 -27.5651 34.9206
TCL: Running FEP window  17: Lambda1 0.8000000000000002 Lambda2 0.8500000000000002 [dLambda 0.050000000000000044]
TCL: Setting parameter firsttimestep to 0
TCL: Setting parameter alchLambda to 0.8000000000000002
Info: NONBONDED TABLE R-SQUARED SPACING: 0.0625
Info: NONBONDED TABLE SIZE: 705 POINTS
TCL: Setting parameter alchLambda2 to 0.8500000000000002
Info: NONBONDED TABLE R-SQUARED SPACING: 0.0625
Info: NONBONDED TABLE SIZE: 705 POINTS
TCL: Running for 1500000 steps
ETITLE: TS BOND ANGLE DIHED IMPRP ELECT VDW BOUNDARY MISC KINETIC TOTAL TEMP POTENTIAL TOTALAVG TEMPAVG PRESSURE GPRESSURE VOLUME PRESSAVG GPRESSAVG
ENERGY: 0 1.4999 8.4335 3.3755 0.0000 -10862.2174 1468.5801 0.0000 0.0000 1769.6923 -7610.6360 296.6521 -9380.3284 -7610.6360 296.6521 -58.5960 34.5795 30994.5160 -58.5960 34.5795
ENERGY: 300000 0.5098 3.1396 1.8567 0.0000 -10731.9400 1349.6431 0.0000 0.0000 1770.9569 -7605.8339 296.8641 -9376.7909 -7595.0187 297.1803 -836.8583 -792.1936 31258.5016 -476.1669 -412.4963
ENERGY: 600000 1.0699 5.6683 1.4679 0.0000 -10990.7133 1506.8956 0.0000 0.0000 1679.5604 -7796.0513 281.5434 -9475.6116 -7649.2684 294.1692 85.4521 218.2870 30526.5912 -164.6721 -81.1212
ENERGY: 900000 0.6235 2.1635 1.5948 0.0000 -10952.9539 1480.9313 0.0000 0.0000 1816.7984 -7650.8424 304.5485 -9467.6407 -7650.2878 296.1185 327.6542 363.1157 30476.0506 -90.3641 -12.3139
ENERGY: 1200000 0.2017 6.9844 0.9259 0.0000 -10818.3414 1452.8313 0.0000 0.0000 1793.5627 -7563.8353 300.6535 -9357.3980 -7641.8013 296.5604 217.9071 224.0246 30633.2448 -53.8360 3.2592
ENERGY: 1500000 0.1871 3.1946 1.3573 0.0000 -10895.5197 1473.4467 0.0000 0.0000 1801.1112 -7616.2228 301.9188 -9417.3339 -7640.2858 297.3495 301.6589 369.3162 30539.8264 11.7587 67.7406
TCL: Running FEP window  18: Lambda1 0.8500000000000002 Lambda2 0.9000000000000002 [dLambda 0.050000000000000044]
TCL: Setting parameter firsttimestep to 0
TCL: Setting parameter alchLambda to 0.8500000000000002
Info: NONBONDED TABLE R-SQUARED SPACING: 0.0625
Info: NONBONDED TABLE SIZE: 705 POINTS
TCL: Setting parameter alchLambda2 to 0.9000000000000002
Info: NONBONDED TABLE R-SQUARED SPACING: 0.0625
Info: NONBONDED TABLE SIZE: 705 POINTS
TCL: Running for 1500000 steps
ETITLE: TS BOND ANGLE DIHED IMPRP ELECT VDW BOUNDARY MISC KINETIC TOTAL TEMP POTENTIAL TOTALAVG TEMPAVG PRESSURE GPRESSURE VOLUME PRESSAVG GPRESSAVG
ENERGY: 0 0.1871 3.1946 1.3573 0.0000 -10896.6909 1474.9278 0.0000 0.0000 1800.2077 -7616.8164 301.7674 -9417.0241 -7616.8164 301.7674 314.1526 390.2481 30539.8264 314.1526 390.2481
ENERGY: 300000 1.0612 4.6682 2.9746 0.0000 -10857.4490 1431.0412 0.0000 0.0000 1795.2455 -7622.4582 300.9356 -9417.7037 -7625.0251 302.1955 -432.6104 -395.7283 31047.0269 -174.4937 -127.7915
ENERGY: 600000 0.4410 5.5716 1.6716 0.0000 -10794.4050 1432.9708 0.0000 0.0000 1705.5537 -7648.1963 285.9006 -9353.7500 -7629.1162 299.7155 -233.9348 -169.0200 31009.0389 -137.7491 -75.7336
ENERGY: 900000 2.9769 5.1201 2.5320 0.0000 -10998.2629 1445.5602 0.0000 0.0000 1828.5887 -7713.4851 306.5249 -9542.0738 -7631.0985 301.7528 -689.9566 -572.2877 31074.4640 -69.0961 -13.3282
ENERGY: 1200000 2.3467 5.0680 1.9823 0.0000 -10951.6542 1505.8850 0.0000 0.0000 1814.9183 -7621.4538 304.2333 -9436.3721 -7633.3215 300.6089 567.7287 605.8272 30563.1053 -81.5988 -31.0613
ENERGY: 1500000 1.7487 2.7109 2.2218 0.0000 -10800.7718 1409.4398 0.0000 0.0000 1844.1624 -7540.4882 309.1355 -9384.6505 -7627.4555 301.2427 -79.8739 -28.7229 30485.4037 -170.2743 -118.7276
TCL: Running FEP window  19: Lambda1 0.9000000000000002 Lambda2 0.9500000000000003 [dLambda 0.050000000000000044]
TCL: Setting parameter firsttimestep to 0
TCL: Setting parameter alchLambda to 0.9000000000000002
Info: NONBONDED TABLE R-SQUARED SPACING: 0.0625
Info: NONBONDED TABLE SIZE: 705 POINTS
TCL: Setting parameter alchLambda2 to 0.9500000000000003
Info: NONBONDED TABLE R-SQUARED SPACING: 0.0625
Info: NONBONDED TABLE SIZE: 705 POINTS
TCL: Running for 1500000 steps
ETITLE: TS BOND ANGLE DIHED IMPRP ELECT VDW BOUNDARY MISC KINETIC TOTAL TEMP POTENTIAL TOTALAVG TEMPAVG PRESSURE GPRESSURE VOLUME PRESSAVG GPRESSAVG
ENERGY: 0 1.7487 2.7109 2.2218 0.0000 -10801.2285 1409.5882 0.0000 0.0000 1843.3015 -7541.6574 308.9912 -9384.9588 -7541.6574 308.9912 -96.8716 -21.3601 30485.4037 -96.8716 -21.3601
ENERGY: 300000 1.7538 3.5098 1.0875 0.0000 -10866.5217 1480.7162 0.0000 0.0000 1764.9472 -7614.5072 295.8567 -9379.4544 -7625.9553 299.0791 -75.1342 -7.1564 31224.2486 227.0942 297.6591
ENERGY: 600000 1.1140 7.0918 3.0595 0.0000 -10827.3462 1446.8026 0.0000 0.0000 1759.6722 -7609.6061 294.9725 -9369.2783 -7613.8878 298.1894 -6.8764 47.2617 30870.5678 241.0576 319.3265
ENERGY: 900000 0.4554 3.0426 1.1651 0.0000 -10939.7125 1496.2020 0.0000 0.0000 1728.3789 -7710.4685 289.7268 -9438.8474 -7618.8009 299.1025 120.8801 199.9527 30843.8648 164.3538 242.9812
ENERGY: 1200000 1.0879 4.9154 1.8000 0.0000 -10965.6233 1438.7592 0.0000 0.0000 1825.4271 -7693.6338 305.9949 -9519.0608 -7621.6803 299.4355 -582.4928 -490.4744 31030.2706 -1.9583 70.6579
ENERGY: 1500000 1.4053 5.6450 1.1388 0.0000 -10959.6075 1503.8430 0.0000 0.0000 1798.0612 -7649.5143 301.4076 -9447.5755 -7625.9027 299.2945 241.1882 266.3536 30978.7854 23.6403 95.6796
TCL: Running FEP window  20: Lambda1 0.9500000000000003 Lambda2 1.0    [dLambda 0.04999999999999971]
TCL: Setting parameter firsttimestep to 0
TCL: Setting parameter alchLambda to 0.9500000000000003
Info: NONBONDED TABLE R-SQUARED SPACING: 0.0625
Info: NONBONDED TABLE SIZE: 705 POINTS
TCL: Setting parameter alchLambda2 to 1.0
Info: NONBONDED TABLE R-SQUARED SPACING: 0.0625
Info: NONBONDED TABLE SIZE: 705 POINTS
TCL: Running for 1500000 steps
ETITLE: TS BOND ANGLE DIHED IMPRP ELECT VDW BOUNDARY MISC KINETIC TOTAL TEMP POTENTIAL TOTALAVG TEMPAVG PRESSURE GPRESSURE VOLUME PRESSAVG GPRESSAVG
ENERGY: 0 1.4053 5.6450 1.1388 0.0000 -10960.4938 1504.1106 0.0000 0.0000 1797.1587 -7651.0355 301.2563 -9448.1942 -7651.0355 301.2563 190.6262 277.9505 30978.7854 190.6262 277.9505
ENERGY: 300000 1.5087 7.5977 1.2662 0.0000 -10848.6002 1465.2638 0.0000 0.0000 1809.8799 -7563.0840 303.3887 -9372.9638 -7607.5051 300.9527 48.4425 126.4073 30885.7261 83.9679 214.6681
ENERGY: 600000 0.6337 6.4206 3.1707 0.0000 -10960.1363 1537.1526 0.0000 0.0000 1816.2362 -7596.5224 304.4542 -9412.7586 -7616.4670 302.1235 712.4414 799.4561 30550.3130 -1.4758 104.0698
ENERGY: 900000 0.9169 4.7073 1.4692 0.0000 -10998.0247 1482.8793 0.0000 0.0000 1798.7580 -7709.2941 301.5244 -9508.0521 -7628.9448 301.2827 73.0783 124.7055 30437.4346 -31.3150 56.6915
ENERGY: 1200000 1.9727 2.1821 4.3984 0.0000 -10951.3851 1474.7314 0.0000 0.0000 1724.4547 -7743.6460 289.0690 -9468.1007 -7640.9820 300.3288 -109.5263 -89.5399 30808.5726 9.0554 81.0040
ENERGY: 1500000 0.4525 5.6562 1.4877 0.0000 -10695.6367 1343.1520 0.0000 0.0000 1824.5611 -7520.3272 305.8497 -9344.8883 -7629.3245 300.5687 -961.9352 -847.5562 31362.0984 -38.5726 37.0412
TCL: Exiting due to exit command.
