Info: SIMULATION PARAMETERS:
Info: TIMESTEP               2
Info: NUMBER OF STEPS        0
Info: STEPS PER CYCLE        10
Info: PERIODIC CELL BASIS 1  30.4 0 0
Info: PERIODIC CELL BASIS 2  0 29.809 0
Info: PERIODIC CELL BASIS 3  0 0 33.2829
Info: PERIODIC CELL CENTER   0 0 0
Info: WRAPPING WATERS AROUND PERIODIC BOUNDARIES ON OUTPUT.
Info: WRAPPING ALL CLUSTERS AROUND PERIODIC BOUNDARIES ON OUTPUT.
Info: FIRST LDB TIMESTEP     50
Info: LAST LDB TIMESTEP     -1
Info: HOM BACKGROUND SCALING 1
Info: PME BACKGROUND SCALING 1
Info: MIN ATOMS PER PATCH    40
Info: EMPTY PATCH LOAD       40 ATOMS
Info: VELOCITY FILE          mobley_1189457_equil.vel
Info: CENTER OF MASS MOVING INITIALLY? NO
Info: DIELECTRIC             1
Info: EXCLUDE                SCALED ONE-FOUR
Info: 1-4 ELECTROSTATICS SCALED BY 0.833333
Info: MODIFIED 1-4 VDW PARAMETERS WILL BE USED
Info: DCD FILENAME           mobley_1189457_prod.dcd
Info: DCD FREQUENCY          100000
Info: DCD FIRST STEP         100000
Info: DCD FILE WILL CONTAIN UNIT CELL DATA
Info: XST FILENAME           mobley_1189457_prod.xst
Info: XST FREQUENCY          100000
Info: NO VELOCITY DCD OUTPUT
Info: NO FORCE DCD OUTPUT
Info: OUTPUT FILENAME        mobley_1189457_prod
Info: BINARY OUTPUT FILES WILL BE USED
Info: RESTART FILENAME       mobley_1189457_prod.restart
Info: RESTART FREQUENCY      100000
Info: BINARY RESTART FILES WILL BE USED
Info: CUTOFF                 9
Info: PAIRLIST DISTANCE      11
Info: PAIRLIST SHRINK RATE   0.01
Info: PAIRLIST GROW RATE     0.01
Info: PAIRLIST TRIGGER       0.3
Info: PAIRLISTS PER CYCLE    2
Info: PAIRLISTS ENABLED
Info: MARGIN                 2
Info: HYDROGEN GROUP CUTOFF  2.5
Info: PATCH DIMENSION        15.5
Info: ENERGY OUTPUT STEPS    100000
Info: ENERGY EVALUATION STEPS    100000
Info: OUTPUT ENERGY PRECISION 4
Info: CROSSTERM ENERGY INCLUDED IN DIHEDRAL
Info: TIMING OUTPUT STEPS    1000000
Info: PRESSURE OUTPUT STEPS  100000
Info: ALCHEMICAL FEP ON
Info: FEP CURRENT LAMBDA VALUE     1
Info: FEP COMPARISON LAMBDA VALUE  0.95
Info: FEP INTRA-ALCHEMICAL NON-BONDED INTERACTIONS WILL BE RETAINED
Info: FEP INTRA-ALCHEMICAL BONDED INTERACTIONS WILL BE RETAINED
Info: FEP VDW SHIFTING COEFFICIENT 5
Info: FEP ELEC. ACTIVE FOR ANNIHILATED PARTICLES BETWEEN LAMBDA = 0 AND LAMBDA = 0.5
Info: FEP ELEC. ACTIVE FOR EXNIHILATED PARTICLES BETWEEN LAMBDA = 0.5 AND LAMBDA = 1
Info: FEP VDW ACTIVE FOR ANNIHILATED PARTICLES BETWEEN LAMBDA = 0 AND LAMBDA = 1
Info: FEP VDW ACTIVE FOR EXNIHILATED PARTICLES BETWEEN LAMBDA = 0 AND LAMBDA = 1
Info: FEP BOND ACTIVE FOR ANNIHILATED PARTICLES BETWEEN LAMBDA = 1 AND LAMBDA = 1
Info: FEP BOND ACTIVE FOR EXNIHILATED PARTICLES BETWEEN LAMBDA = 0 AND LAMBDA = 0
Info: LANGEVIN DYNAMICS ACTIVE
Info: LANGEVIN TEMPERATURE   300
Info: LANGEVIN USING BBK INTEGRATOR
Info: LANGEVIN DAMPING COEFFICIENT IS 1 INVERSE PS
Info: LANGEVIN DYNAMICS APPLIED TO HYDROGENS
Info: LANGEVIN PISTON PRESSURE CONTROL ACTIVE
Info:        TARGET PRESSURE IS 1.01325 BAR
Info:     OSCILLATION PERIOD IS 50 FS
Info:             DECAY TIME IS 25 FS
Info:     PISTON TEMPERATURE IS 300 K
Info:       PRESSURE CONTROL IS GROUP-BASED
Info:    INITIAL STRAIN RATE IS -0.000116051 -0.000116051 -0.000116051
Info:       CELL FLUCTUATION IS ISOTROPIC
Info: PARTICLE MESH EWALD (PME) ACTIVE
Info: PME TOLERANCE               1e-06
Info: PME EWALD COEFFICIENT       0.348832
Info: PME INTERPOLATION ORDER     4
Info: PME GRID DIMENSIONS         32 32 36
Info: PME MAXIMUM GRID SPACING    1
Info: PME CALCULATION WILL BE PERFORMED ON GPU
Info: FULL ELECTROSTATIC EVALUATION FREQUENCY      2
Info: USING VERLET I (r-RESPA) MTS SCHEME.
Info: C1 SPLITTING OF LONG RANGE ELECTROSTATICS
Info: PLACING ATOMS IN PATCHES BY HYDROGEN GROUPS
Info: RIGID BONDS TO HYDROGEN : ALL
Info:         ERROR TOLERANCE : 1e-08
Info:          MAX ITERATIONS : 100
Info: RIGID WATER USING SETTLE ALGORITHM
Info: RANDOM NUMBER SEED     1743753114
Info: USE HYDROGEN BONDS?    NO
Info: Using AMBER format force field!
Info: AMBER PARM FILE        mobley_1189457.prmtop
Info: COORDINATE PDB         mobley_1189457.pdb
Info: Exclusions will be read from PARM file!
Info: SCNB (VDW SCALING)     2
Info: USING ARITHMETIC MEAN TO COMBINE L-J SIGMA PARAMETERS
Info: BINARY COORDINATES     mobley_1189457_equil.coor
Info: SUMMARY OF PARAMETERS:
Info: 7 BONDS
Info: 6 ANGLES
Info:   6 HARMONIC
Info:   0 COSINE-BASED
Info: 4 DIHEDRAL
Info: 0 IMPROPER
Info: 0 CROSSTERM
Info: 0 VDW
Info: 28 VDW_PAIRS
Info: 0 NBTHOLE_PAIRS
Info: To read alchdata from file: mobley_1189457.pdb
Info: To read alchflag data from column: 5
Info: STRUCTURE SUMMARY:
Info: 2950 ATOMS
Info: 2950 BONDS
Info: 25 ANGLES
Info: 35 DIHEDRALS
Info: 0 IMPROPERS
Info: 0 CROSSTERMS
Info: 3001 EXCLUSIONS
Info: 2942 RIGID BONDS
Info: ALCH: 0 ATOMS TO DISAPPEAR IN FINAL STATE
Info: ALCH: 16 ATOMS TO APPEAR IN FINAL STATE
Info: 5908 DEGREES OF FREEDOM
Info: 986 HYDROGEN GROUPS
Info: 4 ATOMS IN LARGEST HYDROGEN GROUP
Info: 986 MIGRATION GROUPS
Info: 4 ATOMS IN LARGEST MIGRATION GROUP
Info: TOTAL MASS = 17743.8 amu
Info: TOTAL CHARGE = 0.000199981 e
Info: MASS DENSITY = 0.976934 g/cm^3
Info: ATOM DENSITY = 0.0978093 atoms/A^3
Info: ADDED 0 IMPLICIT EXCLUSIONS
Info: NONBONDED TABLE R-SQUARED SPACING: 0.0625
Info: NONBONDED TABLE SIZE: 705 POINTS
Info: REMOVING COM VELOCITY 0.0340042 0.124166 -0.0210453
Info: Use 3D box decompostion in PME FFT.
Info: Updated CUDA force table with 4096 elements.
Info: Updated CUDA LJ table with 7 x 7 elements.
Info: Found 15 unique exclusion lists needing 36 bytes
TCL: Running for 1500000 steps
ETITLE: TS BOND ANGLE DIHED IMPRP ELECT VDW BOUNDARY MISC KINETIC TOTAL TEMP POTENTIAL TOTALAVG TEMPAVG PRESSURE GPRESSURE VOLUME PRESSAVG GPRESSAVG
ENERGY: 0 1.2627 3.4900 3.1272 0.0000 -10792.7570 1502.1034 0.0000 0.0000 1738.9419 -7543.8317 296.2341 -9282.7737 -7543.8317 296.2341 590.6833 664.2769 30160.7236 590.6833 664.2769
ENERGY: 300000 2.0435 7.7445 1.8836 0.0000 -10625.1176 1380.4461 0.0000 0.0000 1718.6950 -7514.3050 292.7849 -9233.0000 -7466.5908 301.4964 -546.2940 -464.8819 30778.8060 -96.9046 -23.2146
ENERGY: 600000 1.6184 4.2888 4.0956 0.0000 -10689.1931 1429.8721 0.0000 0.0000 1758.3659 -7490.9522 299.5430 -9249.3181 -7477.5323 299.7798 246.5087 260.0010 29848.8762 -4.0881 59.5707
ENERGY: 900000 2.3828 3.7698 4.0071 0.0000 -10677.4728 1386.4589 0.0000 0.0000 1736.0077 -7544.8466 295.7342 -9280.8543 -7496.0364 299.3593 -492.5240 -383.7018 30174.7102 -84.2781 -21.1799
ENERGY: 1200000 3.5122 3.8136 3.3952 0.0000 -10727.1074 1469.0317 0.0000 0.0000 1740.0290 -7507.3257 296.4192 -9247.3547 -7498.1333 299.2197 209.4227 292.7691 30541.1370 -127.6869 -60.5784
ENERGY: 1500000 1.5283 7.7845 6.2823 0.0000 -10662.0100 1414.7359 0.0000 0.0000 1757.1582 -7474.5208 299.3372 -9231.6790 -7498.0515 298.9519 -71.6956 24.5999 30145.1457 -44.5409 27.5419
TCL: Running FEP window   2: Lambda1 0.95   Lambda2 0.8999999999999999 [dLambda -0.050000000000000044]
TCL: Setting parameter firsttimestep to 0
TCL: Setting parameter alchLambda to 0.95
Info: NONBONDED TABLE R-SQUARED SPACING: 0.0625
Info: NONBONDED TABLE SIZE: 705 POINTS
TCL: Setting parameter alchLambda2 to 0.8999999999999999
Info: NONBONDED TABLE R-SQUARED SPACING: 0.0625
Info: NONBONDED TABLE SIZE: 705 POINTS
TCL: Running for 1500000 steps
ETITLE: TS BOND ANGLE DIHED IMPRP ELECT VDW BOUNDARY MISC KINETIC TOTAL TEMP POTENTIAL TOTALAVG TEMPAVG PRESSURE GPRESSURE VOLUME PRESSAVG GPRESSAVG
ENERGY: 0 1.5283 7.7845 6.2823 0.0000 -10661.4633 1415.0775 0.0000 0.0000 1756.3193 -7474.4714 299.1943 -9230.7907 -7474.4714 299.1943 -71.3523 17.6963 30145.1457 -71.3523 17.6963
ENERGY: 300000 1.4263 3.2568 3.0602 0.0000 -10680.6215 1414.0265 0.0000 0.0000 1776.9348 -7481.9169 302.7063 -9258.8517 -7477.3985 299.0235 -353.2426 -310.8130 30493.1631 -97.4568 -30.1625
ENERGY: 600000 1.9720 3.1789 6.5789 0.0000 -10607.6938 1399.6282 0.0000 0.0000 1814.8738 -7381.4620 309.1693 -9196.3358 -7475.1582 298.4358 -336.1722 -291.3636 30925.4014 -186.8152 -126.9661
ENERGY: 900000 2.2896 4.4568 7.6473 0.0000 -10595.9453 1382.0640 0.0000 0.0000 1800.8537 -7398.6339 306.7809 -9199.4876 -7477.7611 299.5300 -45.5700 -51.6657 30266.9734 -105.3345 -56.1079
ENERGY: 1200000 3.4469 4.6690 3.3030 0.0000 -10700.1572 1424.5180 0.0000 0.0000 1770.1958 -7494.0245 301.5582 -9264.2203 -7491.7052 299.5158 -57.9468 7.6334 30289.4118 -98.7278 -52.7532
ENERGY: 1500000 1.7908 6.2140 4.8222 0.0000 -10513.1313 1349.9256 0.0000 0.0000 1843.6163 -7306.7624 314.0657 -9150.3787 -7477.3803 300.3126 -270.0249 -264.5848 30474.9419 -119.2384 -72.2504
TCL: Running FEP window   3: Lambda1 0.8999999999999999 Lambda2 0.8499999999999999 [dLambda -0.050000000000000044]
TCL: Setting parameter firsttimestep to 0
TCL: Setting parameter alchLambda to 0.8999999999999999
Info: NONBONDED TABLE R-SQUARED SPACING: 0.0625
Info: NONBONDED TABLE SIZE: 705 POINTS
TCL: Setting parameter alchLambda2 to 0.8499999999999999
Info: NONBONDED TABLE R-SQUARED SPACING: 0.0625
Info: NONBONDED TABLE SIZE: 705 POINTS
TCL: Running for 1500000 steps
ETITLE: TS BOND ANGLE DIHED IMPRP ELECT VDW BOUNDARY MISC KINETIC TOTAL TEMP POTENTIAL TOTALAVG TEMPAVG PRESSURE GPRESSURE VOLUME PRESSAVG GPRESSAVG
ENERGY: 0 1.7908 6.2140 4.8222 0.0000 -10512.0213 1349.7281 0.0000 0.0000 1842.7953 -7306.6709 313.9258 -9149.4662 -7306.6709 313.9258 -337.5596 -276.9008 30474.9419 -337.5596 -276.9008
ENERGY: 300000 4.4983 4.8496 4.3578 0.0000 -10649.5812 1426.7758 0.0000 0.0000 1809.4148 -7399.6848 308.2393 -9209.0996 -7434.0864 302.6171 -104.3997 -40.8925 30399.3776 47.3477 114.8157
ENERGY: 600000 2.1142 3.0258 4.0699 0.0000 -10646.7139 1406.9816 0.0000 0.0000 1743.1079 -7487.4143 296.9437 -9230.5223 -7475.4940 299.4717 -273.3878 -201.0877 30487.8542 13.1662 70.0837
ENERGY: 900000 1.3376 5.1045 6.2178 0.0000 -10633.3090 1366.2634 0.0000 0.0000 1752.0206 -7502.3650 298.4620 -9254.3856 -7495.0431 298.5177 -682.4882 -528.9687 30383.8877 -63.9795 -8.4905
ENERGY: 1200000 1.7878 3.6792 3.5727 0.0000 -10577.5327 1335.2407 0.0000 0.0000 1731.3844 -7501.8678 294.9466 -9233.2523 -7484.7622 298.5798 -827.5532 -803.3532 30691.0344 -179.8508 -127.6428
ENERGY: 1500000 4.4936 4.1665 2.0391 0.0000 -10595.7016 1402.3645 0.0000 0.0000 1757.2957 -7425.3422 299.3607 -9182.6379 -7483.4439 298.0854 -341.0715 -251.8310 30684.1549 -159.8111 -105.6383
TCL: Running FEP window   4: Lambda1 0.8499999999999999 Lambda2 0.7999999999999998 [dLambda -0.050000000000000044]
TCL: Setting parameter firsttimestep to 0
TCL: Setting parameter alchLambda to 0.8499999999999999
Info: NONBONDED TABLE R-SQUARED SPACING: 0.0625
Info: NONBONDED TABLE SIZE: 705 POINTS
TCL: Setting parameter alchLambda2 to 0.7999999999999998
Info: NONBONDED TABLE R-SQUARED SPACING: 0.0625
Info: NONBONDED TABLE SIZE: 705 POINTS
TCL: Running for 1500000 steps
ETITLE: TS BOND ANGLE DIHED IMPRP ELECT VDW BOUNDARY MISC KINETIC TOTAL TEMP POTENTIAL TOTALAVG TEMPAVG PRESSURE GPRESSURE VOLUME PRESSAVG GPRESSAVG
ENERGY: 0 4.4936 4.1665 2.0391 0.0000 -10594.6410 1402.1641 0.0000 0.0000 1756.4260 -7425.3518 299.2125 -9181.7778 -7425.3518 299.2125 -338.0457 -266.2446 30684.1549 -338.0457 -266.2446
ENERGY: 300000 1.6572 5.2380 5.4015 0.0000 -10716.5384 1460.1197 0.0000 0.0000 1792.2166 -7451.9053 305.3095 -9244.1219 -7464.3710 300.0019 321.5821 332.0879 30292.2746 -134.6631 -88.8325
ENERGY: 600000 4.4789 3.9544 5.0418 0.0000 -10503.5766 1262.2341 0.0000 0.0000 1763.3832 -7464.4842 300.3977 -9227.8675 -7489.9358 299.2942 -1448.6094 -1409.0289 30412.7354 -305.4307 -246.0307
ENERGY: 900000 1.7763 3.4861 3.4279 0.0000 -10608.7087 1417.3608 0.0000 0.0000 1771.8200 -7410.8378 301.8349 -9182.6577 -7488.0548 301.2230 84.4845 149.8941 30062.8207 -160.2227 -94.0914
ENERGY: 1200000 1.8548 6.3792 1.9386 0.0000 -10586.5176 1415.0634 0.0000 0.0000 1771.3175 -7389.9641 301.7493 -9161.2816 -7481.8388 300.8542 142.2131 100.8273 30626.0637 -248.1577 -177.8750
ENERGY: 1500000 1.7268 3.8115 4.5556 0.0000 -10672.2040 1481.6088 0.0000 0.0000 1766.4575 -7414.0439 300.9214 -9180.5014 -7473.2280 301.0034 505.4449 499.8588 30534.4428 -94.6676 -35.0688
TCL: Running FEP window   5: Lambda1 0.7999999999999998 Lambda2 0.7499999999999998 [dLambda -0.050000000000000044]
TCL: Setting parameter firsttimestep to 0
TCL: Setting parameter alchLambda to 0.7999999999999998
Info: NONBONDED TABLE R-SQUARED SPACING: 0.0625
Info: NONBONDED TABLE SIZE: 705 POINTS
TCL: Setting parameter alchLambda2 to 0.7499999999999998
Info: NONBONDED TABLE R-SQUARED SPACING: 0.0625
Info: NONBONDED TABLE SIZE: 705 POINTS
TCL: Running for 1500000 steps
ETITLE: TS BOND ANGLE DIHED IMPRP ELECT VDW BOUNDARY MISC KINETIC TOTAL TEMP POTENTIAL TOTALAVG TEMPAVG PRESSURE GPRESSURE VOLUME PRESSAVG GPRESSAVG
ENERGY: 0 1.7268 3.8115 4.5556 0.0000 -10671.7202 1481.8404 0.0000 0.0000 1765.5703 -7414.2157 300.7703 -9179.7861 -7414.2157 300.7703 426.2863 492.9573 30534.4428 426.2863 492.9573
ENERGY: 300000 1.5776 4.6257 2.2679 0.0000 -10576.1777 1383.9832 0.0000 0.0000 1773.6100 -7410.1134 302.1399 -9183.7234 -7442.3800 299.3235 -305.7430 -227.4113 30343.3421 106.9449 166.9469
ENERGY: 600000 2.8420 4.1116 2.1489 0.0000 -10698.4747 1491.9874 0.0000 0.0000 1780.2579 -7417.1270 303.2723 -9197.3848 -7440.5616 301.1380 664.0104 722.9300 30190.8376 116.9292 168.1313
ENERGY: 900000 2.1433 7.1389 5.5447 0.0000 -10738.1999 1487.2949 0.0000 0.0000 1757.2510 -7478.8271 299.3531 -9236.0781 -7455.0300 300.9225 355.5986 374.1457 30168.7463 99.3825 153.9652
ENERGY: 1200000 0.7227 2.4217 6.0951 0.0000 -10622.9417 1368.4806 0.0000 0.0000 1736.9867 -7508.2349 295.9010 -9245.2216 -7466.8208 300.1828 -820.8288 -650.0740 30607.3954 -36.9321 22.5877
ENERGY: 1500000 2.4841 3.9127 4.9314 0.0000 -10721.4327 1469.4627 0.0000 0.0000 1817.0029 -7423.6388 309.5320 -9240.6418 -7464.7476 301.6335 -44.1414 196.9766 30374.2991 48.0570 117.9854
TCL: Running FEP window   6: Lambda1 0.7499999999999998 Lambda2 0.6999999999999997 [dLambda -0.050000000000000044]
TCL: Setting parameter firsttimestep to 0
TCL: Setting parameter alchLambda to 0.7499999999999998
Info: NONBONDED TABLE R-SQUARED SPACING: 0.0625
Info: NONBONDED TABLE SIZE: 705 POINTS
TCL: Setting parameter alchLambda2 to 0.6999999999999997
Info: NONBONDED TABLE R-SQUARED SPACING: 0.0625
Info: NONBONDED TABLE SIZE: 705 POINTS
TCL: Running for 1500000 steps
ETITLE: TS BOND ANGLE DIHED IMPRP ELECT VDW BOUNDARY MISC KINETIC TOTAL TEMP POTENTIAL TOTALAVG TEMPAVG PRESSURE GPRESSURE VOLUME PRESSAVG GPRESSAVG
ENERGY: 0 2.4841 3.9127 4.9314 0.0000 -10720.8393 1469.8776 0.0000 0.0000 1816.1030 -7423.5305 309.3787 -9239.6335 -7423.5305 309.3787 102.7648 194.5323 30374.2991 102.7648 194.5323
ENERGY: 300000 1.2759 3.9766 4.6348 0.0000 -10645.8148 1376.8250 0.0000 0.0000 1721.1962 -7537.9063 293.2110 -9259.1025 -7522.4285 298.6690 -581.6826 -517.9303 30727.8910 44.4204 127.2638
ENERGY: 600000 3.8771 6.7218 2.6604 0.0000 -10696.8761 1411.2754 0.0000 0.0000 1759.1853 -7513.1561 299.6826 -9272.3414 -7509.2923 298.7629 -313.1731 -243.0576 30178.4784 31.8799 113.3813
ENERGY: 900000 1.1611 5.9869 4.3506 0.0000 -10793.7757 1448.1467 0.0000 0.0000 1746.3981 -7587.7322 297.5042 -9334.1303 -7511.8841 298.3524 -22.6208 57.9795 30210.1684 -61.9525 7.6518
ENERGY: 1200000 2.4328 4.1357 3.5160 0.0000 -10590.1689 1340.6653 0.0000 0.0000 1732.5016 -7506.9175 295.1369 -9239.4191 -7504.6211 298.8309 -710.8280 -602.2207 30194.1840 -104.0524 -29.7730
ENERGY: 1500000 2.3799 3.4968 4.3542 0.0000 -10599.2589 1374.2084 0.0000 0.0000 1810.9525 -7403.8671 308.5013 -9214.8196 -7498.4583 299.1535 -549.6248 -519.6257 30885.8194 -116.9445 -47.2290
TCL: Running FEP window   7: Lambda1 0.6999999999999997 Lambda2 0.6499999999999997 [dLambda -0.050000000000000044]
TCL: Setting parameter firsttimestep to 0
TCL: Setting parameter alchLambda to 0.6999999999999997
Info: NONBONDED TABLE R-SQUARED SPACING: 0.0625
Info: NONBONDED TABLE SIZE: 705 POINTS
TCL: Setting parameter alchLambda2 to 0.6499999999999997
Info: NONBONDED TABLE R-SQUARED SPACING: 0.0625
Info: NONBONDED TABLE SIZE: 705 POINTS
TCL: Running for 1500000 steps
ETITLE: TS BOND ANGLE DIHED IMPRP ELECT VDW BOUNDARY MISC KINETIC TOTAL TEMP POTENTIAL TOTALAVG TEMPAVG PRESSURE GPRESSURE VOLUME PRESSAVG GPRESSAVG
ENERGY: 0 2.3799 3.4968 4.3542 0.0000 -10598.7281 1374.4548 0.0000 0.0000 1810.0785 -7403.9638 308.3524 -9214.0423 -7403.9638 308.3524 -610.2974 -525.8944 30885.8194 -610.2974 -525.8944
ENERGY: 300000 3.3195 4.4137 5.3936 0.0000 -10654.2577 1407.7812 0.0000 0.0000 1742.7358 -7490.6139 296.8804 -9233.3497 -7442.4610 302.5245 -344.7295 -330.5858 30485.5431 -125.2095 -61.0190
ENERGY: 600000 1.6410 11.7618 5.5745 0.0000 -10659.4852 1457.4763 0.0000 0.0000 1794.0126 -7389.0190 305.6155 -9183.0316 -7437.1442 301.9605 175.1643 261.3213 30325.6701 -12.4160 56.9289
ENERGY: 900000 5.4728 6.5298 3.3560 0.0000 -10850.7141 1573.9843 0.0000 0.0000 1777.8026 -7483.5687 302.8541 -9261.3713 -7456.5610 301.5293 994.9170 1038.5043 30237.7739 37.3767 106.9006
ENERGY: 1200000 2.0836 4.2532 4.8059 0.0000 -10618.0033 1308.6264 0.0000 0.0000 1730.5978 -7567.6366 294.8126 -9298.2343 -7456.8148 301.2729 -1420.5469 -1311.3186 30583.7128 -67.3251 5.6722
ENERGY: 1500000 1.6079 5.0283 4.6412 0.0000 -10676.8166 1477.1565 0.0000 0.0000 1759.7778 -7428.6049 299.7835 -9188.3827 -7457.5296 301.3047 727.5892 790.0707 29917.4028 -60.9787 12.7589
TCL: Running FEP window   8: Lambda1 0.6499999999999997 Lambda2 0.5999999999999996 [dLambda -0.050000000000000044]
TCL: Setting parameter firsttimestep to 0
TCL: Setting parameter alchLambda to 0.6499999999999997
Info: NONBONDED TABLE R-SQUARED SPACING: 0.0625
Info: NONBONDED TABLE SIZE: 705 POINTS
TCL: Setting parameter alchLambda2 to 0.5999999999999996
Info: NONBONDED TABLE R-SQUARED SPACING: 0.0625
Info: NONBONDED TABLE SIZE: 705 POINTS
TCL: Running for 1500000 steps
ETITLE: TS BOND ANGLE DIHED IMPRP ELECT VDW BOUNDARY MISC KINETIC TOTAL TEMP POTENTIAL TOTALAVG TEMPAVG PRESSURE GPRESSURE VOLUME PRESSAVG GPRESSAVG
ENERGY: 0 1.6079 5.0283 4.6412 0.0000 -10676.4106 1477.5231 0.0000 0.0000 1758.9290 -7428.6811 299.6389 -9187.6101 -7428.6811 299.6389 707.6417 789.3755 29917.4028 707.6417 789.3755
ENERGY: 300000 1.6874 4.5303 3.4879 0.0000 -10574.2953 1330.9998 0.0000 0.0000 1757.2690 -7476.3208 299.3561 -9233.5899 -7448.5000 297.8112 -789.8138 -704.1726 30411.6420 -131.4787 -69.8940
ENERGY: 600000 2.8643 7.9662 5.3096 0.0000 -10619.2835 1370.1595 0.0000 0.0000 1737.1882 -7495.7956 295.9353 -9232.9838 -7479.7964 298.5221 -728.5522 -674.3605 30517.6645 -117.8773 -65.8116
ENERGY: 900000 2.2482 3.6859 4.7725 0.0000 -10632.5545 1380.2049 0.0000 0.0000 1720.4264 -7521.2166 293.0799 -9241.6430 -7486.4903 297.5884 -623.6010 -555.6548 30597.2961 -84.0823 -33.8810
ENERGY: 1200000 4.6976 4.4605 3.5660 0.0000 -10642.5915 1418.4339 0.0000 0.0000 1712.3276 -7499.1060 291.7002 -9211.4336 -7481.4197 298.1003 -58.1397 28.1497 30300.6844 -10.4043 43.6061
ENERGY: 1500000 1.9910 5.7331 3.8366 0.0000 -10627.1025 1382.6885 0.0000 0.0000 1751.6907 -7481.1626 298.4058 -9232.8533 -7476.7968 299.5834 -435.3526 -328.6367 30416.2065 21.7603 84.0922
TCL: Running FEP window   9: Lambda1 0.5999999999999996 Lambda2 0.5499999999999996 [dLambda -0.050000000000000044]
TCL: Setting parameter firsttimestep to 0
TCL: Setting parameter alchLambda to 0.5999999999999996
Info: NONBONDED TABLE R-SQUARED SPACING: 0.0625
Info: NONBONDED TABLE SIZE: 705 POINTS
TCL: Setting parameter alchLambda2 to 0.5499999999999996
Info: NONBONDED TABLE R-SQUARED SPACING: 0.0625
Info: NONBONDED TABLE SIZE: 705 POINTS
TCL: Running for 1500000 steps
ETITLE: TS BOND ANGLE DIHED IMPRP ELECT VDW BOUNDARY MISC KINETIC TOTAL TEMP POTENTIAL TOTALAVG TEMPAVG PRESSURE GPRESSURE VOLUME PRESSAVG GPRESSAVG
ENERGY: 0 1.9910 5.7331 3.8366 0.0000 -10626.5473 1383.0301 0.0000 0.0000 1750.7839 -7481.1727 298.2514 -9231.9566 -7481.1727 298.2514 -411.9861 -330.9955 30416.2065 -411.9861 -330.9955
ENERGY: 300000 4.7702 1.7825 4.6793 0.0000 -10642.6091 1452.0720 0.0000 0.0000 1768.1081 -7411.1969 301.2026 -9179.3051 -7456.3291 300.3201 193.1474 231.3062 30569.6223 -256.3778 -183.6694
ENERGY: 600000 2.5781 4.7480 4.9627 0.0000 -10731.7462 1420.2525 0.0000 0.0000 1715.8938 -7583.3111 292.3077 -9299.2049 -7494.7404 299.0213 -569.4763 -404.4044 30522.8569 -304.9942 -236.9694
ENERGY: 900000 4.8212 3.9936 2.3933 0.0000 -10650.1764 1448.4584 0.0000 0.0000 1745.2439 -7445.2660 297.3076 -9190.5099 -7482.4069 298.6391 204.9889 220.7092 30615.1175 -177.1254 -106.9658
ENERGY: 1200000 2.4104 4.5534 3.2069 0.0000 -10635.5547 1385.0824 0.0000 0.0000 1778.7293 -7461.5724 303.0119 -9240.3016 -7478.8268 299.2734 -459.9293 -430.5204 30701.7616 -188.8975 -119.5153
ENERGY: 1500000 1.8027 2.0134 2.9392 0.0000 -10534.5474 1321.6318 0.0000 0.0000 1819.8228 -7386.3374 310.0124 -9206.1602 -7466.0518 299.9737 -1053.3980 -980.7396 30730.2552 -209.4360 -142.7293
TCL: Running FEP window  10: Lambda1 0.5499999999999996 Lambda2 0.4999999999999996 [dLambda -0.04999999999999999]
TCL: Setting parameter firsttimestep to 0
TCL: Setting parameter alchLambda to 0.5499999999999996
Info: NONBONDED TABLE R-SQUARED SPACING: 0.0625
Info: NONBONDED TABLE SIZE: 705 POINTS
TCL: Setting parameter alchLambda2 to 0.4999999999999996
Info: NONBONDED TABLE R-SQUARED SPACING: 0.0625
Info: NONBONDED TABLE SIZE: 705 POINTS
TCL: Running for 1500000 steps
ETITLE: TS BOND ANGLE DIHED IMPRP ELECT VDW BOUNDARY MISC KINETIC TOTAL TEMP POTENTIAL TOTALAVG TEMPAVG PRESSURE GPRESSURE VOLUME PRESSAVG GPRESSAVG
ENERGY: 0 1.8027 2.0134 2.9392 0.0000 -10534.4036 1322.0240 0.0000 0.0000 1818.9840 -7386.6403 309.8695 -9205.6243 -7386.6403 309.8695 -1064.6755 -982.2224 30730.2552 -1064.6755 -982.2224
ENERGY: 300000 2.9428 3.5770 2.6848 0.0000 -10660.2396 1460.3161 0.0000 0.0000 1819.4802 -7371.2386 309.9540 -9190.7187 -7422.3161 303.5022 185.4609 308.3729 30476.3319 -370.7151 -272.6651
ENERGY: 600000 2.9107 6.3742 4.9519 0.0000 -10769.2740 1466.0643 0.0000 0.0000 1722.0648 -7566.9081 293.3590 -9288.9730 -7441.8795 304.3097 158.8552 182.2105 29840.9618 -87.5879 -20.1563
ENERGY: 900000 2.2770 3.1392 2.9173 0.0000 -10736.3522 1519.6054 0.0000 0.0000 1763.6508 -7444.7624 300.4433 -9208.4132 -7447.6734 303.5332 649.0714 706.4951 30564.8472 -89.0212 -16.6652
ENERGY: 1200000 2.4121 5.2294 7.4962 0.0000 -10729.6407 1502.1877 0.0000 0.0000 1724.6121 -7487.7032 293.7929 -9212.3153 -7468.6697 301.6015 561.3445 642.7414 29946.9441 -90.8318 -19.0189
ENERGY: 1500000 1.3559 4.3871 3.7895 0.0000 -10683.2810 1452.0898 0.0000 0.0000 1801.1762 -7420.4825 306.8358 -9221.6587 -7476.1862 300.6947 88.9291 208.6007 30407.6897 -111.7795 -40.0242
TCL: Running FEP window  11: Lambda1 0.4999999999999996 Lambda2 0.4499999999999996 [dLambda -0.04999999999999999]
TCL: Setting parameter firsttimestep to 0
TCL: Setting parameter alchLambda to 0.4999999999999996
Info: NONBONDED TABLE R-SQUARED SPACING: 0.0625
Info: NONBONDED TABLE SIZE: 705 POINTS
TCL: Setting parameter alchLambda2 to 0.4499999999999996
Info: NONBONDED TABLE R-SQUARED SPACING: 0.0625
Info: NONBONDED TABLE SIZE: 705 POINTS
TCL: Running for 1500000 steps
ETITLE: TS BOND ANGLE DIHED IMPRP ELECT VDW BOUNDARY MISC KINETIC TOTAL TEMP POTENTIAL TOTALAVG TEMPAVG PRESSURE GPRESSURE VOLUME PRESSAVG GPRESSAVG
ENERGY: 0 1.3559 4.3871 3.7895 0.0000 -10683.1699 1452.3062 0.0000 0.0000 1800.2998 -7421.0313 306.6866 -9221.3311 -7421.0313 306.6866 115.7319 202.8793 30407.6897 115.7319 202.8793
ENERGY: 300000 3.1918 6.7378 3.3896 0.0000 -10612.4465 1370.8467 0.0000 0.0000 1718.3592 -7509.9213 292.7277 -9228.2805 -7493.8315 300.6278 -838.1072 -738.4599 30781.6855 -211.3788 -129.6036
ENERGY: 600000 2.1660 4.7172 2.9487 0.0000 -10559.6994 1376.9023 0.0000 0.0000 1745.0346 -7427.9307 297.2719 -9172.9653 -7462.0735 301.6638 -521.8153 -438.1226 30756.0141 -82.4988 -8.3919
ENERGY: 900000 1.1062 4.8334 7.0469 0.0000 -10820.8125 1500.4787 0.0000 0.0000 1721.1611 -7586.1863 293.2050 -9307.3474 -7479.6390 300.4812 437.8297 512.1194 29876.6833 -17.2990 57.5438
ENERGY: 1200000 1.8783 3.9810 6.2704 0.0000 -10616.0042 1374.4084 0.0000 0.0000 1710.2378 -7519.2284 291.3442 -9229.4661 -7486.4563 299.0184 -878.0488 -860.7079 30812.1577 -61.0366 5.7542
ENERGY: 1500000 1.2917 4.7064 4.3289 0.0000 -10564.9122 1348.6851 0.0000 0.0000 1736.5011 -7469.3990 295.8182 -9205.9001 -7491.9203 298.1178 -539.7082 -470.6900 30412.2652 -60.5911 6.5855
TCL: Running FEP window  12: Lambda1 0.4499999999999996 Lambda2 0.39999999999999963 [dLambda -0.04999999999999999]
TCL: Setting parameter firsttimestep to 0
TCL: Setting parameter alchLambda to 0.4499999999999996
Info: NONBONDED TABLE R-SQUARED SPACING: 0.0625
Info: NONBONDED TABLE SIZE: 705 POINTS
TCL: Setting parameter alchLambda2 to 0.39999999999999963
Info: NONBONDED TABLE R-SQUARED SPACING: 0.0625
Info: NONBONDED TABLE SIZE: 705 POINTS
TCL: Running for 1500000 steps
ETITLE: TS BOND ANGLE DIHED IMPRP ELECT VDW BOUNDARY MISC KINETIC TOTAL TEMP POTENTIAL TOTALAVG TEMPAVG PRESSURE GPRESSURE VOLUME PRESSAVG GPRESSAVG
ENERGY: 0 1.2917 4.7064 4.3289 0.0000 -10564.9132 1349.1995 0.0000 0.0000 1735.6128 -7469.7740 295.6669 -9205.3867 -7469.7740 295.6669 -555.8623 -474.5798 30412.2652 -555.8623 -474.5798
ENERGY: 300000 1.1450 2.9845 3.7555 0.0000 -10674.6573 1463.8154 0.0000 0.0000 1779.8954 -7423.0615 303.2106 -9202.9569 -7482.9067 298.5963 256.1555 315.8152 30511.7548 -302.4718 -243.8264
ENERGY: 600000 3.2202 5.9203 1.1801 0.0000 -10605.3410 1418.6536 0.0000 0.0000 1784.9193 -7391.4475 304.0664 -9176.3669 -7462.5098 300.3441 -43.9333 51.6344 30333.6196 -380.9003 -312.0704
ENERGY: 900000 1.6708 3.4774 6.7344 0.0000 -10534.2219 1376.6482 0.0000 0.0000 1738.8865 -7406.8046 296.2246 -9145.6911 -7463.2936 299.3526 -304.9448 -247.8734 30667.7393 -307.9393 -236.3065
ENERGY: 1200000 2.9669 1.6568 5.0428 0.0000 -10740.8173 1460.1065 0.0000 0.0000 1691.3757 -7579.6685 288.1310 -9271.0442 -7464.6430 298.8136 102.3567 114.7190 30277.5953 -147.2967 -78.6275
ENERGY: 1500000 2.7297 11.1872 2.0570 0.0000 -10599.3172 1433.8227 0.0000 0.0000 1793.8629 -7355.6576 305.5900 -9149.5205 -7462.9605 298.9930 -7.0904 6.5157 30593.1895 -131.6085 -71.6473
TCL: Running FEP window  13: Lambda1 0.39999999999999963 Lambda2 0.34999999999999964 [dLambda -0.04999999999999999]
TCL: Setting parameter firsttimestep to 0
TCL: Setting parameter alchLambda to 0.39999999999999963
Info: NONBONDED TABLE R-SQUARED SPACING: 0.0625
Info: NONBONDED TABLE SIZE: 705 POINTS
TCL: Setting parameter alchLambda2 to 0.34999999999999964
Info: NONBONDED TABLE R-SQUARED SPACING: 0.0625
Info: NONBONDED TABLE SIZE: 705 POINTS
TCL: Running for 1500000 steps
ETITLE: TS BOND ANGLE DIHED IMPRP ELECT VDW BOUNDARY MISC KINETIC TOTAL TEMP POTENTIAL TOTALAVG TEMPAVG PRESSURE GPRESSURE VOLUME PRESSAVG GPRESSAVG
ENERGY: 0 2.7297 11.1872 2.0570 0.0000 -10599.3178 1433.7747 0.0000 0.0000 1792.9791 -7356.5901 305.4395 -9149.5692 -7356.5901 305.4395 -75.1880 4.2004 30593.1895 -75.1880 4.2004
ENERGY: 300000 2.3112 4.7729 3.5649 0.0000 -10642.4831 1443.4738 0.0000 0.0000 1767.3152 -7421.0451 301.0675 -9188.3603 -7427.4415 299.1857 -86.9721 29.4271 30681.6391 233.5600 313.3874
ENERGY: 600000 1.2474 3.8276 3.8817 0.0000 -10605.2746 1378.8073 0.0000 0.0000 1759.2236 -7458.2870 299.6891 -9217.5106 -7443.9899 300.3731 -566.0023 -514.5545 30835.9748 58.6788 121.2123
ENERGY: 900000 1.3140 9.6844 2.9107 0.0000 -10592.6369 1404.5903 0.0000 0.0000 1762.1818 -7411.9558 300.1930 -9174.1375 -7439.4405 300.6378 -181.4108 -69.8068 30532.5050 113.7183 184.9657
ENERGY: 1200000 0.9761 3.0453 4.0685 0.0000 -10674.0304 1441.4940 0.0000 0.0000 1713.5340 -7510.9124 291.9057 -9224.4465 -7448.2745 300.0805 125.1666 191.0359 30197.7210 117.5232 183.0669
ENERGY: 1500000 3.8591 6.9162 3.0649 0.0000 -10745.4851 1491.0226 0.0000 0.0000 1759.7010 -7480.9212 299.7704 -9240.6222 -7450.1008 299.9616 347.8486 337.7936 30465.4134 100.2138 159.9759
TCL: Running FEP window  14: Lambda1 0.34999999999999964 Lambda2 0.29999999999999966 [dLambda -0.04999999999999999]
TCL: Setting parameter firsttimestep to 0
TCL: Setting parameter alchLambda to 0.34999999999999964
Info: NONBONDED TABLE R-SQUARED SPACING: 0.0625
Info: NONBONDED TABLE SIZE: 705 POINTS
TCL: Setting parameter alchLambda2 to 0.29999999999999966
Info: NONBONDED TABLE R-SQUARED SPACING: 0.0625
Info: NONBONDED TABLE SIZE: 705 POINTS
TCL: Running for 1500000 steps
ETITLE: TS BOND ANGLE DIHED IMPRP ELECT VDW BOUNDARY MISC KINETIC TOTAL TEMP POTENTIAL TOTALAVG TEMPAVG PRESSURE GPRESSURE VOLUME PRESSAVG GPRESSAVG
ENERGY: 0 3.8592 6.9162 3.0649 0.0000 -10745.4846 1490.5423 0.0000 0.0000 1758.8163 -7482.2856 299.6197 -9241.1019 -7482.2856 299.6197 249.8119 329.1665 30465.4134 249.8119 329.1665
ENERGY: 300000 3.2349 3.6066 3.6174 0.0000 -10700.5766 1402.5259 0.0000 0.0000 1789.7610 -7497.8307 304.8912 -9287.5917 -7509.9760 299.5902 -686.3316 -574.3786 30734.8277 -70.4942 8.0323
ENERGY: 600000 3.6499 2.6551 3.9709 0.0000 -10621.5185 1375.4732 0.0000 0.0000 1768.9257 -7466.8436 301.3419 -9235.7693 -7497.2292 300.1706 -458.0371 -411.7772 30219.2702 -88.6640 -17.1221
ENERGY: 900000 1.2131 2.4391 3.3895 0.0000 -10705.7323 1406.6769 0.0000 0.0000 1727.7141 -7564.2996 294.3214 -9292.0137 -7502.0962 298.3211 -374.2506 -286.3704 30402.3547 -143.4012 -74.6259
ENERGY: 1200000 2.7987 8.1049 5.7617 0.0000 -10689.4123 1480.1333 0.0000 0.0000 1736.6746 -7455.9391 295.8478 -9192.6136 -7500.7027 298.9219 606.0281 614.0735 30099.3855 -34.2755 20.3444
ENERGY: 1500000 1.6303 2.8382 6.4699 0.0000 -10574.8348 1403.6856 0.0000 0.0000 1821.3357 -7338.8751 310.2701 -9160.2108 -7481.0418 299.3723 -133.9524 -46.2344 30417.6265 -59.9785 -4.6341
TCL: Running FEP window  15: Lambda1 0.29999999999999966 Lambda2 0.24999999999999967 [dLambda -0.04999999999999999]
TCL: Setting parameter firsttimestep to 0
TCL: Setting parameter alchLambda to 0.29999999999999966
Info: NONBONDED TABLE R-SQUARED SPACING: 0.0625
Info: NONBONDED TABLE SIZE: 705 POINTS
TCL: Setting parameter alchLambda2 to 0.24999999999999967
Info: NONBONDED TABLE R-SQUARED SPACING: 0.0625
Info: NONBONDED TABLE SIZE: 705 POINTS
TCL: Running for 1500000 steps
ETITLE: TS BOND ANGLE DIHED IMPRP ELECT VDW BOUNDARY MISC KINETIC TOTAL TEMP POTENTIAL TOTALAVG TEMPAVG PRESSURE GPRESSURE VOLUME PRESSAVG GPRESSAVG
ENERGY: 0 1.6303 2.8382 6.4699 0.0000 -10574.8347 1404.0407 0.0000 0.0000 1820.4711 -7339.3846 310.1228 -9159.8556 -7339.3846 310.1228 -132.6463 -47.0569 30417.6265 -132.6463 -47.0569
ENERGY: 300000 2.0545 5.7283 4.3851 0.0000 -10868.2190 1560.5854 0.0000 0.0000 1754.4060 -7541.0597 298.8684 -9295.4657 -7472.5866 301.1366 823.6234 862.2740 30133.5233 -75.8250 15.5044
ENERGY: 600000 3.0981 5.5468 3.1053 0.0000 -10535.6434 1353.8964 0.0000 0.0000 1743.7190 -7426.2778 297.0478 -9169.9968 -7475.6129 300.3640 -604.0184 -565.1366 30589.1484 -184.5310 -97.1153
ENERGY: 900000 2.7918 4.9500 3.5642 0.0000 -10634.4033 1420.3803 0.0000 0.0000 1763.6482 -7439.0689 300.4428 -9202.7170 -7475.8965 299.9781 -130.6171 -60.3881 30567.6408 -85.1466 -8.2814
ENERGY: 1200000 2.3327 4.0074 8.6939 0.0000 -10456.0240 1323.4367 0.0000 0.0000 1792.5052 -7325.0480 305.3587 -9117.5532 -7456.5707 300.5183 -635.8979 -605.7501 30600.8212 -96.2374 -19.8752
ENERGY: 1500000 2.7584 6.5946 2.9453 0.0000 -10665.2964 1410.5094 0.0000 0.0000 1712.6720 -7529.8167 291.7589 -9242.4886 -7457.1439 300.7823 -302.4001 -244.7143 30122.0697 -129.7944 -55.6038
TCL: Running FEP window  16: Lambda1 0.24999999999999967 Lambda2 0.19999999999999968 [dLambda -0.04999999999999999]
TCL: Setting parameter firsttimestep to 0
TCL: Setting parameter alchLambda to 0.24999999999999967
Info: NONBONDED TABLE R-SQUARED SPACING: 0.0625
Info: NONBONDED TABLE SIZE: 705 POINTS
TCL: Setting parameter alchLambda2 to 0.19999999999999968
Info: NONBONDED TABLE R-SQUARED SPACING: 0.0625
Info: NONBONDED TABLE SIZE: 705 POINTS
TCL: Running for 1500000 steps
ETITLE: TS BOND ANGLE DIHED IMPRP ELECT VDW BOUNDARY MISC KINETIC TOTAL TEMP POTENTIAL TOTALAVG TEMPAVG PRESSURE GPRESSURE VOLUME PRESSAVG GPRESSAVG
ENERGY: 0 2.7584 6.5946 2.9453 0.0000 -10665.2955 1410.7236 0.0000 0.0000 1711.7566 -7530.5170 291.6029 -9242.2735 -7530.5170 291.6029 -328.3631 -250.1543 30122.0697 -328.3631 -250.1543
ENERGY: 300000 1.8972 3.0938 6.7462 0.0000 -10769.3070 1497.1537 0.0000 0.0000 1745.6732 -7514.7428 297.3807 -9260.4160 -7493.9042 294.2918 639.2490 604.8428 29821.7222 -59.7576 -2.7742
ENERGY: 600000 5.3010 6.1249 2.1718 0.0000 -10701.1872 1441.6283 0.0000 0.0000 1779.9041 -7466.0572 303.2121 -9245.9612 -7495.3312 297.2472 -25.0457 7.3830 30119.6688 45.9186 94.0970
ENERGY: 900000 2.0006 1.9696 3.0143 0.0000 -10525.6774 1350.0739 0.0000 0.0000 1790.9956 -7377.6235 305.1015 -9168.6190 -7482.5772 298.2938 -330.2970 -297.7838 30241.8025 -88.8202 -31.9969
ENERGY: 1200000 1.6572 3.3557 3.2874 0.0000 -10762.3417 1482.5294 0.0000 0.0000 1724.1293 -7547.3827 293.7107 -9271.5120 -7485.1928 297.5876 267.3722 378.7544 30025.9514 -87.8508 -32.7971
ENERGY: 1500000 0.5896 1.6809 2.1736 0.0000 -10701.4909 1465.1190 0.0000 0.0000 1766.9032 -7465.0247 300.9973 -9231.9279 -7479.6715 297.9388 78.4832 170.8599 30602.1294 -85.0295 -25.9301
TCL: Running FEP window  17: Lambda1 0.19999999999999968 Lambda2 0.1499999999999997 [dLambda -0.04999999999999999]
TCL: Setting parameter firsttimestep to 0
TCL: Setting parameter alchLambda to 0.19999999999999968
Info: NONBONDED TABLE R-SQUARED SPACING: 0.0625
Info: NONBONDED TABLE SIZE: 705 POINTS
TCL: Setting parameter alchLambda2 to 0.1499999999999997
Info: NONBONDED TABLE R-SQUARED SPACING: 0.0625
Info: NONBONDED TABLE SIZE: 705 POINTS
TCL: Running for 1500000 steps
ETITLE: TS BOND ANGLE DIHED IMPRP ELECT VDW BOUNDARY MISC KINETIC TOTAL TEMP POTENTIAL TOTALAVG TEMPAVG PRESSURE GPRESSURE VOLUME PRESSAVG GPRESSAVG
ENERGY: 0 0.5896 1.6809 2.1736 0.0000 -10701.4936 1463.5127 0.0000 0.0000 1766.0329 -7467.5040 300.8491 -9233.5369 -7467.5040 300.8491 62.0516 157.8406 30602.1294 62.0516 157.8406
ENERGY: 300000 4.6879 4.3256 5.5037 0.0000 -10487.4822 1355.1443 0.0000 0.0000 1781.2082 -7336.6125 303.4342 -9117.8206 -7412.1964 300.4537 -480.5875 -412.6932 30525.2073 -283.8684 -209.5533
ENERGY: 600000 3.6465 4.6344 3.2741 0.0000 -10623.9185 1462.3192 0.0000 0.0000 1772.2313 -7377.8130 301.9050 -9150.0443 -7416.5791 301.0028 280.7137 306.9340 30474.8023 -171.0898 -104.0331
ENERGY: 900000 2.5593 6.0669 2.5987 0.0000 -10803.1746 1553.0524 0.0000 0.0000 1771.2035 -7467.6937 301.7299 -9238.8972 -7437.9947 301.3499 766.0056 814.1127 30434.7345 -171.9249 -102.9888
ENERGY: 1200000 1.8655 2.6755 3.8454 0.0000 -10705.5686 1477.5718 0.0000 0.0000 1809.6341 -7409.9762 308.2767 -9219.6103 -7439.4995 301.8415 218.0310 329.2931 30322.9789 -45.6799 25.4702
ENERGY: 1500000 1.6268 3.5039 5.4013 0.0000 -10622.5215 1424.2746 0.0000 0.0000 1750.3684 -7437.3466 298.1806 -9187.7149 -7442.0209 301.2665 -24.8216 47.4340 29988.6384 -74.1235 0.8777
TCL: Running FEP window  18: Lambda1 0.1499999999999997 Lambda2 0.09999999999999969 [dLambda -0.05 ]
TCL: Setting parameter firsttimestep to 0
TCL: Setting parameter alchLambda to 0.1499999999999997
Info: NONBONDED TABLE R-SQUARED SPACING: 0.0625
Info: NONBONDED TABLE SIZE: 705 POINTS
TCL: Setting parameter alchLambda2 to 0.09999999999999969
Info: NONBONDED TABLE R-SQUARED SPACING: 0.0625
Info: NONBONDED TABLE SIZE: 705 POINTS
TCL: Running for 1500000 steps
ETITLE: TS BOND ANGLE DIHED IMPRP ELECT VDW BOUNDARY MISC KINETIC TOTAL TEMP POTENTIAL TOTALAVG TEMPAVG PRESSURE GPRESSURE VOLUME PRESSAVG GPRESSAVG
ENERGY: 0 1.6268 3.5039 5.4013 0.0000 -10622.5221 1424.6159 0.0000 0.0000 1749.4632 -7437.9109 298.0264 -9187.3742 -7437.9109 298.0264 -26.3520 43.7721 29988.6384 -26.3520 43.7721
ENERGY: 300000 2.0827 6.5883 2.8081 0.0000 -10840.0051 1519.8216 0.0000 0.0000 1757.8759 -7550.8285 299.4595 -9308.7044 -7463.9708 299.7893 468.4911 534.5198 29855.4865 672.4206 740.6927
ENERGY: 600000 2.9825 11.9396 4.6135 0.0000 -10598.1864 1323.9797 0.0000 0.0000 1827.0743 -7427.5967 311.2477 -9254.6710 -7481.8737 300.3017 -976.4473 -888.3759 29917.1945 132.6189 199.3099
ENERGY: 900000 2.1726 2.9738 5.2521 0.0000 -10615.4861 1442.7957 0.0000 0.0000 1771.5043 -7390.7876 301.7811 -9162.2918 -7466.2371 301.0909 206.7907 169.9113 30476.5919 189.5009 246.8459
ENERGY: 1200000 1.9314 3.0296 4.3812 0.0000 -10691.2433 1370.5818 0.0000 0.0000 1799.5473 -7511.7719 306.5584 -9311.3192 -7477.5387 302.1015 -788.4018 -719.7808 30655.7281 118.5145 169.1122
ENERGY: 1500000 2.5014 5.9448 2.0326 0.0000 -10691.5376 1455.0709 0.0000 0.0000 1774.4510 -7451.5369 302.2831 -9225.9879 -7477.9098 301.8754 -29.6748 3.6997 30309.2458 8.1245 56.1252
TCL: Running FEP window  19: Lambda1 0.09999999999999969 Lambda2 0.049999999999999684 [dLambda -0.05 ]
TCL: Setting parameter firsttimestep to 0
TCL: Setting parameter alchLambda to 0.09999999999999969
Info: NONBONDED TABLE R-SQUARED SPACING: 0.0625
Info: NONBONDED TABLE SIZE: 705 POINTS
TCL: Setting parameter alchLambda2 to 0.049999999999999684
Info: NONBONDED TABLE R-SQUARED SPACING: 0.0625
Info: NONBONDED TABLE SIZE: 705 POINTS
TCL: Running for 1500000 steps
ETITLE: TS BOND ANGLE DIHED IMPRP ELECT VDW BOUNDARY MISC KINETIC TOTAL TEMP POTENTIAL TOTALAVG TEMPAVG PRESSURE GPRESSURE VOLUME PRESSAVG GPRESSAVG
ENERGY: 0 2.5014 5.9448 2.0326 0.0000 -10691.5363 1455.1686 0.0000 0.0000 1773.5687 -7452.3203 302.1328 -9225.8890 -7452.3203 302.1328 -84.7035 0.6810 30309.2458 -84.7035 0.6810
ENERGY: 300000 3.8265 3.4652 4.9044 0.0000 -10636.6093 1399.6785 0.0000 0.0000 1750.8640 -7473.8706 298.2650 -9224.7346 -7471.2562 299.3260 -196.2471 -125.9117 29973.8922 54.0847 94.9767
ENERGY: 600000 1.2406 3.7457 6.5670 0.0000 -10692.9218 1500.1458 0.0000 0.0000 1756.9859 -7424.2368 299.3079 -9181.2227 -7472.9405 299.9341 553.8369 622.2231 30527.1435 -30.5295 16.1037
ENERGY: 900000 0.6920 7.4937 5.0585 0.0000 -10676.8986 1463.0423 0.0000 0.0000 1777.1705 -7423.4416 302.7464 -9200.6121 -7466.6646 299.7482 174.0861 244.1972 30517.5883 -137.8392 -92.6284
ENERGY: 1200000 1.6788 5.7420 5.5018 0.0000 -10801.3692 1506.9754 0.0000 0.0000 1713.4108 -7568.0604 291.8848 -9281.4712 -7482.7935 297.8776 390.8732 465.9823 30006.5108 -135.2485 -83.2450
ENERGY: 1500000 1.0417 4.6434 3.4705 0.0000 -10637.4992 1385.2206 0.0000 0.0000 1803.6402 -7439.4829 307.2556 -9243.1231 -7474.9537 299.0277 -457.6902 -400.1799 30363.3901 -138.0058 -87.0569
TCL: Running FEP window  20: Lambda1 0.049999999999999684 Lambda2 0.0    [dLambda -0.049999999999999684]
TCL: Setting parameter firsttimestep to 0
TCL: Setting parameter alchLambda to 0.049999999999999684
Info: NONBONDED TABLE R-SQUARED SPACING: 0.0625
Info: NONBONDED TABLE SIZE: 705 POINTS
TCL: Setting parameter alchLambda2 to 0.0
Info: NONBONDED TABLE R-SQUARED SPACING: 0.0625
Info: NONBONDED TABLE SIZE: 705 POINTS
TCL: Running for 1500000 steps
ETITLE: TS BOND ANGLE DIHED IMPRP ELECT VDW BOUNDARY MISC KINETIC TOTAL TEMP POTENTIAL TOTALAVG TEMPAVG PRESSURE GPRESSURE VOLUME PRESSAVG GPRESSAVG
ENERGY: 0 1.0417 4.6434 3.4705 0.0000 -10637.4993 1385.4593 0.0000 0.0000 1802.7602 -7440.1242 307.1057 -9242.8844 -7440.1242 307.1057 -484.8489 -401.8961 30363.3901 -484.8489 -401.8961
ENERGY: 300000 2.3054 4.1903 3.8244 0.0000 -10644.4770 1340.8346 0.0000 0.0000 1765.1377 -7528.1847 300.6966 -9293.3223 -7478.7613 303.1683 -859.6236 -789.4950 30381.2445 -680.6212 -595.4189
ENERGY: 600000 4.1193 6.5625 2.1164 0.0000 -10804.5754 1539.4013 0.0000 0.0000 1754.3124 -7498.0633 298.8525 -9252.3758 -7484.0341 301.7574 425.2189 543.5092 30449.9430 -382.3098 -292.8156
ENERGY: 900000 3.3109 5.3163 3.8040 0.0000 -10670.9600 1429.8794 0.0000 0.0000 1797.7335 -7430.9159 306.2494 -9228.6494 -7481.2304 300.7908 -234.6957 -166.5388 30200.7959 -276.9725 -199.4600
ENERGY: 1200000 1.8457 5.1433 3.2152 0.0000 -10713.7073 1453.3032 0.0000 0.0000 1778.4159 -7471.7839 302.9586 -9250.1998 -7479.2570 301.0774 321.6875 349.9838 29723.0156 -130.8919 -60.0329
ENERGY: 1500000 4.7122 4.6945 4.1856 0.0000 -10487.8033 1297.1373 0.0000 0.0000 1774.9031 -7402.1707 302.3601 -9177.0738 -7469.0390 300.4738 -922.3249 -901.2271 30229.4993 -222.6894 -155.2540
TCL: Exiting due to exit command.
