Info: SIMULATION PARAMETERS:
Info: TIMESTEP               2
Info: NUMBER OF STEPS        0
Info: STEPS PER CYCLE        10
Info: PERIODIC CELL BASIS 1  30.0577 0 0
Info: PERIODIC CELL BASIS 2  0 30.3384 0
Info: PERIODIC CELL BASIS 3  0 0 32.9374
Info: PERIODIC CELL CENTER   0 0 0
Info: WRAPPING WATERS AROUND PERIODIC BOUNDARIES ON OUTPUT.
Info: WRAPPING ALL CLUSTERS AROUND PERIODIC BOUNDARIES ON OUTPUT.
Info: FIRST LDB TIMESTEP     50
Info: LAST LDB TIMESTEP     -1
Info: HOM BACKGROUND SCALING 1
Info: PME BACKGROUND SCALING 1
Info: MIN ATOMS PER PATCH    40
Info: EMPTY PATCH LOAD       40 ATOMS
Info: VELOCITY FILE          mobley_9114381_equil.vel
Info: CENTER OF MASS MOVING INITIALLY? NO
Info: DIELECTRIC             1
Info: EXCLUDE                SCALED ONE-FOUR
Info: 1-4 ELECTROSTATICS SCALED BY 0.833333
Info: MODIFIED 1-4 VDW PARAMETERS WILL BE USED
Info: DCD FILENAME           mobley_9114381_prod.dcd
Info: DCD FREQUENCY          100000
Info: DCD FIRST STEP         100000
Info: DCD FILE WILL CONTAIN UNIT CELL DATA
Info: XST FILENAME           mobley_9114381_prod.xst
Info: XST FREQUENCY          100000
Info: NO VELOCITY DCD OUTPUT
Info: NO FORCE DCD OUTPUT
Info: OUTPUT FILENAME        mobley_9114381_prod
Info: BINARY OUTPUT FILES WILL BE USED
Info: RESTART FILENAME       mobley_9114381_prod.restart
Info: RESTART FREQUENCY      100000
Info: BINARY RESTART FILES WILL BE USED
Info: CUTOFF                 9
Info: PAIRLIST DISTANCE      11
Info: PAIRLIST SHRINK RATE   0.01
Info: PAIRLIST GROW RATE     0.01
Info: PAIRLIST TRIGGER       0.3
Info: PAIRLISTS PER CYCLE    2
Info: PAIRLISTS ENABLED
Info: MARGIN                 2
Info: HYDROGEN GROUP CUTOFF  2.5
Info: PATCH DIMENSION        15.5
Info: ENERGY OUTPUT STEPS    100000
Info: ENERGY EVALUATION STEPS    100000
Info: OUTPUT ENERGY PRECISION 4
Info: CROSSTERM ENERGY INCLUDED IN DIHEDRAL
Info: TIMING OUTPUT STEPS    1000000
Info: PRESSURE OUTPUT STEPS  100000
Info: ALCHEMICAL FEP ON
Info: FEP CURRENT LAMBDA VALUE     1
Info: FEP COMPARISON LAMBDA VALUE  0.95
Info: FEP INTRA-ALCHEMICAL NON-BONDED INTERACTIONS WILL BE RETAINED
Info: FEP INTRA-ALCHEMICAL BONDED INTERACTIONS WILL BE RETAINED
Info: FEP VDW SHIFTING COEFFICIENT 5
Info: FEP ELEC. ACTIVE FOR ANNIHILATED PARTICLES BETWEEN LAMBDA = 0 AND LAMBDA = 0.5
Info: FEP ELEC. ACTIVE FOR EXNIHILATED PARTICLES BETWEEN LAMBDA = 0.5 AND LAMBDA = 1
Info: FEP VDW ACTIVE FOR ANNIHILATED PARTICLES BETWEEN LAMBDA = 0 AND LAMBDA = 1
Info: FEP VDW ACTIVE FOR EXNIHILATED PARTICLES BETWEEN LAMBDA = 0 AND LAMBDA = 1
Info: FEP BOND ACTIVE FOR ANNIHILATED PARTICLES BETWEEN LAMBDA = 1 AND LAMBDA = 1
Info: FEP BOND ACTIVE FOR EXNIHILATED PARTICLES BETWEEN LAMBDA = 0 AND LAMBDA = 0
Info: LANGEVIN DYNAMICS ACTIVE
Info: LANGEVIN TEMPERATURE   300
Info: LANGEVIN USING BBK INTEGRATOR
Info: LANGEVIN DAMPING COEFFICIENT IS 1 INVERSE PS
Info: LANGEVIN DYNAMICS APPLIED TO HYDROGENS
Info: LANGEVIN PISTON PRESSURE CONTROL ACTIVE
Info:        TARGET PRESSURE IS 1.01325 BAR
Info:     OSCILLATION PERIOD IS 50 FS
Info:             DECAY TIME IS 25 FS
Info:     PISTON TEMPERATURE IS 300 K
Info:       PRESSURE CONTROL IS GROUP-BASED
Info:    INITIAL STRAIN RATE IS -0.00040993 -0.00040993 -0.00040993
Info:       CELL FLUCTUATION IS ISOTROPIC
Info: PARTICLE MESH EWALD (PME) ACTIVE
Info: PME TOLERANCE               1e-06
Info: PME EWALD COEFFICIENT       0.348832
Info: PME INTERPOLATION ORDER     4
Info: PME GRID DIMENSIONS         32 32 36
Info: PME MAXIMUM GRID SPACING    1
Info: PME CALCULATION WILL BE PERFORMED ON GPU
Info: FULL ELECTROSTATIC EVALUATION FREQUENCY      2
Info: USING VERLET I (r-RESPA) MTS SCHEME.
Info: C1 SPLITTING OF LONG RANGE ELECTROSTATICS
Info: PLACING ATOMS IN PATCHES BY HYDROGEN GROUPS
Info: RIGID BONDS TO HYDROGEN : ALL
Info:         ERROR TOLERANCE : 1e-08
Info:          MAX ITERATIONS : 100
Info: RIGID WATER USING SETTLE ALGORITHM
Info: RANDOM NUMBER SEED     1743725928
Info: USE HYDROGEN BONDS?    NO
Info: Using AMBER format force field!
Info: AMBER PARM FILE        mobley_9114381.prmtop
Info: COORDINATE PDB         mobley_9114381.pdb
Info: Exclusions will be read from PARM file!
Info: SCNB (VDW SCALING)     2
Info: USING ARITHMETIC MEAN TO COMBINE L-J SIGMA PARAMETERS
Info: BINARY COORDINATES     mobley_9114381_equil.coor
Info: SUMMARY OF PARAMETERS:
Info: 10 BONDS
Info: 11 ANGLES
Info:   11 HARMONIC
Info:   0 COSINE-BASED
Info: 10 DIHEDRAL
Info: 0 IMPROPER
Info: 0 CROSSTERM
Info: 0 VDW
Info: 55 VDW_PAIRS
Info: 0 NBTHOLE_PAIRS
Info: To read alchdata from file: mobley_9114381.pdb
Info: To read alchflag data from column: 5
Info: STRUCTURE SUMMARY:
Info: 2937 ATOMS
Info: 2936 BONDS
Info: 17 ANGLES
Info: 22 DIHEDRALS
Info: 0 IMPROPERS
Info: 0 CROSSTERMS
Info: 2967 EXCLUSIONS
Info: 2930 RIGID BONDS
Info: ALCH: 0 ATOMS TO DISAPPEAR IN FINAL STATE
Info: ALCH: 12 ATOMS TO APPEAR IN FINAL STATE
Info: 5881 DEGREES OF FREEDOM
Info: 982 HYDROGEN GROUPS
Info: 4 ATOMS IN LARGEST HYDROGEN GROUP
Info: 982 MIGRATION GROUPS
Info: 4 ATOMS IN LARGEST MIGRATION GROUP
Info: TOTAL MASS = 17664.7 amu
Info: TOTAL CHARGE = -0.000200007 e
Info: MASS DENSITY = 0.976623 g/cm^3
Info: ATOM DENSITY = 0.0977835 atoms/A^3
Info: ADDED 0 IMPLICIT EXCLUSIONS
Info: NONBONDED TABLE R-SQUARED SPACING: 0.0625
Info: NONBONDED TABLE SIZE: 705 POINTS
Info: REMOVING COM VELOCITY -0.209232 -0.08918 0.0297829
Info: Use 3D box decompostion in PME FFT.
Info: Updated CUDA force table with 4096 elements.
Info: Updated CUDA LJ table with 10 x 10 elements.
Info: Found 14 unique exclusion lists needing 24 bytes
TCL: Running for 1500000 steps
ETITLE: TS BOND ANGLE DIHED IMPRP ELECT VDW BOUNDARY MISC KINETIC TOTAL TEMP POTENTIAL TOTALAVG TEMPAVG PRESSURE GPRESSURE VOLUME PRESSAVG GPRESSAVG
ENERGY: 0 1.3957 3.9992 2.5232 0.0000 -10579.9061 1315.2280 0.0000 0.0000 1769.0164 -7487.7434 302.7409 -9256.7599 -7487.7434 302.7409 -824.5161 -735.0066 30035.7297 -824.5161 -735.0066
ENERGY: 300000 0.8582 1.2440 1.3213 0.0000 -10587.0987 1395.6678 0.0000 0.0000 1723.5648 -7464.4426 294.9625 -9188.0074 -7476.0473 300.6041 -188.1746 -157.3124 30658.2490 -230.0170 -166.0916
ENERGY: 600000 0.5554 4.2095 1.9962 0.0000 -10732.9834 1443.5028 0.0000 0.0000 1822.2203 -7460.4993 311.8459 -9282.7195 -7478.2690 301.3976 -303.2939 -251.7191 30959.5571 -179.9165 -117.9211
ENERGY: 900000 1.7021 4.5705 1.3889 0.0000 -10720.9836 1422.1877 0.0000 0.0000 1756.2664 -7534.8680 300.5589 -9291.1344 -7485.9597 301.1505 -98.8233 -36.5041 30285.8013 -326.1216 -264.0829
ENERGY: 1200000 1.2858 10.8225 2.0067 0.0000 -10686.9804 1407.8690 0.0000 0.0000 1759.1254 -7505.8710 301.0482 -9264.9964 -7498.2882 299.9712 -233.4134 -121.4545 30256.9499 -347.6845 -283.1389
ENERGY: 1500000 1.0237 3.1393 1.2163 0.0000 -10710.8056 1407.3472 0.0000 0.0000 1735.2320 -7562.8471 296.9592 -9298.0792 -7503.3738 300.2438 -311.4889 -197.4328 30404.4926 -318.9487 -254.6052
TCL: Running FEP window   2: Lambda1 0.95   Lambda2 0.8999999999999999 [dLambda -0.050000000000000044]
TCL: Setting parameter firsttimestep to 0
TCL: Setting parameter alchLambda to 0.95
Info: NONBONDED TABLE R-SQUARED SPACING: 0.0625
Info: NONBONDED TABLE SIZE: 705 POINTS
TCL: Setting parameter alchLambda2 to 0.8999999999999999
Info: NONBONDED TABLE R-SQUARED SPACING: 0.0625
Info: NONBONDED TABLE SIZE: 705 POINTS
TCL: Running for 1500000 steps
ETITLE: TS BOND ANGLE DIHED IMPRP ELECT VDW BOUNDARY MISC KINETIC TOTAL TEMP POTENTIAL TOTALAVG TEMPAVG PRESSURE GPRESSURE VOLUME PRESSAVG GPRESSAVG
ENERGY: 0 1.0237 3.1393 1.2163 0.0000 -10708.5302 1407.1126 0.0000 0.0000 1734.3489 -7561.6894 296.8081 -9296.0384 -7561.6894 296.8081 -292.9146 -210.2779 30404.4926 -292.9146 -210.2779
ENERGY: 300000 0.7210 7.4561 2.4377 0.0000 -10827.7661 1487.8697 0.0000 0.0000 1724.1516 -7605.1299 295.0629 -9329.2816 -7544.4072 300.7987 410.1331 418.9995 29907.0533 80.0547 122.1940
ENERGY: 600000 0.8972 4.4977 1.7018 0.0000 -10738.8856 1403.1801 0.0000 0.0000 1741.3258 -7587.2830 298.0020 -9328.6088 -7551.3579 298.6460 -425.0199 -289.6411 30086.9280 16.5376 70.6197
ENERGY: 900000 1.0613 7.1279 4.5477 0.0000 -10621.1141 1453.5381 0.0000 0.0000 1747.4294 -7407.4097 299.0466 -9154.8391 -7535.7690 300.4202 89.7278 133.4113 30859.1454 -95.0300 -46.7021
ENERGY: 1200000 7.2378 3.3742 3.6380 0.0000 -10635.8169 1359.9747 0.0000 0.0000 1761.3850 -7500.2071 301.4349 -9261.5921 -7523.5567 301.0483 -417.2099 -349.3046 30179.1591 -140.6978 -94.7701
ENERGY: 1500000 1.3844 3.6637 3.9098 0.0000 -10548.0252 1312.4125 0.0000 0.0000 1746.8469 -7479.8079 298.9469 -9226.6549 -7511.2559 301.0945 -761.9161 -617.8814 29972.3191 -199.5731 -146.2549
TCL: Running FEP window   3: Lambda1 0.8999999999999999 Lambda2 0.8499999999999999 [dLambda -0.050000000000000044]
TCL: Setting parameter firsttimestep to 0
TCL: Setting parameter alchLambda to 0.8999999999999999
Info: NONBONDED TABLE R-SQUARED SPACING: 0.0625
Info: NONBONDED TABLE SIZE: 705 POINTS
TCL: Setting parameter alchLambda2 to 0.8499999999999999
Info: NONBONDED TABLE R-SQUARED SPACING: 0.0625
Info: NONBONDED TABLE SIZE: 705 POINTS
TCL: Running for 1500000 steps
ETITLE: TS BOND ANGLE DIHED IMPRP ELECT VDW BOUNDARY MISC KINETIC TOTAL TEMP POTENTIAL TOTALAVG TEMPAVG PRESSURE GPRESSURE VOLUME PRESSAVG GPRESSAVG
ENERGY: 0 1.3844 3.6637 3.9098 0.0000 -10546.5616 1311.4076 0.0000 0.0000 1745.9769 -7480.2192 298.7980 -9226.1961 -7480.2192 298.7980 -723.3851 -640.8464 29972.3191 -723.3851 -640.8464
ENERGY: 300000 1.1810 5.2464 2.0883 0.0000 -10768.0953 1421.9173 0.0000 0.0000 1738.5738 -7599.0885 297.5311 -9337.6622 -7542.2163 297.8703 -67.1766 -62.8554 29837.6434 -290.2493 -236.2161
ENERGY: 600000 3.2191 4.0629 2.2745 0.0000 -10628.1770 1409.6422 0.0000 0.0000 1696.8948 -7512.0836 290.3983 -9208.9783 -7530.8931 297.5417 -565.3371 -467.5008 30900.9010 -380.1633 -320.1519
ENERGY: 900000 1.2255 6.1544 2.1246 0.0000 -10716.8909 1486.3547 0.0000 0.0000 1790.3923 -7430.6394 306.3990 -9221.0317 -7526.1986 298.3137 471.3766 550.6948 30539.0096 -300.9537 -238.3008
ENERGY: 1200000 1.0197 7.0497 2.6233 0.0000 -10629.7267 1390.0902 0.0000 0.0000 1759.1505 -7469.7933 301.0525 -9228.9438 -7509.0230 299.0826 -322.5810 -314.0063 30539.6553 -268.7140 -216.6305
ENERGY: 1500000 1.9004 8.2333 2.7742 0.0000 -10692.9559 1450.0865 0.0000 0.0000 1777.7795 -7452.1820 304.2406 -9229.9615 -7503.1473 299.3379 89.3610 170.3369 30541.9176 -287.3561 -230.0584
TCL: Running FEP window   4: Lambda1 0.8499999999999999 Lambda2 0.7999999999999998 [dLambda -0.050000000000000044]
TCL: Setting parameter firsttimestep to 0
TCL: Setting parameter alchLambda to 0.8499999999999999
Info: NONBONDED TABLE R-SQUARED SPACING: 0.0625
Info: NONBONDED TABLE SIZE: 705 POINTS
TCL: Setting parameter alchLambda2 to 0.7999999999999998
Info: NONBONDED TABLE R-SQUARED SPACING: 0.0625
Info: NONBONDED TABLE SIZE: 705 POINTS
TCL: Running for 1500000 steps
ETITLE: TS BOND ANGLE DIHED IMPRP ELECT VDW BOUNDARY MISC KINETIC TOTAL TEMP POTENTIAL TOTALAVG TEMPAVG PRESSURE GPRESSURE VOLUME PRESSAVG GPRESSAVG
ENERGY: 0 1.9004 8.2333 2.7742 0.0000 -10691.3538 1450.5614 0.0000 0.0000 1776.8954 -7450.9892 304.0892 -9227.8846 -7450.9892 304.0892 84.6832 167.3847 30541.9176 84.6832 167.3847
ENERGY: 300000 2.6297 6.9573 2.8105 0.0000 -10827.1779 1506.2467 0.0000 0.0000 1752.4473 -7556.0864 299.9053 -9308.5337 -7511.2268 300.7331 239.0962 348.0053 30423.7286 103.6073 185.3326
ENERGY: 600000 0.7146 3.4805 2.1899 0.0000 -10673.1619 1334.2785 0.0000 0.0000 1777.9762 -7554.5222 304.2742 -9332.4984 -7490.0123 301.1632 -776.9717 -725.5094 30142.0836 -246.9282 -172.9393
ENERGY: 900000 3.1618 3.2674 3.3868 0.0000 -10830.6641 1488.9102 0.0000 0.0000 1783.0377 -7548.9003 305.1404 -9331.9379 -7505.1118 301.1589 577.9663 606.6974 29884.0539 -123.9578 -49.8896
ENERGY: 1200000 4.4762 3.3316 2.3397 0.0000 -10738.9309 1465.0160 0.0000 0.0000 1711.8121 -7551.9554 292.9512 -9263.7675 -7504.5627 299.8090 311.9105 401.5663 29694.4725 -56.9215 16.9338
ENERGY: 1500000 2.6034 5.3197 2.4445 0.0000 -10820.0353 1479.1139 0.0000 0.0000 1745.8303 -7584.7234 298.7729 -9330.5538 -7509.5598 300.0925 87.6184 132.5007 30350.4894 -41.3399 30.6566
TCL: Running FEP window   5: Lambda1 0.7999999999999998 Lambda2 0.7499999999999998 [dLambda -0.050000000000000044]
TCL: Setting parameter firsttimestep to 0
TCL: Setting parameter alchLambda to 0.7999999999999998
Info: NONBONDED TABLE R-SQUARED SPACING: 0.0625
Info: NONBONDED TABLE SIZE: 705 POINTS
TCL: Setting parameter alchLambda2 to 0.7499999999999998
Info: NONBONDED TABLE R-SQUARED SPACING: 0.0625
Info: NONBONDED TABLE SIZE: 705 POINTS
TCL: Running for 1500000 steps
ETITLE: TS BOND ANGLE DIHED IMPRP ELECT VDW BOUNDARY MISC KINETIC TOTAL TEMP POTENTIAL TOTALAVG TEMPAVG PRESSURE GPRESSURE VOLUME PRESSAVG GPRESSAVG
ENERGY: 0 2.6034 5.3197 2.4445 0.0000 -10818.6635 1479.2172 0.0000 0.0000 1744.9275 -7584.1512 298.6184 -9329.0787 -7584.1512 298.6184 43.6672 123.4190 30350.4894 43.6672 123.4190
ENERGY: 300000 1.0033 4.7124 2.4735 0.0000 -10788.3768 1554.1990 0.0000 0.0000 1733.1531 -7492.8357 296.6034 -9225.9887 -7473.5917 302.8065 1002.2577 1028.4300 30231.0770 -78.3291 -15.7934
ENERGY: 600000 2.1169 4.4950 1.1104 0.0000 -10697.3996 1417.4627 0.0000 0.0000 1773.5981 -7498.6165 303.5250 -9272.2146 -7490.9277 302.3859 -74.9089 18.7344 30263.5206 -26.2727 56.6387
ENERGY: 900000 1.3612 1.5967 2.5347 0.0000 -10734.8501 1434.0241 0.0000 0.0000 1813.8313 -7481.5020 310.4103 -9295.3333 -7502.0661 302.4294 65.7350 120.2298 30139.9806 -39.0124 41.5839
ENERGY: 1200000 1.7374 4.1757 1.9465 0.0000 -10677.2878 1454.1680 0.0000 0.0000 1799.2037 -7416.0565 307.9070 -9215.2602 -7485.8247 302.8024 369.7995 364.0992 30056.6821 -42.3392 28.3112
ENERGY: 1500000 2.7448 4.3952 1.8080 0.0000 -10639.8359 1406.8055 0.0000 0.0000 1795.4075 -7428.6749 307.2573 -9224.0824 -7480.1391 303.0516 -116.4303 -103.4357 30287.4489 -54.2620 11.7957
TCL: Running FEP window   6: Lambda1 0.7499999999999998 Lambda2 0.6999999999999997 [dLambda -0.050000000000000044]
TCL: Setting parameter firsttimestep to 0
TCL: Setting parameter alchLambda to 0.7499999999999998
Info: NONBONDED TABLE R-SQUARED SPACING: 0.0625
Info: NONBONDED TABLE SIZE: 705 POINTS
TCL: Setting parameter alchLambda2 to 0.6999999999999997
Info: NONBONDED TABLE R-SQUARED SPACING: 0.0625
Info: NONBONDED TABLE SIZE: 705 POINTS
TCL: Running for 1500000 steps
ETITLE: TS BOND ANGLE DIHED IMPRP ELECT VDW BOUNDARY MISC KINETIC TOTAL TEMP POTENTIAL TOTALAVG TEMPAVG PRESSURE GPRESSURE VOLUME PRESSAVG GPRESSAVG
ENERGY: 0 2.7448 4.3952 1.8080 0.0000 -10638.1162 1406.0061 0.0000 0.0000 1794.5249 -7428.6373 307.1063 -9223.1622 -7428.6373 307.1063 -177.1713 -120.5705 30287.4489 -177.1713 -120.5705
ENERGY: 300000 3.7480 3.2643 2.8087 0.0000 -10484.3593 1287.3950 0.0000 0.0000 1732.8093 -7454.3340 296.5446 -9187.1432 -7444.9247 303.8136 -881.1942 -793.9815 30122.5320 55.3007 126.0798
ENERGY: 600000 4.0691 3.0644 2.7136 0.0000 -10532.9110 1327.4852 0.0000 0.0000 1781.2889 -7414.2898 304.8411 -9195.5787 -7464.1661 301.7821 -526.8290 -478.3264 30065.9786 81.6360 152.7670
ENERGY: 900000 7.9049 3.1388 2.5991 0.0000 -10787.3048 1504.9842 0.0000 0.0000 1729.9388 -7538.7391 296.0533 -9268.6779 -7470.1970 301.3733 448.7988 529.6690 30099.9978 100.5946 166.2583
ENERGY: 1200000 2.2135 5.3332 0.8860 0.0000 -10753.0521 1532.0335 0.0000 0.0000 1702.6347 -7509.9514 291.3806 -9212.5860 -7467.5169 300.8872 794.9232 842.1781 30258.0741 209.1452 271.2842
ENERGY: 1500000 2.2958 4.7173 1.0445 0.0000 -10728.0170 1422.1939 0.0000 0.0000 1688.1625 -7609.6030 288.9039 -9297.7655 -7482.3563 300.2442 -317.4982 -305.6926 30337.8778 199.8873 263.6139
TCL: Running FEP window   7: Lambda1 0.6999999999999997 Lambda2 0.6499999999999997 [dLambda -0.050000000000000044]
TCL: Setting parameter firsttimestep to 0
TCL: Setting parameter alchLambda to 0.6999999999999997
Info: NONBONDED TABLE R-SQUARED SPACING: 0.0625
Info: NONBONDED TABLE SIZE: 705 POINTS
TCL: Setting parameter alchLambda2 to 0.6499999999999997
Info: NONBONDED TABLE R-SQUARED SPACING: 0.0625
Info: NONBONDED TABLE SIZE: 705 POINTS
TCL: Running for 1500000 steps
ETITLE: TS BOND ANGLE DIHED IMPRP ELECT VDW BOUNDARY MISC KINETIC TOTAL TEMP POTENTIAL TOTALAVG TEMPAVG PRESSURE GPRESSURE VOLUME PRESSAVG GPRESSAVG
ENERGY: 0 2.2958 4.7173 1.0445 0.0000 -10727.4462 1422.4609 0.0000 0.0000 1687.3279 -7609.5998 288.7611 -9296.9277 -7609.5998 288.7611 -400.6706 -310.1411 30337.8778 -400.6706 -310.1411
ENERGY: 300000 1.2535 4.4223 3.7408 0.0000 -10601.6280 1388.4674 0.0000 0.0000 1724.4266 -7479.3174 295.1100 -9203.7440 -7489.6774 297.9945 -296.5669 -231.7695 30380.0525 -308.7437 -247.6090
ENERGY: 600000 1.7979 7.0053 2.3766 0.0000 -10729.9089 1398.1831 0.0000 0.0000 1754.6589 -7565.8871 300.2838 -9320.5460 -7500.3543 298.8008 -407.6432 -337.0834 30080.9026 -306.3899 -250.3972
ENERGY: 900000 1.4270 5.1190 2.2892 0.0000 -10790.2311 1465.6209 0.0000 0.0000 1722.4329 -7593.3421 294.7688 -9315.7750 -7496.9334 298.8160 68.5046 167.2269 30098.7706 -386.2643 -324.9013
ENERGY: 1200000 0.6209 4.5751 2.9239 0.0000 -10721.6449 1434.4375 0.0000 0.0000 1727.7643 -7551.3232 295.6812 -9279.0874 -7506.8330 298.3968 -78.1979 -12.1597 29974.1268 -260.4321 -197.2400
ENERGY: 1500000 1.3419 6.1747 1.9824 0.0000 -10614.7004 1383.2479 0.0000 0.0000 1754.4681 -7467.4854 300.2512 -9221.9535 -7502.9966 298.7068 -441.2794 -401.1751 30412.9772 -251.4969 -189.4395
TCL: Running FEP window   8: Lambda1 0.6499999999999997 Lambda2 0.5999999999999996 [dLambda -0.050000000000000044]
TCL: Setting parameter firsttimestep to 0
TCL: Setting parameter alchLambda to 0.6499999999999997
Info: NONBONDED TABLE R-SQUARED SPACING: 0.0625
Info: NONBONDED TABLE SIZE: 705 POINTS
TCL: Setting parameter alchLambda2 to 0.5999999999999996
Info: NONBONDED TABLE R-SQUARED SPACING: 0.0625
Info: NONBONDED TABLE SIZE: 705 POINTS
TCL: Running for 1500000 steps
ETITLE: TS BOND ANGLE DIHED IMPRP ELECT VDW BOUNDARY MISC KINETIC TOTAL TEMP POTENTIAL TOTALAVG TEMPAVG PRESSURE GPRESSURE VOLUME PRESSAVG GPRESSAVG
ENERGY: 0 1.3419 6.1747 1.9824 0.0000 -10612.8593 1383.1251 0.0000 0.0000 1753.6093 -7466.6260 300.1042 -9220.2353 -7466.6260 300.1042 -487.4514 -406.7187 30412.9772 -487.4514 -406.7187
ENERGY: 300000 1.5128 5.2409 4.0936 0.0000 -10772.8295 1461.3782 0.0000 0.0000 1761.1888 -7539.4151 301.4013 -9300.6039 -7482.6519 300.6899 54.3052 132.5330 30182.7165 -6.0326 66.5530
ENERGY: 600000 0.6261 4.3530 3.5788 0.0000 -10820.1386 1561.6399 0.0000 0.0000 1782.6675 -7467.2732 305.0771 -9249.9408 -7512.3800 299.3954 1066.2495 1189.6576 30031.6171 183.2743 255.8934
ENERGY: 900000 3.1287 6.1040 2.7706 0.0000 -10751.9933 1486.5868 0.0000 0.0000 1771.5917 -7481.8114 303.1816 -9253.4031 -7505.4345 299.7931 635.6397 648.1803 30139.5005 74.1194 135.9809
ENERGY: 1200000 1.5104 3.6528 2.4573 0.0000 -10733.9706 1467.7492 0.0000 0.0000 1771.4644 -7487.1367 303.1598 -9258.6011 -7500.7525 300.1302 114.4814 205.3536 30644.2916 30.1705 94.0062
ENERGY: 1500000 2.0193 6.6187 2.3234 0.0000 -10604.0434 1344.4239 0.0000 0.0000 1872.6839 -7375.9742 320.4820 -9248.6581 -7489.6997 301.2673 -338.6288 -243.0814 29925.7604 44.8685 107.7344
TCL: Running FEP window   9: Lambda1 0.5999999999999996 Lambda2 0.5499999999999996 [dLambda -0.050000000000000044]
TCL: Setting parameter firsttimestep to 0
TCL: Setting parameter alchLambda to 0.5999999999999996
Info: NONBONDED TABLE R-SQUARED SPACING: 0.0625
Info: NONBONDED TABLE SIZE: 705 POINTS
TCL: Setting parameter alchLambda2 to 0.5499999999999996
Info: NONBONDED TABLE R-SQUARED SPACING: 0.0625
Info: NONBONDED TABLE SIZE: 705 POINTS
TCL: Running for 1500000 steps
ETITLE: TS BOND ANGLE DIHED IMPRP ELECT VDW BOUNDARY MISC KINETIC TOTAL TEMP POTENTIAL TOTALAVG TEMPAVG PRESSURE GPRESSURE VOLUME PRESSAVG GPRESSAVG
ENERGY: 0 2.0193 6.6187 2.3234 0.0000 -10603.0204 1344.2686 0.0000 0.0000 1871.8003 -7375.9901 320.3308 -9247.7904 -7375.9901 320.3308 -342.9655 -251.5134 29925.7604 -342.9655 -251.5134
ENERGY: 300000 1.2150 5.3856 2.3739 0.0000 -10705.0822 1422.4617 0.0000 0.0000 1739.9361 -7533.7099 297.7642 -9273.6460 -7478.7440 306.4806 277.1420 258.4448 29549.1605 -14.8213 27.6623
ENERGY: 600000 1.5766 3.3379 3.4257 0.0000 -10609.0272 1353.4347 0.0000 0.0000 1779.0978 -7468.1545 304.4662 -9247.2522 -7486.4264 304.2242 -766.4642 -694.2505 30523.4704 -271.4422 -216.7214
ENERGY: 900000 1.2863 5.8403 4.4590 0.0000 -10670.0399 1420.0590 0.0000 0.0000 1733.3504 -7505.0450 296.6372 -9238.3954 -7468.4591 303.2343 -133.7172 -37.6526 30137.4083 -260.0559 -201.7820
ENERGY: 1200000 2.1918 4.3116 2.0382 0.0000 -10850.5044 1538.4934 0.0000 0.0000 1742.5864 -7560.8828 298.2178 -9303.4693 -7492.9129 301.6779 955.6506 940.2320 29838.7540 -173.2658 -122.2546
ENERGY: 1500000 2.7266 3.8558 2.8090 0.0000 -10751.5568 1476.3467 0.0000 0.0000 1754.6474 -7511.1714 300.2818 -9265.8188 -7488.3460 301.6658 204.9325 226.9814 30123.7971 -117.3731 -68.3218
TCL: Running FEP window  10: Lambda1 0.5499999999999996 Lambda2 0.4999999999999996 [dLambda -0.04999999999999999]
TCL: Setting parameter firsttimestep to 0
TCL: Setting parameter alchLambda to 0.5499999999999996
Info: NONBONDED TABLE R-SQUARED SPACING: 0.0625
Info: NONBONDED TABLE SIZE: 705 POINTS
TCL: Setting parameter alchLambda2 to 0.4999999999999996
Info: NONBONDED TABLE R-SQUARED SPACING: 0.0625
Info: NONBONDED TABLE SIZE: 705 POINTS
TCL: Running for 1500000 steps
ETITLE: TS BOND ANGLE DIHED IMPRP ELECT VDW BOUNDARY MISC KINETIC TOTAL TEMP POTENTIAL TOTALAVG TEMPAVG PRESSURE GPRESSURE VOLUME PRESSAVG GPRESSAVG
ENERGY: 0 2.7266 3.8558 2.8090 0.0000 -10751.4668 1476.6007 0.0000 0.0000 1753.7360 -7511.7386 300.1259 -9265.4746 -7511.7386 300.1259 137.9998 219.7763 30123.7971 137.9998 219.7763
ENERGY: 300000 2.4840 4.6988 2.9723 0.0000 -10716.9953 1413.0696 0.0000 0.0000 1744.0214 -7549.7492 298.4634 -9293.7705 -7527.1281 301.1309 -146.9829 -40.2994 30159.2380 -13.1458 55.5676
ENERGY: 600000 3.8526 4.2436 2.8562 0.0000 -10688.4333 1404.4151 0.0000 0.0000 1726.5658 -7546.5000 295.4761 -9273.0658 -7551.7125 299.6902 -443.9129 -388.1098 30096.6117 28.3754 100.0635
ENERGY: 900000 1.0668 4.4586 1.6259 0.0000 -10691.9796 1381.9190 0.0000 0.0000 1758.0536 -7544.8557 300.8648 -9302.9093 -7543.2604 301.0511 -440.2679 -386.2811 30223.2559 -108.1546 -34.6657
ENERGY: 1200000 4.0560 6.9185 2.4083 0.0000 -10748.5840 1445.4712 0.0000 0.0000 1778.2590 -7511.4710 304.3226 -9289.7300 -7537.5503 301.8199 -68.3903 10.5856 30212.8341 -73.5659 -0.0080
ENERGY: 1500000 1.0311 5.4750 2.5869 0.0000 -10641.0659 1431.6616 0.0000 0.0000 1723.9925 -7476.3188 295.0357 -9200.3113 -7528.4127 301.9794 172.8103 210.6497 29919.6819 -11.2872 57.5332
TCL: Running FEP window  11: Lambda1 0.4999999999999996 Lambda2 0.4499999999999996 [dLambda -0.04999999999999999]
TCL: Setting parameter firsttimestep to 0
TCL: Setting parameter alchLambda to 0.4999999999999996
Info: NONBONDED TABLE R-SQUARED SPACING: 0.0625
Info: NONBONDED TABLE SIZE: 705 POINTS
TCL: Setting parameter alchLambda2 to 0.4499999999999996
Info: NONBONDED TABLE R-SQUARED SPACING: 0.0625
Info: NONBONDED TABLE SIZE: 705 POINTS
TCL: Running for 1500000 steps
ETITLE: TS BOND ANGLE DIHED IMPRP ELECT VDW BOUNDARY MISC KINETIC TOTAL TEMP POTENTIAL TOTALAVG TEMPAVG PRESSURE GPRESSURE VOLUME PRESSAVG GPRESSAVG
ENERGY: 0 1.0311 5.4750 2.5869 0.0000 -10641.2394 1432.2670 0.0000 0.0000 1723.0954 -7476.7839 294.8822 -9199.8794 -7476.7839 294.8822 142.2896 208.5480 29919.6819 142.2896 208.5480
ENERGY: 300000 3.0745 2.6494 2.2594 0.0000 -10655.5035 1426.7176 0.0000 0.0000 1742.9577 -7477.8449 298.2813 -9220.8026 -7491.1712 296.5867 -129.8570 -51.5777 30624.5830 -54.1327 16.7651
ENERGY: 600000 3.4751 2.6962 3.1601 0.0000 -10628.3378 1454.7326 0.0000 0.0000 1808.0694 -7356.2044 309.4242 -9164.2738 -7467.9865 299.6458 317.1359 369.9421 30495.9574 -22.9768 45.9493
ENERGY: 900000 1.6912 4.8864 3.1478 0.0000 -10771.4406 1498.3437 0.0000 0.0000 1695.0817 -7568.2897 290.0880 -9263.3714 -7494.2395 297.6585 408.1908 429.1877 30152.9870 137.9317 205.5157
ENERGY: 1200000 0.6872 1.9411 1.9424 0.0000 -10607.9045 1351.2654 0.0000 0.0000 1788.3742 -7463.6943 306.0537 -9252.0684 -7494.2098 298.4684 -820.7925 -656.2308 30243.1030 54.7266 125.8469
ENERGY: 1500000 0.4812 4.7032 3.3215 0.0000 -10766.7883 1473.9408 0.0000 0.0000 1737.7060 -7546.6356 297.3826 -9284.3416 -7507.8784 298.2811 473.8061 600.6424 29400.0136 122.6487 195.6083
TCL: Running FEP window  12: Lambda1 0.4499999999999996 Lambda2 0.39999999999999963 [dLambda -0.04999999999999999]
TCL: Setting parameter firsttimestep to 0
TCL: Setting parameter alchLambda to 0.4499999999999996
Info: NONBONDED TABLE R-SQUARED SPACING: 0.0625
Info: NONBONDED TABLE SIZE: 705 POINTS
TCL: Setting parameter alchLambda2 to 0.39999999999999963
Info: NONBONDED TABLE R-SQUARED SPACING: 0.0625
Info: NONBONDED TABLE SIZE: 705 POINTS
TCL: Running for 1500000 steps
ETITLE: TS BOND ANGLE DIHED IMPRP ELECT VDW BOUNDARY MISC KINETIC TOTAL TEMP POTENTIAL TOTALAVG TEMPAVG PRESSURE GPRESSURE VOLUME PRESSAVG GPRESSAVG
ENERGY: 0 0.4812 4.7032 3.3215 0.0000 -10766.7898 1474.1216 0.0000 0.0000 1736.8461 -7547.3162 297.2354 -9284.1623 -7547.3162 297.2354 515.9928 593.2156 29400.0136 515.9928 593.2156
ENERGY: 300000 2.2168 3.8916 2.1952 0.0000 -10571.2832 1408.5075 0.0000 0.0000 1762.9503 -7391.5217 301.7028 -9154.4721 -7460.3182 302.2835 -239.3081 -177.8870 31089.9035 11.8025 66.8852
ENERGY: 600000 3.0577 4.3484 3.2800 0.0000 -10594.2398 1371.3179 0.0000 0.0000 1805.5663 -7406.6695 308.9959 -9212.2358 -7447.4174 302.5594 -244.3203 -211.3610 30274.6548 -57.3752 4.3058
ENERGY: 900000 2.1467 3.5967 1.3566 0.0000 -10685.1094 1423.8408 0.0000 0.0000 1714.8143 -7539.3542 293.4650 -9254.1685 -7463.1991 301.7921 -20.6724 60.2059 29895.0614 182.2341 237.5622
ENERGY: 1200000 0.9784 5.3988 3.7872 0.0000 -10780.4736 1447.7910 0.0000 0.0000 1763.8723 -7558.6459 301.8605 -9322.5182 -7459.5975 302.4044 -163.0208 -103.9146 29927.2685 175.6021 228.2512
ENERGY: 1500000 5.4792 7.1144 1.5877 0.0000 -10782.8086 1536.6536 0.0000 0.0000 1723.9540 -7508.0197 295.0291 -9231.9737 -7465.5633 301.3790 616.5166 635.6497 30409.0908 179.9847 230.4977
TCL: Running FEP window  13: Lambda1 0.39999999999999963 Lambda2 0.34999999999999964 [dLambda -0.04999999999999999]
TCL: Setting parameter firsttimestep to 0
TCL: Setting parameter alchLambda to 0.39999999999999963
Info: NONBONDED TABLE R-SQUARED SPACING: 0.0625
Info: NONBONDED TABLE SIZE: 705 POINTS
TCL: Setting parameter alchLambda2 to 0.34999999999999964
Info: NONBONDED TABLE R-SQUARED SPACING: 0.0625
Info: NONBONDED TABLE SIZE: 705 POINTS
TCL: Running for 1500000 steps
ETITLE: TS BOND ANGLE DIHED IMPRP ELECT VDW BOUNDARY MISC KINETIC TOTAL TEMP POTENTIAL TOTALAVG TEMPAVG PRESSURE GPRESSURE VOLUME PRESSAVG GPRESSAVG
ENERGY: 0 5.4792 7.1144 1.5877 0.0000 -10782.8095 1536.8281 0.0000 0.0000 1723.0907 -7508.7094 294.8814 -9231.8001 -7508.7094 294.8814 558.2268 632.4722 30409.0908 558.2268 632.4722
ENERGY: 300000 1.8770 4.5452 3.0851 0.0000 -10640.2121 1450.7203 0.0000 0.0000 1779.4953 -7400.4892 304.5342 -9179.9845 -7474.1952 299.0782 243.8236 360.9596 30406.2389 377.2505 444.8946
ENERGY: 600000 1.0380 4.3810 1.9343 0.0000 -10600.6294 1362.3472 0.0000 0.0000 1779.0879 -7451.8410 304.4645 -9230.9289 -7484.6500 300.1065 -477.7128 -428.2825 30431.4917 228.1634 295.8989
ENERGY: 900000 2.5698 5.5520 3.8776 0.0000 -10708.1903 1459.4168 0.0000 0.0000 1736.5174 -7500.2566 297.1792 -9236.7740 -7480.3796 300.1470 450.3018 503.8704 29895.3511 147.1507 211.9318
ENERGY: 1200000 1.2808 3.9592 1.5789 0.0000 -10618.0721 1411.9534 0.0000 0.0000 1792.3179 -7406.9818 306.7286 -9199.2997 -7470.8785 300.1784 130.5363 150.0160 30323.5887 122.1034 182.7733
ENERGY: 1500000 3.4951 4.1399 2.8851 0.0000 -10733.0457 1414.0941 0.0000 0.0000 1740.5002 -7567.9312 297.8608 -9308.4315 -7484.8199 300.1385 -407.6487 -410.5097 30046.1370 81.5912 140.1778
TCL: Running FEP window  14: Lambda1 0.34999999999999964 Lambda2 0.29999999999999966 [dLambda -0.04999999999999999]
TCL: Setting parameter firsttimestep to 0
TCL: Setting parameter alchLambda to 0.34999999999999964
Info: NONBONDED TABLE R-SQUARED SPACING: 0.0625
Info: NONBONDED TABLE SIZE: 705 POINTS
TCL: Setting parameter alchLambda2 to 0.29999999999999966
Info: NONBONDED TABLE R-SQUARED SPACING: 0.0625
Info: NONBONDED TABLE SIZE: 705 POINTS
TCL: Running for 1500000 steps
ETITLE: TS BOND ANGLE DIHED IMPRP ELECT VDW BOUNDARY MISC KINETIC TOTAL TEMP POTENTIAL TOTALAVG TEMPAVG PRESSURE GPRESSURE VOLUME PRESSAVG GPRESSAVG
ENERGY: 0 3.4951 4.1399 2.8851 0.0000 -10733.0468 1413.9145 0.0000 0.0000 1739.5973 -7569.0150 297.7062 -9308.6123 -7569.0150 297.7062 -495.7144 -418.0796 30046.1370 -495.7144 -418.0796
ENERGY: 300000 1.0131 3.7071 1.6690 0.0000 -10587.4610 1391.1080 0.0000 0.0000 1755.6891 -7434.2747 300.4601 -9189.9638 -7511.7855 298.9024 -12.4664 49.6658 30063.0263 -135.1973 -36.3458
ENERGY: 600000 0.8637 6.2074 1.2369 0.0000 -10795.1611 1488.2815 0.0000 0.0000 1705.9674 -7592.6041 291.9510 -9298.5715 -7524.0780 298.8877 373.3744 410.9453 29839.0352 -74.1312 -7.7675
ENERGY: 900000 2.7847 2.9701 2.8150 0.0000 -10688.2343 1483.5072 0.0000 0.0000 1785.4776 -7410.6798 305.5580 -9196.1574 -7509.3985 298.5919 653.2864 742.9175 29803.5794 41.8814 110.6376
ENERGY: 1200000 3.4218 5.9025 4.5564 0.0000 -10690.1200 1481.3582 0.0000 0.0000 1796.6970 -7398.1840 307.4780 -9194.8810 -7498.2265 298.8291 469.1643 550.6811 30421.4962 129.2457 190.9579
ENERGY: 1500000 2.7797 6.6269 2.7426 0.0000 -10670.6314 1435.1271 0.0000 0.0000 1681.9738 -7541.3813 287.8448 -9223.3551 -7495.4054 297.8711 -51.5547 -29.4548 30223.3615 67.1094 125.9437
TCL: Running FEP window  15: Lambda1 0.29999999999999966 Lambda2 0.24999999999999967 [dLambda -0.04999999999999999]
TCL: Setting parameter firsttimestep to 0
TCL: Setting parameter alchLambda to 0.29999999999999966
Info: NONBONDED TABLE R-SQUARED SPACING: 0.0625
Info: NONBONDED TABLE SIZE: 705 POINTS
TCL: Setting parameter alchLambda2 to 0.24999999999999967
Info: NONBONDED TABLE R-SQUARED SPACING: 0.0625
Info: NONBONDED TABLE SIZE: 705 POINTS
TCL: Running for 1500000 steps
ETITLE: TS BOND ANGLE DIHED IMPRP ELECT VDW BOUNDARY MISC KINETIC TOTAL TEMP POTENTIAL TOTALAVG TEMPAVG PRESSURE GPRESSURE VOLUME PRESSAVG GPRESSAVG
ENERGY: 0 2.7797 6.6269 2.7426 0.0000 -10670.6316 1435.4439 0.0000 0.0000 1681.1207 -7541.9179 287.6988 -9223.0386 -7541.9179 287.6988 -119.7258 -35.8793 30223.3615 -119.7258 -35.8793
ENERGY: 300000 0.9289 8.2670 2.3359 0.0000 -10772.0114 1399.2189 0.0000 0.0000 1714.1762 -7647.0846 293.3558 -9361.2608 -7538.6958 297.6253 -455.8765 -343.4160 29550.1818 -372.0178 -286.6776
ENERGY: 600000 0.5737 1.9762 4.1937 0.0000 -10598.0009 1388.2176 0.0000 0.0000 1767.4492 -7435.5904 302.4727 -9203.0396 -7498.5815 300.7425 -418.2411 -347.7390 30632.2622 -304.2164 -231.5805
ENERGY: 900000 2.1112 2.9577 2.7495 0.0000 -10750.7762 1519.8208 0.0000 0.0000 1830.1870 -7392.9500 313.2093 -9223.1370 -7481.8595 302.0944 799.2194 864.6154 29998.5301 -187.8796 -124.7053
ENERGY: 1200000 3.8281 2.8236 1.7805 0.0000 -10662.4285 1384.3962 0.0000 0.0000 1770.5218 -7499.0783 302.9985 -9269.6001 -7480.2830 301.8247 -558.2796 -478.0781 30275.3182 -91.1854 -21.2981
ENERGY: 1500000 0.6107 5.1201 1.5962 0.0000 -10623.0028 1412.7393 0.0000 0.0000 1777.0130 -7425.9235 304.1094 -9202.9364 -7467.0743 301.7841 -99.0548 7.6861 29979.3982 -49.2788 17.3083
TCL: Running FEP window  16: Lambda1 0.24999999999999967 Lambda2 0.19999999999999968 [dLambda -0.04999999999999999]
TCL: Setting parameter firsttimestep to 0
TCL: Setting parameter alchLambda to 0.24999999999999967
Info: NONBONDED TABLE R-SQUARED SPACING: 0.0625
Info: NONBONDED TABLE SIZE: 705 POINTS
TCL: Setting parameter alchLambda2 to 0.19999999999999968
Info: NONBONDED TABLE R-SQUARED SPACING: 0.0625
Info: NONBONDED TABLE SIZE: 705 POINTS
TCL: Running for 1500000 steps
ETITLE: TS BOND ANGLE DIHED IMPRP ELECT VDW BOUNDARY MISC KINETIC TOTAL TEMP POTENTIAL TOTALAVG TEMPAVG PRESSURE GPRESSURE VOLUME PRESSAVG GPRESSAVG
ENERGY: 0 0.6107 5.1201 1.5962 0.0000 -10623.0025 1412.9907 0.0000 0.0000 1776.1542 -7426.5306 303.9624 -9202.6848 -7426.5306 303.9624 -80.5618 4.7914 29979.3982 -80.5618 4.7914
ENERGY: 300000 3.4171 2.7070 3.1152 0.0000 -10633.9258 1475.2347 0.0000 0.0000 1851.1645 -7298.2873 316.7993 -9149.4517 -7425.8544 304.0215 599.1997 666.6622 30209.9394 -130.0182 -73.7608
ENERGY: 600000 1.5360 4.9309 3.1163 0.0000 -10586.4912 1347.5416 0.0000 0.0000 1752.0497 -7477.3167 299.8373 -9229.3663 -7443.3673 301.7332 -476.0994 -411.1530 29979.4718 -203.4723 -144.7330
ENERGY: 900000 3.3276 3.6882 3.1932 0.0000 -10565.5905 1401.3534 0.0000 0.0000 1821.0038 -7333.0244 311.6377 -9154.0282 -7441.8984 302.7261 -292.0175 -206.5573 30684.0841 -159.9887 -100.1976
ENERGY: 1200000 1.2197 3.2501 1.7594 0.0000 -10724.2564 1451.0573 0.0000 0.0000 1743.6441 -7523.3258 298.3988 -9266.9698 -7457.2758 302.2314 -14.1043 72.8071 30310.1555 -103.7102 -36.6235
ENERGY: 1500000 0.8363 1.9866 2.6427 0.0000 -10633.6414 1455.6260 0.0000 0.0000 1817.7803 -7354.7695 311.0861 -9172.5498 -7452.6216 302.8177 374.6032 502.4048 30085.5778 -0.2927 69.1881
TCL: Running FEP window  17: Lambda1 0.19999999999999968 Lambda2 0.1499999999999997 [dLambda -0.04999999999999999]
TCL: Setting parameter firsttimestep to 0
TCL: Setting parameter alchLambda to 0.19999999999999968
Info: NONBONDED TABLE R-SQUARED SPACING: 0.0625
Info: NONBONDED TABLE SIZE: 705 POINTS
TCL: Setting parameter alchLambda2 to 0.1499999999999997
Info: NONBONDED TABLE R-SQUARED SPACING: 0.0625
Info: NONBONDED TABLE SIZE: 705 POINTS
TCL: Running for 1500000 steps
ETITLE: TS BOND ANGLE DIHED IMPRP ELECT VDW BOUNDARY MISC KINETIC TOTAL TEMP POTENTIAL TOTALAVG TEMPAVG PRESSURE GPRESSURE VOLUME PRESSAVG GPRESSAVG
ENERGY: 0 0.8363 1.9866 2.6427 0.0000 -10633.6419 1456.1016 0.0000 0.0000 1816.8972 -7355.1776 310.9350 -9172.0748 -7355.1776 310.9350 421.3460 500.5225 30085.5778 421.3460 500.5225
ENERGY: 300000 0.9487 3.0725 2.4177 0.0000 -10758.0880 1516.8078 0.0000 0.0000 1739.8845 -7494.9567 297.7554 -9234.8412 -7434.2689 304.9481 919.7706 1023.5540 29577.3224 367.6579 459.2845
ENERGY: 600000 1.7968 3.2597 2.5358 0.0000 -10689.1773 1493.9554 0.0000 0.0000 1711.1819 -7476.4477 292.8434 -9187.6297 -7470.8420 302.5262 767.4860 816.7215 29686.0223 385.2709 470.3669
ENERGY: 900000 1.2415 1.8600 3.0149 0.0000 -10644.9211 1422.2824 0.0000 0.0000 1743.0422 -7473.4801 298.2958 -9216.5222 -7483.0132 300.1614 -18.3063 43.2458 30082.2549 240.4819 316.2732
ENERGY: 1200000 1.8147 5.5900 2.5610 0.0000 -10696.2801 1428.9891 0.0000 0.0000 1738.9093 -7518.4160 297.5885 -9257.3253 -7490.2506 300.1237 104.9799 114.8324 29657.7127 228.9703 294.9727
ENERGY: 1500000 1.2557 3.0745 2.7036 0.0000 -10703.9658 1466.7729 0.0000 0.0000 1738.7368 -7491.4223 297.5590 -9230.1591 -7490.3699 300.1316 652.8402 763.9791 29553.3600 262.8308 330.2550
TCL: Running FEP window  18: Lambda1 0.1499999999999997 Lambda2 0.09999999999999969 [dLambda -0.05 ]
TCL: Setting parameter firsttimestep to 0
TCL: Setting parameter alchLambda to 0.1499999999999997
Info: NONBONDED TABLE R-SQUARED SPACING: 0.0625
Info: NONBONDED TABLE SIZE: 705 POINTS
TCL: Setting parameter alchLambda2 to 0.09999999999999969
Info: NONBONDED TABLE R-SQUARED SPACING: 0.0625
Info: NONBONDED TABLE SIZE: 705 POINTS
TCL: Running for 1500000 steps
ETITLE: TS BOND ANGLE DIHED IMPRP ELECT VDW BOUNDARY MISC KINETIC TOTAL TEMP POTENTIAL TOTALAVG TEMPAVG PRESSURE GPRESSURE VOLUME PRESSAVG GPRESSAVG
ENERGY: 0 1.2557 3.0745 2.7036 0.0000 -10703.9669 1466.9265 0.0000 0.0000 1737.8788 -7492.1278 297.4121 -9230.0066 -7492.1278 297.4121 681.8679 760.8115 29553.3600 681.8679 760.8115
ENERGY: 300000 2.2058 5.7839 2.0810 0.0000 -10748.4471 1485.8958 0.0000 0.0000 1745.7001 -7506.7805 298.7506 -9252.4806 -7507.4583 299.6064 646.3324 790.7814 29401.0226 286.1413 353.9844
ENERGY: 600000 5.0800 5.3133 3.1173 0.0000 -10736.3328 1388.2390 0.0000 0.0000 1747.9200 -7586.6632 299.1305 -9334.5832 -7519.7700 298.3344 -711.1748 -595.1159 30059.5653 30.5123 109.9828
ENERGY: 900000 0.6804 7.5600 1.4494 0.0000 -10550.2622 1314.8925 0.0000 0.0000 1704.9742 -7520.7057 291.7810 -9225.6799 -7512.4389 298.2874 -1138.5598 -1038.7327 30553.2718 -35.5325 39.8367
ENERGY: 1200000 1.5231 3.4015 2.5606 0.0000 -10754.4472 1461.8179 0.0000 0.0000 1780.0929 -7505.0512 304.6365 -9285.1441 -7511.9711 298.7352 1.1400 66.7377 30302.9679 -11.1672 57.4632
ENERGY: 1500000 2.7851 4.0096 2.0660 0.0000 -10731.9304 1403.1899 0.0000 0.0000 1794.7454 -7525.1345 307.1440 -9319.8799 -7508.3864 299.4931 -459.4676 -384.8570 30114.0020 -38.6890 29.7137
TCL: Running FEP window  19: Lambda1 0.09999999999999969 Lambda2 0.049999999999999684 [dLambda -0.05 ]
TCL: Setting parameter firsttimestep to 0
TCL: Setting parameter alchLambda to 0.09999999999999969
Info: NONBONDED TABLE R-SQUARED SPACING: 0.0625
Info: NONBONDED TABLE SIZE: 705 POINTS
TCL: Setting parameter alchLambda2 to 0.049999999999999684
Info: NONBONDED TABLE R-SQUARED SPACING: 0.0625
Info: NONBONDED TABLE SIZE: 705 POINTS
TCL: Running for 1500000 steps
ETITLE: TS BOND ANGLE DIHED IMPRP ELECT VDW BOUNDARY MISC KINETIC TOTAL TEMP POTENTIAL TOTALAVG TEMPAVG PRESSURE GPRESSURE VOLUME PRESSAVG GPRESSAVG
ENERGY: 0 2.7850 4.0096 2.0660 0.0000 -10731.9310 1403.2075 0.0000 0.0000 1793.8637 -7525.9993 306.9931 -9319.8629 -7525.9993 306.9931 -462.8203 -385.0278 30114.0020 -462.8203 -385.0278
ENERGY: 300000 0.6882 3.6354 1.9573 0.0000 -10693.4745 1417.1400 0.0000 0.0000 1760.8950 -7509.1586 301.3510 -9270.0536 -7467.5111 302.8236 -238.9023 -135.7012 30292.0322 -448.4269 -391.8301
ENERGY: 600000 0.6799 1.8783 2.0511 0.0000 -10551.6768 1365.3042 0.0000 0.0000 1725.8292 -7455.9341 295.3500 -9181.7632 -7472.6053 300.8213 -655.0409 -631.9170 30765.0965 -394.6511 -332.5887
ENERGY: 900000 1.4749 3.6206 2.3319 0.0000 -10633.5973 1445.4198 0.0000 0.0000 1691.4349 -7489.3153 289.4640 -9180.7502 -7470.1243 298.7153 15.8177 107.0436 30162.2632 -302.6838 -239.1864
ENERGY: 1200000 2.2097 6.2898 4.0872 0.0000 -10609.0314 1383.1852 0.0000 0.0000 1798.2452 -7415.0143 307.7429 -9213.2595 -7472.0606 298.9483 -531.7389 -493.6602 30745.9228 -262.6143 -197.8763
ENERGY: 1500000 3.1944 6.5627 3.3015 0.0000 -10726.9867 1403.0587 0.0000 0.0000 1740.3351 -7570.5343 297.8325 -9310.8694 -7486.9983 298.7955 -466.9085 -366.8468 29833.8793 -188.9535 -122.2274
TCL: Running FEP window  20: Lambda1 0.049999999999999684 Lambda2 0.0    [dLambda -0.049999999999999684]
TCL: Setting parameter firsttimestep to 0
TCL: Setting parameter alchLambda to 0.049999999999999684
Info: NONBONDED TABLE R-SQUARED SPACING: 0.0625
Info: NONBONDED TABLE SIZE: 705 POINTS
TCL: Setting parameter alchLambda2 to 0.0
Info: NONBONDED TABLE R-SQUARED SPACING: 0.0625
Info: NONBONDED TABLE SIZE: 705 POINTS
TCL: Running for 1500000 steps
ETITLE: TS BOND ANGLE DIHED IMPRP ELECT VDW BOUNDARY MISC KINETIC TOTAL TEMP POTENTIAL TOTALAVG TEMPAVG PRESSURE GPRESSURE VOLUME PRESSAVG GPRESSAVG
ENERGY: 0 3.1944 6.5627 3.3015 0.0000 -10726.9860 1403.1836 0.0000 0.0000 1739.4675 -7571.2763 297.6840 -9310.7438 -7571.2763 297.6840 -450.9635 -367.3013 29833.8793 -450.9635 -367.3013
ENERGY: 300000 2.6515 3.2973 2.4213 0.0000 -10652.3626 1390.0276 0.0000 0.0000 1720.6506 -7533.3143 294.4638 -9253.9649 -7544.7983 297.3014 -593.8727 -567.3489 30107.1299 -79.1389 -12.4809
ENERGY: 600000 1.7513 5.2897 2.3445 0.0000 -10572.8651 1364.5727 0.0000 0.0000 1716.7585 -7482.1485 293.7977 -9198.9069 -7515.2549 297.9621 -456.9610 -371.4440 30166.9913 -55.2851 7.7984
ENERGY: 900000 2.6839 1.3211 2.1323 0.0000 -10671.1496 1337.3827 0.0000 0.0000 1727.6502 -7599.9794 295.6617 -9327.6296 -7522.7926 297.1727 -937.6123 -868.5108 30058.3843 -132.3208 -72.2542
ENERGY: 1200000 1.3244 4.3310 3.6654 0.0000 -10755.6476 1500.9483 0.0000 0.0000 1716.9063 -7528.4722 293.8230 -9245.3785 -7505.9140 297.2506 604.1468 585.6028 29908.9358 -66.1687 -16.7675
ENERGY: 1500000 2.0993 4.7503 1.4494 0.0000 -10700.2112 1436.6853 0.0000 0.0000 1729.0866 -7526.1404 295.9075 -9255.2270 -7511.2723 297.2749 -400.7520 -263.4287 30369.4368 -139.1670 -84.6228
TCL: Exiting due to exit command.
