Info: SIMULATION PARAMETERS:
Info: TIMESTEP               2
Info: NUMBER OF STEPS        0
Info: STEPS PER CYCLE        10
Info: PERIODIC CELL BASIS 1  31.6625 0 0
Info: PERIODIC CELL BASIS 2  0 30.2245 0
Info: PERIODIC CELL BASIS 3  0 0 32.2739
Info: PERIODIC CELL CENTER   0 0 0
Info: WRAPPING WATERS AROUND PERIODIC BOUNDARIES ON OUTPUT.
Info: WRAPPING ALL CLUSTERS AROUND PERIODIC BOUNDARIES ON OUTPUT.
Info: FIRST LDB TIMESTEP     50
Info: LAST LDB TIMESTEP     -1
Info: HOM BACKGROUND SCALING 1
Info: PME BACKGROUND SCALING 1
Info: MIN ATOMS PER PATCH    40
Info: EMPTY PATCH LOAD       40 ATOMS
Info: VELOCITY FILE          mobley_5708811_equil.vel
Info: CENTER OF MASS MOVING INITIALLY? NO
Info: DIELECTRIC             1
Info: EXCLUDE                SCALED ONE-FOUR
Info: 1-4 ELECTROSTATICS SCALED BY 0.833333
Info: MODIFIED 1-4 VDW PARAMETERS WILL BE USED
Info: DCD FILENAME           mobley_5708811_prod.dcd
Info: DCD FREQUENCY          100000
Info: DCD FIRST STEP         100000
Info: DCD FILE WILL CONTAIN UNIT CELL DATA
Info: XST FILENAME           mobley_5708811_prod.xst
Info: XST FREQUENCY          100000
Info: NO VELOCITY DCD OUTPUT
Info: NO FORCE DCD OUTPUT
Info: OUTPUT FILENAME        mobley_5708811_prod
Info: BINARY OUTPUT FILES WILL BE USED
Info: RESTART FILENAME       mobley_5708811_prod.restart
Info: RESTART FREQUENCY      100000
Info: BINARY RESTART FILES WILL BE USED
Info: CUTOFF                 9
Info: PAIRLIST DISTANCE      11
Info: PAIRLIST SHRINK RATE   0.01
Info: PAIRLIST GROW RATE     0.01
Info: PAIRLIST TRIGGER       0.3
Info: PAIRLISTS PER CYCLE    2
Info: PAIRLISTS ENABLED
Info: MARGIN                 2
Info: HYDROGEN GROUP CUTOFF  2.5
Info: PATCH DIMENSION        15.5
Info: ENERGY OUTPUT STEPS    100000
Info: ENERGY EVALUATION STEPS    100000
Info: OUTPUT ENERGY PRECISION 4
Info: CROSSTERM ENERGY INCLUDED IN DIHEDRAL
Info: TIMING OUTPUT STEPS    1000000
Info: PRESSURE OUTPUT STEPS  100000
Info: ALCHEMICAL FEP ON
Info: FEP CURRENT LAMBDA VALUE     1
Info: FEP COMPARISON LAMBDA VALUE  0.95
Info: FEP INTRA-ALCHEMICAL NON-BONDED INTERACTIONS WILL BE RETAINED
Info: FEP INTRA-ALCHEMICAL BONDED INTERACTIONS WILL BE RETAINED
Info: FEP VDW SHIFTING COEFFICIENT 5
Info: FEP ELEC. ACTIVE FOR ANNIHILATED PARTICLES BETWEEN LAMBDA = 0 AND LAMBDA = 0.5
Info: FEP ELEC. ACTIVE FOR EXNIHILATED PARTICLES BETWEEN LAMBDA = 0.5 AND LAMBDA = 1
Info: FEP VDW ACTIVE FOR ANNIHILATED PARTICLES BETWEEN LAMBDA = 0 AND LAMBDA = 1
Info: FEP VDW ACTIVE FOR EXNIHILATED PARTICLES BETWEEN LAMBDA = 0 AND LAMBDA = 1
Info: FEP BOND ACTIVE FOR ANNIHILATED PARTICLES BETWEEN LAMBDA = 1 AND LAMBDA = 1
Info: FEP BOND ACTIVE FOR EXNIHILATED PARTICLES BETWEEN LAMBDA = 0 AND LAMBDA = 0
Info: LANGEVIN DYNAMICS ACTIVE
Info: LANGEVIN TEMPERATURE   300
Info: LANGEVIN USING BBK INTEGRATOR
Info: LANGEVIN DAMPING COEFFICIENT IS 1 INVERSE PS
Info: LANGEVIN DYNAMICS APPLIED TO HYDROGENS
Info: LANGEVIN PISTON PRESSURE CONTROL ACTIVE
Info:        TARGET PRESSURE IS 1.01325 BAR
Info:     OSCILLATION PERIOD IS 50 FS
Info:             DECAY TIME IS 25 FS
Info:     PISTON TEMPERATURE IS 300 K
Info:       PRESSURE CONTROL IS GROUP-BASED
Info:    INITIAL STRAIN RATE IS -0.000399795 -0.000399795 -0.000399795
Info:       CELL FLUCTUATION IS ISOTROPIC
Info: PARTICLE MESH EWALD (PME) ACTIVE
Info: PME TOLERANCE               1e-06
Info: PME EWALD COEFFICIENT       0.348832
Info: PME INTERPOLATION ORDER     4
Info: PME GRID DIMENSIONS         32 32 36
Info: PME MAXIMUM GRID SPACING    1
Info: PME CALCULATION WILL BE PERFORMED ON GPU
Info: FULL ELECTROSTATIC EVALUATION FREQUENCY      2
Info: USING VERLET I (r-RESPA) MTS SCHEME.
Info: C1 SPLITTING OF LONG RANGE ELECTROSTATICS
Info: PLACING ATOMS IN PATCHES BY HYDROGEN GROUPS
Info: RIGID BONDS TO HYDROGEN : ALL
Info:         ERROR TOLERANCE : 1e-08
Info:          MAX ITERATIONS : 100
Info: RIGID WATER USING SETTLE ALGORITHM
Info: RANDOM NUMBER SEED     1743856663
Info: USE HYDROGEN BONDS?    NO
Info: Using AMBER format force field!
Info: AMBER PARM FILE        mobley_5708811.prmtop
Info: COORDINATE PDB         mobley_5708811.pdb
Info: Exclusions will be read from PARM file!
Info: SCNB (VDW SCALING)     2
Info: USING ARITHMETIC MEAN TO COMBINE L-J SIGMA PARAMETERS
Info: BINARY COORDINATES     mobley_5708811_equil.coor
Info: SUMMARY OF PARAMETERS:
Info: 12 BONDS
Info: 12 ANGLES
Info:   12 HARMONIC
Info:   0 COSINE-BASED
Info: 7 DIHEDRAL
Info: 0 IMPROPER
Info: 0 CROSSTERM
Info: 0 VDW
Info: 55 VDW_PAIRS
Info: 0 NBTHOLE_PAIRS
Info: To read alchdata from file: mobley_5708811.pdb
Info: To read alchflag data from column: 5
Info: STRUCTURE SUMMARY:
Info: 2989 ATOMS
Info: 2989 BONDS
Info: 29 ANGLES
Info: 43 DIHEDRALS
Info: 0 IMPROPERS
Info: 0 CROSSTERMS
Info: 3050 EXCLUSIONS
Info: 2976 RIGID BONDS
Info: ALCH: 0 ATOMS TO DISAPPEAR IN FINAL STATE
Info: ALCH: 19 ATOMS TO APPEAR IN FINAL STATE
Info: 5991 DEGREES OF FREEDOM
Info: 1003 HYDROGEN GROUPS
Info: 4 ATOMS IN LARGEST HYDROGEN GROUP
Info: 1003 MIGRATION GROUPS
Info: 4 ATOMS IN LARGEST MIGRATION GROUP
Info: TOTAL MASS = 18056.9 amu
Info: TOTAL CHARGE = -0.000100004 e
Info: MASS DENSITY = 0.970835 g/cm^3
Info: ATOM DENSITY = 0.0967764 atoms/A^3
Info: ADDED 0 IMPLICIT EXCLUSIONS
Info: NONBONDED TABLE R-SQUARED SPACING: 0.0625
Info: NONBONDED TABLE SIZE: 705 POINTS
Info: REMOVING COM VELOCITY 0.3205 -0.11938 0.0192383
Info: Use 3D box decompostion in PME FFT.
Info: Updated CUDA force table with 4096 elements.
Info: Updated CUDA LJ table with 10 x 10 elements.
Info: Found 21 unique exclusion lists needing 56 bytes
TCL: Running for 1500000 steps
ETITLE: TS BOND ANGLE DIHED IMPRP ELECT VDW BOUNDARY MISC KINETIC TOTAL TEMP POTENTIAL TOTALAVG TEMPAVG PRESSURE GPRESSURE VOLUME PRESSAVG GPRESSAVG
ENERGY: 0 3.9507 7.5451 16.0716 0.0000 -10833.3682 1495.5038 0.0000 0.0000 1810.0639 -7500.2331 304.0780 -9310.2970 -7500.2331 304.0780 413.2538 490.1750 30885.6156 413.2538 490.1750
ENERGY: 300000 4.2412 7.2024 17.0157 0.0000 -10919.7003 1431.8164 0.0000 0.0000 1779.4636 -7679.9611 298.9373 -9459.4247 -7573.3071 300.4984 -375.6095 -285.4602 30844.7216 -153.3415 -94.9395
ENERGY: 600000 2.8045 5.3153 14.3597 0.0000 -10828.0949 1422.7952 0.0000 0.0000 1800.6594 -7582.1609 302.4981 -9382.8203 -7572.7131 301.0462 -233.1732 -198.9338 31200.7916 -204.9972 -148.7866
ENERGY: 900000 3.7147 5.0304 14.9563 0.0000 -10794.7763 1358.7564 0.0000 0.0000 1789.3510 -7622.9676 300.5984 -9412.3185 -7578.9928 300.7729 -847.5485 -811.3669 30830.0286 -154.9692 -106.9689
ENERGY: 1200000 2.6296 7.0428 19.2666 0.0000 -10926.1477 1488.4096 0.0000 0.0000 1809.9613 -7598.8378 304.0607 -9408.7991 -7584.8032 300.7833 439.4463 510.5258 30363.5303 -137.5444 -80.3565
ENERGY: 1500000 1.7726 4.9223 14.1835 0.0000 -10715.0863 1390.8333 0.0000 0.0000 1746.6389 -7556.7357 293.4230 -9303.3746 -7593.9492 299.8851 -241.8167 -164.8348 30965.7955 -124.9379 -67.2563
TCL: Running FEP window   2: Lambda1 0.95   Lambda2 0.8999999999999999 [dLambda -0.050000000000000044]
TCL: Setting parameter firsttimestep to 0
TCL: Setting parameter alchLambda to 0.95
Info: NONBONDED TABLE R-SQUARED SPACING: 0.0625
Info: NONBONDED TABLE SIZE: 705 POINTS
TCL: Setting parameter alchLambda2 to 0.8999999999999999
Info: NONBONDED TABLE R-SQUARED SPACING: 0.0625
Info: NONBONDED TABLE SIZE: 705 POINTS
TCL: Running for 1500000 steps
ETITLE: TS BOND ANGLE DIHED IMPRP ELECT VDW BOUNDARY MISC KINETIC TOTAL TEMP POTENTIAL TOTALAVG TEMPAVG PRESSURE GPRESSURE VOLUME PRESSAVG GPRESSAVG
ENERGY: 0 1.7726 4.9223 14.1835 0.0000 -10712.1342 1389.4754 0.0000 0.0000 1745.7540 -7556.0264 293.2744 -9301.7804 -7556.0264 293.2744 -261.2823 -189.1651 30965.7955 -261.2823 -189.1651
ENERGY: 300000 4.4809 9.5871 17.5049 0.0000 -10762.6147 1408.0304 0.0000 0.0000 1828.8679 -7494.1434 307.2369 -9323.0113 -7552.3531 302.1479 14.4837 107.0968 30484.1565 -26.1471 63.8486
ENERGY: 600000 3.8849 3.3501 15.3060 0.0000 -10708.1852 1323.6112 0.0000 0.0000 1778.6240 -7583.4091 298.7963 -9362.0331 -7558.5869 301.6281 -604.1471 -560.6902 30764.8155 -140.2931 -67.1025
ENERGY: 900000 2.2503 10.9997 17.9839 0.0000 -10901.5904 1545.2268 0.0000 0.0000 1812.1343 -7512.9955 304.4258 -9325.1297 -7562.6652 301.5711 1272.7121 1285.9850 30332.2214 20.8611 82.3006
ENERGY: 1200000 2.7427 7.0084 14.3893 0.0000 -10787.1231 1432.6446 0.0000 0.0000 1824.0090 -7506.3290 306.4207 -9330.3380 -7562.1229 302.2472 -84.0135 -19.8927 30971.8703 -3.4354 56.2089
ENERGY: 1500000 5.4041 7.4428 14.0620 0.0000 -10875.4144 1471.2129 0.0000 0.0000 1787.3496 -7589.9431 300.2621 -9377.2927 -7569.8050 301.8286 70.2821 88.8573 31061.7159 -9.3537 51.4203
TCL: Running FEP window   3: Lambda1 0.8999999999999999 Lambda2 0.8499999999999999 [dLambda -0.050000000000000044]
TCL: Setting parameter firsttimestep to 0
TCL: Setting parameter alchLambda to 0.8999999999999999
Info: NONBONDED TABLE R-SQUARED SPACING: 0.0625
Info: NONBONDED TABLE SIZE: 705 POINTS
TCL: Setting parameter alchLambda2 to 0.8499999999999999
Info: NONBONDED TABLE R-SQUARED SPACING: 0.0625
Info: NONBONDED TABLE SIZE: 705 POINTS
TCL: Running for 1500000 steps
ETITLE: TS BOND ANGLE DIHED IMPRP ELECT VDW BOUNDARY MISC KINETIC TOTAL TEMP POTENTIAL TOTALAVG TEMPAVG PRESSURE GPRESSURE VOLUME PRESSAVG GPRESSAVG
ENERGY: 0 5.4041 7.4428 14.0620 0.0000 -10872.5708 1470.6735 0.0000 0.0000 1786.4584 -7588.5301 300.1124 -9374.9885 -7588.5301 300.1124 22.0439 75.2730 31061.7159 22.0439 75.2730
ENERGY: 300000 4.2526 5.8736 15.8988 0.0000 -10771.2331 1439.6935 0.0000 0.0000 1833.4956 -7472.0190 308.0143 -9305.5146 -7578.1759 302.6027 201.3028 283.6213 30947.9211 57.6078 113.0628
ENERGY: 600000 1.4500 8.3509 13.7144 0.0000 -10850.3791 1399.8793 0.0000 0.0000 1832.6521 -7594.3324 307.8726 -9426.9845 -7597.1680 301.5963 -437.5936 -330.2055 30701.2170 40.0892 95.0102
ENERGY: 900000 3.7769 8.2673 15.9412 0.0000 -10794.5774 1359.1583 0.0000 0.0000 1791.3586 -7616.0752 300.9356 -9407.4337 -7589.1031 301.3016 -727.2939 -658.8303 30661.8828 -66.5340 -9.7362
ENERGY: 1200000 3.0968 5.4641 13.2823 0.0000 -10880.8306 1461.8164 0.0000 0.0000 1763.6210 -7633.5500 296.2759 -9397.1710 -7582.1517 301.6636 -80.1549 -15.8629 31072.9842 -75.3995 -18.0015
ENERGY: 1500000 2.4549 5.6406 15.8689 0.0000 -10893.1499 1396.8980 0.0000 0.0000 1833.0895 -7639.1980 307.9461 -9472.2876 -7579.4930 302.7580 -377.9175 -389.1752 30668.9138 -109.0351 -47.6947
TCL: Running FEP window   4: Lambda1 0.8499999999999999 Lambda2 0.7999999999999998 [dLambda -0.050000000000000044]
TCL: Setting parameter firsttimestep to 0
TCL: Setting parameter alchLambda to 0.8499999999999999
Info: NONBONDED TABLE R-SQUARED SPACING: 0.0625
Info: NONBONDED TABLE SIZE: 705 POINTS
TCL: Setting parameter alchLambda2 to 0.7999999999999998
Info: NONBONDED TABLE R-SQUARED SPACING: 0.0625
Info: NONBONDED TABLE SIZE: 705 POINTS
TCL: Running for 1500000 steps
ETITLE: TS BOND ANGLE DIHED IMPRP ELECT VDW BOUNDARY MISC KINETIC TOTAL TEMP POTENTIAL TOTALAVG TEMPAVG PRESSURE GPRESSURE VOLUME PRESSAVG GPRESSAVG
ENERGY: 0 2.4549 5.6406 15.8689 0.0000 -10891.0421 1395.9396 0.0000 0.0000 1832.2066 -7638.9316 307.7978 -9471.1382 -7638.9316 307.7978 -485.1195 -406.8011 30668.9138 -485.1195 -406.8011
ENERGY: 300000 6.3857 7.0355 13.0326 0.0000 -10920.7802 1518.3348 0.0000 0.0000 1795.9655 -7580.0260 301.7096 -9375.9915 -7599.4360 300.6153 681.6726 804.3191 30466.9688 105.5885 174.5411
ENERGY: 600000 3.7707 4.6325 16.7868 0.0000 -10956.6777 1419.1242 0.0000 0.0000 1808.3351 -7704.0283 303.7875 -9512.3634 -7627.4719 299.3251 -348.4202 -243.2131 30320.2407 -44.6019 28.2091
ENERGY: 900000 7.5237 9.5857 18.6649 0.0000 -10691.6815 1300.3506 0.0000 0.0000 1841.1598 -7514.3967 309.3019 -9355.5566 -7596.7351 301.7272 -1281.1979 -1183.2147 31112.8456 -124.5776 -56.8534
ENERGY: 1200000 3.8401 9.7422 14.2015 0.0000 -10727.0667 1363.5772 0.0000 0.0000 1752.0526 -7583.6532 294.3325 -9335.7057 -7602.7195 300.0668 -856.3039 -770.6774 31539.1959 -165.9970 -91.7187
ENERGY: 1500000 2.2867 5.5244 20.0981 0.0000 -10952.4300 1484.2543 0.0000 0.0000 1796.3335 -7643.9330 301.7714 -9440.2665 -7605.6170 299.6510 -4.4947 60.6146 31009.7935 -218.1940 -145.9742
TCL: Running FEP window   5: Lambda1 0.7999999999999998 Lambda2 0.7499999999999998 [dLambda -0.050000000000000044]
TCL: Setting parameter firsttimestep to 0
TCL: Setting parameter alchLambda to 0.7999999999999998
Info: NONBONDED TABLE R-SQUARED SPACING: 0.0625
Info: NONBONDED TABLE SIZE: 705 POINTS
TCL: Setting parameter alchLambda2 to 0.7499999999999998
Info: NONBONDED TABLE R-SQUARED SPACING: 0.0625
Info: NONBONDED TABLE SIZE: 705 POINTS
TCL: Running for 1500000 steps
ETITLE: TS BOND ANGLE DIHED IMPRP ELECT VDW BOUNDARY MISC KINETIC TOTAL TEMP POTENTIAL TOTALAVG TEMPAVG PRESSURE GPRESSURE VOLUME PRESSAVG GPRESSAVG
ENERGY: 0 2.2867 5.5244 20.0981 0.0000 -10951.0761 1484.2547 0.0000 0.0000 1795.4383 -7643.4738 301.6210 -9438.9122 -7643.4738 301.6210 -35.4022 49.3464 31009.7935 -35.4022 49.3464
ENERGY: 300000 7.4948 4.2683 18.2055 0.0000 -10874.0927 1472.6329 0.0000 0.0000 1784.5399 -7586.9512 299.7901 -9371.4911 -7606.1802 300.2332 277.8419 424.3827 30785.8763 83.1330 200.8513
ENERGY: 600000 4.4843 8.1096 14.1342 0.0000 -10856.9299 1449.2776 0.0000 0.0000 1790.5988 -7590.3253 300.8080 -9380.9242 -7599.1136 300.3987 -35.7263 16.2940 30723.2519 -83.6746 2.9395
ENERGY: 900000 3.6455 6.0303 21.5415 0.0000 -10943.5935 1503.2341 0.0000 0.0000 1785.3186 -7623.8235 299.9209 -9409.1421 -7600.4718 300.4560 376.9291 432.0059 30866.4992 -31.5246 44.4276
ENERGY: 1200000 4.9214 7.9228 17.0887 0.0000 -10849.2935 1373.1495 0.0000 0.0000 1766.5784 -7679.6327 296.7727 -9446.2111 -7612.2380 299.4070 -960.2092 -920.5294 31273.8615 -106.8349 -40.1699
ENERGY: 1500000 6.6242 5.7982 18.4129 0.0000 -10907.2685 1526.4338 0.0000 0.0000 1780.1738 -7569.8255 299.0567 -9349.9993 -7619.8534 299.2822 779.8812 829.0617 30621.5243 -73.3967 -13.3607
TCL: Running FEP window   6: Lambda1 0.7499999999999998 Lambda2 0.6999999999999997 [dLambda -0.050000000000000044]
TCL: Setting parameter firsttimestep to 0
TCL: Setting parameter alchLambda to 0.7499999999999998
Info: NONBONDED TABLE R-SQUARED SPACING: 0.0625
Info: NONBONDED TABLE SIZE: 705 POINTS
TCL: Setting parameter alchLambda2 to 0.6999999999999997
Info: NONBONDED TABLE R-SQUARED SPACING: 0.0625
Info: NONBONDED TABLE SIZE: 705 POINTS
TCL: Running for 1500000 steps
ETITLE: TS BOND ANGLE DIHED IMPRP ELECT VDW BOUNDARY MISC KINETIC TOTAL TEMP POTENTIAL TOTALAVG TEMPAVG PRESSURE GPRESSURE VOLUME PRESSAVG GPRESSAVG
ENERGY: 0 6.6242 5.7982 18.4129 0.0000 -10905.0268 1526.8688 0.0000 0.0000 1779.2894 -7568.0333 298.9081 -9347.3227 -7568.0333 298.9081 736.3799 824.1955 30621.5243 736.3799 824.1955
ENERGY: 300000 3.2911 3.8183 15.6066 0.0000 -10749.4869 1388.3131 0.0000 0.0000 1747.9608 -7590.4971 293.6451 -9338.4579 -7556.5267 299.5059 -189.5930 -163.5135 30372.1183 -22.1477 40.9174
ENERGY: 600000 4.8667 9.4301 17.2260 0.0000 -10745.0431 1386.0962 0.0000 0.0000 1737.9203 -7589.5037 291.9584 -9327.4240 -7573.6634 296.5128 -319.1613 -288.5426 30966.9327 -71.5446 -2.5790
ENERGY: 900000 2.0849 8.7582 16.9585 0.0000 -10849.7688 1442.5282 0.0000 0.0000 1823.2851 -7556.1538 306.2990 -9379.4389 -7579.7193 297.3745 40.5030 137.2845 30826.2944 -24.8318 42.4149
ENERGY: 1200000 2.7442 3.7495 16.3482 0.0000 -10807.4923 1428.6502 0.0000 0.0000 1774.7168 -7581.2834 298.1399 -9356.0001 -7581.6498 298.7379 -49.8745 18.8308 30767.0631 -11.6532 54.7748
ENERGY: 1500000 4.4660 6.2676 16.7794 0.0000 -10909.6285 1446.7227 0.0000 0.0000 1786.8314 -7648.5613 300.1751 -9435.3927 -7586.3319 299.1781 -119.0558 -105.5160 30717.8192 -38.6544 16.9379
TCL: Running FEP window   7: Lambda1 0.6999999999999997 Lambda2 0.6499999999999997 [dLambda -0.050000000000000044]
TCL: Setting parameter firsttimestep to 0
TCL: Setting parameter alchLambda to 0.6999999999999997
Info: NONBONDED TABLE R-SQUARED SPACING: 0.0625
Info: NONBONDED TABLE SIZE: 705 POINTS
TCL: Setting parameter alchLambda2 to 0.6499999999999997
Info: NONBONDED TABLE R-SQUARED SPACING: 0.0625
Info: NONBONDED TABLE SIZE: 705 POINTS
TCL: Running for 1500000 steps
ETITLE: TS BOND ANGLE DIHED IMPRP ELECT VDW BOUNDARY MISC KINETIC TOTAL TEMP POTENTIAL TOTALAVG TEMPAVG PRESSURE GPRESSURE VOLUME PRESSAVG GPRESSAVG
ENERGY: 0 4.4660 6.2676 16.7794 0.0000 -10907.7735 1446.6474 0.0000 0.0000 1785.9274 -7647.6857 300.0232 -9433.6130 -7647.6857 300.0232 -192.9991 -110.7523 30717.8192 -192.9991 -110.7523
ENERGY: 300000 4.6913 7.8660 20.9934 0.0000 -10799.6064 1442.2981 0.0000 0.0000 1762.1751 -7561.5824 296.0330 -9323.7576 -7590.8336 298.5489 -56.5255 57.4216 30793.6223 -285.0741 -206.4827
ENERGY: 600000 3.2651 4.2021 19.7180 0.0000 -10743.0491 1398.7276 0.0000 0.0000 1698.2846 -7618.8516 285.2998 -9317.1362 -7593.0111 297.1542 -341.4097 -286.9695 30713.0388 -218.8214 -153.1482
ENERGY: 900000 4.6336 4.6808 16.0749 0.0000 -10974.6716 1566.8742 0.0000 0.0000 1846.7031 -7535.7050 310.2331 -9382.4081 -7588.1081 298.9711 1189.1278 1241.6963 30286.4429 -26.6361 32.5393
ENERGY: 1200000 4.2418 9.5928 18.6570 0.0000 -10695.1198 1393.1990 0.0000 0.0000 1776.3483 -7493.0810 298.4140 -9269.4293 -7569.9388 300.0539 -452.7486 -360.3181 31217.9423 -54.2765 15.9090
ENERGY: 1500000 5.5426 5.4282 18.6855 0.0000 -10703.2511 1422.8711 0.0000 0.0000 1772.9295 -7477.7943 297.8397 -9250.7237 -7571.0468 299.8720 58.1053 155.7863 30909.4032 -86.9006 -10.3201
TCL: Running FEP window   8: Lambda1 0.6499999999999997 Lambda2 0.5999999999999996 [dLambda -0.050000000000000044]
TCL: Setting parameter firsttimestep to 0
TCL: Setting parameter alchLambda to 0.6499999999999997
Info: NONBONDED TABLE R-SQUARED SPACING: 0.0625
Info: NONBONDED TABLE SIZE: 705 POINTS
TCL: Setting parameter alchLambda2 to 0.5999999999999996
Info: NONBONDED TABLE R-SQUARED SPACING: 0.0625
Info: NONBONDED TABLE SIZE: 705 POINTS
TCL: Running for 1500000 steps
ETITLE: TS BOND ANGLE DIHED IMPRP ELECT VDW BOUNDARY MISC KINETIC TOTAL TEMP POTENTIAL TOTALAVG TEMPAVG PRESSURE GPRESSURE VOLUME PRESSAVG GPRESSAVG
ENERGY: 0 5.5426 5.4282 18.6855 0.0000 -10701.9247 1423.5369 0.0000 0.0000 1772.0117 -7476.7198 297.6855 -9248.7315 -7476.7198 297.6855 54.3972 154.5605 30909.4032 54.3972 154.5605
ENERGY: 300000 3.8251 12.7780 16.0077 0.0000 -10896.3189 1478.3039 0.0000 0.0000 1798.9584 -7586.4458 302.2123 -9385.4042 -7577.8681 299.1822 419.5963 431.2099 30363.2030 -20.8762 26.8348
ENERGY: 600000 7.1561 8.8995 17.3921 0.0000 -10880.3057 1454.3895 0.0000 0.0000 1819.0994 -7573.3692 305.5959 -9392.4686 -7594.0594 300.1027 -57.4313 17.7578 30953.5387 -55.1938 12.6343
ENERGY: 900000 4.1072 6.5072 13.9977 0.0000 -10785.2813 1394.7538 0.0000 0.0000 1796.8832 -7569.0321 301.8637 -9365.9154 -7584.4693 300.7892 -146.5333 -138.6928 30557.8346 -67.1111 -0.9587
ENERGY: 1200000 3.6963 5.2723 17.8457 0.0000 -11013.9921 1551.7577 0.0000 0.0000 1873.3896 -7562.0305 314.7162 -9435.4201 -7593.5660 300.7883 477.9466 537.1042 31111.4885 -15.1250 45.1971
ENERGY: 1500000 4.6949 3.1924 19.1558 0.0000 -10980.1371 1535.5522 0.0000 0.0000 1796.0514 -7621.4903 301.7240 -9417.5417 -7584.8753 300.7228 736.9939 732.2054 30397.1829 44.4950 100.1729
TCL: Running FEP window   9: Lambda1 0.5999999999999996 Lambda2 0.5499999999999996 [dLambda -0.050000000000000044]
TCL: Setting parameter firsttimestep to 0
TCL: Setting parameter alchLambda to 0.5999999999999996
Info: NONBONDED TABLE R-SQUARED SPACING: 0.0625
Info: NONBONDED TABLE SIZE: 705 POINTS
TCL: Setting parameter alchLambda2 to 0.5499999999999996
Info: NONBONDED TABLE R-SQUARED SPACING: 0.0625
Info: NONBONDED TABLE SIZE: 705 POINTS
TCL: Running for 1500000 steps
ETITLE: TS BOND ANGLE DIHED IMPRP ELECT VDW BOUNDARY MISC KINETIC TOTAL TEMP POTENTIAL TOTALAVG TEMPAVG PRESSURE GPRESSURE VOLUME PRESSAVG GPRESSAVG
ENERGY: 0 4.6949 3.1924 19.1558 0.0000 -10980.0197 1535.5996 0.0000 0.0000 1795.1745 -7622.2024 301.5767 -9417.3769 -7622.2024 301.5767 652.9800 718.1727 30397.1829 652.9800 718.1727
ENERGY: 300000 2.5238 7.9229 17.6509 0.0000 -10787.3874 1414.3474 0.0000 0.0000 1804.9760 -7539.9665 303.2233 -9344.9425 -7584.2828 300.4206 -327.3765 -204.9045 30907.5598 287.3314 357.1614
ENERGY: 600000 4.5946 5.4974 16.3169 0.0000 -10859.8078 1436.7868 0.0000 0.0000 1811.2909 -7585.3213 304.2841 -9396.6121 -7596.6083 299.4793 -231.6868 -216.1889 31120.0019 -122.7045 -63.9595
ENERGY: 900000 4.9406 6.3721 16.2876 0.0000 -10665.6372 1330.7059 0.0000 0.0000 1766.9588 -7540.3722 296.8366 -9307.3310 -7579.9165 299.3160 -924.3310 -872.6080 31037.8510 -341.6714 -287.9662
ENERGY: 1200000 6.9091 8.0680 17.5330 0.0000 -10819.5497 1414.6868 0.0000 0.0000 1801.6335 -7570.7194 302.6617 -9372.3529 -7571.8401 301.0676 -374.0735 -307.9441 30578.1976 -250.6962 -196.1314
ENERGY: 1500000 5.3383 11.9934 15.9580 0.0000 -10916.1939 1505.4440 0.0000 0.0000 1805.5507 -7571.9095 303.3198 -9377.4602 -7575.4881 301.0106 351.1170 418.0810 30692.6440 -156.8350 -98.3129
TCL: Running FEP window  10: Lambda1 0.5499999999999996 Lambda2 0.4999999999999996 [dLambda -0.04999999999999999]
TCL: Setting parameter firsttimestep to 0
TCL: Setting parameter alchLambda to 0.5499999999999996
Info: NONBONDED TABLE R-SQUARED SPACING: 0.0625
Info: NONBONDED TABLE SIZE: 705 POINTS
TCL: Setting parameter alchLambda2 to 0.4999999999999996
Info: NONBONDED TABLE R-SQUARED SPACING: 0.0625
Info: NONBONDED TABLE SIZE: 705 POINTS
TCL: Running for 1500000 steps
ETITLE: TS BOND ANGLE DIHED IMPRP ELECT VDW BOUNDARY MISC KINETIC TOTAL TEMP POTENTIAL TOTALAVG TEMPAVG PRESSURE GPRESSURE VOLUME PRESSAVG GPRESSAVG
ENERGY: 0 5.3383 11.9934 15.9580 0.0000 -10915.3614 1505.7752 0.0000 0.0000 1804.6684 -7571.6282 303.1716 -9376.2966 -7571.6282 303.1716 333.2713 414.1780 30692.6440 333.2713 414.1780
ENERGY: 300000 4.5861 6.8451 15.8541 0.0000 -10800.1373 1460.0857 0.0000 0.0000 1739.9731 -7572.7931 292.3032 -9312.7663 -7580.6646 296.7119 374.3838 481.4030 30484.1057 -77.3616 2.6737
ENERGY: 600000 4.5660 8.9574 20.2639 0.0000 -10977.2504 1483.9260 0.0000 0.0000 1792.3773 -7667.1597 301.1068 -9459.5370 -7608.8100 296.1847 90.6816 126.3575 30366.9419 7.5517 89.8660
ENERGY: 900000 3.6691 9.7743 17.5879 0.0000 -10769.6673 1393.2718 0.0000 0.0000 1807.7052 -7537.6589 303.6817 -9345.3641 -7600.8812 297.9245 -690.7207 -662.9823 31311.9316 -62.4498 12.7367
ENERGY: 1200000 5.2288 7.6043 18.7777 0.0000 -10653.7089 1318.2741 0.0000 0.0000 1769.8029 -7534.0211 297.3144 -9303.8240 -7601.0008 298.4033 -1047.0743 -948.0114 31160.1878 -30.6905 36.5586
ENERGY: 1500000 4.9703 5.8325 13.7587 0.0000 -10878.2991 1516.2576 0.0000 0.0000 1833.8890 -7503.5910 308.0804 -9337.4801 -7597.0210 299.2484 548.8169 587.6135 30731.7342 -12.6201 48.2883
TCL: Running FEP window  11: Lambda1 0.4999999999999996 Lambda2 0.4499999999999996 [dLambda -0.04999999999999999]
TCL: Setting parameter firsttimestep to 0
TCL: Setting parameter alchLambda to 0.4999999999999996
Info: NONBONDED TABLE R-SQUARED SPACING: 0.0625
Info: NONBONDED TABLE SIZE: 705 POINTS
TCL: Setting parameter alchLambda2 to 0.4499999999999996
Info: NONBONDED TABLE R-SQUARED SPACING: 0.0625
Info: NONBONDED TABLE SIZE: 705 POINTS
TCL: Running for 1500000 steps
ETITLE: TS BOND ANGLE DIHED IMPRP ELECT VDW BOUNDARY MISC KINETIC TOTAL TEMP POTENTIAL TOTALAVG TEMPAVG PRESSURE GPRESSURE VOLUME PRESSAVG GPRESSAVG
ENERGY: 0 4.9703 5.8325 13.7587 0.0000 -10877.8269 1515.7400 0.0000 0.0000 1833.0056 -7504.5198 307.9320 -9337.5254 -7504.5198 307.9320 509.5782 576.0939 30731.7342 509.5782 576.0939
ENERGY: 300000 7.9627 11.6659 16.4271 0.0000 -10791.3141 1381.5947 0.0000 0.0000 1803.9584 -7569.7052 303.0523 -9373.6636 -7578.5326 301.7428 -999.6324 -921.2485 31061.1925 -66.2542 -22.1584
ENERGY: 600000 6.9912 9.3099 20.9155 0.0000 -10833.8305 1438.4562 0.0000 0.0000 1840.6172 -7517.5405 309.2107 -9358.1577 -7564.5774 302.5161 -370.1757 -350.2234 31098.3391 -130.7008 -89.8486
ENERGY: 900000 11.9397 10.1736 16.4737 0.0000 -10822.4917 1452.8329 0.0000 0.0000 1822.6905 -7508.3812 306.1992 -9331.0718 -7566.3518 302.4869 -136.2846 -88.6466 31049.7531 -16.4770 29.6743
ENERGY: 1200000 3.8254 8.8498 12.7408 0.0000 -10746.7492 1365.1520 0.0000 0.0000 1806.6797 -7549.5015 303.5095 -9356.1812 -7572.6956 301.8694 -734.4979 -658.1724 31241.3427 46.0686 101.4657
ENERGY: 1500000 4.7510 5.8211 17.3532 0.0000 -10968.8633 1536.5373 0.0000 0.0000 1805.4843 -7598.9164 303.3086 -9404.4007 -7569.6188 301.8405 365.9600 433.7799 30641.4401 52.1089 107.5247
TCL: Running FEP window  12: Lambda1 0.4499999999999996 Lambda2 0.39999999999999963 [dLambda -0.04999999999999999]
TCL: Setting parameter firsttimestep to 0
TCL: Setting parameter alchLambda to 0.4499999999999996
Info: NONBONDED TABLE R-SQUARED SPACING: 0.0625
Info: NONBONDED TABLE SIZE: 705 POINTS
TCL: Setting parameter alchLambda2 to 0.39999999999999963
Info: NONBONDED TABLE R-SQUARED SPACING: 0.0625
Info: NONBONDED TABLE SIZE: 705 POINTS
TCL: Running for 1500000 steps
ETITLE: TS BOND ANGLE DIHED IMPRP ELECT VDW BOUNDARY MISC KINETIC TOTAL TEMP POTENTIAL TOTALAVG TEMPAVG PRESSURE GPRESSURE VOLUME PRESSAVG GPRESSAVG
ENERGY: 0 4.7511 5.8211 17.3532 0.0000 -10968.8634 1536.8861 0.0000 0.0000 1804.6168 -7599.4352 303.1629 -9404.0520 -7599.4352 303.1629 336.5800 426.5935 30641.4401 336.5800 426.5935
ENERGY: 300000 2.9220 5.5971 19.2936 0.0000 -10848.7598 1475.6474 0.0000 0.0000 1788.2358 -7557.0640 300.4110 -9345.2998 -7553.8267 301.6791 -54.7823 -37.4884 31129.4506 -183.3112 -116.6184
ENERGY: 600000 2.0590 8.7668 19.5576 0.0000 -10736.1449 1388.4616 0.0000 0.0000 1719.5679 -7597.7321 288.8753 -9317.3000 -7554.3329 298.4803 -451.4852 -384.9622 30726.9455 -344.1847 -276.5366
ENERGY: 900000 4.6827 11.9965 12.1511 0.0000 -10867.7910 1444.6478 0.0000 0.0000 1832.7324 -7561.5806 307.8861 -9394.3130 -7561.9325 300.1241 -365.3630 -262.1919 31027.0820 -289.3488 -218.8746
ENERGY: 1200000 8.7278 5.6913 13.2909 0.0000 -10982.4087 1518.8975 0.0000 0.0000 1841.0773 -7594.7240 309.2880 -9435.8013 -7564.3364 301.3242 385.3947 442.1715 30773.8099 -206.8709 -141.5702
ENERGY: 1500000 4.8702 10.2047 17.2673 0.0000 -10818.7512 1456.6928 0.0000 0.0000 1835.8283 -7493.8878 308.4062 -9329.7162 -7552.7910 301.4582 21.6645 107.7993 30539.5442 -231.3259 -165.3155
TCL: Running FEP window  13: Lambda1 0.39999999999999963 Lambda2 0.34999999999999964 [dLambda -0.04999999999999999]
TCL: Setting parameter firsttimestep to 0
TCL: Setting parameter alchLambda to 0.39999999999999963
Info: NONBONDED TABLE R-SQUARED SPACING: 0.0625
Info: NONBONDED TABLE SIZE: 705 POINTS
TCL: Setting parameter alchLambda2 to 0.34999999999999964
Info: NONBONDED TABLE R-SQUARED SPACING: 0.0625
Info: NONBONDED TABLE SIZE: 705 POINTS
TCL: Running for 1500000 steps
ETITLE: TS BOND ANGLE DIHED IMPRP ELECT VDW BOUNDARY MISC KINETIC TOTAL TEMP POTENTIAL TOTALAVG TEMPAVG PRESSURE GPRESSURE VOLUME PRESSAVG GPRESSAVG
ENERGY: 0 4.8702 10.2047 17.2673 0.0000 -10818.7520 1457.2001 0.0000 0.0000 1834.9600 -7494.2498 308.2603 -9329.2097 -7494.2498 308.2603 21.7986 104.6415 30539.5442 21.7986 104.6415
ENERGY: 300000 4.7613 10.2643 16.8472 0.0000 -10817.3054 1379.1052 0.0000 0.0000 1784.4477 -7621.8798 299.7746 -9406.3276 -7572.3467 301.2512 -952.9977 -934.2646 31146.4945 -120.5289 -89.2310
ENERGY: 600000 3.3347 6.5633 18.4075 0.0000 -10973.8130 1496.9860 0.0000 0.0000 1801.4806 -7647.0410 302.6360 -9448.5216 -7586.5948 302.0958 134.6271 211.8952 30566.7670 -152.0154 -109.0053
ENERGY: 900000 6.0349 5.4597 18.1118 0.0000 -10735.9244 1379.0698 0.0000 0.0000 1739.8477 -7587.4005 292.2821 -9327.2481 -7587.4497 299.4371 -770.9494 -701.7966 31307.2341 -285.6647 -233.9213
ENERGY: 1200000 3.3799 7.4817 14.9320 0.0000 -10869.5008 1478.0449 0.0000 0.0000 1803.8108 -7561.8515 303.0275 -9365.6623 -7583.3270 299.0269 97.0706 157.1494 30910.6374 -177.7038 -122.5900
ENERGY: 1500000 6.5003 8.8855 16.9749 0.0000 -10677.8773 1349.3804 0.0000 0.0000 1820.5143 -7475.6219 305.8336 -9296.1363 -7577.2544 299.4449 -649.5422 -651.3551 31302.7799 -221.5786 -171.8626
TCL: Running FEP window  14: Lambda1 0.34999999999999964 Lambda2 0.29999999999999966 [dLambda -0.04999999999999999]
TCL: Setting parameter firsttimestep to 0
TCL: Setting parameter alchLambda to 0.34999999999999964
Info: NONBONDED TABLE R-SQUARED SPACING: 0.0625
Info: NONBONDED TABLE SIZE: 705 POINTS
TCL: Setting parameter alchLambda2 to 0.29999999999999966
Info: NONBONDED TABLE R-SQUARED SPACING: 0.0625
Info: NONBONDED TABLE SIZE: 705 POINTS
TCL: Running for 1500000 steps
ETITLE: TS BOND ANGLE DIHED IMPRP ELECT VDW BOUNDARY MISC KINETIC TOTAL TEMP POTENTIAL TOTALAVG TEMPAVG PRESSURE GPRESSURE VOLUME PRESSAVG GPRESSAVG
ENERGY: 0 6.5003 8.8855 16.9749 0.0000 -10677.8770 1349.7655 0.0000 0.0000 1819.6099 -7476.1410 305.6816 -9295.7508 -7476.1410 305.6816 -734.8858 -656.2890 31302.7799 -734.8858 -656.2890
ENERGY: 300000 2.8530 12.8764 17.3407 0.0000 -10888.5721 1401.5139 0.0000 0.0000 1772.8094 -7681.1787 297.8195 -9453.9881 -7587.5283 300.2356 -469.2822 -384.0457 30598.0445 -443.5185 -376.6731
ENERGY: 600000 5.2817 9.1137 19.3753 0.0000 -10951.3199 1560.0505 0.0000 0.0000 1752.7478 -7604.7510 294.4493 -9357.4987 -7590.8137 298.4562 906.3044 987.9451 30470.8382 -99.5587 -47.5007
ENERGY: 900000 5.7111 6.2019 16.8943 0.0000 -10904.6383 1514.3751 0.0000 0.0000 1817.5793 -7543.8767 305.3405 -9361.4559 -7577.7506 300.5227 470.7956 523.1446 30660.8260 -37.7945 11.5561
ENERGY: 1200000 4.6173 9.1641 15.6658 0.0000 -10991.8956 1542.3172 0.0000 0.0000 1816.3206 -7603.8106 305.1291 -9420.1312 -7581.7413 300.8930 418.2290 462.4582 30658.0552 -32.7441 19.0381
ENERGY: 1500000 2.8657 9.0536 15.5834 0.0000 -10831.3992 1429.1397 0.0000 0.0000 1835.5174 -7539.2395 308.3540 -9374.7569 -7578.3321 301.3925 -205.8490 -119.2686 30646.4644 -53.9759 5.0105
TCL: Running FEP window  15: Lambda1 0.29999999999999966 Lambda2 0.24999999999999967 [dLambda -0.04999999999999999]
TCL: Setting parameter firsttimestep to 0
TCL: Setting parameter alchLambda to 0.29999999999999966
Info: NONBONDED TABLE R-SQUARED SPACING: 0.0625
Info: NONBONDED TABLE SIZE: 705 POINTS
TCL: Setting parameter alchLambda2 to 0.24999999999999967
Info: NONBONDED TABLE R-SQUARED SPACING: 0.0625
Info: NONBONDED TABLE SIZE: 705 POINTS
TCL: Running for 1500000 steps
ETITLE: TS BOND ANGLE DIHED IMPRP ELECT VDW BOUNDARY MISC KINETIC TOTAL TEMP POTENTIAL TOTALAVG TEMPAVG PRESSURE GPRESSURE VOLUME PRESSAVG GPRESSAVG
ENERGY: 0 2.8658 9.0536 15.5834 0.0000 -10831.3988 1428.4836 0.0000 0.0000 1834.6580 -7540.7544 308.2096 -9375.4124 -7540.7544 308.2096 -214.5817 -129.4325 30646.4644 -214.5817 -129.4325
ENERGY: 300000 4.2475 9.3346 18.4685 0.0000 -11049.4713 1540.8700 0.0000 0.0000 1787.7805 -7688.7701 300.3345 -9476.5506 -7573.3164 304.5196 363.0296 498.4125 30615.5925 -208.7465 -124.2691
ENERGY: 600000 3.8783 4.6490 14.1827 0.0000 -10917.9682 1532.8447 0.0000 0.0000 1801.9494 -7560.4641 302.7148 -9362.4135 -7589.3492 302.7470 869.2543 903.3644 30097.0230 149.6372 220.2883
ENERGY: 900000 4.6266 10.0257 18.1706 0.0000 -10871.0424 1452.5656 0.0000 0.0000 1777.7386 -7607.9153 298.6476 -9385.6539 -7604.4049 302.0956 -99.1963 -60.3651 30575.1734 25.8799 84.2972
ENERGY: 1200000 4.6003 9.6308 18.4228 0.0000 -10869.6472 1467.4259 0.0000 0.0000 1807.1517 -7562.4158 303.5888 -9369.5675 -7589.8214 303.1931 399.3721 499.9724 30267.0474 123.7332 195.2685
ENERGY: 1500000 5.6859 10.5235 12.0242 0.0000 -10714.0924 1411.1868 0.0000 0.0000 1720.9158 -7553.7561 289.1017 -9274.6720 -7587.7490 301.6087 -589.3564 -530.3876 31559.6986 47.3840 112.6193
TCL: Running FEP window  16: Lambda1 0.24999999999999967 Lambda2 0.19999999999999968 [dLambda -0.04999999999999999]
TCL: Setting parameter firsttimestep to 0
TCL: Setting parameter alchLambda to 0.24999999999999967
Info: NONBONDED TABLE R-SQUARED SPACING: 0.0625
Info: NONBONDED TABLE SIZE: 705 POINTS
TCL: Setting parameter alchLambda2 to 0.19999999999999968
Info: NONBONDED TABLE R-SQUARED SPACING: 0.0625
Info: NONBONDED TABLE SIZE: 705 POINTS
TCL: Running for 1500000 steps
ETITLE: TS BOND ANGLE DIHED IMPRP ELECT VDW BOUNDARY MISC KINETIC TOTAL TEMP POTENTIAL TOTALAVG TEMPAVG PRESSURE GPRESSURE VOLUME PRESSAVG GPRESSAVG
ENERGY: 0 5.6859 10.5235 12.0242 0.0000 -10714.0917 1411.1191 0.0000 0.0000 1720.0409 -7554.6981 288.9548 -9274.7390 -7554.6981 288.9548 -619.7853 -536.7991 31559.6986 -619.7853 -536.7991
ENERGY: 300000 1.2292 4.3912 20.2782 0.0000 -10897.9685 1453.2177 0.0000 0.0000 1781.8140 -7637.0382 299.3322 -9418.8522 -7600.3436 299.3359 50.4118 106.5802 30440.9425 -334.9409 -289.5546
ENERGY: 600000 1.6945 6.2868 17.0147 0.0000 -10866.5209 1425.9831 0.0000 0.0000 1886.5753 -7528.9666 316.9314 -9415.5418 -7602.2717 302.1420 -420.7686 -313.7376 31274.8868 -281.4500 -221.6720
ENERGY: 900000 9.0110 10.1031 18.2114 0.0000 -10795.2532 1472.7638 0.0000 0.0000 1799.3336 -7485.8303 302.2754 -9285.1639 -7588.5416 301.4118 58.9173 117.2132 30615.9780 -203.9284 -147.1575
ENERGY: 1200000 9.7489 13.4360 16.5552 0.0000 -10892.7239 1508.2702 0.0000 0.0000 1694.6605 -7650.0530 284.6910 -9344.7135 -7590.4990 299.7086 284.6867 328.2974 30753.9906 -179.7854 -126.7176
ENERGY: 1500000 4.6257 7.0125 17.7113 0.0000 -11073.5045 1552.1028 0.0000 0.0000 1768.4486 -7723.6037 297.0869 -9492.0523 -7603.7670 299.2613 380.5908 426.5241 30653.0596 -77.2170 -23.7632
TCL: Running FEP window  17: Lambda1 0.19999999999999968 Lambda2 0.1499999999999997 [dLambda -0.04999999999999999]
TCL: Setting parameter firsttimestep to 0
TCL: Setting parameter alchLambda to 0.19999999999999968
Info: NONBONDED TABLE R-SQUARED SPACING: 0.0625
Info: NONBONDED TABLE SIZE: 705 POINTS
TCL: Setting parameter alchLambda2 to 0.1499999999999997
Info: NONBONDED TABLE R-SQUARED SPACING: 0.0625
Info: NONBONDED TABLE SIZE: 705 POINTS
TCL: Running for 1500000 steps
ETITLE: TS BOND ANGLE DIHED IMPRP ELECT VDW BOUNDARY MISC KINETIC TOTAL TEMP POTENTIAL TOTALAVG TEMPAVG PRESSURE GPRESSURE VOLUME PRESSAVG GPRESSAVG
ENERGY: 0 4.6257 7.0125 17.7113 0.0000 -11073.5046 1552.1330 0.0000 0.0000 1767.5490 -7724.4732 296.9358 -9492.0222 -7724.4732 296.9358 338.5586 421.7759 30653.0596 338.5586 421.7759
ENERGY: 300000 7.1510 6.2657 15.2468 0.0000 -10823.3786 1366.8667 0.0000 0.0000 1726.7080 -7701.1404 290.0748 -9427.8484 -7671.1720 292.2646 -1022.8617 -1007.2793 30692.1370 -427.9838 -379.8669
ENERGY: 600000 2.8912 13.8046 15.8512 0.0000 -10948.1953 1530.6111 0.0000 0.0000 1786.3383 -7598.6990 300.0922 -9385.0373 -7657.5684 295.1572 749.9407 806.6325 30497.9709 -97.8079 -52.3434
ENERGY: 900000 3.9765 10.7210 17.4352 0.0000 -10742.2658 1413.4404 0.0000 0.0000 1782.6934 -7513.9993 299.4799 -9296.6927 -7616.6318 296.9675 256.1367 290.8895 30101.8709 63.9873 116.3713
ENERGY: 1200000 1.9472 4.9333 17.2782 0.0000 -10902.8141 1493.5504 0.0000 0.0000 1746.4566 -7638.6485 293.3924 -9385.1051 -7617.4497 296.4818 180.7810 243.3877 30596.6221 54.7157 113.3187
ENERGY: 1500000 4.0724 13.0539 13.2172 0.0000 -10791.7799 1496.1775 0.0000 0.0000 1737.7449 -7527.5140 291.9289 -9265.2589 -7602.9753 297.2805 508.2627 579.5848 30738.1192 170.6003 226.1816
TCL: Running FEP window  18: Lambda1 0.1499999999999997 Lambda2 0.09999999999999969 [dLambda -0.05 ]
TCL: Setting parameter firsttimestep to 0
TCL: Setting parameter alchLambda to 0.1499999999999997
Info: NONBONDED TABLE R-SQUARED SPACING: 0.0625
Info: NONBONDED TABLE SIZE: 705 POINTS
TCL: Setting parameter alchLambda2 to 0.09999999999999969
Info: NONBONDED TABLE R-SQUARED SPACING: 0.0625
Info: NONBONDED TABLE SIZE: 705 POINTS
TCL: Running for 1500000 steps
ETITLE: TS BOND ANGLE DIHED IMPRP ELECT VDW BOUNDARY MISC KINETIC TOTAL TEMP POTENTIAL TOTALAVG TEMPAVG PRESSURE GPRESSURE VOLUME PRESSAVG GPRESSAVG
ENERGY: 0 4.0724 13.0539 13.2172 0.0000 -10791.7800 1496.4851 0.0000 0.0000 1736.8825 -7528.0689 291.7840 -9264.9514 -7528.0689 291.7840 508.7689 576.3686 30738.1192 508.7689 576.3686
ENERGY: 300000 3.9941 7.1554 19.0860 0.0000 -10804.2126 1427.8089 0.0000 0.0000 1742.3186 -7603.8496 292.6973 -9346.1683 -7593.9986 298.9139 -643.5521 -581.8051 31188.5843 -92.0571 -36.8226
ENERGY: 600000 5.1024 10.5406 20.1551 0.0000 -10884.0067 1477.3886 0.0000 0.0000 1754.8669 -7615.9531 294.8053 -9370.8200 -7581.5496 299.2098 -270.7739 -169.5135 30885.8327 -53.8216 3.4933
ENERGY: 900000 5.7003 12.2112 19.3209 0.0000 -10831.7857 1412.6029 0.0000 0.0000 1780.4949 -7601.4555 299.1106 -9381.9504 -7590.9574 297.7361 -498.3818 -415.9032 30654.3628 -127.8704 -59.9850
ENERGY: 1200000 3.0021 11.2885 17.6763 0.0000 -11024.5178 1510.3087 0.0000 0.0000 1787.8212 -7694.4209 300.3414 -9482.2421 -7608.0230 298.6150 133.4229 182.2983 30650.4955 -79.8215 -18.2661
ENERGY: 1500000 6.1404 8.1187 17.8089 0.0000 -10865.4906 1424.0701 0.0000 0.0000 1855.2216 -7554.1309 311.6642 -9409.3525 -7598.1551 300.3650 -353.5813 -255.0026 30478.1976 -47.4557 13.2963
TCL: Running FEP window  19: Lambda1 0.09999999999999969 Lambda2 0.049999999999999684 [dLambda -0.05 ]
TCL: Setting parameter firsttimestep to 0
TCL: Setting parameter alchLambda to 0.09999999999999969
Info: NONBONDED TABLE R-SQUARED SPACING: 0.0625
Info: NONBONDED TABLE SIZE: 705 POINTS
TCL: Setting parameter alchLambda2 to 0.049999999999999684
Info: NONBONDED TABLE R-SQUARED SPACING: 0.0625
Info: NONBONDED TABLE SIZE: 705 POINTS
TCL: Running for 1500000 steps
ETITLE: TS BOND ANGLE DIHED IMPRP ELECT VDW BOUNDARY MISC KINETIC TOTAL TEMP POTENTIAL TOTALAVG TEMPAVG PRESSURE GPRESSURE VOLUME PRESSAVG GPRESSAVG
ENERGY: 0 6.1404 8.1187 17.8089 0.0000 -10865.4899 1421.5842 0.0000 0.0000 1854.3220 -7557.5158 311.5130 -9411.8378 -7557.5158 311.5130 -345.4126 -267.2446 30478.1976 -345.4126 -267.2446
ENERGY: 300000 3.9159 6.1036 17.6028 0.0000 -10831.9324 1465.2493 0.0000 0.0000 1776.6445 -7562.4162 298.4638 -9339.0608 -7573.9573 305.6176 18.1998 122.1251 30685.4302 155.5670 210.5670
ENERGY: 600000 3.7511 4.7903 14.4900 0.0000 -10957.7152 1453.5444 0.0000 0.0000 1774.6607 -7706.4787 298.1305 -9481.1393 -7609.9412 300.9962 -206.4546 -177.6824 30429.0867 -45.9330 8.5738
ENERGY: 900000 3.5045 12.4005 14.9844 0.0000 -10866.3575 1498.2319 0.0000 0.0000 1789.1568 -7548.0794 300.5657 -9337.2362 -7596.7909 300.3886 188.7638 258.9985 30879.2727 9.5253 62.8761
ENERGY: 1200000 6.7273 7.7565 17.4403 0.0000 -10889.9153 1504.0103 0.0000 0.0000 1792.6528 -7561.3281 301.1530 -9353.9809 -7585.1875 301.2878 250.3664 243.2925 31123.4332 53.1365 100.8476
ENERGY: 1500000 4.9302 8.5001 15.5191 0.0000 -10980.4032 1497.2725 0.0000 0.0000 1779.5965 -7674.5847 298.9597 -9454.1813 -7594.1083 300.9461 248.5015 267.6832 30563.6796 45.2160 95.7418
TCL: Running FEP window  20: Lambda1 0.049999999999999684 Lambda2 0.0    [dLambda -0.049999999999999684]
TCL: Setting parameter firsttimestep to 0
TCL: Setting parameter alchLambda to 0.049999999999999684
Info: NONBONDED TABLE R-SQUARED SPACING: 0.0625
Info: NONBONDED TABLE SIZE: 705 POINTS
TCL: Setting parameter alchLambda2 to 0.0
Info: NONBONDED TABLE R-SQUARED SPACING: 0.0625
Info: NONBONDED TABLE SIZE: 705 POINTS
TCL: Running for 1500000 steps
ETITLE: TS BOND ANGLE DIHED IMPRP ELECT VDW BOUNDARY MISC KINETIC TOTAL TEMP POTENTIAL TOTALAVG TEMPAVG PRESSURE GPRESSURE VOLUME PRESSAVG GPRESSAVG
ENERGY: 0 4.9302 8.5001 15.5191 0.0000 -10980.4030 1496.4502 0.0000 0.0000 1778.6963 -7676.3071 298.8084 -9455.0033 -7676.3071 298.8084 167.2081 262.9252 30563.6796 167.2081 262.9252
ENERGY: 300000 6.0808 6.3448 18.0623 0.0000 -10773.6184 1370.6722 0.0000 0.0000 1824.6179 -7547.8403 306.5230 -9372.4582 -7594.0732 301.3812 -840.7571 -740.0928 30583.5628 -184.3794 -110.0843
ENERGY: 600000 2.6826 6.2753 16.8849 0.0000 -10767.5732 1414.4169 0.0000 0.0000 1806.4638 -7520.8496 303.4732 -9327.3133 -7566.2924 301.7774 -202.1111 -128.7222 30651.4171 -51.4636 10.5031
ENERGY: 900000 2.8438 6.9403 20.3375 0.0000 -10950.0839 1526.1207 0.0000 0.0000 1760.8273 -7633.0142 295.8066 -9393.8415 -7573.2826 301.2490 447.5970 517.5826 30548.7058 105.9440 170.8775
ENERGY: 1200000 3.5527 8.0519 17.7466 0.0000 -10853.6128 1445.9768 0.0000 0.0000 1792.4300 -7585.8547 301.1156 -9378.2847 -7577.3452 300.3199 -122.3240 3.9140 30515.3434 93.9647 167.1798
ENERGY: 1500000 9.0698 7.5759 21.2318 0.0000 -10880.3939 1492.4788 0.0000 0.0000 1826.9303 -7523.1074 306.9114 -9350.0377 -7578.5437 300.3454 119.9413 201.9187 30854.1237 126.5510 204.9056
TCL: Exiting due to exit command.
