Info: SIMULATION PARAMETERS:
Info: TIMESTEP               2
Info: NUMBER OF STEPS        0
Info: STEPS PER CYCLE        10
Info: PERIODIC CELL BASIS 1  30.3605 0 0
Info: PERIODIC CELL BASIS 2  0 30.7945 0
Info: PERIODIC CELL BASIS 3  0 0 33.0125
Info: PERIODIC CELL CENTER   0 0 0
Info: WRAPPING WATERS AROUND PERIODIC BOUNDARIES ON OUTPUT.
Info: WRAPPING ALL CLUSTERS AROUND PERIODIC BOUNDARIES ON OUTPUT.
Info: FIRST LDB TIMESTEP     50
Info: LAST LDB TIMESTEP     -1
Info: HOM BACKGROUND SCALING 1
Info: PME BACKGROUND SCALING 1
Info: MIN ATOMS PER PATCH    40
Info: EMPTY PATCH LOAD       40 ATOMS
Info: VELOCITY FILE          mobley_7463408_equil.vel
Info: CENTER OF MASS MOVING INITIALLY? NO
Info: DIELECTRIC             1
Info: EXCLUDE                SCALED ONE-FOUR
Info: 1-4 ELECTROSTATICS SCALED BY 0.833333
Info: MODIFIED 1-4 VDW PARAMETERS WILL BE USED
Info: DCD FILENAME           mobley_7463408_prod.dcd
Info: DCD FREQUENCY          100000
Info: DCD FIRST STEP         100000
Info: DCD FILE WILL CONTAIN UNIT CELL DATA
Info: XST FILENAME           mobley_7463408_prod.xst
Info: XST FREQUENCY          100000
Info: NO VELOCITY DCD OUTPUT
Info: NO FORCE DCD OUTPUT
Info: OUTPUT FILENAME        mobley_7463408_prod
Info: BINARY OUTPUT FILES WILL BE USED
Info: RESTART FILENAME       mobley_7463408_prod.restart
Info: RESTART FREQUENCY      100000
Info: BINARY RESTART FILES WILL BE USED
Info: CUTOFF                 9
Info: PAIRLIST DISTANCE      11
Info: PAIRLIST SHRINK RATE   0.01
Info: PAIRLIST GROW RATE     0.01
Info: PAIRLIST TRIGGER       0.3
Info: PAIRLISTS PER CYCLE    2
Info: PAIRLISTS ENABLED
Info: MARGIN                 2
Info: HYDROGEN GROUP CUTOFF  2.5
Info: PATCH DIMENSION        15.5
Info: ENERGY OUTPUT STEPS    100000
Info: ENERGY EVALUATION STEPS    100000
Info: OUTPUT ENERGY PRECISION 4
Info: CROSSTERM ENERGY INCLUDED IN DIHEDRAL
Info: TIMING OUTPUT STEPS    1000000
Info: PRESSURE OUTPUT STEPS  100000
Info: ALCHEMICAL FEP ON
Info: FEP CURRENT LAMBDA VALUE     1
Info: FEP COMPARISON LAMBDA VALUE  0.95
Info: FEP INTRA-ALCHEMICAL NON-BONDED INTERACTIONS WILL BE RETAINED
Info: FEP INTRA-ALCHEMICAL BONDED INTERACTIONS WILL BE RETAINED
Info: FEP VDW SHIFTING COEFFICIENT 5
Info: FEP ELEC. ACTIVE FOR ANNIHILATED PARTICLES BETWEEN LAMBDA = 0 AND LAMBDA = 0.5
Info: FEP ELEC. ACTIVE FOR EXNIHILATED PARTICLES BETWEEN LAMBDA = 0.5 AND LAMBDA = 1
Info: FEP VDW ACTIVE FOR ANNIHILATED PARTICLES BETWEEN LAMBDA = 0 AND LAMBDA = 1
Info: FEP VDW ACTIVE FOR EXNIHILATED PARTICLES BETWEEN LAMBDA = 0 AND LAMBDA = 1
Info: FEP BOND ACTIVE FOR ANNIHILATED PARTICLES BETWEEN LAMBDA = 1 AND LAMBDA = 1
Info: FEP BOND ACTIVE FOR EXNIHILATED PARTICLES BETWEEN LAMBDA = 0 AND LAMBDA = 0
Info: LANGEVIN DYNAMICS ACTIVE
Info: LANGEVIN TEMPERATURE   300
Info: LANGEVIN USING BBK INTEGRATOR
Info: LANGEVIN DAMPING COEFFICIENT IS 1 INVERSE PS
Info: LANGEVIN DYNAMICS APPLIED TO HYDROGENS
Info: LANGEVIN PISTON PRESSURE CONTROL ACTIVE
Info:        TARGET PRESSURE IS 1.01325 BAR
Info:     OSCILLATION PERIOD IS 50 FS
Info:             DECAY TIME IS 25 FS
Info:     PISTON TEMPERATURE IS 300 K
Info:       PRESSURE CONTROL IS GROUP-BASED
Info:    INITIAL STRAIN RATE IS -0.000605183 -0.000605183 -0.000605183
Info:       CELL FLUCTUATION IS ISOTROPIC
Info: PARTICLE MESH EWALD (PME) ACTIVE
Info: PME TOLERANCE               1e-06
Info: PME EWALD COEFFICIENT       0.348832
Info: PME INTERPOLATION ORDER     4
Info: PME GRID DIMENSIONS         32 32 36
Info: PME MAXIMUM GRID SPACING    1
Info: PME CALCULATION WILL BE PERFORMED ON GPU
Info: FULL ELECTROSTATIC EVALUATION FREQUENCY      2
Info: USING VERLET I (r-RESPA) MTS SCHEME.
Info: C1 SPLITTING OF LONG RANGE ELECTROSTATICS
Info: PLACING ATOMS IN PATCHES BY HYDROGEN GROUPS
Info: RIGID BONDS TO HYDROGEN : ALL
Info:         ERROR TOLERANCE : 1e-08
Info:          MAX ITERATIONS : 100
Info: RIGID WATER USING SETTLE ALGORITHM
Info: RANDOM NUMBER SEED     1743884027
Info: USE HYDROGEN BONDS?    NO
Info: Using AMBER format force field!
Info: AMBER PARM FILE        mobley_7463408.prmtop
Info: COORDINATE PDB         mobley_7463408.pdb
Info: Exclusions will be read from PARM file!
Info: SCNB (VDW SCALING)     2
Info: USING ARITHMETIC MEAN TO COMBINE L-J SIGMA PARAMETERS
Info: BINARY COORDINATES     mobley_7463408_equil.coor
Info: SUMMARY OF PARAMETERS:
Info: 12 BONDS
Info: 14 ANGLES
Info:   14 HARMONIC
Info:   0 COSINE-BASED
Info: 14 DIHEDRAL
Info: 0 IMPROPER
Info: 0 CROSSTERM
Info: 0 VDW
Info: 55 VDW_PAIRS
Info: 0 NBTHOLE_PAIRS
Info: To read alchdata from file: mobley_7463408.pdb
Info: To read alchflag data from column: 5
Info: STRUCTURE SUMMARY:
Info: 2989 ATOMS
Info: 2989 BONDS
Info: 36 ANGLES
Info: 61 DIHEDRALS
Info: 0 IMPROPERS
Info: 0 CROSSTERMS
Info: 3069 EXCLUSIONS
Info: 2976 RIGID BONDS
Info: ALCH: 0 ATOMS TO DISAPPEAR IN FINAL STATE
Info: ALCH: 22 ATOMS TO APPEAR IN FINAL STATE
Info: 5991 DEGREES OF FREEDOM
Info: 1002 HYDROGEN GROUPS
Info: 4 ATOMS IN LARGEST HYDROGEN GROUP
Info: 1002 MIGRATION GROUPS
Info: 4 ATOMS IN LARGEST MIGRATION GROUP
Info: TOTAL MASS = 18035.9 amu
Info: TOTAL CHARGE = -9.99626e-05 e
Info: MASS DENSITY = 0.970369 g/cm^3
Info: ATOM DENSITY = 0.0968425 atoms/A^3
Info: ADDED 0 IMPLICIT EXCLUSIONS
Info: NONBONDED TABLE R-SQUARED SPACING: 0.0625
Info: NONBONDED TABLE SIZE: 705 POINTS
Info: REMOVING COM VELOCITY 0.0159063 -0.024482 -0.024972
Info: Use 3D box decompostion in PME FFT.
Info: Updated CUDA force table with 4096 elements.
Info: Updated CUDA LJ table with 10 x 10 elements.
Info: Found 24 unique exclusion lists needing 76 bytes
TCL: Running for 1500000 steps
ETITLE: TS BOND ANGLE DIHED IMPRP ELECT VDW BOUNDARY MISC KINETIC TOTAL TEMP POTENTIAL TOTALAVG TEMPAVG PRESSURE GPRESSURE VOLUME PRESSAVG GPRESSAVG
ENERGY: 0 2.2518 4.5596 6.8712 0.0000 -10766.4491 1426.5618 0.0000 0.0000 1796.3478 -7529.8569 301.7738 -9326.2047 -7529.8569 301.7738 -8.3559 91.5433 30864.5472 -8.3559 91.5433
ENERGY: 300000 5.2460 6.7654 4.6348 0.0000 -10817.3528 1410.3902 0.0000 0.0000 1800.1055 -7590.2109 302.4050 -9390.3164 -7583.1314 299.9022 -305.2475 -266.0101 30703.7363 -376.2201 -310.5531
ENERGY: 600000 3.9959 6.4991 7.2021 0.0000 -10994.3446 1532.1828 0.0000 0.0000 1744.2000 -7700.2646 293.0133 -9444.4646 -7598.4648 298.2560 652.2372 685.2797 30710.6134 -126.6367 -75.0119
ENERGY: 900000 7.2464 4.6543 7.9416 0.0000 -10826.5854 1452.1291 0.0000 0.0000 1804.7724 -7549.8415 303.1891 -9354.6140 -7594.2689 298.8989 338.7086 388.7356 30809.4046 -133.0539 -93.7324
ENERGY: 1200000 4.0229 5.7472 7.9259 0.0000 -10807.3965 1481.5425 0.0000 0.0000 1785.1962 -7522.9619 299.9004 -9308.1581 -7590.8920 299.1249 709.1737 747.3002 30487.5029 -98.4064 -50.7070
ENERGY: 1500000 5.6927 9.2209 10.1279 0.0000 -10815.4289 1400.4491 0.0000 0.0000 1785.2900 -7604.6483 299.9161 -9389.9383 -7596.4920 299.4385 -273.8185 -283.6152 30774.6317 -45.3635 3.0434
TCL: Running FEP window   2: Lambda1 0.95   Lambda2 0.8999999999999999 [dLambda -0.050000000000000044]
TCL: Setting parameter firsttimestep to 0
TCL: Setting parameter alchLambda to 0.95
Info: NONBONDED TABLE R-SQUARED SPACING: 0.0625
Info: NONBONDED TABLE SIZE: 705 POINTS
TCL: Setting parameter alchLambda2 to 0.8999999999999999
Info: NONBONDED TABLE R-SQUARED SPACING: 0.0625
Info: NONBONDED TABLE SIZE: 705 POINTS
TCL: Running for 1500000 steps
ETITLE: TS BOND ANGLE DIHED IMPRP ELECT VDW BOUNDARY MISC KINETIC TOTAL TEMP POTENTIAL TOTALAVG TEMPAVG PRESSURE GPRESSURE VOLUME PRESSAVG GPRESSAVG
ENERGY: 0 5.6927 9.2209 10.1279 0.0000 -10813.5596 1400.6636 0.0000 0.0000 1784.4056 -7603.4488 299.7676 -9387.8544 -7603.4488 299.7676 -390.6000 -302.6051 30774.6317 -390.6000 -302.6051
ENERGY: 300000 3.2070 8.1209 8.2843 0.0000 -10888.9300 1455.4681 0.0000 0.0000 1773.9774 -7639.8723 298.0157 -9413.8497 -7635.0419 299.5858 97.6926 115.5789 30628.7043 -289.7804 -211.4811
ENERGY: 600000 3.6276 7.8915 5.3944 0.0000 -10861.7376 1428.9128 0.0000 0.0000 1777.7882 -7638.1230 298.6559 -9415.9112 -7625.5297 299.6394 -305.4467 -194.1828 30902.6256 -164.3731 -73.7084
ENERGY: 900000 3.2687 11.3054 5.0061 0.0000 -10889.4593 1498.7920 0.0000 0.0000 1809.2902 -7561.7968 303.9480 -9371.0870 -7609.6047 300.1738 430.3201 471.7190 30813.1919 -24.4043 63.3597
ENERGY: 1200000 5.7382 9.5826 8.4171 0.0000 -10842.3797 1439.6470 0.0000 0.0000 1768.4057 -7610.5892 297.0797 -9378.9949 -7618.8453 298.6437 84.9724 189.8476 30552.9435 -29.0463 53.0195
ENERGY: 1500000 2.2154 10.2500 2.7406 0.0000 -10707.4543 1362.2768 0.0000 0.0000 1819.6156 -7510.3558 305.6826 -9329.9714 -7613.4465 298.6930 -721.9304 -665.6523 31300.0903 -82.9302 -5.0610
TCL: Running FEP window   3: Lambda1 0.8999999999999999 Lambda2 0.8499999999999999 [dLambda -0.050000000000000044]
TCL: Setting parameter firsttimestep to 0
TCL: Setting parameter alchLambda to 0.8999999999999999
Info: NONBONDED TABLE R-SQUARED SPACING: 0.0625
Info: NONBONDED TABLE SIZE: 705 POINTS
TCL: Setting parameter alchLambda2 to 0.8499999999999999
Info: NONBONDED TABLE R-SQUARED SPACING: 0.0625
Info: NONBONDED TABLE SIZE: 705 POINTS
TCL: Running for 1500000 steps
ETITLE: TS BOND ANGLE DIHED IMPRP ELECT VDW BOUNDARY MISC KINETIC TOTAL TEMP POTENTIAL TOTALAVG TEMPAVG PRESSURE GPRESSURE VOLUME PRESSAVG GPRESSAVG
ENERGY: 0 2.2154 10.2500 2.7406 0.0000 -10705.2169 1362.0202 0.0000 0.0000 1818.7011 -7509.2896 305.5290 -9327.9907 -7509.2896 305.5290 -752.2534 -680.9850 31300.0903 -752.2534 -680.9850
ENERGY: 300000 6.8974 7.5068 7.6159 0.0000 -10796.0049 1404.1594 0.0000 0.0000 1829.1741 -7540.6513 307.2884 -9369.8254 -7513.3280 305.2567 -755.7482 -618.6140 31129.8064 -216.4955 -134.1247
ENERGY: 600000 4.0753 6.4468 12.2090 0.0000 -10868.3339 1468.1490 0.0000 0.0000 1754.9612 -7622.4926 294.8211 -9377.4538 -7521.1097 302.6257 51.5367 -39.4437 31172.1505 -147.8030 -105.4508
ENERGY: 900000 4.9895 5.8768 9.8619 0.0000 -10856.5607 1472.3151 0.0000 0.0000 1792.1462 -7571.3711 301.0679 -9363.5174 -7542.0939 301.6515 338.8681 443.5994 31027.0933 10.1694 64.0844
ENERGY: 1200000 1.9039 9.2081 7.4178 0.0000 -10587.7905 1280.2305 0.0000 0.0000 1791.4429 -7497.5873 300.9498 -9289.0302 -7553.5163 299.9932 -1032.4400 -1006.1883 31478.0148 -170.2457 -118.8963
ENERGY: 1500000 2.5009 6.8339 10.0651 0.0000 -10945.2981 1470.1332 0.0000 0.0000 1727.4031 -7728.3618 290.1916 -9455.7650 -7561.8135 300.3340 -140.3592 -55.9739 30832.2902 -141.8397 -87.4608
TCL: Running FEP window   4: Lambda1 0.8499999999999999 Lambda2 0.7999999999999998 [dLambda -0.050000000000000044]
TCL: Setting parameter firsttimestep to 0
TCL: Setting parameter alchLambda to 0.8499999999999999
Info: NONBONDED TABLE R-SQUARED SPACING: 0.0625
Info: NONBONDED TABLE SIZE: 705 POINTS
TCL: Setting parameter alchLambda2 to 0.7999999999999998
Info: NONBONDED TABLE R-SQUARED SPACING: 0.0625
Info: NONBONDED TABLE SIZE: 705 POINTS
TCL: Running for 1500000 steps
ETITLE: TS BOND ANGLE DIHED IMPRP ELECT VDW BOUNDARY MISC KINETIC TOTAL TEMP POTENTIAL TOTALAVG TEMPAVG PRESSURE GPRESSURE VOLUME PRESSAVG GPRESSAVG
ENERGY: 0 2.5009 6.8339 10.0651 0.0000 -10943.2848 1470.4131 0.0000 0.0000 1726.5235 -7726.9483 290.0438 -9453.4718 -7726.9483 290.0438 -151.1208 -66.5215 30832.2902 -151.1208 -66.5215
ENERGY: 300000 4.1268 8.3741 4.4372 0.0000 -10816.9878 1467.5991 0.0000 0.0000 1752.6356 -7579.8150 294.4304 -9332.4506 -7688.9333 292.1446 550.6361 615.9092 30537.1107 86.3093 148.4231
ENERGY: 600000 2.4389 10.2289 10.8425 0.0000 -10760.8434 1471.3289 0.0000 0.0000 1773.4535 -7492.5508 297.9277 -9266.0043 -7661.3161 293.3527 418.9507 524.5567 31081.6184 162.8499 235.4192
ENERGY: 900000 3.3322 7.2286 6.4389 0.0000 -11006.4585 1504.0378 0.0000 0.0000 1757.3359 -7728.0852 295.2200 -9485.4210 -7660.6310 293.5041 210.4295 282.9934 30452.2663 85.4252 157.4149
ENERGY: 1200000 2.1294 10.7444 9.8676 0.0000 -10801.3152 1444.8566 0.0000 0.0000 1805.7567 -7527.9604 303.3544 -9333.7171 -7646.5162 294.3399 133.6419 242.7576 30684.2724 40.7742 109.6923
ENERGY: 1500000 3.3129 7.6011 6.6234 0.0000 -10842.6200 1447.8257 0.0000 0.0000 1747.5737 -7629.6834 293.5801 -9377.2571 -7626.7420 295.6172 240.2471 291.7497 30280.6026 43.6319 110.6073
TCL: Running FEP window   5: Lambda1 0.7999999999999998 Lambda2 0.7499999999999998 [dLambda -0.050000000000000044]
TCL: Setting parameter firsttimestep to 0
TCL: Setting parameter alchLambda to 0.7999999999999998
Info: NONBONDED TABLE R-SQUARED SPACING: 0.0625
Info: NONBONDED TABLE SIZE: 705 POINTS
TCL: Setting parameter alchLambda2 to 0.7499999999999998
Info: NONBONDED TABLE R-SQUARED SPACING: 0.0625
Info: NONBONDED TABLE SIZE: 705 POINTS
TCL: Running for 1500000 steps
ETITLE: TS BOND ANGLE DIHED IMPRP ELECT VDW BOUNDARY MISC KINETIC TOTAL TEMP POTENTIAL TOTALAVG TEMPAVG PRESSURE GPRESSURE VOLUME PRESSAVG GPRESSAVG
ENERGY: 0 3.3129 7.6011 6.6234 0.0000 -10840.5942 1447.9541 0.0000 0.0000 1746.6983 -7628.4044 293.4330 -9375.1027 -7628.4044 293.4330 195.2502 284.6921 30280.6026 195.2502 284.6921
ENERGY: 300000 5.3492 7.8011 7.2140 0.0000 -10871.5395 1497.6036 0.0000 0.0000 1826.8203 -7526.7513 306.8929 -9353.5716 -7567.3564 299.0749 260.5628 383.2214 30981.2502 -194.9261 -104.1781
ENERGY: 600000 3.9848 9.2168 8.4586 0.0000 -10630.1562 1322.9241 0.0000 0.0000 1808.3758 -7477.1963 303.7944 -9285.5720 -7566.6297 300.8036 -778.5689 -740.4586 31103.6541 -152.4601 -86.0860
ENERGY: 900000 4.4455 4.7970 7.2529 0.0000 -10833.0959 1374.6333 0.0000 0.0000 1738.5710 -7703.3961 292.0677 -9441.9672 -7586.9860 299.9536 -702.2028 -691.5043 30630.5666 -111.7494 -52.2093
ENERGY: 1200000 2.7709 11.7872 8.9153 0.0000 -10870.5806 1492.8155 0.0000 0.0000 1804.0323 -7550.2596 303.0647 -9354.2918 -7590.2970 300.4399 466.6960 520.4279 30838.0280 2.7927 61.2892
ENERGY: 1500000 3.1442 8.7610 6.3931 0.0000 -10642.2378 1400.8956 0.0000 0.0000 1785.1003 -7437.9437 299.8843 -9223.0440 -7576.7532 300.4691 296.3316 311.3149 30915.8056 17.6402 75.4295
TCL: Running FEP window   6: Lambda1 0.7499999999999998 Lambda2 0.6999999999999997 [dLambda -0.050000000000000044]
TCL: Setting parameter firsttimestep to 0
TCL: Setting parameter alchLambda to 0.7499999999999998
Info: NONBONDED TABLE R-SQUARED SPACING: 0.0625
Info: NONBONDED TABLE SIZE: 705 POINTS
TCL: Setting parameter alchLambda2 to 0.6999999999999997
Info: NONBONDED TABLE R-SQUARED SPACING: 0.0625
Info: NONBONDED TABLE SIZE: 705 POINTS
TCL: Running for 1500000 steps
ETITLE: TS BOND ANGLE DIHED IMPRP ELECT VDW BOUNDARY MISC KINETIC TOTAL TEMP POTENTIAL TOTALAVG TEMPAVG PRESSURE GPRESSURE VOLUME PRESSAVG GPRESSAVG
ENERGY: 0 3.1442 8.7610 6.3931 0.0000 -10640.2362 1400.0686 0.0000 0.0000 1784.2186 -7437.6507 299.7362 -9221.8693 -7437.6507 299.7362 206.2062 293.7118 30915.8056 206.2062 293.7118
ENERGY: 300000 5.0968 11.8569 8.8863 0.0000 -10739.7157 1347.0234 0.0000 0.0000 1788.5356 -7578.3167 300.4614 -9366.8524 -7537.1125 299.7966 -936.4289 -833.0099 31224.6526 -77.3834 -11.2207
ENERGY: 600000 2.7055 7.0931 5.8675 0.0000 -10945.1487 1548.8236 0.0000 0.0000 1790.6122 -7590.0468 300.8102 -9380.6590 -7562.9714 300.2881 639.4884 695.0963 30977.4993 44.3745 105.3083
ENERGY: 900000 4.5089 7.7034 7.3061 0.0000 -10657.3623 1358.6113 0.0000 0.0000 1795.0308 -7484.2018 301.5525 -9279.2326 -7542.1128 301.7632 -322.7712 -265.9284 30939.5558 -56.4385 0.7280
ENERGY: 1200000 3.1334 7.6181 4.4412 0.0000 -10697.2311 1357.5769 0.0000 0.0000 1778.3247 -7546.1368 298.7460 -9324.4615 -7551.5643 301.4671 -523.7047 -459.9097 30855.8847 -89.7523 -27.5499
ENERGY: 1500000 2.6908 6.2614 9.2008 0.0000 -10946.6905 1556.5373 0.0000 0.0000 1772.3451 -7599.6551 297.7415 -9372.0002 -7558.1677 301.0343 573.9890 665.6870 30835.7064 -71.6297 -7.6009
TCL: Running FEP window   7: Lambda1 0.6999999999999997 Lambda2 0.6499999999999997 [dLambda -0.050000000000000044]
TCL: Setting parameter firsttimestep to 0
TCL: Setting parameter alchLambda to 0.6999999999999997
Info: NONBONDED TABLE R-SQUARED SPACING: 0.0625
Info: NONBONDED TABLE SIZE: 705 POINTS
TCL: Setting parameter alchLambda2 to 0.6499999999999997
Info: NONBONDED TABLE R-SQUARED SPACING: 0.0625
Info: NONBONDED TABLE SIZE: 705 POINTS
TCL: Running for 1500000 steps
ETITLE: TS BOND ANGLE DIHED IMPRP ELECT VDW BOUNDARY MISC KINETIC TOTAL TEMP POTENTIAL TOTALAVG TEMPAVG PRESSURE GPRESSURE VOLUME PRESSAVG GPRESSAVG
ENERGY: 0 2.6908 6.2614 9.2008 0.0000 -10945.2213 1555.8134 0.0000 0.0000 1771.4324 -7599.8226 297.5882 -9371.2550 -7599.8226 297.5882 569.7768 648.3287 30835.7064 569.7768 648.3287
ENERGY: 300000 2.7640 7.8081 5.3465 0.0000 -10633.3081 1330.8207 0.0000 0.0000 1756.0400 -7530.5288 295.0023 -9286.5688 -7558.0291 298.3169 -826.2547 -773.3593 31288.2212 -125.3155 -55.1017
ENERGY: 600000 2.7678 5.2629 9.7884 0.0000 -10687.8517 1354.1366 0.0000 0.0000 1827.2392 -7488.6569 306.9633 -9315.8961 -7543.4913 300.5167 -637.3394 -557.8432 31099.3732 69.3855 138.4940
ENERGY: 900000 2.6745 7.6938 4.9410 0.0000 -10822.9891 1452.0246 0.0000 0.0000 1705.2336 -7650.4216 286.4672 -9355.6552 -7545.0035 300.3393 -107.3357 -21.4177 30690.3240 68.2496 140.8099
ENERGY: 1200000 8.2368 10.2008 6.4982 0.0000 -10909.1488 1548.4204 0.0000 0.0000 1766.8265 -7568.9661 296.8144 -9335.7926 -7561.4813 298.8110 868.3179 952.8996 30590.0837 52.2655 124.7952
ENERGY: 1500000 3.9507 9.1954 7.1107 0.0000 -10796.6127 1482.1150 0.0000 0.0000 1829.3085 -7464.9324 307.3109 -9294.2409 -7562.2321 299.8110 473.7763 555.1782 31115.0075 120.7460 188.9652
TCL: Running FEP window   8: Lambda1 0.6499999999999997 Lambda2 0.5999999999999996 [dLambda -0.050000000000000044]
TCL: Setting parameter firsttimestep to 0
TCL: Setting parameter alchLambda to 0.6499999999999997
Info: NONBONDED TABLE R-SQUARED SPACING: 0.0625
Info: NONBONDED TABLE SIZE: 705 POINTS
TCL: Setting parameter alchLambda2 to 0.5999999999999996
Info: NONBONDED TABLE R-SQUARED SPACING: 0.0625
Info: NONBONDED TABLE SIZE: 705 POINTS
TCL: Running for 1500000 steps
ETITLE: TS BOND ANGLE DIHED IMPRP ELECT VDW BOUNDARY MISC KINETIC TOTAL TEMP POTENTIAL TOTALAVG TEMPAVG PRESSURE GPRESSURE VOLUME PRESSAVG GPRESSAVG
ENERGY: 0 3.9507 9.1954 7.1107 0.0000 -10795.7675 1482.9680 0.0000 0.0000 1828.3947 -7464.1481 307.1574 -9292.5428 -7464.1481 307.1574 465.7966 554.7202 31115.0075 465.7966 554.7202
ENERGY: 300000 4.1967 8.3078 9.1858 0.0000 -10879.0437 1444.1050 0.0000 0.0000 1720.6827 -7692.5656 289.0626 -9413.2483 -7586.3968 296.0330 -118.9351 -32.8664 30488.6340 -189.2708 -107.5650
ENERGY: 600000 4.8333 8.7029 3.8556 0.0000 -10880.7200 1488.4475 0.0000 0.0000 1833.4812 -7541.3994 308.0119 -9374.8807 -7573.9851 300.6292 446.8360 478.5595 30503.0430 -75.7645 -12.8453
ENERGY: 900000 3.6232 9.3858 9.4569 0.0000 -10890.9718 1476.9368 0.0000 0.0000 1828.2763 -7563.2928 307.1375 -9391.5691 -7571.9615 301.3606 388.3119 428.5141 30290.6425 -28.6630 29.2330
ENERGY: 1200000 3.4912 7.5193 5.2171 0.0000 -10807.5906 1415.7812 0.0000 0.0000 1820.0646 -7555.5172 305.7580 -9375.5819 -7573.0641 302.1313 55.4189 144.8397 30447.0875 -19.0688 40.0400
ENERGY: 1500000 2.5285 7.3067 6.5783 0.0000 -10972.5319 1493.8133 0.0000 0.0000 1792.9961 -7669.3091 301.2107 -9462.3052 -7573.4632 301.6803 75.5444 92.9193 30900.6015 32.3332 89.7516
TCL: Running FEP window   9: Lambda1 0.5999999999999996 Lambda2 0.5499999999999996 [dLambda -0.050000000000000044]
TCL: Setting parameter firsttimestep to 0
TCL: Setting parameter alchLambda to 0.5999999999999996
Info: NONBONDED TABLE R-SQUARED SPACING: 0.0625
Info: NONBONDED TABLE SIZE: 705 POINTS
TCL: Setting parameter alchLambda2 to 0.5499999999999996
Info: NONBONDED TABLE R-SQUARED SPACING: 0.0625
Info: NONBONDED TABLE SIZE: 705 POINTS
TCL: Running for 1500000 steps
ETITLE: TS BOND ANGLE DIHED IMPRP ELECT VDW BOUNDARY MISC KINETIC TOTAL TEMP POTENTIAL TOTALAVG TEMPAVG PRESSURE GPRESSURE VOLUME PRESSAVG GPRESSAVG
ENERGY: 0 2.5285 7.3067 6.5783 0.0000 -10971.2622 1493.6136 0.0000 0.0000 1792.1119 -7669.1233 301.0622 -9461.2352 -7669.1233 301.0622 6.8057 83.0006 30900.6015 6.8057 83.0006
ENERGY: 300000 3.7378 8.0234 5.0760 0.0000 -10847.4338 1455.0306 0.0000 0.0000 1743.6524 -7631.9137 292.9213 -9375.5661 -7614.7456 296.5692 150.6687 160.6854 30653.9905 -143.3174 -111.8151
ENERGY: 600000 2.3117 8.9716 2.8544 0.0000 -10940.2505 1526.1474 0.0000 0.0000 1790.5544 -7609.4110 300.8005 -9399.9653 -7608.6804 298.5675 571.2156 649.6446 30468.9557 -239.5910 -201.7889
ENERGY: 900000 5.8184 4.9798 4.9634 0.0000 -10898.8592 1480.2644 0.0000 0.0000 1849.7146 -7553.1186 310.7390 -9402.8332 -7588.0041 300.0012 53.4848 136.3100 30543.1028 -254.8155 -206.1542
ENERGY: 1200000 3.0268 9.1433 6.8350 0.0000 -10752.5370 1381.5054 0.0000 0.0000 1772.0571 -7579.9695 297.6931 -9352.0265 -7583.9174 300.0243 -469.2181 -408.7919 30685.7840 -373.1822 -323.1277
ENERGY: 1500000 7.4233 8.7535 4.2480 0.0000 -10925.3893 1475.5657 0.0000 0.0000 1739.2395 -7690.1592 292.1800 -9429.3987 -7584.5623 299.9744 92.7901 143.2946 30522.1546 -286.6955 -232.9392
TCL: Running FEP window  10: Lambda1 0.5499999999999996 Lambda2 0.4999999999999996 [dLambda -0.04999999999999999]
TCL: Setting parameter firsttimestep to 0
TCL: Setting parameter alchLambda to 0.5499999999999996
Info: NONBONDED TABLE R-SQUARED SPACING: 0.0625
Info: NONBONDED TABLE SIZE: 705 POINTS
TCL: Setting parameter alchLambda2 to 0.4999999999999996
Info: NONBONDED TABLE R-SQUARED SPACING: 0.0625
Info: NONBONDED TABLE SIZE: 705 POINTS
TCL: Running for 1500000 steps
ETITLE: TS BOND ANGLE DIHED IMPRP ELECT VDW BOUNDARY MISC KINETIC TOTAL TEMP POTENTIAL TOTALAVG TEMPAVG PRESSURE GPRESSURE VOLUME PRESSAVG GPRESSAVG
ENERGY: 0 7.4233 8.7535 4.2480 0.0000 -10923.9832 1476.2323 0.0000 0.0000 1738.3646 -7688.9614 292.0330 -9427.3260 -7688.9614 292.0330 56.8550 144.4153 30522.1546 56.8550 144.4153
ENERGY: 300000 4.4876 9.2733 4.9659 0.0000 -10804.1126 1419.1382 0.0000 0.0000 1816.8609 -7549.3866 305.2198 -9366.2475 -7569.0278 301.5694 -399.8441 -266.3339 30917.2618 -260.6048 -184.9787
ENERGY: 600000 3.5059 8.8803 4.4384 0.0000 -10920.2313 1519.1180 0.0000 0.0000 1789.2061 -7595.0826 300.5740 -9384.2887 -7589.7409 300.2883 285.6907 375.9739 30652.6454 -291.4293 -213.6058
ENERGY: 900000 3.2145 8.0260 4.6749 0.0000 -10819.6983 1532.2982 0.0000 0.0000 1812.5327 -7458.9520 304.4927 -9271.4847 -7568.5979 300.6545 843.0981 875.2608 30766.5860 -170.6457 -91.0017
ENERGY: 1200000 4.8960 4.9451 7.6977 0.0000 -10727.8074 1360.0583 0.0000 0.0000 1819.6771 -7530.5331 305.6929 -9350.2103 -7567.5007 301.1749 -679.5262 -666.9870 31125.1780 -227.8152 -154.6911
ENERGY: 1500000 5.3721 7.7278 3.5296 0.0000 -10923.2730 1482.4186 0.0000 0.0000 1799.8431 -7624.3818 302.3610 -9424.2249 -7573.9615 300.9668 165.3899 195.6171 30484.9978 -190.4257 -122.4909
TCL: Running FEP window  11: Lambda1 0.4999999999999996 Lambda2 0.4499999999999996 [dLambda -0.04999999999999999]
TCL: Setting parameter firsttimestep to 0
TCL: Setting parameter alchLambda to 0.4999999999999996
Info: NONBONDED TABLE R-SQUARED SPACING: 0.0625
Info: NONBONDED TABLE SIZE: 705 POINTS
TCL: Setting parameter alchLambda2 to 0.4499999999999996
Info: NONBONDED TABLE R-SQUARED SPACING: 0.0625
Info: NONBONDED TABLE SIZE: 705 POINTS
TCL: Running for 1500000 steps
ETITLE: TS BOND ANGLE DIHED IMPRP ELECT VDW BOUNDARY MISC KINETIC TOTAL TEMP POTENTIAL TOTALAVG TEMPAVG PRESSURE GPRESSURE VOLUME PRESSAVG GPRESSAVG
ENERGY: 0 5.3721 7.7278 3.5296 0.0000 -10923.0159 1482.9334 0.0000 0.0000 1799.0007 -7624.4523 302.2194 -9423.4530 -7624.4523 302.2194 107.8946 188.3590 30484.9978 107.8946 188.3590
ENERGY: 300000 7.0378 5.9504 7.2691 0.0000 -10900.6843 1459.0651 0.0000 0.0000 1745.5972 -7675.7647 293.2480 -9421.3619 -7642.8215 295.4818 -356.1460 -256.2897 30709.4498 -41.8258 38.5778
ENERGY: 600000 4.5573 7.7114 6.7959 0.0000 -10985.5599 1596.9250 0.0000 0.0000 1800.5843 -7568.9860 302.4855 -9369.5702 -7612.6646 297.3570 1206.2070 1244.6436 30437.5302 -5.7595 71.1384
ENERGY: 900000 6.6733 11.4826 3.2283 0.0000 -10712.4941 1308.6672 0.0000 0.0000 1800.6125 -7581.8302 302.4902 -9382.4427 -7604.6838 298.8252 -1101.9999 -1111.7430 31049.3201 -142.3235 -78.7950
ENERGY: 1200000 3.2997 8.9324 5.7007 0.0000 -10872.7298 1447.1374 0.0000 0.0000 1803.0832 -7604.5765 302.9053 -9407.6597 -7598.7521 299.7603 54.0925 98.3867 30742.2802 -134.2558 -67.6200
ENERGY: 1500000 5.9550 8.0329 5.1210 0.0000 -10732.1926 1367.8755 0.0000 0.0000 1851.3871 -7493.8211 311.0200 -9345.2082 -7589.0184 300.3408 -632.5067 -540.7838 30525.9422 -52.9596 12.6151
TCL: Running FEP window  12: Lambda1 0.4499999999999996 Lambda2 0.39999999999999963 [dLambda -0.04999999999999999]
TCL: Setting parameter firsttimestep to 0
TCL: Setting parameter alchLambda to 0.4499999999999996
Info: NONBONDED TABLE R-SQUARED SPACING: 0.0625
Info: NONBONDED TABLE SIZE: 705 POINTS
TCL: Setting parameter alchLambda2 to 0.39999999999999963
Info: NONBONDED TABLE R-SQUARED SPACING: 0.0625
Info: NONBONDED TABLE SIZE: 705 POINTS
TCL: Running for 1500000 steps
ETITLE: TS BOND ANGLE DIHED IMPRP ELECT VDW BOUNDARY MISC KINETIC TOTAL TEMP POTENTIAL TOTALAVG TEMPAVG PRESSURE GPRESSURE VOLUME PRESSAVG GPRESSAVG
ENERGY: 0 5.9550 8.0329 5.1210 0.0000 -10732.1909 1368.0336 0.0000 0.0000 1850.4974 -7494.5511 310.8705 -9345.0485 -7494.5511 310.8705 -638.0369 -550.4118 30525.9422 -638.0369 -550.4118
ENERGY: 300000 1.9589 7.5895 5.3014 0.0000 -10834.4385 1465.9804 0.0000 0.0000 1723.4543 -7630.1542 289.5282 -9353.6085 -7571.2746 300.9758 -171.5523 -85.6525 30905.3598 -392.1582 -283.1021
ENERGY: 600000 5.3506 14.4945 9.5798 0.0000 -10732.9213 1403.5994 0.0000 0.0000 1798.7661 -7501.1309 302.1800 -9299.8969 -7567.4139 299.6117 -155.6725 -219.7200 31169.4282 -386.0599 -322.4955
ENERGY: 900000 5.4717 6.3667 6.6416 0.0000 -10758.3916 1351.3721 0.0000 0.0000 1805.8130 -7582.7266 303.3639 -9388.5396 -7564.5576 300.6616 -751.6347 -695.5389 30658.0618 -371.4881 -305.9023
ENERGY: 1200000 3.7202 3.8590 5.0752 0.0000 -10682.5690 1347.1789 0.0000 0.0000 1714.3542 -7608.3815 287.9994 -9322.7357 -7564.2506 299.5352 -692.0341 -669.0226 30899.6470 -392.4468 -332.8102
ENERGY: 1500000 2.8168 8.2014 8.4298 0.0000 -10799.9728 1436.7795 0.0000 0.0000 1781.4798 -7562.2655 299.2761 -9343.7453 -7564.0452 299.2867 -21.4025 73.1463 30778.7163 -356.6545 -294.0046
TCL: Running FEP window  13: Lambda1 0.39999999999999963 Lambda2 0.34999999999999964 [dLambda -0.04999999999999999]
TCL: Setting parameter firsttimestep to 0
TCL: Setting parameter alchLambda to 0.39999999999999963
Info: NONBONDED TABLE R-SQUARED SPACING: 0.0625
Info: NONBONDED TABLE SIZE: 705 POINTS
TCL: Setting parameter alchLambda2 to 0.34999999999999964
Info: NONBONDED TABLE R-SQUARED SPACING: 0.0625
Info: NONBONDED TABLE SIZE: 705 POINTS
TCL: Running for 1500000 steps
ETITLE: TS BOND ANGLE DIHED IMPRP ELECT VDW BOUNDARY MISC KINETIC TOTAL TEMP POTENTIAL TOTALAVG TEMPAVG PRESSURE GPRESSURE VOLUME PRESSAVG GPRESSAVG
ENERGY: 0 2.8168 8.2014 8.4298 0.0000 -10799.9733 1437.3635 0.0000 0.0000 1780.5981 -7562.5636 299.1279 -9343.1618 -7562.5636 299.1279 1.9583 69.2427 30778.7163 1.9583 69.2427
ENERGY: 300000 0.8874 9.5744 6.5828 0.0000 -10764.6003 1441.1594 0.0000 0.0000 1820.3250 -7486.0712 305.8018 -9306.3962 -7573.6928 301.4950 -11.2322 56.0842 30949.4266 264.6872 320.1898
ENERGY: 600000 4.4161 7.3468 5.9768 0.0000 -10637.1687 1329.6968 0.0000 0.0000 1844.4755 -7445.2566 309.8589 -9289.7322 -7570.6686 302.2550 -887.6473 -867.4636 31100.5010 78.3288 115.7819
ENERGY: 900000 6.1855 8.3750 8.2423 0.0000 -10781.5825 1402.1526 0.0000 0.0000 1742.5703 -7614.0568 292.7395 -9356.6271 -7587.8277 300.2440 -613.5754 -488.5520 30790.1989 -136.2070 -91.2269
ENERGY: 1200000 5.7580 9.8820 6.7180 0.0000 -10683.7361 1375.7302 0.0000 0.0000 1764.3985 -7521.2493 296.4065 -9285.6478 -7571.2710 300.7560 -378.3135 -342.4717 30699.7648 -119.5570 -69.9283
ENERGY: 1500000 3.9492 6.0997 9.5553 0.0000 -10869.4664 1452.0149 0.0000 0.0000 1784.2091 -7613.6382 299.7345 -9397.8473 -7570.4092 301.0688 -277.8748 -214.9870 30853.4728 -78.4124 -26.6903
TCL: Running FEP window  14: Lambda1 0.34999999999999964 Lambda2 0.29999999999999966 [dLambda -0.04999999999999999]
TCL: Setting parameter firsttimestep to 0
TCL: Setting parameter alchLambda to 0.34999999999999964
Info: NONBONDED TABLE R-SQUARED SPACING: 0.0625
Info: NONBONDED TABLE SIZE: 705 POINTS
TCL: Setting parameter alchLambda2 to 0.29999999999999966
Info: NONBONDED TABLE R-SQUARED SPACING: 0.0625
Info: NONBONDED TABLE SIZE: 705 POINTS
TCL: Running for 1500000 steps
ETITLE: TS BOND ANGLE DIHED IMPRP ELECT VDW BOUNDARY MISC KINETIC TOTAL TEMP POTENTIAL TOTALAVG TEMPAVG PRESSURE GPRESSURE VOLUME PRESSAVG GPRESSAVG
ENERGY: 0 3.9492 6.0997 9.5553 0.0000 -10869.4663 1451.9207 0.0000 0.0000 1783.3223 -7614.6191 299.5856 -9397.9414 -7614.6191 299.5856 -313.2855 -225.6819 30853.4728 -313.2855 -225.6819
ENERGY: 300000 3.4785 6.3536 5.0630 0.0000 -10870.3763 1500.8869 0.0000 0.0000 1775.5601 -7579.0342 298.2816 -9354.5943 -7589.0401 296.8434 271.3688 361.6182 30861.3389 329.4356 395.7399
ENERGY: 600000 3.8755 10.1729 6.4810 0.0000 -10826.5267 1489.7865 0.0000 0.0000 1795.9958 -7520.2151 301.7146 -9316.2109 -7591.2266 297.6447 362.8532 409.1866 30748.4797 151.8745 216.6384
ENERGY: 900000 2.4307 5.9743 5.6466 0.0000 -10912.2205 1520.4956 0.0000 0.0000 1805.0096 -7572.6638 303.2289 -9377.6734 -7586.7607 297.5867 443.0834 547.4994 30643.9422 88.0032 163.9833
ENERGY: 1200000 3.1925 8.6625 5.8436 0.0000 -10802.8519 1432.4257 0.0000 0.0000 1776.1728 -7576.5548 298.3845 -9352.7276 -7584.6370 297.6468 -196.2799 -142.8198 30711.0368 83.0041 152.5363
ENERGY: 1500000 4.6038 9.3754 6.6404 0.0000 -10729.2017 1363.4610 0.0000 0.0000 1775.5313 -7569.5898 298.2768 -9345.1211 -7578.7120 298.4909 -685.9359 -600.5678 30776.9905 8.9234 81.3061
TCL: Running FEP window  15: Lambda1 0.29999999999999966 Lambda2 0.24999999999999967 [dLambda -0.04999999999999999]
TCL: Setting parameter firsttimestep to 0
TCL: Setting parameter alchLambda to 0.29999999999999966
Info: NONBONDED TABLE R-SQUARED SPACING: 0.0625
Info: NONBONDED TABLE SIZE: 705 POINTS
TCL: Setting parameter alchLambda2 to 0.24999999999999967
Info: NONBONDED TABLE R-SQUARED SPACING: 0.0625
Info: NONBONDED TABLE SIZE: 705 POINTS
TCL: Running for 1500000 steps
ETITLE: TS BOND ANGLE DIHED IMPRP ELECT VDW BOUNDARY MISC KINETIC TOTAL TEMP POTENTIAL TOTALAVG TEMPAVG PRESSURE GPRESSURE VOLUME PRESSAVG GPRESSAVG
ENERGY: 0 4.6038 9.3754 6.6404 0.0000 -10729.2023 1363.8928 0.0000 0.0000 1774.6119 -7570.0780 298.1223 -9344.6899 -7570.0780 298.1223 -698.9101 -605.5192 30776.9905 -698.9101 -605.5192
ENERGY: 300000 3.4910 5.3242 6.7300 0.0000 -11016.4780 1553.8599 0.0000 0.0000 1815.6616 -7631.4114 305.0184 -9447.0730 -7611.9523 300.3515 367.4977 439.3315 30926.6428 -178.0153 -121.7720
ENERGY: 600000 6.0104 8.1400 7.3211 0.0000 -10959.1291 1527.1949 0.0000 0.0000 1740.4963 -7669.9665 292.3911 -9410.4628 -7622.8385 298.0245 664.4543 681.0958 30133.5677 -78.6059 -19.9443
ENERGY: 900000 4.9306 8.0903 9.5097 0.0000 -10816.9876 1446.8027 0.0000 0.0000 1755.3303 -7592.3238 294.8831 -9347.6542 -7614.6441 297.4681 83.3456 140.4721 30627.9673 111.8147 159.2146
ENERGY: 1200000 2.7704 5.6617 4.9590 0.0000 -10838.9707 1526.5572 0.0000 0.0000 1748.1446 -7550.8779 293.6760 -9299.0224 -7593.3479 299.0486 957.2178 983.4640 30592.2515 181.8979 227.9429
ENERGY: 1500000 5.5404 7.4204 6.8337 0.0000 -10801.1919 1409.7097 0.0000 0.0000 1772.1503 -7599.5375 297.7088 -9371.6877 -7585.9111 299.9615 -518.0522 -461.8388 30982.4630 99.4760 147.2489
TCL: Running FEP window  16: Lambda1 0.24999999999999967 Lambda2 0.19999999999999968 [dLambda -0.04999999999999999]
TCL: Setting parameter firsttimestep to 0
TCL: Setting parameter alchLambda to 0.24999999999999967
Info: NONBONDED TABLE R-SQUARED SPACING: 0.0625
Info: NONBONDED TABLE SIZE: 705 POINTS
TCL: Setting parameter alchLambda2 to 0.19999999999999968
Info: NONBONDED TABLE R-SQUARED SPACING: 0.0625
Info: NONBONDED TABLE SIZE: 705 POINTS
TCL: Running for 1500000 steps
ETITLE: TS BOND ANGLE DIHED IMPRP ELECT VDW BOUNDARY MISC KINETIC TOTAL TEMP POTENTIAL TOTALAVG TEMPAVG PRESSURE GPRESSURE VOLUME PRESSAVG GPRESSAVG
ENERGY: 0 5.5404 7.4204 6.8337 0.0000 -10801.1902 1410.3743 0.0000 0.0000 1771.2494 -7599.7720 297.5574 -9371.0215 -7599.7720 297.5574 -549.3361 -463.4331 30982.4630 -549.3361 -463.4331
ENERGY: 300000 3.0198 8.7744 4.2299 0.0000 -10927.4577 1511.7141 0.0000 0.0000 1772.2486 -7627.4708 297.7253 -9399.7194 -7636.1777 294.7078 119.2361 224.3141 30682.4940 -163.4657 -66.4530
ENERGY: 600000 3.1303 17.4314 6.5372 0.0000 -11090.1117 1587.7543 0.0000 0.0000 1790.9006 -7684.3579 300.8587 -9475.2585 -7643.2001 296.4414 904.1364 980.6936 30109.2080 73.4273 158.7312
ENERGY: 900000 7.0630 4.1408 6.0375 0.0000 -10891.7644 1475.7714 0.0000 0.0000 1789.1461 -7609.6057 300.5639 -9398.7517 -7633.1625 297.2292 112.6488 135.6284 30819.1942 141.0952 213.9553
ENERGY: 1200000 3.8203 5.6937 5.6184 0.0000 -10793.1964 1454.6375 0.0000 0.0000 1758.0648 -7565.3616 295.3425 -9323.4264 -7625.5986 296.6265 -49.0764 23.9028 31065.1317 73.5414 146.1567
ENERGY: 1500000 3.5237 7.6751 8.0749 0.0000 -10941.1271 1485.8971 0.0000 0.0000 1790.0423 -7645.9140 300.7145 -9435.9563 -7616.4656 297.2183 -54.4415 1.6376 30482.4590 -21.9548 54.8595
TCL: Running FEP window  17: Lambda1 0.19999999999999968 Lambda2 0.1499999999999997 [dLambda -0.04999999999999999]
TCL: Setting parameter firsttimestep to 0
TCL: Setting parameter alchLambda to 0.19999999999999968
Info: NONBONDED TABLE R-SQUARED SPACING: 0.0625
Info: NONBONDED TABLE SIZE: 705 POINTS
TCL: Setting parameter alchLambda2 to 0.1499999999999997
Info: NONBONDED TABLE R-SQUARED SPACING: 0.0625
Info: NONBONDED TABLE SIZE: 705 POINTS
TCL: Running for 1500000 steps
ETITLE: TS BOND ANGLE DIHED IMPRP ELECT VDW BOUNDARY MISC KINETIC TOTAL TEMP POTENTIAL TOTALAVG TEMPAVG PRESSURE GPRESSURE VOLUME PRESSAVG GPRESSAVG
ENERGY: 0 3.5237 7.6751 8.0749 0.0000 -10941.1253 1486.5481 0.0000 0.0000 1789.1267 -7646.1767 300.5607 -9435.3034 -7646.1767 300.5607 -98.9455 1.2365 30482.4590 -98.9455 1.2365
ENERGY: 300000 4.8641 8.0751 5.9253 0.0000 -10875.5292 1431.2321 0.0000 0.0000 1802.7109 -7622.7219 302.8427 -9425.4327 -7633.4321 301.7666 -451.9426 -376.2078 30700.6046 -105.3020 -16.6955
ENERGY: 600000 1.9691 5.4358 8.1228 0.0000 -10866.1051 1466.8271 0.0000 0.0000 1793.1133 -7590.6370 301.2304 -9383.7503 -7614.2595 300.7465 33.6895 123.3674 30912.2515 -37.7589 38.4775
ENERGY: 900000 4.4092 7.8064 8.0514 0.0000 -10837.2103 1478.4198 0.0000 0.0000 1753.2308 -7585.2927 294.5304 -9338.5235 -7603.1832 300.4460 68.4565 206.1018 30675.8767 69.2232 157.2946
ENERGY: 1200000 4.6206 8.7261 5.9585 0.0000 -10873.9930 1471.7167 0.0000 0.0000 1765.1645 -7617.8066 296.5352 -9382.9711 -7601.9182 299.8700 115.9485 140.6176 30525.6855 104.6499 190.6504
ENERGY: 1500000 1.2522 9.3694 10.3460 0.0000 -10744.7607 1444.4067 0.0000 0.0000 1772.4036 -7506.9828 297.7513 -9279.3864 -7594.9176 299.8038 107.6591 176.5786 30483.2144 85.5612 169.1125
TCL: Running FEP window  18: Lambda1 0.1499999999999997 Lambda2 0.09999999999999969 [dLambda -0.05 ]
TCL: Setting parameter firsttimestep to 0
TCL: Setting parameter alchLambda to 0.1499999999999997
Info: NONBONDED TABLE R-SQUARED SPACING: 0.0625
Info: NONBONDED TABLE SIZE: 705 POINTS
TCL: Setting parameter alchLambda2 to 0.09999999999999969
Info: NONBONDED TABLE R-SQUARED SPACING: 0.0625
Info: NONBONDED TABLE SIZE: 705 POINTS
TCL: Running for 1500000 steps
ETITLE: TS BOND ANGLE DIHED IMPRP ELECT VDW BOUNDARY MISC KINETIC TOTAL TEMP POTENTIAL TOTALAVG TEMPAVG PRESSURE GPRESSURE VOLUME PRESSAVG GPRESSAVG
ENERGY: 0 1.2522 9.3694 10.3460 0.0000 -10744.7607 1444.8193 0.0000 0.0000 1771.5168 -7507.4570 297.6023 -9278.9738 -7507.4570 297.6023 99.1939 175.8447 30483.2144 99.1939 175.8447
ENERGY: 300000 4.5376 9.4363 6.1911 0.0000 -10687.8884 1390.3936 0.0000 0.0000 1804.3118 -7473.0180 303.1117 -9277.3298 -7499.1624 301.6106 -153.2003 -154.4750 30584.1368 98.8923 116.8768
ENERGY: 600000 2.7702 7.0665 6.3143 0.0000 -10760.9351 1439.1318 0.0000 0.0000 1819.6843 -7485.9681 305.6941 -9305.6524 -7511.3515 303.3838 2.7218 78.3672 30612.3538 206.1633 248.9555
ENERGY: 900000 3.9515 7.3702 4.6505 0.0000 -10884.0010 1509.0486 0.0000 0.0000 1765.0780 -7593.9022 296.5207 -9358.9802 -7540.5790 302.1734 372.5090 461.1996 30649.5951 232.0475 281.4681
ENERGY: 1200000 5.4939 8.6793 7.2498 0.0000 -10830.9702 1418.0579 0.0000 0.0000 1756.0039 -7635.4854 294.9963 -9391.4893 -7549.5879 300.9044 -520.6623 -456.9738 30692.1715 100.3276 151.5459
ENERGY: 1500000 4.8675 7.1159 7.4872 0.0000 -10819.8878 1424.6978 0.0000 0.0000 1866.1763 -7509.5431 313.5045 -9375.7194 -7546.0811 302.5180 -367.4490 -296.6076 30887.4963 49.9381 107.4647
TCL: Running FEP window  19: Lambda1 0.09999999999999969 Lambda2 0.049999999999999684 [dLambda -0.05 ]
TCL: Setting parameter firsttimestep to 0
TCL: Setting parameter alchLambda to 0.09999999999999969
Info: NONBONDED TABLE R-SQUARED SPACING: 0.0625
Info: NONBONDED TABLE SIZE: 705 POINTS
TCL: Setting parameter alchLambda2 to 0.049999999999999684
Info: NONBONDED TABLE R-SQUARED SPACING: 0.0625
Info: NONBONDED TABLE SIZE: 705 POINTS
TCL: Running for 1500000 steps
ETITLE: TS BOND ANGLE DIHED IMPRP ELECT VDW BOUNDARY MISC KINETIC TOTAL TEMP POTENTIAL TOTALAVG TEMPAVG PRESSURE GPRESSURE VOLUME PRESSAVG GPRESSAVG
ENERGY: 0 4.8676 7.1159 7.4872 0.0000 -10819.8878 1424.2143 0.0000 0.0000 1865.3088 -7510.8941 313.3587 -9376.2029 -7510.8941 313.3587 -392.5622 -304.4471 30887.4963 -392.5622 -304.4471
ENERGY: 300000 1.9549 7.3138 10.0297 0.0000 -10823.1031 1446.6439 0.0000 0.0000 1759.5960 -7597.5649 295.5997 -9357.1609 -7569.6538 302.8320 -130.6655 -39.4597 30631.1238 -88.4629 14.8819
ENERGY: 600000 3.4118 12.1962 5.3550 0.0000 -10735.0335 1388.5038 0.0000 0.0000 1793.8375 -7531.7293 301.3521 -9325.5668 -7601.1969 300.7464 -664.6137 -579.5582 30724.0047 -224.5364 -139.1746
ENERGY: 900000 6.1181 5.6091 6.8193 0.0000 -10727.5218 1383.3569 0.0000 0.0000 1786.7108 -7538.9077 300.1548 -9325.6185 -7590.0083 300.6143 -551.0016 -521.3007 30718.6374 -167.0718 -82.9921
ENERGY: 1200000 4.9329 12.1184 4.6817 0.0000 -10753.0144 1391.7986 0.0000 0.0000 1792.7480 -7546.7347 301.1690 -9339.4828 -7585.3795 300.0360 -674.7281 -596.4388 31199.6215 -230.5360 -145.6560
ENERGY: 1500000 3.4620 7.6852 5.7637 0.0000 -10869.3727 1450.5841 0.0000 0.0000 1770.9204 -7630.9572 297.5021 -9401.8776 -7583.7816 300.5774 -244.1808 -210.2991 30974.0763 -196.1056 -113.0081
TCL: Running FEP window  20: Lambda1 0.049999999999999684 Lambda2 0.0    [dLambda -0.049999999999999684]
TCL: Setting parameter firsttimestep to 0
TCL: Setting parameter alchLambda to 0.049999999999999684
Info: NONBONDED TABLE R-SQUARED SPACING: 0.0625
Info: NONBONDED TABLE SIZE: 705 POINTS
TCL: Setting parameter alchLambda2 to 0.0
Info: NONBONDED TABLE R-SQUARED SPACING: 0.0625
Info: NONBONDED TABLE SIZE: 705 POINTS
TCL: Running for 1500000 steps
ETITLE: TS BOND ANGLE DIHED IMPRP ELECT VDW BOUNDARY MISC KINETIC TOTAL TEMP POTENTIAL TOTALAVG TEMPAVG PRESSURE GPRESSURE VOLUME PRESSAVG GPRESSAVG
ENERGY: 0 3.4620 7.6852 5.7637 0.0000 -10869.3732 1450.9629 0.0000 0.0000 1770.0143 -7631.4850 297.3499 -9401.4994 -7631.4850 297.3499 -312.2761 -213.2706 30974.0763 -312.2761 -213.2706
ENERGY: 300000 5.6883 8.9973 9.7335 0.0000 -10891.5152 1487.4135 0.0000 0.0000 1786.3877 -7593.2949 300.1005 -9379.6826 -7603.9469 298.0068 -97.4288 -7.8354 30682.8106 -262.9092 -188.2436
ENERGY: 600000 4.1817 6.9537 7.7050 0.0000 -10707.5231 1395.1654 0.0000 0.0000 1823.5400 -7469.9773 306.3419 -9293.5173 -7576.4925 299.3745 -350.9219 -265.9367 30977.9995 -243.4391 -158.4255
ENERGY: 900000 5.8943 3.7592 6.4749 0.0000 -10704.6113 1367.1464 0.0000 0.0000 1802.2818 -7519.0547 302.7706 -9321.3364 -7569.1469 299.7924 -836.2394 -747.4393 30763.6641 -218.5399 -134.2818
ENERGY: 1200000 3.8750 9.3502 12.9605 0.0000 -10827.4813 1528.6598 0.0000 0.0000 1748.8758 -7523.7599 293.7988 -9272.6358 -7570.6328 299.1554 652.6211 721.6732 30966.2985 -180.5761 -101.9381
ENERGY: 1500000 9.0329 10.8485 6.3548 0.0000 -10853.5352 1443.9870 0.0000 0.0000 1781.9058 -7601.4061 299.3476 -9383.3120 -7571.8899 299.3212 -327.3142 -227.0065 30367.2368 -163.0603 -82.6949
TCL: Exiting due to exit command.
