Info: SIMULATION PARAMETERS:
Info: TIMESTEP               2
Info: NUMBER OF STEPS        0
Info: STEPS PER CYCLE        10
Info: PERIODIC CELL BASIS 1  31.7279 0 0
Info: PERIODIC CELL BASIS 2  0 30.1901 0
Info: PERIODIC CELL BASIS 3  0 0 31.4794
Info: PERIODIC CELL CENTER   0 0 0
Info: WRAPPING WATERS AROUND PERIODIC BOUNDARIES ON OUTPUT.
Info: WRAPPING ALL CLUSTERS AROUND PERIODIC BOUNDARIES ON OUTPUT.
Info: FIRST LDB TIMESTEP     50
Info: LAST LDB TIMESTEP     -1
Info: HOM BACKGROUND SCALING 1
Info: PME BACKGROUND SCALING 1
Info: MIN ATOMS PER PATCH    40
Info: EMPTY PATCH LOAD       40 ATOMS
Info: VELOCITY FILE          mobley_8525830_equil.vel
Info: CENTER OF MASS MOVING INITIALLY? NO
Info: DIELECTRIC             1
Info: EXCLUDE                SCALED ONE-FOUR
Info: 1-4 ELECTROSTATICS SCALED BY 0.833333
Info: MODIFIED 1-4 VDW PARAMETERS WILL BE USED
Info: DCD FILENAME           mobley_8525830_prod.dcd
Info: DCD FREQUENCY          100000
Info: DCD FIRST STEP         100000
Info: DCD FILE WILL CONTAIN UNIT CELL DATA
Info: XST FILENAME           mobley_8525830_prod.xst
Info: XST FREQUENCY          100000
Info: NO VELOCITY DCD OUTPUT
Info: NO FORCE DCD OUTPUT
Info: OUTPUT FILENAME        mobley_8525830_prod
Info: BINARY OUTPUT FILES WILL BE USED
Info: RESTART FILENAME       mobley_8525830_prod.restart
Info: RESTART FREQUENCY      100000
Info: BINARY RESTART FILES WILL BE USED
Info: CUTOFF                 9
Info: PAIRLIST DISTANCE      11
Info: PAIRLIST SHRINK RATE   0.01
Info: PAIRLIST GROW RATE     0.01
Info: PAIRLIST TRIGGER       0.3
Info: PAIRLISTS PER CYCLE    2
Info: PAIRLISTS ENABLED
Info: MARGIN                 2
Info: HYDROGEN GROUP CUTOFF  2.5
Info: PATCH DIMENSION        15.5
Info: ENERGY OUTPUT STEPS    100000
Info: ENERGY EVALUATION STEPS    100000
Info: OUTPUT ENERGY PRECISION 4
Info: CROSSTERM ENERGY INCLUDED IN DIHEDRAL
Info: TIMING OUTPUT STEPS    1000000
Info: PRESSURE OUTPUT STEPS  100000
Info: ALCHEMICAL FEP ON
Info: FEP CURRENT LAMBDA VALUE     1
Info: FEP COMPARISON LAMBDA VALUE  0.95
Info: FEP INTRA-ALCHEMICAL NON-BONDED INTERACTIONS WILL BE RETAINED
Info: FEP INTRA-ALCHEMICAL BONDED INTERACTIONS WILL BE RETAINED
Info: FEP VDW SHIFTING COEFFICIENT 5
Info: FEP ELEC. ACTIVE FOR ANNIHILATED PARTICLES BETWEEN LAMBDA = 0 AND LAMBDA = 0.5
Info: FEP ELEC. ACTIVE FOR EXNIHILATED PARTICLES BETWEEN LAMBDA = 0.5 AND LAMBDA = 1
Info: FEP VDW ACTIVE FOR ANNIHILATED PARTICLES BETWEEN LAMBDA = 0 AND LAMBDA = 1
Info: FEP VDW ACTIVE FOR EXNIHILATED PARTICLES BETWEEN LAMBDA = 0 AND LAMBDA = 1
Info: FEP BOND ACTIVE FOR ANNIHILATED PARTICLES BETWEEN LAMBDA = 1 AND LAMBDA = 1
Info: FEP BOND ACTIVE FOR EXNIHILATED PARTICLES BETWEEN LAMBDA = 0 AND LAMBDA = 0
Info: LANGEVIN DYNAMICS ACTIVE
Info: LANGEVIN TEMPERATURE   300
Info: LANGEVIN USING BBK INTEGRATOR
Info: LANGEVIN DAMPING COEFFICIENT IS 1 INVERSE PS
Info: LANGEVIN DYNAMICS APPLIED TO HYDROGENS
Info: LANGEVIN PISTON PRESSURE CONTROL ACTIVE
Info:        TARGET PRESSURE IS 1.01325 BAR
Info:     OSCILLATION PERIOD IS 50 FS
Info:             DECAY TIME IS 25 FS
Info:     PISTON TEMPERATURE IS 300 K
Info:       PRESSURE CONTROL IS GROUP-BASED
Info:    INITIAL STRAIN RATE IS 0.000417078 0.000417078 0.000417078
Info:       CELL FLUCTUATION IS ISOTROPIC
Info: PARTICLE MESH EWALD (PME) ACTIVE
Info: PME TOLERANCE               1e-06
Info: PME EWALD COEFFICIENT       0.348832
Info: PME INTERPOLATION ORDER     4
Info: PME GRID DIMENSIONS         32 32 32
Info: PME MAXIMUM GRID SPACING    1
Info: PME CALCULATION WILL BE PERFORMED ON GPU
Info: FULL ELECTROSTATIC EVALUATION FREQUENCY      2
Info: USING VERLET I (r-RESPA) MTS SCHEME.
Info: C1 SPLITTING OF LONG RANGE ELECTROSTATICS
Info: PLACING ATOMS IN PATCHES BY HYDROGEN GROUPS
Info: RIGID BONDS TO HYDROGEN : ALL
Info:         ERROR TOLERANCE : 1e-08
Info:          MAX ITERATIONS : 100
Info: RIGID WATER USING SETTLE ALGORITHM
Info: RANDOM NUMBER SEED     1743915803
Info: USE HYDROGEN BONDS?    NO
Info: Using AMBER format force field!
Info: AMBER PARM FILE        mobley_8525830.prmtop
Info: COORDINATE PDB         mobley_8525830.pdb
Info: Exclusions will be read from PARM file!
Info: SCNB (VDW SCALING)     2
Info: USING ARITHMETIC MEAN TO COMBINE L-J SIGMA PARAMETERS
Info: BINARY COORDINATES     mobley_8525830_equil.coor
Info: SUMMARY OF PARAMETERS:
Info: 6 BONDS
Info: 7 ANGLES
Info:   7 HARMONIC
Info:   0 COSINE-BASED
Info: 6 DIHEDRAL
Info: 0 IMPROPER
Info: 0 CROSSTERM
Info: 0 VDW
Info: 21 VDW_PAIRS
Info: 0 NBTHOLE_PAIRS
Info: To read alchdata from file: mobley_8525830.pdb
Info: To read alchflag data from column: 5
Info: STRUCTURE SUMMARY:
Info: 2906 ATOMS
Info: 2905 BONDS
Info: 30 ANGLES
Info: 40 DIHEDRALS
Info: 0 IMPROPERS
Info: 0 CROSSTERMS
Info: 2971 EXCLUSIONS
Info: 2900 RIGID BONDS
Info: ALCH: 0 ATOMS TO DISAPPEAR IN FINAL STATE
Info: ALCH: 17 ATOMS TO APPEAR IN FINAL STATE
Info: 5818 DEGREES OF FREEDOM
Info: 969 HYDROGEN GROUPS
Info: 4 ATOMS IN LARGEST HYDROGEN GROUP
Info: 969 MIGRATION GROUPS
Info: 4 ATOMS IN LARGEST MIGRATION GROUP
Info: TOTAL MASS = 17547.4 amu
Info: TOTAL CHARGE = 0.000299998 e
Info: MASS DENSITY = 0.966366 g/cm^3
Info: ATOM DENSITY = 0.0963749 atoms/A^3
Info: ADDED 0 IMPLICIT EXCLUSIONS
Info: NONBONDED TABLE R-SQUARED SPACING: 0.0625
Info: NONBONDED TABLE SIZE: 705 POINTS
Info: REMOVING COM VELOCITY -0.000887628 -0.0157181 -0.0194849
Info: Use 3D box decompostion in PME FFT.
Info: Updated CUDA force table with 4096 elements.
Info: Updated CUDA LJ table with 6 x 6 elements.
Info: Found 20 unique exclusion lists needing 52 bytes
TCL: Running for 1500000 steps
ETITLE: TS BOND ANGLE DIHED IMPRP ELECT VDW BOUNDARY MISC KINETIC TOTAL TEMP POTENTIAL TOTALAVG TEMPAVG PRESSURE GPRESSURE VOLUME PRESSAVG GPRESSAVG
ENERGY: 0 3.1328 9.6123 4.7855 0.0000 -10506.1032 1399.8554 0.0000 0.0000 1720.0243 -7368.6929 297.5440 -9088.7172 -7368.6929 297.5440 -133.1183 -36.6938 30153.0752 -133.1183 -36.6938
ENERGY: 300000 2.3564 8.8689 3.1405 0.0000 -10437.3978 1350.3746 0.0000 0.0000 1748.4761 -7324.1812 302.4659 -9072.6573 -7358.7680 303.3404 -606.1048 -576.1518 30481.5276 -249.1589 -203.8508
ENERGY: 600000 2.0954 6.1877 1.7843 0.0000 -10461.9293 1348.4171 0.0000 0.0000 1736.7228 -7366.7220 300.4327 -9103.4448 -7369.2618 300.3193 -644.0092 -612.0047 30446.7909 -300.5775 -262.5302
ENERGY: 900000 1.8299 11.0660 1.4333 0.0000 -10645.6050 1511.9516 0.0000 0.0000 1702.3972 -7416.9269 294.4948 -9119.3241 -7379.3182 298.9685 894.9613 977.7766 29452.3369 -195.9471 -145.9545
ENERGY: 1200000 2.6891 12.0431 2.6081 0.0000 -10473.2782 1398.6700 0.0000 0.0000 1704.8002 -7352.4678 294.9104 -9057.2679 -7373.7936 299.0250 -260.2994 -155.8906 30370.1539 -194.1871 -139.7855
ENERGY: 1500000 0.8033 7.0827 3.7877 0.0000 -10419.7284 1352.3116 0.0000 0.0000 1727.2742 -7328.4688 298.7982 -9055.7430 -7371.0921 298.7449 -404.4385 -309.6770 30148.8445 -178.5353 -119.9779
TCL: Running FEP window   2: Lambda1 0.95   Lambda2 0.8999999999999999 [dLambda -0.050000000000000044]
TCL: Setting parameter firsttimestep to 0
TCL: Setting parameter alchLambda to 0.95
Info: NONBONDED TABLE R-SQUARED SPACING: 0.0625
Info: NONBONDED TABLE SIZE: 705 POINTS
TCL: Setting parameter alchLambda2 to 0.8999999999999999
Info: NONBONDED TABLE R-SQUARED SPACING: 0.0625
Info: NONBONDED TABLE SIZE: 705 POINTS
TCL: Running for 1500000 steps
ETITLE: TS BOND ANGLE DIHED IMPRP ELECT VDW BOUNDARY MISC KINETIC TOTAL TEMP POTENTIAL TOTALAVG TEMPAVG PRESSURE GPRESSURE VOLUME PRESSAVG GPRESSAVG
ENERGY: 0 0.8033 7.0827 3.7877 0.0000 -10419.5471 1352.8047 0.0000 0.0000 1726.3997 -7328.6689 298.6469 -9055.0686 -7328.6689 298.6469 -401.4822 -318.1664 30148.8445 -401.4822 -318.1664
ENERGY: 300000 0.4313 8.8123 2.4814 0.0000 -10506.6113 1415.1289 0.0000 0.0000 1744.9221 -7334.8352 301.8511 -9079.7573 -7358.1700 300.5839 59.0801 109.8041 30081.9799 -191.8104 -129.7974
ENERGY: 600000 0.7262 8.1479 1.7572 0.0000 -10450.2751 1420.7229 0.0000 0.0000 1715.8373 -7303.0836 296.8197 -9018.9209 -7346.6512 300.3669 225.6409 194.7466 30479.1534 -70.8362 -24.5045
ENERGY: 900000 1.6337 6.9020 2.4614 0.0000 -10390.7101 1351.4783 0.0000 0.0000 1758.0538 -7270.1810 304.1227 -9028.2348 -7309.3540 302.8861 -461.4764 -293.9444 29989.3710 -160.7720 -102.1213
ENERGY: 1200000 1.5081 6.9415 2.9206 0.0000 -10524.4179 1370.1304 0.0000 0.0000 1726.1205 -7416.7968 298.5986 -9142.9173 -7322.8518 302.0181 -629.5559 -586.8362 30038.0069 -140.0265 -78.7391
ENERGY: 1500000 2.1311 8.9588 2.9544 0.0000 -10464.1821 1422.1280 0.0000 0.0000 1705.4792 -7322.5307 295.0279 -9028.0099 -7332.2559 300.5055 433.0139 473.3805 29773.3939 -65.2126 -9.4145
TCL: Running FEP window   3: Lambda1 0.8999999999999999 Lambda2 0.8499999999999999 [dLambda -0.050000000000000044]
TCL: Setting parameter firsttimestep to 0
TCL: Setting parameter alchLambda to 0.8999999999999999
Info: NONBONDED TABLE R-SQUARED SPACING: 0.0625
Info: NONBONDED TABLE SIZE: 705 POINTS
TCL: Setting parameter alchLambda2 to 0.8499999999999999
Info: NONBONDED TABLE R-SQUARED SPACING: 0.0625
Info: NONBONDED TABLE SIZE: 705 POINTS
TCL: Running for 1500000 steps
ETITLE: TS BOND ANGLE DIHED IMPRP ELECT VDW BOUNDARY MISC KINETIC TOTAL TEMP POTENTIAL TOTALAVG TEMPAVG PRESSURE GPRESSURE VOLUME PRESSAVG GPRESSAVG
ENERGY: 0 2.1311 8.9588 2.9544 0.0000 -10463.7823 1422.1477 0.0000 0.0000 1704.6328 -7322.9576 294.8815 -9027.5904 -7322.9576 294.8815 377.3060 461.5684 29773.3939 377.3060 461.5684
ENERGY: 300000 1.6642 8.1613 3.0699 0.0000 -10536.8189 1426.9609 0.0000 0.0000 1687.4823 -7409.4803 291.9147 -9096.9626 -7369.5417 294.5996 261.7035 298.8218 29806.1575 313.6324 364.1636
ENERGY: 600000 0.9708 7.5359 2.0340 0.0000 -10537.6931 1446.4633 0.0000 0.0000 1786.5375 -7294.1516 309.0500 -9080.6891 -7342.9361 298.6008 186.5353 239.8674 30451.9045 315.1899 375.2641
ENERGY: 900000 0.6852 6.2294 2.7663 0.0000 -10609.5445 1442.9080 0.0000 0.0000 1701.9712 -7454.9844 294.4211 -9156.9556 -7361.7964 298.5194 86.0623 59.8011 29967.3684 226.9228 272.4114
ENERGY: 1200000 3.5139 5.3294 2.7869 0.0000 -10556.9712 1497.7746 0.0000 0.0000 1751.3807 -7296.1857 302.9683 -9047.5664 -7350.5229 299.0828 888.4121 919.6410 30007.9589 200.2813 243.5127
ENERGY: 1500000 1.9144 7.1261 2.3876 0.0000 -10507.1962 1450.9491 0.0000 0.0000 1725.9738 -7318.8452 298.5732 -9044.8190 -7353.9456 298.4714 571.1399 640.1800 29564.8529 136.3116 182.4997
TCL: Running FEP window   4: Lambda1 0.8499999999999999 Lambda2 0.7999999999999998 [dLambda -0.050000000000000044]
TCL: Setting parameter firsttimestep to 0
TCL: Setting parameter alchLambda to 0.8499999999999999
Info: NONBONDED TABLE R-SQUARED SPACING: 0.0625
Info: NONBONDED TABLE SIZE: 705 POINTS
TCL: Setting parameter alchLambda2 to 0.7999999999999998
Info: NONBONDED TABLE R-SQUARED SPACING: 0.0625
Info: NONBONDED TABLE SIZE: 705 POINTS
TCL: Running for 1500000 steps
ETITLE: TS BOND ANGLE DIHED IMPRP ELECT VDW BOUNDARY MISC KINETIC TOTAL TEMP POTENTIAL TOTALAVG TEMPAVG PRESSURE GPRESSURE VOLUME PRESSAVG GPRESSAVG
ENERGY: 0 1.9144 7.1261 2.3876 0.0000 -10506.7125 1451.1025 0.0000 0.0000 1725.1425 -7319.0395 298.4294 -9044.1820 -7319.0395 298.4294 553.5957 632.5899 29564.8529 553.5957 632.5899
ENERGY: 300000 2.8096 8.4552 1.5875 0.0000 -10451.5660 1384.6569 0.0000 0.0000 1773.5068 -7280.5499 306.7959 -9054.0568 -7315.3578 300.6583 -178.3299 -125.5946 30035.2719 3.0760 64.7347
ENERGY: 600000 3.9105 10.2295 1.4980 0.0000 -10626.9977 1503.6302 0.0000 0.0000 1745.0159 -7362.7136 301.8673 -9107.7294 -7350.7123 301.6384 430.5472 482.7148 30203.8077 160.9025 224.2407
ENERGY: 900000 1.2714 4.6903 2.6724 0.0000 -10466.8476 1354.6680 0.0000 0.0000 1715.4022 -7388.1434 296.7445 -9103.5456 -7356.0554 302.8218 -689.9221 -707.5872 29901.5624 133.6238 193.7408
ENERGY: 1200000 4.9666 10.6389 2.7325 0.0000 -10610.9459 1388.8561 0.0000 0.0000 1750.6155 -7453.1363 302.8359 -9203.7518 -7367.9357 302.0357 -454.0179 -376.9368 29768.9614 98.8231 159.8670
ENERGY: 1500000 1.6513 8.0889 2.5133 0.0000 -10579.5817 1444.8674 0.0000 0.0000 1729.6407 -7392.8201 299.2076 -9122.4608 -7370.4100 301.7490 63.3072 91.1526 30145.5017 48.2425 102.9564
TCL: Running FEP window   5: Lambda1 0.7999999999999998 Lambda2 0.7499999999999998 [dLambda -0.050000000000000044]
TCL: Setting parameter firsttimestep to 0
TCL: Setting parameter alchLambda to 0.7999999999999998
Info: NONBONDED TABLE R-SQUARED SPACING: 0.0625
Info: NONBONDED TABLE SIZE: 705 POINTS
TCL: Setting parameter alchLambda2 to 0.7499999999999998
Info: NONBONDED TABLE R-SQUARED SPACING: 0.0625
Info: NONBONDED TABLE SIZE: 705 POINTS
TCL: Running for 1500000 steps
ETITLE: TS BOND ANGLE DIHED IMPRP ELECT VDW BOUNDARY MISC KINETIC TOTAL TEMP POTENTIAL TOTALAVG TEMPAVG PRESSURE GPRESSURE VOLUME PRESSAVG GPRESSAVG
ENERGY: 0 1.6513 8.0889 2.5133 0.0000 -10579.1862 1445.0400 0.0000 0.0000 1728.7818 -7393.1110 299.0590 -9121.8927 -7393.1110 299.0590 14.6903 85.9361 30145.5017 14.6903 85.9361
ENERGY: 300000 2.4370 10.4249 2.2199 0.0000 -10419.7341 1332.5349 0.0000 0.0000 1745.0321 -7327.0852 301.8701 -9072.1174 -7370.8785 301.1372 -584.8025 -493.3688 30017.4463 -149.3889 -74.0137
ENERGY: 600000 1.9546 7.9553 2.4706 0.0000 -10589.8300 1427.8385 0.0000 0.0000 1688.3592 -7461.2518 292.0663 -9149.6110 -7371.6112 299.7046 -29.8930 40.5620 29633.4225 -69.5650 -2.9003
ENERGY: 900000 0.7568 7.3197 3.0698 0.0000 -10551.7074 1441.4054 0.0000 0.0000 1750.4257 -7348.7300 302.8031 -9099.1557 -7370.4209 300.2605 245.1280 273.3423 29678.0341 -97.7938 -44.7978
ENERGY: 1200000 0.1461 5.8874 1.7099 0.0000 -10434.5810 1425.3897 0.0000 0.0000 1747.5763 -7253.8716 302.3102 -9001.4478 -7352.4895 301.2413 361.0568 372.6341 30140.7162 -67.8928 -21.7253
ENERGY: 1500000 2.6566 6.1284 1.8408 0.0000 -10576.7885 1455.4813 0.0000 0.0000 1775.8609 -7334.8205 307.2031 -9110.6814 -7358.5617 300.8562 708.9497 762.7693 29566.9552 -37.9885 3.3031
TCL: Running FEP window   6: Lambda1 0.7499999999999998 Lambda2 0.6999999999999997 [dLambda -0.050000000000000044]
TCL: Setting parameter firsttimestep to 0
TCL: Setting parameter alchLambda to 0.7499999999999998
Info: NONBONDED TABLE R-SQUARED SPACING: 0.0625
Info: NONBONDED TABLE SIZE: 705 POINTS
TCL: Setting parameter alchLambda2 to 0.6999999999999997
Info: NONBONDED TABLE R-SQUARED SPACING: 0.0625
Info: NONBONDED TABLE SIZE: 705 POINTS
TCL: Running for 1500000 steps
ETITLE: TS BOND ANGLE DIHED IMPRP ELECT VDW BOUNDARY MISC KINETIC TOTAL TEMP POTENTIAL TOTALAVG TEMPAVG PRESSURE GPRESSURE VOLUME PRESSAVG GPRESSAVG
ENERGY: 0 2.6566 6.1284 1.8408 0.0000 -10576.3924 1456.0418 0.0000 0.0000 1775.0300 -7334.6948 307.0594 -9109.7248 -7334.6948 307.0594 679.3395 762.0149 29566.9552 679.3395 762.0149
ENERGY: 300000 2.9057 12.0845 3.3310 0.0000 -10562.3600 1424.9518 0.0000 0.0000 1725.9720 -7393.1150 298.5729 -9119.0870 -7357.1962 301.4705 19.7010 26.2926 30013.8099 12.5960 57.0833
ENERGY: 600000 1.0789 10.9935 2.0563 0.0000 -10489.4138 1429.2638 0.0000 0.0000 1773.6072 -7272.4140 306.8133 -9046.0212 -7334.7660 301.9412 410.6157 387.9071 29896.3131 190.0391 216.9567
ENERGY: 900000 0.8866 7.9025 1.3211 0.0000 -10408.1426 1340.6426 0.0000 0.0000 1683.3891 -7374.0006 291.2066 -9057.3897 -7339.0687 300.8131 -741.0239 -663.5615 30344.5733 105.9753 144.9478
ENERGY: 1200000 1.2583 7.7936 4.0045 0.0000 -10532.3887 1458.0022 0.0000 0.0000 1722.6062 -7338.7239 297.9907 -9061.3301 -7337.6689 299.9308 498.4686 604.4235 29878.5207 189.4203 232.6073
ENERGY: 1500000 1.3438 6.3694 2.6859 0.0000 -10599.0033 1421.1528 0.0000 0.0000 1762.9328 -7404.5187 304.9667 -9167.4515 -7346.3582 300.1626 -271.5992 -193.3913 30028.0957 115.6666 161.2482
TCL: Running FEP window   7: Lambda1 0.6999999999999997 Lambda2 0.6499999999999997 [dLambda -0.050000000000000044]
TCL: Setting parameter firsttimestep to 0
TCL: Setting parameter alchLambda to 0.6999999999999997
Info: NONBONDED TABLE R-SQUARED SPACING: 0.0625
Info: NONBONDED TABLE SIZE: 705 POINTS
TCL: Setting parameter alchLambda2 to 0.6499999999999997
Info: NONBONDED TABLE R-SQUARED SPACING: 0.0625
Info: NONBONDED TABLE SIZE: 705 POINTS
TCL: Running for 1500000 steps
ETITLE: TS BOND ANGLE DIHED IMPRP ELECT VDW BOUNDARY MISC KINETIC TOTAL TEMP POTENTIAL TOTALAVG TEMPAVG PRESSURE GPRESSURE VOLUME PRESSAVG GPRESSAVG
ENERGY: 0 1.3438 6.3693 2.6859 0.0000 -10598.5129 1421.7616 0.0000 0.0000 1762.0444 -7404.3078 304.8130 -9166.3522 -7404.3078 304.8130 -277.4101 -193.5318 30028.0957 -277.4101 -193.5318
ENERGY: 300000 1.2401 7.9179 1.2321 0.0000 -10629.9411 1520.5290 0.0000 0.0000 1775.4779 -7323.5441 307.1369 -9099.0220 -7354.8369 301.7971 777.1822 826.0652 30079.2520 -11.5701 52.9513
ENERGY: 600000 1.2104 7.3727 1.4253 0.0000 -10528.9608 1430.7422 0.0000 0.0000 1671.4798 -7416.7305 289.1464 -9088.2103 -7361.0923 298.2056 -82.3437 -36.1979 30278.1742 -25.6323 43.1434
ENERGY: 900000 1.3956 7.7731 1.3843 0.0000 -10336.6518 1284.4492 0.0000 0.0000 1740.3119 -7301.3376 301.0536 -9041.6496 -7358.0641 297.7900 -1122.3568 -1105.7184 30814.8220 -214.6604 -154.5246
ENERGY: 1200000 0.7137 7.7763 2.1715 0.0000 -10571.7176 1492.5780 0.0000 0.0000 1752.1885 -7316.2895 303.1081 -9068.4780 -7355.4028 298.2374 599.9685 680.6281 30003.8627 -106.5996 -42.7824
ENERGY: 1500000 3.0205 8.4951 3.3415 0.0000 -10491.5747 1369.0234 0.0000 0.0000 1749.3940 -7358.3002 302.6246 -9107.6942 -7353.3077 298.5589 -519.9516 -420.9883 29996.0614 -124.3363 -49.4292
TCL: Running FEP window   8: Lambda1 0.6499999999999997 Lambda2 0.5999999999999996 [dLambda -0.050000000000000044]
TCL: Setting parameter firsttimestep to 0
TCL: Setting parameter alchLambda to 0.6499999999999997
Info: NONBONDED TABLE R-SQUARED SPACING: 0.0625
Info: NONBONDED TABLE SIZE: 705 POINTS
TCL: Setting parameter alchLambda2 to 0.5999999999999996
Info: NONBONDED TABLE R-SQUARED SPACING: 0.0625
Info: NONBONDED TABLE SIZE: 705 POINTS
TCL: Running for 1500000 steps
ETITLE: TS BOND ANGLE DIHED IMPRP ELECT VDW BOUNDARY MISC KINETIC TOTAL TEMP POTENTIAL TOTALAVG TEMPAVG PRESSURE GPRESSURE VOLUME PRESSAVG GPRESSAVG
ENERGY: 0 3.0205 8.4951 3.3415 0.0000 -10491.4837 1369.1027 0.0000 0.0000 1748.5259 -7358.9979 302.4745 -9107.5238 -7358.9979 302.4745 -512.6751 -428.1688 29996.0614 -512.6751 -428.1688
ENERGY: 300000 1.1278 8.5431 3.0437 0.0000 -10538.8625 1482.7406 0.0000 0.0000 1716.6929 -7326.7143 296.9678 -9043.4073 -7322.2791 299.2892 715.2836 721.6927 29758.8662 -352.2517 -295.9756
ENERGY: 600000 1.4104 8.7652 1.9674 0.0000 -10330.0476 1302.3247 0.0000 0.0000 1742.2068 -7273.3730 301.3813 -9015.5798 -7317.9140 299.2340 -889.7266 -786.2994 30402.2543 -457.5383 -398.8103
ENERGY: 900000 0.5804 4.9971 3.4172 0.0000 -10594.6963 1509.5681 0.0000 0.0000 1795.9853 -7280.1482 310.6844 -9076.1334 -7315.9684 301.4397 847.4343 876.2306 29914.6858 -258.9872 -208.8894
ENERGY: 1200000 1.0618 11.0843 2.7199 0.0000 -10465.6177 1392.1294 0.0000 0.0000 1763.6341 -7294.9881 305.0880 -9058.6223 -7318.4608 301.4543 -41.4608 -15.3108 29798.8115 -258.8628 -213.5037
ENERGY: 1500000 1.1568 4.6795 1.4614 0.0000 -10589.7015 1449.2059 0.0000 0.0000 1702.6546 -7430.5434 294.5393 -9133.1980 -7328.3672 300.9314 443.7326 524.7757 29338.3087 -180.2394 -131.8089
TCL: Running FEP window   9: Lambda1 0.5999999999999996 Lambda2 0.5499999999999996 [dLambda -0.050000000000000044]
TCL: Setting parameter firsttimestep to 0
TCL: Setting parameter alchLambda to 0.5999999999999996
Info: NONBONDED TABLE R-SQUARED SPACING: 0.0625
Info: NONBONDED TABLE SIZE: 705 POINTS
TCL: Setting parameter alchLambda2 to 0.5499999999999996
Info: NONBONDED TABLE R-SQUARED SPACING: 0.0625
Info: NONBONDED TABLE SIZE: 705 POINTS
TCL: Running for 1500000 steps
ETITLE: TS BOND ANGLE DIHED IMPRP ELECT VDW BOUNDARY MISC KINETIC TOTAL TEMP POTENTIAL TOTALAVG TEMPAVG PRESSURE GPRESSURE VOLUME PRESSAVG GPRESSAVG
ENERGY: 0 1.1568 4.6795 1.4614 0.0000 -10589.6276 1449.3688 0.0000 0.0000 1701.7818 -7431.1793 294.3883 -9132.9611 -7431.1793 294.3883 434.6052 517.7284 29338.3087 434.6052 517.7284
ENERGY: 300000 3.6601 11.3870 3.1721 0.0000 -10520.8262 1380.4411 0.0000 0.0000 1726.4923 -7395.6736 298.6629 -9122.1659 -7375.0947 300.4499 -478.0662 -390.1871 29955.7083 180.9971 245.8310
ENERGY: 600000 1.3521 5.6545 1.9928 0.0000 -10506.2293 1401.3187 0.0000 0.0000 1697.0465 -7398.8647 293.5691 -9095.9112 -7365.5734 298.8964 1.1353 32.8274 29720.5102 116.1006 167.1736
ENERGY: 900000 2.0002 5.9883 1.7052 0.0000 -10490.1680 1415.4868 0.0000 0.0000 1774.9466 -7290.0408 307.0450 -9064.9875 -7361.8932 299.9975 440.7818 404.8818 29522.7939 205.6553 250.8051
ENERGY: 1200000 1.7484 7.7621 1.3716 0.0000 -10508.0008 1429.4415 0.0000 0.0000 1708.0208 -7359.6564 295.4676 -9067.6772 -7359.4467 299.9686 166.0695 255.9997 29793.2521 61.7923 109.9490
ENERGY: 1500000 2.1800 7.9003 2.7914 0.0000 -10566.1699 1469.1166 0.0000 0.0000 1750.1869 -7333.9948 302.7618 -9084.1817 -7356.1353 299.9696 471.9148 539.4919 30157.1512 82.1561 140.2849
TCL: Running FEP window  10: Lambda1 0.5499999999999996 Lambda2 0.4999999999999996 [dLambda -0.04999999999999999]
TCL: Setting parameter firsttimestep to 0
TCL: Setting parameter alchLambda to 0.5499999999999996
Info: NONBONDED TABLE R-SQUARED SPACING: 0.0625
Info: NONBONDED TABLE SIZE: 705 POINTS
TCL: Setting parameter alchLambda2 to 0.4999999999999996
Info: NONBONDED TABLE R-SQUARED SPACING: 0.0625
Info: NONBONDED TABLE SIZE: 705 POINTS
TCL: Running for 1500000 steps
ETITLE: TS BOND ANGLE DIHED IMPRP ELECT VDW BOUNDARY MISC KINETIC TOTAL TEMP POTENTIAL TOTALAVG TEMPAVG PRESSURE GPRESSURE VOLUME PRESSAVG GPRESSAVG
ENERGY: 0 2.1800 7.9003 2.7914 0.0000 -10566.0435 1469.6034 0.0000 0.0000 1749.2928 -7334.2756 302.6071 -9083.5684 -7334.2756 302.6071 454.2449 536.6260 30157.1512 454.2449 536.6260
ENERGY: 300000 0.9222 9.4035 2.1485 0.0000 -10541.0551 1454.5787 0.0000 0.0000 1731.6927 -7342.3094 299.5625 -9074.0021 -7310.8724 303.5967 281.6215 328.1457 30215.6826 -89.3978 0.9700
ENERGY: 600000 0.9044 9.2471 1.7669 0.0000 -10496.5404 1365.1591 0.0000 0.0000 1715.4100 -7404.0529 296.7458 -9119.4629 -7329.6186 302.8261 -358.1946 -243.8875 29553.8874 86.1394 161.2513
ENERGY: 900000 4.0292 4.6436 1.6515 0.0000 -10495.9384 1392.0849 0.0000 0.0000 1801.9303 -7291.5989 311.7128 -9093.5292 -7325.9209 303.4868 -382.0575 -328.2485 30002.9054 -99.3718 -30.1861
ENERGY: 1200000 1.3294 6.7029 2.3499 0.0000 -10428.7591 1330.1297 0.0000 0.0000 1731.7085 -7356.5388 299.5653 -9088.2473 -7333.5436 303.5254 -753.2686 -713.6245 30229.2583 -96.3534 -36.0856
ENERGY: 1500000 0.4927 7.2814 2.3604 0.0000 -10510.0161 1414.2547 0.0000 0.0000 1706.2403 -7379.3866 295.1596 -9085.6269 -7332.6510 303.1468 56.4492 192.9117 29724.3900 -27.1654 38.0404
TCL: Running FEP window  11: Lambda1 0.4999999999999996 Lambda2 0.4499999999999996 [dLambda -0.04999999999999999]
TCL: Setting parameter firsttimestep to 0
TCL: Setting parameter alchLambda to 0.4999999999999996
Info: NONBONDED TABLE R-SQUARED SPACING: 0.0625
Info: NONBONDED TABLE SIZE: 705 POINTS
TCL: Setting parameter alchLambda2 to 0.4499999999999996
Info: NONBONDED TABLE R-SQUARED SPACING: 0.0625
Info: NONBONDED TABLE SIZE: 705 POINTS
TCL: Running for 1500000 steps
ETITLE: TS BOND ANGLE DIHED IMPRP ELECT VDW BOUNDARY MISC KINETIC TOTAL TEMP POTENTIAL TOTALAVG TEMPAVG PRESSURE GPRESSURE VOLUME PRESSAVG GPRESSAVG
ENERGY: 0 0.4927 7.2814 2.3604 0.0000 -10509.7426 1414.5273 0.0000 0.0000 1705.3935 -7379.6872 295.0131 -9085.0807 -7379.6872 295.0131 132.7497 190.7092 29724.3900 132.7497 190.7092
ENERGY: 300000 1.8441 7.5288 1.1677 0.0000 -10479.2463 1352.6343 0.0000 0.0000 1731.4226 -7384.6488 299.5158 -9116.0714 -7400.1513 298.8902 -666.8686 -567.1666 30012.5991 -132.5304 -53.3258
ENERGY: 600000 2.6419 8.2325 2.2062 0.0000 -10469.0536 1317.2743 0.0000 0.0000 1761.0290 -7377.6697 304.6374 -9138.6988 -7388.4021 297.8709 -865.3468 -784.8618 29639.3895 -275.1005 -210.0794
ENERGY: 900000 5.6707 6.6099 1.7706 0.0000 -10506.0103 1399.2699 0.0000 0.0000 1762.6927 -7329.9964 304.9252 -9092.6891 -7374.2396 298.4227 109.5846 210.5492 29802.8085 -203.6937 -134.8988
ENERGY: 1200000 0.8318 7.9250 2.0138 0.0000 -10459.9435 1410.9538 0.0000 0.0000 1739.1472 -7299.0720 300.8521 -9038.2192 -7354.4079 300.0952 243.6677 264.5792 29746.8898 -186.9470 -123.5982
ENERGY: 1500000 1.6646 7.6272 3.6799 0.0000 -10483.6266 1401.9680 0.0000 0.0000 1775.9899 -7292.6972 307.2254 -9068.6871 -7361.0544 300.1088 132.5305 123.1569 29839.6419 -163.5554 -103.1687
TCL: Running FEP window  12: Lambda1 0.4499999999999996 Lambda2 0.39999999999999963 [dLambda -0.04999999999999999]
TCL: Setting parameter firsttimestep to 0
TCL: Setting parameter alchLambda to 0.4499999999999996
Info: NONBONDED TABLE R-SQUARED SPACING: 0.0625
Info: NONBONDED TABLE SIZE: 705 POINTS
TCL: Setting parameter alchLambda2 to 0.39999999999999963
Info: NONBONDED TABLE R-SQUARED SPACING: 0.0625
Info: NONBONDED TABLE SIZE: 705 POINTS
TCL: Running for 1500000 steps
ETITLE: TS BOND ANGLE DIHED IMPRP ELECT VDW BOUNDARY MISC KINETIC TOTAL TEMP POTENTIAL TOTALAVG TEMPAVG PRESSURE GPRESSURE VOLUME PRESSAVG GPRESSAVG
ENERGY: 0 1.6646 7.6272 3.6799 0.0000 -10483.6268 1402.2752 0.0000 0.0000 1775.1035 -7293.2765 307.0721 -9068.3800 -7293.2765 307.0721 43.1016 117.0954 29839.6419 43.1016 117.0954
ENERGY: 300000 0.3486 12.7690 2.5034 0.0000 -10535.3936 1520.5554 0.0000 0.0000 1809.7782 -7189.4389 313.0704 -8999.2172 -7294.0371 302.3800 1506.9437 1573.9139 29163.3006 353.4670 431.4598
ENERGY: 600000 3.9450 8.4945 1.9991 0.0000 -10393.8136 1276.2476 0.0000 0.0000 1741.2531 -7361.8742 301.2164 -9103.1273 -7322.4386 301.6867 -1249.4705 -1141.0304 29967.6939 40.7299 118.5477
ENERGY: 900000 0.6439 10.0498 2.6941 0.0000 -10406.6947 1370.4948 0.0000 0.0000 1689.1220 -7333.6900 292.1983 -9022.8120 -7334.8847 300.4271 -141.2239 -72.7905 30014.5405 23.9378 93.2236
ENERGY: 1200000 0.3560 11.0280 3.1113 0.0000 -10495.6195 1440.6576 0.0000 0.0000 1764.2095 -7276.2572 305.1876 -9040.4667 -7330.0486 300.3700 512.3174 521.3744 29434.2435 23.4536 93.7625
ENERGY: 1500000 3.6353 8.1538 1.9218 0.0000 -10515.3451 1458.9188 0.0000 0.0000 1761.8288 -7280.8866 304.7757 -9042.7155 -7329.2791 301.0025 273.6978 373.7465 30161.8787 34.8228 112.3354
TCL: Running FEP window  13: Lambda1 0.39999999999999963 Lambda2 0.34999999999999964 [dLambda -0.04999999999999999]
TCL: Setting parameter firsttimestep to 0
TCL: Setting parameter alchLambda to 0.39999999999999963
Info: NONBONDED TABLE R-SQUARED SPACING: 0.0625
Info: NONBONDED TABLE SIZE: 705 POINTS
TCL: Setting parameter alchLambda2 to 0.34999999999999964
Info: NONBONDED TABLE R-SQUARED SPACING: 0.0625
Info: NONBONDED TABLE SIZE: 705 POINTS
TCL: Running for 1500000 steps
ETITLE: TS BOND ANGLE DIHED IMPRP ELECT VDW BOUNDARY MISC KINETIC TOTAL TEMP POTENTIAL TOTALAVG TEMPAVG PRESSURE GPRESSURE VOLUME PRESSAVG GPRESSAVG
ENERGY: 0 3.6353 8.1538 1.9218 0.0000 -10515.3459 1459.0027 0.0000 0.0000 1760.9200 -7281.7123 304.6185 -9042.6323 -7281.7123 304.6185 281.7623 366.8465 30161.8787 281.7623 366.8465
ENERGY: 300000 0.8693 7.1956 1.6550 0.0000 -10586.7303 1463.8457 0.0000 0.0000 1762.9332 -7350.2315 304.9668 -9113.1647 -7344.1139 301.1689 198.3079 255.4564 30114.0364 274.6735 339.9607
ENERGY: 600000 1.4141 6.3553 3.3016 0.0000 -10527.4499 1425.1674 0.0000 0.0000 1728.7903 -7362.4212 299.0605 -9091.2115 -7348.8202 302.4536 -77.1224 -3.9632 30031.8792 278.9555 329.3708
ENERGY: 900000 0.9262 10.6304 1.4463 0.0000 -10480.3102 1466.0330 0.0000 0.0000 1736.4213 -7264.8530 300.3805 -9001.2742 -7341.2418 302.6951 506.2856 581.2279 29905.0815 203.7396 257.8276
ENERGY: 1200000 0.9950 11.7472 1.9199 0.0000 -10363.5430 1378.1650 0.0000 0.0000 1716.7929 -7253.9230 296.9850 -8970.7158 -7333.4855 302.8390 91.6808 46.3973 30021.1738 122.0425 171.9901
ENERGY: 1500000 3.4529 8.5740 1.1560 0.0000 -10482.4195 1392.1888 0.0000 0.0000 1729.5402 -7347.5076 299.1902 -9077.0478 -7341.7690 302.4625 -220.5660 -187.5607 30166.5681 67.4401 117.4548
TCL: Running FEP window  14: Lambda1 0.34999999999999964 Lambda2 0.29999999999999966 [dLambda -0.04999999999999999]
TCL: Setting parameter firsttimestep to 0
TCL: Setting parameter alchLambda to 0.34999999999999964
Info: NONBONDED TABLE R-SQUARED SPACING: 0.0625
Info: NONBONDED TABLE SIZE: 705 POINTS
TCL: Setting parameter alchLambda2 to 0.29999999999999966
Info: NONBONDED TABLE R-SQUARED SPACING: 0.0625
Info: NONBONDED TABLE SIZE: 705 POINTS
TCL: Running for 1500000 steps
ETITLE: TS BOND ANGLE DIHED IMPRP ELECT VDW BOUNDARY MISC KINETIC TOTAL TEMP POTENTIAL TOTALAVG TEMPAVG PRESSURE GPRESSURE VOLUME PRESSAVG GPRESSAVG
ENERGY: 0 3.4529 8.5740 1.1560 0.0000 -10482.4199 1392.3477 0.0000 0.0000 1728.6681 -7348.2213 299.0393 -9076.8893 -7348.2213 299.0393 -283.8249 -194.1042 30166.5681 -283.8249 -194.1042
ENERGY: 300000 2.1202 9.3298 2.4393 0.0000 -10537.7019 1428.6283 0.0000 0.0000 1678.9300 -7416.2543 290.4352 -9095.1842 -7390.7751 297.7737 -129.1276 -86.3728 30492.9619 -241.0659 -196.8907
ENERGY: 600000 0.7989 6.1140 1.2508 0.0000 -10526.4567 1416.5617 0.0000 0.0000 1695.9022 -7405.8290 293.3712 -9101.7313 -7391.6151 297.4820 9.1330 55.2071 29770.4233 -222.4106 -176.8670
ENERGY: 900000 2.5427 7.8257 4.1170 0.0000 -10440.3595 1376.5006 0.0000 0.0000 1718.8287 -7330.5450 297.3372 -9049.3736 -7382.7778 297.8517 -297.9478 -159.1617 29800.8612 -231.3824 -160.7069
ENERGY: 1200000 0.5657 6.7427 1.2472 0.0000 -10615.2610 1503.2679 0.0000 0.0000 1774.9175 -7328.5201 307.0399 -9103.4375 -7375.8055 299.0552 633.0110 690.6071 29800.8655 -176.4558 -108.0770
ENERGY: 1500000 2.6943 4.4253 1.5084 0.0000 -10424.1637 1372.9244 0.0000 0.0000 1741.4666 -7301.1447 301.2533 -9042.6113 -7367.9974 299.7766 -101.0580 -106.7379 29714.9788 -121.4485 -55.2313
TCL: Running FEP window  15: Lambda1 0.29999999999999966 Lambda2 0.24999999999999967 [dLambda -0.04999999999999999]
TCL: Setting parameter firsttimestep to 0
TCL: Setting parameter alchLambda to 0.29999999999999966
Info: NONBONDED TABLE R-SQUARED SPACING: 0.0625
Info: NONBONDED TABLE SIZE: 705 POINTS
TCL: Setting parameter alchLambda2 to 0.24999999999999967
Info: NONBONDED TABLE R-SQUARED SPACING: 0.0625
Info: NONBONDED TABLE SIZE: 705 POINTS
TCL: Running for 1500000 steps
ETITLE: TS BOND ANGLE DIHED IMPRP ELECT VDW BOUNDARY MISC KINETIC TOTAL TEMP POTENTIAL TOTALAVG TEMPAVG PRESSURE GPRESSURE VOLUME PRESSAVG GPRESSAVG
ENERGY: 0 2.6943 4.4253 1.5084 0.0000 -10424.1635 1373.1999 0.0000 0.0000 1740.6301 -7301.7055 301.1086 -9042.3356 -7301.7055 301.1086 -181.7397 -110.8623 29714.9788 -181.7397 -110.8623
ENERGY: 300000 2.3259 10.8737 2.3725 0.0000 -10598.9991 1434.2810 0.0000 0.0000 1774.6027 -7374.5434 306.9855 -9149.1460 -7304.8838 303.3861 -106.5786 -1.0394 30036.1997 -358.3640 -289.1807
ENERGY: 600000 1.1880 7.4538 1.3115 0.0000 -10472.5308 1471.0099 0.0000 0.0000 1725.9937 -7265.5739 298.5767 -8991.5676 -7327.5875 300.7965 519.0129 549.3612 30331.1163 -195.4838 -127.3897
ENERGY: 900000 2.6309 3.9874 3.1987 0.0000 -10578.5718 1463.7048 0.0000 0.0000 1705.3878 -7399.6622 295.0121 -9105.0500 -7345.3709 298.9925 286.3373 387.5006 29496.0078 -226.5893 -155.2713
ENERGY: 1200000 1.7312 9.7366 3.5934 0.0000 -10372.6522 1377.0423 0.0000 0.0000 1715.2538 -7265.2950 296.7188 -8980.5488 -7331.8597 299.8171 -130.2667 -77.4089 30180.8164 -128.7274 -62.3128
ENERGY: 1500000 0.5871 5.2957 3.3681 0.0000 -10582.5548 1457.3948 0.0000 0.0000 1702.2030 -7413.7061 294.4612 -9115.9091 -7330.5832 300.1572 63.2394 109.9620 30084.2792 -70.5180 -11.7740
TCL: Running FEP window  16: Lambda1 0.24999999999999967 Lambda2 0.19999999999999968 [dLambda -0.04999999999999999]
TCL: Setting parameter firsttimestep to 0
TCL: Setting parameter alchLambda to 0.24999999999999967
Info: NONBONDED TABLE R-SQUARED SPACING: 0.0625
Info: NONBONDED TABLE SIZE: 705 POINTS
TCL: Setting parameter alchLambda2 to 0.19999999999999968
Info: NONBONDED TABLE R-SQUARED SPACING: 0.0625
Info: NONBONDED TABLE SIZE: 705 POINTS
TCL: Running for 1500000 steps
ETITLE: TS BOND ANGLE DIHED IMPRP ELECT VDW BOUNDARY MISC KINETIC TOTAL TEMP POTENTIAL TOTALAVG TEMPAVG PRESSURE GPRESSURE VOLUME PRESSAVG GPRESSAVG
ENERGY: 0 0.5871 5.2957 3.3681 0.0000 -10582.5540 1457.7964 0.0000 0.0000 1701.3278 -7414.1787 294.3098 -9115.5066 -7414.1787 294.3098 20.2324 109.1559 30084.2792 20.2324 109.1559
ENERGY: 300000 2.6045 5.7292 2.6045 0.0000 -10436.4389 1359.6658 0.0000 0.0000 1780.7050 -7285.1297 308.0411 -9065.8347 -7336.9693 300.7375 -345.9474 -268.6839 29766.7353 -108.9690 -50.2651
ENERGY: 600000 3.5684 6.5866 3.5886 0.0000 -10530.1192 1454.9676 0.0000 0.0000 1768.3092 -7293.0989 305.8968 -9061.4080 -7316.5787 303.9460 498.0533 560.7697 29620.6834 -34.2284 25.4521
ENERGY: 900000 1.0986 5.5450 1.8874 0.0000 -10576.1650 1482.0449 0.0000 0.0000 1734.6096 -7350.9795 300.0671 -9085.5891 -7323.8219 303.7513 745.5958 797.8099 29437.2133 98.0688 155.2143
ENERGY: 1200000 1.5542 9.6599 2.6427 0.0000 -10648.9764 1517.5137 0.0000 0.0000 1787.1172 -7330.4887 309.1503 -9117.6060 -7315.5608 305.1705 697.5184 720.8587 29795.1155 180.7596 230.7448
ENERGY: 1500000 3.1054 6.6922 2.3945 0.0000 -10580.6062 1432.6097 0.0000 0.0000 1669.1502 -7466.6542 288.7434 -9135.8044 -7325.0767 303.6704 -222.1870 -190.5494 29991.0052 112.7245 162.5026
TCL: Running FEP window  17: Lambda1 0.19999999999999968 Lambda2 0.1499999999999997 [dLambda -0.04999999999999999]
TCL: Setting parameter firsttimestep to 0
TCL: Setting parameter alchLambda to 0.19999999999999968
Info: NONBONDED TABLE R-SQUARED SPACING: 0.0625
Info: NONBONDED TABLE SIZE: 705 POINTS
TCL: Setting parameter alchLambda2 to 0.1499999999999997
Info: NONBONDED TABLE R-SQUARED SPACING: 0.0625
Info: NONBONDED TABLE SIZE: 705 POINTS
TCL: Running for 1500000 steps
ETITLE: TS BOND ANGLE DIHED IMPRP ELECT VDW BOUNDARY MISC KINETIC TOTAL TEMP POTENTIAL TOTALAVG TEMPAVG PRESSURE GPRESSURE VOLUME PRESSAVG GPRESSAVG
ENERGY: 0 3.1054 6.6922 2.3945 0.0000 -10580.6051 1432.9020 0.0000 0.0000 1668.3363 -7467.1747 288.6026 -9135.5110 -7467.1747 288.6026 -272.2380 -191.5201 29991.0052 -272.2380 -191.5201
ENERGY: 300000 3.4808 5.5541 1.2714 0.0000 -10550.4072 1453.0359 0.0000 0.0000 1751.1886 -7335.8763 302.9351 -9087.0649 -7354.8222 298.3831 406.0716 450.3272 29341.2532 -412.2298 -332.1359
ENERGY: 600000 2.7243 7.1784 3.1384 0.0000 -10568.3499 1450.2573 0.0000 0.0000 1729.5182 -7375.5334 299.1864 -9105.0516 -7345.3936 300.4973 505.4950 524.9866 29203.3430 -17.2268 59.6391
ENERGY: 900000 1.0012 6.1386 3.9874 0.0000 -10383.9197 1304.8241 0.0000 0.0000 1687.4468 -7380.5218 291.9085 -9067.9685 -7352.1364 300.0362 -927.3415 -873.6838 30056.6068 -193.5196 -123.3073
ENERGY: 1200000 1.3173 3.7356 3.8943 0.0000 -10415.7077 1305.6643 0.0000 0.0000 1781.6922 -7319.4040 308.2119 -9101.0962 -7347.8216 300.5708 -923.9507 -828.1230 30016.1557 -251.7715 -182.9374
ENERGY: 1500000 5.0867 6.2035 1.6853 0.0000 -10560.5238 1436.6537 0.0000 0.0000 1729.8438 -7381.0508 299.2427 -9110.8946 -7350.6237 300.3294 67.4674 175.7151 29535.0728 -152.7476 -83.4083
TCL: Running FEP window  18: Lambda1 0.1499999999999997 Lambda2 0.09999999999999969 [dLambda -0.05 ]
TCL: Setting parameter firsttimestep to 0
TCL: Setting parameter alchLambda to 0.1499999999999997
Info: NONBONDED TABLE R-SQUARED SPACING: 0.0625
Info: NONBONDED TABLE SIZE: 705 POINTS
TCL: Setting parameter alchLambda2 to 0.09999999999999969
Info: NONBONDED TABLE R-SQUARED SPACING: 0.0625
Info: NONBONDED TABLE SIZE: 705 POINTS
TCL: Running for 1500000 steps
ETITLE: TS BOND ANGLE DIHED IMPRP ELECT VDW BOUNDARY MISC KINETIC TOTAL TEMP POTENTIAL TOTALAVG TEMPAVG PRESSURE GPRESSURE VOLUME PRESSAVG GPRESSAVG
ENERGY: 0 5.0867 6.2035 1.6853 0.0000 -10560.5229 1436.9855 0.0000 0.0000 1728.9454 -7381.6165 299.0873 -9110.5619 -7381.6165 299.0873 65.5650 172.9200 29535.0728 65.5650 172.9200
ENERGY: 300000 1.8829 6.4976 2.1989 0.0000 -10355.2762 1349.7930 0.0000 0.0000 1743.6367 -7251.2671 301.6287 -8994.9038 -7365.9045 301.7543 -528.7428 -401.3674 30342.2346 -78.5702 -9.4153
ENERGY: 600000 0.5955 6.9157 5.1467 0.0000 -10459.5216 1353.1167 0.0000 0.0000 1775.8889 -7317.8581 307.2080 -9093.7470 -7360.7273 302.6203 -434.3284 -393.1077 29703.1063 -275.7916 -207.0976
ENERGY: 900000 2.5280 4.5254 1.7745 0.0000 -10471.5231 1401.2046 0.0000 0.0000 1740.4601 -7321.0305 301.0792 -9061.4906 -7355.6014 301.5979 31.5278 101.0152 29483.1801 -267.9225 -200.2036
ENERGY: 1200000 0.8666 9.8734 1.1851 0.0000 -10585.1015 1497.2740 0.0000 0.0000 1730.7004 -7345.2020 299.3909 -9075.9024 -7352.1398 300.8142 584.3819 652.7026 29853.9622 -224.7439 -163.6932
ENERGY: 1500000 0.8299 6.9970 1.2569 0.0000 -10621.1335 1461.1640 0.0000 0.0000 1731.3729 -7419.5127 299.5072 -9150.8856 -7357.9939 300.7406 -105.9266 -25.8645 30157.6302 -132.7558 -70.7527
TCL: Running FEP window  19: Lambda1 0.09999999999999969 Lambda2 0.049999999999999684 [dLambda -0.05 ]
TCL: Setting parameter firsttimestep to 0
TCL: Setting parameter alchLambda to 0.09999999999999969
Info: NONBONDED TABLE R-SQUARED SPACING: 0.0625
Info: NONBONDED TABLE SIZE: 705 POINTS
TCL: Setting parameter alchLambda2 to 0.049999999999999684
Info: NONBONDED TABLE R-SQUARED SPACING: 0.0625
Info: NONBONDED TABLE SIZE: 705 POINTS
TCL: Running for 1500000 steps
ETITLE: TS BOND ANGLE DIHED IMPRP ELECT VDW BOUNDARY MISC KINETIC TOTAL TEMP POTENTIAL TOTALAVG TEMPAVG PRESSURE GPRESSURE VOLUME PRESSAVG GPRESSAVG
ENERGY: 0 0.8299 6.9970 1.2569 0.0000 -10621.1337 1459.8930 0.0000 0.0000 1730.5093 -7421.6475 299.3578 -9152.1569 -7421.6475 299.3578 -100.1705 -29.5886 30157.6302 -100.1705 -29.5886
ENERGY: 300000 0.9889 6.2840 4.7543 0.0000 -10462.0844 1394.5714 0.0000 0.0000 1807.0390 -7248.4468 312.5966 -9055.4858 -7384.0502 300.6616 -170.4534 -43.7016 29827.7012 271.1625 378.2640
ENERGY: 600000 2.3903 8.8338 1.9954 0.0000 -10528.8936 1419.3664 0.0000 0.0000 1706.4104 -7389.8973 295.1890 -9096.3077 -7368.8188 300.4868 160.4843 179.6164 29531.7275 95.9876 180.9724
ENERGY: 900000 1.9747 7.1075 1.7143 0.0000 -10557.8609 1463.7657 0.0000 0.0000 1726.8166 -7356.4822 298.7190 -9083.2988 -7367.0253 298.9804 11.6028 158.8064 30229.1206 100.5437 191.7044
ENERGY: 1200000 1.4513 7.1403 1.3609 0.0000 -10527.3895 1369.9015 0.0000 0.0000 1746.6491 -7400.8864 302.1498 -9147.5355 -7369.7674 298.9749 -580.0122 -549.8708 29553.3323 43.5166 124.2774
ENERGY: 1500000 1.7497 12.8896 2.4247 0.0000 -10487.3399 1360.1250 0.0000 0.0000 1734.5925 -7375.5584 300.0642 -9110.1509 -7355.6096 300.6856 -661.5913 -570.9644 30074.8713 44.2406 121.0740
TCL: Running FEP window  20: Lambda1 0.049999999999999684 Lambda2 0.0    [dLambda -0.049999999999999684]
TCL: Setting parameter firsttimestep to 0
TCL: Setting parameter alchLambda to 0.049999999999999684
Info: NONBONDED TABLE R-SQUARED SPACING: 0.0625
Info: NONBONDED TABLE SIZE: 705 POINTS
TCL: Setting parameter alchLambda2 to 0.0
Info: NONBONDED TABLE R-SQUARED SPACING: 0.0625
Info: NONBONDED TABLE SIZE: 705 POINTS
TCL: Running for 1500000 steps
ETITLE: TS BOND ANGLE DIHED IMPRP ELECT VDW BOUNDARY MISC KINETIC TOTAL TEMP POTENTIAL TOTALAVG TEMPAVG PRESSURE GPRESSURE VOLUME PRESSAVG GPRESSAVG
ENERGY: 0 1.7497 12.8896 2.4247 0.0000 -10487.3398 1359.8411 0.0000 0.0000 1733.7178 -7376.7169 299.9128 -9110.4347 -7376.7169 299.9128 -654.5371 -574.4381 30074.8713 -654.5371 -574.4381
ENERGY: 300000 1.5359 9.1112 4.2729 0.0000 -10466.4750 1395.4357 0.0000 0.0000 1730.0887 -7326.0307 299.2851 -9056.1193 -7363.8604 299.9265 -372.3841 -257.6599 29789.8839 -582.9586 -513.1177
ENERGY: 600000 0.4954 7.7837 1.8479 0.0000 -10467.8803 1413.9089 0.0000 0.0000 1764.2030 -7279.6414 305.1864 -9043.8444 -7327.3156 302.2311 89.0204 190.0579 29702.6439 -342.4858 -275.8418
ENERGY: 900000 0.1865 8.7160 2.1828 0.0000 -10477.9287 1431.8433 0.0000 0.0000 1769.9003 -7265.0999 306.1720 -9035.0002 -7321.8270 301.6392 231.7001 338.8788 29762.0363 -166.0213 -97.0327
ENERGY: 1200000 1.8447 6.8826 2.3454 0.0000 -10387.6111 1290.0635 0.0000 0.0000 1783.4297 -7303.0453 308.5124 -9086.4750 -7321.7660 302.3539 -1155.4399 -1082.8998 29801.5874 -181.5433 -107.7119
ENERGY: 1500000 2.8213 12.0651 1.8397 0.0000 -10686.7428 1506.5225 0.0000 0.0000 1750.0218 -7413.4724 302.7333 -9163.4942 -7338.7602 301.5742 530.3982 577.8862 29352.8939 -172.1695 -102.2093
TCL: Exiting due to exit command.
