Info: SIMULATION PARAMETERS:
Info: TIMESTEP               2
Info: NUMBER OF STEPS        0
Info: STEPS PER CYCLE        10
Info: PERIODIC CELL BASIS 1  30.2535 0 0
Info: PERIODIC CELL BASIS 2  0 31.5109 0
Info: PERIODIC CELL BASIS 3  0 0 32.2121
Info: PERIODIC CELL CENTER   0 0 0
Info: WRAPPING WATERS AROUND PERIODIC BOUNDARIES ON OUTPUT.
Info: WRAPPING ALL CLUSTERS AROUND PERIODIC BOUNDARIES ON OUTPUT.
Info: FIRST LDB TIMESTEP     50
Info: LAST LDB TIMESTEP     -1
Info: HOM BACKGROUND SCALING 1
Info: PME BACKGROUND SCALING 1
Info: MIN ATOMS PER PATCH    40
Info: EMPTY PATCH LOAD       40 ATOMS
Info: VELOCITY FILE          mobley_2881590_equil.vel
Info: CENTER OF MASS MOVING INITIALLY? NO
Info: DIELECTRIC             1
Info: EXCLUDE                SCALED ONE-FOUR
Info: 1-4 ELECTROSTATICS SCALED BY 0.833333
Info: MODIFIED 1-4 VDW PARAMETERS WILL BE USED
Info: DCD FILENAME           mobley_2881590_prod.dcd
Info: DCD FREQUENCY          100000
Info: DCD FIRST STEP         100000
Info: DCD FILE WILL CONTAIN UNIT CELL DATA
Info: XST FILENAME           mobley_2881590_prod.xst
Info: XST FREQUENCY          100000
Info: NO VELOCITY DCD OUTPUT
Info: NO FORCE DCD OUTPUT
Info: OUTPUT FILENAME        mobley_2881590_prod
Info: BINARY OUTPUT FILES WILL BE USED
Info: RESTART FILENAME       mobley_2881590_prod.restart
Info: RESTART FREQUENCY      100000
Info: BINARY RESTART FILES WILL BE USED
Info: CUTOFF                 9
Info: PAIRLIST DISTANCE      11
Info: PAIRLIST SHRINK RATE   0.01
Info: PAIRLIST GROW RATE     0.01
Info: PAIRLIST TRIGGER       0.3
Info: PAIRLISTS PER CYCLE    2
Info: PAIRLISTS ENABLED
Info: MARGIN                 2
Info: HYDROGEN GROUP CUTOFF  2.5
Info: PATCH DIMENSION        15.5
Info: ENERGY OUTPUT STEPS    100000
Info: ENERGY EVALUATION STEPS    100000
Info: OUTPUT ENERGY PRECISION 4
Info: CROSSTERM ENERGY INCLUDED IN DIHEDRAL
Info: TIMING OUTPUT STEPS    1000000
Info: PRESSURE OUTPUT STEPS  100000
Info: ALCHEMICAL FEP ON
Info: FEP CURRENT LAMBDA VALUE     1
Info: FEP COMPARISON LAMBDA VALUE  0.95
Info: FEP INTRA-ALCHEMICAL NON-BONDED INTERACTIONS WILL BE RETAINED
Info: FEP INTRA-ALCHEMICAL BONDED INTERACTIONS WILL BE RETAINED
Info: FEP VDW SHIFTING COEFFICIENT 5
Info: FEP ELEC. ACTIVE FOR ANNIHILATED PARTICLES BETWEEN LAMBDA = 0 AND LAMBDA = 0.5
Info: FEP ELEC. ACTIVE FOR EXNIHILATED PARTICLES BETWEEN LAMBDA = 0.5 AND LAMBDA = 1
Info: FEP VDW ACTIVE FOR ANNIHILATED PARTICLES BETWEEN LAMBDA = 0 AND LAMBDA = 1
Info: FEP VDW ACTIVE FOR EXNIHILATED PARTICLES BETWEEN LAMBDA = 0 AND LAMBDA = 1
Info: FEP BOND ACTIVE FOR ANNIHILATED PARTICLES BETWEEN LAMBDA = 1 AND LAMBDA = 1
Info: FEP BOND ACTIVE FOR EXNIHILATED PARTICLES BETWEEN LAMBDA = 0 AND LAMBDA = 0
Info: LANGEVIN DYNAMICS ACTIVE
Info: LANGEVIN TEMPERATURE   300
Info: LANGEVIN USING BBK INTEGRATOR
Info: LANGEVIN DAMPING COEFFICIENT IS 1 INVERSE PS
Info: LANGEVIN DYNAMICS APPLIED TO HYDROGENS
Info: LANGEVIN PISTON PRESSURE CONTROL ACTIVE
Info:        TARGET PRESSURE IS 1.01325 BAR
Info:     OSCILLATION PERIOD IS 50 FS
Info:             DECAY TIME IS 25 FS
Info:     PISTON TEMPERATURE IS 300 K
Info:       PRESSURE CONTROL IS GROUP-BASED
Info:    INITIAL STRAIN RATE IS 0.000609677 0.000609677 0.000609677
Info:       CELL FLUCTUATION IS ISOTROPIC
Info: PARTICLE MESH EWALD (PME) ACTIVE
Info: PME TOLERANCE               1e-06
Info: PME EWALD COEFFICIENT       0.348832
Info: PME INTERPOLATION ORDER     4
Info: PME GRID DIMENSIONS         32 32 36
Info: PME MAXIMUM GRID SPACING    1
Info: PME CALCULATION WILL BE PERFORMED ON GPU
Info: FULL ELECTROSTATIC EVALUATION FREQUENCY      2
Info: USING VERLET I (r-RESPA) MTS SCHEME.
Info: C1 SPLITTING OF LONG RANGE ELECTROSTATICS
Info: PLACING ATOMS IN PATCHES BY HYDROGEN GROUPS
Info: RIGID BONDS TO HYDROGEN : ALL
Info:         ERROR TOLERANCE : 1e-08
Info:          MAX ITERATIONS : 100
Info: RIGID WATER USING SETTLE ALGORITHM
Info: RANDOM NUMBER SEED     1743909209
Info: USE HYDROGEN BONDS?    NO
Info: Using AMBER format force field!
Info: AMBER PARM FILE        mobley_2881590.prmtop
Info: COORDINATE PDB         mobley_2881590.pdb
Info: Exclusions will be read from PARM file!
Info: SCNB (VDW SCALING)     2
Info: USING ARITHMETIC MEAN TO COMBINE L-J SIGMA PARAMETERS
Info: BINARY COORDINATES     mobley_2881590_equil.coor
Info: SUMMARY OF PARAMETERS:
Info: 8 BONDS
Info: 10 ANGLES
Info:   10 HARMONIC
Info:   0 COSINE-BASED
Info: 7 DIHEDRAL
Info: 0 IMPROPER
Info: 0 CROSSTERM
Info: 0 VDW
Info: 36 VDW_PAIRS
Info: 0 NBTHOLE_PAIRS
Info: To read alchdata from file: mobley_2881590.pdb
Info: To read alchflag data from column: 5
Info: STRUCTURE SUMMARY:
Info: 2963 ATOMS
Info: 2962 BONDS
Info: 28 ANGLES
Info: 33 DIHEDRALS
Info: 0 IMPROPERS
Info: 0 CROSSTERMS
Info: 3022 EXCLUSIONS
Info: 2955 RIGID BONDS
Info: ALCH: 0 ATOMS TO DISAPPEAR IN FINAL STATE
Info: ALCH: 17 ATOMS TO APPEAR IN FINAL STATE
Info: 5934 DEGREES OF FREEDOM
Info: 990 HYDROGEN GROUPS
Info: 4 ATOMS IN LARGEST HYDROGEN GROUP
Info: 990 MIGRATION GROUPS
Info: 4 ATOMS IN LARGEST MIGRATION GROUP
Info: TOTAL MASS = 17810.8 amu
Info: TOTAL CHARGE = -0.000200003 e
Info: MASS DENSITY = 0.96314 g/cm^3
Info: ATOM DENSITY = 0.0964889 atoms/A^3
Info: ADDED 0 IMPLICIT EXCLUSIONS
Info: NONBONDED TABLE R-SQUARED SPACING: 0.0625
Info: NONBONDED TABLE SIZE: 705 POINTS
Info: REMOVING COM VELOCITY -0.0121099 -0.0945775 0.0897492
Info: Use 3D box decompostion in PME FFT.
Info: Updated CUDA force table with 4096 elements.
Info: Updated CUDA LJ table with 8 x 8 elements.
Info: Found 20 unique exclusion lists needing 48 bytes
TCL: Running for 1500000 steps
ETITLE: TS BOND ANGLE DIHED IMPRP ELECT VDW BOUNDARY MISC KINETIC TOTAL TEMP POTENTIAL TOTALAVG TEMPAVG PRESSURE GPRESSURE VOLUME PRESSAVG GPRESSAVG
ENERGY: 0 2.2685 12.8905 1.7219 0.0000 -10681.6676 1390.9800 0.0000 0.0000 1818.1131 -7455.6936 308.3641 -9273.8067 -7455.6936 308.3641 -492.3464 -410.6458 30708.1812 -492.3464 -410.6458
ENERGY: 300000 2.1127 13.7088 1.7022 0.0000 -10739.4251 1422.7483 0.0000 0.0000 1761.8900 -7537.2632 298.8282 -9299.1531 -7533.7900 299.4658 29.0869 99.5278 30283.7336 -314.1517 -240.5547
ENERGY: 600000 1.6265 8.7065 2.6788 0.0000 -10553.7278 1316.5651 0.0000 0.0000 1800.4419 -7423.7091 305.3669 -9224.1510 -7506.6326 300.5615 -855.6106 -782.9951 30590.1057 -296.7684 -232.2078
ENERGY: 900000 1.9984 5.4644 0.7591 0.0000 -10692.6247 1460.0658 0.0000 0.0000 1788.8697 -7435.4673 303.4042 -9224.3370 -7506.2926 301.6296 214.1429 303.0553 30823.7257 -181.6876 -113.4800
ENERGY: 1200000 2.6624 7.6158 1.6378 0.0000 -10708.7176 1449.5703 0.0000 0.0000 1768.8331 -7478.3981 300.0058 -9247.2312 -7495.4577 301.5979 158.8443 243.3773 30528.8657 -154.4847 -85.9400
ENERGY: 1500000 2.0602 5.9869 0.5883 0.0000 -10947.6804 1534.0909 0.0000 0.0000 1767.8746 -7637.0794 299.8433 -9404.9540 -7507.0083 301.5533 348.9237 402.8102 30544.5212 -92.5050 -29.7714
TCL: Running FEP window   2: Lambda1 0.95   Lambda2 0.8999999999999999 [dLambda -0.050000000000000044]
TCL: Setting parameter firsttimestep to 0
TCL: Setting parameter alchLambda to 0.95
Info: NONBONDED TABLE R-SQUARED SPACING: 0.0625
Info: NONBONDED TABLE SIZE: 705 POINTS
TCL: Setting parameter alchLambda2 to 0.8999999999999999
Info: NONBONDED TABLE R-SQUARED SPACING: 0.0625
Info: NONBONDED TABLE SIZE: 705 POINTS
TCL: Running for 1500000 steps
ETITLE: TS BOND ANGLE DIHED IMPRP ELECT VDW BOUNDARY MISC KINETIC TOTAL TEMP POTENTIAL TOTALAVG TEMPAVG PRESSURE GPRESSURE VOLUME PRESSAVG GPRESSAVG
ENERGY: 0 2.0602 5.9869 0.5883 0.0000 -10947.2558 1534.7134 0.0000 0.0000 1767.0058 -7636.9012 299.6959 -9403.9070 -7636.9012 299.6959 308.3520 395.6519 30544.5212 308.3520 395.6519
ENERGY: 300000 2.9610 10.1833 6.4703 0.0000 -10674.4833 1442.1850 0.0000 0.0000 1824.7382 -7387.9455 309.4877 -9212.6838 -7491.2929 304.3372 88.0892 197.8980 30605.2880 97.1661 177.2471
ENERGY: 600000 2.1593 7.8855 1.9797 0.0000 -10677.8653 1410.9348 0.0000 0.0000 1764.9750 -7489.9308 299.3515 -9254.9059 -7521.5050 301.3097 -210.1975 -169.1070 30602.1741 -131.5211 -65.8941
ENERGY: 900000 0.8677 7.2393 4.4257 0.0000 -10728.0288 1411.8240 0.0000 0.0000 1750.4609 -7553.2113 296.8898 -9303.6721 -7521.0095 301.4961 -481.2401 -390.6700 30743.9741 -229.9229 -162.4819
ENERGY: 1200000 6.9952 4.8423 1.7176 0.0000 -10704.3794 1407.8482 0.0000 0.0000 1780.2638 -7502.7123 301.9446 -9282.9761 -7516.5022 301.0441 -384.2225 -302.8747 30698.6373 -144.5757 -84.6073
ENERGY: 1500000 2.0818 6.0816 1.4031 0.0000 -10680.4689 1448.0438 0.0000 0.0000 1709.3976 -7513.4609 289.9252 -9222.8585 -7512.9001 300.9120 188.8610 290.2000 30585.7582 -63.5566 1.2937
TCL: Running FEP window   3: Lambda1 0.8999999999999999 Lambda2 0.8499999999999999 [dLambda -0.050000000000000044]
TCL: Setting parameter firsttimestep to 0
TCL: Setting parameter alchLambda to 0.8999999999999999
Info: NONBONDED TABLE R-SQUARED SPACING: 0.0625
Info: NONBONDED TABLE SIZE: 705 POINTS
TCL: Setting parameter alchLambda2 to 0.8499999999999999
Info: NONBONDED TABLE R-SQUARED SPACING: 0.0625
Info: NONBONDED TABLE SIZE: 705 POINTS
TCL: Running for 1500000 steps
ETITLE: TS BOND ANGLE DIHED IMPRP ELECT VDW BOUNDARY MISC KINETIC TOTAL TEMP POTENTIAL TOTALAVG TEMPAVG PRESSURE GPRESSURE VOLUME PRESSAVG GPRESSAVG
ENERGY: 0 2.0818 6.0816 1.4031 0.0000 -10680.0294 1448.4958 0.0000 0.0000 1708.5389 -7513.4282 289.7795 -9221.9671 -7513.4282 289.7795 211.9505 287.0522 30585.7582 211.9505 287.0522
ENERGY: 300000 2.9812 5.4389 5.8033 0.0000 -10754.5630 1444.0106 0.0000 0.0000 1787.2459 -7509.0832 303.1288 -9296.3291 -7492.1609 298.0936 -11.4953 15.2200 30372.1143 222.9716 282.4972
ENERGY: 600000 0.6607 6.6276 2.6667 0.0000 -10750.4851 1473.6817 0.0000 0.0000 1779.4365 -7487.4118 301.8042 -9266.8483 -7497.5571 299.5111 265.1472 315.1839 30539.1590 52.2689 115.8516
ENERGY: 900000 1.3572 8.2217 3.3588 0.0000 -10637.7220 1416.9608 0.0000 0.0000 1724.1921 -7483.6314 292.4344 -9207.8235 -7486.2763 299.4308 271.2202 318.2694 30332.5704 -16.1293 51.3680
ENERGY: 1200000 3.2648 3.8341 2.2058 0.0000 -10738.1080 1456.5544 0.0000 0.0000 1704.4707 -7567.7781 289.0895 -9272.2488 -7505.5422 297.4520 -179.7447 -79.2057 30681.8618 -38.5710 26.3265
ENERGY: 1500000 2.4996 9.0721 1.5539 0.0000 -10697.0674 1350.6074 0.0000 0.0000 1784.7376 -7548.5967 302.7033 -9333.3343 -7503.9727 298.1613 -866.2704 -735.7962 30443.2805 -145.7732 -76.8128
TCL: Running FEP window   4: Lambda1 0.8499999999999999 Lambda2 0.7999999999999998 [dLambda -0.050000000000000044]
TCL: Setting parameter firsttimestep to 0
TCL: Setting parameter alchLambda to 0.8499999999999999
Info: NONBONDED TABLE R-SQUARED SPACING: 0.0625
Info: NONBONDED TABLE SIZE: 705 POINTS
TCL: Setting parameter alchLambda2 to 0.7999999999999998
Info: NONBONDED TABLE R-SQUARED SPACING: 0.0625
Info: NONBONDED TABLE SIZE: 705 POINTS
TCL: Running for 1500000 steps
ETITLE: TS BOND ANGLE DIHED IMPRP ELECT VDW BOUNDARY MISC KINETIC TOTAL TEMP POTENTIAL TOTALAVG TEMPAVG PRESSURE GPRESSURE VOLUME PRESSAVG GPRESSAVG
ENERGY: 0 2.4996 9.0721 1.5539 0.0000 -10696.4836 1350.3939 0.0000 0.0000 1783.8683 -7549.0958 302.5559 -9332.9641 -7549.0958 302.5559 -832.4817 -751.4573 30443.2805 -832.4817 -751.4573
ENERGY: 300000 3.2752 4.4552 3.3477 0.0000 -10729.4695 1451.6355 0.0000 0.0000 1780.2703 -7486.4855 301.9457 -9266.7558 -7536.9307 298.2425 77.4992 128.8418 30703.9838 -100.6331 -27.2298
ENERGY: 600000 2.2300 10.6319 1.8055 0.0000 -10793.5398 1469.7610 0.0000 0.0000 1815.5609 -7493.5505 307.9312 -9309.1113 -7529.9399 299.2579 138.1226 211.7824 30470.4849 -12.6786 58.6272
ENERGY: 900000 2.1467 4.2280 1.1476 0.0000 -10616.0206 1368.8568 0.0000 0.0000 1736.0069 -7503.6346 294.4383 -9239.6415 -7512.4910 299.3833 -486.1149 -372.2415 30413.3498 -68.0766 -0.4501
ENERGY: 1200000 1.3457 9.9813 1.9441 0.0000 -10722.2722 1458.6255 0.0000 0.0000 1731.2656 -7519.1099 293.6341 -9250.3756 -7512.1894 298.6934 274.9536 276.3133 30374.2367 -51.6816 11.7189
ENERGY: 1500000 5.4015 8.7412 3.1599 0.0000 -10868.2475 1508.4274 0.0000 0.0000 1758.2000 -7584.3175 298.2024 -9342.5175 -7513.3599 299.8181 406.6989 433.2914 30359.3820 -0.4491 58.8009
TCL: Running FEP window   5: Lambda1 0.7999999999999998 Lambda2 0.7499999999999998 [dLambda -0.050000000000000044]
TCL: Setting parameter firsttimestep to 0
TCL: Setting parameter alchLambda to 0.7999999999999998
Info: NONBONDED TABLE R-SQUARED SPACING: 0.0625
Info: NONBONDED TABLE SIZE: 705 POINTS
TCL: Setting parameter alchLambda2 to 0.7499999999999998
Info: NONBONDED TABLE R-SQUARED SPACING: 0.0625
Info: NONBONDED TABLE SIZE: 705 POINTS
TCL: Running for 1500000 steps
ETITLE: TS BOND ANGLE DIHED IMPRP ELECT VDW BOUNDARY MISC KINETIC TOTAL TEMP POTENTIAL TOTALAVG TEMPAVG PRESSURE GPRESSURE VOLUME PRESSAVG GPRESSAVG
ENERGY: 0 5.4015 8.7412 3.1599 0.0000 -10868.0693 1508.8617 0.0000 0.0000 1757.2824 -7584.6225 298.0468 -9341.9050 -7584.6225 298.0468 343.3773 426.9768 30359.3820 343.3773 426.9768
ENERGY: 300000 0.7750 8.6479 0.8865 0.0000 -10608.7300 1377.0305 0.0000 0.0000 1797.3074 -7424.0827 304.8353 -9221.3901 -7487.4127 303.0928 -275.3190 -219.1336 30511.6279 -99.7002 -38.9864
ENERGY: 600000 2.6742 8.6249 2.5497 0.0000 -10837.7614 1515.4128 0.0000 0.0000 1794.6461 -7513.8536 304.3839 -9308.4998 -7504.0494 304.3376 385.4243 461.3167 30407.8193 14.7785 76.3643
ENERGY: 900000 1.1144 11.1581 3.7925 0.0000 -10860.7054 1552.1132 0.0000 0.0000 1740.0438 -7552.4835 295.1230 -9292.5273 -7496.8441 302.9102 637.6313 739.8945 30313.2509 -0.2348 60.4607
ENERGY: 1200000 5.0460 7.7161 4.1837 0.0000 -10672.9130 1433.8480 0.0000 0.0000 1753.9481 -7468.1713 297.4812 -9222.1193 -7493.5119 302.0472 -0.0914 20.5622 30806.4191 -29.4345 19.8893
ENERGY: 1500000 2.1041 8.0725 3.9649 0.0000 -10791.4261 1477.4034 0.0000 0.0000 1739.7553 -7560.1259 295.0740 -9299.8811 -7502.3116 301.6474 -1.9605 25.5719 30698.0599 29.2866 82.0264
TCL: Running FEP window   6: Lambda1 0.7499999999999998 Lambda2 0.6999999999999997 [dLambda -0.050000000000000044]
TCL: Setting parameter firsttimestep to 0
TCL: Setting parameter alchLambda to 0.7499999999999998
Info: NONBONDED TABLE R-SQUARED SPACING: 0.0625
Info: NONBONDED TABLE SIZE: 705 POINTS
TCL: Setting parameter alchLambda2 to 0.6999999999999997
Info: NONBONDED TABLE R-SQUARED SPACING: 0.0625
Info: NONBONDED TABLE SIZE: 705 POINTS
TCL: Running for 1500000 steps
ETITLE: TS BOND ANGLE DIHED IMPRP ELECT VDW BOUNDARY MISC KINETIC TOTAL TEMP POTENTIAL TOTALAVG TEMPAVG PRESSURE GPRESSURE VOLUME PRESSAVG GPRESSAVG
ENERGY: 0 2.1041 8.0725 3.9649 0.0000 -10790.5154 1477.4232 0.0000 0.0000 1738.8434 -7560.1072 294.9194 -9298.9506 -7560.1072 294.9194 -49.1739 17.3187 30698.0599 -49.1739 17.3187
ENERGY: 300000 6.5687 10.2240 4.5951 0.0000 -10733.4061 1399.4484 0.0000 0.0000 1742.6209 -7569.9490 295.5601 -9312.5699 -7541.3773 296.5849 -906.9334 -911.4530 30900.4184 -330.1696 -297.7191
ENERGY: 600000 1.0593 7.0882 2.6037 0.0000 -10666.4130 1405.5440 0.0000 0.0000 1805.4994 -7444.6184 306.2247 -9250.1178 -7524.5112 297.9128 -214.3745 -157.6856 30501.1048 -254.7662 -207.1511
ENERGY: 900000 3.1347 9.8339 2.4005 0.0000 -10668.9071 1404.9141 0.0000 0.0000 1754.9730 -7493.6509 297.6551 -9248.6239 -7524.8546 298.5140 -248.9459 -204.7891 30481.3376 -311.3565 -263.7765
ENERGY: 1200000 1.4707 5.0809 2.5650 0.0000 -10707.8018 1372.4596 0.0000 0.0000 1757.8432 -7568.3824 298.1419 -9326.2256 -7529.7594 297.5534 -734.1108 -666.8087 30752.9503 -255.9732 -202.6048
ENERGY: 1500000 2.8775 6.9819 0.8763 0.0000 -10760.1266 1468.2190 0.0000 0.0000 1661.1705 -7620.0015 281.7455 -9281.1720 -7531.1196 296.5043 109.3494 173.8079 30447.0622 -190.5248 -135.0482
TCL: Running FEP window   7: Lambda1 0.6999999999999997 Lambda2 0.6499999999999997 [dLambda -0.050000000000000044]
TCL: Setting parameter firsttimestep to 0
TCL: Setting parameter alchLambda to 0.6999999999999997
Info: NONBONDED TABLE R-SQUARED SPACING: 0.0625
Info: NONBONDED TABLE SIZE: 705 POINTS
TCL: Setting parameter alchLambda2 to 0.6499999999999997
Info: NONBONDED TABLE R-SQUARED SPACING: 0.0625
Info: NONBONDED TABLE SIZE: 705 POINTS
TCL: Running for 1500000 steps
ETITLE: TS BOND ANGLE DIHED IMPRP ELECT VDW BOUNDARY MISC KINETIC TOTAL TEMP POTENTIAL TOTALAVG TEMPAVG PRESSURE GPRESSURE VOLUME PRESSAVG GPRESSAVG
ENERGY: 0 2.8775 6.9819 0.8763 0.0000 -10759.7843 1468.3879 0.0000 0.0000 1660.2706 -7620.3902 281.5929 -9280.6608 -7620.3902 281.5929 90.1029 166.8395 30447.0622 90.1029 166.8395
ENERGY: 300000 4.2577 5.2153 1.0761 0.0000 -10825.8212 1460.0247 0.0000 0.0000 1782.2811 -7572.9662 302.2867 -9355.2473 -7571.7640 297.9344 -82.7087 -58.2032 30512.2784 297.6391 354.6946
ENERGY: 600000 3.5738 6.2491 1.2322 0.0000 -10747.1310 1450.8882 0.0000 0.0000 1780.8123 -7504.3755 302.0376 -9285.1877 -7543.5688 299.5317 -260.4340 -197.0735 30849.3590 224.0447 281.6513
ENERGY: 900000 3.5476 7.0822 0.9056 0.0000 -10630.1986 1420.1628 0.0000 0.0000 1777.1571 -7421.3433 301.4176 -9198.5004 -7526.6903 298.5686 131.7235 178.4624 30528.2070 55.0568 110.6800
ENERGY: 1200000 2.7096 14.0748 1.8921 0.0000 -10713.1085 1433.7320 0.0000 0.0000 1744.1723 -7516.5277 295.8232 -9260.7000 -7511.6861 299.6320 -75.3636 -10.4565 30226.8862 101.8045 149.8390
ENERGY: 1500000 0.9481 9.8719 3.7920 0.0000 -10849.0695 1544.3788 0.0000 0.0000 1764.3805 -7525.6982 299.2506 -9290.0787 -7510.4597 299.2227 676.8688 775.5857 30324.8225 83.3646 134.1480
TCL: Running FEP window   8: Lambda1 0.6499999999999997 Lambda2 0.5999999999999996 [dLambda -0.050000000000000044]
TCL: Setting parameter firsttimestep to 0
TCL: Setting parameter alchLambda to 0.6499999999999997
Info: NONBONDED TABLE R-SQUARED SPACING: 0.0625
Info: NONBONDED TABLE SIZE: 705 POINTS
TCL: Setting parameter alchLambda2 to 0.5999999999999996
Info: NONBONDED TABLE R-SQUARED SPACING: 0.0625
Info: NONBONDED TABLE SIZE: 705 POINTS
TCL: Running for 1500000 steps
ETITLE: TS BOND ANGLE DIHED IMPRP ELECT VDW BOUNDARY MISC KINETIC TOTAL TEMP POTENTIAL TOTALAVG TEMPAVG PRESSURE GPRESSURE VOLUME PRESSAVG GPRESSAVG
ENERGY: 0 0.9481 9.8719 3.7920 0.0000 -10848.9253 1544.3823 0.0000 0.0000 1763.5397 -7526.3913 299.1080 -9289.9310 -7526.3913 299.1080 690.3221 764.7477 30324.8225 690.3221 764.7477
ENERGY: 300000 2.8506 6.4186 3.2562 0.0000 -10640.6618 1360.3322 0.0000 0.0000 1838.0119 -7429.7924 311.7390 -9267.8042 -7523.4370 302.5156 -664.9374 -595.1951 30546.9141 202.1081 219.7546
ENERGY: 600000 2.0781 5.2966 5.3943 0.0000 -10635.9713 1427.5336 0.0000 0.0000 1771.8418 -7423.8269 300.5161 -9195.6687 -7497.5196 301.8085 -34.4535 -10.9055 30602.7639 50.2449 84.6062
ENERGY: 900000 2.4299 8.4729 1.8064 0.0000 -10761.8451 1431.5505 0.0000 0.0000 1778.3555 -7539.2299 301.6209 -9317.5853 -7499.6174 303.6259 -206.7634 -150.7205 30443.6687 1.1036 43.8806
ENERGY: 1200000 1.3117 9.3875 3.9487 0.0000 -10681.2462 1368.5049 0.0000 0.0000 1716.7011 -7581.3923 291.1639 -9298.0934 -7507.5145 302.2974 -619.5990 -520.7865 30248.1242 19.4032 64.6790
ENERGY: 1500000 1.3089 10.5567 3.8080 0.0000 -10763.3855 1482.3446 0.0000 0.0000 1716.3606 -7549.0067 291.1061 -9265.3673 -7512.5697 301.5820 189.0095 209.4424 30839.2247 13.4004 59.8981
TCL: Running FEP window   9: Lambda1 0.5999999999999996 Lambda2 0.5499999999999996 [dLambda -0.050000000000000044]
TCL: Setting parameter firsttimestep to 0
TCL: Setting parameter alchLambda to 0.5999999999999996
Info: NONBONDED TABLE R-SQUARED SPACING: 0.0625
Info: NONBONDED TABLE SIZE: 705 POINTS
TCL: Setting parameter alchLambda2 to 0.5499999999999996
Info: NONBONDED TABLE R-SQUARED SPACING: 0.0625
Info: NONBONDED TABLE SIZE: 705 POINTS
TCL: Running for 1500000 steps
ETITLE: TS BOND ANGLE DIHED IMPRP ELECT VDW BOUNDARY MISC KINETIC TOTAL TEMP POTENTIAL TOTALAVG TEMPAVG PRESSURE GPRESSURE VOLUME PRESSAVG GPRESSAVG
ENERGY: 0 1.3089 10.5567 3.8080 0.0000 -10763.2884 1482.6781 0.0000 0.0000 1715.4646 -7549.4720 290.9542 -9264.9366 -7549.4720 290.9542 127.7755 204.6256 30839.2247 127.7755 204.6256
ENERGY: 300000 5.7775 6.9987 3.0802 0.0000 -10514.8630 1347.3142 0.0000 0.0000 1762.6241 -7389.0682 298.9527 -9151.6923 -7490.4253 296.2277 -731.6344 -655.2221 31067.5521 -107.9876 -57.4193
ENERGY: 600000 2.7809 9.4613 1.1401 0.0000 -10613.2167 1350.4889 0.0000 0.0000 1799.6931 -7449.6524 305.2399 -9249.3455 -7484.9105 297.5533 -572.8735 -507.4663 30328.8502 -113.5339 -49.5096
ENERGY: 900000 1.6552 5.3708 1.5140 0.0000 -10686.6347 1437.1036 0.0000 0.0000 1829.8417 -7411.1495 310.3533 -9240.9911 -7485.9195 298.8619 145.9970 206.5630 30296.0755 -40.2314 19.9460
ENERGY: 1200000 1.9801 11.1016 1.1706 0.0000 -10833.5119 1487.2317 0.0000 0.0000 1785.0460 -7546.9819 302.7556 -9332.0279 -7492.4848 298.8790 245.9744 314.5574 30144.4746 1.1444 65.2915
ENERGY: 1500000 3.8579 4.7310 2.9254 0.0000 -10748.8977 1419.2412 0.0000 0.0000 1741.8582 -7576.2839 295.4307 -9318.1421 -7496.3462 299.2191 5.3756 54.2239 30276.9551 -42.8261 20.8303
TCL: Running FEP window  10: Lambda1 0.5499999999999996 Lambda2 0.4999999999999996 [dLambda -0.04999999999999999]
TCL: Setting parameter firsttimestep to 0
TCL: Setting parameter alchLambda to 0.5499999999999996
Info: NONBONDED TABLE R-SQUARED SPACING: 0.0625
Info: NONBONDED TABLE SIZE: 705 POINTS
TCL: Setting parameter alchLambda2 to 0.4999999999999996
Info: NONBONDED TABLE R-SQUARED SPACING: 0.0625
Info: NONBONDED TABLE SIZE: 705 POINTS
TCL: Running for 1500000 steps
ETITLE: TS BOND ANGLE DIHED IMPRP ELECT VDW BOUNDARY MISC KINETIC TOTAL TEMP POTENTIAL TOTALAVG TEMPAVG PRESSURE GPRESSURE VOLUME PRESSAVG GPRESSAVG
ENERGY: 0 3.8579 4.7310 2.9254 0.0000 -10748.4851 1419.7881 0.0000 0.0000 1740.9790 -7576.2036 295.2816 -9317.1826 -7576.2036 295.2816 -41.9222 52.1810 30276.9551 -41.9222 52.1810
ENERGY: 300000 3.2445 7.9747 0.8729 0.0000 -10573.0733 1287.8112 0.0000 0.0000 1788.6418 -7484.5282 303.3655 -9273.1700 -7527.6190 300.2633 -1200.0009 -1078.1122 30321.7321 -139.3468 -68.5495
ENERGY: 600000 1.5532 7.9448 2.0659 0.0000 -10690.2483 1374.9524 0.0000 0.0000 1814.2128 -7489.5192 307.7025 -9303.7320 -7519.3892 301.8269 -549.9178 -546.3672 30611.9005 -149.1698 -100.6652
ENERGY: 900000 1.1937 7.6159 2.4957 0.0000 -10820.7978 1478.1942 0.0000 0.0000 1749.0053 -7582.2931 296.6429 -9331.2984 -7521.4860 302.2409 232.6732 320.2334 30223.5385 -120.6678 -68.9405
ENERGY: 1200000 1.3907 6.3808 1.1292 0.0000 -10691.6633 1405.6092 0.0000 0.0000 1764.7510 -7512.4024 299.3135 -9277.1534 -7513.4586 302.6796 -117.0226 -8.0411 30117.2171 -94.5984 -33.0139
ENERGY: 1500000 1.1989 8.9537 2.0346 0.0000 -10684.4872 1423.8606 0.0000 0.0000 1814.7928 -7433.6466 307.8009 -9248.4394 -7509.8426 302.6901 -66.3668 16.7092 30403.1307 -68.3380 -3.9715
TCL: Running FEP window  11: Lambda1 0.4999999999999996 Lambda2 0.4499999999999996 [dLambda -0.04999999999999999]
TCL: Setting parameter firsttimestep to 0
TCL: Setting parameter alchLambda to 0.4999999999999996
Info: NONBONDED TABLE R-SQUARED SPACING: 0.0625
Info: NONBONDED TABLE SIZE: 705 POINTS
TCL: Setting parameter alchLambda2 to 0.4499999999999996
Info: NONBONDED TABLE R-SQUARED SPACING: 0.0625
Info: NONBONDED TABLE SIZE: 705 POINTS
TCL: Running for 1500000 steps
ETITLE: TS BOND ANGLE DIHED IMPRP ELECT VDW BOUNDARY MISC KINETIC TOTAL TEMP POTENTIAL TOTALAVG TEMPAVG PRESSURE GPRESSURE VOLUME PRESSAVG GPRESSAVG
ENERGY: 0 1.1989 8.9537 2.0346 0.0000 -10684.3812 1424.2712 0.0000 0.0000 1813.9280 -7433.9948 307.6542 -9247.9228 -7433.9948 307.6542 -74.7620 7.4690 30403.1307 -74.7620 7.4690
ENERGY: 300000 1.8330 10.8468 2.6381 0.0000 -10769.4835 1480.2105 0.0000 0.0000 1790.9440 -7483.0112 303.7560 -9273.9551 -7471.2866 301.7423 246.4415 315.6996 30549.7682 48.2200 107.2424
ENERGY: 600000 1.0944 6.2680 1.2418 0.0000 -10862.9961 1478.1316 0.0000 0.0000 1768.0719 -7608.1884 299.8767 -9376.2604 -7498.1333 300.9078 -153.0397 -120.5974 30645.4275 -74.1210 -19.1855
ENERGY: 900000 3.3117 5.2974 1.0154 0.0000 -10663.8615 1368.9725 0.0000 0.0000 1798.0154 -7487.2492 304.9553 -9285.2645 -7488.5579 301.9725 -580.5948 -463.7016 30405.5848 -97.8960 -40.3281
ENERGY: 1200000 7.1496 9.9972 0.9472 0.0000 -10769.0528 1476.4245 0.0000 0.0000 1753.1267 -7521.4076 297.3419 -9274.5343 -7489.7337 301.4006 8.6623 73.6747 30657.0522 -60.2221 4.7870
ENERGY: 1500000 1.8441 9.1958 0.7340 0.0000 -10739.9684 1431.8188 0.0000 0.0000 1736.3728 -7560.0029 294.5003 -9296.3757 -7488.8853 300.7894 -103.5615 -66.0187 30327.4366 -134.7688 -73.2944
TCL: Running FEP window  12: Lambda1 0.4499999999999996 Lambda2 0.39999999999999963 [dLambda -0.04999999999999999]
TCL: Setting parameter firsttimestep to 0
TCL: Setting parameter alchLambda to 0.4499999999999996
Info: NONBONDED TABLE R-SQUARED SPACING: 0.0625
Info: NONBONDED TABLE SIZE: 705 POINTS
TCL: Setting parameter alchLambda2 to 0.39999999999999963
Info: NONBONDED TABLE R-SQUARED SPACING: 0.0625
Info: NONBONDED TABLE SIZE: 705 POINTS
TCL: Running for 1500000 steps
ETITLE: TS BOND ANGLE DIHED IMPRP ELECT VDW BOUNDARY MISC KINETIC TOTAL TEMP POTENTIAL TOTALAVG TEMPAVG PRESSURE GPRESSURE VOLUME PRESSAVG GPRESSAVG
ENERGY: 0 1.8441 9.1958 0.7340 0.0000 -10739.9684 1430.5905 0.0000 0.0000 1735.4735 -7562.1304 294.3478 -9297.6040 -7562.1304 294.3478 -161.8405 -84.2743 30327.4366 -161.8405 -84.2743
ENERGY: 300000 5.3200 8.2825 1.2871 0.0000 -10697.0586 1468.7663 0.0000 0.0000 1751.8798 -7461.5230 297.1304 -9213.4028 -7497.5579 298.4752 -56.9913 73.8774 30937.2813 -3.9183 90.7735
ENERGY: 600000 1.9082 5.5574 1.1917 0.0000 -10746.8727 1462.6299 0.0000 0.0000 1796.0716 -7479.5139 304.6257 -9275.5855 -7491.1502 302.1500 149.1494 213.7603 30588.3474 260.5312 346.9658
ENERGY: 900000 3.3732 12.5557 1.3791 0.0000 -10683.6320 1405.5592 0.0000 0.0000 1732.2259 -7528.5388 293.7970 -9260.7647 -7495.1243 301.0037 -93.9215 -44.7854 30085.1604 207.9528 296.7616
ENERGY: 1200000 4.9849 6.8333 1.0804 0.0000 -10670.8182 1439.4985 0.0000 0.0000 1743.3613 -7475.0599 295.6856 -9218.4211 -7499.0191 300.2200 -207.6122 -171.9076 31198.0169 149.9420 231.2035
ENERGY: 1500000 2.6613 11.2108 0.7465 0.0000 -10841.4644 1494.4889 0.0000 0.0000 1739.0020 -7593.3549 294.9463 -9332.3569 -7498.7682 299.9875 194.7607 221.3487 30262.2324 100.4758 174.6274
TCL: Running FEP window  13: Lambda1 0.39999999999999963 Lambda2 0.34999999999999964 [dLambda -0.04999999999999999]
TCL: Setting parameter firsttimestep to 0
TCL: Setting parameter alchLambda to 0.39999999999999963
Info: NONBONDED TABLE R-SQUARED SPACING: 0.0625
Info: NONBONDED TABLE SIZE: 705 POINTS
TCL: Setting parameter alchLambda2 to 0.34999999999999964
Info: NONBONDED TABLE R-SQUARED SPACING: 0.0625
Info: NONBONDED TABLE SIZE: 705 POINTS
TCL: Running for 1500000 steps
ETITLE: TS BOND ANGLE DIHED IMPRP ELECT VDW BOUNDARY MISC KINETIC TOTAL TEMP POTENTIAL TOTALAVG TEMPAVG PRESSURE GPRESSURE VOLUME PRESSAVG GPRESSAVG
ENERGY: 0 2.6613 11.2108 0.7465 0.0000 -10841.4638 1494.6301 0.0000 0.0000 1738.0879 -7594.1273 294.7912 -9332.2151 -7594.1273 294.7912 142.1071 215.9419 30262.2324 142.1071 215.9419
ENERGY: 300000 3.5200 8.3154 1.5376 0.0000 -10701.0960 1402.4113 0.0000 0.0000 1777.4738 -7507.8379 301.4714 -9285.3117 -7493.2437 299.6633 -629.3975 -568.6218 30672.8872 -165.3508 -124.7555
ENERGY: 600000 2.5677 5.8490 0.9245 0.0000 -10784.6192 1476.4784 0.0000 0.0000 1797.2211 -7501.5784 304.8206 -9298.7995 -7494.0616 300.6798 460.6617 500.3238 30015.1799 -168.6966 -120.5587
ENERGY: 900000 1.2496 8.1767 1.0666 0.0000 -10641.0170 1393.6001 0.0000 0.0000 1771.5647 -7465.3592 300.4691 -9236.9239 -7487.9943 301.5456 -116.6926 -62.6050 30289.1628 -128.6701 -78.5079
ENERGY: 1200000 0.7435 7.3388 2.4815 0.0000 -10714.4877 1444.4499 0.0000 0.0000 1788.1796 -7471.2945 303.2871 -9259.4740 -7484.7976 301.4757 -264.1777 -219.8324 30829.3292 -238.7315 -187.6461
ENERGY: 1500000 3.9757 5.2433 2.1732 0.0000 -10811.7708 1518.2671 0.0000 0.0000 1773.8811 -7508.2305 300.8620 -9282.1115 -7486.9065 300.5950 454.8204 585.9990 30442.6828 -262.7054 -203.5898
TCL: Running FEP window  14: Lambda1 0.34999999999999964 Lambda2 0.29999999999999966 [dLambda -0.04999999999999999]
TCL: Setting parameter firsttimestep to 0
TCL: Setting parameter alchLambda to 0.34999999999999964
Info: NONBONDED TABLE R-SQUARED SPACING: 0.0625
Info: NONBONDED TABLE SIZE: 705 POINTS
TCL: Setting parameter alchLambda2 to 0.29999999999999966
Info: NONBONDED TABLE R-SQUARED SPACING: 0.0625
Info: NONBONDED TABLE SIZE: 705 POINTS
TCL: Running for 1500000 steps
ETITLE: TS BOND ANGLE DIHED IMPRP ELECT VDW BOUNDARY MISC KINETIC TOTAL TEMP POTENTIAL TOTALAVG TEMPAVG PRESSURE GPRESSURE VOLUME PRESSAVG GPRESSAVG
ENERGY: 0 3.9757 5.2433 2.1732 0.0000 -10811.7712 1518.5406 0.0000 0.0000 1772.9844 -7508.8540 300.7099 -9281.8384 -7508.8540 300.7099 498.3356 583.0625 30442.6828 498.3356 583.0625
ENERGY: 300000 2.2502 9.5823 1.6263 0.0000 -10865.6087 1493.3653 0.0000 0.0000 1801.0978 -7557.6869 305.4781 -9358.7847 -7492.8976 303.5323 -78.8913 -25.5268 30711.2305 221.9194 278.1021
ENERGY: 600000 0.9326 6.8101 1.2794 0.0000 -10659.9106 1374.7865 0.0000 0.0000 1723.9648 -7552.1371 292.3959 -9276.1018 -7494.2230 302.2741 -544.1571 -458.8752 30385.5160 137.9074 194.8232
ENERGY: 900000 1.7797 7.8346 1.8518 0.0000 -10803.8147 1525.0317 0.0000 0.0000 1788.4983 -7478.8185 303.3412 -9267.3168 -7510.6835 300.6521 716.2517 803.5462 30102.3874 108.4223 165.9915
ENERGY: 1200000 0.9795 8.1262 2.5360 0.0000 -10750.2990 1470.5880 0.0000 0.0000 1795.7423 -7472.3270 304.5698 -9268.0693 -7515.8836 299.3397 444.2699 499.8635 30244.2558 125.9689 182.5426
ENERGY: 1500000 0.4400 6.6418 2.7790 0.0000 -10663.5919 1418.3899 0.0000 0.0000 1824.9621 -7410.3791 309.5257 -9235.3412 -7506.7851 299.4911 -268.2094 -163.6172 30873.3543 101.7017 162.3569
TCL: Running FEP window  15: Lambda1 0.29999999999999966 Lambda2 0.24999999999999967 [dLambda -0.04999999999999999]
TCL: Setting parameter firsttimestep to 0
TCL: Setting parameter alchLambda to 0.29999999999999966
Info: NONBONDED TABLE R-SQUARED SPACING: 0.0625
Info: NONBONDED TABLE SIZE: 705 POINTS
TCL: Setting parameter alchLambda2 to 0.24999999999999967
Info: NONBONDED TABLE R-SQUARED SPACING: 0.0625
Info: NONBONDED TABLE SIZE: 705 POINTS
TCL: Running for 1500000 steps
ETITLE: TS BOND ANGLE DIHED IMPRP ELECT VDW BOUNDARY MISC KINETIC TOTAL TEMP POTENTIAL TOTALAVG TEMPAVG PRESSURE GPRESSURE VOLUME PRESSAVG GPRESSAVG
ENERGY: 0 0.4400 6.6418 2.7790 0.0000 -10663.5921 1418.7696 0.0000 0.0000 1824.0760 -7410.8857 309.3754 -9234.9617 -7410.8857 309.3754 -245.5376 -166.2084 30873.3543 -245.5376 -166.2084
ENERGY: 300000 2.4821 9.0920 1.2025 0.0000 -10749.4528 1423.9868 0.0000 0.0000 1786.2844 -7526.4051 302.9657 -9312.6894 -7483.2647 302.3450 -510.2398 -435.0701 30916.5509 -189.1322 -101.7808
ENERGY: 600000 1.0962 7.2999 1.4818 0.0000 -10736.3027 1454.2232 0.0000 0.0000 1731.5959 -7540.6056 293.6902 -9272.2016 -7490.3178 300.6700 128.4805 103.8570 30484.3477 -179.2267 -124.4571
ENERGY: 900000 1.5940 5.4612 2.6184 0.0000 -10726.7514 1397.4537 0.0000 0.0000 1745.0116 -7574.6124 295.9656 -9319.6240 -7507.0121 299.7577 -681.6909 -582.4819 30307.5968 -109.5437 -47.7583
ENERGY: 1200000 1.1750 3.7061 1.4244 0.0000 -10718.1106 1487.7919 0.0000 0.0000 1746.5658 -7477.4473 296.2292 -9224.0131 -7499.4645 299.5214 453.4642 570.5040 30326.9389 -76.3612 -9.5898
ENERGY: 1500000 2.6336 4.9759 2.8120 0.0000 -10631.7474 1391.7026 0.0000 0.0000 1790.9835 -7438.6399 303.7627 -9229.6234 -7493.6348 299.6983 -696.8703 -611.4421 31303.1283 -212.5765 -145.6397
TCL: Running FEP window  16: Lambda1 0.24999999999999967 Lambda2 0.19999999999999968 [dLambda -0.04999999999999999]
TCL: Setting parameter firsttimestep to 0
TCL: Setting parameter alchLambda to 0.24999999999999967
Info: NONBONDED TABLE R-SQUARED SPACING: 0.0625
Info: NONBONDED TABLE SIZE: 705 POINTS
TCL: Setting parameter alchLambda2 to 0.19999999999999968
Info: NONBONDED TABLE R-SQUARED SPACING: 0.0625
Info: NONBONDED TABLE SIZE: 705 POINTS
TCL: Running for 1500000 steps
ETITLE: TS BOND ANGLE DIHED IMPRP ELECT VDW BOUNDARY MISC KINETIC TOTAL TEMP POTENTIAL TOTALAVG TEMPAVG PRESSURE GPRESSURE VOLUME PRESSAVG GPRESSAVG
ENERGY: 0 2.6336 4.9759 2.8120 0.0000 -10631.7460 1391.7290 0.0000 0.0000 1790.1095 -7439.4860 303.6145 -9229.5956 -7439.4860 303.6145 -694.3873 -615.8202 31303.1283 -694.3873 -615.8202
ENERGY: 300000 1.5740 9.4929 1.2860 0.0000 -10652.0174 1385.2836 0.0000 0.0000 1758.0374 -7496.3435 298.1748 -9254.3809 -7498.2311 300.4881 -417.5472 -368.5282 30509.9683 -518.1051 -443.9645
ENERGY: 600000 4.1994 9.1562 2.1509 0.0000 -10618.9320 1385.0308 0.0000 0.0000 1788.3065 -7430.0882 303.3087 -9218.3947 -7490.5114 301.1043 -642.1323 -582.5484 31043.9712 -580.3811 -514.8735
ENERGY: 900000 2.7491 5.2959 2.8468 0.0000 -10698.2576 1415.5279 0.0000 0.0000 1806.5862 -7465.2518 306.4090 -9271.8380 -7485.6061 301.6222 -3.1091 49.3986 30033.8752 -343.7728 -273.1587
ENERGY: 1200000 1.9826 5.3908 2.4487 0.0000 -10740.0453 1492.9803 0.0000 0.0000 1754.8655 -7482.3774 297.6368 -9237.2429 -7479.1705 301.1446 168.0385 249.1326 30906.8613 -245.9369 -179.4315
ENERGY: 1500000 2.2287 5.0315 0.8756 0.0000 -10663.9269 1378.5491 0.0000 0.0000 1728.5141 -7548.7281 293.1675 -9277.2422 -7479.2331 300.8332 -844.9053 -717.1533 30800.8225 -199.3513 -133.2424
TCL: Running FEP window  17: Lambda1 0.19999999999999968 Lambda2 0.1499999999999997 [dLambda -0.04999999999999999]
TCL: Setting parameter firsttimestep to 0
TCL: Setting parameter alchLambda to 0.19999999999999968
Info: NONBONDED TABLE R-SQUARED SPACING: 0.0625
Info: NONBONDED TABLE SIZE: 705 POINTS
TCL: Setting parameter alchLambda2 to 0.1499999999999997
Info: NONBONDED TABLE R-SQUARED SPACING: 0.0625
Info: NONBONDED TABLE SIZE: 705 POINTS
TCL: Running for 1500000 steps
ETITLE: TS BOND ANGLE DIHED IMPRP ELECT VDW BOUNDARY MISC KINETIC TOTAL TEMP POTENTIAL TOTALAVG TEMPAVG PRESSURE GPRESSURE VOLUME PRESSAVG GPRESSAVG
ENERGY: 0 2.2287 5.0315 0.8756 0.0000 -10663.9232 1377.8733 0.0000 0.0000 1727.5944 -7550.3198 293.0115 -9277.9142 -7550.3198 293.0115 -809.4835 -722.2357 30800.8225 -809.4835 -722.2357
ENERGY: 300000 0.6518 9.4967 2.0918 0.0000 -10925.0427 1518.1777 0.0000 0.0000 1764.8170 -7629.8077 299.3247 -9394.6247 -7525.3905 298.2309 298.6509 285.8935 30098.0145 -170.8108 -138.2222
ENERGY: 600000 2.0305 9.6249 1.4884 0.0000 -10790.4097 1482.1846 0.0000 0.0000 1762.9644 -7532.1169 299.0105 -9295.0813 -7494.9334 300.1415 100.6413 198.3940 30460.0087 -49.7978 -18.3536
ENERGY: 900000 0.4917 8.7564 2.7122 0.0000 -10552.6029 1387.2536 0.0000 0.0000 1721.8962 -7431.4926 292.0450 -9153.3888 -7487.1255 300.5892 -96.1593 -85.7035 30390.9106 42.7773 74.3139
ENERGY: 1200000 1.7155 13.7409 1.1429 0.0000 -10771.3908 1463.3619 0.0000 0.0000 1796.6170 -7494.8125 304.7182 -9291.4296 -7480.0629 302.3206 -209.6279 -72.7061 30734.1067 21.5429 73.8214
ENERGY: 1500000 2.9257 12.5472 1.1903 0.0000 -10752.8094 1480.0652 0.0000 0.0000 1759.9317 -7496.1493 298.4961 -9256.0810 -7479.8996 301.9430 276.4303 387.3151 30325.4580 35.2031 89.1035
TCL: Running FEP window  18: Lambda1 0.1499999999999997 Lambda2 0.09999999999999969 [dLambda -0.05 ]
TCL: Setting parameter firsttimestep to 0
TCL: Setting parameter alchLambda to 0.1499999999999997
Info: NONBONDED TABLE R-SQUARED SPACING: 0.0625
Info: NONBONDED TABLE SIZE: 705 POINTS
TCL: Setting parameter alchLambda2 to 0.09999999999999969
Info: NONBONDED TABLE R-SQUARED SPACING: 0.0625
Info: NONBONDED TABLE SIZE: 705 POINTS
TCL: Running for 1500000 steps
ETITLE: TS BOND ANGLE DIHED IMPRP ELECT VDW BOUNDARY MISC KINETIC TOTAL TEMP POTENTIAL TOTALAVG TEMPAVG PRESSURE GPRESSURE VOLUME PRESSAVG GPRESSAVG
ENERGY: 0 2.9257 12.5472 1.1903 0.0000 -10752.8111 1480.2730 0.0000 0.0000 1759.0751 -7496.7999 298.3508 -9255.8750 -7496.7999 298.3508 292.6888 383.4720 30325.4580 292.6888 383.4720
ENERGY: 300000 3.7266 12.7198 3.2192 0.0000 -10625.8677 1306.7761 0.0000 0.0000 1780.8750 -7518.5510 302.0482 -9299.4259 -7491.8856 299.9126 -1186.7527 -1199.6442 30553.4469 -454.4637 -398.4026
ENERGY: 600000 3.5070 8.0381 2.4708 0.0000 -10752.4323 1479.5101 0.0000 0.0000 1792.5602 -7466.3460 304.0301 -9258.9062 -7468.6766 302.5437 381.9369 469.6680 30011.8699 -126.1626 -62.9705
ENERGY: 900000 1.3788 6.8155 2.0568 0.0000 -10638.5152 1352.9870 0.0000 0.0000 1792.6936 -7482.5834 304.0527 -9275.2770 -7472.5440 303.7152 -782.5015 -774.1683 30666.0759 -154.5010 -100.0739
ENERGY: 1200000 1.3623 4.2620 0.8472 0.0000 -10694.6585 1436.2793 0.0000 0.0000 1753.8666 -7498.0409 297.4674 -9251.9076 -7473.2159 303.4389 -140.4969 -159.0531 30588.9813 -87.7588 -37.1369
ENERGY: 1500000 1.5811 7.4710 2.0571 0.0000 -10591.1861 1430.3132 0.0000 0.0000 1789.0379 -7360.7258 303.4327 -9149.7637 -7467.7439 303.3044 142.8143 139.4028 30750.0347 -73.7690 -26.6730
TCL: Running FEP window  19: Lambda1 0.09999999999999969 Lambda2 0.049999999999999684 [dLambda -0.05 ]
TCL: Setting parameter firsttimestep to 0
TCL: Setting parameter alchLambda to 0.09999999999999969
Info: NONBONDED TABLE R-SQUARED SPACING: 0.0625
Info: NONBONDED TABLE SIZE: 705 POINTS
TCL: Setting parameter alchLambda2 to 0.049999999999999684
Info: NONBONDED TABLE R-SQUARED SPACING: 0.0625
Info: NONBONDED TABLE SIZE: 705 POINTS
TCL: Running for 1500000 steps
ETITLE: TS BOND ANGLE DIHED IMPRP ELECT VDW BOUNDARY MISC KINETIC TOTAL TEMP POTENTIAL TOTALAVG TEMPAVG PRESSURE GPRESSURE VOLUME PRESSAVG GPRESSAVG
ENERGY: 0 1.5811 7.4710 2.0571 0.0000 -10591.1855 1430.3446 0.0000 0.0000 1788.1781 -7361.5535 303.2869 -9149.7317 -7361.5535 303.2869 61.3468 136.0903 30750.0347 61.3468 136.0903
ENERGY: 300000 6.0679 5.9549 1.2671 0.0000 -10756.3631 1406.9257 0.0000 0.0000 1750.4831 -7585.6644 296.8936 -9336.1475 -7476.6298 299.6221 -647.3037 -587.7460 30481.9479 -275.5632 -203.0272
ENERGY: 600000 2.2562 9.1569 1.7890 0.0000 -10767.6156 1461.0972 0.0000 0.0000 1745.5249 -7547.7914 296.0526 -9293.3163 -7487.4558 300.2315 91.6326 132.0532 30384.9701 -63.5126 13.9301
ENERGY: 900000 2.7561 5.6081 2.2512 0.0000 -10832.2675 1538.2043 0.0000 0.0000 1769.5214 -7513.9265 300.1226 -9283.4479 -7502.8998 299.2206 762.1554 691.2928 30192.6603 149.2571 222.4405
ENERGY: 1200000 2.8049 7.0901 2.2089 0.0000 -10667.0294 1415.8064 0.0000 0.0000 1826.3490 -7412.7701 309.7609 -9239.1191 -7488.9768 300.1996 -204.1266 -236.3879 30738.0157 71.7617 135.0303
ENERGY: 1500000 3.7134 3.4771 2.4331 0.0000 -10766.3657 1467.1081 0.0000 0.0000 1790.8564 -7498.7777 303.7411 -9289.6341 -7490.5441 300.5481 -165.0732 -144.8968 30979.6214 28.5908 94.6928
TCL: Running FEP window  20: Lambda1 0.049999999999999684 Lambda2 0.0    [dLambda -0.049999999999999684]
TCL: Setting parameter firsttimestep to 0
TCL: Setting parameter alchLambda to 0.049999999999999684
Info: NONBONDED TABLE R-SQUARED SPACING: 0.0625
Info: NONBONDED TABLE SIZE: 705 POINTS
TCL: Setting parameter alchLambda2 to 0.0
Info: NONBONDED TABLE R-SQUARED SPACING: 0.0625
Info: NONBONDED TABLE SIZE: 705 POINTS
TCL: Running for 1500000 steps
ETITLE: TS BOND ANGLE DIHED IMPRP ELECT VDW BOUNDARY MISC KINETIC TOTAL TEMP POTENTIAL TOTALAVG TEMPAVG PRESSURE GPRESSURE VOLUME PRESSAVG GPRESSAVG
ENERGY: 0 3.7134 3.4771 2.4331 0.0000 -10766.3661 1467.3257 0.0000 0.0000 1790.0002 -7499.4165 303.5959 -9289.4167 -7499.4165 303.5959 -225.7192 -146.0092 30979.6214 -225.7192 -146.0092
ENERGY: 300000 3.8434 7.3655 4.0366 0.0000 -10611.3233 1374.3095 0.0000 0.0000 1814.8321 -7406.9362 307.8076 -9221.7683 -7509.7814 304.1854 -629.6279 -548.6736 30630.9963 -544.5379 -477.3475
ENERGY: 600000 3.2413 11.9577 1.7437 0.0000 -10724.0241 1468.4707 0.0000 0.0000 1760.0620 -7478.5488 298.5182 -9238.6108 -7521.9177 300.9713 102.1617 280.8766 30305.1241 -372.0092 -288.6599
ENERGY: 900000 5.4907 5.4333 2.1675 0.0000 -10673.5328 1382.0342 0.0000 0.0000 1762.6832 -7515.7239 298.9628 -9278.4071 -7514.0237 299.9016 -613.4477 -597.4355 30400.1730 -413.6696 -338.4914
ENERGY: 1200000 2.0902 6.8071 0.9315 0.0000 -10773.0234 1488.0656 0.0000 0.0000 1803.3703 -7471.7586 305.8636 -9275.1290 -7506.9964 299.9176 383.6229 450.3972 30047.1294 -172.3948 -101.0352
ENERGY: 1500000 2.8502 13.9913 1.0458 0.0000 -10673.9893 1455.0412 0.0000 0.0000 1810.9219 -7390.1389 307.1444 -9201.0608 -7502.4764 300.2203 214.3018 263.7765 30106.1697 -169.3846 -100.9690
TCL: Exiting due to exit command.
