Info: SIMULATION PARAMETERS:
Info: TIMESTEP               2
Info: NUMBER OF STEPS        0
Info: STEPS PER CYCLE        10
Info: PERIODIC CELL BASIS 1  30.3664 0 0
Info: PERIODIC CELL BASIS 2  0 30.4135 0
Info: PERIODIC CELL BASIS 3  0 0 32.4757
Info: PERIODIC CELL CENTER   0 0 0
Info: WRAPPING WATERS AROUND PERIODIC BOUNDARIES ON OUTPUT.
Info: WRAPPING ALL CLUSTERS AROUND PERIODIC BOUNDARIES ON OUTPUT.
Info: FIRST LDB TIMESTEP     50
Info: LAST LDB TIMESTEP     -1
Info: HOM BACKGROUND SCALING 1
Info: PME BACKGROUND SCALING 1
Info: MIN ATOMS PER PATCH    40
Info: EMPTY PATCH LOAD       40 ATOMS
Info: VELOCITY FILE          mobley_859464_equil.vel
Info: CENTER OF MASS MOVING INITIALLY? NO
Info: DIELECTRIC             1
Info: EXCLUDE                SCALED ONE-FOUR
Info: 1-4 ELECTROSTATICS SCALED BY 0.833333
Info: MODIFIED 1-4 VDW PARAMETERS WILL BE USED
Info: DCD FILENAME           mobley_859464_prod.dcd
Info: DCD FREQUENCY          100000
Info: DCD FIRST STEP         100000
Info: DCD FILE WILL CONTAIN UNIT CELL DATA
Info: XST FILENAME           mobley_859464_prod.xst
Info: XST FREQUENCY          100000
Info: NO VELOCITY DCD OUTPUT
Info: NO FORCE DCD OUTPUT
Info: OUTPUT FILENAME        mobley_859464_prod
Info: BINARY OUTPUT FILES WILL BE USED
Info: RESTART FILENAME       mobley_859464_prod.restart
Info: RESTART FREQUENCY      100000
Info: BINARY RESTART FILES WILL BE USED
Info: CUTOFF                 9
Info: PAIRLIST DISTANCE      11
Info: PAIRLIST SHRINK RATE   0.01
Info: PAIRLIST GROW RATE     0.01
Info: PAIRLIST TRIGGER       0.3
Info: PAIRLISTS PER CYCLE    2
Info: PAIRLISTS ENABLED
Info: MARGIN                 2
Info: HYDROGEN GROUP CUTOFF  2.5
Info: PATCH DIMENSION        15.5
Info: ENERGY OUTPUT STEPS    100000
Info: ENERGY EVALUATION STEPS    100000
Info: OUTPUT ENERGY PRECISION 4
Info: CROSSTERM ENERGY INCLUDED IN DIHEDRAL
Info: TIMING OUTPUT STEPS    1000000
Info: PRESSURE OUTPUT STEPS  100000
Info: ALCHEMICAL FEP ON
Info: FEP CURRENT LAMBDA VALUE     1
Info: FEP COMPARISON LAMBDA VALUE  0.95
Info: FEP INTRA-ALCHEMICAL NON-BONDED INTERACTIONS WILL BE RETAINED
Info: FEP INTRA-ALCHEMICAL BONDED INTERACTIONS WILL BE RETAINED
Info: FEP VDW SHIFTING COEFFICIENT 5
Info: FEP ELEC. ACTIVE FOR ANNIHILATED PARTICLES BETWEEN LAMBDA = 0 AND LAMBDA = 0.5
Info: FEP ELEC. ACTIVE FOR EXNIHILATED PARTICLES BETWEEN LAMBDA = 0.5 AND LAMBDA = 1
Info: FEP VDW ACTIVE FOR ANNIHILATED PARTICLES BETWEEN LAMBDA = 0 AND LAMBDA = 1
Info: FEP VDW ACTIVE FOR EXNIHILATED PARTICLES BETWEEN LAMBDA = 0 AND LAMBDA = 1
Info: FEP BOND ACTIVE FOR ANNIHILATED PARTICLES BETWEEN LAMBDA = 1 AND LAMBDA = 1
Info: FEP BOND ACTIVE FOR EXNIHILATED PARTICLES BETWEEN LAMBDA = 0 AND LAMBDA = 0
Info: LANGEVIN DYNAMICS ACTIVE
Info: LANGEVIN TEMPERATURE   300
Info: LANGEVIN USING BBK INTEGRATOR
Info: LANGEVIN DAMPING COEFFICIENT IS 1 INVERSE PS
Info: LANGEVIN DYNAMICS APPLIED TO HYDROGENS
Info: LANGEVIN PISTON PRESSURE CONTROL ACTIVE
Info:        TARGET PRESSURE IS 1.01325 BAR
Info:     OSCILLATION PERIOD IS 50 FS
Info:             DECAY TIME IS 25 FS
Info:     PISTON TEMPERATURE IS 300 K
Info:       PRESSURE CONTROL IS GROUP-BASED
Info:    INITIAL STRAIN RATE IS 0.000350655 0.000350655 0.000350655
Info:       CELL FLUCTUATION IS ISOTROPIC
Info: PARTICLE MESH EWALD (PME) ACTIVE
Info: PME TOLERANCE               1e-06
Info: PME EWALD COEFFICIENT       0.348832
Info: PME INTERPOLATION ORDER     4
Info: PME GRID DIMENSIONS         32 32 36
Info: PME MAXIMUM GRID SPACING    1
Info: PME CALCULATION WILL BE PERFORMED ON GPU
Info: FULL ELECTROSTATIC EVALUATION FREQUENCY      2
Info: USING VERLET I (r-RESPA) MTS SCHEME.
Info: C1 SPLITTING OF LONG RANGE ELECTROSTATICS
Info: PLACING ATOMS IN PATCHES BY HYDROGEN GROUPS
Info: RIGID BONDS TO HYDROGEN : ALL
Info:         ERROR TOLERANCE : 1e-08
Info:          MAX ITERATIONS : 100
Info: RIGID WATER USING SETTLE ALGORITHM
Info: RANDOM NUMBER SEED     1743863341
Info: USE HYDROGEN BONDS?    NO
Info: Using AMBER format force field!
Info: AMBER PARM FILE        mobley_859464.prmtop
Info: COORDINATE PDB         mobley_859464.pdb
Info: Exclusions will be read from PARM file!
Info: SCNB (VDW SCALING)     2
Info: USING ARITHMETIC MEAN TO COMBINE L-J SIGMA PARAMETERS
Info: BINARY COORDINATES     mobley_859464_equil.coor
Info: SUMMARY OF PARAMETERS:
Info: 9 BONDS
Info: 12 ANGLES
Info:   12 HARMONIC
Info:   0 COSINE-BASED
Info: 17 DIHEDRAL
Info: 0 IMPROPER
Info: 0 CROSSTERM
Info: 0 VDW
Info: 36 VDW_PAIRS
Info: 0 NBTHOLE_PAIRS
Info: To read alchdata from file: mobley_859464.pdb
Info: To read alchflag data from column: 5
Info: STRUCTURE SUMMARY:
Info: 2912 ATOMS
Info: 2911 BONDS
Info: 34 ANGLES
Info: 50 DIHEDRALS
Info: 0 IMPROPERS
Info: 0 CROSSTERMS
Info: 2983 EXCLUSIONS
Info: 2904 RIGID BONDS
Info: ALCH: 0 ATOMS TO DISAPPEAR IN FINAL STATE
Info: ALCH: 20 ATOMS TO APPEAR IN FINAL STATE
Info: 5832 DEGREES OF FREEDOM
Info: 972 HYDROGEN GROUPS
Info: 4 ATOMS IN LARGEST HYDROGEN GROUP
Info: 972 MIGRATION GROUPS
Info: 4 ATOMS IN LARGEST MIGRATION GROUP
Info: TOTAL MASS = 17483.6 amu
Info: TOTAL CHARGE = -0.000500001 e
Info: MASS DENSITY = 0.967992 g/cm^3
Info: ATOM DENSITY = 0.0970898 atoms/A^3
Info: ADDED 0 IMPLICIT EXCLUSIONS
Info: NONBONDED TABLE R-SQUARED SPACING: 0.0625
Info: NONBONDED TABLE SIZE: 705 POINTS
Info: REMOVING COM VELOCITY -0.0629148 -0.145279 0.100881
Info: Use 3D box decompostion in PME FFT.
Info: Updated CUDA force table with 4096 elements.
Info: Updated CUDA LJ table with 8 x 8 elements.
Info: Found 23 unique exclusion lists needing 64 bytes
TCL: Running for 1500000 steps
ETITLE: TS BOND ANGLE DIHED IMPRP ELECT VDW BOUNDARY MISC KINETIC TOTAL TEMP POTENTIAL TOTALAVG TEMPAVG PRESSURE GPRESSURE VOLUME PRESSAVG GPRESSAVG
ENERGY: 0 3.6586 5.7916 5.3118 0.0000 -10516.2571 1355.7387 0.0000 0.0000 1712.7707 -7432.9857 295.5780 -9145.7564 -7432.9857 295.5780 -644.9330 -553.1410 29992.8617 -644.9330 -553.1410
ENERGY: 300000 1.0362 11.1685 5.8896 0.0000 -10505.9588 1406.9550 0.0000 0.0000 1754.3205 -7326.5889 302.7484 -9080.9094 -7375.8159 299.0602 -7.6650 57.3621 30144.1360 -189.2757 -124.0702
ENERGY: 600000 1.8350 8.7949 4.7247 0.0000 -10489.5422 1377.0885 0.0000 0.0000 1706.1601 -7390.9389 294.4372 -9097.0990 -7382.1674 300.2973 -78.2856 -38.8180 30006.2583 -29.8544 25.4335
ENERGY: 900000 1.5013 6.5746 5.9443 0.0000 -10632.8701 1471.9114 0.0000 0.0000 1757.9809 -7388.9576 303.3801 -9146.9385 -7375.9764 301.2299 362.9203 477.5069 30079.7526 7.3270 56.0998
ENERGY: 1200000 2.3280 8.9540 4.9894 0.0000 -10530.7537 1426.6131 0.0000 0.0000 1774.1729 -7313.6964 306.1744 -9087.8693 -7387.5242 300.6494 243.2976 278.6417 30052.6004 -58.2526 -7.0196
ENERGY: 1500000 1.9088 9.7001 8.7650 0.0000 -10524.8298 1366.6196 0.0000 0.0000 1712.3219 -7425.5144 295.5005 -9137.8363 -7395.6388 299.6422 -228.9264 -186.5523 29647.9188 -24.0711 20.8638
TCL: Running FEP window   2: Lambda1 0.95   Lambda2 0.8999999999999999 [dLambda -0.050000000000000044]
TCL: Setting parameter firsttimestep to 0
TCL: Setting parameter alchLambda to 0.95
Info: NONBONDED TABLE R-SQUARED SPACING: 0.0625
Info: NONBONDED TABLE SIZE: 705 POINTS
TCL: Setting parameter alchLambda2 to 0.8999999999999999
Info: NONBONDED TABLE R-SQUARED SPACING: 0.0625
Info: NONBONDED TABLE SIZE: 705 POINTS
TCL: Running for 1500000 steps
ETITLE: TS BOND ANGLE DIHED IMPRP ELECT VDW BOUNDARY MISC KINETIC TOTAL TEMP POTENTIAL TOTALAVG TEMPAVG PRESSURE GPRESSURE VOLUME PRESSAVG GPRESSAVG
ENERGY: 0 1.9088 9.7001 8.7650 0.0000 -10523.7378 1366.8530 0.0000 0.0000 1711.4718 -7425.0392 295.3538 -9136.5110 -7425.0392 295.3538 -280.4015 -196.9997 29647.9188 -280.4015 -196.9997
ENERGY: 300000 0.5649 8.3037 6.4706 0.0000 -10461.8094 1333.3404 0.0000 0.0000 1804.3667 -7308.7630 311.3850 -9113.1297 -7396.9889 299.7945 -606.9055 -570.2062 30525.3694 -357.3398 -305.8820
ENERGY: 600000 1.1691 12.8681 6.1788 0.0000 -10477.4364 1407.4136 0.0000 0.0000 1765.6054 -7284.2014 304.6958 -9049.8068 -7369.5232 300.8800 -25.1945 86.1223 30468.7862 -245.7152 -183.7663
ENERGY: 900000 3.2649 15.1208 6.6257 0.0000 -10444.8845 1308.0196 0.0000 0.0000 1662.8961 -7448.9575 286.9710 -9111.8536 -7384.8933 299.1920 -1227.7491 -1151.3666 30423.6296 -258.5136 -190.8610
ENERGY: 1200000 2.7528 7.9263 6.3906 0.0000 -10511.6802 1343.4842 0.0000 0.0000 1760.9808 -7390.1455 303.8978 -9151.1263 -7379.9224 301.1406 -625.2165 -555.4770 30182.8642 -331.8482 -263.6958
ENERGY: 1500000 1.7986 8.0843 4.6960 0.0000 -10437.7951 1346.3749 0.0000 0.0000 1757.5307 -7319.3105 303.3024 -9076.8412 -7373.8257 301.4515 -532.2504 -444.3106 30016.2701 -246.6633 -180.0035
TCL: Running FEP window   3: Lambda1 0.8999999999999999 Lambda2 0.8499999999999999 [dLambda -0.050000000000000044]
TCL: Setting parameter firsttimestep to 0
TCL: Setting parameter alchLambda to 0.8999999999999999
Info: NONBONDED TABLE R-SQUARED SPACING: 0.0625
Info: NONBONDED TABLE SIZE: 705 POINTS
TCL: Setting parameter alchLambda2 to 0.8499999999999999
Info: NONBONDED TABLE R-SQUARED SPACING: 0.0625
Info: NONBONDED TABLE SIZE: 705 POINTS
TCL: Running for 1500000 steps
ETITLE: TS BOND ANGLE DIHED IMPRP ELECT VDW BOUNDARY MISC KINETIC TOTAL TEMP POTENTIAL TOTALAVG TEMPAVG PRESSURE GPRESSURE VOLUME PRESSAVG GPRESSAVG
ENERGY: 0 1.7986 8.0843 4.6960 0.0000 -10436.9188 1346.9677 0.0000 0.0000 1756.6201 -7318.7521 303.1452 -9075.3722 -7318.7521 303.1452 -535.6649 -452.1181 30016.2701 -535.6649 -452.1181
ENERGY: 300000 2.3582 5.5206 5.9011 0.0000 -10508.7492 1409.7248 0.0000 0.0000 1764.0648 -7321.1796 304.4300 -9085.2444 -7355.9919 301.8608 34.7958 105.2406 29875.3214 -243.1646 -174.2596
ENERGY: 600000 0.7314 10.4707 5.2515 0.0000 -10625.7764 1483.6257 0.0000 0.0000 1718.0243 -7407.6727 296.4846 -9125.6970 -7365.2477 300.4581 571.8185 653.3359 30048.7554 44.0205 116.7071
ENERGY: 900000 2.0283 8.1612 5.5358 0.0000 -10548.2363 1442.3874 0.0000 0.0000 1754.9721 -7335.1516 302.8608 -9090.1236 -7361.8515 301.0916 297.4478 452.8082 30067.0920 32.6285 108.4026
ENERGY: 1200000 4.0943 7.9017 5.8596 0.0000 -10460.8457 1335.1168 0.0000 0.0000 1719.6484 -7388.2249 296.7649 -9107.8733 -7373.3322 300.8334 -665.4968 -636.1386 30035.9067 -107.4630 -37.6469
ENERGY: 1500000 2.2487 7.4228 5.6641 0.0000 -10416.3552 1341.2910 0.0000 0.0000 1739.6171 -7320.1115 300.2110 -9059.7286 -7381.0389 300.0165 -545.0190 -491.4129 30787.9135 -107.7575 -41.5446
TCL: Running FEP window   4: Lambda1 0.8499999999999999 Lambda2 0.7999999999999998 [dLambda -0.050000000000000044]
TCL: Setting parameter firsttimestep to 0
TCL: Setting parameter alchLambda to 0.8499999999999999
Info: NONBONDED TABLE R-SQUARED SPACING: 0.0625
Info: NONBONDED TABLE SIZE: 705 POINTS
TCL: Setting parameter alchLambda2 to 0.7999999999999998
Info: NONBONDED TABLE R-SQUARED SPACING: 0.0625
Info: NONBONDED TABLE SIZE: 705 POINTS
TCL: Running for 1500000 steps
ETITLE: TS BOND ANGLE DIHED IMPRP ELECT VDW BOUNDARY MISC KINETIC TOTAL TEMP POTENTIAL TOTALAVG TEMPAVG PRESSURE GPRESSURE VOLUME PRESSAVG GPRESSAVG
ENERGY: 0 2.2487 7.4228 5.6641 0.0000 -10415.4742 1341.0754 0.0000 0.0000 1738.7265 -7320.3367 300.0573 -9059.0632 -7320.3367 300.0573 -589.8818 -501.5833 30787.9135 -589.8818 -501.5833
ENERGY: 300000 1.0245 6.6485 6.0867 0.0000 -10576.9007 1440.1313 0.0000 0.0000 1713.2508 -7409.7589 295.6608 -9123.0096 -7335.0537 299.4660 139.6596 257.3966 29757.6112 -150.0424 -89.4796
ENERGY: 600000 3.3977 6.0678 6.4974 0.0000 -10653.0551 1454.2015 0.0000 0.0000 1726.0461 -7456.8446 297.8690 -9182.8907 -7349.3730 299.3343 18.1131 30.1189 30283.7965 -147.4557 -88.6190
ENERGY: 900000 1.5976 6.5665 4.8599 0.0000 -10441.6462 1300.1674 0.0000 0.0000 1715.7657 -7412.6891 296.0949 -9128.4549 -7355.2372 299.4829 -1037.5959 -951.8020 30060.2787 -192.6419 -134.0164
ENERGY: 1200000 2.2804 6.8133 6.1115 0.0000 -10512.4236 1408.0436 0.0000 0.0000 1784.3261 -7304.8487 307.9265 -9089.1748 -7347.2720 300.6020 136.2991 198.1332 30028.3782 -156.9936 -96.7909
ENERGY: 1500000 2.3125 12.7210 5.6965 0.0000 -10522.1404 1380.0774 0.0000 0.0000 1723.8268 -7397.5063 297.4860 -9121.3331 -7353.3736 300.3257 -265.2921 -218.7923 30087.5323 -107.1174 -49.7249
TCL: Running FEP window   5: Lambda1 0.7999999999999998 Lambda2 0.7499999999999998 [dLambda -0.050000000000000044]
TCL: Setting parameter firsttimestep to 0
TCL: Setting parameter alchLambda to 0.7999999999999998
Info: NONBONDED TABLE R-SQUARED SPACING: 0.0625
Info: NONBONDED TABLE SIZE: 705 POINTS
TCL: Setting parameter alchLambda2 to 0.7499999999999998
Info: NONBONDED TABLE R-SQUARED SPACING: 0.0625
Info: NONBONDED TABLE SIZE: 705 POINTS
TCL: Running for 1500000 steps
ETITLE: TS BOND ANGLE DIHED IMPRP ELECT VDW BOUNDARY MISC KINETIC TOTAL TEMP POTENTIAL TOTALAVG TEMPAVG PRESSURE GPRESSURE VOLUME PRESSAVG GPRESSAVG
ENERGY: 0 2.3125 12.7210 5.6965 0.0000 -10521.1869 1380.5980 0.0000 0.0000 1722.9319 -7396.9270 297.3315 -9119.8589 -7396.9270 297.3315 -306.1583 -222.9902 30087.5323 -306.1583 -222.9902
ENERGY: 300000 2.7794 7.5809 6.7066 0.0000 -10690.9007 1472.2516 0.0000 0.0000 1788.8122 -7412.7700 308.7007 -9201.5822 -7379.2247 303.6945 295.3605 297.2674 29761.0651 342.8364 363.3286
ENERGY: 600000 0.7226 7.3891 6.4568 0.0000 -10406.6430 1321.2451 0.0000 0.0000 1744.1042 -7326.7252 300.9853 -9070.8294 -7357.1764 305.4060 -620.6197 -509.3234 29825.4944 7.0110 50.8276
ENERGY: 900000 2.0759 8.1858 5.7776 0.0000 -10474.6755 1333.8260 0.0000 0.0000 1659.7261 -7465.0841 286.4239 -9124.8102 -7374.5115 302.4139 -463.5984 -423.4350 29748.4692 -46.9382 -0.8536
ENERGY: 1200000 1.5603 10.8361 6.6344 0.0000 -10488.1044 1403.0735 0.0000 0.0000 1692.6202 -7373.3800 292.1006 -9066.0001 -7370.9788 301.7769 -28.3796 39.5768 29927.8072 -200.8630 -151.7041
ENERGY: 1500000 1.8070 7.4776 5.2662 0.0000 -10490.6742 1406.1594 0.0000 0.0000 1757.9349 -7312.0291 303.3721 -9069.9640 -7370.7711 300.9621 -2.0780 112.6947 29977.7164 -125.8344 -73.6197
TCL: Running FEP window   6: Lambda1 0.7499999999999998 Lambda2 0.6999999999999997 [dLambda -0.050000000000000044]
TCL: Setting parameter firsttimestep to 0
TCL: Setting parameter alchLambda to 0.7499999999999998
Info: NONBONDED TABLE R-SQUARED SPACING: 0.0625
Info: NONBONDED TABLE SIZE: 705 POINTS
TCL: Setting parameter alchLambda2 to 0.6999999999999997
Info: NONBONDED TABLE R-SQUARED SPACING: 0.0625
Info: NONBONDED TABLE SIZE: 705 POINTS
TCL: Running for 1500000 steps
ETITLE: TS BOND ANGLE DIHED IMPRP ELECT VDW BOUNDARY MISC KINETIC TOTAL TEMP POTENTIAL TOTALAVG TEMPAVG PRESSURE GPRESSURE VOLUME PRESSAVG GPRESSAVG
ENERGY: 0 1.8070 7.4776 5.2662 0.0000 -10489.8930 1406.2800 0.0000 0.0000 1757.0595 -7312.0026 303.2210 -9069.0621 -7312.0026 303.2210 20.6796 103.9128 29977.7164 20.6796 103.9128
ENERGY: 300000 4.7160 8.7470 6.8989 0.0000 -10535.6145 1393.3482 0.0000 0.0000 1774.6763 -7347.2280 306.2612 -9121.9043 -7371.6279 301.4221 -393.5163 -308.5916 30181.2988 -444.3612 -358.9760
ENERGY: 600000 2.7074 8.3027 6.6676 0.0000 -10545.0984 1462.9681 0.0000 0.0000 1739.4680 -7324.9847 300.1852 -9064.4527 -7379.0841 300.0815 234.8837 354.1328 30252.0957 -140.3262 -48.1666
ENERGY: 900000 1.6614 7.8213 6.0542 0.0000 -10606.5883 1498.8969 0.0000 0.0000 1731.6009 -7360.5536 298.8276 -9092.1545 -7379.2739 299.7411 625.0563 632.7422 30180.4993 0.7641 79.6377
ENERGY: 1200000 3.2713 8.6298 5.1430 0.0000 -10447.7163 1408.7380 0.0000 0.0000 1677.4617 -7344.4725 289.4846 -9021.9342 -7376.5131 299.1103 -6.4774 151.2835 30143.3192 11.8786 90.3744
ENERGY: 1500000 2.7019 11.4717 5.4144 0.0000 -10646.7324 1491.4659 0.0000 0.0000 1709.7011 -7425.9775 295.0483 -9135.6786 -7387.9119 298.5072 873.1966 842.0846 29647.4100 75.3509 142.3901
TCL: Running FEP window   7: Lambda1 0.6999999999999997 Lambda2 0.6499999999999997 [dLambda -0.050000000000000044]
TCL: Setting parameter firsttimestep to 0
TCL: Setting parameter alchLambda to 0.6999999999999997
Info: NONBONDED TABLE R-SQUARED SPACING: 0.0625
Info: NONBONDED TABLE SIZE: 705 POINTS
TCL: Setting parameter alchLambda2 to 0.6499999999999997
Info: NONBONDED TABLE R-SQUARED SPACING: 0.0625
Info: NONBONDED TABLE SIZE: 705 POINTS
TCL: Running for 1500000 steps
ETITLE: TS BOND ANGLE DIHED IMPRP ELECT VDW BOUNDARY MISC KINETIC TOTAL TEMP POTENTIAL TOTALAVG TEMPAVG PRESSURE GPRESSURE VOLUME PRESSAVG GPRESSAVG
ENERGY: 0 2.7019 11.4717 5.4144 0.0000 -10646.0088 1491.6307 0.0000 0.0000 1708.8239 -7425.9663 294.8969 -9134.7902 -7425.9663 294.8969 774.5243 835.4395 29647.4100 774.5243 835.4395
ENERGY: 300000 1.7120 9.8126 5.8439 0.0000 -10610.6951 1439.7600 0.0000 0.0000 1740.4885 -7413.0782 300.3613 -9153.5667 -7414.4007 299.2871 82.6994 162.1223 29923.0813 121.6516 181.7517
ENERGY: 600000 2.5185 11.3761 5.5103 0.0000 -10635.7606 1468.9577 0.0000 0.0000 1771.4996 -7375.8982 305.7130 -9147.3979 -7395.9170 300.3117 331.0912 390.2408 29754.8791 34.4537 71.4501
ENERGY: 900000 2.4736 5.4743 5.6389 0.0000 -10709.1280 1559.5309 0.0000 0.0000 1709.7881 -7426.2220 295.0633 -9136.0102 -7396.3635 301.2214 893.7410 951.7574 30196.0606 112.4345 160.3114
ENERGY: 1200000 2.2032 9.6868 6.2480 0.0000 -10442.6624 1352.4795 0.0000 0.0000 1743.3641 -7328.6808 300.8576 -9072.0449 -7391.3886 300.6235 -368.5505 -254.6898 30111.9631 13.3342 73.9363
ENERGY: 1500000 4.1955 8.4404 5.2911 0.0000 -10485.9918 1358.2609 0.0000 0.0000 1771.5871 -7338.2167 305.7281 -9109.8039 -7385.0815 300.7541 -287.1737 -275.4061 29965.3309 -10.8683 47.0254
TCL: Running FEP window   8: Lambda1 0.6499999999999997 Lambda2 0.5999999999999996 [dLambda -0.050000000000000044]
TCL: Setting parameter firsttimestep to 0
TCL: Setting parameter alchLambda to 0.6499999999999997
Info: NONBONDED TABLE R-SQUARED SPACING: 0.0625
Info: NONBONDED TABLE SIZE: 705 POINTS
TCL: Setting parameter alchLambda2 to 0.5999999999999996
Info: NONBONDED TABLE R-SQUARED SPACING: 0.0625
Info: NONBONDED TABLE SIZE: 705 POINTS
TCL: Running for 1500000 steps
ETITLE: TS BOND ANGLE DIHED IMPRP ELECT VDW BOUNDARY MISC KINETIC TOTAL TEMP POTENTIAL TOTALAVG TEMPAVG PRESSURE GPRESSURE VOLUME PRESSAVG GPRESSAVG
ENERGY: 0 4.1955 8.4404 5.2911 0.0000 -10484.7348 1358.0156 0.0000 0.0000 1770.7326 -7338.0596 305.5807 -9108.7922 -7338.0596 305.5807 -361.7923 -282.6811 29965.3309 -361.7923 -282.6811
ENERGY: 300000 3.1947 11.5004 5.3877 0.0000 -10411.5000 1313.9584 0.0000 0.0000 1753.5071 -7323.9518 302.6080 -9077.4588 -7348.7398 302.1872 -760.1821 -719.2311 30066.3471 -520.8270 -452.9724
ENERGY: 600000 1.9019 9.9166 7.8272 0.0000 -10371.5655 1374.4044 0.0000 0.0000 1741.0188 -7236.4965 300.4529 -8977.5153 -7337.6296 302.0968 211.1740 250.9049 29699.4081 -182.8926 -126.5985
ENERGY: 900000 1.7698 14.0238 7.9536 0.0000 -10486.8253 1342.1681 0.0000 0.0000 1707.7639 -7413.1462 294.7140 -9120.9101 -7342.5998 302.4594 -1015.1350 -953.4040 30476.8274 -261.5372 -211.8798
ENERGY: 1200000 0.9175 8.1975 6.4991 0.0000 -10492.2854 1453.1882 0.0000 0.0000 1738.1484 -7285.3347 299.9575 -9023.4831 -7347.4862 301.0693 384.1791 437.9808 30349.5863 -78.6234 -29.1919
ENERGY: 1500000 0.7111 8.1606 6.0372 0.0000 -10566.1519 1466.3453 0.0000 0.0000 1724.9766 -7359.9211 297.6844 -9084.8977 -7356.2899 300.1353 663.3965 678.1706 29809.6013 6.1596 51.3070
TCL: Running FEP window   9: Lambda1 0.5999999999999996 Lambda2 0.5499999999999996 [dLambda -0.050000000000000044]
TCL: Setting parameter firsttimestep to 0
TCL: Setting parameter alchLambda to 0.5999999999999996
Info: NONBONDED TABLE R-SQUARED SPACING: 0.0625
Info: NONBONDED TABLE SIZE: 705 POINTS
TCL: Setting parameter alchLambda2 to 0.5499999999999996
Info: NONBONDED TABLE R-SQUARED SPACING: 0.0625
Info: NONBONDED TABLE SIZE: 705 POINTS
TCL: Running for 1500000 steps
ETITLE: TS BOND ANGLE DIHED IMPRP ELECT VDW BOUNDARY MISC KINETIC TOTAL TEMP POTENTIAL TOTALAVG TEMPAVG PRESSURE GPRESSURE VOLUME PRESSAVG GPRESSAVG
ENERGY: 0 0.7111 8.1606 6.0372 0.0000 -10565.9117 1466.5518 0.0000 0.0000 1724.1419 -7360.3091 297.5404 -9084.4510 -7360.3091 297.5404 596.8520 672.5542 29809.6013 596.8520 672.5542
ENERGY: 300000 4.1871 10.9813 6.7536 0.0000 -10544.4931 1424.2953 0.0000 0.0000 1710.8123 -7387.4636 295.2400 -9098.2758 -7394.3198 299.6064 148.2750 203.2405 29886.2510 22.2161 94.8182
ENERGY: 600000 2.6077 7.6761 5.8326 0.0000 -10457.6631 1340.0025 0.0000 0.0000 1704.8438 -7396.7003 294.2100 -9101.5441 -7381.2453 299.2116 -794.2864 -752.8033 30491.8687 -152.8318 -94.4431
ENERGY: 900000 2.3643 9.3732 7.4835 0.0000 -10609.0450 1457.1123 0.0000 0.0000 1756.4747 -7376.2371 303.1201 -9132.7118 -7392.8192 297.9881 173.6077 286.7414 30038.4006 -32.5252 27.1908
ENERGY: 1200000 3.8359 9.0649 4.6358 0.0000 -10505.7421 1377.7486 0.0000 0.0000 1750.7745 -7359.6823 302.1364 -9110.4568 -7395.1102 298.1181 -375.8125 -374.9250 30038.1773 -9.3018 47.4809
ENERGY: 1500000 1.6429 10.5570 6.5845 0.0000 -10497.6005 1403.1701 0.0000 0.0000 1769.1355 -7306.5105 305.3050 -9075.6460 -7388.7724 299.1890 233.9603 309.6283 29867.7087 5.4442 60.5523
TCL: Running FEP window  10: Lambda1 0.5499999999999996 Lambda2 0.4999999999999996 [dLambda -0.04999999999999999]
TCL: Setting parameter firsttimestep to 0
TCL: Setting parameter alchLambda to 0.5499999999999996
Info: NONBONDED TABLE R-SQUARED SPACING: 0.0625
Info: NONBONDED TABLE SIZE: 705 POINTS
TCL: Setting parameter alchLambda2 to 0.4999999999999996
Info: NONBONDED TABLE R-SQUARED SPACING: 0.0625
Info: NONBONDED TABLE SIZE: 705 POINTS
TCL: Running for 1500000 steps
ETITLE: TS BOND ANGLE DIHED IMPRP ELECT VDW BOUNDARY MISC KINETIC TOTAL TEMP POTENTIAL TOTALAVG TEMPAVG PRESSURE GPRESSURE VOLUME PRESSAVG GPRESSAVG
ENERGY: 0 1.6429 10.5570 6.5845 0.0000 -10496.4979 1403.5890 0.0000 0.0000 1768.2759 -7305.8486 305.1567 -9074.1245 -7305.8486 305.1567 232.5535 310.1680 29867.7087 232.5535 310.1680
ENERGY: 300000 3.2650 7.8999 5.5145 0.0000 -10718.8745 1471.2256 0.0000 0.0000 1755.6963 -7475.2732 302.9858 -9230.9696 -7359.3398 303.6150 -152.1472 -25.7649 29876.3427 69.1460 145.0175
ENERGY: 600000 2.3800 5.9135 5.4046 0.0000 -10552.0258 1372.8544 0.0000 0.0000 1679.1422 -7486.3312 289.7746 -9165.4734 -7411.3064 299.6660 -804.7433 -731.3995 30178.4643 -218.4958 -146.3270
ENERGY: 900000 3.5138 8.7419 5.0152 0.0000 -10414.4663 1331.9002 0.0000 0.0000 1747.4482 -7317.8470 301.5624 -9065.2952 -7398.2645 299.0709 -428.8030 -436.4576 29787.2605 -184.4477 -126.4946
ENERGY: 1200000 1.1566 10.0242 5.8155 0.0000 -10659.1545 1417.7219 0.0000 0.0000 1748.2176 -7476.2187 301.6952 -9224.4363 -7397.0444 300.0133 -96.4665 -37.0239 29538.2105 -78.8894 -19.4183
ENERGY: 1500000 2.4245 6.9899 6.7002 0.0000 -10628.0810 1447.2032 0.0000 0.0000 1769.7372 -7395.0259 305.4089 -9164.7631 -7393.8324 300.3199 -100.9650 -94.8040 30265.7847 -98.0535 -43.4128
TCL: Running FEP window  11: Lambda1 0.4999999999999996 Lambda2 0.4499999999999996 [dLambda -0.04999999999999999]
TCL: Setting parameter firsttimestep to 0
TCL: Setting parameter alchLambda to 0.4999999999999996
Info: NONBONDED TABLE R-SQUARED SPACING: 0.0625
Info: NONBONDED TABLE SIZE: 705 POINTS
TCL: Setting parameter alchLambda2 to 0.4499999999999996
Info: NONBONDED TABLE R-SQUARED SPACING: 0.0625
Info: NONBONDED TABLE SIZE: 705 POINTS
TCL: Running for 1500000 steps
ETITLE: TS BOND ANGLE DIHED IMPRP ELECT VDW BOUNDARY MISC KINETIC TOTAL TEMP POTENTIAL TOTALAVG TEMPAVG PRESSURE GPRESSURE VOLUME PRESSAVG GPRESSAVG
ENERGY: 0 2.4245 6.9898 6.7002 0.0000 -10628.3811 1447.0493 0.0000 0.0000 1768.8530 -7396.3641 305.2563 -9165.2172 -7396.3641 305.2563 -180.4723 -100.1421 30265.7847 -180.4723 -100.1421
ENERGY: 300000 2.0907 6.2339 5.9041 0.0000 -10449.5073 1313.9767 0.0000 0.0000 1798.7592 -7322.5427 310.4173 -9121.3019 -7375.9743 305.3256 -600.6667 -566.8616 29740.8284 -145.7167 -103.1949
ENERGY: 600000 3.2079 6.7144 6.6021 0.0000 -10494.5558 1428.6397 0.0000 0.0000 1740.0367 -7309.3549 300.2834 -9049.3916 -7360.0526 304.3075 244.1054 287.1261 29985.1848 -47.3989 3.7491
ENERGY: 900000 2.1871 11.9522 6.5055 0.0000 -10538.0330 1465.8447 0.0000 0.0000 1736.8536 -7314.6898 299.7341 -9051.5435 -7358.7782 302.5842 596.5921 632.0458 29982.7149 -36.2084 24.3614
ENERGY: 1200000 0.5185 8.8145 5.6789 0.0000 -10602.1273 1505.2359 0.0000 0.0000 1706.7936 -7375.0859 294.5465 -9081.8795 -7356.2752 302.3417 918.0944 943.5088 29777.9406 -50.7171 1.9918
ENERGY: 1500000 2.8535 9.6338 6.2274 0.0000 -10540.5023 1403.5845 0.0000 0.0000 1720.3059 -7397.8972 296.8784 -9118.2031 -7363.0909 301.8058 -280.4034 -190.5613 30255.9237 -50.1871 4.2689
TCL: Running FEP window  12: Lambda1 0.4499999999999996 Lambda2 0.39999999999999963 [dLambda -0.04999999999999999]
TCL: Setting parameter firsttimestep to 0
TCL: Setting parameter alchLambda to 0.4499999999999996
Info: NONBONDED TABLE R-SQUARED SPACING: 0.0625
Info: NONBONDED TABLE SIZE: 705 POINTS
TCL: Setting parameter alchLambda2 to 0.39999999999999963
Info: NONBONDED TABLE R-SQUARED SPACING: 0.0625
Info: NONBONDED TABLE SIZE: 705 POINTS
TCL: Running for 1500000 steps
ETITLE: TS BOND ANGLE DIHED IMPRP ELECT VDW BOUNDARY MISC KINETIC TOTAL TEMP POTENTIAL TOTALAVG TEMPAVG PRESSURE GPRESSURE VOLUME PRESSAVG GPRESSAVG
ENERGY: 0 2.8535 9.6338 6.2274 0.0000 -10540.5022 1403.8975 0.0000 0.0000 1719.4354 -7398.4547 296.7281 -9117.8900 -7398.4547 296.7281 -289.2197 -196.4075 30255.9237 -289.2197 -196.4075
ENERGY: 300000 1.2672 11.6872 6.2818 0.0000 -10710.4334 1491.0814 0.0000 0.0000 1754.3486 -7445.7671 302.7532 -9200.1158 -7410.7164 299.6501 660.7068 655.7826 29307.6796 281.4821 328.2425
ENERGY: 600000 2.4454 9.2526 6.2375 0.0000 -10461.5052 1410.7449 0.0000 0.0000 1738.9092 -7293.9155 300.0888 -9032.8247 -7396.4039 301.0336 199.5700 231.3643 29646.7198 209.0471 260.6366
ENERGY: 900000 0.6549 14.4755 6.1163 0.0000 -10563.7191 1457.0456 0.0000 0.0000 1704.6710 -7380.7558 294.1802 -9085.4268 -7393.2979 300.2307 153.6643 138.1298 30383.3355 249.2530 293.5835
ENERGY: 1200000 1.9233 8.6826 6.5197 0.0000 -10616.0757 1449.3620 0.0000 0.0000 1707.7031 -7441.8851 294.7035 -9149.5881 -7399.8586 299.5600 250.1256 296.8762 29601.8232 186.9451 232.6951
ENERGY: 1500000 1.2278 7.9222 6.1593 0.0000 -10460.8376 1337.6531 0.0000 0.0000 1762.2672 -7345.6078 304.1198 -9107.8750 -7385.9457 299.7772 -398.4193 -362.7140 29709.7207 143.7224 195.1368
TCL: Running FEP window  13: Lambda1 0.39999999999999963 Lambda2 0.34999999999999964 [dLambda -0.04999999999999999]
TCL: Setting parameter firsttimestep to 0
TCL: Setting parameter alchLambda to 0.39999999999999963
Info: NONBONDED TABLE R-SQUARED SPACING: 0.0625
Info: NONBONDED TABLE SIZE: 705 POINTS
TCL: Setting parameter alchLambda2 to 0.34999999999999964
Info: NONBONDED TABLE R-SQUARED SPACING: 0.0625
Info: NONBONDED TABLE SIZE: 705 POINTS
TCL: Running for 1500000 steps
ETITLE: TS BOND ANGLE DIHED IMPRP ELECT VDW BOUNDARY MISC KINETIC TOTAL TEMP POTENTIAL TOTALAVG TEMPAVG PRESSURE GPRESSURE VOLUME PRESSAVG GPRESSAVG
ENERGY: 0 1.2278 7.9222 6.1593 0.0000 -10460.8384 1338.1340 0.0000 0.0000 1761.4249 -7345.9702 303.9744 -9107.3951 -7345.9702 303.9744 -449.8073 -367.3941 29709.7207 -449.8073 -367.3941
ENERGY: 300000 1.9739 8.6632 7.4620 0.0000 -10621.5705 1482.9724 0.0000 0.0000 1732.3353 -7388.1637 298.9543 -9120.4990 -7357.5977 299.2481 759.9564 729.3555 29783.8682 197.7534 234.2878
ENERGY: 600000 2.0125 13.6048 5.6675 0.0000 -10560.4999 1391.2653 0.0000 0.0000 1773.4357 -7374.5142 306.0471 -9147.9499 -7362.4700 302.3709 -296.0846 -221.3616 29938.4320 36.3047 93.8114
ENERGY: 900000 4.2703 7.2823 5.7803 0.0000 -10623.1131 1492.1569 0.0000 0.0000 1713.3824 -7400.2407 295.6836 -9113.6231 -7374.6443 300.5061 475.5416 585.6902 30033.6831 49.3527 116.9499
ENERGY: 1200000 3.9857 7.7344 5.4511 0.0000 -10734.2411 1495.2140 0.0000 0.0000 1753.1804 -7468.6755 302.5516 -9221.8559 -7378.4452 301.5751 604.6627 661.7693 29290.7794 83.1479 152.4615
ENERGY: 1500000 1.7412 9.1481 9.6789 0.0000 -10391.1834 1335.0928 0.0000 0.0000 1703.5749 -7331.9476 293.9910 -9035.5225 -7376.4230 301.2845 -572.2894 -490.9525 30250.7197 17.3835 88.4212
TCL: Running FEP window  14: Lambda1 0.34999999999999964 Lambda2 0.29999999999999966 [dLambda -0.04999999999999999]
TCL: Setting parameter firsttimestep to 0
TCL: Setting parameter alchLambda to 0.34999999999999964
Info: NONBONDED TABLE R-SQUARED SPACING: 0.0625
Info: NONBONDED TABLE SIZE: 705 POINTS
TCL: Setting parameter alchLambda2 to 0.29999999999999966
Info: NONBONDED TABLE R-SQUARED SPACING: 0.0625
Info: NONBONDED TABLE SIZE: 705 POINTS
TCL: Running for 1500000 steps
ETITLE: TS BOND ANGLE DIHED IMPRP ELECT VDW BOUNDARY MISC KINETIC TOTAL TEMP POTENTIAL TOTALAVG TEMPAVG PRESSURE GPRESSURE VOLUME PRESSAVG GPRESSAVG
ENERGY: 0 1.7412 9.1481 9.6789 0.0000 -10391.1806 1335.4036 0.0000 0.0000 1702.7539 -7332.4550 293.8494 -9035.2089 -7332.4550 293.8494 -592.1395 -497.3305 30250.7197 -592.1395 -497.3305
ENERGY: 300000 2.5898 10.7323 5.4716 0.0000 -10614.5512 1412.1019 0.0000 0.0000 1728.4667 -7455.1889 298.2867 -9183.6556 -7386.1903 296.7669 -223.2366 -134.9448 29694.6238 -292.3694 -217.4356
ENERGY: 600000 3.9366 8.0670 5.8862 0.0000 -10476.7967 1369.3598 0.0000 0.0000 1803.8135 -7285.7336 311.2895 -9089.5470 -7375.2759 300.3344 -394.2636 -309.0081 30267.1799 -466.7527 -391.8854
ENERGY: 900000 3.3525 8.5053 8.5601 0.0000 -10480.5005 1382.1794 0.0000 0.0000 1740.1349 -7337.7683 300.3003 -9077.9032 -7381.4877 300.7827 -205.4526 -225.1034 30216.3857 -224.6852 -161.6357
ENERGY: 1200000 1.3366 10.2837 5.9318 0.0000 -10594.1079 1426.6761 0.0000 0.0000 1763.1992 -7386.6805 304.2806 -9149.8798 -7392.2713 300.9830 -232.4108 -155.1851 29887.3800 -134.1219 -74.8442
ENERGY: 1500000 3.9251 10.6564 4.6478 0.0000 -10614.6476 1475.5890 0.0000 0.0000 1771.1059 -7348.7234 305.6451 -9119.8293 -7382.2840 301.9472 634.7080 742.4763 29381.9627 -138.8107 -76.4147
TCL: Running FEP window  15: Lambda1 0.29999999999999966 Lambda2 0.24999999999999967 [dLambda -0.04999999999999999]
TCL: Setting parameter firsttimestep to 0
TCL: Setting parameter alchLambda to 0.29999999999999966
Info: NONBONDED TABLE R-SQUARED SPACING: 0.0625
Info: NONBONDED TABLE SIZE: 705 POINTS
TCL: Setting parameter alchLambda2 to 0.24999999999999967
Info: NONBONDED TABLE R-SQUARED SPACING: 0.0625
Info: NONBONDED TABLE SIZE: 705 POINTS
TCL: Running for 1500000 steps
ETITLE: TS BOND ANGLE DIHED IMPRP ELECT VDW BOUNDARY MISC KINETIC TOTAL TEMP POTENTIAL TOTALAVG TEMPAVG PRESSURE GPRESSURE VOLUME PRESSAVG GPRESSAVG
ENERGY: 0 3.9251 10.6564 4.6478 0.0000 -10614.6467 1475.4427 0.0000 0.0000 1770.2531 -7349.7216 305.4979 -9119.9748 -7349.7216 305.4979 657.2899 736.3874 29381.9627 657.2899 736.3874
ENERGY: 300000 3.6578 12.9261 8.0142 0.0000 -10617.8144 1487.8440 0.0000 0.0000 1728.9059 -7376.4664 298.3625 -9105.3722 -7394.1734 302.8869 297.8673 382.7347 30111.7926 78.6546 146.8937
ENERGY: 600000 2.7445 13.7954 6.4830 0.0000 -10480.3560 1359.6938 0.0000 0.0000 1713.6986 -7383.9407 295.7381 -9097.6393 -7384.1342 301.2026 -172.0197 -163.9656 29770.3986 105.7648 160.5313
ENERGY: 900000 2.2339 12.5350 5.3815 0.0000 -10607.9872 1510.3392 0.0000 0.0000 1729.5411 -7347.9565 298.4721 -9077.4976 -7376.6296 301.0669 697.2924 830.1159 29736.4498 127.6640 183.6483
ENERGY: 1200000 2.7118 8.2374 8.0739 0.0000 -10531.6562 1372.7574 0.0000 0.0000 1716.2771 -7423.5986 296.1831 -9139.8757 -7384.6933 300.7849 -745.7583 -645.4369 29846.2658 34.4625 98.0727
ENERGY: 1500000 1.8872 8.9374 6.0621 0.0000 -10650.7407 1433.1581 0.0000 0.0000 1721.7588 -7478.9371 297.1291 -9200.6959 -7397.4986 299.6700 -92.7308 -68.3200 29627.4691 -26.6216 34.5660
TCL: Running FEP window  16: Lambda1 0.24999999999999967 Lambda2 0.19999999999999968 [dLambda -0.04999999999999999]
TCL: Setting parameter firsttimestep to 0
TCL: Setting parameter alchLambda to 0.24999999999999967
Info: NONBONDED TABLE R-SQUARED SPACING: 0.0625
Info: NONBONDED TABLE SIZE: 705 POINTS
TCL: Setting parameter alchLambda2 to 0.19999999999999968
Info: NONBONDED TABLE R-SQUARED SPACING: 0.0625
Info: NONBONDED TABLE SIZE: 705 POINTS
TCL: Running for 1500000 steps
ETITLE: TS BOND ANGLE DIHED IMPRP ELECT VDW BOUNDARY MISC KINETIC TOTAL TEMP POTENTIAL TOTALAVG TEMPAVG PRESSURE GPRESSURE VOLUME PRESSAVG GPRESSAVG
ENERGY: 0 1.8872 8.9374 6.0621 0.0000 -10650.7410 1433.1950 0.0000 0.0000 1720.9225 -7479.7368 296.9848 -9200.6593 -7479.7368 296.9848 -154.4805 -75.5466 29627.4691 -154.4805 -75.5466
ENERGY: 300000 1.0222 10.8308 6.1356 0.0000 -10585.5446 1449.2427 0.0000 0.0000 1746.2608 -7372.0525 301.3575 -9118.3133 -7372.8156 301.1649 208.8840 263.6038 29940.3355 -215.0415 -152.8560
ENERGY: 600000 3.0053 6.6405 5.3536 0.0000 -10560.4370 1400.6623 0.0000 0.0000 1758.3893 -7386.3860 303.4505 -9144.7753 -7382.6067 301.0247 -284.6439 -202.3550 29934.5469 -112.0596 -46.6119
ENERGY: 900000 1.0755 10.4259 5.9759 0.0000 -10530.9831 1453.7482 0.0000 0.0000 1758.2190 -7301.5387 303.4211 -9059.7577 -7368.7699 301.6268 278.0815 301.4434 30459.4710 -169.3177 -110.7615
ENERGY: 1200000 1.5120 7.4953 7.6466 0.0000 -10558.6168 1417.7241 0.0000 0.0000 1728.5586 -7395.6802 298.3026 -9124.2388 -7367.4402 300.9897 -214.3990 -141.4845 30228.7177 -153.4906 -97.0328
ENERGY: 1500000 2.4577 4.6169 6.8119 0.0000 -10517.2269 1377.4136 0.0000 0.0000 1771.2383 -7354.6886 305.6679 -9125.9269 -7365.1063 301.4080 -288.9700 -234.5698 29852.0034 -141.9925 -85.6894
TCL: Running FEP window  17: Lambda1 0.19999999999999968 Lambda2 0.1499999999999997 [dLambda -0.04999999999999999]
TCL: Setting parameter firsttimestep to 0
TCL: Setting parameter alchLambda to 0.19999999999999968
Info: NONBONDED TABLE R-SQUARED SPACING: 0.0625
Info: NONBONDED TABLE SIZE: 705 POINTS
TCL: Setting parameter alchLambda2 to 0.1499999999999997
Info: NONBONDED TABLE R-SQUARED SPACING: 0.0625
Info: NONBONDED TABLE SIZE: 705 POINTS
TCL: Running for 1500000 steps
ETITLE: TS BOND ANGLE DIHED IMPRP ELECT VDW BOUNDARY MISC KINETIC TOTAL TEMP POTENTIAL TOTALAVG TEMPAVG PRESSURE GPRESSURE VOLUME PRESSAVG GPRESSAVG
ENERGY: 0 2.4577 4.6169 6.8119 0.0000 -10517.2259 1377.8112 0.0000 0.0000 1770.3405 -7355.1878 305.5130 -9125.5282 -7355.1878 305.5130 -328.8931 -236.3855 29852.0034 -328.8931 -236.3855
ENERGY: 300000 1.1828 8.3054 6.0813 0.0000 -10693.0646 1495.8591 0.0000 0.0000 1691.6715 -7489.9645 291.9368 -9181.6361 -7430.2209 297.5216 397.9107 421.3360 29705.8797 139.8632 209.0713
ENERGY: 600000 4.3129 10.8511 6.9296 0.0000 -10551.1943 1372.5662 0.0000 0.0000 1739.6813 -7416.8532 300.2220 -9156.5345 -7418.4835 299.6420 -351.2540 -330.0276 29669.7532 -51.7679 6.0715
ENERGY: 900000 0.8493 9.6509 5.1829 0.0000 -10590.5564 1461.9826 0.0000 0.0000 1670.8099 -7442.0809 288.3367 -9112.8908 -7412.7500 298.2778 204.2685 280.7605 29997.2108 75.9308 134.4810
ENERGY: 1200000 2.9130 11.4739 6.1107 0.0000 -10472.8501 1353.8641 0.0000 0.0000 1737.2421 -7361.2463 299.8011 -9098.4884 -7401.5890 297.5622 -574.7352 -497.3431 29778.8540 8.6783 67.2334
ENERGY: 1500000 3.5134 12.7210 6.0635 0.0000 -10503.0424 1369.4028 0.0000 0.0000 1750.1687 -7361.1730 302.0319 -9111.3417 -7399.8650 298.3397 -286.7788 -242.0843 29628.8064 22.7511 83.8298
TCL: Running FEP window  18: Lambda1 0.1499999999999997 Lambda2 0.09999999999999969 [dLambda -0.05 ]
TCL: Setting parameter firsttimestep to 0
TCL: Setting parameter alchLambda to 0.1499999999999997
Info: NONBONDED TABLE R-SQUARED SPACING: 0.0625
Info: NONBONDED TABLE SIZE: 705 POINTS
TCL: Setting parameter alchLambda2 to 0.09999999999999969
Info: NONBONDED TABLE R-SQUARED SPACING: 0.0625
Info: NONBONDED TABLE SIZE: 705 POINTS
TCL: Running for 1500000 steps
ETITLE: TS BOND ANGLE DIHED IMPRP ELECT VDW BOUNDARY MISC KINETIC TOTAL TEMP POTENTIAL TOTALAVG TEMPAVG PRESSURE GPRESSURE VOLUME PRESSAVG GPRESSAVG
ENERGY: 0 3.5134 12.7210 6.0635 0.0000 -10503.0425 1368.8238 0.0000 0.0000 1749.2743 -7362.6465 301.8775 -9111.9208 -7362.6465 301.8775 -342.6755 -252.4392 29628.8064 -342.6755 -252.4392
ENERGY: 300000 2.2137 9.5428 7.5705 0.0000 -10587.0848 1413.6964 0.0000 0.0000 1758.9011 -7395.1603 303.5389 -9154.0614 -7427.8896 299.2075 -243.4663 -151.1955 30242.6513 108.5953 166.7374
ENERGY: 600000 2.2013 9.5357 6.4351 0.0000 -10623.4090 1485.5556 0.0000 0.0000 1776.4112 -7343.2702 306.5606 -9119.6814 -7400.8902 302.1333 656.9481 734.4736 29699.8099 80.5249 140.0731
ENERGY: 900000 2.3452 14.2004 6.6668 0.0000 -10469.6821 1342.4257 0.0000 0.0000 1799.5133 -7304.5308 310.5474 -9104.0441 -7392.2887 303.4165 -686.2266 -663.6096 29878.2352 -72.3756 -17.1086
ENERGY: 1200000 1.3352 8.7952 4.8279 0.0000 -10431.5686 1365.0278 0.0000 0.0000 1705.1707 -7346.4118 294.2664 -9051.5825 -7381.9224 302.3838 -446.3981 -364.3229 29894.4718 -89.1557 -33.0436
ENERGY: 1500000 2.5457 9.6354 5.6536 0.0000 -10560.9505 1485.7554 0.0000 0.0000 1754.9664 -7302.3940 302.8598 -9057.3604 -7369.8056 303.0053 313.5300 432.4073 30490.7251 -61.5122 -3.5152
TCL: Running FEP window  19: Lambda1 0.09999999999999969 Lambda2 0.049999999999999684 [dLambda -0.05 ]
TCL: Setting parameter firsttimestep to 0
TCL: Setting parameter alchLambda to 0.09999999999999969
Info: NONBONDED TABLE R-SQUARED SPACING: 0.0625
Info: NONBONDED TABLE SIZE: 705 POINTS
TCL: Setting parameter alchLambda2 to 0.049999999999999684
Info: NONBONDED TABLE R-SQUARED SPACING: 0.0625
Info: NONBONDED TABLE SIZE: 705 POINTS
TCL: Running for 1500000 steps
ETITLE: TS BOND ANGLE DIHED IMPRP ELECT VDW BOUNDARY MISC KINETIC TOTAL TEMP POTENTIAL TOTALAVG TEMPAVG PRESSURE GPRESSURE VOLUME PRESSAVG GPRESSAVG
ENERGY: 0 2.5457 9.6354 5.6536 0.0000 -10560.9503 1486.2980 0.0000 0.0000 1754.0732 -7302.7445 302.7057 -9056.8177 -7302.7445 302.7057 336.0045 431.8134 30490.7251 336.0045 431.8134
ENERGY: 300000 2.4168 9.0639 5.0860 0.0000 -10444.6071 1355.9975 0.0000 0.0000 1746.5643 -7325.4786 301.4099 -9072.0429 -7345.7029 301.9576 -396.2459 -350.8390 29742.0753 -315.8265 -240.3075
ENERGY: 600000 1.9477 7.7353 5.5505 0.0000 -10595.8443 1446.3430 0.0000 0.0000 1760.9554 -7373.3123 303.8934 -9134.2677 -7355.2650 303.4419 505.8091 557.8169 29458.9394 -409.0084 -344.3769
ENERGY: 900000 2.4567 7.1810 8.5275 0.0000 -10546.6802 1427.1853 0.0000 0.0000 1748.2785 -7353.0513 301.7057 -9101.3297 -7365.2238 302.8305 -11.9256 100.8667 29828.6383 -320.3912 -255.2111
ENERGY: 1200000 3.0882 7.4404 4.2003 0.0000 -10580.1645 1459.5976 0.0000 0.0000 1750.9437 -7354.8944 302.1656 -9105.8381 -7364.3985 302.1195 334.9604 382.3957 29867.9210 -226.4375 -154.5315
ENERGY: 1500000 2.2314 8.6569 5.6851 0.0000 -10621.3144 1456.9547 0.0000 0.0000 1771.5188 -7376.2674 305.7163 -9147.7862 -7367.7363 302.4963 48.9814 124.6417 29905.1314 -135.1067 -72.6149
TCL: Running FEP window  20: Lambda1 0.049999999999999684 Lambda2 0.0    [dLambda -0.049999999999999684]
TCL: Setting parameter firsttimestep to 0
TCL: Setting parameter alchLambda to 0.049999999999999684
Info: NONBONDED TABLE R-SQUARED SPACING: 0.0625
Info: NONBONDED TABLE SIZE: 705 POINTS
TCL: Setting parameter alchLambda2 to 0.0
Info: NONBONDED TABLE R-SQUARED SPACING: 0.0625
Info: NONBONDED TABLE SIZE: 705 POINTS
TCL: Running for 1500000 steps
ETITLE: TS BOND ANGLE DIHED IMPRP ELECT VDW BOUNDARY MISC KINETIC TOTAL TEMP POTENTIAL TOTALAVG TEMPAVG PRESSURE GPRESSURE VOLUME PRESSAVG GPRESSAVG
ENERGY: 0 2.2314 8.6569 5.6851 0.0000 -10621.3149 1456.4767 0.0000 0.0000 1770.6679 -7377.5968 305.5695 -9148.2647 -7377.5968 305.5695 41.6954 125.6264 29905.1314 41.6954 125.6264
ENERGY: 300000 1.8518 6.8068 5.2455 0.0000 -10600.1453 1473.1160 0.0000 0.0000 1713.0944 -7400.0309 295.6338 -9113.1252 -7361.4295 300.5398 458.8311 547.8141 29655.6451 210.7029 290.0481
ENERGY: 600000 0.4879 12.0240 6.5001 0.0000 -10459.9087 1386.7300 0.0000 0.0000 1769.9819 -7284.1848 305.4511 -9054.1667 -7354.8185 302.3955 -167.5362 -94.2823 30039.0120 279.4533 360.7630
ENERGY: 900000 2.6882 4.9825 5.8415 0.0000 -10442.9201 1356.5738 0.0000 0.0000 1796.7534 -7276.0806 310.0711 -9072.8341 -7347.3404 302.3760 -283.7432 -206.5702 29691.1218 323.2212 400.5255
ENERGY: 1200000 0.7952 7.5312 4.5734 0.0000 -10618.1954 1433.4495 0.0000 0.0000 1728.9851 -7442.8610 298.3762 -9171.8460 -7377.8023 300.0340 103.2298 177.4801 29588.5699 204.2136 274.7268
ENERGY: 1500000 2.1097 6.3390 8.3017 0.0000 -10638.9471 1439.9207 0.0000 0.0000 1763.3203 -7418.9558 304.3015 -9182.2760 -7375.1718 300.4346 -372.8737 -237.1627 30243.5554 122.4686 197.6771
TCL: Exiting due to exit command.
