Info: SIMULATION PARAMETERS:
Info: TIMESTEP               2
Info: NUMBER OF STEPS        0
Info: STEPS PER CYCLE        10
Info: PERIODIC CELL BASIS 1  30.2948 0 0
Info: PERIODIC CELL BASIS 2  0 28.5997 0
Info: PERIODIC CELL BASIS 3  0 0 35.0064
Info: PERIODIC CELL CENTER   0 0 0
Info: WRAPPING WATERS AROUND PERIODIC BOUNDARIES ON OUTPUT.
Info: WRAPPING ALL CLUSTERS AROUND PERIODIC BOUNDARIES ON OUTPUT.
Info: FIRST LDB TIMESTEP     50
Info: LAST LDB TIMESTEP     -1
Info: HOM BACKGROUND SCALING 1
Info: PME BACKGROUND SCALING 1
Info: MIN ATOMS PER PATCH    40
Info: EMPTY PATCH LOAD       40 ATOMS
Info: VELOCITY FILE          mobley_7393673_equil.vel
Info: CENTER OF MASS MOVING INITIALLY? NO
Info: DIELECTRIC             1
Info: EXCLUDE                SCALED ONE-FOUR
Info: 1-4 ELECTROSTATICS SCALED BY 0.833333
Info: MODIFIED 1-4 VDW PARAMETERS WILL BE USED
Info: DCD FILENAME           mobley_7393673_prod.dcd
Info: DCD FREQUENCY          100000
Info: DCD FIRST STEP         100000
Info: DCD FILE WILL CONTAIN UNIT CELL DATA
Info: XST FILENAME           mobley_7393673_prod.xst
Info: XST FREQUENCY          100000
Info: NO VELOCITY DCD OUTPUT
Info: NO FORCE DCD OUTPUT
Info: OUTPUT FILENAME        mobley_7393673_prod
Info: BINARY OUTPUT FILES WILL BE USED
Info: RESTART FILENAME       mobley_7393673_prod.restart
Info: RESTART FREQUENCY      100000
Info: BINARY RESTART FILES WILL BE USED
Info: CUTOFF                 9
Info: PAIRLIST DISTANCE      11
Info: PAIRLIST SHRINK RATE   0.01
Info: PAIRLIST GROW RATE     0.01
Info: PAIRLIST TRIGGER       0.3
Info: PAIRLISTS PER CYCLE    2
Info: PAIRLISTS ENABLED
Info: MARGIN                 2
Info: HYDROGEN GROUP CUTOFF  2.5
Info: PATCH DIMENSION        15.5
Info: ENERGY OUTPUT STEPS    100000
Info: ENERGY EVALUATION STEPS    100000
Info: OUTPUT ENERGY PRECISION 4
Info: CROSSTERM ENERGY INCLUDED IN DIHEDRAL
Info: TIMING OUTPUT STEPS    1000000
Info: PRESSURE OUTPUT STEPS  100000
Info: ALCHEMICAL FEP ON
Info: FEP CURRENT LAMBDA VALUE     0
Info: FEP COMPARISON LAMBDA VALUE  0.05
Info: FEP INTRA-ALCHEMICAL NON-BONDED INTERACTIONS WILL BE RETAINED
Info: FEP INTRA-ALCHEMICAL BONDED INTERACTIONS WILL BE RETAINED
Info: FEP VDW SHIFTING COEFFICIENT 5
Info: FEP ELEC. ACTIVE FOR ANNIHILATED PARTICLES BETWEEN LAMBDA = 0 AND LAMBDA = 0.5
Info: FEP ELEC. ACTIVE FOR EXNIHILATED PARTICLES BETWEEN LAMBDA = 0.5 AND LAMBDA = 1
Info: FEP VDW ACTIVE FOR ANNIHILATED PARTICLES BETWEEN LAMBDA = 0 AND LAMBDA = 1
Info: FEP VDW ACTIVE FOR EXNIHILATED PARTICLES BETWEEN LAMBDA = 0 AND LAMBDA = 1
Info: FEP BOND ACTIVE FOR ANNIHILATED PARTICLES BETWEEN LAMBDA = 1 AND LAMBDA = 1
Info: FEP BOND ACTIVE FOR EXNIHILATED PARTICLES BETWEEN LAMBDA = 0 AND LAMBDA = 0
Info: LANGEVIN DYNAMICS ACTIVE
Info: LANGEVIN TEMPERATURE   300
Info: LANGEVIN USING BBK INTEGRATOR
Info: LANGEVIN DAMPING COEFFICIENT IS 1 INVERSE PS
Info: LANGEVIN DYNAMICS APPLIED TO HYDROGENS
Info: LANGEVIN PISTON PRESSURE CONTROL ACTIVE
Info:        TARGET PRESSURE IS 1.01325 BAR
Info:     OSCILLATION PERIOD IS 50 FS
Info:             DECAY TIME IS 25 FS
Info:     PISTON TEMPERATURE IS 300 K
Info:       PRESSURE CONTROL IS GROUP-BASED
Info:    INITIAL STRAIN RATE IS 0.000620106 0.000620106 0.000620106
Info:       CELL FLUCTUATION IS ISOTROPIC
Info: PARTICLE MESH EWALD (PME) ACTIVE
Info: PME TOLERANCE               1e-06
Info: PME EWALD COEFFICIENT       0.348832
Info: PME INTERPOLATION ORDER     4
Info: PME GRID DIMENSIONS         32 32 36
Info: PME MAXIMUM GRID SPACING    1
Info: PME CALCULATION WILL BE PERFORMED ON GPU
Info: FULL ELECTROSTATIC EVALUATION FREQUENCY      2
Info: USING VERLET I (r-RESPA) MTS SCHEME.
Info: C1 SPLITTING OF LONG RANGE ELECTROSTATICS
Info: PLACING ATOMS IN PATCHES BY HYDROGEN GROUPS
Info: RIGID BONDS TO HYDROGEN : ALL
Info:         ERROR TOLERANCE : 1e-08
Info:          MAX ITERATIONS : 100
Info: RIGID WATER USING SETTLE ALGORITHM
Info: RANDOM NUMBER SEED     1743876508
Info: USE HYDROGEN BONDS?    NO
Info: Using AMBER format force field!
Info: AMBER PARM FILE        mobley_7393673.prmtop
Info: COORDINATE PDB         mobley_7393673.pdb
Info: Exclusions will be read from PARM file!
Info: SCNB (VDW SCALING)     2
Info: USING ARITHMETIC MEAN TO COMBINE L-J SIGMA PARAMETERS
Info: BINARY COORDINATES     mobley_7393673_equil.coor
Info: SUMMARY OF PARAMETERS:
Info: 10 BONDS
Info: 11 ANGLES
Info:   11 HARMONIC
Info:   0 COSINE-BASED
Info: 7 DIHEDRAL
Info: 0 IMPROPER
Info: 0 CROSSTERM
Info: 0 VDW
Info: 36 VDW_PAIRS
Info: 0 NBTHOLE_PAIRS
Info: To read alchdata from file: mobley_7393673.pdb
Info: To read alchflag data from column: 5
Info: STRUCTURE SUMMARY:
Info: 2953 ATOMS
Info: 2953 BONDS
Info: 35 ANGLES
Info: 46 DIHEDRALS
Info: 0 IMPROPERS
Info: 0 CROSSTERMS
Info: 3023 EXCLUSIONS
Info: 2941 RIGID BONDS
Info: ALCH: 0 ATOMS TO DISAPPEAR IN FINAL STATE
Info: ALCH: 22 ATOMS TO APPEAR IN FINAL STATE
Info: 5918 DEGREES OF FREEDOM
Info: 989 HYDROGEN GROUPS
Info: 4 ATOMS IN LARGEST HYDROGEN GROUP
Info: 989 MIGRATION GROUPS
Info: 4 ATOMS IN LARGEST MIGRATION GROUP
Info: TOTAL MASS = 17767.8 amu
Info: TOTAL CHARGE = -9.99831e-05 e
Info: MASS DENSITY = 0.972781 g/cm^3
Info: ATOM DENSITY = 0.0973611 atoms/A^3
Info: ADDED 0 IMPLICIT EXCLUSIONS
Info: NONBONDED TABLE R-SQUARED SPACING: 0.0625
Info: NONBONDED TABLE SIZE: 705 POINTS
Info: REMOVING COM VELOCITY -0.0432946 -0.0431766 -0.0558357
Info: Use 3D box decompostion in PME FFT.
Info: Updated CUDA force table with 4096 elements.
Info: Updated CUDA LJ table with 8 x 8 elements.
Info: Found 24 unique exclusion lists needing 68 bytes
TCL: Running for 1500000 steps
ETITLE: TS BOND ANGLE DIHED IMPRP ELECT VDW BOUNDARY MISC KINETIC TOTAL TEMP POTENTIAL TOTALAVG TEMPAVG PRESSURE GPRESSURE VOLUME PRESSAVG GPRESSAVG
ENERGY: 0 7.7615 9.5622 2.3269 0.0000 -10702.7457 1417.1464 0.0000 0.0000 1808.8256 -7457.1232 307.6183 -9265.9487 -7457.1232 307.6183 -592.9612 -508.7274 30330.3747 -592.9612 -508.7274
ENERGY: 300000 6.2344 4.9741 5.2297 0.0000 -10777.9248 1505.4104 0.0000 0.0000 1717.9453 -7538.1310 292.1627 -9256.0763 -7477.3530 298.6904 493.6297 514.3199 29990.7396 -87.1427 -33.2206
ENERGY: 600000 3.5645 6.8936 2.5438 0.0000 -10781.0027 1511.6173 0.0000 0.0000 1753.9241 -7502.4594 298.2814 -9256.3835 -7474.9109 297.8175 522.4369 649.0634 30101.1124 13.9874 80.5401
ENERGY: 900000 2.8537 7.3397 7.9372 0.0000 -10705.9457 1416.5355 0.0000 0.0000 1774.6009 -7496.6786 301.7978 -9271.2796 -7466.5734 299.4625 -202.5637 -190.4158 29951.9306 -28.3172 38.9239
ENERGY: 1200000 7.7537 7.0125 3.8834 0.0000 -10697.5532 1423.3100 0.0000 0.0000 1785.8668 -7469.7269 303.7138 -9255.5936 -7463.3789 299.7265 -457.7417 -369.0703 30323.0385 -63.4263 3.3247
ENERGY: 1500000 3.7320 6.8633 3.7916 0.0000 -10643.6351 1389.6084 0.0000 0.0000 1772.6083 -7467.0315 301.4590 -9239.6398 -7466.4761 300.0252 -181.0308 -122.4698 30021.1276 -60.6196 2.5025
TCL: Running FEP window   2: Lambda1 0.05   Lambda2 0.1    [dLambda 0.05  ]
TCL: Setting parameter firsttimestep to 0
TCL: Setting parameter alchLambda to 0.05
Info: NONBONDED TABLE R-SQUARED SPACING: 0.0625
Info: NONBONDED TABLE SIZE: 705 POINTS
TCL: Setting parameter alchLambda2 to 0.1
Info: NONBONDED TABLE R-SQUARED SPACING: 0.0625
Info: NONBONDED TABLE SIZE: 705 POINTS
TCL: Running for 1500000 steps
ETITLE: TS BOND ANGLE DIHED IMPRP ELECT VDW BOUNDARY MISC KINETIC TOTAL TEMP POTENTIAL TOTALAVG TEMPAVG PRESSURE GPRESSURE VOLUME PRESSAVG GPRESSAVG
ENERGY: 0 3.7320 6.8633 3.7916 0.0000 -10643.6355 1391.1943 0.0000 0.0000 1771.6810 -7466.3733 301.3013 -9238.0543 -7466.3733 301.3013 -188.9400 -111.2942 30021.1276 -188.9400 -111.2942
ENERGY: 300000 3.2432 12.0348 4.5445 0.0000 -10612.9362 1391.0826 0.0000 0.0000 1804.2858 -7397.7453 306.8462 -9202.0310 -7488.2521 296.2677 -38.2832 -31.7071 30195.5918 6.2742 53.2954
ENERGY: 600000 3.0488 5.1456 5.7411 0.0000 -10452.2878 1289.3585 0.0000 0.0000 1732.5533 -7416.4405 294.6470 -9148.9938 -7469.4242 297.0232 -943.8143 -949.3698 30692.6967 -214.9380 -166.5763
ENERGY: 900000 5.1097 5.8423 5.8358 0.0000 -10647.1514 1437.7730 0.0000 0.0000 1820.8163 -7371.7745 309.6575 -9192.5907 -7468.6026 297.6501 66.5788 154.7294 30335.8112 -159.2579 -111.1144
ENERGY: 1200000 0.7896 8.2633 4.8032 0.0000 -10553.2301 1362.4691 0.0000 0.0000 1732.4852 -7444.4197 294.6354 -9176.9049 -7462.0485 297.5442 -598.3769 -528.9979 30539.0793 -205.5747 -151.5506
ENERGY: 1500000 3.1848 8.8168 4.6617 0.0000 -10627.9888 1407.7616 0.0000 0.0000 1768.8654 -7434.6984 300.8224 -9203.5638 -7459.5713 298.5739 -223.1347 -171.1625 30335.2063 -249.3360 -192.4846
TCL: Running FEP window   3: Lambda1 0.1    Lambda2 0.15000000000000002 [dLambda 0.05000000000000002]
TCL: Setting parameter firsttimestep to 0
TCL: Setting parameter alchLambda to 0.1
Info: NONBONDED TABLE R-SQUARED SPACING: 0.0625
Info: NONBONDED TABLE SIZE: 705 POINTS
TCL: Setting parameter alchLambda2 to 0.15000000000000002
Info: NONBONDED TABLE R-SQUARED SPACING: 0.0625
Info: NONBONDED TABLE SIZE: 705 POINTS
TCL: Running for 1500000 steps
ETITLE: TS BOND ANGLE DIHED IMPRP ELECT VDW BOUNDARY MISC KINETIC TOTAL TEMP POTENTIAL TOTALAVG TEMPAVG PRESSURE GPRESSURE VOLUME PRESSAVG GPRESSAVG
ENERGY: 0 3.1848 8.8168 4.6617 0.0000 -10627.9870 1411.0974 0.0000 0.0000 1768.0022 -7432.2241 300.6756 -9200.2263 -7432.2241 300.6756 -245.9951 -162.7768 30335.2063 -245.9951 -162.7768
ENERGY: 300000 3.9125 11.2810 2.5538 0.0000 -10596.3430 1431.9050 0.0000 0.0000 1811.6765 -7335.0142 308.1031 -9146.6907 -7422.9434 303.9685 382.0023 446.6546 30079.5724 8.0672 66.7246
ENERGY: 600000 1.9990 11.4806 4.5355 0.0000 -10888.9572 1559.9732 0.0000 0.0000 1751.0088 -7559.9602 297.7856 -9310.9690 -7448.3081 301.8433 670.6877 836.0688 29972.6443 19.0352 103.5791
ENERGY: 900000 3.9263 16.4543 2.3654 0.0000 -10646.2435 1465.8457 0.0000 0.0000 1768.7659 -7388.8860 300.8055 -9157.6518 -7452.1201 301.3497 274.8286 331.7854 30248.6012 -14.1143 63.3921
ENERGY: 1200000 4.5172 7.5205 7.6774 0.0000 -10672.9817 1490.4182 0.0000 0.0000 1790.7912 -7372.0571 304.5512 -9162.8483 -7449.5901 302.1771 670.1082 682.9201 30190.5036 32.2954 104.1853
ENERGY: 1500000 4.2206 6.8637 5.5431 0.0000 -10723.1574 1450.6688 0.0000 0.0000 1756.2083 -7499.6531 298.6699 -9255.8613 -7457.8772 301.3953 193.3745 211.9511 29736.5753 15.7737 82.2720
TCL: Running FEP window   4: Lambda1 0.15000000000000002 Lambda2 0.2    [dLambda 0.04999999999999999]
TCL: Setting parameter firsttimestep to 0
TCL: Setting parameter alchLambda to 0.15000000000000002
Info: NONBONDED TABLE R-SQUARED SPACING: 0.0625
Info: NONBONDED TABLE SIZE: 705 POINTS
TCL: Setting parameter alchLambda2 to 0.2
Info: NONBONDED TABLE R-SQUARED SPACING: 0.0625
Info: NONBONDED TABLE SIZE: 705 POINTS
TCL: Running for 1500000 steps
ETITLE: TS BOND ANGLE DIHED IMPRP ELECT VDW BOUNDARY MISC KINETIC TOTAL TEMP POTENTIAL TOTALAVG TEMPAVG PRESSURE GPRESSURE VOLUME PRESSAVG GPRESSAVG
ENERGY: 0 4.2206 6.8637 5.5431 0.0000 -10723.1577 1451.8558 0.0000 0.0000 1755.3365 -7499.3381 298.5216 -9254.6746 -7499.3381 298.5216 141.7154 219.4411 29736.5753 141.7154 219.4411
ENERGY: 300000 2.1578 7.8639 11.8493 0.0000 -10643.1177 1424.8304 0.0000 0.0000 1804.0787 -7392.3375 306.8110 -9196.4163 -7481.5373 298.0699 -12.0384 -25.6448 30062.6590 -10.9762 27.6413
ENERGY: 600000 3.5198 14.1976 1.9917 0.0000 -10678.1151 1430.5654 0.0000 0.0000 1816.6594 -7411.1812 308.9505 -9227.8406 -7435.4525 301.8126 211.0607 230.3351 29968.2774 25.0151 73.7148
ENERGY: 900000 1.8382 11.9129 3.7166 0.0000 -10703.4044 1449.5509 0.0000 0.0000 1817.0137 -7419.3720 309.0108 -9236.3857 -7435.8420 302.8292 593.7595 584.1782 29851.4304 130.7198 178.3283
ENERGY: 1200000 4.4886 6.3622 6.4031 0.0000 -10689.1372 1474.7361 0.0000 0.0000 1771.8190 -7425.3280 301.3247 -9197.1471 -7434.1537 302.5179 542.4595 645.0435 29817.6628 176.5327 221.9361
ENERGY: 1500000 2.0980 5.7392 5.4663 0.0000 -10679.5283 1446.2767 0.0000 0.0000 1766.3771 -7453.5709 300.3992 -9219.9480 -7435.2243 302.1257 145.9742 142.6903 30460.1302 149.6850 187.4349
TCL: Running FEP window   5: Lambda1 0.2    Lambda2 0.25   [dLambda 0.04999999999999999]
TCL: Setting parameter firsttimestep to 0
TCL: Setting parameter alchLambda to 0.2
Info: NONBONDED TABLE R-SQUARED SPACING: 0.0625
Info: NONBONDED TABLE SIZE: 705 POINTS
TCL: Setting parameter alchLambda2 to 0.25
Info: NONBONDED TABLE R-SQUARED SPACING: 0.0625
Info: NONBONDED TABLE SIZE: 705 POINTS
TCL: Running for 1500000 steps
ETITLE: TS BOND ANGLE DIHED IMPRP ELECT VDW BOUNDARY MISC KINETIC TOTAL TEMP POTENTIAL TOTALAVG TEMPAVG PRESSURE GPRESSURE VOLUME PRESSAVG GPRESSAVG
ENERGY: 0 2.0980 5.7392 5.4663 0.0000 -10679.5261 1445.8128 0.0000 0.0000 1765.4974 -7454.9123 300.2497 -9220.4098 -7454.9123 300.2497 60.6230 145.0369 30460.1302 60.6230 145.0369
ENERGY: 300000 3.3290 8.1314 5.5776 0.0000 -10668.4863 1418.2436 0.0000 0.0000 1791.3054 -7441.8992 304.6387 -9233.2046 -7449.4372 302.9541 -114.6293 -146.6365 30059.3471 -296.4579 -261.9423
ENERGY: 600000 3.9891 4.9989 3.5561 0.0000 -10680.4621 1412.1694 0.0000 0.0000 1789.4614 -7466.2873 304.3251 -9255.7486 -7432.3563 303.3094 51.6946 130.6523 29890.8101 -235.7027 -191.4724
ENERGY: 900000 2.5589 4.5304 6.5504 0.0000 -10632.3279 1432.7243 0.0000 0.0000 1785.3280 -7400.6359 303.6221 -9185.9639 -7425.4203 303.8386 156.6724 246.8284 30267.7206 -175.4163 -126.8020
ENERGY: 1200000 5.6147 6.7479 6.5171 0.0000 -10786.1761 1453.7783 0.0000 0.0000 1801.0567 -7512.4613 306.2971 -9313.5181 -7435.2458 303.9644 -411.3611 -354.5193 30380.8151 -279.6106 -231.6516
ENERGY: 1500000 6.9483 7.7355 3.6836 0.0000 -10704.8314 1442.8098 0.0000 0.0000 1765.9682 -7477.6860 300.3297 -9243.6542 -7436.6218 303.9184 -228.8279 -138.1577 30201.5601 -251.6965 -202.2992
TCL: Running FEP window   6: Lambda1 0.25   Lambda2 0.3    [dLambda 0.04999999999999999]
TCL: Setting parameter firsttimestep to 0
TCL: Setting parameter alchLambda to 0.25
Info: NONBONDED TABLE R-SQUARED SPACING: 0.0625
Info: NONBONDED TABLE SIZE: 705 POINTS
TCL: Setting parameter alchLambda2 to 0.3
Info: NONBONDED TABLE R-SQUARED SPACING: 0.0625
Info: NONBONDED TABLE SIZE: 705 POINTS
TCL: Running for 1500000 steps
ETITLE: TS BOND ANGLE DIHED IMPRP ELECT VDW BOUNDARY MISC KINETIC TOTAL TEMP POTENTIAL TOTALAVG TEMPAVG PRESSURE GPRESSURE VOLUME PRESSAVG GPRESSAVG
ENERGY: 0 6.9482 7.7355 3.6836 0.0000 -10704.8345 1443.0761 0.0000 0.0000 1765.1180 -7478.2730 300.1851 -9243.3910 -7478.2730 300.1851 -217.3110 -130.9005 30201.5601 -217.3110 -130.9005
ENERGY: 300000 4.0305 4.6432 4.9602 0.0000 -10682.8389 1395.2805 0.0000 0.0000 1792.4085 -7481.5160 304.8263 -9273.9245 -7496.7992 302.0401 -367.8041 -330.6262 30231.7928 -243.3037 -189.0865
ENERGY: 600000 1.0157 8.5774 7.5044 0.0000 -10706.1363 1492.3731 0.0000 0.0000 1782.6314 -7414.0343 303.1635 -9196.6658 -7492.5622 299.8380 401.4266 438.6744 30533.9904 -147.1632 -86.5502
ENERGY: 900000 5.1459 11.7322 8.2950 0.0000 -10794.0826 1491.3411 0.0000 0.0000 1788.8549 -7488.7135 304.2219 -9277.5684 -7490.8665 300.7406 267.3871 315.0897 30079.5901 -12.4947 47.1686
ENERGY: 1200000 4.6411 8.9754 2.6879 0.0000 -10624.1921 1404.3591 0.0000 0.0000 1719.3788 -7484.1498 292.4065 -9203.5286 -7492.1009 300.3390 -428.4160 -319.5375 30725.1479 -60.7884 4.0366
ENERGY: 1500000 3.3940 5.1066 8.2871 0.0000 -10653.4458 1404.5206 0.0000 0.0000 1730.5241 -7501.6134 294.3019 -9232.1375 -7493.0676 299.8710 -423.3291 -380.1909 30584.3604 -42.1314 20.3522
TCL: Running FEP window   7: Lambda1 0.3    Lambda2 0.35   [dLambda 0.04999999999999999]
TCL: Setting parameter firsttimestep to 0
TCL: Setting parameter alchLambda to 0.3
Info: NONBONDED TABLE R-SQUARED SPACING: 0.0625
Info: NONBONDED TABLE SIZE: 705 POINTS
TCL: Setting parameter alchLambda2 to 0.35
Info: NONBONDED TABLE R-SQUARED SPACING: 0.0625
Info: NONBONDED TABLE SIZE: 705 POINTS
TCL: Running for 1500000 steps
ETITLE: TS BOND ANGLE DIHED IMPRP ELECT VDW BOUNDARY MISC KINETIC TOTAL TEMP POTENTIAL TOTALAVG TEMPAVG PRESSURE GPRESSURE VOLUME PRESSAVG GPRESSAVG
ENERGY: 0 3.3940 5.1066 8.2871 0.0000 -10653.4442 1406.1221 0.0000 0.0000 1729.6448 -7500.8896 294.1524 -9230.5344 -7500.8896 294.1524 -448.3575 -367.5854 30584.3604 -448.3575 -367.5854
ENERGY: 300000 2.5925 5.4633 7.3903 0.0000 -10651.2927 1440.3115 0.0000 0.0000 1760.7804 -7434.7547 299.4474 -9195.5350 -7467.7996 300.2590 158.7041 218.8588 30060.2935 -33.2762 31.9127
ENERGY: 600000 2.3016 9.9177 8.5093 0.0000 -10488.7945 1338.1409 0.0000 0.0000 1816.9361 -7312.9889 308.9976 -9129.9250 -7449.2945 301.4673 -637.3277 -586.7536 30449.9236 -139.5420 -57.9263
ENERGY: 900000 2.4278 4.6602 4.9363 0.0000 -10736.1813 1483.3460 0.0000 0.0000 1740.8756 -7499.9354 296.0623 -9240.8111 -7457.6853 300.4847 392.4218 477.7763 30291.0830 -6.6600 60.5358
ENERGY: 1200000 4.3553 4.7828 6.8606 0.0000 -10725.3948 1384.5285 0.0000 0.0000 1780.5963 -7544.2713 302.8175 -9324.8676 -7463.8116 300.5690 -596.8836 -512.1853 29858.7057 -34.8972 28.6657
ENERGY: 1500000 2.2423 7.0454 3.9559 0.0000 -10522.9550 1354.0892 0.0000 0.0000 1760.2871 -7395.3352 299.3635 -9155.6223 -7468.5045 299.3202 -747.8162 -739.7561 30932.1140 -57.9701 2.5409
TCL: Running FEP window   8: Lambda1 0.35   Lambda2 0.39999999999999997 [dLambda 0.04999999999999999]
TCL: Setting parameter firsttimestep to 0
TCL: Setting parameter alchLambda to 0.35
Info: NONBONDED TABLE R-SQUARED SPACING: 0.0625
Info: NONBONDED TABLE SIZE: 705 POINTS
TCL: Setting parameter alchLambda2 to 0.39999999999999997
Info: NONBONDED TABLE R-SQUARED SPACING: 0.0625
Info: NONBONDED TABLE SIZE: 705 POINTS
TCL: Running for 1500000 steps
ETITLE: TS BOND ANGLE DIHED IMPRP ELECT VDW BOUNDARY MISC KINETIC TOTAL TEMP POTENTIAL TOTALAVG TEMPAVG PRESSURE GPRESSURE VOLUME PRESSAVG GPRESSAVG
ENERGY: 0 2.2423 7.0454 3.9559 0.0000 -10522.9528 1353.5010 0.0000 0.0000 1759.4040 -7396.8043 299.2134 -9156.2082 -7396.8043 299.2134 -811.8383 -735.3687 30932.1140 -811.8383 -735.3687
ENERGY: 300000 3.6013 13.2592 5.6097 0.0000 -10571.6474 1395.8689 0.0000 0.0000 1733.7503 -7419.5580 294.8506 -9153.3083 -7406.1363 299.0405 -377.5200 -363.3150 30988.1764 -70.4379 -20.7263
ENERGY: 600000 2.2530 5.6311 4.8382 0.0000 -10703.7797 1448.1272 0.0000 0.0000 1793.2118 -7449.7186 304.9629 -9242.9303 -7420.6079 301.7632 -20.7223 136.8257 30140.8762 -227.5503 -150.4848
ENERGY: 900000 2.2775 5.7426 4.6569 0.0000 -10693.6882 1422.6450 0.0000 0.0000 1795.7601 -7462.6061 305.3963 -9258.3662 -7416.0510 302.6096 -3.5575 89.2959 29955.0459 -177.3571 -111.7598
ENERGY: 1200000 4.0500 12.1295 3.6883 0.0000 -10627.5608 1418.7795 0.0000 0.0000 1797.4384 -7391.4752 305.6817 -9188.9135 -7430.1144 301.6929 -50.0622 -80.3409 30319.3637 -121.6945 -63.4057
ENERGY: 1500000 5.3501 11.6991 3.2459 0.0000 -10854.6658 1592.0843 0.0000 0.0000 1787.2068 -7455.0796 303.9417 -9242.2864 -7436.6900 301.2277 996.4901 1068.2307 30460.8736 -69.2582 -4.0352
TCL: Running FEP window   9: Lambda1 0.39999999999999997 Lambda2 0.44999999999999996 [dLambda 0.04999999999999999]
TCL: Setting parameter firsttimestep to 0
TCL: Setting parameter alchLambda to 0.39999999999999997
Info: NONBONDED TABLE R-SQUARED SPACING: 0.0625
Info: NONBONDED TABLE SIZE: 705 POINTS
TCL: Setting parameter alchLambda2 to 0.44999999999999996
Info: NONBONDED TABLE R-SQUARED SPACING: 0.0625
Info: NONBONDED TABLE SIZE: 705 POINTS
TCL: Running for 1500000 steps
ETITLE: TS BOND ANGLE DIHED IMPRP ELECT VDW BOUNDARY MISC KINETIC TOTAL TEMP POTENTIAL TOTALAVG TEMPAVG PRESSURE GPRESSURE VOLUME PRESSAVG GPRESSAVG
ENERGY: 0 5.3501 11.6991 3.2459 0.0000 -10854.6647 1592.5611 0.0000 0.0000 1786.3281 -7455.4804 303.7922 -9241.8085 -7455.4804 303.7922 984.6036 1081.4021 30460.8736 984.6036 1081.4021
ENERGY: 300000 2.7728 7.3619 2.0416 0.0000 -10632.8030 1377.6991 0.0000 0.0000 1798.4681 -7444.4594 305.8568 -9242.9275 -7434.1413 305.9709 -131.2257 -70.9487 29682.4315 248.4931 314.4225
ENERGY: 600000 3.2670 6.4732 8.5224 0.0000 -10778.2524 1451.1496 0.0000 0.0000 1776.5226 -7532.3175 302.1247 -9308.8401 -7454.0653 304.2502 322.6988 418.9216 29531.6883 148.3790 198.6346
ENERGY: 900000 2.7893 10.3754 7.4467 0.0000 -10759.1214 1476.5800 0.0000 0.0000 1765.6483 -7496.2817 300.2753 -9261.9300 -7472.6744 301.8182 296.0863 331.2637 30246.5796 59.6574 113.6529
ENERGY: 1200000 5.3764 7.1430 7.3285 0.0000 -10578.3378 1400.8783 0.0000 0.0000 1795.3612 -7362.2505 305.3284 -9157.6117 -7457.4359 301.4607 -136.2951 -41.0190 30310.4492 83.7892 145.7016
ENERGY: 1500000 5.1083 7.3043 5.0972 0.0000 -10693.7284 1441.2656 0.0000 0.0000 1785.6152 -7449.3377 303.6710 -9234.9529 -7455.6898 300.9884 74.9589 134.8590 30022.1901 33.4922 92.4492
TCL: Running FEP window  10: Lambda1 0.44999999999999996 Lambda2 0.49999999999999994 [dLambda 0.04999999999999999]
TCL: Setting parameter firsttimestep to 0
TCL: Setting parameter alchLambda to 0.44999999999999996
Info: NONBONDED TABLE R-SQUARED SPACING: 0.0625
Info: NONBONDED TABLE SIZE: 705 POINTS
TCL: Setting parameter alchLambda2 to 0.49999999999999994
Info: NONBONDED TABLE R-SQUARED SPACING: 0.0625
Info: NONBONDED TABLE SIZE: 705 POINTS
TCL: Running for 1500000 steps
ETITLE: TS BOND ANGLE DIHED IMPRP ELECT VDW BOUNDARY MISC KINETIC TOTAL TEMP POTENTIAL TOTALAVG TEMPAVG PRESSURE GPRESSURE VOLUME PRESSAVG GPRESSAVG
ENERGY: 0 5.1083 7.3043 5.0972 0.0000 -10693.7289 1440.7210 0.0000 0.0000 1784.7408 -7450.7573 303.5223 -9235.4980 -7450.7573 303.5223 59.2126 138.4775 30022.1901 59.2126 138.4775
ENERGY: 300000 5.5230 10.3961 11.4554 0.0000 -10741.4499 1443.0724 0.0000 0.0000 1778.5289 -7492.4741 302.4658 -9271.0029 -7479.5147 303.8775 -182.1598 -51.3520 30211.9705 -69.4413 53.5491
ENERGY: 600000 4.1090 4.8741 5.9410 0.0000 -10825.0709 1496.0625 0.0000 0.0000 1757.9833 -7556.1009 298.9718 -9314.0843 -7490.0884 301.8831 450.0343 599.7610 29741.0055 -32.7673 76.2933
ENERGY: 900000 4.2404 6.8577 3.9315 0.0000 -10649.2595 1401.2794 0.0000 0.0000 1769.5917 -7463.3588 300.9459 -9232.9505 -7489.9799 300.4267 3.4906 104.9820 29866.2943 -54.5676 47.4813
ENERGY: 1200000 4.8299 5.4828 6.2113 0.0000 -10765.4134 1465.9963 0.0000 0.0000 1749.0386 -7533.8545 297.4506 -9282.8931 -7496.8100 299.4758 -157.4937 -136.2733 30616.6202 5.3355 98.4236
ENERGY: 1500000 4.1800 10.8435 5.5947 0.0000 -10769.6360 1473.1351 0.0000 0.0000 1725.3200 -7550.5626 293.4169 -9275.8826 -7496.3906 299.2670 157.2009 130.9234 30479.1414 34.6974 113.7111
TCL: Running FEP window  11: Lambda1 0.49999999999999994 Lambda2 0.5499999999999999 [dLambda 0.04999999999999999]
TCL: Setting parameter firsttimestep to 0
TCL: Setting parameter alchLambda to 0.49999999999999994
Info: NONBONDED TABLE R-SQUARED SPACING: 0.0625
Info: NONBONDED TABLE SIZE: 705 POINTS
TCL: Setting parameter alchLambda2 to 0.5499999999999999
Info: NONBONDED TABLE R-SQUARED SPACING: 0.0625
Info: NONBONDED TABLE SIZE: 705 POINTS
TCL: Running for 1500000 steps
ETITLE: TS BOND ANGLE DIHED IMPRP ELECT VDW BOUNDARY MISC KINETIC TOTAL TEMP POTENTIAL TOTALAVG TEMPAVG PRESSURE GPRESSURE VOLUME PRESSAVG GPRESSAVG
ENERGY: 0 4.1800 10.8435 5.5947 0.0000 -10769.6360 1473.0144 0.0000 0.0000 1724.4537 -7551.5497 293.2695 -9276.0033 -7551.5497 293.2695 65.1977 134.0138 30479.1414 65.1977 134.0138
ENERGY: 300000 5.6430 8.7325 5.4454 0.0000 -10719.6213 1505.5906 0.0000 0.0000 1816.0032 -7378.2066 308.8389 -9194.2098 -7465.9542 299.7408 747.4418 850.8257 30309.1533 -14.0581 53.8986
ENERGY: 600000 2.5781 4.5427 4.5164 0.0000 -10676.9592 1493.0819 0.0000 0.0000 1786.5281 -7385.7121 303.8262 -9172.2402 -7461.9695 300.0282 731.1381 733.4463 30207.4010 -55.3713 5.1513
ENERGY: 900000 2.2533 6.2465 2.7215 0.0000 -10656.0258 1404.7539 0.0000 0.0000 1745.1640 -7494.8866 296.7916 -9240.0506 -7457.0072 301.7729 -230.5555 -141.0697 30369.8504 55.4379 107.9032
ENERGY: 1200000 4.3201 4.5263 5.5978 0.0000 -10729.6583 1426.6143 0.0000 0.0000 1758.7612 -7529.8386 299.1041 -9288.5998 -7479.2994 300.7948 -235.0017 -96.8798 30374.1964 53.2128 114.2707
ENERGY: 1500000 3.9171 7.6481 10.7996 0.0000 -10773.4652 1508.6462 0.0000 0.0000 1822.4591 -7419.9952 309.9368 -9242.4543 -7481.8367 300.7526 539.4947 591.4107 30411.5891 24.5589 86.9467
TCL: Running FEP window  12: Lambda1 0.5499999999999999 Lambda2 0.6    [dLambda 0.050000000000000044]
TCL: Setting parameter firsttimestep to 0
TCL: Setting parameter alchLambda to 0.5499999999999999
Info: NONBONDED TABLE R-SQUARED SPACING: 0.0625
Info: NONBONDED TABLE SIZE: 705 POINTS
TCL: Setting parameter alchLambda2 to 0.6
Info: NONBONDED TABLE R-SQUARED SPACING: 0.0625
Info: NONBONDED TABLE SIZE: 705 POINTS
TCL: Running for 1500000 steps
ETITLE: TS BOND ANGLE DIHED IMPRP ELECT VDW BOUNDARY MISC KINETIC TOTAL TEMP POTENTIAL TOTALAVG TEMPAVG PRESSURE GPRESSURE VOLUME PRESSAVG GPRESSAVG
ENERGY: 0 3.9171 7.6481 10.7996 0.0000 -10773.5839 1509.0909 0.0000 0.0000 1821.6408 -7420.4875 309.7977 -9242.1282 -7420.4875 309.7977 506.8297 605.3383 30411.5891 506.8297 605.3383
ENERGY: 300000 3.0539 9.7598 3.4351 0.0000 -10651.5479 1397.8878 0.0000 0.0000 1706.1166 -7531.2946 290.1510 -9237.4112 -7485.5898 302.3334 -427.0503 -354.6625 30341.1210 -43.7996 13.6417
ENERGY: 600000 3.7367 4.1915 7.4570 0.0000 -10711.1286 1452.1837 0.0000 0.0000 1712.0729 -7531.4868 291.1640 -9243.5597 -7490.3001 299.0626 167.2737 216.9982 30245.5133 7.7739 54.3416
ENERGY: 900000 2.9281 12.2548 2.7302 0.0000 -10654.0190 1460.0469 0.0000 0.0000 1780.4359 -7395.6231 302.7902 -9176.0590 -7469.1167 300.6987 206.1900 347.0565 30338.7201 39.5749 87.9979
ENERGY: 1200000 3.7308 9.2480 6.3421 0.0000 -10802.5321 1489.2517 0.0000 0.0000 1763.2034 -7530.7561 299.8595 -9293.9595 -7480.2478 300.7864 316.5932 345.5241 30243.4259 105.1856 149.0717
ENERGY: 1500000 6.1500 7.6804 9.6503 0.0000 -10654.1947 1372.1281 0.0000 0.0000 1777.7540 -7480.8318 302.3341 -9258.5858 -7469.5108 301.2409 -595.6546 -554.1243 30106.0595 -22.7697 23.3231
TCL: Running FEP window  13: Lambda1 0.6    Lambda2 0.65   [dLambda 0.050000000000000044]
TCL: Setting parameter firsttimestep to 0
TCL: Setting parameter alchLambda to 0.6
Info: NONBONDED TABLE R-SQUARED SPACING: 0.0625
Info: NONBONDED TABLE SIZE: 705 POINTS
TCL: Setting parameter alchLambda2 to 0.65
Info: NONBONDED TABLE R-SQUARED SPACING: 0.0625
Info: NONBONDED TABLE SIZE: 705 POINTS
TCL: Running for 1500000 steps
ETITLE: TS BOND ANGLE DIHED IMPRP ELECT VDW BOUNDARY MISC KINETIC TOTAL TEMP POTENTIAL TOTALAVG TEMPAVG PRESSURE GPRESSURE VOLUME PRESSAVG GPRESSAVG
ENERGY: 0 6.1501 7.6804 9.6503 0.0000 -10653.9740 1372.0993 0.0000 0.0000 1776.8726 -7481.5213 302.1842 -9258.3939 -7481.5213 302.1842 -643.8019 -545.0751 30106.0595 -643.8019 -545.0751
ENERGY: 300000 3.2414 7.0339 8.9474 0.0000 -10536.3141 1376.7288 0.0000 0.0000 1761.5485 -7378.8140 299.5781 -9140.3625 -7466.8551 299.6277 -289.9923 -208.4068 30350.8444 -76.7037 -25.1439
ENERGY: 600000 2.4977 10.8555 5.6887 0.0000 -10480.0449 1377.6688 0.0000 0.0000 1715.9284 -7367.4058 291.8197 -9083.3342 -7445.1371 300.4966 -276.8337 -263.9058 31379.5015 -82.3741 -40.4614
ENERGY: 900000 3.8414 7.3904 5.2935 0.0000 -10679.0514 1411.6614 0.0000 0.0000 1746.6959 -7504.1688 297.0522 -9250.8647 -7474.5015 299.3785 -208.7488 -133.1325 30575.4858 -157.9304 -114.3188
ENERGY: 1200000 6.0722 9.6397 8.3207 0.0000 -10712.6741 1449.5324 0.0000 0.0000 1781.1606 -7457.9485 302.9134 -9239.1091 -7467.0367 300.1347 130.0698 165.6309 30027.3912 -58.7577 -14.1424
ENERGY: 1500000 4.6846 5.2215 8.1803 0.0000 -10546.6192 1339.9060 0.0000 0.0000 1727.2144 -7461.4124 293.7390 -9188.6268 -7460.1409 299.2765 -574.1960 -499.5195 30439.1518 -37.3089 18.5652
TCL: Running FEP window  14: Lambda1 0.65   Lambda2 0.7000000000000001 [dLambda 0.050000000000000044]
TCL: Setting parameter firsttimestep to 0
TCL: Setting parameter alchLambda to 0.65
Info: NONBONDED TABLE R-SQUARED SPACING: 0.0625
Info: NONBONDED TABLE SIZE: 705 POINTS
TCL: Setting parameter alchLambda2 to 0.7000000000000001
Info: NONBONDED TABLE R-SQUARED SPACING: 0.0625
Info: NONBONDED TABLE SIZE: 705 POINTS
TCL: Running for 1500000 steps
ETITLE: TS BOND ANGLE DIHED IMPRP ELECT VDW BOUNDARY MISC KINETIC TOTAL TEMP POTENTIAL TOTALAVG TEMPAVG PRESSURE GPRESSURE VOLUME PRESSAVG GPRESSAVG
ENERGY: 0 4.6846 5.2215 8.1803 0.0000 -10546.7801 1339.0923 0.0000 0.0000 1726.3287 -7463.2726 293.5884 -9189.6014 -7463.2726 293.5884 -583.7445 -497.3424 30439.1518 -583.7445 -497.3424
ENERGY: 300000 4.2721 5.5464 3.4170 0.0000 -10770.0930 1478.5783 0.0000 0.0000 1809.8501 -7468.4293 307.7925 -9278.2793 -7501.8682 300.4689 246.9878 299.4422 30071.2427 -222.9571 -185.5278
ENERGY: 600000 3.8150 7.3962 7.2914 0.0000 -10592.3342 1347.8878 0.0000 0.0000 1808.3436 -7417.6001 307.5363 -9225.9437 -7467.7480 302.8858 -873.7398 -802.5157 30658.3092 -328.4656 -273.6857
ENERGY: 900000 4.2064 7.1431 6.0936 0.0000 -10589.6728 1360.0550 0.0000 0.0000 1730.7810 -7481.3937 294.3456 -9212.1747 -7479.3760 300.6599 -792.3127 -675.1073 30559.2916 -272.4838 -206.2338
ENERGY: 1200000 3.8806 5.8101 5.9465 0.0000 -10818.8017 1524.2274 0.0000 0.0000 1727.7304 -7551.2068 293.8268 -9278.9371 -7486.7595 299.4608 458.2241 480.7428 30644.3794 -207.3567 -149.4445
ENERGY: 1500000 6.3116 8.1639 4.2836 0.0000 -10669.0081 1406.4574 0.0000 0.0000 1812.0455 -7431.7462 308.1659 -9243.7916 -7475.2085 300.7164 -236.0353 -140.2694 30167.2392 -170.4965 -106.3776
TCL: Running FEP window  15: Lambda1 0.7000000000000001 Lambda2 0.7500000000000001 [dLambda 0.050000000000000044]
TCL: Setting parameter firsttimestep to 0
TCL: Setting parameter alchLambda to 0.7000000000000001
Info: NONBONDED TABLE R-SQUARED SPACING: 0.0625
Info: NONBONDED TABLE SIZE: 705 POINTS
TCL: Setting parameter alchLambda2 to 0.7500000000000001
Info: NONBONDED TABLE R-SQUARED SPACING: 0.0625
Info: NONBONDED TABLE SIZE: 705 POINTS
TCL: Running for 1500000 steps
ETITLE: TS BOND ANGLE DIHED IMPRP ELECT VDW BOUNDARY MISC KINETIC TOTAL TEMP POTENTIAL TOTALAVG TEMPAVG PRESSURE GPRESSURE VOLUME PRESSAVG GPRESSAVG
ENERGY: 0 6.3116 8.1639 4.2837 0.0000 -10669.2043 1406.2997 0.0000 0.0000 1811.1589 -7432.9866 308.0151 -9244.1455 -7432.9866 308.0151 -209.9513 -126.4001 30167.2392 -209.9513 -126.4001
ENERGY: 300000 2.2252 7.9451 3.0548 0.0000 -10766.9029 1486.9066 0.0000 0.0000 1771.9968 -7494.7743 301.3550 -9266.7711 -7425.7703 304.3559 506.4046 547.5680 30071.7704 -157.9375 -100.3762
ENERGY: 600000 8.5049 7.4079 4.5594 0.0000 -10698.8355 1413.5965 0.0000 0.0000 1705.8827 -7558.8840 290.1113 -9264.7667 -7467.8429 299.2997 -209.7080 -207.3165 30483.1410 -176.9457 -119.2953
ENERGY: 900000 2.1443 4.2770 3.5975 0.0000 -10600.1197 1416.7574 0.0000 0.0000 1758.3014 -7415.0423 299.0258 -9173.3436 -7454.5799 300.0148 -53.2333 29.5451 30540.0063 -32.7921 26.5826
ENERGY: 1200000 5.5908 7.2633 5.1089 0.0000 -10665.5950 1409.5799 0.0000 0.0000 1807.2762 -7430.7759 307.3548 -9238.0521 -7454.8742 300.2170 -330.5614 -310.5391 30577.0850 -113.2908 -51.4495
ENERGY: 1500000 2.0469 9.8284 4.6532 0.0000 -10755.0358 1461.5082 0.0000 0.0000 1736.5393 -7540.4599 295.3249 -9276.9991 -7462.8515 299.6239 -12.2820 40.7293 30314.3743 -85.3623 -22.2754
TCL: Running FEP window  16: Lambda1 0.7500000000000001 Lambda2 0.8000000000000002 [dLambda 0.050000000000000044]
TCL: Setting parameter firsttimestep to 0
TCL: Setting parameter alchLambda to 0.7500000000000001
Info: NONBONDED TABLE R-SQUARED SPACING: 0.0625
Info: NONBONDED TABLE SIZE: 705 POINTS
TCL: Setting parameter alchLambda2 to 0.8000000000000002
Info: NONBONDED TABLE R-SQUARED SPACING: 0.0625
Info: NONBONDED TABLE SIZE: 705 POINTS
TCL: Running for 1500000 steps
ETITLE: TS BOND ANGLE DIHED IMPRP ELECT VDW BOUNDARY MISC KINETIC TOTAL TEMP POTENTIAL TOTALAVG TEMPAVG PRESSURE GPRESSURE VOLUME PRESSAVG GPRESSAVG
ENERGY: 0 2.0469 9.8284 4.6532 0.0000 -10756.4765 1461.5556 0.0000 0.0000 1735.7151 -7542.6774 295.1847 -9278.3925 -7542.6774 295.1847 -34.0804 52.8828 30314.3743 -34.0804 52.8828
ENERGY: 300000 2.6112 9.9286 7.0627 0.0000 -10805.9958 1480.8258 0.0000 0.0000 1780.6228 -7524.9448 302.8220 -9305.5676 -7526.8616 296.4369 218.7691 305.5537 30071.8060 -89.1802 1.9122
ENERGY: 600000 4.6332 8.6375 5.3576 0.0000 -10727.1543 1445.9740 0.0000 0.0000 1762.3341 -7500.2180 299.7117 -9262.5521 -7506.3875 298.9584 -299.5129 -231.0696 30548.0049 -146.4604 -78.7063
ENERGY: 900000 1.3011 9.2960 6.1789 0.0000 -10814.1883 1526.9255 0.0000 0.0000 1775.7682 -7494.7186 301.9963 -9270.4868 -7502.8329 298.3960 1055.5853 1155.1742 29760.3805 -86.2073 -16.7830
ENERGY: 1200000 5.3370 4.4581 6.1698 0.0000 -10792.3098 1482.2147 0.0000 0.0000 1748.1804 -7545.9496 297.3046 -9294.1301 -7489.7249 298.9416 -185.9922 -50.4804 30749.5698 -22.8473 45.3862
ENERGY: 1500000 4.1141 8.6476 4.1288 0.0000 -10559.7720 1358.5394 0.0000 0.0000 1761.8106 -7422.5316 299.6226 -9184.3421 -7480.2208 299.0622 -604.5553 -553.1201 30497.8144 -125.5647 -61.6702
TCL: Running FEP window  17: Lambda1 0.8000000000000002 Lambda2 0.8500000000000002 [dLambda 0.050000000000000044]
TCL: Setting parameter firsttimestep to 0
TCL: Setting parameter alchLambda to 0.8000000000000002
Info: NONBONDED TABLE R-SQUARED SPACING: 0.0625
Info: NONBONDED TABLE SIZE: 705 POINTS
TCL: Setting parameter alchLambda2 to 0.8500000000000002
Info: NONBONDED TABLE R-SQUARED SPACING: 0.0625
Info: NONBONDED TABLE SIZE: 705 POINTS
TCL: Running for 1500000 steps
ETITLE: TS BOND ANGLE DIHED IMPRP ELECT VDW BOUNDARY MISC KINETIC TOTAL TEMP POTENTIAL TOTALAVG TEMPAVG PRESSURE GPRESSURE VOLUME PRESSAVG GPRESSAVG
ENERGY: 0 4.1140 8.6476 4.1288 0.0000 -10560.9587 1358.9949 0.0000 0.0000 1760.8832 -7424.1902 299.4649 -9185.0734 -7424.1902 299.4649 -623.7339 -541.2298 30497.8144 -623.7339 -541.2298
ENERGY: 300000 3.6045 10.3324 5.9619 0.0000 -10783.8967 1476.8336 0.0000 0.0000 1772.5483 -7514.6160 301.4488 -9287.1642 -7494.3973 300.9743 169.3030 309.9568 30186.4080 -118.4503 -22.7733
ENERGY: 600000 3.6295 4.4465 10.4878 0.0000 -10612.8177 1380.0312 0.0000 0.0000 1804.9184 -7409.3043 306.9538 -9214.2228 -7477.7280 301.3375 -172.2491 -132.6094 30582.5449 -64.6480 3.4054
ENERGY: 900000 3.5141 3.6493 4.9890 0.0000 -10674.9329 1396.3005 0.0000 0.0000 1824.7825 -7441.6976 310.3320 -9266.4801 -7471.7482 301.6265 -504.2080 -491.8346 30572.5408 -84.0009 -30.9303
ENERGY: 1200000 2.6516 8.2157 8.0179 0.0000 -10723.4537 1411.8520 0.0000 0.0000 1773.8442 -7518.8722 301.6692 -9292.7165 -7471.2029 300.8196 -212.4769 -117.4113 29937.6739 -105.2825 -47.3665
ENERGY: 1500000 2.3105 4.2638 3.9542 0.0000 -10716.1413 1450.2724 0.0000 0.0000 1703.1073 -7552.2330 289.6393 -9255.3403 -7469.5353 299.8958 299.0627 386.7757 30228.1910 -144.0473 -83.7015
TCL: Running FEP window  18: Lambda1 0.8500000000000002 Lambda2 0.9000000000000002 [dLambda 0.050000000000000044]
TCL: Setting parameter firsttimestep to 0
TCL: Setting parameter alchLambda to 0.8500000000000002
Info: NONBONDED TABLE R-SQUARED SPACING: 0.0625
Info: NONBONDED TABLE SIZE: 705 POINTS
TCL: Setting parameter alchLambda2 to 0.9000000000000002
Info: NONBONDED TABLE R-SQUARED SPACING: 0.0625
Info: NONBONDED TABLE SIZE: 705 POINTS
TCL: Running for 1500000 steps
ETITLE: TS BOND ANGLE DIHED IMPRP ELECT VDW BOUNDARY MISC KINETIC TOTAL TEMP POTENTIAL TOTALAVG TEMPAVG PRESSURE GPRESSURE VOLUME PRESSAVG GPRESSAVG
ENERGY: 0 2.3105 4.2638 3.9542 0.0000 -10717.9111 1451.7003 0.0000 0.0000 1702.2421 -7553.4401 289.4921 -9255.6822 -7553.4401 289.4921 331.3091 415.9261 30228.1910 331.3091 415.9261
ENERGY: 300000 6.7601 3.5894 7.5659 0.0000 -10794.6294 1463.5900 0.0000 0.0000 1752.8886 -7560.2354 298.1053 -9313.1240 -7528.4571 297.1163 -177.1325 -89.6306 30531.1650 28.9598 75.1045
ENERGY: 600000 3.2287 6.9388 5.7106 0.0000 -10749.9413 1443.8317 0.0000 0.0000 1721.4203 -7568.8113 292.7537 -9290.2316 -7510.6299 298.7478 51.7015 95.6321 30090.8798 -29.5262 13.8318
ENERGY: 900000 4.2227 9.2156 9.2134 0.0000 -10731.1615 1443.2158 0.0000 0.0000 1810.3199 -7454.9740 307.8724 -9265.2939 -7508.5500 298.8109 -177.4978 -180.0416 30736.4022 -86.3690 -44.7904
ENERGY: 1200000 5.5004 6.6291 9.7998 0.0000 -10651.9840 1401.7162 0.0000 0.0000 1812.9591 -7415.3794 308.3212 -9228.3385 -7497.2054 300.9691 -484.2668 -384.9680 30888.4928 -211.0820 -160.8977
ENERGY: 1500000 4.5800 3.2308 9.8458 0.0000 -10656.8591 1415.4707 0.0000 0.0000 1804.5635 -7419.1683 306.8934 -9223.7318 -7481.8454 301.1279 9.7539 91.7171 30219.2024 -221.7250 -167.6619
TCL: Running FEP window  19: Lambda1 0.9000000000000002 Lambda2 0.9500000000000003 [dLambda 0.050000000000000044]
TCL: Setting parameter firsttimestep to 0
TCL: Setting parameter alchLambda to 0.9000000000000002
Info: NONBONDED TABLE R-SQUARED SPACING: 0.0625
Info: NONBONDED TABLE SIZE: 705 POINTS
TCL: Setting parameter alchLambda2 to 0.9500000000000003
Info: NONBONDED TABLE R-SQUARED SPACING: 0.0625
Info: NONBONDED TABLE SIZE: 705 POINTS
TCL: Running for 1500000 steps
ETITLE: TS BOND ANGLE DIHED IMPRP ELECT VDW BOUNDARY MISC KINETIC TOTAL TEMP POTENTIAL TOTALAVG TEMPAVG PRESSURE GPRESSURE VOLUME PRESSAVG GPRESSAVG
ENERGY: 0 4.5800 3.2308 9.8458 0.0000 -10657.9179 1416.4670 0.0000 0.0000 1803.6746 -7420.1197 306.7423 -9223.7943 -7420.1197 306.7423 33.1742 120.6729 30219.2024 33.1742 120.6729
ENERGY: 300000 3.9846 4.9625 4.7121 0.0000 -10788.7049 1455.8270 0.0000 0.0000 1713.5063 -7605.7125 291.4078 -9319.2188 -7517.0660 296.8549 110.0241 141.5306 30191.6233 -181.4166 -119.2763
ENERGY: 600000 5.1296 6.2518 8.5508 0.0000 -10804.0107 1560.5105 0.0000 0.0000 1795.1473 -7428.4207 305.2921 -9223.5681 -7490.6573 299.2413 1009.6512 1056.7605 30186.5122 108.2934 168.9924
ENERGY: 900000 4.8736 7.1461 10.8921 0.0000 -10612.6659 1395.5839 0.0000 0.0000 1749.8256 -7444.3445 297.5844 -9194.1701 -7484.5264 298.6808 -176.2848 -160.7002 30621.2642 97.7083 153.9351
ENERGY: 1200000 3.5750 9.4763 3.9899 0.0000 -10760.5281 1448.9299 0.0000 0.0000 1714.2442 -7580.3128 291.5333 -9294.5569 -7500.3084 297.5352 -211.6050 -128.7893 30392.1378 -36.4315 20.9239
ENERGY: 1500000 3.4601 8.5498 4.1065 0.0000 -10807.2426 1520.3184 0.0000 0.0000 1749.4837 -7521.3241 297.5263 -9270.8078 -7491.7833 298.8931 566.7634 583.6701 30377.6366 -27.1554 26.5217
TCL: Running FEP window  20: Lambda1 0.9500000000000003 Lambda2 1.0    [dLambda 0.04999999999999971]
TCL: Setting parameter firsttimestep to 0
TCL: Setting parameter alchLambda to 0.9500000000000003
Info: NONBONDED TABLE R-SQUARED SPACING: 0.0625
Info: NONBONDED TABLE SIZE: 705 POINTS
TCL: Setting parameter alchLambda2 to 1.0
Info: NONBONDED TABLE R-SQUARED SPACING: 0.0625
Info: NONBONDED TABLE SIZE: 705 POINTS
TCL: Running for 1500000 steps
ETITLE: TS BOND ANGLE DIHED IMPRP ELECT VDW BOUNDARY MISC KINETIC TOTAL TEMP POTENTIAL TOTALAVG TEMPAVG PRESSURE GPRESSURE VOLUME PRESSAVG GPRESSAVG
ENERGY: 0 3.4601 8.5498 4.1065 0.0000 -10809.2656 1522.1603 0.0000 0.0000 1748.6149 -7522.3739 297.3785 -9270.9888 -7522.3739 297.3785 541.6759 618.4190 30377.6366 541.6759 618.4190
ENERGY: 300000 3.6290 10.1703 4.9791 0.0000 -10753.3347 1456.5384 0.0000 0.0000 1735.2834 -7542.7345 295.1113 -9278.0179 -7513.3035 297.4311 -154.3740 -10.6300 30452.2885 59.6298 148.5347
ENERGY: 600000 5.9616 6.8533 5.6979 0.0000 -10748.0215 1479.0934 0.0000 0.0000 1765.9325 -7484.4828 300.3236 -9250.4152 -7507.5571 300.1228 375.3707 397.6775 30414.4804 352.9349 413.1557
ENERGY: 900000 4.9235 8.1427 8.8160 0.0000 -10639.2711 1349.0732 0.0000 0.0000 1783.9601 -7484.3555 303.3895 -9268.3157 -7488.2021 301.0259 -829.1394 -746.1313 30641.8445 61.6387 133.8294
ENERGY: 1200000 3.5512 6.9950 1.8288 0.0000 -10669.4612 1442.3427 0.0000 0.0000 1845.3521 -7369.3914 313.8301 -9214.7434 -7480.8147 301.7717 252.3173 265.1640 30343.4748 138.3090 204.9691
ENERGY: 1500000 2.6060 4.5033 6.0394 0.0000 -10756.2983 1495.4977 0.0000 0.0000 1788.6164 -7459.0354 304.1814 -9247.6519 -7472.3406 301.7325 193.8699 300.8029 30783.1890 73.4428 142.8230
TCL: Exiting due to exit command.
