Info: SIMULATION PARAMETERS:
Info: TIMESTEP               2
Info: NUMBER OF STEPS        0
Info: STEPS PER CYCLE        10
Info: PERIODIC CELL BASIS 1  33.0853 0 0
Info: PERIODIC CELL BASIS 2  0 30.2792 0
Info: PERIODIC CELL BASIS 3  0 0 30.2518
Info: PERIODIC CELL CENTER   0 0 0
Info: WRAPPING WATERS AROUND PERIODIC BOUNDARIES ON OUTPUT.
Info: WRAPPING ALL CLUSTERS AROUND PERIODIC BOUNDARIES ON OUTPUT.
Info: FIRST LDB TIMESTEP     50
Info: LAST LDB TIMESTEP     -1
Info: HOM BACKGROUND SCALING 1
Info: PME BACKGROUND SCALING 1
Info: MIN ATOMS PER PATCH    40
Info: EMPTY PATCH LOAD       40 ATOMS
Info: VELOCITY FILE          mobley_1875719_equil.vel
Info: CENTER OF MASS MOVING INITIALLY? NO
Info: DIELECTRIC             1
Info: EXCLUDE                SCALED ONE-FOUR
Info: 1-4 ELECTROSTATICS SCALED BY 0.833333
Info: MODIFIED 1-4 VDW PARAMETERS WILL BE USED
Info: DCD FILENAME           mobley_1875719_prod.dcd
Info: DCD FREQUENCY          100000
Info: DCD FIRST STEP         100000
Info: DCD FILE WILL CONTAIN UNIT CELL DATA
Info: XST FILENAME           mobley_1875719_prod.xst
Info: XST FREQUENCY          100000
Info: NO VELOCITY DCD OUTPUT
Info: NO FORCE DCD OUTPUT
Info: OUTPUT FILENAME        mobley_1875719_prod
Info: BINARY OUTPUT FILES WILL BE USED
Info: RESTART FILENAME       mobley_1875719_prod.restart
Info: RESTART FREQUENCY      100000
Info: BINARY RESTART FILES WILL BE USED
Info: CUTOFF                 9
Info: PAIRLIST DISTANCE      11
Info: PAIRLIST SHRINK RATE   0.01
Info: PAIRLIST GROW RATE     0.01
Info: PAIRLIST TRIGGER       0.3
Info: PAIRLISTS PER CYCLE    2
Info: PAIRLISTS ENABLED
Info: MARGIN                 2
Info: HYDROGEN GROUP CUTOFF  2.5
Info: PATCH DIMENSION        15.5
Info: ENERGY OUTPUT STEPS    100000
Info: ENERGY EVALUATION STEPS    100000
Info: OUTPUT ENERGY PRECISION 4
Info: CROSSTERM ENERGY INCLUDED IN DIHEDRAL
Info: TIMING OUTPUT STEPS    1000000
Info: PRESSURE OUTPUT STEPS  100000
Info: ALCHEMICAL FEP ON
Info: FEP CURRENT LAMBDA VALUE     1
Info: FEP COMPARISON LAMBDA VALUE  0.95
Info: FEP INTRA-ALCHEMICAL NON-BONDED INTERACTIONS WILL BE RETAINED
Info: FEP INTRA-ALCHEMICAL BONDED INTERACTIONS WILL BE RETAINED
Info: FEP VDW SHIFTING COEFFICIENT 5
Info: FEP ELEC. ACTIVE FOR ANNIHILATED PARTICLES BETWEEN LAMBDA = 0 AND LAMBDA = 0.5
Info: FEP ELEC. ACTIVE FOR EXNIHILATED PARTICLES BETWEEN LAMBDA = 0.5 AND LAMBDA = 1
Info: FEP VDW ACTIVE FOR ANNIHILATED PARTICLES BETWEEN LAMBDA = 0 AND LAMBDA = 1
Info: FEP VDW ACTIVE FOR EXNIHILATED PARTICLES BETWEEN LAMBDA = 0 AND LAMBDA = 1
Info: FEP BOND ACTIVE FOR ANNIHILATED PARTICLES BETWEEN LAMBDA = 1 AND LAMBDA = 1
Info: FEP BOND ACTIVE FOR EXNIHILATED PARTICLES BETWEEN LAMBDA = 0 AND LAMBDA = 0
Info: LANGEVIN DYNAMICS ACTIVE
Info: LANGEVIN TEMPERATURE   300
Info: LANGEVIN USING BBK INTEGRATOR
Info: LANGEVIN DAMPING COEFFICIENT IS 1 INVERSE PS
Info: LANGEVIN DYNAMICS APPLIED TO HYDROGENS
Info: LANGEVIN PISTON PRESSURE CONTROL ACTIVE
Info:        TARGET PRESSURE IS 1.01325 BAR
Info:     OSCILLATION PERIOD IS 50 FS
Info:             DECAY TIME IS 25 FS
Info:     PISTON TEMPERATURE IS 300 K
Info:       PRESSURE CONTROL IS GROUP-BASED
Info:    INITIAL STRAIN RATE IS -0.000324767 -0.000324767 -0.000324767
Info:       CELL FLUCTUATION IS ISOTROPIC
Info: PARTICLE MESH EWALD (PME) ACTIVE
Info: PME TOLERANCE               1e-06
Info: PME EWALD COEFFICIENT       0.348832
Info: PME INTERPOLATION ORDER     4
Info: PME GRID DIMENSIONS         36 32 32
Info: PME MAXIMUM GRID SPACING    1
Info: PME CALCULATION WILL BE PERFORMED ON GPU
Info: FULL ELECTROSTATIC EVALUATION FREQUENCY      2
Info: USING VERLET I (r-RESPA) MTS SCHEME.
Info: C1 SPLITTING OF LONG RANGE ELECTROSTATICS
Info: PLACING ATOMS IN PATCHES BY HYDROGEN GROUPS
Info: RIGID BONDS TO HYDROGEN : ALL
Info:         ERROR TOLERANCE : 1e-08
Info:          MAX ITERATIONS : 100
Info: RIGID WATER USING SETTLE ALGORITHM
Info: RANDOM NUMBER SEED     1743840958
Info: USE HYDROGEN BONDS?    NO
Info: Using AMBER format force field!
Info: AMBER PARM FILE        mobley_1875719.prmtop
Info: COORDINATE PDB         mobley_1875719.pdb
Info: Exclusions will be read from PARM file!
Info: SCNB (VDW SCALING)     2
Info: USING ARITHMETIC MEAN TO COMBINE L-J SIGMA PARAMETERS
Info: BINARY COORDINATES     mobley_1875719_equil.coor
Info: SUMMARY OF PARAMETERS:
Info: 6 BONDS
Info: 6 ANGLES
Info:   6 HARMONIC
Info:   0 COSINE-BASED
Info: 7 DIHEDRAL
Info: 0 IMPROPER
Info: 0 CROSSTERM
Info: 0 VDW
Info: 21 VDW_PAIRS
Info: 0 NBTHOLE_PAIRS
Info: To read alchdata from file: mobley_1875719.pdb
Info: To read alchflag data from column: 5
Info: STRUCTURE SUMMARY:
Info: 2950 ATOMS
Info: 2949 BONDS
Info: 27 ANGLES
Info: 39 DIHEDRALS
Info: 0 IMPROPERS
Info: 0 CROSSTERMS
Info: 3006 EXCLUSIONS
Info: 2944 RIGID BONDS
Info: ALCH: 0 ATOMS TO DISAPPEAR IN FINAL STATE
Info: ALCH: 16 ATOMS TO APPEAR IN FINAL STATE
Info: 5906 DEGREES OF FREEDOM
Info: 984 HYDROGEN GROUPS
Info: 4 ATOMS IN LARGEST HYDROGEN GROUP
Info: 984 MIGRATION GROUPS
Info: 4 ATOMS IN LARGEST MIGRATION GROUP
Info: TOTAL MASS = 17705.8 amu
Info: TOTAL CHARGE = -1.49012e-08 e
Info: MASS DENSITY = 0.970162 g/cm^3
Info: ATOM DENSITY = 0.0973401 atoms/A^3
Info: ADDED 0 IMPLICIT EXCLUSIONS
Info: NONBONDED TABLE R-SQUARED SPACING: 0.0625
Info: NONBONDED TABLE SIZE: 705 POINTS
Info: REMOVING COM VELOCITY 0.0332193 -0.154933 0.0282049
Info: Use 3D box decompostion in PME FFT.
Info: Updated CUDA force table with 4096 elements.
Info: Updated CUDA LJ table with 6 x 6 elements.
Info: Found 19 unique exclusion lists needing 40 bytes
TCL: Running for 1500000 steps
ETITLE: TS BOND ANGLE DIHED IMPRP ELECT VDW BOUNDARY MISC KINETIC TOTAL TEMP POTENTIAL TOTALAVG TEMPAVG PRESSURE GPRESSURE VOLUME PRESSAVG GPRESSAVG
ENERGY: 0 0.8802 8.4515 5.2279 0.0000 -10558.4791 1335.0127 0.0000 0.0000 1762.4530 -7446.4538 300.3409 -9208.9068 -7446.4538 300.3409 -455.0030 -361.9498 30306.1061 -455.0030 -361.9498
ENERGY: 300000 2.1810 7.7109 3.3139 0.0000 -10680.7156 1477.9320 0.0000 0.0000 1816.0234 -7373.5544 309.4699 -9189.5778 -7445.2633 302.2221 399.5052 465.2536 30791.3908 62.5359 123.3747
ENERGY: 600000 2.0641 5.8347 3.6387 0.0000 -10752.1896 1463.0903 0.0000 0.0000 1754.5299 -7523.0319 298.9907 -9277.5618 -7480.1379 300.2569 315.7995 309.7681 30080.5719 -58.3921 0.5232
ENERGY: 900000 1.4982 7.8838 3.7829 0.0000 -10753.3837 1404.9076 0.0000 0.0000 1776.1613 -7559.1499 302.6769 -9335.3112 -7496.2932 301.2003 -473.1887 -367.8917 30217.1508 -105.6562 -36.5903
ENERGY: 1200000 0.3859 6.1677 2.5273 0.0000 -10660.2742 1407.2279 0.0000 0.0000 1758.6861 -7485.2793 299.6990 -9243.9653 -7493.3537 301.0711 -85.4441 -66.3696 30426.1639 -16.3763 45.2565
ENERGY: 1500000 2.7702 4.3714 3.0356 0.0000 -10730.7368 1480.0325 0.0000 0.0000 1754.5073 -7486.0199 298.9869 -9240.5272 -7485.1204 301.4119 502.6602 628.8072 30089.1222 2.0145 71.1281
TCL: Running FEP window   2: Lambda1 0.95   Lambda2 0.8999999999999999 [dLambda -0.050000000000000044]
TCL: Setting parameter firsttimestep to 0
TCL: Setting parameter alchLambda to 0.95
Info: NONBONDED TABLE R-SQUARED SPACING: 0.0625
Info: NONBONDED TABLE SIZE: 705 POINTS
TCL: Setting parameter alchLambda2 to 0.8999999999999999
Info: NONBONDED TABLE R-SQUARED SPACING: 0.0625
Info: NONBONDED TABLE SIZE: 705 POINTS
TCL: Running for 1500000 steps
ETITLE: TS BOND ANGLE DIHED IMPRP ELECT VDW BOUNDARY MISC KINETIC TOTAL TEMP POTENTIAL TOTALAVG TEMPAVG PRESSURE GPRESSURE VOLUME PRESSAVG GPRESSAVG
ENERGY: 0 2.7702 4.3714 3.0356 0.0000 -10729.2638 1480.1837 0.0000 0.0000 1753.6205 -7485.2824 298.8357 -9238.9029 -7485.2824 298.8357 537.8570 624.3770 30089.1222 537.8570 624.3770
ENERGY: 300000 2.1354 6.1922 2.3046 0.0000 -10542.3619 1334.8250 0.0000 0.0000 1763.2161 -7433.6886 300.4709 -9196.9046 -7529.5802 291.6790 -663.6436 -598.2215 30532.4618 355.4470 411.0373
ENERGY: 600000 0.3508 5.4530 2.7487 0.0000 -10571.3916 1343.2640 0.0000 0.0000 1720.9204 -7498.6547 293.2633 -9219.5751 -7504.8814 294.0233 -592.9809 -494.5160 30404.7282 85.7958 155.8730
ENERGY: 900000 2.7409 4.5879 2.4974 0.0000 -10731.6931 1413.8271 0.0000 0.0000 1791.4103 -7516.6294 305.2755 -9308.0398 -7489.5935 296.3783 -336.8031 -304.2084 30243.0152 -1.6049 60.8953
ENERGY: 1200000 3.4242 5.8041 1.8038 0.0000 -10578.8853 1379.1581 0.0000 0.0000 1745.1695 -7443.5256 297.3956 -9188.6951 -7485.9492 296.6862 -562.0284 -513.0782 30811.2710 -99.8934 -28.7981
ENERGY: 1500000 3.9128 7.9137 4.5464 0.0000 -10640.3493 1423.5900 0.0000 0.0000 1762.3917 -7437.9948 300.3305 -9200.3865 -7486.2951 297.1806 35.7569 144.3253 30185.2041 -117.3539 -46.8284
TCL: Running FEP window   3: Lambda1 0.8999999999999999 Lambda2 0.8499999999999999 [dLambda -0.050000000000000044]
TCL: Setting parameter firsttimestep to 0
TCL: Setting parameter alchLambda to 0.8999999999999999
Info: NONBONDED TABLE R-SQUARED SPACING: 0.0625
Info: NONBONDED TABLE SIZE: 705 POINTS
TCL: Setting parameter alchLambda2 to 0.8499999999999999
Info: NONBONDED TABLE R-SQUARED SPACING: 0.0625
Info: NONBONDED TABLE SIZE: 705 POINTS
TCL: Running for 1500000 steps
ETITLE: TS BOND ANGLE DIHED IMPRP ELECT VDW BOUNDARY MISC KINETIC TOTAL TEMP POTENTIAL TOTALAVG TEMPAVG PRESSURE GPRESSURE VOLUME PRESSAVG GPRESSAVG
ENERGY: 0 3.9128 7.9137 4.5464 0.0000 -10639.0683 1422.9314 0.0000 0.0000 1761.5132 -7438.2509 300.1808 -9199.7641 -7438.2509 300.1808 26.6100 125.8265 30185.2041 26.6100 125.8265
ENERGY: 300000 1.6698 8.8087 2.5714 0.0000 -10696.4021 1393.8465 0.0000 0.0000 1760.2553 -7529.2505 299.9664 -9289.5059 -7461.7813 304.1346 -770.6583 -696.5433 30937.6370 115.2957 181.9545
ENERGY: 600000 1.3040 9.9869 2.4001 0.0000 -10706.5417 1480.9198 0.0000 0.0000 1746.9962 -7464.9346 297.7069 -9211.9309 -7453.4621 301.9915 412.6165 541.7296 30115.6952 194.5975 283.4791
ENERGY: 900000 0.6035 6.4950 2.7534 0.0000 -10593.3058 1344.4626 0.0000 0.0000 1760.1194 -7478.8719 299.9432 -9238.9913 -7456.3479 301.6077 -485.0464 -466.3783 30427.9485 145.5998 218.5633
ENERGY: 1200000 1.4540 4.8948 2.7707 0.0000 -10649.4179 1411.8052 0.0000 0.0000 1790.3328 -7438.1603 305.0919 -9228.4931 -7457.8579 302.1077 134.0567 187.3789 29918.6148 12.0859 79.5961
ENERGY: 1500000 0.3198 6.6963 3.6444 0.0000 -10743.1829 1522.6284 0.0000 0.0000 1778.0648 -7431.8291 303.0013 -9209.8939 -7463.8179 301.7339 830.3112 839.3150 30156.2865 91.7876 157.1356
TCL: Running FEP window   4: Lambda1 0.8499999999999999 Lambda2 0.7999999999999998 [dLambda -0.050000000000000044]
TCL: Setting parameter firsttimestep to 0
TCL: Setting parameter alchLambda to 0.8499999999999999
Info: NONBONDED TABLE R-SQUARED SPACING: 0.0625
Info: NONBONDED TABLE SIZE: 705 POINTS
TCL: Setting parameter alchLambda2 to 0.7999999999999998
Info: NONBONDED TABLE R-SQUARED SPACING: 0.0625
Info: NONBONDED TABLE SIZE: 705 POINTS
TCL: Running for 1500000 steps
ETITLE: TS BOND ANGLE DIHED IMPRP ELECT VDW BOUNDARY MISC KINETIC TOTAL TEMP POTENTIAL TOTALAVG TEMPAVG PRESSURE GPRESSURE VOLUME PRESSAVG GPRESSAVG
ENERGY: 0 0.3198 6.6963 3.6444 0.0000 -10742.1440 1521.5913 0.0000 0.0000 1777.1799 -7432.7123 302.8505 -9209.8922 -7432.7123 302.8505 719.1518 816.6794 30156.2865 719.1518 816.6794
ENERGY: 300000 3.0769 7.9219 4.0977 0.0000 -10709.7663 1495.9611 0.0000 0.0000 1799.7977 -7398.9110 306.7048 -9198.7087 -7416.9672 303.7692 743.7237 823.5443 30080.9337 389.1394 491.2032
ENERGY: 600000 3.7007 8.1901 4.5808 0.0000 -10705.7873 1422.3862 0.0000 0.0000 1778.3338 -7488.5958 303.0472 -9266.9296 -7445.1157 300.9649 -13.9041 -9.0740 30148.6193 281.5983 360.2608
ENERGY: 900000 0.0764 7.3437 3.8532 0.0000 -10781.3672 1491.6569 0.0000 0.0000 1794.5687 -7483.8683 305.8138 -9278.4370 -7456.6039 301.2215 317.1664 386.0222 30479.3107 138.9979 216.4859
ENERGY: 1200000 0.5554 6.6335 3.3003 0.0000 -10654.5772 1384.0433 0.0000 0.0000 1714.5886 -7545.4560 292.1843 -9260.0447 -7461.5592 300.6515 -502.3165 -465.0689 30647.0870 18.1786 93.3677
ENERGY: 1500000 3.4370 7.1307 2.7765 0.0000 -10680.9092 1406.8618 0.0000 0.0000 1789.0656 -7471.6377 304.8760 -9260.7032 -7463.0222 300.8538 -450.5078 -330.3196 30395.2178 -40.6011 34.8113
TCL: Running FEP window   5: Lambda1 0.7999999999999998 Lambda2 0.7499999999999998 [dLambda -0.050000000000000044]
TCL: Setting parameter firsttimestep to 0
TCL: Setting parameter alchLambda to 0.7999999999999998
Info: NONBONDED TABLE R-SQUARED SPACING: 0.0625
Info: NONBONDED TABLE SIZE: 705 POINTS
TCL: Setting parameter alchLambda2 to 0.7499999999999998
Info: NONBONDED TABLE R-SQUARED SPACING: 0.0625
Info: NONBONDED TABLE SIZE: 705 POINTS
TCL: Running for 1500000 steps
ETITLE: TS BOND ANGLE DIHED IMPRP ELECT VDW BOUNDARY MISC KINETIC TOTAL TEMP POTENTIAL TOTALAVG TEMPAVG PRESSURE GPRESSURE VOLUME PRESSAVG GPRESSAVG
ENERGY: 0 3.4370 7.1308 2.7765 0.0000 -10679.7168 1406.8698 0.0000 0.0000 1788.1922 -7471.3107 304.7271 -9259.5029 -7471.3107 304.7271 -412.6904 -334.4165 30395.2178 -412.6904 -334.4165
ENERGY: 300000 0.7465 5.7512 3.1334 0.0000 -10646.2310 1448.3214 0.0000 0.0000 1788.5986 -7399.6800 304.7964 -9188.2786 -7474.2095 302.3771 49.9280 169.0364 30683.7830 -114.4452 -47.0355
ENERGY: 600000 0.5466 8.5205 3.8367 0.0000 -10654.9194 1382.9617 0.0000 0.0000 1806.8096 -7452.2442 307.8997 -9259.0538 -7463.7521 300.9820 -526.0598 -410.6915 30518.7297 -199.2961 -117.5387
ENERGY: 900000 0.7332 8.1056 3.6446 0.0000 -10763.7303 1485.5063 0.0000 0.0000 1759.1191 -7506.6216 299.7728 -9265.7406 -7477.2776 300.1771 247.4095 288.0968 30605.5408 -131.3240 -56.5639
ENERGY: 1200000 0.6755 6.0046 3.4179 0.0000 -10660.7373 1420.3377 0.0000 0.0000 1762.3588 -7467.9428 300.3248 -9230.3016 -7478.6749 299.9955 -251.6758 -216.4382 30574.3948 -85.0428 -16.5776
ENERGY: 1500000 1.6614 5.7761 3.6559 0.0000 -10711.9331 1491.0032 0.0000 0.0000 1755.4966 -7454.3399 299.1555 -9209.8365 -7470.7340 300.8252 578.8854 653.4907 30381.0110 -86.4011 -18.5841
TCL: Running FEP window   6: Lambda1 0.7499999999999998 Lambda2 0.6999999999999997 [dLambda -0.050000000000000044]
TCL: Setting parameter firsttimestep to 0
TCL: Setting parameter alchLambda to 0.7499999999999998
Info: NONBONDED TABLE R-SQUARED SPACING: 0.0625
Info: NONBONDED TABLE SIZE: 705 POINTS
TCL: Setting parameter alchLambda2 to 0.6999999999999997
Info: NONBONDED TABLE R-SQUARED SPACING: 0.0625
Info: NONBONDED TABLE SIZE: 705 POINTS
TCL: Running for 1500000 steps
ETITLE: TS BOND ANGLE DIHED IMPRP ELECT VDW BOUNDARY MISC KINETIC TOTAL TEMP POTENTIAL TOTALAVG TEMPAVG PRESSURE GPRESSURE VOLUME PRESSAVG GPRESSAVG
ENERGY: 0 1.6614 5.7761 3.6559 0.0000 -10711.1165 1489.7611 0.0000 0.0000 1754.6292 -7455.6328 299.0077 -9210.2621 -7455.6328 299.0077 556.4010 631.2908 30381.0110 556.4010 631.2908
ENERGY: 300000 2.4180 8.5347 3.6056 0.0000 -10762.2717 1447.8687 0.0000 0.0000 1803.0634 -7496.7814 307.2613 -9299.8447 -7451.0740 305.2957 -102.7688 -73.8744 30489.6848 152.2453 208.0788
ENERGY: 600000 0.4616 3.7594 4.3895 0.0000 -10589.0763 1340.3336 0.0000 0.0000 1751.8454 -7488.2867 298.5333 -9240.1321 -7454.6394 303.5928 -853.8676 -825.5701 30919.1736 101.1720 166.3246
ENERGY: 900000 0.7114 8.3503 3.1116 0.0000 -10659.6107 1478.0769 0.0000 0.0000 1772.6930 -7396.6674 302.0859 -9169.3604 -7458.6734 302.7799 534.6737 574.1664 30450.1278 111.1139 172.2318
ENERGY: 1200000 2.6764 7.0771 2.7504 0.0000 -10624.5055 1352.7430 0.0000 0.0000 1741.5597 -7517.6989 296.7805 -9259.2586 -7459.7646 302.7288 -983.9268 -892.3974 30654.0953 -30.6011 39.4080
ENERGY: 1500000 2.0428 4.2548 4.9141 0.0000 -10726.0812 1513.5436 0.0000 0.0000 1796.7996 -7404.5263 306.1939 -9201.3259 -7452.4119 303.2026 657.6015 667.8067 30480.0217 13.9969 76.5279
TCL: Running FEP window   7: Lambda1 0.6999999999999997 Lambda2 0.6499999999999997 [dLambda -0.050000000000000044]
TCL: Setting parameter firsttimestep to 0
TCL: Setting parameter alchLambda to 0.6999999999999997
Info: NONBONDED TABLE R-SQUARED SPACING: 0.0625
Info: NONBONDED TABLE SIZE: 705 POINTS
TCL: Setting parameter alchLambda2 to 0.6499999999999997
Info: NONBONDED TABLE R-SQUARED SPACING: 0.0625
Info: NONBONDED TABLE SIZE: 705 POINTS
TCL: Running for 1500000 steps
ETITLE: TS BOND ANGLE DIHED IMPRP ELECT VDW BOUNDARY MISC KINETIC TOTAL TEMP POTENTIAL TOTALAVG TEMPAVG PRESSURE GPRESSURE VOLUME PRESSAVG GPRESSAVG
ENERGY: 0 2.0428 4.2548 4.9141 0.0000 -10725.5799 1513.7972 0.0000 0.0000 1795.9216 -7404.6494 306.0443 -9200.5710 -7404.6494 306.0443 584.1664 660.3274 30480.0217 584.1664 660.3274
ENERGY: 300000 1.0138 3.8605 3.8132 0.0000 -10663.7797 1477.9061 0.0000 0.0000 1713.4758 -7463.7103 291.9947 -9177.1860 -7450.8953 296.8136 592.3069 622.3585 30187.1221 140.5660 193.3040
ENERGY: 600000 1.3187 4.7058 4.1129 0.0000 -10775.1268 1478.7474 0.0000 0.0000 1818.4029 -7467.8391 309.8754 -9286.2421 -7460.9946 300.9595 0.1336 -18.4942 30623.2287 77.9074 104.6676
ENERGY: 900000 2.2397 8.7364 6.2637 0.0000 -10843.8551 1557.4008 0.0000 0.0000 1772.1852 -7497.0294 301.9994 -9269.2146 -7470.1841 300.0522 1397.2218 1414.6509 29560.0948 54.6971 83.5743
ENERGY: 1200000 0.6457 6.6265 5.7739 0.0000 -10600.5098 1403.9955 0.0000 0.0000 1771.0122 -7412.4561 301.7995 -9183.4683 -7462.8692 300.7774 -57.2101 -40.8051 30288.8906 15.2207 45.0812
ENERGY: 1500000 4.3531 3.6795 3.7568 0.0000 -10616.3734 1355.2299 0.0000 0.0000 1772.5408 -7476.8133 302.0600 -9249.3541 -7461.3786 301.9460 -656.2561 -625.6517 30318.2422 13.4723 42.2976
TCL: Running FEP window   8: Lambda1 0.6499999999999997 Lambda2 0.5999999999999996 [dLambda -0.050000000000000044]
TCL: Setting parameter firsttimestep to 0
TCL: Setting parameter alchLambda to 0.6499999999999997
Info: NONBONDED TABLE R-SQUARED SPACING: 0.0625
Info: NONBONDED TABLE SIZE: 705 POINTS
TCL: Setting parameter alchLambda2 to 0.5999999999999996
Info: NONBONDED TABLE R-SQUARED SPACING: 0.0625
Info: NONBONDED TABLE SIZE: 705 POINTS
TCL: Running for 1500000 steps
ETITLE: TS BOND ANGLE DIHED IMPRP ELECT VDW BOUNDARY MISC KINETIC TOTAL TEMP POTENTIAL TOTALAVG TEMPAVG PRESSURE GPRESSURE VOLUME PRESSAVG GPRESSAVG
ENERGY: 0 4.3531 3.6795 3.7568 0.0000 -10615.5732 1355.6582 0.0000 0.0000 1771.6920 -7476.4337 301.9153 -9248.1256 -7476.4337 301.9153 -704.5084 -625.8633 30318.2422 -704.5084 -625.8633
ENERGY: 300000 1.4260 8.0070 3.8669 0.0000 -10734.9323 1495.9882 0.0000 0.0000 1815.8048 -7409.8393 309.4326 -9225.6441 -7488.6598 300.9832 576.1230 595.4846 30233.9062 30.9989 86.3152
ENERGY: 600000 0.6521 8.4433 2.2536 0.0000 -10689.0487 1409.3853 0.0000 0.0000 1765.3900 -7502.9243 300.8414 -9268.3144 -7497.6906 300.5956 -417.6629 -357.9539 30619.7284 -155.9153 -87.5133
ENERGY: 900000 2.1322 8.2169 5.6139 0.0000 -10440.7459 1202.6401 0.0000 0.0000 1743.5946 -7478.5482 297.1272 -9222.1428 -7483.0052 300.0340 -1854.4508 -1830.8839 30558.2844 -352.9676 -291.7384
ENERGY: 1200000 1.8845 10.2289 3.0406 0.0000 -10757.6052 1503.0808 0.0000 0.0000 1721.9388 -7517.4316 293.4368 -9239.3704 -7481.5804 299.7030 641.3518 628.7490 30304.8972 -139.3779 -83.1817
ENERGY: 1500000 1.2869 5.3255 3.5173 0.0000 -10753.2225 1524.8607 0.0000 0.0000 1751.9529 -7466.2792 298.5516 -9218.2321 -7476.8441 299.9014 779.8604 780.3622 30182.8555 -93.3310 -42.9237
TCL: Running FEP window   9: Lambda1 0.5999999999999996 Lambda2 0.5499999999999996 [dLambda -0.050000000000000044]
TCL: Setting parameter firsttimestep to 0
TCL: Setting parameter alchLambda to 0.5999999999999996
Info: NONBONDED TABLE R-SQUARED SPACING: 0.0625
Info: NONBONDED TABLE SIZE: 705 POINTS
TCL: Setting parameter alchLambda2 to 0.5499999999999996
Info: NONBONDED TABLE R-SQUARED SPACING: 0.0625
Info: NONBONDED TABLE SIZE: 705 POINTS
TCL: Running for 1500000 steps
ETITLE: TS BOND ANGLE DIHED IMPRP ELECT VDW BOUNDARY MISC KINETIC TOTAL TEMP POTENTIAL TOTALAVG TEMPAVG PRESSURE GPRESSURE VOLUME PRESSAVG GPRESSAVG
ENERGY: 0 1.2869 5.3255 3.5173 0.0000 -10752.4165 1523.7909 0.0000 0.0000 1751.1037 -7467.3922 298.4069 -9218.4959 -7467.3922 298.4069 700.0808 764.8896 30182.8555 700.0808 764.8896
ENERGY: 300000 1.5944 7.9687 3.7991 0.0000 -10590.2962 1378.3653 0.0000 0.0000 1732.4589 -7466.1098 295.2296 -9198.5687 -7488.0943 296.5853 -74.3787 85.5066 29873.5860 171.2778 256.3511
ENERGY: 600000 1.7854 6.0549 4.0105 0.0000 -10554.0919 1340.9956 0.0000 0.0000 1748.1258 -7453.1198 297.8994 -9201.2455 -7489.3173 297.2563 -1032.5359 -924.4728 30929.5540 -9.1823 64.2556
ENERGY: 900000 1.6159 14.0348 2.2919 0.0000 -10802.8974 1410.2022 0.0000 0.0000 1776.1041 -7598.6485 302.6672 -9374.7526 -7504.9142 297.5917 -405.8171 -317.6443 30101.0166 -28.7157 40.3342
ENERGY: 1200000 1.2709 5.9297 4.2932 0.0000 -10759.2228 1484.2670 0.0000 0.0000 1753.9488 -7509.5133 298.8917 -9263.4621 -7488.3852 298.7826 259.8520 312.0357 30377.5060 -47.2292 19.2006
ENERGY: 1500000 0.8596 5.9836 3.2117 0.0000 -10754.2914 1537.9374 0.0000 0.0000 1744.8089 -7461.4902 297.3342 -9206.2991 -7498.3201 298.1656 1274.8845 1308.7926 29757.7529 47.9226 114.6500
TCL: Running FEP window  10: Lambda1 0.5499999999999996 Lambda2 0.4999999999999996 [dLambda -0.04999999999999999]
TCL: Setting parameter firsttimestep to 0
TCL: Setting parameter alchLambda to 0.5499999999999996
Info: NONBONDED TABLE R-SQUARED SPACING: 0.0625
Info: NONBONDED TABLE SIZE: 705 POINTS
TCL: Setting parameter alchLambda2 to 0.4999999999999996
Info: NONBONDED TABLE R-SQUARED SPACING: 0.0625
Info: NONBONDED TABLE SIZE: 705 POINTS
TCL: Running for 1500000 steps
ETITLE: TS BOND ANGLE DIHED IMPRP ELECT VDW BOUNDARY MISC KINETIC TOTAL TEMP POTENTIAL TOTALAVG TEMPAVG PRESSURE GPRESSURE VOLUME PRESSAVG GPRESSAVG
ENERGY: 0 0.8596 5.9836 3.2117 0.0000 -10753.6821 1537.7518 0.0000 0.0000 1743.9112 -7461.9642 297.1812 -9205.8754 -7461.9642 297.1812 1213.6428 1299.2000 29757.7529 1213.6428 1299.2000
ENERGY: 300000 0.2674 8.7423 4.1588 0.0000 -10720.9331 1451.8247 0.0000 0.0000 1769.8911 -7486.0488 301.6084 -9255.9399 -7484.5335 299.0609 34.9180 96.6514 30406.4905 309.9472 379.6018
ENERGY: 600000 2.1135 5.3304 3.1087 0.0000 -10597.8879 1371.4142 0.0000 0.0000 1713.9673 -7501.9537 292.0784 -9215.9210 -7490.1436 297.0175 -603.0851 -600.1748 30672.4933 126.8064 197.1625
ENERGY: 900000 2.0351 6.3667 3.2950 0.0000 -10665.7799 1403.4824 0.0000 0.0000 1795.6447 -7454.9561 305.9971 -9250.6008 -7473.7340 299.7280 -419.6851 -392.0126 30646.0043 27.8037 90.4662
ENERGY: 1200000 0.6189 5.7964 2.6830 0.0000 -10717.0164 1436.9011 0.0000 0.0000 1781.3600 -7489.6569 303.5629 -9271.0169 -7472.8884 299.6207 119.5894 192.9032 30009.9227 37.8440 101.1967
ENERGY: 1500000 3.4223 6.7991 2.5286 0.0000 -10699.9915 1431.7041 0.0000 0.0000 1810.9784 -7444.5591 308.6102 -9255.5375 -7470.8514 300.5468 79.6716 95.8158 30197.8279 35.9273 90.5066
TCL: Running FEP window  11: Lambda1 0.4999999999999996 Lambda2 0.4499999999999996 [dLambda -0.04999999999999999]
TCL: Setting parameter firsttimestep to 0
TCL: Setting parameter alchLambda to 0.4999999999999996
Info: NONBONDED TABLE R-SQUARED SPACING: 0.0625
Info: NONBONDED TABLE SIZE: 705 POINTS
TCL: Setting parameter alchLambda2 to 0.4499999999999996
Info: NONBONDED TABLE R-SQUARED SPACING: 0.0625
Info: NONBONDED TABLE SIZE: 705 POINTS
TCL: Running for 1500000 steps
ETITLE: TS BOND ANGLE DIHED IMPRP ELECT VDW BOUNDARY MISC KINETIC TOTAL TEMP POTENTIAL TOTALAVG TEMPAVG PRESSURE GPRESSURE VOLUME PRESSAVG GPRESSAVG
ENERGY: 0 3.4223 6.7991 2.5286 0.0000 -10700.1452 1431.9737 0.0000 0.0000 1810.0989 -7445.3227 308.4603 -9255.4215 -7445.3227 308.4603 10.6273 90.9616 30197.8279 10.6273 90.9616
ENERGY: 300000 0.3736 7.7502 5.9341 0.0000 -10511.3064 1357.0659 0.0000 0.0000 1785.5460 -7354.6367 304.2762 -9140.1827 -7400.0599 307.4983 -512.0821 -410.4786 30594.1484 -31.2035 43.1281
ENERGY: 600000 2.8620 7.3947 3.9744 0.0000 -10693.6356 1399.3142 0.0000 0.0000 1744.9943 -7535.0961 297.3658 -9280.0904 -7460.5316 301.2483 33.2041 98.4461 29561.0082 62.0619 128.9539
ENERGY: 900000 1.4933 8.7144 3.3462 0.0000 -10736.2586 1466.8768 0.0000 0.0000 1734.4624 -7521.3654 295.5710 -9255.8278 -7471.3124 300.2506 525.4393 552.2294 29820.0041 93.2953 165.6803
ENERGY: 1200000 8.2060 8.0362 4.3730 0.0000 -10737.5822 1476.0961 0.0000 0.0000 1761.7257 -7479.1453 300.2170 -9240.8709 -7473.3853 299.8515 -61.0477 -8.4690 30656.4694 62.3003 132.2466
ENERGY: 1500000 3.4454 6.8514 2.4640 0.0000 -10704.1795 1431.9959 0.0000 0.0000 1800.8901 -7458.5328 306.8910 -9259.4229 -7468.4040 300.5211 111.4605 137.9366 30161.2105 52.4667 117.9345
TCL: Running FEP window  12: Lambda1 0.4499999999999996 Lambda2 0.39999999999999963 [dLambda -0.04999999999999999]
TCL: Setting parameter firsttimestep to 0
TCL: Setting parameter alchLambda to 0.4499999999999996
Info: NONBONDED TABLE R-SQUARED SPACING: 0.0625
Info: NONBONDED TABLE SIZE: 705 POINTS
TCL: Setting parameter alchLambda2 to 0.39999999999999963
Info: NONBONDED TABLE R-SQUARED SPACING: 0.0625
Info: NONBONDED TABLE SIZE: 705 POINTS
TCL: Running for 1500000 steps
ETITLE: TS BOND ANGLE DIHED IMPRP ELECT VDW BOUNDARY MISC KINETIC TOTAL TEMP POTENTIAL TOTALAVG TEMPAVG PRESSURE GPRESSURE VOLUME PRESSAVG GPRESSAVG
ENERGY: 0 3.4454 6.8514 2.4640 0.0000 -10704.1801 1432.2254 0.0000 0.0000 1800.0533 -7459.1407 306.7484 -9259.1940 -7459.1407 306.7484 59.6665 134.7725 30161.2105 59.6665 134.7725
ENERGY: 300000 4.7552 7.9159 1.9507 0.0000 -10698.0865 1465.4441 0.0000 0.0000 1777.9630 -7440.0577 302.9840 -9218.0206 -7480.8176 301.0497 32.0700 88.0462 30383.3700 -138.0530 -60.7915
ENERGY: 600000 1.0715 5.9173 2.3145 0.0000 -10636.7244 1456.2569 0.0000 0.0000 1760.3786 -7410.7856 299.9874 -9171.1642 -7478.0133 300.7690 179.5497 233.6918 30320.6437 -56.3340 7.1690
ENERGY: 900000 1.2971 6.6103 2.3309 0.0000 -10685.0057 1478.7249 0.0000 0.0000 1745.8191 -7450.2233 297.5063 -9196.0424 -7466.6325 300.5743 343.6375 423.7465 30290.9857 -75.3332 -3.0328
ENERGY: 1200000 7.9268 6.8089 6.1064 0.0000 -10720.2019 1409.0470 0.0000 0.0000 1749.8238 -7540.4890 298.1887 -9290.3128 -7465.0919 300.7791 -514.9427 -404.3484 30051.9911 -82.9430 -16.4981
ENERGY: 1500000 1.3049 5.1150 4.4306 0.0000 -10713.9565 1402.4641 0.0000 0.0000 1685.4978 -7615.1440 287.2269 -9300.6418 -7474.8614 300.5144 -372.8233 -327.9668 30063.7971 -76.2531 -17.4948
TCL: Running FEP window  13: Lambda1 0.39999999999999963 Lambda2 0.34999999999999964 [dLambda -0.04999999999999999]
TCL: Setting parameter firsttimestep to 0
TCL: Setting parameter alchLambda to 0.39999999999999963
Info: NONBONDED TABLE R-SQUARED SPACING: 0.0625
Info: NONBONDED TABLE SIZE: 705 POINTS
TCL: Setting parameter alchLambda2 to 0.34999999999999964
Info: NONBONDED TABLE R-SQUARED SPACING: 0.0625
Info: NONBONDED TABLE SIZE: 705 POINTS
TCL: Running for 1500000 steps
ETITLE: TS BOND ANGLE DIHED IMPRP ELECT VDW BOUNDARY MISC KINETIC TOTAL TEMP POTENTIAL TOTALAVG TEMPAVG PRESSURE GPRESSURE VOLUME PRESSAVG GPRESSAVG
ENERGY: 0 1.3049 5.1150 4.4306 0.0000 -10713.9564 1402.3468 0.0000 0.0000 1684.6559 -7616.1031 287.0835 -9300.7590 -7616.1031 287.0835 -418.4875 -336.6274 30063.7971 -418.4875 -336.6274
ENERGY: 300000 2.0129 9.0888 2.9327 0.0000 -10629.6924 1387.5649 0.0000 0.0000 1711.4621 -7516.6311 291.6515 -9228.0932 -7515.4011 294.7669 -650.8086 -607.5030 30460.0568 -15.2501 12.6894
ENERGY: 600000 1.1082 6.9360 4.1774 0.0000 -10804.6023 1485.4344 0.0000 0.0000 1778.1263 -7528.8201 303.0118 -9306.9464 -7506.7441 298.8476 416.5282 492.3264 29888.5105 161.5381 204.8937
ENERGY: 900000 0.4670 9.5381 3.8217 0.0000 -10667.0968 1426.6773 0.0000 0.0000 1768.9186 -7457.6740 301.4427 -9226.5927 -7494.4438 298.8799 189.4635 248.2560 29953.8986 29.3245 76.6701
ENERGY: 1200000 1.1289 10.0375 2.5961 0.0000 -10749.7007 1541.7551 0.0000 0.0000 1739.0578 -7455.1253 296.3541 -9194.1831 -7480.6483 298.8196 948.3623 964.3621 30379.1190 158.4375 213.1681
ENERGY: 1500000 2.1935 6.0217 3.3674 0.0000 -10717.5057 1462.3414 0.0000 0.0000 1784.3647 -7459.2171 304.0749 -9243.5818 -7473.9539 299.7069 62.8446 161.1458 30678.4537 144.1265 201.7259
TCL: Running FEP window  14: Lambda1 0.34999999999999964 Lambda2 0.29999999999999966 [dLambda -0.04999999999999999]
TCL: Setting parameter firsttimestep to 0
TCL: Setting parameter alchLambda to 0.34999999999999964
Info: NONBONDED TABLE R-SQUARED SPACING: 0.0625
Info: NONBONDED TABLE SIZE: 705 POINTS
TCL: Setting parameter alchLambda2 to 0.29999999999999966
Info: NONBONDED TABLE R-SQUARED SPACING: 0.0625
Info: NONBONDED TABLE SIZE: 705 POINTS
TCL: Running for 1500000 steps
ETITLE: TS BOND ANGLE DIHED IMPRP ELECT VDW BOUNDARY MISC KINETIC TOTAL TEMP POTENTIAL TOTALAVG TEMPAVG PRESSURE GPRESSURE VOLUME PRESSAVG GPRESSAVG
ENERGY: 0 2.1935 6.0217 3.3674 0.0000 -10717.5055 1462.1385 0.0000 0.0000 1783.4927 -7460.2917 303.9263 -9243.7844 -7460.2917 303.9263 63.7679 152.3703 30678.4537 63.7679 152.3703
ENERGY: 300000 1.3109 3.6284 3.9549 0.0000 -10541.5307 1354.3725 0.0000 0.0000 1793.2123 -7385.0518 305.5826 -9178.2641 -7458.3753 303.7528 -553.9749 -445.2115 30674.5091 -305.2878 -239.8021
ENERGY: 600000 1.4461 6.4269 4.1780 0.0000 -10730.5039 1413.4247 0.0000 0.0000 1766.3275 -7538.7008 301.0012 -9305.0283 -7451.0631 304.5388 -435.0803 -389.0580 30426.6759 -315.3371 -255.1315
ENERGY: 900000 1.1753 11.2740 3.5603 0.0000 -10791.8886 1457.3403 0.0000 0.0000 1725.3170 -7593.2217 294.0125 -9318.5387 -7471.6361 303.0655 -4.6428 -15.1588 30335.8780 -173.3244 -118.7356
ENERGY: 1200000 0.3056 6.2023 3.1541 0.0000 -10758.3965 1462.4096 0.0000 0.0000 1809.0940 -7477.2308 308.2890 -9286.3248 -7468.3859 303.0047 -163.7276 -82.3827 30862.7270 -72.5031 -19.7139
ENERGY: 1500000 1.3310 5.8287 2.4583 0.0000 -10761.0946 1492.8823 0.0000 0.0000 1753.1218 -7505.4725 298.7508 -9258.5943 -7465.0800 302.3031 269.2828 332.9624 30386.1524 -96.0478 -37.3327
TCL: Running FEP window  15: Lambda1 0.29999999999999966 Lambda2 0.24999999999999967 [dLambda -0.04999999999999999]
TCL: Setting parameter firsttimestep to 0
TCL: Setting parameter alchLambda to 0.29999999999999966
Info: NONBONDED TABLE R-SQUARED SPACING: 0.0625
Info: NONBONDED TABLE SIZE: 705 POINTS
TCL: Setting parameter alchLambda2 to 0.24999999999999967
Info: NONBONDED TABLE R-SQUARED SPACING: 0.0625
Info: NONBONDED TABLE SIZE: 705 POINTS
TCL: Running for 1500000 steps
ETITLE: TS BOND ANGLE DIHED IMPRP ELECT VDW BOUNDARY MISC KINETIC TOTAL TEMP POTENTIAL TOTALAVG TEMPAVG PRESSURE GPRESSURE VOLUME PRESSAVG GPRESSAVG
ENERGY: 0 1.3310 5.8287 2.4583 0.0000 -10761.0952 1492.9989 0.0000 0.0000 1752.2542 -7506.2241 298.6029 -9258.4783 -7506.2241 298.6029 240.4315 330.1584 30386.1524 240.4315 330.1584
ENERGY: 300000 1.0439 7.6359 3.8183 0.0000 -10560.3205 1321.8973 0.0000 0.0000 1709.2517 -7516.6735 291.2748 -9225.9252 -7500.3284 295.5059 -922.6254 -890.9963 30411.9218 -53.2762 22.6937
ENERGY: 600000 1.2571 4.8115 3.2269 0.0000 -10633.8035 1438.1250 0.0000 0.0000 1744.0452 -7442.3378 297.2040 -9186.3830 -7483.4158 296.9172 81.3884 75.9929 30522.8860 16.5810 81.5680
ENERGY: 900000 1.7350 6.4206 4.0900 0.0000 -10703.5000 1405.4041 0.0000 0.0000 1759.9399 -7525.9106 299.9126 -9285.8505 -7493.2991 297.5075 -467.8716 -402.4984 30609.4155 -33.7174 27.0891
ENERGY: 1200000 1.1164 7.8943 4.5443 0.0000 -10837.0302 1540.4849 0.0000 0.0000 1776.6819 -7506.3085 302.7657 -9282.9904 -7491.0034 297.3382 679.4908 725.3590 30201.0778 -11.8529 46.8670
ENERGY: 1500000 1.0225 8.4353 3.4097 0.0000 -10769.2831 1448.0897 0.0000 0.0000 1755.3304 -7552.9955 299.1271 -9308.3259 -7493.4548 297.8659 0.9963 50.1345 30060.3888 -69.2068 -11.2386
TCL: Running FEP window  16: Lambda1 0.24999999999999967 Lambda2 0.19999999999999968 [dLambda -0.04999999999999999]
TCL: Setting parameter firsttimestep to 0
TCL: Setting parameter alchLambda to 0.24999999999999967
Info: NONBONDED TABLE R-SQUARED SPACING: 0.0625
Info: NONBONDED TABLE SIZE: 705 POINTS
TCL: Setting parameter alchLambda2 to 0.19999999999999968
Info: NONBONDED TABLE R-SQUARED SPACING: 0.0625
Info: NONBONDED TABLE SIZE: 705 POINTS
TCL: Running for 1500000 steps
ETITLE: TS BOND ANGLE DIHED IMPRP ELECT VDW BOUNDARY MISC KINETIC TOTAL TEMP POTENTIAL TOTALAVG TEMPAVG PRESSURE GPRESSURE VOLUME PRESSAVG GPRESSAVG
ENERGY: 0 1.0225 8.4353 3.4097 0.0000 -10769.2834 1448.5069 0.0000 0.0000 1754.4344 -7553.4746 298.9744 -9307.9090 -7553.4746 298.9744 -36.0082 49.6055 30060.3888 -36.0082 49.6055
ENERGY: 300000 2.3642 6.3545 3.7462 0.0000 -10714.8182 1431.0428 0.0000 0.0000 1771.5881 -7499.7225 301.8976 -9271.3106 -7482.3288 297.7264 -237.3546 -178.2360 30365.7710 -260.0403 -188.0753
ENERGY: 600000 1.0993 7.0686 4.7213 0.0000 -10725.0531 1491.3541 0.0000 0.0000 1760.1659 -7460.6439 299.9512 -9220.8098 -7467.4515 300.2175 269.7281 323.7448 30367.6236 51.8755 109.1436
ENERGY: 900000 2.7991 5.9770 4.0523 0.0000 -10632.3779 1438.7171 0.0000 0.0000 1743.4705 -7437.3619 297.1061 -9180.8324 -7461.6529 300.1011 49.0575 98.1346 30211.5210 98.7105 158.4785
ENERGY: 1200000 3.3310 8.0487 3.3784 0.0000 -10595.5039 1347.2179 0.0000 0.0000 1702.0721 -7531.4558 290.0513 -9233.5279 -7467.5797 299.4091 -973.0295 -959.0750 30614.0340 -36.3412 17.8500
ENERGY: 1500000 0.7757 5.6493 2.5152 0.0000 -10668.1520 1380.9549 0.0000 0.0000 1809.1798 -7469.0771 308.3036 -9278.2569 -7462.2402 299.4957 -313.6047 -251.9345 30023.5956 -88.6132 -31.4124
TCL: Running FEP window  17: Lambda1 0.19999999999999968 Lambda2 0.1499999999999997 [dLambda -0.04999999999999999]
TCL: Setting parameter firsttimestep to 0
TCL: Setting parameter alchLambda to 0.19999999999999968
Info: NONBONDED TABLE R-SQUARED SPACING: 0.0625
Info: NONBONDED TABLE SIZE: 705 POINTS
TCL: Setting parameter alchLambda2 to 0.1499999999999997
Info: NONBONDED TABLE R-SQUARED SPACING: 0.0625
Info: NONBONDED TABLE SIZE: 705 POINTS
TCL: Running for 1500000 steps
ETITLE: TS BOND ANGLE DIHED IMPRP ELECT VDW BOUNDARY MISC KINETIC TOTAL TEMP POTENTIAL TOTALAVG TEMPAVG PRESSURE GPRESSURE VOLUME PRESSAVG GPRESSAVG
ENERGY: 0 0.7757 5.6493 2.5152 0.0000 -10668.1516 1380.6090 0.0000 0.0000 1808.3448 -7470.2577 308.1614 -9278.6025 -7470.2577 308.1614 -346.0262 -258.2780 30023.5956 -346.0262 -258.2780
ENERGY: 300000 1.6261 4.9718 3.3959 0.0000 -10640.7870 1398.2438 0.0000 0.0000 1714.7803 -7517.7691 292.2170 -9232.5494 -7469.0890 301.6643 -58.0695 -1.2338 29938.0371 118.1654 196.3758
ENERGY: 600000 0.3426 6.6146 2.1562 0.0000 -10727.7209 1413.5571 0.0000 0.0000 1759.6344 -7545.4160 299.8606 -9305.0504 -7475.8080 301.3794 -264.6029 -213.8501 30113.3089 220.4355 290.5552
ENERGY: 900000 0.7821 3.8772 2.7854 0.0000 -10670.8762 1402.8328 0.0000 0.0000 1802.9870 -7457.6118 307.2483 -9260.5988 -7460.9685 302.4784 -493.6210 -414.1784 30492.2201 131.9545 195.4610
ENERGY: 1200000 1.1258 9.5498 3.4180 0.0000 -10692.9420 1396.3917 0.0000 0.0000 1756.7500 -7525.7067 299.3691 -9282.4567 -7473.3853 301.0315 -666.0931 -604.0376 30530.6241 -13.3627 50.7829
ENERGY: 1500000 1.3625 8.2936 3.6160 0.0000 -10655.9848 1444.9574 0.0000 0.0000 1711.9772 -7485.7781 291.7393 -9197.7553 -7466.8171 300.6649 142.8799 132.9223 30126.7984 -21.6851 38.1120
TCL: Running FEP window  18: Lambda1 0.1499999999999997 Lambda2 0.09999999999999969 [dLambda -0.05 ]
TCL: Setting parameter firsttimestep to 0
TCL: Setting parameter alchLambda to 0.1499999999999997
Info: NONBONDED TABLE R-SQUARED SPACING: 0.0625
Info: NONBONDED TABLE SIZE: 705 POINTS
TCL: Setting parameter alchLambda2 to 0.09999999999999969
Info: NONBONDED TABLE R-SQUARED SPACING: 0.0625
Info: NONBONDED TABLE SIZE: 705 POINTS
TCL: Running for 1500000 steps
ETITLE: TS BOND ANGLE DIHED IMPRP ELECT VDW BOUNDARY MISC KINETIC TOTAL TEMP POTENTIAL TOTALAVG TEMPAVG PRESSURE GPRESSURE VOLUME PRESSAVG GPRESSAVG
ENERGY: 0 1.3625 8.2936 3.6160 0.0000 -10655.9852 1445.2210 0.0000 0.0000 1711.1023 -7486.3898 291.5902 -9197.4921 -7486.3898 291.5902 58.7929 132.3653 30126.7984 58.7929 132.3653
ENERGY: 300000 1.2402 10.1449 5.1869 0.0000 -10735.4184 1471.2712 0.0000 0.0000 1808.2521 -7439.3230 308.1456 -9247.5751 -7476.9125 301.7067 52.5328 201.6286 30358.9541 87.5829 194.9099
ENERGY: 600000 0.6673 6.3969 3.9362 0.0000 -10755.1051 1496.5446 0.0000 0.0000 1843.4804 -7404.0797 314.1488 -9247.5601 -7460.8888 302.1770 509.2613 515.9772 30335.4192 204.6255 292.3980
ENERGY: 900000 3.8733 9.8102 2.9023 0.0000 -10638.6619 1365.3991 0.0000 0.0000 1769.0342 -7487.6426 301.4624 -9256.6769 -7447.7946 302.5299 -599.6726 -575.9149 30347.4481 144.0956 216.9995
ENERGY: 1200000 0.8784 9.6280 3.4337 0.0000 -10693.2185 1487.8145 0.0000 0.0000 1752.2736 -7439.1903 298.6062 -9191.4639 -7444.7104 302.3751 522.0716 575.1327 30466.6367 85.4084 153.5311
ENERGY: 1500000 3.3056 8.0039 2.6066 0.0000 -10627.2976 1448.1509 0.0000 0.0000 1727.2600 -7437.9706 294.3436 -9165.2306 -7448.9072 301.3714 399.5882 447.4517 30250.1339 84.6147 147.8420
TCL: Running FEP window  19: Lambda1 0.09999999999999969 Lambda2 0.049999999999999684 [dLambda -0.05 ]
TCL: Setting parameter firsttimestep to 0
TCL: Setting parameter alchLambda to 0.09999999999999969
Info: NONBONDED TABLE R-SQUARED SPACING: 0.0625
Info: NONBONDED TABLE SIZE: 705 POINTS
TCL: Setting parameter alchLambda2 to 0.049999999999999684
Info: NONBONDED TABLE R-SQUARED SPACING: 0.0625
Info: NONBONDED TABLE SIZE: 705 POINTS
TCL: Running for 1500000 steps
ETITLE: TS BOND ANGLE DIHED IMPRP ELECT VDW BOUNDARY MISC KINETIC TOTAL TEMP POTENTIAL TOTALAVG TEMPAVG PRESSURE GPRESSURE VOLUME PRESSAVG GPRESSAVG
ENERGY: 0 3.3056 8.0039 2.6066 0.0000 -10627.2978 1447.6354 0.0000 0.0000 1726.3539 -7439.3924 294.1892 -9165.7463 -7439.3924 294.1892 361.8368 443.2466 30250.1339 361.8368 443.2466
ENERGY: 300000 1.4617 3.8762 2.7601 0.0000 -10909.7989 1588.9352 0.0000 0.0000 1799.3757 -7513.3899 306.6329 -9312.7657 -7493.2801 300.6032 1217.9977 1213.5236 29649.5426 522.7234 576.0941
ENERGY: 600000 0.8196 7.5693 2.7431 0.0000 -10690.4700 1424.8371 0.0000 0.0000 1650.7705 -7603.7304 281.3090 -9254.5009 -7499.6342 297.5782 -419.4240 -377.2621 30346.2809 344.9987 395.2052
ENERGY: 900000 0.5124 9.8583 4.8053 0.0000 -10632.6143 1373.4011 0.0000 0.0000 1804.9473 -7439.0900 307.5824 -9244.0373 -7495.5887 298.2372 -475.7914 -427.1981 30253.0835 233.3756 283.2084
ENERGY: 1200000 1.1007 8.5851 3.5536 0.0000 -10691.5045 1408.2755 0.0000 0.0000 1745.6935 -7524.2961 297.4849 -9269.9896 -7486.5123 299.2252 -481.2725 -438.1411 30600.9802 68.8702 116.3442
ENERGY: 1500000 1.8630 8.1249 2.8137 0.0000 -10699.7216 1409.8817 0.0000 0.0000 1767.9947 -7509.0436 301.2853 -9277.0383 -7492.6413 299.0932 -244.3802 -195.5817 30000.8856 87.4028 132.3168
TCL: Running FEP window  20: Lambda1 0.049999999999999684 Lambda2 0.0    [dLambda -0.049999999999999684]
TCL: Setting parameter firsttimestep to 0
TCL: Setting parameter alchLambda to 0.049999999999999684
Info: NONBONDED TABLE R-SQUARED SPACING: 0.0625
Info: NONBONDED TABLE SIZE: 705 POINTS
TCL: Setting parameter alchLambda2 to 0.0
Info: NONBONDED TABLE R-SQUARED SPACING: 0.0625
Info: NONBONDED TABLE SIZE: 705 POINTS
TCL: Running for 1500000 steps
ETITLE: TS BOND ANGLE DIHED IMPRP ELECT VDW BOUNDARY MISC KINETIC TOTAL TEMP POTENTIAL TOTALAVG TEMPAVG PRESSURE GPRESSURE VOLUME PRESSAVG GPRESSAVG
ENERGY: 0 1.8630 8.1249 2.8137 0.0000 -10699.7212 1409.6346 0.0000 0.0000 1767.1371 -7510.1479 301.1391 -9277.2850 -7510.1479 301.1391 -292.8297 -199.5321 30000.8856 -292.8297 -199.5321
ENERGY: 300000 2.7576 9.5353 3.2873 0.0000 -10719.8325 1415.1742 0.0000 0.0000 1759.5066 -7529.5715 299.8388 -9289.0781 -7520.8555 301.2682 -578.0228 -532.7657 30306.5640 -446.1877 -389.0823
ENERGY: 600000 2.4711 5.8046 2.9803 0.0000 -10593.8501 1393.4649 0.0000 0.0000 1795.5098 -7393.6194 305.9741 -9189.1291 -7493.9993 301.4055 -177.3200 -129.5271 30056.7967 -332.8466 -268.2296
ENERGY: 900000 0.9187 7.4627 2.7954 0.0000 -10644.5969 1417.7451 0.0000 0.0000 1805.8021 -7409.8727 307.7281 -9215.6749 -7495.4587 300.4125 -152.9701 -19.3734 30006.9944 -300.1160 -213.6549
ENERGY: 1200000 4.0237 10.5805 4.5809 0.0000 -10849.5091 1527.9731 0.0000 0.0000 1793.5157 -7508.8351 305.6343 -9302.3508 -7504.2688 300.0718 556.2550 543.5049 29973.8960 -75.1807 -3.1181
ENERGY: 1500000 0.9589 3.8782 2.9842 0.0000 -10710.9329 1452.1922 0.0000 0.0000 1885.1927 -7365.7266 321.2571 -9250.9193 -7493.4415 301.1660 68.2694 134.0757 30139.5110 -13.2479 63.3639
TCL: Exiting due to exit command.
