Info: SIMULATION PARAMETERS:
Info: TIMESTEP               2
Info: NUMBER OF STEPS        0
Info: STEPS PER CYCLE        10
Info: PERIODIC CELL BASIS 1  30.8848 0 0
Info: PERIODIC CELL BASIS 2  0 30.1027 0
Info: PERIODIC CELL BASIS 3  0 0 33.2259
Info: PERIODIC CELL CENTER   0 0 0
Info: WRAPPING WATERS AROUND PERIODIC BOUNDARIES ON OUTPUT.
Info: WRAPPING ALL CLUSTERS AROUND PERIODIC BOUNDARIES ON OUTPUT.
Info: FIRST LDB TIMESTEP     50
Info: LAST LDB TIMESTEP     -1
Info: HOM BACKGROUND SCALING 1
Info: PME BACKGROUND SCALING 1
Info: MIN ATOMS PER PATCH    40
Info: EMPTY PATCH LOAD       40 ATOMS
Info: VELOCITY FILE          mobley_6102880_equil.vel
Info: CENTER OF MASS MOVING INITIALLY? NO
Info: DIELECTRIC             1
Info: EXCLUDE                SCALED ONE-FOUR
Info: 1-4 ELECTROSTATICS SCALED BY 0.833333
Info: MODIFIED 1-4 VDW PARAMETERS WILL BE USED
Info: DCD FILENAME           mobley_6102880_prod.dcd
Info: DCD FREQUENCY          100000
Info: DCD FIRST STEP         100000
Info: DCD FILE WILL CONTAIN UNIT CELL DATA
Info: XST FILENAME           mobley_6102880_prod.xst
Info: XST FREQUENCY          100000
Info: NO VELOCITY DCD OUTPUT
Info: NO FORCE DCD OUTPUT
Info: OUTPUT FILENAME        mobley_6102880_prod
Info: BINARY OUTPUT FILES WILL BE USED
Info: RESTART FILENAME       mobley_6102880_prod.restart
Info: RESTART FREQUENCY      100000
Info: BINARY RESTART FILES WILL BE USED
Info: CUTOFF                 9
Info: PAIRLIST DISTANCE      11
Info: PAIRLIST SHRINK RATE   0.01
Info: PAIRLIST GROW RATE     0.01
Info: PAIRLIST TRIGGER       0.3
Info: PAIRLISTS PER CYCLE    2
Info: PAIRLISTS ENABLED
Info: MARGIN                 2
Info: HYDROGEN GROUP CUTOFF  2.5
Info: PATCH DIMENSION        15.5
Info: ENERGY OUTPUT STEPS    100000
Info: ENERGY EVALUATION STEPS    100000
Info: OUTPUT ENERGY PRECISION 4
Info: CROSSTERM ENERGY INCLUDED IN DIHEDRAL
Info: TIMING OUTPUT STEPS    1000000
Info: PRESSURE OUTPUT STEPS  100000
Info: ALCHEMICAL FEP ON
Info: FEP CURRENT LAMBDA VALUE     1
Info: FEP COMPARISON LAMBDA VALUE  0.95
Info: FEP INTRA-ALCHEMICAL NON-BONDED INTERACTIONS WILL BE RETAINED
Info: FEP INTRA-ALCHEMICAL BONDED INTERACTIONS WILL BE RETAINED
Info: FEP VDW SHIFTING COEFFICIENT 5
Info: FEP ELEC. ACTIVE FOR ANNIHILATED PARTICLES BETWEEN LAMBDA = 0 AND LAMBDA = 0.5
Info: FEP ELEC. ACTIVE FOR EXNIHILATED PARTICLES BETWEEN LAMBDA = 0.5 AND LAMBDA = 1
Info: FEP VDW ACTIVE FOR ANNIHILATED PARTICLES BETWEEN LAMBDA = 0 AND LAMBDA = 1
Info: FEP VDW ACTIVE FOR EXNIHILATED PARTICLES BETWEEN LAMBDA = 0 AND LAMBDA = 1
Info: FEP BOND ACTIVE FOR ANNIHILATED PARTICLES BETWEEN LAMBDA = 1 AND LAMBDA = 1
Info: FEP BOND ACTIVE FOR EXNIHILATED PARTICLES BETWEEN LAMBDA = 0 AND LAMBDA = 0
Info: LANGEVIN DYNAMICS ACTIVE
Info: LANGEVIN TEMPERATURE   300
Info: LANGEVIN USING BBK INTEGRATOR
Info: LANGEVIN DAMPING COEFFICIENT IS 1 INVERSE PS
Info: LANGEVIN DYNAMICS APPLIED TO HYDROGENS
Info: LANGEVIN PISTON PRESSURE CONTROL ACTIVE
Info:        TARGET PRESSURE IS 1.01325 BAR
Info:     OSCILLATION PERIOD IS 50 FS
Info:             DECAY TIME IS 25 FS
Info:     PISTON TEMPERATURE IS 300 K
Info:       PRESSURE CONTROL IS GROUP-BASED
Info:    INITIAL STRAIN RATE IS -0.000158307 -0.000158307 -0.000158307
Info:       CELL FLUCTUATION IS ISOTROPIC
Info: PARTICLE MESH EWALD (PME) ACTIVE
Info: PME TOLERANCE               1e-06
Info: PME EWALD COEFFICIENT       0.348832
Info: PME INTERPOLATION ORDER     4
Info: PME GRID DIMENSIONS         32 32 36
Info: PME MAXIMUM GRID SPACING    1
Info: PME CALCULATION WILL BE PERFORMED ON GPU
Info: FULL ELECTROSTATIC EVALUATION FREQUENCY      2
Info: USING VERLET I (r-RESPA) MTS SCHEME.
Info: C1 SPLITTING OF LONG RANGE ELECTROSTATICS
Info: PLACING ATOMS IN PATCHES BY HYDROGEN GROUPS
Info: RIGID BONDS TO HYDROGEN : ALL
Info:         ERROR TOLERANCE : 1e-08
Info:          MAX ITERATIONS : 100
Info: RIGID WATER USING SETTLE ALGORITHM
Info: RANDOM NUMBER SEED     1743885854
Info: USE HYDROGEN BONDS?    NO
Info: Using AMBER format force field!
Info: AMBER PARM FILE        mobley_6102880.prmtop
Info: COORDINATE PDB         mobley_6102880.pdb
Info: Exclusions will be read from PARM file!
Info: SCNB (VDW SCALING)     2
Info: USING ARITHMETIC MEAN TO COMBINE L-J SIGMA PARAMETERS
Info: BINARY COORDINATES     mobley_6102880_equil.coor
Info: SUMMARY OF PARAMETERS:
Info: 5 BONDS
Info: 4 ANGLES
Info:   4 HARMONIC
Info:   0 COSINE-BASED
Info: 3 DIHEDRAL
Info: 0 IMPROPER
Info: 0 CROSSTERM
Info: 0 VDW
Info: 15 VDW_PAIRS
Info: 0 NBTHOLE_PAIRS
Info: To read alchdata from file: mobley_6102880.pdb
Info: To read alchflag data from column: 5
Info: STRUCTURE SUMMARY:
Info: 2999 ATOMS
Info: 3000 BONDS
Info: 37 ANGLES
Info: 64 DIHEDRALS
Info: 0 IMPROPERS
Info: 0 CROSSTERMS
Info: 3083 EXCLUSIONS
Info: 2986 RIGID BONDS
Info: ALCH: 0 ATOMS TO DISAPPEAR IN FINAL STATE
Info: ALCH: 23 ATOMS TO APPEAR IN FINAL STATE
Info: 6011 DEGREES OF FREEDOM
Info: 1005 HYDROGEN GROUPS
Info: 3 ATOMS IN LARGEST HYDROGEN GROUP
Info: 1005 MIGRATION GROUPS
Info: 3 ATOMS IN LARGEST MIGRATION GROUP
Info: TOTAL MASS = 18042.1 amu
Info: TOTAL CHARGE = 9.99272e-05 e
Info: MASS DENSITY = 0.96988 g/cm^3
Info: ATOM DENSITY = 0.0970843 atoms/A^3
Info: ADDED 0 IMPLICIT EXCLUSIONS
Info: NONBONDED TABLE R-SQUARED SPACING: 0.0625
Info: NONBONDED TABLE SIZE: 705 POINTS
Info: REMOVING COM VELOCITY -0.165699 -0.0975214 -0.229371
Info: Use 3D box decompostion in PME FFT.
Info: Updated CUDA force table with 4096 elements.
Info: Updated CUDA LJ table with 5 x 5 elements.
Info: Found 21 unique exclusion lists needing 64 bytes
TCL: Running for 1500000 steps
ETITLE: TS BOND ANGLE DIHED IMPRP ELECT VDW BOUNDARY MISC KINETIC TOTAL TEMP POTENTIAL TOTALAVG TEMPAVG PRESSURE GPRESSURE VOLUME PRESSAVG GPRESSAVG
ENERGY: 0 3.6697 5.8746 12.3452 0.0000 -10872.7727 1501.8226 0.0000 0.0000 1788.2692 -7560.7916 299.4171 -9349.0608 -7560.7916 299.4171 457.3860 548.5463 30890.6929 457.3860 548.5463
ENERGY: 300000 4.1231 5.9216 10.5973 0.0000 -10896.7864 1493.1000 0.0000 0.0000 1798.1279 -7584.9165 301.0678 -9383.0445 -7581.8162 300.8165 411.6170 422.6725 30790.2586 315.1943 369.8268
ENERGY: 600000 4.6297 7.1957 10.6899 0.0000 -10864.3735 1503.4584 0.0000 0.0000 1803.8070 -7534.5928 302.0186 -9338.3998 -7577.5523 302.2766 517.5465 542.2993 30793.9201 285.4393 327.0822
ENERGY: 900000 7.8496 5.5351 9.2084 0.0000 -10861.6871 1446.0403 0.0000 0.0000 1772.0991 -7620.9546 296.7096 -9393.0537 -7581.1344 300.4438 -355.0551 -215.4112 31161.7047 45.0299 104.3634
ENERGY: 1200000 3.9975 7.1120 10.7175 0.0000 -10711.0692 1384.6413 0.0000 0.0000 1836.9978 -7467.6030 307.5759 -9304.6009 -7574.5703 300.7227 -568.3221 -542.8434 31206.0766 -108.9989 -52.0816
ENERGY: 1500000 3.2479 6.2158 10.2096 0.0000 -10791.0208 1444.9102 0.0000 0.0000 1807.1884 -7519.2489 302.5848 -9326.4373 -7569.1083 300.5196 -29.5101 70.4426 30787.6059 -98.9561 -43.5317
TCL: Running FEP window   2: Lambda1 0.95   Lambda2 0.8999999999999999 [dLambda -0.050000000000000044]
TCL: Setting parameter firsttimestep to 0
TCL: Setting parameter alchLambda to 0.95
Info: NONBONDED TABLE R-SQUARED SPACING: 0.0625
Info: NONBONDED TABLE SIZE: 705 POINTS
TCL: Setting parameter alchLambda2 to 0.8999999999999999
Info: NONBONDED TABLE R-SQUARED SPACING: 0.0625
Info: NONBONDED TABLE SIZE: 705 POINTS
TCL: Running for 1500000 steps
ETITLE: TS BOND ANGLE DIHED IMPRP ELECT VDW BOUNDARY MISC KINETIC TOTAL TEMP POTENTIAL TOTALAVG TEMPAVG PRESSURE GPRESSURE VOLUME PRESSAVG GPRESSAVG
ENERGY: 0 3.2479 6.2158 10.2096 0.0000 -10789.7426 1444.9091 0.0000 0.0000 1806.2773 -7518.8829 302.4322 -9325.1602 -7518.8829 302.4322 -37.4247 51.5491 30787.6059 -37.4247 51.5491
ENERGY: 300000 5.7135 5.5803 9.3720 0.0000 -10759.5809 1433.2479 0.0000 0.0000 1756.4961 -7549.1711 294.0972 -9305.6672 -7510.4655 302.7959 77.6606 201.0107 31013.9955 59.2663 135.2056
ENERGY: 600000 4.7027 4.4683 9.6240 0.0000 -10674.9153 1448.8868 0.0000 0.0000 1774.5045 -7432.7291 297.1124 -9207.2336 -7490.2727 301.3248 148.3372 228.5408 31401.6522 20.2640 92.7959
ENERGY: 900000 5.0114 5.9287 9.9296 0.0000 -10813.3450 1432.3551 0.0000 0.0000 1739.5547 -7620.5656 291.2606 -9360.1203 -7515.6821 300.5139 -362.5871 -352.4206 30857.3880 5.0200 72.1476
ENERGY: 1200000 4.6156 5.3500 9.2724 0.0000 -10842.1789 1437.8657 0.0000 0.0000 1768.4095 -7616.6658 296.0919 -9385.0752 -7522.7762 302.0478 -95.4530 63.9944 30503.1586 8.9134 81.4463
ENERGY: 1500000 3.0457 7.1504 7.5385 0.0000 -10922.4902 1540.6717 0.0000 0.0000 1878.2012 -7485.8827 314.4747 -9364.0839 -7523.2079 302.1091 760.8789 804.3852 30595.1884 20.4500 94.2772
TCL: Running FEP window   3: Lambda1 0.8999999999999999 Lambda2 0.8499999999999999 [dLambda -0.050000000000000044]
TCL: Setting parameter firsttimestep to 0
TCL: Setting parameter alchLambda to 0.8999999999999999
Info: NONBONDED TABLE R-SQUARED SPACING: 0.0625
Info: NONBONDED TABLE SIZE: 705 POINTS
TCL: Setting parameter alchLambda2 to 0.8499999999999999
Info: NONBONDED TABLE R-SQUARED SPACING: 0.0625
Info: NONBONDED TABLE SIZE: 705 POINTS
TCL: Running for 1500000 steps
ETITLE: TS BOND ANGLE DIHED IMPRP ELECT VDW BOUNDARY MISC KINETIC TOTAL TEMP POTENTIAL TOTALAVG TEMPAVG PRESSURE GPRESSURE VOLUME PRESSAVG GPRESSAVG
ENERGY: 0 3.0457 7.1504 7.5385 0.0000 -10921.7238 1541.2363 0.0000 0.0000 1877.3233 -7485.4295 314.3278 -9362.7528 -7485.4295 314.3278 718.9725 800.6629 30595.1884 718.9725 800.6629
ENERGY: 300000 5.3268 5.4553 8.0452 0.0000 -10910.9217 1536.5831 0.0000 0.0000 1813.8355 -7541.6759 303.6977 -9355.5114 -7534.2750 304.9034 539.0644 605.2953 30844.3299 240.1718 317.4947
ENERGY: 600000 3.3907 4.1327 9.3363 0.0000 -10796.7521 1440.1383 0.0000 0.0000 1807.5304 -7532.2237 302.6420 -9339.7540 -7550.0587 303.1548 -171.8589 -63.5967 31191.2693 -8.5459 61.0886
ENERGY: 900000 10.0951 7.8075 11.6271 0.0000 -10897.9861 1533.1958 0.0000 0.0000 1777.1202 -7558.1404 297.5503 -9335.2606 -7554.4230 301.4139 765.2592 810.2221 30908.7421 96.0100 155.2945
ENERGY: 1200000 3.9560 6.9943 6.4852 0.0000 -10949.3358 1514.9349 0.0000 0.0000 1778.6022 -7638.3631 297.7985 -9416.9653 -7553.8052 300.8982 622.4924 663.5137 30403.8351 44.1048 100.1955
ENERGY: 1500000 3.6948 9.1238 9.6464 0.0000 -10847.7472 1531.1770 0.0000 0.0000 1795.7292 -7498.3761 300.6661 -9294.1053 -7545.7709 300.9255 720.9877 795.5391 30878.5542 46.9655 106.4433
TCL: Running FEP window   4: Lambda1 0.8499999999999999 Lambda2 0.7999999999999998 [dLambda -0.050000000000000044]
TCL: Setting parameter firsttimestep to 0
TCL: Setting parameter alchLambda to 0.8499999999999999
Info: NONBONDED TABLE R-SQUARED SPACING: 0.0625
Info: NONBONDED TABLE SIZE: 705 POINTS
TCL: Setting parameter alchLambda2 to 0.7999999999999998
Info: NONBONDED TABLE R-SQUARED SPACING: 0.0625
Info: NONBONDED TABLE SIZE: 705 POINTS
TCL: Running for 1500000 steps
ETITLE: TS BOND ANGLE DIHED IMPRP ELECT VDW BOUNDARY MISC KINETIC TOTAL TEMP POTENTIAL TOTALAVG TEMPAVG PRESSURE GPRESSURE VOLUME PRESSAVG GPRESSAVG
ENERGY: 0 3.6948 9.1238 9.6464 0.0000 -10846.7733 1531.5448 0.0000 0.0000 1794.8298 -7497.9337 300.5155 -9292.7635 -7497.9337 300.5155 693.2500 787.5716 30878.5542 693.2500 787.5716
ENERGY: 300000 2.9737 8.2536 8.7062 0.0000 -10819.2608 1428.8117 0.0000 0.0000 1823.8755 -7546.6400 305.3788 -9370.5156 -7546.0980 300.4891 -222.2580 -150.4283 30743.9185 -71.0187 11.1148
ENERGY: 600000 1.9909 7.1624 10.5858 0.0000 -10849.3875 1460.6087 0.0000 0.0000 1810.3883 -7558.6513 303.1206 -9369.0396 -7567.7987 300.1796 18.7026 32.3156 31061.4367 -110.4882 -50.2946
ENERGY: 900000 5.0211 8.0255 6.8392 0.0000 -10895.3470 1468.4400 0.0000 0.0000 1772.2213 -7634.7999 296.7301 -9407.0212 -7588.6905 299.7960 -11.3997 83.4921 30720.3139 -123.6699 -62.1784
ENERGY: 1200000 3.3468 4.4623 6.5758 0.0000 -10912.5802 1437.3696 0.0000 0.0000 1795.2585 -7665.5670 300.5873 -9460.8256 -7588.4092 299.6216 -570.1257 -473.2176 30981.2986 -131.7802 -67.4600
ENERGY: 1500000 4.6999 5.5570 11.9827 0.0000 -10888.1811 1464.4143 0.0000 0.0000 1765.4421 -7636.0850 295.5950 -9401.5271 -7581.5074 299.7354 -336.9652 -343.9843 31079.8239 -66.1114 -1.9308
TCL: Running FEP window   5: Lambda1 0.7999999999999998 Lambda2 0.7499999999999998 [dLambda -0.050000000000000044]
TCL: Setting parameter firsttimestep to 0
TCL: Setting parameter alchLambda to 0.7999999999999998
Info: NONBONDED TABLE R-SQUARED SPACING: 0.0625
Info: NONBONDED TABLE SIZE: 705 POINTS
TCL: Setting parameter alchLambda2 to 0.7499999999999998
Info: NONBONDED TABLE R-SQUARED SPACING: 0.0625
Info: NONBONDED TABLE SIZE: 705 POINTS
TCL: Running for 1500000 steps
ETITLE: TS BOND ANGLE DIHED IMPRP ELECT VDW BOUNDARY MISC KINETIC TOTAL TEMP POTENTIAL TOTALAVG TEMPAVG PRESSURE GPRESSURE VOLUME PRESSAVG GPRESSAVG
ENERGY: 0 4.7000 5.5570 11.9827 0.0000 -10887.5787 1464.9281 0.0000 0.0000 1764.5087 -7635.9023 295.4388 -9400.4110 -7635.9023 295.4388 -448.6530 -350.9023 31079.8239 -448.6530 -350.9023
ENERGY: 300000 7.4180 9.9410 8.5213 0.0000 -10784.9426 1415.0598 0.0000 0.0000 1798.4525 -7545.5500 301.1221 -9344.0025 -7560.5097 301.6729 -405.8199 -291.3524 30850.4298 -290.7648 -175.1395
ENERGY: 600000 1.7398 5.0138 11.8885 0.0000 -10818.7407 1473.0659 0.0000 0.0000 1772.1679 -7554.8649 296.7212 -9327.0328 -7566.9711 299.5531 311.8439 362.1519 30794.3623 -171.7473 -75.6283
ENERGY: 900000 4.2867 7.6722 9.8890 0.0000 -10806.4693 1423.3049 0.0000 0.0000 1736.7928 -7624.5238 290.7982 -9361.3166 -7575.8305 299.0198 -37.5157 3.5202 30308.7038 -193.8766 -118.3316
ENERGY: 1200000 4.5835 4.4560 8.3632 0.0000 -10814.3015 1481.5948 0.0000 0.0000 1822.9270 -7492.3770 305.2200 -9315.3040 -7582.4369 299.6184 142.2182 198.8172 31368.0612 -139.6132 -61.4415
ENERGY: 1500000 5.0667 4.3631 6.2358 0.0000 -10863.2201 1448.0708 0.0000 0.0000 1773.5804 -7625.9033 296.9577 -9399.4838 -7579.9464 299.4090 -23.8796 7.6191 30492.9613 -134.0204 -63.7862
TCL: Running FEP window   6: Lambda1 0.7499999999999998 Lambda2 0.6999999999999997 [dLambda -0.050000000000000044]
TCL: Setting parameter firsttimestep to 0
TCL: Setting parameter alchLambda to 0.7499999999999998
Info: NONBONDED TABLE R-SQUARED SPACING: 0.0625
Info: NONBONDED TABLE SIZE: 705 POINTS
TCL: Setting parameter alchLambda2 to 0.6999999999999997
Info: NONBONDED TABLE R-SQUARED SPACING: 0.0625
Info: NONBONDED TABLE SIZE: 705 POINTS
TCL: Running for 1500000 steps
ETITLE: TS BOND ANGLE DIHED IMPRP ELECT VDW BOUNDARY MISC KINETIC TOTAL TEMP POTENTIAL TOTALAVG TEMPAVG PRESSURE GPRESSURE VOLUME PRESSAVG GPRESSAVG
ENERGY: 0 5.0667 4.3631 6.2358 0.0000 -10862.3374 1448.1725 0.0000 0.0000 1772.6538 -7625.8455 296.8025 -9398.4994 -7625.8455 296.8025 -87.8656 -2.6462 30492.9613 -87.8656 -2.6462
ENERGY: 300000 4.5587 12.6298 6.4017 0.0000 -10952.4101 1522.2913 0.0000 0.0000 1800.3849 -7606.1437 301.4456 -9406.5286 -7570.3708 302.7425 516.8609 594.7253 30658.4949 94.8992 172.3835
ENERGY: 600000 6.6681 8.0212 8.9124 0.0000 -10752.2622 1374.7648 0.0000 0.0000 1819.8857 -7534.0099 304.7107 -9353.8956 -7551.6420 303.5989 -736.1769 -675.8569 30965.7404 -116.7106 -46.3929
ENERGY: 900000 2.9772 5.2944 5.0444 0.0000 -10889.1430 1450.0927 0.0000 0.0000 1776.3089 -7649.4255 297.4145 -9425.7344 -7561.5655 302.4127 -118.3001 -112.0619 30675.0717 -148.0167 -83.3959
ENERGY: 1200000 3.3469 8.7949 10.3610 0.0000 -10948.1801 1533.4350 0.0000 0.0000 1790.7362 -7601.5061 299.8301 -9392.2423 -7559.2829 302.1498 507.0249 508.8218 30960.9698 -75.6255 -19.1369
ENERGY: 1500000 6.1300 6.9464 12.6332 0.0000 -10855.3556 1468.6248 0.0000 0.0000 1820.8724 -7540.1488 304.8760 -9361.0212 -7557.1658 302.5588 -181.0581 -80.0454 31229.6297 -85.4199 -28.1457
TCL: Running FEP window   7: Lambda1 0.6999999999999997 Lambda2 0.6499999999999997 [dLambda -0.050000000000000044]
TCL: Setting parameter firsttimestep to 0
TCL: Setting parameter alchLambda to 0.6999999999999997
Info: NONBONDED TABLE R-SQUARED SPACING: 0.0625
Info: NONBONDED TABLE SIZE: 705 POINTS
TCL: Setting parameter alchLambda2 to 0.6499999999999997
Info: NONBONDED TABLE R-SQUARED SPACING: 0.0625
Info: NONBONDED TABLE SIZE: 705 POINTS
TCL: Running for 1500000 steps
ETITLE: TS BOND ANGLE DIHED IMPRP ELECT VDW BOUNDARY MISC KINETIC TOTAL TEMP POTENTIAL TOTALAVG TEMPAVG PRESSURE GPRESSURE VOLUME PRESSAVG GPRESSAVG
ENERGY: 0 6.1300 6.9464 12.6332 0.0000 -10854.5402 1468.0538 0.0000 0.0000 1820.0071 -7540.7696 304.7311 -9360.7767 -7540.7696 304.7311 -175.0741 -99.5095 31229.6297 -175.0741 -99.5095
ENERGY: 300000 2.9085 9.0208 8.4590 0.0000 -10820.6838 1470.3983 0.0000 0.0000 1805.3187 -7524.5784 302.2717 -9329.8971 -7566.7616 299.1360 262.6475 363.9178 30910.9106 -169.5905 -85.1932
ENERGY: 600000 6.0080 5.9596 6.5015 0.0000 -10838.8466 1415.4391 0.0000 0.0000 1819.6846 -7585.2538 304.6771 -9404.9384 -7572.4689 300.9882 -827.2928 -719.2554 31383.6408 -218.7726 -127.3088
ENERGY: 900000 4.3503 8.9660 8.5098 0.0000 -10769.2653 1458.6978 0.0000 0.0000 1799.9809 -7488.7605 301.3780 -9288.7414 -7560.5550 301.3830 215.4289 226.0805 30900.5602 -182.4180 -102.9753
ENERGY: 1200000 4.9063 4.6110 7.1817 0.0000 -10763.6364 1414.9924 0.0000 0.0000 1792.0843 -7539.8607 300.0558 -9331.9450 -7563.1657 300.4309 -580.7811 -527.4560 31303.9257 -168.2905 -97.1201
ENERGY: 1500000 6.1012 7.6388 10.4773 0.0000 -10732.5580 1330.6594 0.0000 0.0000 1846.4411 -7531.2402 309.1570 -9377.6813 -7566.3859 301.0694 -914.5551 -905.6401 30654.5172 -284.4850 -218.8188
TCL: Running FEP window   8: Lambda1 0.6499999999999997 Lambda2 0.5999999999999996 [dLambda -0.050000000000000044]
TCL: Setting parameter firsttimestep to 0
TCL: Setting parameter alchLambda to 0.6499999999999997
Info: NONBONDED TABLE R-SQUARED SPACING: 0.0625
Info: NONBONDED TABLE SIZE: 705 POINTS
TCL: Setting parameter alchLambda2 to 0.5999999999999996
Info: NONBONDED TABLE R-SQUARED SPACING: 0.0625
Info: NONBONDED TABLE SIZE: 705 POINTS
TCL: Running for 1500000 steps
ETITLE: TS BOND ANGLE DIHED IMPRP ELECT VDW BOUNDARY MISC KINETIC TOTAL TEMP POTENTIAL TOTALAVG TEMPAVG PRESSURE GPRESSURE VOLUME PRESSAVG GPRESSAVG
ENERGY: 0 6.1013 7.6388 10.4773 0.0000 -10731.6532 1329.9971 0.0000 0.0000 1845.5679 -7531.8708 309.0108 -9377.4386 -7531.8708 309.0108 -1009.2059 -920.2114 30654.5172 -1009.2059 -920.2114
ENERGY: 300000 6.5110 5.0575 9.0358 0.0000 -10776.8006 1445.3312 0.0000 0.0000 1763.7534 -7547.1118 295.3123 -9310.8652 -7515.9147 303.5761 232.8706 339.2080 30743.7291 -379.7900 -308.3886
ENERGY: 600000 4.9774 6.8498 8.7007 0.0000 -10913.0267 1478.2120 0.0000 0.0000 1836.9030 -7577.3838 307.5600 -9414.2868 -7523.1005 303.7924 -109.2786 -13.8384 30887.5462 -379.1369 -294.6095
ENERGY: 900000 5.6615 6.1523 7.8264 0.0000 -10747.0677 1443.2911 0.0000 0.0000 1836.3759 -7447.7605 307.4718 -9284.1363 -7532.7162 303.0453 59.1116 177.7108 30950.4978 -237.2371 -163.4970
ENERGY: 1200000 4.7288 9.3556 7.1145 0.0000 -10802.5137 1454.1022 0.0000 0.0000 1792.5531 -7534.6596 300.1343 -9327.2126 -7538.5435 301.7274 119.2318 165.9555 30804.7194 -238.3735 -168.4428
ENERGY: 1500000 7.2012 8.7099 6.7040 0.0000 -10747.4515 1400.6693 0.0000 0.0000 1766.4926 -7557.6746 295.7709 -9324.1672 -7546.5427 300.9758 -228.3506 -124.6134 30645.7649 -243.3070 -173.9768
TCL: Running FEP window   9: Lambda1 0.5999999999999996 Lambda2 0.5499999999999996 [dLambda -0.050000000000000044]
TCL: Setting parameter firsttimestep to 0
TCL: Setting parameter alchLambda to 0.5999999999999996
Info: NONBONDED TABLE R-SQUARED SPACING: 0.0625
Info: NONBONDED TABLE SIZE: 705 POINTS
TCL: Setting parameter alchLambda2 to 0.5499999999999996
Info: NONBONDED TABLE R-SQUARED SPACING: 0.0625
Info: NONBONDED TABLE SIZE: 705 POINTS
TCL: Running for 1500000 steps
ETITLE: TS BOND ANGLE DIHED IMPRP ELECT VDW BOUNDARY MISC KINETIC TOTAL TEMP POTENTIAL TOTALAVG TEMPAVG PRESSURE GPRESSURE VOLUME PRESSAVG GPRESSAVG
ENERGY: 0 7.2012 8.7099 6.7040 0.0000 -10746.9834 1401.4455 0.0000 0.0000 1765.6148 -7557.3080 295.6240 -9322.9229 -7557.3080 295.6240 -215.0316 -126.4964 30645.7649 -215.0316 -126.4964
ENERGY: 300000 5.2642 9.4158 7.9923 0.0000 -10813.3323 1448.8388 0.0000 0.0000 1806.8845 -7534.9367 302.5339 -9341.8212 -7568.3597 297.7727 194.8057 230.9610 30725.4321 63.7670 103.8758
ENERGY: 600000 2.3659 5.0736 4.9321 0.0000 -10923.9852 1485.7205 0.0000 0.0000 1765.9325 -7659.9606 295.6771 -9425.8931 -7583.9836 297.7953 135.6213 215.7641 30615.3885 212.5570 255.2253
ENERGY: 900000 2.8279 4.3575 12.4057 0.0000 -10734.2139 1395.7238 0.0000 0.0000 1792.4327 -7526.4663 300.1142 -9318.8990 -7567.5625 299.1541 -49.4984 -25.7371 30514.0286 29.5798 74.7225
ENERGY: 1200000 3.3180 7.9882 11.8980 0.0000 -10819.9900 1439.0430 0.0000 0.0000 1795.3964 -7562.3465 300.6104 -9357.7429 -7584.4683 298.7752 -86.1932 41.2564 30875.1096 -48.1718 8.0768
ENERGY: 1500000 4.7425 4.2519 6.8809 0.0000 -10668.4630 1367.7480 0.0000 0.0000 1750.7292 -7534.1106 293.1316 -9284.8398 -7571.7452 299.1091 -400.5786 -363.9474 30653.7945 -211.4775 -158.2347
TCL: Running FEP window  10: Lambda1 0.5499999999999996 Lambda2 0.4999999999999996 [dLambda -0.04999999999999999]
TCL: Setting parameter firsttimestep to 0
TCL: Setting parameter alchLambda to 0.5499999999999996
Info: NONBONDED TABLE R-SQUARED SPACING: 0.0625
Info: NONBONDED TABLE SIZE: 705 POINTS
TCL: Setting parameter alchLambda2 to 0.4999999999999996
Info: NONBONDED TABLE R-SQUARED SPACING: 0.0625
Info: NONBONDED TABLE SIZE: 705 POINTS
TCL: Running for 1500000 steps
ETITLE: TS BOND ANGLE DIHED IMPRP ELECT VDW BOUNDARY MISC KINETIC TOTAL TEMP POTENTIAL TOTALAVG TEMPAVG PRESSURE GPRESSURE VOLUME PRESSAVG GPRESSAVG
ENERGY: 0 4.7425 4.2519 6.8809 0.0000 -10668.1308 1367.6918 0.0000 0.0000 1749.8546 -7534.7092 292.9852 -9284.5637 -7534.7092 292.9852 -445.9255 -373.0628 30653.7945 -445.9255 -373.0628
ENERGY: 300000 4.3750 6.1713 7.6321 0.0000 -10850.1588 1471.4744 0.0000 0.0000 1839.3758 -7521.1300 307.9741 -9360.5059 -7570.7384 300.2588 138.9129 220.9467 30613.4058 -213.4505 -150.1480
ENERGY: 600000 2.6906 4.8728 10.3256 0.0000 -10819.1706 1470.7221 0.0000 0.0000 1763.4898 -7567.0697 295.2681 -9330.5595 -7568.1123 299.7824 320.0894 380.1439 30848.0193 -117.5910 -49.4846
ENERGY: 900000 5.3914 4.2710 9.2277 0.0000 -10806.9451 1412.8651 0.0000 0.0000 1755.4778 -7619.7121 293.9267 -9375.1899 -7584.6007 297.8220 -436.2711 -380.9478 30933.5964 -126.5388 -55.0429
ENERGY: 1200000 4.1710 5.2934 9.3726 0.0000 -10715.7357 1448.5070 0.0000 0.0000 1772.6781 -7475.7136 296.8066 -9248.3916 -7581.6591 297.9780 309.2150 397.2093 30789.6326 -117.6256 -45.9998
ENERGY: 1500000 8.7987 5.6985 7.5119 0.0000 -10878.9359 1489.2672 0.0000 0.0000 1841.4621 -7526.1976 308.3234 -9367.6597 -7576.1580 298.9007 130.6733 153.8342 30928.2607 -90.6273 -22.8718
TCL: Running FEP window  11: Lambda1 0.4999999999999996 Lambda2 0.4499999999999996 [dLambda -0.04999999999999999]
TCL: Setting parameter firsttimestep to 0
TCL: Setting parameter alchLambda to 0.4999999999999996
Info: NONBONDED TABLE R-SQUARED SPACING: 0.0625
Info: NONBONDED TABLE SIZE: 705 POINTS
TCL: Setting parameter alchLambda2 to 0.4499999999999996
Info: NONBONDED TABLE R-SQUARED SPACING: 0.0625
Info: NONBONDED TABLE SIZE: 705 POINTS
TCL: Running for 1500000 steps
ETITLE: TS BOND ANGLE DIHED IMPRP ELECT VDW BOUNDARY MISC KINETIC TOTAL TEMP POTENTIAL TOTALAVG TEMPAVG PRESSURE GPRESSURE VOLUME PRESSAVG GPRESSAVG
ENERGY: 0 8.7987 5.6985 7.5119 0.0000 -10878.8529 1489.8994 0.0000 0.0000 1840.5850 -7526.3593 308.1765 -9366.9444 -7526.3593 308.1765 84.1147 154.5215 30928.2607 84.1147 154.5215
ENERGY: 300000 4.0020 6.2525 8.3286 0.0000 -10861.1576 1502.5743 0.0000 0.0000 1832.1841 -7507.8159 306.7699 -9340.0000 -7558.4383 301.6983 663.1737 722.3789 30184.7891 -8.6894 42.2107
ENERGY: 600000 4.5924 9.2399 6.1710 0.0000 -10809.1573 1400.2314 0.0000 0.0000 1783.6829 -7605.2398 298.6492 -9388.9227 -7587.7900 299.4288 -462.3815 -384.2964 30666.3413 -112.6365 -55.0508
ENERGY: 900000 6.6001 5.4558 11.2297 0.0000 -10829.7075 1507.5766 0.0000 0.0000 1830.7807 -7468.0646 306.5349 -9298.8453 -7580.9723 299.3830 358.9798 408.6956 30794.8360 87.2929 138.3557
ENERGY: 1200000 3.4579 4.9086 11.9062 0.0000 -10864.1289 1411.4054 0.0000 0.0000 1805.8497 -7626.6011 302.3606 -9432.4508 -7567.4473 300.5254 -258.1451 -259.8291 30315.9155 28.6798 74.9093
ENERGY: 1500000 2.9436 7.6600 11.0877 0.0000 -10801.6974 1383.3664 0.0000 0.0000 1754.4831 -7642.1566 293.7601 -9396.6397 -7575.3457 299.1645 -735.1558 -713.2028 30852.4602 -34.6346 17.9591
TCL: Running FEP window  12: Lambda1 0.4499999999999996 Lambda2 0.39999999999999963 [dLambda -0.04999999999999999]
TCL: Setting parameter firsttimestep to 0
TCL: Setting parameter alchLambda to 0.4499999999999996
Info: NONBONDED TABLE R-SQUARED SPACING: 0.0625
Info: NONBONDED TABLE SIZE: 705 POINTS
TCL: Setting parameter alchLambda2 to 0.39999999999999963
Info: NONBONDED TABLE R-SQUARED SPACING: 0.0625
Info: NONBONDED TABLE SIZE: 705 POINTS
TCL: Running for 1500000 steps
ETITLE: TS BOND ANGLE DIHED IMPRP ELECT VDW BOUNDARY MISC KINETIC TOTAL TEMP POTENTIAL TOTALAVG TEMPAVG PRESSURE GPRESSURE VOLUME PRESSAVG GPRESSAVG
ENERGY: 0 2.9436 7.6600 11.0877 0.0000 -10801.6987 1384.0642 0.0000 0.0000 1753.6246 -7642.3185 293.6164 -9395.9431 -7642.3185 293.6164 -798.2017 -716.7861 30852.4602 -798.2017 -716.7861
ENERGY: 300000 5.4723 12.0812 5.7049 0.0000 -10831.7326 1464.4099 0.0000 0.0000 1798.4028 -7545.6616 301.1138 -9344.0643 -7575.0103 298.1510 96.9185 238.8126 30603.2808 -451.3640 -351.0579
ENERGY: 600000 2.3309 3.7398 9.3384 0.0000 -10947.7286 1477.6388 0.0000 0.0000 1786.9415 -7667.7393 299.1948 -9454.6809 -7549.7259 300.3845 -276.3328 -217.0752 30819.4474 -311.0166 -225.3779
ENERGY: 900000 4.0582 4.8253 13.2362 0.0000 -10782.5350 1371.4728 0.0000 0.0000 1825.6828 -7563.2596 305.6814 -9388.9424 -7551.6947 301.2948 -616.4573 -609.4491 30761.6874 -280.6173 -206.7635
ENERGY: 1200000 3.3284 3.9884 14.3171 0.0000 -10713.3687 1382.2948 0.0000 0.0000 1757.0140 -7552.4259 294.1839 -9309.4399 -7552.9036 301.4362 -634.6912 -561.2706 31138.0314 -226.6267 -162.5684
ENERGY: 1500000 4.0546 4.3994 9.6975 0.0000 -10796.1184 1432.0371 0.0000 0.0000 1751.2941 -7594.6357 293.2262 -9345.9298 -7559.2519 300.2990 -407.0399 -280.8744 30926.9179 -220.5908 -150.1047
TCL: Running FEP window  13: Lambda1 0.39999999999999963 Lambda2 0.34999999999999964 [dLambda -0.04999999999999999]
TCL: Setting parameter firsttimestep to 0
TCL: Setting parameter alchLambda to 0.39999999999999963
Info: NONBONDED TABLE R-SQUARED SPACING: 0.0625
Info: NONBONDED TABLE SIZE: 705 POINTS
TCL: Setting parameter alchLambda2 to 0.34999999999999964
Info: NONBONDED TABLE R-SQUARED SPACING: 0.0625
Info: NONBONDED TABLE SIZE: 705 POINTS
TCL: Running for 1500000 steps
ETITLE: TS BOND ANGLE DIHED IMPRP ELECT VDW BOUNDARY MISC KINETIC TOTAL TEMP POTENTIAL TOTALAVG TEMPAVG PRESSURE GPRESSURE VOLUME PRESSAVG GPRESSAVG
ENERGY: 0 4.0546 4.3994 9.6975 0.0000 -10796.1180 1432.2778 0.0000 0.0000 1750.4358 -7595.2529 293.0825 -9345.6888 -7595.2529 293.0825 -379.3058 -288.7118 30926.9179 -379.3058 -288.7118
ENERGY: 300000 1.9019 2.9726 7.2263 0.0000 -10752.0868 1424.9362 0.0000 0.0000 1863.9619 -7451.0879 312.0906 -9315.0498 -7514.8121 301.4170 -177.7726 -113.7299 31200.0051 -505.5993 -436.0276
ENERGY: 600000 5.9260 9.6859 10.5539 0.0000 -10854.9400 1437.5279 0.0000 0.0000 1783.9414 -7607.3048 298.6924 -9391.2462 -7553.6813 300.3886 35.9639 88.2964 30386.3275 -261.1536 -208.2929
ENERGY: 900000 3.2450 5.8905 7.8320 0.0000 -10848.1785 1432.6884 0.0000 0.0000 1768.1894 -7630.3332 296.0550 -9398.5226 -7568.0631 299.6438 -182.4154 -126.8134 30511.6959 -225.4999 -169.2037
ENERGY: 1200000 4.8505 5.7875 8.9371 0.0000 -10773.7013 1498.7409 0.0000 0.0000 1808.3890 -7446.9964 302.7858 -9255.3853 -7555.7313 300.3426 387.5486 461.1996 31206.2862 -174.0949 -114.4898
ENERGY: 1500000 6.9773 6.2777 7.4442 0.0000 -10808.5022 1469.0154 0.0000 0.0000 1795.2676 -7523.5199 300.5888 -9318.7875 -7550.7764 300.4964 -144.3414 -109.6750 31000.1100 -157.4889 -99.5480
TCL: Running FEP window  14: Lambda1 0.34999999999999964 Lambda2 0.29999999999999966 [dLambda -0.04999999999999999]
TCL: Setting parameter firsttimestep to 0
TCL: Setting parameter alchLambda to 0.34999999999999964
Info: NONBONDED TABLE R-SQUARED SPACING: 0.0625
Info: NONBONDED TABLE SIZE: 705 POINTS
TCL: Setting parameter alchLambda2 to 0.29999999999999966
Info: NONBONDED TABLE R-SQUARED SPACING: 0.0625
Info: NONBONDED TABLE SIZE: 705 POINTS
TCL: Running for 1500000 steps
ETITLE: TS BOND ANGLE DIHED IMPRP ELECT VDW BOUNDARY MISC KINETIC TOTAL TEMP POTENTIAL TOTALAVG TEMPAVG PRESSURE GPRESSURE VOLUME PRESSAVG GPRESSAVG
ENERGY: 0 6.9773 6.2777 7.4442 0.0000 -10808.4997 1469.2355 0.0000 0.0000 1794.3628 -7524.2021 300.4373 -9318.5649 -7524.2021 300.4373 -198.0713 -113.9499 31000.1100 -198.0713 -113.9499
ENERGY: 300000 5.0751 4.8917 12.9392 0.0000 -10822.7789 1410.8162 0.0000 0.0000 1818.2027 -7570.8541 304.4290 -9389.0568 -7531.0478 302.8580 -284.4461 -304.3978 30683.0689 59.1757 119.3120
ENERGY: 600000 3.6957 6.2782 7.1650 0.0000 -10875.1460 1489.3908 0.0000 0.0000 1829.0928 -7539.5235 306.2523 -9368.6163 -7525.9536 303.8315 451.6040 510.6325 30544.3920 75.2150 130.9772
ENERGY: 900000 5.7520 5.8815 8.2451 0.0000 -10937.3120 1538.6545 0.0000 0.0000 1747.6118 -7631.1672 292.6096 -9378.7790 -7550.9137 301.8363 415.0327 495.2500 30963.0312 113.5839 178.6159
ENERGY: 1200000 4.7768 8.9407 7.1227 0.0000 -10685.9647 1420.5267 0.0000 0.0000 1780.8962 -7463.7015 298.1826 -9244.5977 -7553.5889 300.3980 -228.0461 -169.8783 31284.8750 -14.0013 49.5630
ENERGY: 1500000 1.3371 6.8245 8.7586 0.0000 -10899.0208 1492.2448 0.0000 0.0000 1775.6362 -7614.2196 297.3019 -9389.8558 -7553.5958 300.3818 128.5242 208.1233 30641.6554 -17.0314 50.2247
TCL: Running FEP window  15: Lambda1 0.29999999999999966 Lambda2 0.24999999999999967 [dLambda -0.04999999999999999]
TCL: Setting parameter firsttimestep to 0
TCL: Setting parameter alchLambda to 0.29999999999999966
Info: NONBONDED TABLE R-SQUARED SPACING: 0.0625
Info: NONBONDED TABLE SIZE: 705 POINTS
TCL: Setting parameter alchLambda2 to 0.24999999999999967
Info: NONBONDED TABLE R-SQUARED SPACING: 0.0625
Info: NONBONDED TABLE SIZE: 705 POINTS
TCL: Running for 1500000 steps
ETITLE: TS BOND ANGLE DIHED IMPRP ELECT VDW BOUNDARY MISC KINETIC TOTAL TEMP POTENTIAL TOTALAVG TEMPAVG PRESSURE GPRESSURE VOLUME PRESSAVG GPRESSAVG
ENERGY: 0 1.3371 6.8245 8.7586 0.0000 -10899.0217 1492.9111 0.0000 0.0000 1774.7397 -7614.4507 297.1518 -9389.1904 -7614.4507 297.1518 121.4906 205.7466 30641.6554 121.4906 205.7466
ENERGY: 300000 3.6278 6.8353 12.6653 0.0000 -10906.0958 1518.3104 0.0000 0.0000 1752.9566 -7611.7003 293.5045 -9364.6569 -7571.0789 299.5993 371.3536 453.2419 30440.2368 226.1952 295.5090
ENERGY: 600000 3.6209 9.1139 10.7830 0.0000 -10724.7050 1385.2844 0.0000 0.0000 1839.0097 -7476.8931 307.9128 -9315.9028 -7557.6405 300.1878 -541.9415 -491.8208 30805.6377 -47.1840 5.2818
ENERGY: 900000 1.8022 6.3170 8.6352 0.0000 -10815.2448 1462.0140 0.0000 0.0000 1798.5197 -7537.9567 301.1334 -9336.4764 -7551.3509 299.8416 -187.0826 -150.4189 31314.0246 -4.8538 57.1238
ENERGY: 1200000 5.4303 6.4984 6.2226 0.0000 -10935.3574 1469.3277 0.0000 0.0000 1872.8774 -7575.0011 313.5834 -9447.8785 -7562.8071 300.1243 -80.7147 -12.0669 30682.0104 -72.5821 -13.5709
ENERGY: 1500000 5.1680 8.5542 9.4356 0.0000 -10961.7222 1509.0245 0.0000 0.0000 1800.8506 -7628.6893 301.5236 -9429.5400 -7567.4473 300.6997 -36.4163 70.7031 30554.9245 -42.3858 15.4966
TCL: Running FEP window  16: Lambda1 0.24999999999999967 Lambda2 0.19999999999999968 [dLambda -0.04999999999999999]
TCL: Setting parameter firsttimestep to 0
TCL: Setting parameter alchLambda to 0.24999999999999967
Info: NONBONDED TABLE R-SQUARED SPACING: 0.0625
Info: NONBONDED TABLE SIZE: 705 POINTS
TCL: Setting parameter alchLambda2 to 0.19999999999999968
Info: NONBONDED TABLE R-SQUARED SPACING: 0.0625
Info: NONBONDED TABLE SIZE: 705 POINTS
TCL: Running for 1500000 steps
ETITLE: TS BOND ANGLE DIHED IMPRP ELECT VDW BOUNDARY MISC KINETIC TOTAL TEMP POTENTIAL TOTALAVG TEMPAVG PRESSURE GPRESSURE VOLUME PRESSAVG GPRESSAVG
ENERGY: 0 5.1680 8.5542 9.4356 0.0000 -10961.7245 1509.4093 0.0000 0.0000 1799.9792 -7629.1782 301.3777 -9429.1574 -7629.1782 301.3777 -15.5672 69.2998 30554.9245 -15.5672 69.2998
ENERGY: 300000 3.4533 4.4560 9.9572 0.0000 -10800.0369 1493.4559 0.0000 0.0000 1802.8805 -7485.8340 301.8635 -9288.7145 -7549.6495 300.2108 -86.2544 12.3008 31221.0704 -322.8547 -247.7875
ENERGY: 600000 2.8726 5.2982 8.6384 0.0000 -10863.3697 1475.6072 0.0000 0.0000 1834.4507 -7536.5026 307.1494 -9370.9533 -7552.9284 300.3722 289.8325 378.9343 30425.4018 -274.0377 -192.2040
ENERGY: 900000 3.3597 6.3715 8.9076 0.0000 -10851.9761 1484.3135 0.0000 0.0000 1836.7748 -7512.2489 307.5385 -9349.0237 -7539.2340 301.7622 268.7266 351.2477 30361.4418 -196.8937 -113.3180
ENERGY: 1200000 6.3710 7.2137 5.2844 0.0000 -10742.0411 1366.2573 0.0000 0.0000 1768.3993 -7588.5155 296.0902 -9356.9148 -7547.8462 300.3196 -824.9120 -746.9202 30725.5607 -207.4635 -126.5560
ENERGY: 1500000 3.7086 6.4507 11.8201 0.0000 -10793.8047 1423.1195 0.0000 0.0000 1810.3489 -7538.3568 303.1140 -9348.7058 -7551.9223 299.9366 -338.5789 -295.8079 30851.5569 -259.9904 -188.2529
TCL: Running FEP window  17: Lambda1 0.19999999999999968 Lambda2 0.1499999999999997 [dLambda -0.04999999999999999]
TCL: Setting parameter firsttimestep to 0
TCL: Setting parameter alchLambda to 0.19999999999999968
Info: NONBONDED TABLE R-SQUARED SPACING: 0.0625
Info: NONBONDED TABLE SIZE: 705 POINTS
TCL: Setting parameter alchLambda2 to 0.1499999999999997
Info: NONBONDED TABLE R-SQUARED SPACING: 0.0625
Info: NONBONDED TABLE SIZE: 705 POINTS
TCL: Running for 1500000 steps
ETITLE: TS BOND ANGLE DIHED IMPRP ELECT VDW BOUNDARY MISC KINETIC TOTAL TEMP POTENTIAL TOTALAVG TEMPAVG PRESSURE GPRESSURE VOLUME PRESSAVG GPRESSAVG
ENERGY: 0 3.7086 6.4507 11.8201 0.0000 -10793.8052 1423.2383 0.0000 0.0000 1809.4821 -7539.1055 302.9688 -9348.5876 -7539.1055 302.9688 -380.0934 -299.1806 30851.5569 -380.0934 -299.1806
ENERGY: 300000 4.5024 7.6365 9.5356 0.0000 -10760.9107 1396.8439 0.0000 0.0000 1777.6127 -7564.7797 297.6328 -9342.3924 -7564.0667 299.2181 -674.9703 -597.8421 30712.7575 -2.3586 60.6705
ENERGY: 600000 2.5248 4.9792 6.9899 0.0000 -10756.0688 1442.4236 0.0000 0.0000 1788.2225 -7510.9289 299.4092 -9299.1514 -7550.5948 298.5951 176.8185 226.7974 30651.6142 -204.0738 -158.5894
ENERGY: 900000 3.5477 3.6703 9.7779 0.0000 -10675.3061 1377.5958 0.0000 0.0000 1798.1054 -7482.6090 301.0640 -9280.7144 -7544.4733 299.7130 -515.3233 -495.8910 31104.6862 -93.8164 -49.6910
ENERGY: 1200000 3.7444 5.5587 15.6639 0.0000 -10819.7615 1463.1272 0.0000 0.0000 1835.0666 -7496.6006 307.2525 -9331.6672 -7542.3151 300.1350 -151.8184 -51.8977 30979.7481 -124.2553 -75.2843
ENERGY: 1500000 2.9831 4.3879 7.9770 0.0000 -10941.3533 1536.5904 0.0000 0.0000 1697.5921 -7691.8229 284.2346 -9389.4150 -7561.5234 298.9326 403.0281 451.7149 30700.7060 -133.4310 -85.7361
TCL: Running FEP window  18: Lambda1 0.1499999999999997 Lambda2 0.09999999999999969 [dLambda -0.05 ]
TCL: Setting parameter firsttimestep to 0
TCL: Setting parameter alchLambda to 0.1499999999999997
Info: NONBONDED TABLE R-SQUARED SPACING: 0.0625
Info: NONBONDED TABLE SIZE: 705 POINTS
TCL: Setting parameter alchLambda2 to 0.09999999999999969
Info: NONBONDED TABLE R-SQUARED SPACING: 0.0625
Info: NONBONDED TABLE SIZE: 705 POINTS
TCL: Running for 1500000 steps
ETITLE: TS BOND ANGLE DIHED IMPRP ELECT VDW BOUNDARY MISC KINETIC TOTAL TEMP POTENTIAL TOTALAVG TEMPAVG PRESSURE GPRESSURE VOLUME PRESSAVG GPRESSAVG
ENERGY: 0 2.9831 4.3879 7.9770 0.0000 -10941.3550 1536.4120 0.0000 0.0000 1696.7002 -7692.8949 284.0853 -9389.5951 -7692.8949 284.0853 364.8172 444.3217 30700.7060 364.8172 444.3217
ENERGY: 300000 4.2852 8.1315 7.4669 0.0000 -11002.4945 1543.2173 0.0000 0.0000 1794.2149 -7645.1787 300.4126 -9439.3936 -7616.7856 298.0962 447.4993 509.8072 30133.2309 340.9356 419.7241
ENERGY: 600000 3.5112 7.8282 12.3472 0.0000 -10797.2260 1417.2321 0.0000 0.0000 1766.7564 -7589.5509 295.8151 -9356.3073 -7609.3803 298.3295 -392.7958 -395.2658 30777.4198 15.0546 72.8692
ENERGY: 900000 4.9434 5.9620 6.0733 0.0000 -10920.5816 1456.3845 0.0000 0.0000 1766.6017 -7680.6167 295.7892 -9447.2184 -7609.9384 298.5700 -280.5734 -218.7800 30381.6735 -37.7978 17.0475
ENERGY: 1200000 3.1705 3.8656 9.7525 0.0000 -10825.4281 1416.3453 0.0000 0.0000 1848.9996 -7543.2946 309.5854 -9392.2942 -7592.3839 299.9587 -424.1049 -322.8243 30579.7950 -55.2804 -0.2047
ENERGY: 1500000 5.3223 6.4116 6.6938 0.0000 -10743.9770 1402.6642 0.0000 0.0000 1766.6363 -7556.2488 295.7950 -9322.8852 -7581.2372 299.8728 -228.4474 -125.3529 30590.2341 -64.9164 -5.4278
TCL: Running FEP window  19: Lambda1 0.09999999999999969 Lambda2 0.049999999999999684 [dLambda -0.05 ]
TCL: Setting parameter firsttimestep to 0
TCL: Setting parameter alchLambda to 0.09999999999999969
Info: NONBONDED TABLE R-SQUARED SPACING: 0.0625
Info: NONBONDED TABLE SIZE: 705 POINTS
TCL: Setting parameter alchLambda2 to 0.049999999999999684
Info: NONBONDED TABLE R-SQUARED SPACING: 0.0625
Info: NONBONDED TABLE SIZE: 705 POINTS
TCL: Running for 1500000 steps
ETITLE: TS BOND ANGLE DIHED IMPRP ELECT VDW BOUNDARY MISC KINETIC TOTAL TEMP POTENTIAL TOTALAVG TEMPAVG PRESSURE GPRESSURE VOLUME PRESSAVG GPRESSAVG
ENERGY: 0 5.3223 6.4116 6.6938 0.0000 -10743.9762 1403.3064 0.0000 0.0000 1765.7709 -7556.4712 295.6501 -9322.2421 -7556.4712 295.6501 -224.0972 -129.3686 30590.2341 -224.0972 -129.3686
ENERGY: 300000 5.7030 5.5925 8.5731 0.0000 -10772.0800 1429.3859 0.0000 0.0000 1780.1493 -7542.6762 298.0575 -9322.8255 -7567.9379 298.3645 -189.0869 -121.4771 30602.5804 144.9722 220.5479
ENERGY: 600000 2.7338 2.9300 8.0361 0.0000 -10699.3085 1375.1961 0.0000 0.0000 1759.1811 -7551.2314 294.5467 -9310.4125 -7544.6656 298.8844 -296.7305 -239.9778 30524.9945 172.7322 245.6570
ENERGY: 900000 4.6376 5.7327 6.0537 0.0000 -10756.6712 1420.1642 0.0000 0.0000 1806.6933 -7513.3895 302.5019 -9320.0829 -7541.4809 300.0823 -241.1430 -184.9240 30560.8949 192.0514 259.7878
ENERGY: 1200000 4.7383 5.9845 7.5292 0.0000 -10728.6444 1375.0112 0.0000 0.0000 1727.2421 -7608.1391 289.1991 -9335.3812 -7556.1416 298.6715 -611.9948 -494.5129 30455.4287 95.2312 167.6917
ENERGY: 1500000 4.3543 4.4800 9.0880 0.0000 -10835.0532 1503.2482 0.0000 0.0000 1768.8952 -7544.9875 296.1732 -9313.8827 -7552.3246 298.8961 489.7785 504.8339 30702.3406 130.7545 195.8321
TCL: Running FEP window  20: Lambda1 0.049999999999999684 Lambda2 0.0    [dLambda -0.049999999999999684]
TCL: Setting parameter firsttimestep to 0
TCL: Setting parameter alchLambda to 0.049999999999999684
Info: NONBONDED TABLE R-SQUARED SPACING: 0.0625
Info: NONBONDED TABLE SIZE: 705 POINTS
TCL: Setting parameter alchLambda2 to 0.0
Info: NONBONDED TABLE R-SQUARED SPACING: 0.0625
Info: NONBONDED TABLE SIZE: 705 POINTS
TCL: Running for 1500000 steps
ETITLE: TS BOND ANGLE DIHED IMPRP ELECT VDW BOUNDARY MISC KINETIC TOTAL TEMP POTENTIAL TOTALAVG TEMPAVG PRESSURE GPRESSURE VOLUME PRESSAVG GPRESSAVG
ENERGY: 0 4.3543 4.4800 9.0880 0.0000 -10835.0544 1501.7735 0.0000 0.0000 1768.0306 -7547.3280 296.0284 -9315.3586 -7547.3280 296.0284 414.5182 491.8790 30702.3406 414.5182 491.8790
ENERGY: 300000 4.4371 6.5250 8.0026 0.0000 -10793.6226 1427.4777 0.0000 0.0000 1739.1208 -7608.0594 291.1880 -9347.1802 -7556.8135 295.9430 -294.0109 -323.5751 30626.2177 147.2380 181.0472
ENERGY: 600000 3.3553 6.1334 8.7107 0.0000 -10803.9334 1447.2316 0.0000 0.0000 1769.0466 -7569.4557 296.1985 -9338.5023 -7537.5614 299.1746 -163.0343 -46.3582 30783.8538 84.1206 147.1637
ENERGY: 900000 4.3927 6.7446 10.0659 0.0000 -10809.3671 1456.4654 0.0000 0.0000 1804.1026 -7527.5959 302.0681 -9331.6986 -7540.2513 300.2226 22.9784 98.0723 30536.9420 42.2465 105.1568
ENERGY: 1200000 3.3261 4.5541 8.3948 0.0000 -10947.1620 1539.6562 0.0000 0.0000 1786.2572 -7604.9736 299.0802 -9391.2308 -7544.5909 300.3770 372.9037 457.7874 30922.1562 74.3258 137.6295
ENERGY: 1500000 3.8368 3.5764 6.6340 0.0000 -10973.7330 1488.1411 0.0000 0.0000 1827.8265 -7643.7182 306.0403 -9471.5448 -7551.7431 301.0874 228.1506 283.7324 29987.6326 -13.1452 46.0090
TCL: Exiting due to exit command.
