Info: SIMULATION PARAMETERS:
Info: TIMESTEP               2
Info: NUMBER OF STEPS        0
Info: STEPS PER CYCLE        10
Info: PERIODIC CELL BASIS 1  30.1365 0 0
Info: PERIODIC CELL BASIS 2  0 29.7805 0
Info: PERIODIC CELL BASIS 3  0 0 34.0751
Info: PERIODIC CELL CENTER   0 0 0
Info: WRAPPING WATERS AROUND PERIODIC BOUNDARIES ON OUTPUT.
Info: WRAPPING ALL CLUSTERS AROUND PERIODIC BOUNDARIES ON OUTPUT.
Info: FIRST LDB TIMESTEP     50
Info: LAST LDB TIMESTEP     -1
Info: HOM BACKGROUND SCALING 1
Info: PME BACKGROUND SCALING 1
Info: MIN ATOMS PER PATCH    40
Info: EMPTY PATCH LOAD       40 ATOMS
Info: VELOCITY FILE          mobley_7463799_equil.vel
Info: CENTER OF MASS MOVING INITIALLY? NO
Info: DIELECTRIC             1
Info: EXCLUDE                SCALED ONE-FOUR
Info: 1-4 ELECTROSTATICS SCALED BY 0.833333
Info: MODIFIED 1-4 VDW PARAMETERS WILL BE USED
Info: DCD FILENAME           mobley_7463799_prod.dcd
Info: DCD FREQUENCY          100000
Info: DCD FIRST STEP         100000
Info: DCD FILE WILL CONTAIN UNIT CELL DATA
Info: XST FILENAME           mobley_7463799_prod.xst
Info: XST FREQUENCY          100000
Info: NO VELOCITY DCD OUTPUT
Info: NO FORCE DCD OUTPUT
Info: OUTPUT FILENAME        mobley_7463799_prod
Info: BINARY OUTPUT FILES WILL BE USED
Info: RESTART FILENAME       mobley_7463799_prod.restart
Info: RESTART FREQUENCY      100000
Info: BINARY RESTART FILES WILL BE USED
Info: CUTOFF                 9
Info: PAIRLIST DISTANCE      11
Info: PAIRLIST SHRINK RATE   0.01
Info: PAIRLIST GROW RATE     0.01
Info: PAIRLIST TRIGGER       0.3
Info: PAIRLISTS PER CYCLE    2
Info: PAIRLISTS ENABLED
Info: MARGIN                 2
Info: HYDROGEN GROUP CUTOFF  2.5
Info: PATCH DIMENSION        15.5
Info: ENERGY OUTPUT STEPS    100000
Info: ENERGY EVALUATION STEPS    100000
Info: OUTPUT ENERGY PRECISION 4
Info: CROSSTERM ENERGY INCLUDED IN DIHEDRAL
Info: TIMING OUTPUT STEPS    1000000
Info: PRESSURE OUTPUT STEPS  100000
Info: ALCHEMICAL FEP ON
Info: FEP CURRENT LAMBDA VALUE     1
Info: FEP COMPARISON LAMBDA VALUE  0.95
Info: FEP INTRA-ALCHEMICAL NON-BONDED INTERACTIONS WILL BE RETAINED
Info: FEP INTRA-ALCHEMICAL BONDED INTERACTIONS WILL BE RETAINED
Info: FEP VDW SHIFTING COEFFICIENT 5
Info: FEP ELEC. ACTIVE FOR ANNIHILATED PARTICLES BETWEEN LAMBDA = 0 AND LAMBDA = 0.5
Info: FEP ELEC. ACTIVE FOR EXNIHILATED PARTICLES BETWEEN LAMBDA = 0.5 AND LAMBDA = 1
Info: FEP VDW ACTIVE FOR ANNIHILATED PARTICLES BETWEEN LAMBDA = 0 AND LAMBDA = 1
Info: FEP VDW ACTIVE FOR EXNIHILATED PARTICLES BETWEEN LAMBDA = 0 AND LAMBDA = 1
Info: FEP BOND ACTIVE FOR ANNIHILATED PARTICLES BETWEEN LAMBDA = 1 AND LAMBDA = 1
Info: FEP BOND ACTIVE FOR EXNIHILATED PARTICLES BETWEEN LAMBDA = 0 AND LAMBDA = 0
Info: LANGEVIN DYNAMICS ACTIVE
Info: LANGEVIN TEMPERATURE   300
Info: LANGEVIN USING BBK INTEGRATOR
Info: LANGEVIN DAMPING COEFFICIENT IS 1 INVERSE PS
Info: LANGEVIN DYNAMICS APPLIED TO HYDROGENS
Info: LANGEVIN PISTON PRESSURE CONTROL ACTIVE
Info:        TARGET PRESSURE IS 1.01325 BAR
Info:     OSCILLATION PERIOD IS 50 FS
Info:             DECAY TIME IS 25 FS
Info:     PISTON TEMPERATURE IS 300 K
Info:       PRESSURE CONTROL IS GROUP-BASED
Info:    INITIAL STRAIN RATE IS 0.00020176 0.00020176 0.00020176
Info:       CELL FLUCTUATION IS ISOTROPIC
Info: PARTICLE MESH EWALD (PME) ACTIVE
Info: PME TOLERANCE               1e-06
Info: PME EWALD COEFFICIENT       0.348832
Info: PME INTERPOLATION ORDER     4
Info: PME GRID DIMENSIONS         32 32 36
Info: PME MAXIMUM GRID SPACING    1
Info: PME CALCULATION WILL BE PERFORMED ON GPU
Info: FULL ELECTROSTATIC EVALUATION FREQUENCY      2
Info: USING VERLET I (r-RESPA) MTS SCHEME.
Info: C1 SPLITTING OF LONG RANGE ELECTROSTATICS
Info: PLACING ATOMS IN PATCHES BY HYDROGEN GROUPS
Info: RIGID BONDS TO HYDROGEN : ALL
Info:         ERROR TOLERANCE : 1e-08
Info:          MAX ITERATIONS : 100
Info: RIGID WATER USING SETTLE ALGORITHM
Info: RANDOM NUMBER SEED     1743987196
Info: USE HYDROGEN BONDS?    NO
Info: Using AMBER format force field!
Info: AMBER PARM FILE        mobley_7463799.prmtop
Info: COORDINATE PDB         mobley_7463799.pdb
Info: Exclusions will be read from PARM file!
Info: SCNB (VDW SCALING)     2
Info: USING ARITHMETIC MEAN TO COMBINE L-J SIGMA PARAMETERS
Info: BINARY COORDINATES     mobley_7463799_equil.coor
Info: SUMMARY OF PARAMETERS:
Info: 10 BONDS
Info: 13 ANGLES
Info:   13 HARMONIC
Info:   0 COSINE-BASED
Info: 9 DIHEDRAL
Info: 0 IMPROPER
Info: 0 CROSSTERM
Info: 0 VDW
Info: 36 VDW_PAIRS
Info: 0 NBTHOLE_PAIRS
Info: To read alchdata from file: mobley_7463799.pdb
Info: To read alchflag data from column: 5
Info: STRUCTURE SUMMARY:
Info: 2953 ATOMS
Info: 2953 BONDS
Info: 37 ANGLES
Info: 60 DIHEDRALS
Info: 0 IMPROPERS
Info: 0 CROSSTERMS
Info: 3038 EXCLUSIONS
Info: 2943 RIGID BONDS
Info: ALCH: 0 ATOMS TO DISAPPEAR IN FINAL STATE
Info: ALCH: 22 ATOMS TO APPEAR IN FINAL STATE
Info: 5916 DEGREES OF FREEDOM
Info: 987 HYDROGEN GROUPS
Info: 3 ATOMS IN LARGEST HYDROGEN GROUP
Info: 987 MIGRATION GROUPS
Info: 3 ATOMS IN LARGEST MIGRATION GROUP
Info: TOTAL MASS = 17737.8 amu
Info: TOTAL CHARGE = -5.58794e-08 e
Info: MASS DENSITY = 0.963156 g/cm^3
Info: ATOM DENSITY = 0.0965608 atoms/A^3
Info: ADDED 0 IMPLICIT EXCLUSIONS
Info: NONBONDED TABLE R-SQUARED SPACING: 0.0625
Info: NONBONDED TABLE SIZE: 705 POINTS
Info: REMOVING COM VELOCITY 0.0337286 -0.163316 -0.0797902
Info: Use 3D box decompostion in PME FFT.
Info: Updated CUDA force table with 4096 elements.
Info: Updated CUDA LJ table with 8 x 8 elements.
Info: Found 24 unique exclusion lists needing 68 bytes
TCL: Running for 1500000 steps
ETITLE: TS BOND ANGLE DIHED IMPRP ELECT VDW BOUNDARY MISC KINETIC TOTAL TEMP POTENTIAL TOTALAVG TEMPAVG PRESSURE GPRESSURE VOLUME PRESSAVG GPRESSAVG
ENERGY: 0 1.9448 13.1010 2.5053 0.0000 -10638.6886 1417.4827 0.0000 0.0000 1706.2761 -7497.3786 290.2763 -9203.6547 -7497.3786 290.2763 -271.1972 -211.3026 30581.7772 -271.1972 -211.3026
ENERGY: 300000 5.8277 8.4200 4.7367 0.0000 -10594.2405 1304.1466 0.0000 0.0000 1725.4177 -7545.6918 293.5327 -9271.1095 -7480.2921 296.9766 -1347.9424 -1300.3846 30778.7211 -301.7995 -227.5056
ENERGY: 600000 3.9059 9.7862 4.6186 0.0000 -10730.1517 1479.2019 0.0000 0.0000 1767.1407 -7465.4985 300.6307 -9232.6392 -7454.1233 300.3782 138.9929 267.2715 30262.5007 -114.0550 -31.5724
ENERGY: 900000 1.8198 4.6875 4.6140 0.0000 -10646.5346 1385.5764 0.0000 0.0000 1759.8099 -7490.0270 299.3836 -9249.8369 -7454.0296 300.3284 -562.3802 -436.6186 30398.6361 -64.9451 19.5996
ENERGY: 1200000 2.2189 4.9835 6.0527 0.0000 -10664.1904 1408.0078 0.0000 0.0000 1788.8326 -7454.0948 304.3210 -9242.9275 -7446.7988 301.4087 -225.2973 -153.0449 30745.0625 -20.2886 61.9743
ENERGY: 1500000 2.3346 5.8154 4.1105 0.0000 -10940.2763 1589.9927 0.0000 0.0000 1712.2283 -7625.7948 291.2889 -9338.0231 -7464.0464 299.9582 1296.5416 1334.3739 29667.5778 50.8258 120.0115
TCL: Running FEP window   2: Lambda1 0.95   Lambda2 0.8999999999999999 [dLambda -0.050000000000000044]
TCL: Setting parameter firsttimestep to 0
TCL: Setting parameter alchLambda to 0.95
Info: NONBONDED TABLE R-SQUARED SPACING: 0.0625
Info: NONBONDED TABLE SIZE: 705 POINTS
TCL: Setting parameter alchLambda2 to 0.8999999999999999
Info: NONBONDED TABLE R-SQUARED SPACING: 0.0625
Info: NONBONDED TABLE SIZE: 705 POINTS
TCL: Running for 1500000 steps
ETITLE: TS BOND ANGLE DIHED IMPRP ELECT VDW BOUNDARY MISC KINETIC TOTAL TEMP POTENTIAL TOTALAVG TEMPAVG PRESSURE GPRESSURE VOLUME PRESSAVG GPRESSAVG
ENERGY: 0 2.3346 5.8154 4.1105 0.0000 -10938.1916 1589.7013 0.0000 0.0000 1711.3430 -7624.8867 291.1383 -9336.2297 -7624.8867 291.1383 1248.0158 1319.4473 29667.5778 1248.0158 1319.4473
ENERGY: 300000 3.4043 5.6287 3.1976 0.0000 -10741.8835 1451.9360 0.0000 0.0000 1759.0032 -7518.7136 299.2463 -9277.7168 -7525.0733 296.0397 60.7376 140.7072 30054.3944 244.0895 324.8511
ENERGY: 600000 1.3727 7.9214 2.8348 0.0000 -10685.5006 1428.9325 0.0000 0.0000 1765.5894 -7478.8498 300.3668 -9244.4392 -7497.3527 298.4729 80.9228 167.4955 30158.1562 95.7413 173.5816
ENERGY: 900000 4.3147 2.8951 3.2055 0.0000 -10697.8185 1472.8218 0.0000 0.0000 1763.9873 -7450.5941 300.0942 -9214.5814 -7491.4652 299.7117 317.8867 400.3167 30225.0774 100.5709 175.7982
ENERGY: 1200000 7.8903 9.4716 5.1173 0.0000 -10549.7399 1372.3484 0.0000 0.0000 1743.8666 -7411.0456 296.6713 -9154.9122 -7483.0946 299.1118 -417.3086 -371.4203 30735.2957 64.2233 137.9190
ENERGY: 1500000 4.6972 6.7721 3.5180 0.0000 -10685.7314 1445.6823 0.0000 0.0000 1740.0580 -7485.0038 296.0233 -9225.0618 -7489.5523 299.1752 169.8724 226.5698 30280.2854 66.7113 135.7282
TCL: Running FEP window   3: Lambda1 0.8999999999999999 Lambda2 0.8499999999999999 [dLambda -0.050000000000000044]
TCL: Setting parameter firsttimestep to 0
TCL: Setting parameter alchLambda to 0.8999999999999999
Info: NONBONDED TABLE R-SQUARED SPACING: 0.0625
Info: NONBONDED TABLE SIZE: 705 POINTS
TCL: Setting parameter alchLambda2 to 0.8499999999999999
Info: NONBONDED TABLE R-SQUARED SPACING: 0.0625
Info: NONBONDED TABLE SIZE: 705 POINTS
TCL: Running for 1500000 steps
ETITLE: TS BOND ANGLE DIHED IMPRP ELECT VDW BOUNDARY MISC KINETIC TOTAL TEMP POTENTIAL TOTALAVG TEMPAVG PRESSURE GPRESSURE VOLUME PRESSAVG GPRESSAVG
ENERGY: 0 4.6972 6.7721 3.5180 0.0000 -10683.9709 1445.3827 0.0000 0.0000 1739.1651 -7484.4357 295.8714 -9223.6008 -7484.4357 295.8714 130.4016 213.8424 30280.2854 130.4016 213.8424
ENERGY: 300000 2.9789 5.7047 2.7161 0.0000 -10585.9069 1366.7751 0.0000 0.0000 1792.4649 -7415.2672 304.9389 -9207.7321 -7474.3496 299.6455 -948.3838 -798.1894 30964.9410 -283.4012 -208.9781
ENERGY: 600000 2.2903 7.5847 3.7744 0.0000 -10517.3477 1331.7195 0.0000 0.0000 1831.2236 -7340.7553 311.5327 -9171.9789 -7431.3744 303.0867 -723.7335 -588.8230 30640.4864 -441.1254 -367.0316
ENERGY: 900000 2.1186 7.9446 4.2435 0.0000 -10624.7370 1355.1314 0.0000 0.0000 1763.0397 -7492.2593 299.9330 -9255.2990 -7450.2633 301.3150 -476.8617 -421.7211 30122.2843 -383.9471 -314.5160
ENERGY: 1200000 1.4742 9.1523 2.7950 0.0000 -10719.9390 1486.9832 0.0000 0.0000 1814.8506 -7404.6838 308.7473 -9219.5344 -7451.8665 301.5701 401.4740 495.2264 30350.0301 -304.0545 -230.4139
ENERGY: 1500000 2.5988 6.4076 1.4909 0.0000 -10600.8279 1421.1403 0.0000 0.0000 1730.8464 -7438.3439 294.4562 -9169.1903 -7450.8743 301.0440 -87.6461 -45.6991 30659.6933 -234.9444 -167.5173
TCL: Running FEP window   4: Lambda1 0.8499999999999999 Lambda2 0.7999999999999998 [dLambda -0.050000000000000044]
TCL: Setting parameter firsttimestep to 0
TCL: Setting parameter alchLambda to 0.8499999999999999
Info: NONBONDED TABLE R-SQUARED SPACING: 0.0625
Info: NONBONDED TABLE SIZE: 705 POINTS
TCL: Setting parameter alchLambda2 to 0.7999999999999998
Info: NONBONDED TABLE R-SQUARED SPACING: 0.0625
Info: NONBONDED TABLE SIZE: 705 POINTS
TCL: Running for 1500000 steps
ETITLE: TS BOND ANGLE DIHED IMPRP ELECT VDW BOUNDARY MISC KINETIC TOTAL TEMP POTENTIAL TOTALAVG TEMPAVG PRESSURE GPRESSURE VOLUME PRESSAVG GPRESSAVG
ENERGY: 0 2.5988 6.4076 1.4909 0.0000 -10598.7621 1420.7766 0.0000 0.0000 1729.9165 -7437.5717 294.2980 -9167.4882 -7437.5717 294.2980 -133.9330 -63.0366 30659.6933 -133.9330 -63.0366
ENERGY: 300000 1.9413 5.9096 3.1838 0.0000 -10702.2977 1427.0352 0.0000 0.0000 1725.0680 -7539.1597 293.4732 -9264.2278 -7457.9394 299.9907 -101.1588 -49.0407 30098.2007 -194.2042 -123.4828
ENERGY: 600000 3.0406 3.9866 4.6646 0.0000 -10599.2508 1430.8351 0.0000 0.0000 1737.4582 -7419.2657 295.5811 -9156.7239 -7443.2545 299.3788 -87.6406 -46.5417 30772.9374 -213.5279 -136.5838
ENERGY: 900000 2.6012 10.2529 4.6661 0.0000 -10666.2921 1446.0184 0.0000 0.0000 1758.4033 -7444.3502 299.1443 -9202.7535 -7449.1070 298.2808 69.9113 122.3856 30500.6973 -132.2751 -59.5210
ENERGY: 1200000 1.7569 11.0956 4.8836 0.0000 -10900.3330 1574.2588 0.0000 0.0000 1772.3976 -7535.9404 301.5250 -9308.3380 -7460.1218 298.7867 908.7577 984.4733 29991.0313 -28.5559 37.8049
ENERGY: 1500000 3.2011 5.1375 2.7273 0.0000 -10733.6395 1455.2557 0.0000 0.0000 1768.5291 -7498.7888 300.8669 -9267.3179 -7460.6932 298.8989 -27.5933 82.5339 30485.0721 -86.9750 -19.4579
TCL: Running FEP window   5: Lambda1 0.7999999999999998 Lambda2 0.7499999999999998 [dLambda -0.050000000000000044]
TCL: Setting parameter firsttimestep to 0
TCL: Setting parameter alchLambda to 0.7999999999999998
Info: NONBONDED TABLE R-SQUARED SPACING: 0.0625
Info: NONBONDED TABLE SIZE: 705 POINTS
TCL: Setting parameter alchLambda2 to 0.7499999999999998
Info: NONBONDED TABLE R-SQUARED SPACING: 0.0625
Info: NONBONDED TABLE SIZE: 705 POINTS
TCL: Running for 1500000 steps
ETITLE: TS BOND ANGLE DIHED IMPRP ELECT VDW BOUNDARY MISC KINETIC TOTAL TEMP POTENTIAL TOTALAVG TEMPAVG PRESSURE GPRESSURE VOLUME PRESSAVG GPRESSAVG
ENERGY: 0 3.2011 5.1375 2.7273 0.0000 -10731.3913 1454.8869 0.0000 0.0000 1767.6487 -7497.7898 300.7171 -9265.4385 -7497.7898 300.7171 -16.4903 68.6030 30485.0721 -16.4903 68.6030
ENERGY: 300000 7.6231 5.9797 8.8395 0.0000 -10716.8461 1433.3978 0.0000 0.0000 1804.3749 -7456.6310 306.9651 -9261.0060 -7438.5744 300.7193 -112.4964 -28.6132 30114.8634 66.1138 128.9461
ENERGY: 600000 1.0589 9.3917 3.3024 0.0000 -10510.4468 1339.9666 0.0000 0.0000 1737.2778 -7419.4494 295.5504 -9156.7272 -7446.1741 299.0892 -294.6143 -283.6265 30192.7934 22.1169 84.9800
ENERGY: 900000 4.5948 3.9131 4.4159 0.0000 -10629.4321 1331.7818 0.0000 0.0000 1764.9411 -7519.7854 300.2565 -9284.7265 -7466.4569 298.8402 -1043.9222 -985.6433 30296.6560 -16.1683 53.7390
ENERGY: 1200000 1.9528 4.7866 2.5753 0.0000 -10729.3990 1482.6935 0.0000 0.0000 1724.3488 -7513.0420 293.3508 -9237.3908 -7462.9325 298.2733 324.3451 453.4671 30302.9195 25.0220 98.5375
ENERGY: 1500000 2.0689 7.8974 3.2899 0.0000 -10722.2736 1463.9555 0.0000 0.0000 1794.3602 -7450.7017 305.2614 -9245.0618 -7458.3157 299.4679 479.5066 542.9660 30181.4425 119.6855 187.4936
TCL: Running FEP window   6: Lambda1 0.7499999999999998 Lambda2 0.6999999999999997 [dLambda -0.050000000000000044]
TCL: Setting parameter firsttimestep to 0
TCL: Setting parameter alchLambda to 0.7499999999999998
Info: NONBONDED TABLE R-SQUARED SPACING: 0.0625
Info: NONBONDED TABLE SIZE: 705 POINTS
TCL: Setting parameter alchLambda2 to 0.6999999999999997
Info: NONBONDED TABLE R-SQUARED SPACING: 0.0625
Info: NONBONDED TABLE SIZE: 705 POINTS
TCL: Running for 1500000 steps
ETITLE: TS BOND ANGLE DIHED IMPRP ELECT VDW BOUNDARY MISC KINETIC TOTAL TEMP POTENTIAL TOTALAVG TEMPAVG PRESSURE GPRESSURE VOLUME PRESSAVG GPRESSAVG
ENERGY: 0 2.0689 7.8974 3.2899 0.0000 -10720.2958 1463.1902 0.0000 0.0000 1793.4774 -7450.3720 305.1112 -9243.8494 -7450.3720 305.1112 434.0190 529.0206 30181.4425 434.0190 529.0206
ENERGY: 300000 1.4271 8.2292 7.6816 0.0000 -10584.8448 1344.3809 0.0000 0.0000 1680.5236 -7542.6023 285.8952 -9223.1260 -7483.0436 295.2988 -807.8528 -670.8065 30558.1518 -29.1670 28.4338
ENERGY: 600000 1.8725 8.6234 9.4412 0.0000 -10557.3828 1371.2514 0.0000 0.0000 1768.8526 -7397.3417 300.9219 -9166.1943 -7488.0829 297.3404 -687.2738 -640.2010 31067.5976 -33.4469 21.2858
ENERGY: 900000 2.0637 8.5887 8.6099 0.0000 -10694.8061 1486.3528 0.0000 0.0000 1779.2981 -7409.8929 302.6990 -9189.1911 -7481.9360 298.7106 630.6559 620.8919 30531.8411 107.5042 154.4950
ENERGY: 1200000 3.7072 6.0337 4.9445 0.0000 -10730.5479 1467.4066 0.0000 0.0000 1739.1627 -7509.2932 295.8710 -9248.4559 -7470.2761 299.0996 65.0227 139.0862 30371.5402 62.1436 119.4396
ENERGY: 1500000 2.1297 9.5462 5.2542 0.0000 -10664.5612 1499.4512 0.0000 0.0000 1808.2284 -7339.9515 307.6207 -9148.1799 -7453.2382 299.8648 715.7301 772.8926 30665.2829 38.5785 101.1076
TCL: Running FEP window   7: Lambda1 0.6999999999999997 Lambda2 0.6499999999999997 [dLambda -0.050000000000000044]
TCL: Setting parameter firsttimestep to 0
TCL: Setting parameter alchLambda to 0.6999999999999997
Info: NONBONDED TABLE R-SQUARED SPACING: 0.0625
Info: NONBONDED TABLE SIZE: 705 POINTS
TCL: Setting parameter alchLambda2 to 0.6499999999999997
Info: NONBONDED TABLE R-SQUARED SPACING: 0.0625
Info: NONBONDED TABLE SIZE: 705 POINTS
TCL: Running for 1500000 steps
ETITLE: TS BOND ANGLE DIHED IMPRP ELECT VDW BOUNDARY MISC KINETIC TOTAL TEMP POTENTIAL TOTALAVG TEMPAVG PRESSURE GPRESSURE VOLUME PRESSAVG GPRESSAVG
ENERGY: 0 2.1297 9.5462 5.2542 0.0000 -10663.2776 1499.7192 0.0000 0.0000 1807.3522 -7339.2761 307.4716 -9146.6283 -7339.2761 307.4716 697.3726 767.8182 30665.2829 697.3726 767.8182
ENERGY: 300000 4.3617 6.4155 4.2281 0.0000 -10664.0627 1392.3918 0.0000 0.0000 1774.7628 -7481.9028 301.9274 -9256.6656 -7437.3503 302.1801 -770.7263 -687.1246 30841.5801 -181.6082 -113.4928
ENERGY: 600000 0.8653 7.8447 4.4547 0.0000 -10563.7828 1399.8283 0.0000 0.0000 1818.3028 -7332.4870 309.3345 -9150.7898 -7417.5294 302.4773 5.7191 135.4993 30317.9290 -261.2627 -185.9571
ENERGY: 900000 3.9241 9.3078 4.9424 0.0000 -10596.6232 1359.7974 0.0000 0.0000 1766.7162 -7451.9353 300.5585 -9218.6515 -7424.5962 302.0756 -406.0944 -406.4421 30291.8698 -239.1253 -176.6690
ENERGY: 1200000 1.1348 13.1098 5.2497 0.0000 -10818.5596 1495.2184 0.0000 0.0000 1835.0341 -7468.8127 312.1809 -9303.8468 -7423.5919 302.1878 323.1661 331.0144 30174.6535 -130.8637 -75.2391
ENERGY: 1500000 2.2174 7.3106 4.0505 0.0000 -10537.2803 1375.6016 0.0000 0.0000 1785.3869 -7362.7133 303.7348 -9148.1002 -7435.2914 301.0209 -245.3066 -237.6750 30680.7780 -213.3855 -156.7602
TCL: Running FEP window   8: Lambda1 0.6499999999999997 Lambda2 0.5999999999999996 [dLambda -0.050000000000000044]
TCL: Setting parameter firsttimestep to 0
TCL: Setting parameter alchLambda to 0.6499999999999997
Info: NONBONDED TABLE R-SQUARED SPACING: 0.0625
Info: NONBONDED TABLE SIZE: 705 POINTS
TCL: Setting parameter alchLambda2 to 0.5999999999999996
Info: NONBONDED TABLE R-SQUARED SPACING: 0.0625
Info: NONBONDED TABLE SIZE: 705 POINTS
TCL: Running for 1500000 steps
ETITLE: TS BOND ANGLE DIHED IMPRP ELECT VDW BOUNDARY MISC KINETIC TOTAL TEMP POTENTIAL TOTALAVG TEMPAVG PRESSURE GPRESSURE VOLUME PRESSAVG GPRESSAVG
ENERGY: 0 2.2174 7.3106 4.0505 0.0000 -10535.7850 1375.9405 0.0000 0.0000 1784.5117 -7361.7543 303.5859 -9146.2660 -7361.7543 303.5859 -323.8876 -240.5151 30680.7780 -323.8876 -240.5151
ENERGY: 300000 3.8569 8.2181 3.3847 0.0000 -10699.5951 1406.3268 0.0000 0.0000 1761.8441 -7515.9646 299.7296 -9277.8087 -7462.8434 300.3879 -433.6258 -375.6480 30419.7241 -428.1216 -344.9436
ENERGY: 600000 2.1280 8.5753 3.2987 0.0000 -10518.6439 1355.6742 0.0000 0.0000 1781.9721 -7366.9956 303.1539 -9148.9676 -7432.3562 302.3420 -426.8745 -352.8505 30571.4154 -375.2964 -303.4077
ENERGY: 900000 6.0466 8.7257 3.4647 0.0000 -10492.9706 1309.3513 0.0000 0.0000 1713.9881 -7451.3942 291.5883 -9165.3823 -7446.4915 300.6492 -1280.6503 -1220.2255 31076.9598 -323.3027 -254.0597
ENERGY: 1200000 3.3618 4.9423 3.6675 0.0000 -10800.7209 1533.9894 0.0000 0.0000 1731.4506 -7523.3093 294.5590 -9254.7599 -7443.4328 300.9261 595.8424 614.7663 30573.8897 -262.2048 -196.3845
ENERGY: 1500000 5.5232 5.1253 5.4890 0.0000 -10720.7797 1478.7049 0.0000 0.0000 1747.3102 -7478.6271 297.2571 -9225.9373 -7439.3791 301.5927 354.2682 354.3813 30186.5541 -154.9978 -96.5933
TCL: Running FEP window   9: Lambda1 0.5999999999999996 Lambda2 0.5499999999999996 [dLambda -0.050000000000000044]
TCL: Setting parameter firsttimestep to 0
TCL: Setting parameter alchLambda to 0.5999999999999996
Info: NONBONDED TABLE R-SQUARED SPACING: 0.0625
Info: NONBONDED TABLE SIZE: 705 POINTS
TCL: Setting parameter alchLambda2 to 0.5499999999999996
Info: NONBONDED TABLE R-SQUARED SPACING: 0.0625
Info: NONBONDED TABLE SIZE: 705 POINTS
TCL: Running for 1500000 steps
ETITLE: TS BOND ANGLE DIHED IMPRP ELECT VDW BOUNDARY MISC KINETIC TOTAL TEMP POTENTIAL TOTALAVG TEMPAVG PRESSURE GPRESSURE VOLUME PRESSAVG GPRESSAVG
ENERGY: 0 5.5232 5.1253 5.4890 0.0000 -10719.8925 1478.8682 0.0000 0.0000 1746.4202 -7478.4666 297.1057 -9224.8868 -7478.4666 297.1057 269.3064 351.4796 30186.5541 269.3064 351.4796
ENERGY: 300000 4.3684 6.4391 10.9679 0.0000 -10745.3009 1460.8660 0.0000 0.0000 1795.2342 -7467.4253 305.4101 -9262.6595 -7451.7835 302.0268 18.1027 60.7301 30216.5017 65.4479 135.8523
ENERGY: 600000 2.8614 10.2789 3.7143 0.0000 -10696.5476 1480.4683 0.0000 0.0000 1780.6248 -7418.6000 302.9247 -9199.2248 -7455.8101 298.6406 92.3999 162.2824 30753.1421 237.3399 306.1499
ENERGY: 900000 4.0457 10.4420 4.0403 0.0000 -10794.9047 1494.0054 0.0000 0.0000 1813.5712 -7468.8001 308.5296 -9282.3713 -7471.9401 299.2130 413.3721 501.2124 30163.6564 328.9126 392.6387
ENERGY: 1200000 2.6638 5.4581 4.5172 0.0000 -10608.5118 1421.0476 0.0000 0.0000 1738.8282 -7435.9968 295.8141 -9174.8251 -7464.0372 298.9546 -69.4826 -25.2321 30550.0122 147.2041 204.0428
ENERGY: 1500000 4.3027 10.4213 3.2728 0.0000 -10662.1831 1420.5126 0.0000 0.0000 1761.7007 -7461.9729 299.7053 -9223.6737 -7463.1542 299.5296 -226.6742 -188.2047 30561.2362 64.6381 124.3094
TCL: Running FEP window  10: Lambda1 0.5499999999999996 Lambda2 0.4999999999999996 [dLambda -0.04999999999999999]
TCL: Setting parameter firsttimestep to 0
TCL: Setting parameter alchLambda to 0.5499999999999996
Info: NONBONDED TABLE R-SQUARED SPACING: 0.0625
Info: NONBONDED TABLE SIZE: 705 POINTS
TCL: Setting parameter alchLambda2 to 0.4999999999999996
Info: NONBONDED TABLE R-SQUARED SPACING: 0.0625
Info: NONBONDED TABLE SIZE: 705 POINTS
TCL: Running for 1500000 steps
ETITLE: TS BOND ANGLE DIHED IMPRP ELECT VDW BOUNDARY MISC KINETIC TOTAL TEMP POTENTIAL TOTALAVG TEMPAVG PRESSURE GPRESSURE VOLUME PRESSAVG GPRESSAVG
ENERGY: 0 4.3027 10.4213 3.2728 0.0000 -10661.6052 1421.0758 0.0000 0.0000 1760.7881 -7461.7445 299.5500 -9222.5326 -7461.7445 299.5500 -281.5423 -190.9804 30561.2362 -281.5423 -190.9804
ENERGY: 300000 2.8041 11.4892 3.4471 0.0000 -10687.3386 1446.1800 0.0000 0.0000 1810.0480 -7413.3703 307.9302 -9223.4183 -7457.4754 300.8146 225.1493 316.2721 30314.0486 -207.9400 -135.5427
ENERGY: 600000 2.7437 8.4268 6.8622 0.0000 -10526.1881 1344.5734 0.0000 0.0000 1739.5390 -7424.0430 295.9350 -9163.5820 -7448.1507 301.5594 -804.9952 -721.0552 30668.4256 -266.0838 -184.8570
ENERGY: 900000 2.5600 7.6651 4.1436 0.0000 -10556.1793 1325.7208 0.0000 0.0000 1755.4136 -7460.6762 298.6357 -9216.0897 -7448.7097 302.1224 -646.9934 -591.9323 30366.6092 -173.0099 -102.2935
ENERGY: 1200000 4.3796 8.4286 11.0095 0.0000 -10591.3444 1357.8553 0.0000 0.0000 1718.2665 -7491.4049 292.3161 -9209.6714 -7457.6325 300.9425 -767.2361 -696.2278 30740.1908 -194.5198 -125.2849
ENERGY: 1500000 4.5387 9.8591 5.7323 0.0000 -10773.3687 1503.9511 0.0000 0.0000 1765.5753 -7483.7123 300.3644 -9249.2876 -7456.1524 300.5612 243.8444 323.5179 30403.7936 -92.6240 -22.7206
TCL: Running FEP window  11: Lambda1 0.4999999999999996 Lambda2 0.4499999999999996 [dLambda -0.04999999999999999]
TCL: Setting parameter firsttimestep to 0
TCL: Setting parameter alchLambda to 0.4999999999999996
Info: NONBONDED TABLE R-SQUARED SPACING: 0.0625
Info: NONBONDED TABLE SIZE: 705 POINTS
TCL: Setting parameter alchLambda2 to 0.4499999999999996
Info: NONBONDED TABLE R-SQUARED SPACING: 0.0625
Info: NONBONDED TABLE SIZE: 705 POINTS
TCL: Running for 1500000 steps
ETITLE: TS BOND ANGLE DIHED IMPRP ELECT VDW BOUNDARY MISC KINETIC TOTAL TEMP POTENTIAL TOTALAVG TEMPAVG PRESSURE GPRESSURE VOLUME PRESSAVG GPRESSAVG
ENERGY: 0 4.5387 9.8591 5.7323 0.0000 -10773.5991 1504.5026 0.0000 0.0000 1764.7080 -7484.2585 300.2169 -9248.9665 -7484.2585 300.2169 229.7100 320.1899 30403.7936 229.7100 320.1899
ENERGY: 300000 4.0682 8.6699 3.7653 0.0000 -10566.7841 1345.8358 0.0000 0.0000 1789.6862 -7414.7587 304.4662 -9204.4449 -7462.0367 298.9894 -824.1470 -746.4202 30402.0728 -53.7669 27.5612
ENERGY: 600000 1.8667 9.5179 4.8288 0.0000 -10646.5801 1397.6128 0.0000 0.0000 1735.8979 -7496.8560 295.3156 -9232.7539 -7475.5378 297.5589 -544.7709 -462.5058 30700.6417 -209.8467 -148.2697
ENERGY: 900000 3.2688 7.0066 5.0959 0.0000 -10549.3871 1387.3919 0.0000 0.0000 1799.8590 -7346.7649 306.1968 -9146.6239 -7460.0207 299.5060 -292.8509 -222.2446 30605.3384 -179.2033 -113.5340
ENERGY: 1200000 5.0635 9.0076 4.5545 0.0000 -10537.6263 1366.1313 0.0000 0.0000 1824.6251 -7328.2444 310.4101 -9152.8695 -7456.9095 300.3320 -294.4574 -266.7956 30772.0814 -220.5567 -159.6152
ENERGY: 1500000 2.0322 8.6710 1.8257 0.0000 -10708.3480 1475.9755 0.0000 0.0000 1727.0148 -7492.8290 293.8044 -9219.8437 -7462.5748 299.6934 381.0952 432.6737 30139.4115 -209.9247 -146.7933
TCL: Running FEP window  12: Lambda1 0.4499999999999996 Lambda2 0.39999999999999963 [dLambda -0.04999999999999999]
TCL: Setting parameter firsttimestep to 0
TCL: Setting parameter alchLambda to 0.4499999999999996
Info: NONBONDED TABLE R-SQUARED SPACING: 0.0625
Info: NONBONDED TABLE SIZE: 705 POINTS
TCL: Setting parameter alchLambda2 to 0.39999999999999963
Info: NONBONDED TABLE R-SQUARED SPACING: 0.0625
Info: NONBONDED TABLE SIZE: 705 POINTS
TCL: Running for 1500000 steps
ETITLE: TS BOND ANGLE DIHED IMPRP ELECT VDW BOUNDARY MISC KINETIC TOTAL TEMP POTENTIAL TOTALAVG TEMPAVG PRESSURE GPRESSURE VOLUME PRESSAVG GPRESSAVG
ENERGY: 0 2.0322 8.6709 1.8257 0.0000 -10708.3489 1475.9950 0.0000 0.0000 1726.1938 -7493.6313 293.6647 -9219.8250 -7493.6313 293.6647 337.1630 420.9645 30139.4115 337.1630 420.9645
ENERGY: 300000 2.6792 10.0997 5.5557 0.0000 -10598.7447 1414.6639 0.0000 0.0000 1727.2043 -7438.5420 293.8366 -9165.7462 -7473.7990 296.7821 -139.2389 -72.4367 30451.0501 196.0686 239.8690
ENERGY: 600000 5.9928 6.3446 4.2800 0.0000 -10540.9801 1357.9443 0.0000 0.0000 1756.2845 -7410.1340 298.7838 -9166.4185 -7464.7229 296.0668 -801.7837 -750.0598 30784.6824 69.9442 115.7181
ENERGY: 900000 3.9731 8.5135 5.5910 0.0000 -10704.4066 1435.4063 0.0000 0.0000 1787.8484 -7463.0744 304.1536 -9250.9228 -7448.1146 298.2145 -191.3637 -127.0701 30254.2202 20.8697 75.7706
ENERGY: 1200000 2.1631 9.3604 7.2215 0.0000 -10607.7871 1354.0152 0.0000 0.0000 1717.4548 -7517.5719 292.1780 -9235.0268 -7446.2334 298.1611 -840.8601 -754.0185 30294.2091 -74.7802 -19.0604
ENERGY: 1500000 5.7416 7.7747 5.6771 0.0000 -10653.2131 1438.9932 0.0000 0.0000 1783.9756 -7411.0510 303.4947 -9195.0265 -7442.1916 298.5959 410.9042 429.4032 29745.1148 -94.3982 -34.1480
TCL: Running FEP window  13: Lambda1 0.39999999999999963 Lambda2 0.34999999999999964 [dLambda -0.04999999999999999]
TCL: Setting parameter firsttimestep to 0
TCL: Setting parameter alchLambda to 0.39999999999999963
Info: NONBONDED TABLE R-SQUARED SPACING: 0.0625
Info: NONBONDED TABLE SIZE: 705 POINTS
TCL: Setting parameter alchLambda2 to 0.34999999999999964
Info: NONBONDED TABLE R-SQUARED SPACING: 0.0625
Info: NONBONDED TABLE SIZE: 705 POINTS
TCL: Running for 1500000 steps
ETITLE: TS BOND ANGLE DIHED IMPRP ELECT VDW BOUNDARY MISC KINETIC TOTAL TEMP POTENTIAL TOTALAVG TEMPAVG PRESSURE GPRESSURE VOLUME PRESSAVG GPRESSAVG
ENERGY: 0 5.7416 7.7747 5.6771 0.0000 -10653.2148 1439.0583 0.0000 0.0000 1783.1186 -7411.8445 303.3489 -9194.9631 -7411.8445 303.3489 334.3588 417.5100 29745.1148 334.3588 417.5100
ENERGY: 300000 3.5307 5.8630 3.4653 0.0000 -10692.0433 1448.0404 0.0000 0.0000 1764.5036 -7466.6403 300.1821 -9231.1440 -7457.7380 303.8110 100.5294 127.2171 30324.9944 -25.1592 24.1795
ENERGY: 600000 5.3595 7.4296 2.4244 0.0000 -10651.9229 1437.2674 0.0000 0.0000 1775.7954 -7423.6466 302.1031 -9199.4421 -7418.3197 304.0666 192.7687 356.0839 29860.9114 -87.4848 -11.4609
ENERGY: 900000 2.8993 7.2616 4.3067 0.0000 -10708.0048 1466.2480 0.0000 0.0000 1765.2625 -7462.0266 300.3112 -9227.2891 -7428.3718 303.8377 85.2940 99.6908 30324.5576 -59.8809 4.8864
ENERGY: 1200000 4.7026 7.5381 4.7028 0.0000 -10623.8373 1431.6380 0.0000 0.0000 1792.7776 -7382.4782 304.9921 -9175.2558 -7432.5116 302.8888 2.4967 95.0053 30435.7165 -162.1531 -97.4027
ENERGY: 1500000 1.0434 6.9799 5.1079 0.0000 -10622.3568 1404.8384 0.0000 0.0000 1754.5548 -7449.8324 298.4896 -9204.3873 -7435.3454 301.9198 -115.4981 -52.1221 30462.4221 -176.7194 -118.0642
TCL: Running FEP window  14: Lambda1 0.34999999999999964 Lambda2 0.29999999999999966 [dLambda -0.04999999999999999]
TCL: Setting parameter firsttimestep to 0
TCL: Setting parameter alchLambda to 0.34999999999999964
Info: NONBONDED TABLE R-SQUARED SPACING: 0.0625
Info: NONBONDED TABLE SIZE: 705 POINTS
TCL: Setting parameter alchLambda2 to 0.29999999999999966
Info: NONBONDED TABLE R-SQUARED SPACING: 0.0625
Info: NONBONDED TABLE SIZE: 705 POINTS
TCL: Running for 1500000 steps
ETITLE: TS BOND ANGLE DIHED IMPRP ELECT VDW BOUNDARY MISC KINETIC TOTAL TEMP POTENTIAL TOTALAVG TEMPAVG PRESSURE GPRESSURE VOLUME PRESSAVG GPRESSAVG
ENERGY: 0 1.0434 6.9799 5.1079 0.0000 -10622.3555 1405.2393 0.0000 0.0000 1753.6878 -7450.2973 298.3421 -9203.9850 -7450.2973 298.3421 -132.1813 -53.7017 30462.4221 -132.1813 -53.7017
ENERGY: 300000 3.6059 10.5141 3.3215 0.0000 -10737.2767 1438.7813 0.0000 0.0000 1807.7794 -7473.2746 307.5443 -9281.0539 -7434.3519 303.4150 -97.5319 -42.5325 30236.5037 -44.4832 21.1950
ENERGY: 600000 4.7239 6.4808 3.4534 0.0000 -10657.9631 1453.6441 0.0000 0.0000 1773.8103 -7415.8505 301.7654 -9189.6609 -7433.3631 303.1283 -137.8535 -50.4215 30755.9822 -12.7652 47.1719
ENERGY: 900000 3.1637 9.6501 6.0698 0.0000 -10525.9172 1320.9773 0.0000 0.0000 1776.4084 -7409.6481 302.2074 -9186.0564 -7433.4416 304.0476 -903.0901 -793.6210 30683.2248 -128.0935 -73.5114
ENERGY: 1200000 2.3667 5.9274 4.6169 0.0000 -10630.1097 1429.9008 0.0000 0.0000 1764.8355 -7422.4623 300.2386 -9187.2979 -7441.4225 302.6515 -140.9911 -125.4917 30477.6952 -189.5270 -136.0919
ENERGY: 1500000 2.7015 13.0598 2.8117 0.0000 -10642.7875 1440.9274 0.0000 0.0000 1813.7774 -7369.5097 308.5647 -9183.2871 -7443.8104 302.1721 105.5256 183.9244 30396.2901 -188.9116 -138.6634
TCL: Running FEP window  15: Lambda1 0.29999999999999966 Lambda2 0.24999999999999967 [dLambda -0.04999999999999999]
TCL: Setting parameter firsttimestep to 0
TCL: Setting parameter alchLambda to 0.29999999999999966
Info: NONBONDED TABLE R-SQUARED SPACING: 0.0625
Info: NONBONDED TABLE SIZE: 705 POINTS
TCL: Setting parameter alchLambda2 to 0.24999999999999967
Info: NONBONDED TABLE R-SQUARED SPACING: 0.0625
Info: NONBONDED TABLE SIZE: 705 POINTS
TCL: Running for 1500000 steps
ETITLE: TS BOND ANGLE DIHED IMPRP ELECT VDW BOUNDARY MISC KINETIC TOTAL TEMP POTENTIAL TOTALAVG TEMPAVG PRESSURE GPRESSURE VOLUME PRESSAVG GPRESSAVG
ENERGY: 0 2.7015 13.0598 2.8117 0.0000 -10642.7872 1440.5708 0.0000 0.0000 1812.9157 -7370.7277 308.4181 -9183.6434 -7370.7277 308.4181 89.1679 176.4134 30396.2901 89.1679 176.4134
ENERGY: 300000 1.6138 8.0906 3.9557 0.0000 -10806.8294 1548.0626 0.0000 0.0000 1793.8855 -7451.2213 305.1806 -9245.1067 -7423.7030 302.3054 807.9279 850.5621 30104.2027 121.0929 162.0524
ENERGY: 600000 1.4085 10.2477 3.9712 0.0000 -10746.6185 1477.7398 0.0000 0.0000 1721.6167 -7531.6347 292.8860 -9253.2513 -7443.8900 300.2413 532.0284 613.2449 29750.3744 50.5367 103.9418
ENERGY: 900000 4.4232 8.2803 5.7344 0.0000 -10560.0746 1313.4909 0.0000 0.0000 1754.9738 -7473.1720 298.5608 -9228.1458 -7444.5660 300.3937 -1100.2559 -1034.0989 30578.6298 -147.8335 -94.6691
ENERGY: 1200000 2.7071 7.4498 7.1427 0.0000 -10760.6687 1508.7837 0.0000 0.0000 1762.7608 -7471.8245 299.8856 -9234.5853 -7445.0117 299.1989 665.5301 776.2207 29757.4489 -45.8757 10.1573
ENERGY: 1500000 3.3985 7.1559 4.4038 0.0000 -10789.4932 1484.7783 0.0000 0.0000 1786.6700 -7503.0867 303.9531 -9289.7567 -7447.2379 300.3585 196.6762 274.5219 30009.3503 39.9335 97.1331
TCL: Running FEP window  16: Lambda1 0.24999999999999967 Lambda2 0.19999999999999968 [dLambda -0.04999999999999999]
TCL: Setting parameter firsttimestep to 0
TCL: Setting parameter alchLambda to 0.24999999999999967
Info: NONBONDED TABLE R-SQUARED SPACING: 0.0625
Info: NONBONDED TABLE SIZE: 705 POINTS
TCL: Setting parameter alchLambda2 to 0.19999999999999968
Info: NONBONDED TABLE R-SQUARED SPACING: 0.0625
Info: NONBONDED TABLE SIZE: 705 POINTS
TCL: Running for 1500000 steps
ETITLE: TS BOND ANGLE DIHED IMPRP ELECT VDW BOUNDARY MISC KINETIC TOTAL TEMP POTENTIAL TOTALAVG TEMPAVG PRESSURE GPRESSURE VOLUME PRESSAVG GPRESSAVG
ENERGY: 0 3.3985 7.1560 4.4038 0.0000 -10789.4929 1485.5525 0.0000 0.0000 1785.8055 -7503.1766 303.8060 -9288.9821 -7503.1766 303.8060 185.8317 274.5933 30009.3503 185.8317 274.5933
ENERGY: 300000 3.1457 4.9887 0.9233 0.0000 -10599.7403 1367.1768 0.0000 0.0000 1758.1766 -7465.3293 299.1057 -9223.5058 -7477.6674 301.5891 -581.3133 -487.6149 30464.5153 39.0401 107.9403
ENERGY: 600000 4.2205 6.9681 3.2859 0.0000 -10635.3326 1465.9358 0.0000 0.0000 1783.4264 -7371.4958 303.4013 -9154.9222 -7463.5139 301.1815 158.2153 195.5232 30650.8323 -176.8075 -112.8026
ENERGY: 900000 0.8575 7.8769 1.4036 0.0000 -10576.8072 1421.8506 0.0000 0.0000 1714.1661 -7430.6526 291.6185 -9144.8187 -7473.4884 299.3984 -323.7312 -104.4138 30755.0568 -258.2357 -168.4834
ENERGY: 1200000 3.0936 11.4631 4.1035 0.0000 -10670.8359 1409.5676 0.0000 0.0000 1773.4148 -7469.1933 301.6981 -9242.6081 -7455.6307 300.4829 -299.5050 -237.3969 30348.6669 -208.4727 -130.6337
ENERGY: 1500000 2.8357 15.1359 3.3821 0.0000 -10621.6704 1451.7118 0.0000 0.0000 1742.7387 -7405.8663 296.4794 -9148.6049 -7449.1217 300.2250 299.2965 412.4879 30093.2197 -175.4358 -101.5353
TCL: Running FEP window  17: Lambda1 0.19999999999999968 Lambda2 0.1499999999999997 [dLambda -0.04999999999999999]
TCL: Setting parameter firsttimestep to 0
TCL: Setting parameter alchLambda to 0.19999999999999968
Info: NONBONDED TABLE R-SQUARED SPACING: 0.0625
Info: NONBONDED TABLE SIZE: 705 POINTS
TCL: Setting parameter alchLambda2 to 0.1499999999999997
Info: NONBONDED TABLE R-SQUARED SPACING: 0.0625
Info: NONBONDED TABLE SIZE: 705 POINTS
TCL: Running for 1500000 steps
ETITLE: TS BOND ANGLE DIHED IMPRP ELECT VDW BOUNDARY MISC KINETIC TOTAL TEMP POTENTIAL TOTALAVG TEMPAVG PRESSURE GPRESSURE VOLUME PRESSAVG GPRESSAVG
ENERGY: 0 2.8357 15.1359 3.3821 0.0000 -10621.6693 1451.7908 0.0000 0.0000 1741.8141 -7406.7107 296.3221 -9148.5248 -7406.7107 296.3221 324.4418 410.3148 30093.2197 324.4418 410.3148
ENERGY: 300000 3.5911 6.8763 2.1812 0.0000 -10702.1704 1421.2508 0.0000 0.0000 1776.1103 -7492.1609 302.1566 -9268.2711 -7489.2895 296.8314 -365.4014 -295.8332 30322.7289 99.4103 176.3104
ENERGY: 600000 4.8003 12.7576 2.7028 0.0000 -10794.2172 1514.8180 0.0000 0.0000 1753.2676 -7505.8708 298.2706 -9259.1384 -7454.9867 299.9491 684.9562 700.6277 30008.4495 46.7337 107.3305
ENERGY: 900000 2.5313 8.1575 5.8780 0.0000 -10686.0472 1468.1630 0.0000 0.0000 1737.1050 -7464.2124 295.5210 -9201.3174 -7459.5827 298.5087 46.1637 166.8907 30139.2792 -57.3162 7.9740
ENERGY: 1200000 3.8293 9.4521 3.2108 0.0000 -10688.7019 1404.4785 0.0000 0.0000 1728.2151 -7539.5161 294.0086 -9267.7311 -7476.1465 297.6975 -496.4162 -340.5701 30365.1063 -59.0992 12.0155
ENERGY: 1500000 4.6838 6.0894 7.6776 0.0000 -10758.5562 1472.1074 0.0000 0.0000 1766.4650 -7501.5330 300.5158 -9267.9980 -7471.0537 297.7158 220.1633 194.0950 30091.2305 -38.4676 23.5340
TCL: Running FEP window  18: Lambda1 0.1499999999999997 Lambda2 0.09999999999999969 [dLambda -0.05 ]
TCL: Setting parameter firsttimestep to 0
TCL: Setting parameter alchLambda to 0.1499999999999997
Info: NONBONDED TABLE R-SQUARED SPACING: 0.0625
Info: NONBONDED TABLE SIZE: 705 POINTS
TCL: Setting parameter alchLambda2 to 0.09999999999999969
Info: NONBONDED TABLE R-SQUARED SPACING: 0.0625
Info: NONBONDED TABLE SIZE: 705 POINTS
TCL: Running for 1500000 steps
ETITLE: TS BOND ANGLE DIHED IMPRP ELECT VDW BOUNDARY MISC KINETIC TOTAL TEMP POTENTIAL TOTALAVG TEMPAVG PRESSURE GPRESSURE VOLUME PRESSAVG GPRESSAVG
ENERGY: 0 4.6838 6.0894 7.6776 0.0000 -10758.5555 1472.3407 0.0000 0.0000 1765.5703 -7502.1936 300.3636 -9267.7639 -7502.1936 300.3636 114.3721 194.8501 30091.2305 114.3721 194.8501
ENERGY: 300000 2.3324 9.0107 3.8879 0.0000 -10706.0425 1467.3685 0.0000 0.0000 1854.5989 -7368.8441 315.5093 -9223.4430 -7474.6639 301.5705 256.3755 287.5608 30070.3711 207.2068 264.6550
ENERGY: 600000 2.8871 6.1482 6.3851 0.0000 -10605.8637 1402.4087 0.0000 0.0000 1764.2114 -7423.8232 300.1324 -9188.0346 -7464.3185 300.0640 -163.6284 -74.6697 30124.0638 14.9400 79.3866
ENERGY: 900000 1.5499 3.1508 3.4598 0.0000 -10734.1220 1458.6705 0.0000 0.0000 1768.3300 -7498.9609 300.8330 -9267.2909 -7461.9569 300.7931 -189.7460 -150.9282 30507.1495 -31.0526 33.5885
ENERGY: 1200000 2.3735 5.7190 4.0882 0.0000 -10749.9546 1526.6309 0.0000 0.0000 1752.8803 -7458.2627 298.2047 -9211.1429 -7462.5874 300.6541 743.7628 795.4426 30240.6267 74.5477 133.8807
ENERGY: 1500000 3.1342 7.5780 4.6477 0.0000 -10859.1063 1512.5840 0.0000 0.0000 1711.7530 -7619.4094 291.2080 -9331.1624 -7475.3909 299.8658 338.4926 434.9733 29756.9165 75.5311 136.8067
TCL: Running FEP window  19: Lambda1 0.09999999999999969 Lambda2 0.049999999999999684 [dLambda -0.05 ]
TCL: Setting parameter firsttimestep to 0
TCL: Setting parameter alchLambda to 0.09999999999999969
Info: NONBONDED TABLE R-SQUARED SPACING: 0.0625
Info: NONBONDED TABLE SIZE: 705 POINTS
TCL: Setting parameter alchLambda2 to 0.049999999999999684
Info: NONBONDED TABLE R-SQUARED SPACING: 0.0625
Info: NONBONDED TABLE SIZE: 705 POINTS
TCL: Running for 1500000 steps
ETITLE: TS BOND ANGLE DIHED IMPRP ELECT VDW BOUNDARY MISC KINETIC TOTAL TEMP POTENTIAL TOTALAVG TEMPAVG PRESSURE GPRESSURE VOLUME PRESSAVG GPRESSAVG
ENERGY: 0 3.1342 7.5780 4.6477 0.0000 -10859.1059 1512.9221 0.0000 0.0000 1710.8989 -7619.9249 291.0627 -9330.8239 -7619.9249 291.0627 346.9288 434.6249 29756.9165 346.9288 434.6249
ENERGY: 300000 6.1679 6.2293 4.9340 0.0000 -10561.1903 1400.5442 0.0000 0.0000 1752.0790 -7391.2361 298.0684 -9143.3150 -7460.9759 295.2402 -341.9567 -335.2001 30356.8272 261.8071 321.7152
ENERGY: 600000 5.4047 8.4334 4.1583 0.0000 -10611.7914 1416.8653 0.0000 0.0000 1792.7341 -7384.1956 304.9847 -9176.9297 -7442.4973 298.2645 17.7412 53.6845 30361.5752 184.5433 237.1183
ENERGY: 900000 2.7856 3.8614 4.5923 0.0000 -10599.5845 1450.5318 0.0000 0.0000 1770.5255 -7367.2879 301.2065 -9137.8134 -7444.3329 298.1912 554.8865 586.1615 29775.6221 89.4618 140.2094
ENERGY: 1200000 2.6840 5.9702 3.5514 0.0000 -10661.9377 1381.2926 0.0000 0.0000 1743.4180 -7525.0215 296.5949 -9268.4395 -7458.2252 297.8079 -620.9589 -617.9741 30153.9691 -19.0920 23.8925
ENERGY: 1500000 3.8855 12.1285 5.5168 0.0000 -10650.5408 1400.8261 0.0000 0.0000 1779.1161 -7449.0678 302.6680 -9228.1839 -7451.9331 298.6429 -250.4099 -196.9634 30097.2974 -95.2465 -48.0741
TCL: Running FEP window  20: Lambda1 0.049999999999999684 Lambda2 0.0    [dLambda -0.049999999999999684]
TCL: Setting parameter firsttimestep to 0
TCL: Setting parameter alchLambda to 0.049999999999999684
Info: NONBONDED TABLE R-SQUARED SPACING: 0.0625
Info: NONBONDED TABLE SIZE: 705 POINTS
TCL: Setting parameter alchLambda2 to 0.0
Info: NONBONDED TABLE R-SQUARED SPACING: 0.0625
Info: NONBONDED TABLE SIZE: 705 POINTS
TCL: Running for 1500000 steps
ETITLE: TS BOND ANGLE DIHED IMPRP ELECT VDW BOUNDARY MISC KINETIC TOTAL TEMP POTENTIAL TOTALAVG TEMPAVG PRESSURE GPRESSURE VOLUME PRESSAVG GPRESSAVG
ENERGY: 0 3.8855 12.1285 5.5168 0.0000 -10650.5411 1401.4399 0.0000 0.0000 1778.2811 -7449.2894 302.5259 -9227.5705 -7449.2894 302.5259 -286.8448 -197.4962 30097.2974 -286.8448 -197.4962
ENERGY: 300000 5.9552 18.0040 4.1011 0.0000 -10523.4531 1358.9509 0.0000 0.0000 1784.5971 -7351.8448 303.6004 -9136.4419 -7407.8837 302.9114 -318.5146 -251.1847 30127.4409 -415.1129 -327.8313
ENERGY: 600000 0.9968 8.6369 4.1664 0.0000 -10759.7617 1508.2374 0.0000 0.0000 1732.2708 -7505.4534 294.6986 -9237.7242 -7442.7163 301.5766 452.1773 563.0434 30141.7693 -197.7405 -101.8678
ENERGY: 900000 5.1765 5.2587 3.5487 0.0000 -10467.7265 1323.7052 0.0000 0.0000 1764.3761 -7365.6614 300.1604 -9130.0375 -7420.8589 302.1113 -802.8561 -702.6766 30014.6158 -271.7346 -182.4869
ENERGY: 1200000 6.4897 8.2742 2.9069 0.0000 -10777.9420 1481.9130 0.0000 0.0000 1794.8895 -7483.4687 305.3514 -9278.3582 -7437.7579 301.6136 214.1541 315.0036 30018.2737 -204.3575 -114.4571
ENERGY: 1500000 5.0351 7.8947 3.1856 0.0000 -10632.4483 1377.6694 0.0000 0.0000 1753.6942 -7484.9693 298.3432 -9238.6635 -7440.3511 301.4296 -940.8240 -845.3670 30187.5244 -304.5619 -211.4273
TCL: Exiting due to exit command.
