Info: SIMULATION PARAMETERS:
Info: TIMESTEP               2
Info: NUMBER OF STEPS        0
Info: STEPS PER CYCLE        10
Info: PERIODIC CELL BASIS 1  33.3108 0 0
Info: PERIODIC CELL BASIS 2  0 29.2416 0
Info: PERIODIC CELL BASIS 3  0 0 31.7874
Info: PERIODIC CELL CENTER   0 0 0
Info: WRAPPING WATERS AROUND PERIODIC BOUNDARIES ON OUTPUT.
Info: WRAPPING ALL CLUSTERS AROUND PERIODIC BOUNDARIES ON OUTPUT.
Info: FIRST LDB TIMESTEP     50
Info: LAST LDB TIMESTEP     -1
Info: HOM BACKGROUND SCALING 1
Info: PME BACKGROUND SCALING 1
Info: MIN ATOMS PER PATCH    40
Info: EMPTY PATCH LOAD       40 ATOMS
Info: VELOCITY FILE          mobley_5390332_equil.vel
Info: CENTER OF MASS MOVING INITIALLY? NO
Info: DIELECTRIC             1
Info: EXCLUDE                SCALED ONE-FOUR
Info: 1-4 ELECTROSTATICS SCALED BY 0.833333
Info: MODIFIED 1-4 VDW PARAMETERS WILL BE USED
Info: DCD FILENAME           mobley_5390332_prod.dcd
Info: DCD FREQUENCY          100000
Info: DCD FIRST STEP         100000
Info: DCD FILE WILL CONTAIN UNIT CELL DATA
Info: XST FILENAME           mobley_5390332_prod.xst
Info: XST FREQUENCY          100000
Info: NO VELOCITY DCD OUTPUT
Info: NO FORCE DCD OUTPUT
Info: OUTPUT FILENAME        mobley_5390332_prod
Info: BINARY OUTPUT FILES WILL BE USED
Info: RESTART FILENAME       mobley_5390332_prod.restart
Info: RESTART FREQUENCY      100000
Info: BINARY RESTART FILES WILL BE USED
Info: CUTOFF                 9
Info: PAIRLIST DISTANCE      11
Info: PAIRLIST SHRINK RATE   0.01
Info: PAIRLIST GROW RATE     0.01
Info: PAIRLIST TRIGGER       0.3
Info: PAIRLISTS PER CYCLE    2
Info: PAIRLISTS ENABLED
Info: MARGIN                 2
Info: HYDROGEN GROUP CUTOFF  2.5
Info: PATCH DIMENSION        15.5
Info: ENERGY OUTPUT STEPS    100000
Info: ENERGY EVALUATION STEPS    100000
Info: OUTPUT ENERGY PRECISION 4
Info: CROSSTERM ENERGY INCLUDED IN DIHEDRAL
Info: TIMING OUTPUT STEPS    1000000
Info: PRESSURE OUTPUT STEPS  100000
Info: ALCHEMICAL FEP ON
Info: FEP CURRENT LAMBDA VALUE     0
Info: FEP COMPARISON LAMBDA VALUE  0.05
Info: FEP INTRA-ALCHEMICAL NON-BONDED INTERACTIONS WILL BE RETAINED
Info: FEP INTRA-ALCHEMICAL BONDED INTERACTIONS WILL BE RETAINED
Info: FEP VDW SHIFTING COEFFICIENT 5
Info: FEP ELEC. ACTIVE FOR ANNIHILATED PARTICLES BETWEEN LAMBDA = 0 AND LAMBDA = 0.5
Info: FEP ELEC. ACTIVE FOR EXNIHILATED PARTICLES BETWEEN LAMBDA = 0.5 AND LAMBDA = 1
Info: FEP VDW ACTIVE FOR ANNIHILATED PARTICLES BETWEEN LAMBDA = 0 AND LAMBDA = 1
Info: FEP VDW ACTIVE FOR EXNIHILATED PARTICLES BETWEEN LAMBDA = 0 AND LAMBDA = 1
Info: FEP BOND ACTIVE FOR ANNIHILATED PARTICLES BETWEEN LAMBDA = 1 AND LAMBDA = 1
Info: FEP BOND ACTIVE FOR EXNIHILATED PARTICLES BETWEEN LAMBDA = 0 AND LAMBDA = 0
Info: LANGEVIN DYNAMICS ACTIVE
Info: LANGEVIN TEMPERATURE   300
Info: LANGEVIN USING BBK INTEGRATOR
Info: LANGEVIN DAMPING COEFFICIENT IS 1 INVERSE PS
Info: LANGEVIN DYNAMICS APPLIED TO HYDROGENS
Info: LANGEVIN PISTON PRESSURE CONTROL ACTIVE
Info:        TARGET PRESSURE IS 1.01325 BAR
Info:     OSCILLATION PERIOD IS 50 FS
Info:             DECAY TIME IS 25 FS
Info:     PISTON TEMPERATURE IS 300 K
Info:       PRESSURE CONTROL IS GROUP-BASED
Info:    INITIAL STRAIN RATE IS 0.000543069 0.000543069 0.000543069
Info:       CELL FLUCTUATION IS ISOTROPIC
Info: PARTICLE MESH EWALD (PME) ACTIVE
Info: PME TOLERANCE               1e-06
Info: PME EWALD COEFFICIENT       0.348832
Info: PME INTERPOLATION ORDER     4
Info: PME GRID DIMENSIONS         36 32 32
Info: PME MAXIMUM GRID SPACING    1
Info: PME CALCULATION WILL BE PERFORMED ON GPU
Info: FULL ELECTROSTATIC EVALUATION FREQUENCY      2
Info: USING VERLET I (r-RESPA) MTS SCHEME.
Info: C1 SPLITTING OF LONG RANGE ELECTROSTATICS
Info: PLACING ATOMS IN PATCHES BY HYDROGEN GROUPS
Info: RIGID BONDS TO HYDROGEN : ALL
Info:         ERROR TOLERANCE : 1e-08
Info:          MAX ITERATIONS : 100
Info: RIGID WATER USING SETTLE ALGORITHM
Info: RANDOM NUMBER SEED     1743844954
Info: USE HYDROGEN BONDS?    NO
Info: Using AMBER format force field!
Info: AMBER PARM FILE        mobley_5390332.prmtop
Info: COORDINATE PDB         mobley_5390332.pdb
Info: Exclusions will be read from PARM file!
Info: SCNB (VDW SCALING)     2
Info: USING ARITHMETIC MEAN TO COMBINE L-J SIGMA PARAMETERS
Info: BINARY COORDINATES     mobley_5390332_equil.coor
Info: SUMMARY OF PARAMETERS:
Info: 9 BONDS
Info: 11 ANGLES
Info:   11 HARMONIC
Info:   0 COSINE-BASED
Info: 13 DIHEDRAL
Info: 0 IMPROPER
Info: 0 CROSSTERM
Info: 0 VDW
Info: 36 VDW_PAIRS
Info: 0 NBTHOLE_PAIRS
Info: To read alchdata from file: mobley_5390332.pdb
Info: To read alchflag data from column: 5
Info: STRUCTURE SUMMARY:
Info: 2987 ATOMS
Info: 2986 BONDS
Info: 28 ANGLES
Info: 37 DIHEDRALS
Info: 0 IMPROPERS
Info: 0 CROSSTERMS
Info: 3043 EXCLUSIONS
Info: 2980 RIGID BONDS
Info: ALCH: 0 ATOMS TO DISAPPEAR IN FINAL STATE
Info: ALCH: 17 ATOMS TO APPEAR IN FINAL STATE
Info: 5981 DEGREES OF FREEDOM
Info: 997 HYDROGEN GROUPS
Info: 4 ATOMS IN LARGEST HYDROGEN GROUP
Info: 997 MIGRATION GROUPS
Info: 4 ATOMS IN LARGEST MIGRATION GROUP
Info: TOTAL MASS = 17938 amu
Info: TOTAL CHARGE = -9.99719e-05 e
Info: MASS DENSITY = 0.962038 g/cm^3
Info: ATOM DENSITY = 0.0964706 atoms/A^3
Info: ADDED 0 IMPLICIT EXCLUSIONS
Info: NONBONDED TABLE R-SQUARED SPACING: 0.0625
Info: NONBONDED TABLE SIZE: 705 POINTS
Info: REMOVING COM VELOCITY -0.0478356 0.0425318 0.12689
Info: Use 3D box decompostion in PME FFT.
Info: Updated CUDA force table with 4096 elements.
Info: Updated CUDA LJ table with 8 x 8 elements.
Info: Found 20 unique exclusion lists needing 48 bytes
TCL: Running for 1500000 steps
ETITLE: TS BOND ANGLE DIHED IMPRP ELECT VDW BOUNDARY MISC KINETIC TOTAL TEMP POTENTIAL TOTALAVG TEMPAVG PRESSURE GPRESSURE VOLUME PRESSAVG GPRESSAVG
ENERGY: 0 2.0927 5.9220 3.7392 0.0000 -10909.1566 1458.2530 0.0000 0.0000 1790.9805 -7648.1691 301.3751 -9439.1496 -7648.1691 301.3751 -323.9253 -228.9582 30962.7951 -323.9253 -228.9582
ENERGY: 300000 1.0700 8.2916 3.6327 0.0000 -10643.8756 1305.9882 0.0000 0.0000 1747.1350 -7577.7580 293.9971 -9324.8930 -7579.5433 298.5857 -1074.7564 -1018.1336 30813.1191 -429.9048 -354.9723
ENERGY: 600000 1.5790 6.4674 2.3434 0.0000 -10799.9484 1473.8794 0.0000 0.0000 1785.5577 -7530.1215 300.4626 -9315.6792 -7558.2623 301.4050 213.4690 272.8940 30756.1518 -212.4114 -142.3536
ENERGY: 900000 1.4697 6.5222 3.3997 0.0000 -10752.8154 1435.0084 0.0000 0.0000 1755.1512 -7551.2642 295.3460 -9306.4154 -7565.0461 300.7502 -148.7399 -59.5787 30688.6711 -139.9312 -64.6289
ENERGY: 1200000 1.6158 5.7439 2.0200 0.0000 -10753.9357 1398.6222 0.0000 0.0000 1762.5426 -7583.3913 296.5898 -9345.9339 -7578.3066 299.8237 -570.8794 -525.0280 30822.2962 -193.2865 -117.4439
ENERGY: 1500000 0.6591 3.9277 2.5089 0.0000 -10822.9226 1445.2083 0.0000 0.0000 1812.8928 -7557.7258 305.0624 -9370.6186 -7570.8771 300.8422 -229.8399 -111.3552 30753.7481 -151.1580 -77.8252
TCL: Running FEP window   2: Lambda1 0.05   Lambda2 0.1    [dLambda 0.05  ]
TCL: Setting parameter firsttimestep to 0
TCL: Setting parameter alchLambda to 0.05
Info: NONBONDED TABLE R-SQUARED SPACING: 0.0625
Info: NONBONDED TABLE SIZE: 705 POINTS
TCL: Setting parameter alchLambda2 to 0.1
Info: NONBONDED TABLE R-SQUARED SPACING: 0.0625
Info: NONBONDED TABLE SIZE: 705 POINTS
TCL: Running for 1500000 steps
ETITLE: TS BOND ANGLE DIHED IMPRP ELECT VDW BOUNDARY MISC KINETIC TOTAL TEMP POTENTIAL TOTALAVG TEMPAVG PRESSURE GPRESSURE VOLUME PRESSAVG GPRESSAVG
ENERGY: 0 0.6591 3.9277 2.5089 0.0000 -10822.9233 1448.9470 0.0000 0.0000 1811.9891 -7554.8915 304.9103 -9366.8806 -7554.8915 304.9103 -186.8907 -104.1735 30753.7481 -186.8907 -104.1735
ENERGY: 300000 1.0751 10.6519 3.2032 0.0000 -10932.0506 1539.8564 0.0000 0.0000 1839.0928 -7538.1713 309.4712 -9377.2641 -7559.1772 303.7403 710.4758 814.2640 30180.6698 -61.5106 9.9850
ENERGY: 600000 1.7332 6.4541 3.6545 0.0000 -10716.0794 1364.5591 0.0000 0.0000 1754.7586 -7584.9199 295.2799 -9339.6785 -7566.5776 301.5217 -758.4350 -751.6671 30863.3676 -215.3590 -156.4959
ENERGY: 900000 2.3612 10.8464 5.8111 0.0000 -10850.2335 1502.4592 0.0000 0.0000 1804.0666 -7524.6889 303.5772 -9328.7555 -7554.0891 301.8263 102.6183 163.6899 31120.0336 -229.4789 -166.4767
ENERGY: 1200000 1.5670 7.9978 3.4015 0.0000 -10860.2241 1502.2712 0.0000 0.0000 1765.9860 -7579.0007 297.1692 -9344.9867 -7559.8367 301.4113 413.9234 468.1993 30522.3054 -128.6072 -69.1700
ENERGY: 1500000 1.3733 10.5743 3.5809 0.0000 -10792.7190 1415.0837 0.0000 0.0000 1787.8628 -7574.2439 300.8505 -9362.1067 -7555.3988 301.7843 -255.8808 -187.0475 30540.6482 -162.8921 -102.5198
TCL: Running FEP window   3: Lambda1 0.1    Lambda2 0.15000000000000002 [dLambda 0.05000000000000002]
TCL: Setting parameter firsttimestep to 0
TCL: Setting parameter alchLambda to 0.1
Info: NONBONDED TABLE R-SQUARED SPACING: 0.0625
Info: NONBONDED TABLE SIZE: 705 POINTS
TCL: Setting parameter alchLambda2 to 0.15000000000000002
Info: NONBONDED TABLE R-SQUARED SPACING: 0.0625
Info: NONBONDED TABLE SIZE: 705 POINTS
TCL: Running for 1500000 steps
ETITLE: TS BOND ANGLE DIHED IMPRP ELECT VDW BOUNDARY MISC KINETIC TOTAL TEMP POTENTIAL TOTALAVG TEMPAVG PRESSURE GPRESSURE VOLUME PRESSAVG GPRESSAVG
ENERGY: 0 1.3734 10.5743 3.5809 0.0000 -10792.7196 1417.0380 0.0000 0.0000 1786.9705 -7573.1826 300.7004 -9360.1531 -7573.1826 300.7004 -268.5716 -177.3105 30540.6482 -268.5716 -177.3105
ENERGY: 300000 1.2675 8.2127 2.4355 0.0000 -10875.5383 1480.4710 0.0000 0.0000 1805.4735 -7577.6781 303.8139 -9383.1516 -7574.1475 299.7681 -7.1306 56.0635 30626.6705 45.6576 122.2123
ENERGY: 600000 5.4670 4.4712 2.4316 0.0000 -10974.6438 1558.3225 0.0000 0.0000 1840.7969 -7563.1545 309.7579 -9403.9514 -7562.8182 301.8334 881.5535 942.3040 29809.2664 155.5377 223.2375
ENERGY: 900000 0.7767 7.6591 1.8672 0.0000 -10751.8986 1470.4707 0.0000 0.0000 1766.4365 -7504.6885 297.2450 -9271.1250 -7552.1076 301.2259 -4.2583 60.6913 31177.4529 52.1542 116.7734
ENERGY: 1200000 0.5466 8.6128 4.2057 0.0000 -10865.4245 1496.5995 0.0000 0.0000 1804.1764 -7551.2835 303.5957 -9355.4599 -7558.7898 300.7263 865.6932 878.6314 30010.9927 102.4081 159.5201
ENERGY: 1500000 0.4259 8.5794 3.0975 0.0000 -10818.9891 1444.8083 0.0000 0.0000 1732.8505 -7629.2275 291.5934 -9362.0780 -7561.7835 300.3408 -72.3377 -16.7911 30478.6566 12.8564 70.2355
TCL: Running FEP window   4: Lambda1 0.15000000000000002 Lambda2 0.2    [dLambda 0.04999999999999999]
TCL: Setting parameter firsttimestep to 0
TCL: Setting parameter alchLambda to 0.15000000000000002
Info: NONBONDED TABLE R-SQUARED SPACING: 0.0625
Info: NONBONDED TABLE SIZE: 705 POINTS
TCL: Setting parameter alchLambda2 to 0.2
Info: NONBONDED TABLE R-SQUARED SPACING: 0.0625
Info: NONBONDED TABLE SIZE: 705 POINTS
TCL: Running for 1500000 steps
ETITLE: TS BOND ANGLE DIHED IMPRP ELECT VDW BOUNDARY MISC KINETIC TOTAL TEMP POTENTIAL TOTALAVG TEMPAVG PRESSURE GPRESSURE VOLUME PRESSAVG GPRESSAVG
ENERGY: 0 0.4259 8.5794 3.0975 0.0000 -10818.9895 1444.9344 0.0000 0.0000 1731.9684 -7629.9839 291.4450 -9361.9523 -7629.9839 291.4450 -112.8617 -17.0888 30478.6566 -112.8617 -17.0888
ENERGY: 300000 3.6410 7.2012 4.2101 0.0000 -10803.3387 1403.0262 0.0000 0.0000 1722.2625 -7662.9977 289.8117 -9385.2603 -7621.1965 294.4967 -608.2041 -508.1160 30960.1526 -214.4059 -126.5047
ENERGY: 600000 0.7446 10.0617 3.6292 0.0000 -10876.8485 1492.4726 0.0000 0.0000 1831.7310 -7538.2095 308.2324 -9369.9405 -7593.8265 298.4052 175.3256 215.0761 30713.4942 -111.4694 -22.7824
ENERGY: 900000 0.4591 7.1509 4.7692 0.0000 -10866.8293 1448.2865 0.0000 0.0000 1748.6066 -7657.5570 294.2447 -9406.1636 -7596.6787 298.3871 -107.6111 -39.8016 30461.3200 -5.8538 71.2784
ENERGY: 1200000 0.7966 4.8885 2.8401 0.0000 -10740.1564 1417.5519 0.0000 0.0000 1727.0749 -7587.0043 290.6215 -9314.0792 -7582.2729 298.4482 -415.2044 -357.4854 30916.0344 -113.4867 -47.8463
ENERGY: 1500000 1.3017 8.4389 1.5040 0.0000 -10727.2715 1400.8607 0.0000 0.0000 1792.5824 -7522.5838 301.6447 -9315.1662 -7575.4342 298.9875 -571.0312 -476.9372 30950.1678 -220.0949 -149.0436
TCL: Running FEP window   5: Lambda1 0.2    Lambda2 0.25   [dLambda 0.04999999999999999]
TCL: Setting parameter firsttimestep to 0
TCL: Setting parameter alchLambda to 0.2
Info: NONBONDED TABLE R-SQUARED SPACING: 0.0625
Info: NONBONDED TABLE SIZE: 705 POINTS
TCL: Setting parameter alchLambda2 to 0.25
Info: NONBONDED TABLE R-SQUARED SPACING: 0.0625
Info: NONBONDED TABLE SIZE: 705 POINTS
TCL: Running for 1500000 steps
ETITLE: TS BOND ANGLE DIHED IMPRP ELECT VDW BOUNDARY MISC KINETIC TOTAL TEMP POTENTIAL TOTALAVG TEMPAVG PRESSURE GPRESSURE VOLUME PRESSAVG GPRESSAVG
ENERGY: 0 1.3017 8.4389 1.5040 0.0000 -10727.2708 1402.0966 0.0000 0.0000 1791.7232 -7522.2063 301.5001 -9313.9295 -7522.2063 301.5001 -537.6747 -466.2194 30950.1678 -537.6747 -466.2194
ENERGY: 300000 1.1934 5.5395 1.7382 0.0000 -10944.6696 1527.3617 0.0000 0.0000 1753.1952 -7655.6416 295.0169 -9408.8368 -7554.5217 299.9846 298.0282 357.8741 30543.8551 -15.5147 42.0291
ENERGY: 600000 1.5881 3.8668 1.9543 0.0000 -10913.1247 1521.6660 0.0000 0.0000 1752.4585 -7631.5910 294.8929 -9384.0495 -7584.2166 299.2205 601.2654 665.1565 30328.0963 166.9601 242.3271
ENERGY: 900000 6.4041 9.1337 3.1349 0.0000 -10761.3902 1410.5551 0.0000 0.0000 1814.0329 -7518.1295 305.2543 -9332.1625 -7581.9097 299.5902 -303.6539 -255.9590 30741.8971 79.7305 147.3532
ENERGY: 1200000 0.8143 7.8214 1.4979 0.0000 -10751.8329 1410.3087 0.0000 0.0000 1736.7836 -7594.6070 292.2552 -9331.3907 -7587.3411 298.9943 -408.9260 -348.2599 30888.4351 24.5531 83.4179
ENERGY: 1500000 0.7741 7.3430 2.8086 0.0000 -10711.9230 1406.5461 0.0000 0.0000 1794.4965 -7499.9547 301.9668 -9294.4512 -7577.9216 299.8411 -172.0914 -107.9362 30738.6466 -0.4021 63.8918
TCL: Running FEP window   6: Lambda1 0.25   Lambda2 0.3    [dLambda 0.04999999999999999]
TCL: Setting parameter firsttimestep to 0
TCL: Setting parameter alchLambda to 0.25
Info: NONBONDED TABLE R-SQUARED SPACING: 0.0625
Info: NONBONDED TABLE SIZE: 705 POINTS
TCL: Setting parameter alchLambda2 to 0.3
Info: NONBONDED TABLE R-SQUARED SPACING: 0.0625
Info: NONBONDED TABLE SIZE: 705 POINTS
TCL: Running for 1500000 steps
ETITLE: TS BOND ANGLE DIHED IMPRP ELECT VDW BOUNDARY MISC KINETIC TOTAL TEMP POTENTIAL TOTALAVG TEMPAVG PRESSURE GPRESSURE VOLUME PRESSAVG GPRESSAVG
ENERGY: 0 0.7741 7.3430 2.8086 0.0000 -10711.9236 1406.9002 0.0000 0.0000 1793.6487 -7500.4489 301.8241 -9294.0977 -7500.4489 301.8241 -187.2432 -103.7546 30738.6466 -187.2432 -103.7546
ENERGY: 300000 2.1548 8.1033 3.1622 0.0000 -10812.0681 1469.8295 0.0000 0.0000 1815.5377 -7513.2806 305.5075 -9328.8183 -7547.1614 301.5364 233.0488 154.9681 30554.3319 -1.3166 26.3266
ENERGY: 600000 2.3800 6.6903 2.0904 0.0000 -10891.6286 1443.3521 0.0000 0.0000 1752.8886 -7684.2273 294.9653 -9437.1158 -7577.0448 299.4082 -341.3845 -289.8683 30481.5328 32.6357 82.1554
ENERGY: 900000 0.4035 7.2085 1.1961 0.0000 -10659.5500 1395.2423 0.0000 0.0000 1829.2365 -7426.2631 307.8126 -9255.4996 -7556.2324 300.7878 -108.3148 -96.9601 30593.2977 -104.7276 -60.2789
ENERGY: 1200000 3.2037 5.9997 3.1313 0.0000 -10886.3747 1448.7980 0.0000 0.0000 1762.3183 -7662.9237 296.5520 -9425.2420 -7561.4142 300.8962 -306.9463 -257.8339 30820.6375 -48.8695 -3.3102
ENERGY: 1500000 1.8578 5.4261 3.1559 0.0000 -10911.7938 1453.1436 0.0000 0.0000 1830.1619 -7618.0484 307.9684 -9448.2103 -7560.4497 301.4755 -138.0036 -116.3466 30120.8609 -46.7777 2.2493
TCL: Running FEP window   7: Lambda1 0.3    Lambda2 0.35   [dLambda 0.04999999999999999]
TCL: Setting parameter firsttimestep to 0
TCL: Setting parameter alchLambda to 0.3
Info: NONBONDED TABLE R-SQUARED SPACING: 0.0625
Info: NONBONDED TABLE SIZE: 705 POINTS
TCL: Setting parameter alchLambda2 to 0.35
Info: NONBONDED TABLE R-SQUARED SPACING: 0.0625
Info: NONBONDED TABLE SIZE: 705 POINTS
TCL: Running for 1500000 steps
ETITLE: TS BOND ANGLE DIHED IMPRP ELECT VDW BOUNDARY MISC KINETIC TOTAL TEMP POTENTIAL TOTALAVG TEMPAVG PRESSURE GPRESSURE VOLUME PRESSAVG GPRESSAVG
ENERGY: 0 1.8578 5.4261 3.1559 0.0000 -10911.7939 1454.1411 0.0000 0.0000 1829.2685 -7617.9445 307.8180 -9447.2130 -7617.9445 307.8180 -182.5165 -106.8864 30120.8609 -182.5165 -106.8864
ENERGY: 300000 2.8035 6.6388 3.6033 0.0000 -10924.6538 1543.5465 0.0000 0.0000 1831.9304 -7536.1313 308.2659 -9368.0617 -7566.4306 302.8062 482.3735 557.1724 30725.1903 20.9252 93.4810
ENERGY: 600000 1.4417 4.9718 4.9729 0.0000 -10915.5565 1533.7749 0.0000 0.0000 1828.7510 -7541.6442 307.7309 -9370.3952 -7564.5752 300.8928 800.3794 805.4396 30387.3306 189.4485 247.3521
ENERGY: 900000 2.7156 5.8142 1.9274 0.0000 -10827.1989 1441.3330 0.0000 0.0000 1809.7434 -7565.6654 304.5324 -9375.4088 -7564.1201 301.8472 -304.6151 -248.4440 30739.8333 53.6353 111.6993
ENERGY: 1200000 1.1412 8.2075 3.2982 0.0000 -10898.5579 1526.2914 0.0000 0.0000 1770.2048 -7589.4147 297.8791 -9359.6195 -7576.3823 301.9418 495.3560 508.6186 30607.9625 132.7971 187.4195
ENERGY: 1500000 3.0234 7.9393 4.0942 0.0000 -10773.3443 1389.7223 0.0000 0.0000 1738.7728 -7629.7923 292.5900 -9368.5651 -7582.7506 301.4869 -493.1009 -401.8321 30425.8687 133.6097 185.7133
TCL: Running FEP window   8: Lambda1 0.35   Lambda2 0.39999999999999997 [dLambda 0.04999999999999999]
TCL: Setting parameter firsttimestep to 0
TCL: Setting parameter alchLambda to 0.35
Info: NONBONDED TABLE R-SQUARED SPACING: 0.0625
Info: NONBONDED TABLE SIZE: 705 POINTS
TCL: Setting parameter alchLambda2 to 0.39999999999999997
Info: NONBONDED TABLE R-SQUARED SPACING: 0.0625
Info: NONBONDED TABLE SIZE: 705 POINTS
TCL: Running for 1500000 steps
ETITLE: TS BOND ANGLE DIHED IMPRP ELECT VDW BOUNDARY MISC KINETIC TOTAL TEMP POTENTIAL TOTALAVG TEMPAVG PRESSURE GPRESSURE VOLUME PRESSAVG GPRESSAVG
ENERGY: 0 3.0234 7.9393 4.0942 0.0000 -10773.3462 1389.3081 0.0000 0.0000 1737.8571 -7631.1240 292.4359 -9368.9812 -7631.1240 292.4359 -499.2046 -401.2559 30425.8687 -499.2046 -401.2559
ENERGY: 300000 1.4750 4.1523 2.2364 0.0000 -10604.3024 1376.2101 0.0000 0.0000 1794.8344 -7425.3941 302.0237 -9220.2286 -7538.4054 299.7201 -457.3856 -399.1865 31156.0299 -216.0354 -156.1622
ENERGY: 600000 2.3172 8.8195 2.1636 0.0000 -10882.6144 1458.5043 0.0000 0.0000 1782.9645 -7627.8453 300.0263 -9410.8098 -7524.7744 299.8063 -289.5540 -183.8721 30794.9003 -246.4969 -186.8592
ENERGY: 900000 0.6849 4.8982 1.9842 0.0000 -10892.3105 1503.3922 0.0000 0.0000 1787.0272 -7594.3237 300.7099 -9381.3509 -7553.6103 299.4662 193.0504 227.9203 30724.8644 -216.7692 -164.7671
ENERGY: 1200000 1.1747 6.1137 2.7260 0.0000 -10879.3883 1509.7905 0.0000 0.0000 1776.8263 -7582.7572 298.9934 -9359.5835 -7560.3395 299.9517 53.9749 114.2662 31164.4623 -208.1666 -154.0154
ENERGY: 1500000 0.0768 10.6429 2.6000 0.0000 -10785.8219 1432.0394 0.0000 0.0000 1818.8085 -7521.6542 306.0579 -9340.4627 -7563.8586 299.9864 -48.8042 47.9200 30639.5789 -198.4426 -143.6052
TCL: Running FEP window   9: Lambda1 0.39999999999999997 Lambda2 0.44999999999999996 [dLambda 0.04999999999999999]
TCL: Setting parameter firsttimestep to 0
TCL: Setting parameter alchLambda to 0.39999999999999997
Info: NONBONDED TABLE R-SQUARED SPACING: 0.0625
Info: NONBONDED TABLE SIZE: 705 POINTS
TCL: Setting parameter alchLambda2 to 0.44999999999999996
Info: NONBONDED TABLE R-SQUARED SPACING: 0.0625
Info: NONBONDED TABLE SIZE: 705 POINTS
TCL: Running for 1500000 steps
ETITLE: TS BOND ANGLE DIHED IMPRP ELECT VDW BOUNDARY MISC KINETIC TOTAL TEMP POTENTIAL TOTALAVG TEMPAVG PRESSURE GPRESSURE VOLUME PRESSAVG GPRESSAVG
ENERGY: 0 0.0768 10.6429 2.6000 0.0000 -10785.8216 1431.7351 0.0000 0.0000 1817.9266 -7522.8402 305.9095 -9340.7668 -7522.8402 305.9095 -28.9595 49.1928 30639.5789 -28.9595 49.1928
ENERGY: 300000 2.7262 5.9230 2.3076 0.0000 -10843.7382 1441.2840 0.0000 0.0000 1820.7044 -7570.7930 306.3769 -9391.4974 -7539.7645 306.1207 -53.6986 -9.8379 30388.0166 198.2748 241.9330
ENERGY: 600000 0.2619 7.0605 2.2699 0.0000 -10899.5966 1487.1920 0.0000 0.0000 1715.1544 -7687.6579 288.6156 -9402.8123 -7560.6158 300.9439 -55.1515 -27.7408 30837.3645 -5.3085 51.6900
ENERGY: 900000 3.8072 5.9857 3.1682 0.0000 -10731.3845 1332.1568 0.0000 0.0000 1771.9179 -7614.3486 298.1674 -9386.2665 -7576.3143 299.7507 -1053.4248 -967.1464 30478.9635 -143.1274 -72.7159
ENERGY: 1200000 1.5061 4.1291 2.2883 0.0000 -10860.2627 1489.7720 0.0000 0.0000 1763.6780 -7598.8892 296.7809 -9362.5672 -7590.2020 298.9656 143.0413 214.6911 30787.1653 -74.0667 -10.2379
ENERGY: 1500000 2.1588 9.9406 3.7962 0.0000 -10893.3744 1474.6239 0.0000 0.0000 1790.2354 -7612.6195 301.2498 -9402.8549 -7590.5691 298.8678 173.2939 212.5015 30456.3088 -51.5734 10.9078
TCL: Running FEP window  10: Lambda1 0.44999999999999996 Lambda2 0.49999999999999994 [dLambda 0.04999999999999999]
TCL: Setting parameter firsttimestep to 0
TCL: Setting parameter alchLambda to 0.44999999999999996
Info: NONBONDED TABLE R-SQUARED SPACING: 0.0625
Info: NONBONDED TABLE SIZE: 705 POINTS
TCL: Setting parameter alchLambda2 to 0.49999999999999994
Info: NONBONDED TABLE R-SQUARED SPACING: 0.0625
Info: NONBONDED TABLE SIZE: 705 POINTS
TCL: Running for 1500000 steps
ETITLE: TS BOND ANGLE DIHED IMPRP ELECT VDW BOUNDARY MISC KINETIC TOTAL TEMP POTENTIAL TOTALAVG TEMPAVG PRESSURE GPRESSURE VOLUME PRESSAVG GPRESSAVG
ENERGY: 0 2.1588 9.9406 3.7962 0.0000 -10893.3755 1475.8845 0.0000 0.0000 1789.2901 -7612.3053 301.0907 -9401.5954 -7612.3053 301.0907 152.9577 227.3673 30456.3088 152.9577 227.3673
ENERGY: 300000 1.0925 5.4907 2.9433 0.0000 -10807.8878 1432.5159 0.0000 0.0000 1778.5420 -7587.3034 299.2821 -9365.8454 -7590.7855 298.4011 3.8086 90.2300 30317.5487 210.2271 266.5649
ENERGY: 600000 2.6347 3.7887 1.8319 0.0000 -10881.4212 1406.6561 0.0000 0.0000 1808.1723 -7658.3376 304.2681 -9466.5099 -7592.8535 300.0334 -481.0253 -417.3019 30288.8961 111.1058 156.8860
ENERGY: 900000 1.7427 5.5008 1.0253 0.0000 -10568.0073 1330.3147 0.0000 0.0000 1771.0272 -7458.3966 298.0175 -9229.4238 -7594.1885 299.2611 -942.1977 -916.6924 31416.1601 10.3082 61.1934
ENERGY: 1200000 3.3865 3.6646 2.1557 0.0000 -10805.6479 1383.2546 0.0000 0.0000 1798.8630 -7614.3235 302.7016 -9413.1865 -7598.2992 299.7610 -822.7076 -689.6752 30468.0887 -51.9990 4.2313
ENERGY: 1500000 2.5165 5.1790 4.4701 0.0000 -10794.5998 1414.0834 0.0000 0.0000 1745.7799 -7622.5709 293.7691 -9368.3508 -7591.5611 299.4859 -593.5400 -540.7393 30899.2496 -119.9635 -69.6833
TCL: Running FEP window  11: Lambda1 0.49999999999999994 Lambda2 0.5499999999999999 [dLambda 0.04999999999999999]
TCL: Setting parameter firsttimestep to 0
TCL: Setting parameter alchLambda to 0.49999999999999994
Info: NONBONDED TABLE R-SQUARED SPACING: 0.0625
Info: NONBONDED TABLE SIZE: 705 POINTS
TCL: Setting parameter alchLambda2 to 0.5499999999999999
Info: NONBONDED TABLE R-SQUARED SPACING: 0.0625
Info: NONBONDED TABLE SIZE: 705 POINTS
TCL: Running for 1500000 steps
ETITLE: TS BOND ANGLE DIHED IMPRP ELECT VDW BOUNDARY MISC KINETIC TOTAL TEMP POTENTIAL TOTALAVG TEMPAVG PRESSURE GPRESSURE VOLUME PRESSAVG GPRESSAVG
ENERGY: 0 2.5165 5.1790 4.4701 0.0000 -10794.5991 1414.2505 0.0000 0.0000 1744.8602 -7623.3228 293.6143 -9368.1830 -7623.3228 293.6143 -606.2285 -529.7330 30899.2496 -606.2285 -529.7330
ENERGY: 300000 1.1447 5.3505 2.9285 0.0000 -10840.3768 1478.3495 0.0000 0.0000 1733.6512 -7618.9524 291.7281 -9352.6036 -7540.6331 297.0314 82.6201 152.9771 30827.2150 -129.0752 -40.1277
ENERGY: 600000 2.0326 5.5650 1.9687 0.0000 -10865.8175 1451.9967 0.0000 0.0000 1856.6126 -7547.6419 312.4193 -9404.2545 -7540.7635 300.7190 -50.5296 -9.4348 30569.1439 -97.1646 -19.0821
ENERGY: 900000 2.0799 6.7548 2.3140 0.0000 -10918.8487 1553.3197 0.0000 0.0000 1757.9427 -7596.4375 295.8158 -9354.3803 -7548.4850 300.0825 626.1848 615.4658 30799.6915 -43.2311 24.7383
ENERGY: 1200000 2.3465 7.2047 2.4386 0.0000 -10833.6801 1430.0850 0.0000 0.0000 1781.9925 -7609.6128 299.8627 -9391.6053 -7558.9894 299.0109 -265.7104 -158.2531 30414.8231 6.3270 75.5020
ENERGY: 1500000 2.5482 5.4493 2.9314 0.0000 -10718.1397 1413.5415 0.0000 0.0000 1784.5876 -7509.0817 300.2994 -9293.6693 -7562.9542 298.6859 -9.5721 115.0147 30713.6050 12.8136 86.2910
TCL: Running FEP window  12: Lambda1 0.5499999999999999 Lambda2 0.6    [dLambda 0.050000000000000044]
TCL: Setting parameter firsttimestep to 0
TCL: Setting parameter alchLambda to 0.5499999999999999
Info: NONBONDED TABLE R-SQUARED SPACING: 0.0625
Info: NONBONDED TABLE SIZE: 705 POINTS
TCL: Setting parameter alchLambda2 to 0.6
Info: NONBONDED TABLE R-SQUARED SPACING: 0.0625
Info: NONBONDED TABLE SIZE: 705 POINTS
TCL: Running for 1500000 steps
ETITLE: TS BOND ANGLE DIHED IMPRP ELECT VDW BOUNDARY MISC KINETIC TOTAL TEMP POTENTIAL TOTALAVG TEMPAVG PRESSURE GPRESSURE VOLUME PRESSAVG GPRESSAVG
ENERGY: 0 2.5482 5.4492 2.9314 0.0000 -10717.5573 1414.2761 0.0000 0.0000 1783.6936 -7508.6588 300.1490 -9292.3524 -7508.6588 300.1490 57.2445 128.9510 30713.6050 57.2445 128.9510
ENERGY: 300000 1.7342 8.7953 3.6275 0.0000 -10614.3709 1302.5350 0.0000 0.0000 1773.2623 -7524.4166 298.3936 -9297.6790 -7518.6588 301.1769 -1145.1034 -1060.2908 31059.2295 -296.7534 -225.7711
ENERGY: 600000 1.6265 5.7711 1.8844 0.0000 -10728.5257 1426.7862 0.0000 0.0000 1716.8705 -7575.5871 288.9044 -9292.4575 -7545.2650 299.5963 81.2435 113.9450 30697.5366 -104.5706 -50.8079
ENERGY: 900000 3.0066 6.3742 1.1773 0.0000 -10823.5495 1445.4398 0.0000 0.0000 1820.4637 -7547.0878 306.3364 -9367.5515 -7550.8505 299.5386 -183.0911 -95.7784 30697.8006 -54.7552 -5.6264
ENERGY: 1200000 1.2425 5.6932 3.3820 0.0000 -10953.7965 1530.8997 0.0000 0.0000 1861.8631 -7550.7159 313.3028 -9412.5790 -7558.8772 299.7243 458.8489 565.1717 30657.2380 -16.5278 35.2791
ENERGY: 1500000 0.9515 11.0107 2.5741 0.0000 -10666.9049 1345.4411 0.0000 0.0000 1793.5987 -7513.3289 301.8157 -9306.9276 -7560.8574 299.3991 -759.6874 -740.4101 30924.0782 -46.7244 3.7027
TCL: Running FEP window  13: Lambda1 0.6    Lambda2 0.65   [dLambda 0.050000000000000044]
TCL: Setting parameter firsttimestep to 0
TCL: Setting parameter alchLambda to 0.6
Info: NONBONDED TABLE R-SQUARED SPACING: 0.0625
Info: NONBONDED TABLE SIZE: 705 POINTS
TCL: Setting parameter alchLambda2 to 0.65
Info: NONBONDED TABLE R-SQUARED SPACING: 0.0625
Info: NONBONDED TABLE SIZE: 705 POINTS
TCL: Running for 1500000 steps
ETITLE: TS BOND ANGLE DIHED IMPRP ELECT VDW BOUNDARY MISC KINETIC TOTAL TEMP POTENTIAL TOTALAVG TEMPAVG PRESSURE GPRESSURE VOLUME PRESSAVG GPRESSAVG
ENERGY: 0 0.9515 11.0107 2.5741 0.0000 -10666.9110 1346.1143 0.0000 0.0000 1792.7471 -7513.5134 301.6724 -9306.2605 -7513.5134 301.6724 -795.2308 -723.7638 30924.0782 -795.2308 -723.7638
ENERGY: 300000 0.9085 12.4233 1.8943 0.0000 -10860.7954 1467.4624 0.0000 0.0000 1857.0768 -7521.0300 312.4974 -9378.1068 -7545.6572 303.8144 208.4533 256.8335 30581.8487 -222.8942 -160.1415
ENERGY: 600000 2.0328 8.0790 2.7160 0.0000 -10930.5863 1544.6093 0.0000 0.0000 1819.0079 -7554.1413 306.0914 -9373.1492 -7570.7654 303.7471 485.4539 567.5383 31010.6993 64.2709 137.2148
ENERGY: 900000 0.3457 4.8215 3.1503 0.0000 -10796.4528 1398.8478 0.0000 0.0000 1851.4255 -7537.8620 311.5465 -9389.2876 -7576.5440 303.7950 -255.3179 -179.4956 30722.5656 -99.6410 -28.3276
ENERGY: 1200000 1.8575 6.4099 3.2414 0.0000 -10847.2273 1443.9731 0.0000 0.0000 1774.4674 -7617.2780 298.5964 -9391.7454 -7593.8350 302.4461 -266.5867 -220.4103 30714.1094 -147.8199 -81.0718
ENERGY: 1500000 2.7578 10.0417 2.8279 0.0000 -10693.1021 1396.8781 0.0000 0.0000 1789.0467 -7491.5499 301.0497 -9280.5966 -7582.3777 301.9226 -127.5457 -52.7181 30499.2156 -163.8913 -88.8183
TCL: Running FEP window  14: Lambda1 0.65   Lambda2 0.7000000000000001 [dLambda 0.050000000000000044]
TCL: Setting parameter firsttimestep to 0
TCL: Setting parameter alchLambda to 0.65
Info: NONBONDED TABLE R-SQUARED SPACING: 0.0625
Info: NONBONDED TABLE SIZE: 705 POINTS
TCL: Setting parameter alchLambda2 to 0.7000000000000001
Info: NONBONDED TABLE R-SQUARED SPACING: 0.0625
Info: NONBONDED TABLE SIZE: 705 POINTS
TCL: Running for 1500000 steps
ETITLE: TS BOND ANGLE DIHED IMPRP ELECT VDW BOUNDARY MISC KINETIC TOTAL TEMP POTENTIAL TOTALAVG TEMPAVG PRESSURE GPRESSURE VOLUME PRESSAVG GPRESSAVG
ENERGY: 0 2.7578 10.0417 2.8279 0.0000 -10693.3416 1396.3921 0.0000 0.0000 1788.1555 -7493.1667 300.8998 -9281.3222 -7493.1667 300.8998 -126.5026 -51.9441 30499.2156 -126.5026 -51.9441
ENERGY: 300000 1.9150 6.1935 3.4166 0.0000 -10748.2251 1404.7620 0.0000 0.0000 1787.6629 -7544.2752 300.8169 -9331.9381 -7543.3311 300.2991 -425.3891 -336.3831 30820.5330 25.7114 92.1717
ENERGY: 600000 3.8092 3.5658 3.2687 0.0000 -10751.2763 1435.6081 0.0000 0.0000 1773.3968 -7531.6277 298.4163 -9305.0246 -7550.6188 300.5224 -115.4656 -74.9670 31082.3255 107.1838 178.8751
ENERGY: 900000 3.1158 5.4921 3.9679 0.0000 -10761.9143 1404.3879 0.0000 0.0000 1759.9340 -7585.0167 296.1508 -9344.9506 -7554.3185 301.3061 -684.6381 -669.0977 31243.2548 36.9626 104.7507
ENERGY: 1200000 2.5846 5.9793 1.8546 0.0000 -11031.3401 1473.2061 0.0000 0.0000 1792.2227 -7755.4929 301.5842 -9547.7156 -7564.3907 301.7453 -726.4665 -594.4996 30823.5881 -109.5975 -33.5913
ENERGY: 1500000 3.2813 5.5075 2.4110 0.0000 -10912.0087 1460.5425 0.0000 0.0000 1769.1245 -7671.1419 297.6974 -9440.2665 -7572.2228 301.8696 -483.6279 -373.8639 31074.1451 -116.1056 -38.2016
TCL: Running FEP window  15: Lambda1 0.7000000000000001 Lambda2 0.7500000000000001 [dLambda 0.050000000000000044]
TCL: Setting parameter firsttimestep to 0
TCL: Setting parameter alchLambda to 0.7000000000000001
Info: NONBONDED TABLE R-SQUARED SPACING: 0.0625
Info: NONBONDED TABLE SIZE: 705 POINTS
TCL: Setting parameter alchLambda2 to 0.7500000000000001
Info: NONBONDED TABLE R-SQUARED SPACING: 0.0625
Info: NONBONDED TABLE SIZE: 705 POINTS
TCL: Running for 1500000 steps
ETITLE: TS BOND ANGLE DIHED IMPRP ELECT VDW BOUNDARY MISC KINETIC TOTAL TEMP POTENTIAL TOTALAVG TEMPAVG PRESSURE GPRESSURE VOLUME PRESSAVG GPRESSAVG
ENERGY: 0 3.2813 5.5075 2.4110 0.0000 -10912.6307 1460.4747 0.0000 0.0000 1768.2432 -7672.7129 297.5491 -9440.9562 -7672.7129 297.5491 -451.8042 -369.7814 31074.1451 -451.8042 -369.7814
ENERGY: 300000 1.9454 4.2779 2.6768 0.0000 -10950.9565 1528.3171 0.0000 0.0000 1758.5162 -7655.2232 295.9123 -9413.7394 -7628.8012 293.9707 646.4413 721.1122 30409.4276 -167.0758 -110.6461
ENERGY: 600000 1.6491 9.1670 2.1149 0.0000 -10849.0126 1472.2170 0.0000 0.0000 1801.0059 -7562.8587 303.0622 -9363.8646 -7611.7439 297.4612 68.1657 73.3742 31003.6982 -187.4164 -137.1375
ENERGY: 900000 1.4141 6.2969 1.9424 0.0000 -10901.8331 1507.6984 0.0000 0.0000 1766.8636 -7617.6176 297.3169 -9384.4812 -7603.7516 298.2864 330.7965 423.9811 30596.5221 -123.5133 -71.1344
ENERGY: 1200000 1.0443 4.2297 2.3247 0.0000 -10815.2780 1387.5345 0.0000 0.0000 1713.0085 -7707.1363 288.2545 -9420.1448 -7605.7450 296.9586 -793.2064 -756.9053 31012.9196 -200.2707 -138.9095
ENERGY: 1500000 0.9689 5.8650 1.6285 0.0000 -10744.9299 1448.7131 0.0000 0.0000 1796.1826 -7491.5717 302.2505 -9287.7543 -7593.6612 298.0360 170.2502 239.3964 30713.8354 -121.7333 -61.6829
TCL: Running FEP window  16: Lambda1 0.7500000000000001 Lambda2 0.8000000000000002 [dLambda 0.050000000000000044]
TCL: Setting parameter firsttimestep to 0
TCL: Setting parameter alchLambda to 0.7500000000000001
Info: NONBONDED TABLE R-SQUARED SPACING: 0.0625
Info: NONBONDED TABLE SIZE: 705 POINTS
TCL: Setting parameter alchLambda2 to 0.8000000000000002
Info: NONBONDED TABLE R-SQUARED SPACING: 0.0625
Info: NONBONDED TABLE SIZE: 705 POINTS
TCL: Running for 1500000 steps
ETITLE: TS BOND ANGLE DIHED IMPRP ELECT VDW BOUNDARY MISC KINETIC TOTAL TEMP POTENTIAL TOTALAVG TEMPAVG PRESSURE GPRESSURE VOLUME PRESSAVG GPRESSAVG
ENERGY: 0 0.9689 5.8650 1.6285 0.0000 -10745.5791 1448.5080 0.0000 0.0000 1795.3273 -7493.2814 302.1066 -9288.6086 -7493.2814 302.1066 160.2303 241.4505 30713.8354 160.2303 241.4505
ENERGY: 300000 1.4843 10.0207 3.6648 0.0000 -10890.3215 1468.5207 0.0000 0.0000 1808.0304 -7598.6006 304.2442 -9406.6310 -7591.5880 298.6585 -22.7053 81.7312 30864.7787 80.4840 151.5575
ENERGY: 600000 0.2722 7.0405 1.5816 0.0000 -10879.0430 1468.3148 0.0000 0.0000 1800.4101 -7601.4237 302.9619 -9401.8338 -7591.4167 299.1710 63.3512 182.6434 30374.7833 -138.9422 -69.2616
ENERGY: 900000 0.8026 4.2677 2.6121 0.0000 -10744.2281 1431.4619 0.0000 0.0000 1761.8663 -7543.2175 296.4760 -9305.0838 -7569.4162 298.9733 -299.1930 -211.2279 31235.9890 -84.5550 -6.9370
ENERGY: 1200000 1.5983 8.2276 1.4753 0.0000 -10892.3344 1490.3072 0.0000 0.0000 1793.6286 -7597.0973 301.8208 -9390.7259 -7575.9903 298.4827 170.3034 223.1443 30562.2255 -73.8332 9.1922
ENERGY: 1500000 3.0851 6.7375 3.4880 0.0000 -10986.8782 1496.8951 0.0000 0.0000 1768.4079 -7708.2646 297.5768 -9476.6725 -7572.4693 299.1898 162.7630 221.0310 30354.1070 -12.2729 65.4499
TCL: Running FEP window  17: Lambda1 0.8000000000000002 Lambda2 0.8500000000000002 [dLambda 0.050000000000000044]
TCL: Setting parameter firsttimestep to 0
TCL: Setting parameter alchLambda to 0.8000000000000002
Info: NONBONDED TABLE R-SQUARED SPACING: 0.0625
Info: NONBONDED TABLE SIZE: 705 POINTS
TCL: Setting parameter alchLambda2 to 0.8500000000000002
Info: NONBONDED TABLE R-SQUARED SPACING: 0.0625
Info: NONBONDED TABLE SIZE: 705 POINTS
TCL: Running for 1500000 steps
ETITLE: TS BOND ANGLE DIHED IMPRP ELECT VDW BOUNDARY MISC KINETIC TOTAL TEMP POTENTIAL TOTALAVG TEMPAVG PRESSURE GPRESSURE VOLUME PRESSAVG GPRESSAVG
ENERGY: 0 3.0851 6.7375 3.4880 0.0000 -10987.6077 1496.5438 0.0000 0.0000 1767.5258 -7710.2275 297.4283 -9477.7533 -7710.2275 297.4283 137.2671 222.4156 30354.1070 137.2671 222.4156
ENERGY: 300000 0.4887 7.5315 1.4419 0.0000 -10789.0476 1444.9792 0.0000 0.0000 1831.2717 -7503.3346 308.1551 -9334.6064 -7599.7151 302.3962 129.4463 125.3271 30646.7471 -49.1438 -7.7111
ENERGY: 600000 4.6592 9.8291 3.4474 0.0000 -10793.3226 1429.0057 0.0000 0.0000 1739.9554 -7606.4258 292.7890 -9346.3812 -7592.7692 302.3241 -67.7220 -15.1320 30510.7889 42.0119 98.8082
ENERGY: 900000 1.5819 6.7888 2.7547 0.0000 -10894.4084 1555.5096 0.0000 0.0000 1784.9597 -7542.8137 300.3620 -9327.7733 -7579.1836 301.9771 964.9037 996.9715 30854.5835 151.5681 206.8525
ENERGY: 1200000 2.7175 10.6727 2.3810 0.0000 -10920.5923 1478.6451 0.0000 0.0000 1768.0401 -7658.1358 297.5149 -9426.1758 -7587.6362 300.5096 126.5529 194.5725 30524.3604 66.3674 126.2774
ENERGY: 1500000 1.1555 7.3347 1.9880 0.0000 -10997.3145 1549.2157 0.0000 0.0000 1767.6939 -7669.9267 297.4566 -9437.6206 -7585.1609 300.4606 788.0029 820.4287 30251.0293 84.1984 146.1283
TCL: Running FEP window  18: Lambda1 0.8500000000000002 Lambda2 0.9000000000000002 [dLambda 0.050000000000000044]
TCL: Setting parameter firsttimestep to 0
TCL: Setting parameter alchLambda to 0.8500000000000002
Info: NONBONDED TABLE R-SQUARED SPACING: 0.0625
Info: NONBONDED TABLE SIZE: 705 POINTS
TCL: Setting parameter alchLambda2 to 0.9000000000000002
Info: NONBONDED TABLE R-SQUARED SPACING: 0.0625
Info: NONBONDED TABLE SIZE: 705 POINTS
TCL: Running for 1500000 steps
ETITLE: TS BOND ANGLE DIHED IMPRP ELECT VDW BOUNDARY MISC KINETIC TOTAL TEMP POTENTIAL TOTALAVG TEMPAVG PRESSURE GPRESSURE VOLUME PRESSAVG GPRESSAVG
ENERGY: 0 1.1555 7.3347 1.9880 0.0000 -10998.9677 1550.1788 0.0000 0.0000 1766.8092 -7671.5015 297.3077 -9438.3107 -7671.5015 297.3077 744.5056 837.2731 30251.0293 744.5056 837.2731
ENERGY: 300000 1.6389 8.3427 2.3904 0.0000 -10914.4473 1514.0976 0.0000 0.0000 1791.5675 -7596.4103 301.4739 -9387.9778 -7617.7676 299.7871 686.7837 715.2598 30322.6349 323.2730 411.3880
ENERGY: 600000 0.8710 8.2210 5.8683 0.0000 -10865.5935 1453.8840 0.0000 0.0000 1819.1520 -7577.5972 306.1157 -9396.7493 -7598.8492 301.1272 -203.2532 -153.8382 30767.0469 146.4235 228.4356
ENERGY: 900000 1.7802 9.9271 1.4062 0.0000 -10791.0187 1455.9892 0.0000 0.0000 1777.8210 -7544.0952 299.1607 -9321.9161 -7581.1585 301.4986 246.6239 303.6848 30835.4952 176.7547 250.4125
ENERGY: 1200000 1.5533 6.1427 2.4341 0.0000 -10773.2366 1378.8971 0.0000 0.0000 1814.7993 -7569.4101 305.3832 -9384.2094 -7566.8087 302.4732 -699.8306 -622.1211 30891.4759 -38.8765 27.6088
ENERGY: 1500000 1.5798 12.0295 1.7283 0.0000 -10887.2772 1420.3082 0.0000 0.0000 1852.0772 -7599.5542 311.6561 -9451.6314 -7570.9469 302.6037 -299.0240 -239.5548 30383.5390 -20.1453 45.8853
TCL: Running FEP window  19: Lambda1 0.9000000000000002 Lambda2 0.9500000000000003 [dLambda 0.050000000000000044]
TCL: Setting parameter firsttimestep to 0
TCL: Setting parameter alchLambda to 0.9000000000000002
Info: NONBONDED TABLE R-SQUARED SPACING: 0.0625
Info: NONBONDED TABLE SIZE: 705 POINTS
TCL: Setting parameter alchLambda2 to 0.9500000000000003
Info: NONBONDED TABLE R-SQUARED SPACING: 0.0625
Info: NONBONDED TABLE SIZE: 705 POINTS
TCL: Running for 1500000 steps
ETITLE: TS BOND ANGLE DIHED IMPRP ELECT VDW BOUNDARY MISC KINETIC TOTAL TEMP POTENTIAL TOTALAVG TEMPAVG PRESSURE GPRESSURE VOLUME PRESSAVG GPRESSAVG
ENERGY: 0 1.5797 12.0295 1.7283 0.0000 -10888.0541 1420.3730 0.0000 0.0000 1851.2018 -7601.1417 311.5088 -9452.3435 -7601.1417 311.5088 -305.3322 -226.7985 30383.5390 -305.3322 -226.7985
ENERGY: 300000 1.7504 9.5373 2.7288 0.0000 -10916.3139 1506.2006 0.0000 0.0000 1786.8633 -7609.2335 300.6823 -9396.0968 -7620.8407 302.0159 718.3290 782.8964 29955.4525 22.6561 92.9039
ENERGY: 600000 0.8328 8.3982 1.3110 0.0000 -10890.1749 1541.4359 0.0000 0.0000 1784.6529 -7553.5442 300.3104 -9338.1970 -7614.9818 301.1919 733.7680 773.8102 30843.4323 161.1002 214.9849
ENERGY: 900000 1.7281 6.7530 2.8682 0.0000 -10919.4894 1517.6482 0.0000 0.0000 1789.4677 -7601.0242 301.1206 -9390.4919 -7599.3077 301.5503 646.8568 674.8214 30334.4771 152.0751 210.7188
ENERGY: 1200000 2.4279 6.0920 3.4750 0.0000 -10819.9350 1479.7733 0.0000 0.0000 1778.5310 -7549.6358 299.2802 -9328.1669 -7601.4567 300.0634 531.9704 537.3682 30427.9093 127.5953 178.5847
ENERGY: 1500000 0.7637 3.9745 3.5235 0.0000 -10875.4940 1433.9312 0.0000 0.0000 1804.8143 -7628.4869 303.7030 -9433.3012 -7590.9999 301.1028 -314.9888 -222.4419 30840.7622 29.0978 86.8305
TCL: Running FEP window  20: Lambda1 0.9500000000000003 Lambda2 1.0    [dLambda 0.04999999999999971]
TCL: Setting parameter firsttimestep to 0
TCL: Setting parameter alchLambda to 0.9500000000000003
Info: NONBONDED TABLE R-SQUARED SPACING: 0.0625
Info: NONBONDED TABLE SIZE: 705 POINTS
TCL: Setting parameter alchLambda2 to 1.0
Info: NONBONDED TABLE R-SQUARED SPACING: 0.0625
Info: NONBONDED TABLE SIZE: 705 POINTS
TCL: Running for 1500000 steps
ETITLE: TS BOND ANGLE DIHED IMPRP ELECT VDW BOUNDARY MISC KINETIC TOTAL TEMP POTENTIAL TOTALAVG TEMPAVG PRESSURE GPRESSURE VOLUME PRESSAVG GPRESSAVG
ENERGY: 0 0.7637 3.9745 3.5235 0.0000 -10876.4462 1433.3188 0.0000 0.0000 1803.9432 -7630.9225 303.5564 -9434.8657 -7630.9225 303.5564 -309.9795 -219.4856 30840.7622 -309.9795 -219.4856
ENERGY: 300000 0.4892 7.8312 4.4695 0.0000 -10959.9813 1519.5898 0.0000 0.0000 1838.1741 -7589.4274 309.3166 -9427.6016 -7576.2808 301.2465 559.5384 639.1668 30510.7113 -153.2850 -99.7316
ENERGY: 600000 0.9108 4.7707 2.5925 0.0000 -10749.7496 1472.6204 0.0000 0.0000 1779.2520 -7489.6031 299.4016 -9268.8552 -7590.2604 298.2032 242.2575 369.5406 31031.6124 28.7350 96.3736
ENERGY: 900000 0.5539 2.7297 3.4020 0.0000 -10686.1045 1408.1659 0.0000 0.0000 1770.8359 -7500.4171 297.9853 -9271.2531 -7575.2961 297.6081 -267.7923 -162.1554 31295.7916 -125.7909 -60.0730
ENERGY: 1200000 3.5029 6.7381 2.6879 0.0000 -10977.3932 1571.7903 0.0000 0.0000 1724.1872 -7668.4868 290.1356 -9392.6739 -7590.3503 297.0398 802.9144 858.0127 30645.2085 0.8321 59.7288
ENERGY: 1500000 1.4822 7.1008 1.8843 0.0000 -11033.4022 1589.1842 0.0000 0.0000 1762.9475 -7670.8032 296.6579 -9433.7507 -7604.3302 296.0512 811.7916 830.9698 31061.9600 75.6076 124.8968
TCL: Exiting due to exit command.
