Info: SIMULATION PARAMETERS:
Info: TIMESTEP               2
Info: NUMBER OF STEPS        0
Info: STEPS PER CYCLE        10
Info: PERIODIC CELL BASIS 1  32.3697 0 0
Info: PERIODIC CELL BASIS 2  0 30.1653 0
Info: PERIODIC CELL BASIS 3  0 0 31.601
Info: PERIODIC CELL CENTER   0 0 0
Info: WRAPPING WATERS AROUND PERIODIC BOUNDARIES ON OUTPUT.
Info: WRAPPING ALL CLUSTERS AROUND PERIODIC BOUNDARIES ON OUTPUT.
Info: FIRST LDB TIMESTEP     50
Info: LAST LDB TIMESTEP     -1
Info: HOM BACKGROUND SCALING 1
Info: PME BACKGROUND SCALING 1
Info: MIN ATOMS PER PATCH    40
Info: EMPTY PATCH LOAD       40 ATOMS
Info: VELOCITY FILE          mobley_7688753_equil.vel
Info: CENTER OF MASS MOVING INITIALLY? NO
Info: DIELECTRIC             1
Info: EXCLUDE                SCALED ONE-FOUR
Info: 1-4 ELECTROSTATICS SCALED BY 0.833333
Info: MODIFIED 1-4 VDW PARAMETERS WILL BE USED
Info: DCD FILENAME           mobley_7688753_prod.dcd
Info: DCD FREQUENCY          100000
Info: DCD FIRST STEP         100000
Info: DCD FILE WILL CONTAIN UNIT CELL DATA
Info: XST FILENAME           mobley_7688753_prod.xst
Info: XST FREQUENCY          100000
Info: NO VELOCITY DCD OUTPUT
Info: NO FORCE DCD OUTPUT
Info: OUTPUT FILENAME        mobley_7688753_prod
Info: BINARY OUTPUT FILES WILL BE USED
Info: RESTART FILENAME       mobley_7688753_prod.restart
Info: RESTART FREQUENCY      100000
Info: BINARY RESTART FILES WILL BE USED
Info: CUTOFF                 9
Info: PAIRLIST DISTANCE      11
Info: PAIRLIST SHRINK RATE   0.01
Info: PAIRLIST GROW RATE     0.01
Info: PAIRLIST TRIGGER       0.3
Info: PAIRLISTS PER CYCLE    2
Info: PAIRLISTS ENABLED
Info: MARGIN                 2
Info: HYDROGEN GROUP CUTOFF  2.5
Info: PATCH DIMENSION        15.5
Info: ENERGY OUTPUT STEPS    100000
Info: ENERGY EVALUATION STEPS    100000
Info: OUTPUT ENERGY PRECISION 4
Info: CROSSTERM ENERGY INCLUDED IN DIHEDRAL
Info: TIMING OUTPUT STEPS    1000000
Info: PRESSURE OUTPUT STEPS  100000
Info: ALCHEMICAL FEP ON
Info: FEP CURRENT LAMBDA VALUE     1
Info: FEP COMPARISON LAMBDA VALUE  0.95
Info: FEP INTRA-ALCHEMICAL NON-BONDED INTERACTIONS WILL BE RETAINED
Info: FEP INTRA-ALCHEMICAL BONDED INTERACTIONS WILL BE RETAINED
Info: FEP VDW SHIFTING COEFFICIENT 5
Info: FEP ELEC. ACTIVE FOR ANNIHILATED PARTICLES BETWEEN LAMBDA = 0 AND LAMBDA = 0.5
Info: FEP ELEC. ACTIVE FOR EXNIHILATED PARTICLES BETWEEN LAMBDA = 0.5 AND LAMBDA = 1
Info: FEP VDW ACTIVE FOR ANNIHILATED PARTICLES BETWEEN LAMBDA = 0 AND LAMBDA = 1
Info: FEP VDW ACTIVE FOR EXNIHILATED PARTICLES BETWEEN LAMBDA = 0 AND LAMBDA = 1
Info: FEP BOND ACTIVE FOR ANNIHILATED PARTICLES BETWEEN LAMBDA = 1 AND LAMBDA = 1
Info: FEP BOND ACTIVE FOR EXNIHILATED PARTICLES BETWEEN LAMBDA = 0 AND LAMBDA = 0
Info: LANGEVIN DYNAMICS ACTIVE
Info: LANGEVIN TEMPERATURE   300
Info: LANGEVIN USING BBK INTEGRATOR
Info: LANGEVIN DAMPING COEFFICIENT IS 1 INVERSE PS
Info: LANGEVIN DYNAMICS APPLIED TO HYDROGENS
Info: LANGEVIN PISTON PRESSURE CONTROL ACTIVE
Info:        TARGET PRESSURE IS 1.01325 BAR
Info:     OSCILLATION PERIOD IS 50 FS
Info:             DECAY TIME IS 25 FS
Info:     PISTON TEMPERATURE IS 300 K
Info:       PRESSURE CONTROL IS GROUP-BASED
Info:    INITIAL STRAIN RATE IS 0.000683223 0.000683223 0.000683223
Info:       CELL FLUCTUATION IS ISOTROPIC
Info: PARTICLE MESH EWALD (PME) ACTIVE
Info: PME TOLERANCE               1e-06
Info: PME EWALD COEFFICIENT       0.348832
Info: PME INTERPOLATION ORDER     4
Info: PME GRID DIMENSIONS         36 32 32
Info: PME MAXIMUM GRID SPACING    1
Info: PME CALCULATION WILL BE PERFORMED ON GPU
Info: FULL ELECTROSTATIC EVALUATION FREQUENCY      2
Info: USING VERLET I (r-RESPA) MTS SCHEME.
Info: C1 SPLITTING OF LONG RANGE ELECTROSTATICS
Info: PLACING ATOMS IN PATCHES BY HYDROGEN GROUPS
Info: RIGID BONDS TO HYDROGEN : ALL
Info:         ERROR TOLERANCE : 1e-08
Info:          MAX ITERATIONS : 100
Info: RIGID WATER USING SETTLE ALGORITHM
Info: RANDOM NUMBER SEED     1743751786
Info: USE HYDROGEN BONDS?    NO
Info: Using AMBER format force field!
Info: AMBER PARM FILE        mobley_7688753.prmtop
Info: COORDINATE PDB         mobley_7688753.pdb
Info: Exclusions will be read from PARM file!
Info: SCNB (VDW SCALING)     2
Info: USING ARITHMETIC MEAN TO COMBINE L-J SIGMA PARAMETERS
Info: BINARY COORDINATES     mobley_7688753_equil.coor
Info: SUMMARY OF PARAMETERS:
Info: 9 BONDS
Info: 8 ANGLES
Info:   8 HARMONIC
Info:   0 COSINE-BASED
Info: 5 DIHEDRAL
Info: 0 IMPROPER
Info: 0 CROSSTERM
Info: 0 VDW
Info: 28 VDW_PAIRS
Info: 0 NBTHOLE_PAIRS
Info: To read alchdata from file: mobley_7688753.pdb
Info: To read alchflag data from column: 5
Info: STRUCTURE SUMMARY:
Info: 2952 ATOMS
Info: 2952 BONDS
Info: 22 ANGLES
Info: 37 DIHEDRALS
Info: 0 IMPROPERS
Info: 0 CROSSTERMS
Info: 3001 EXCLUSIONS
Info: 2943 RIGID BONDS
Info: ALCH: 0 ATOMS TO DISAPPEAR IN FINAL STATE
Info: ALCH: 15 ATOMS TO APPEAR IN FINAL STATE
Info: 5913 DEGREES OF FREEDOM
Info: 988 HYDROGEN GROUPS
Info: 3 ATOMS IN LARGEST HYDROGEN GROUP
Info: 988 MIGRATION GROUPS
Info: 3 ATOMS IN LARGEST MIGRATION GROUP
Info: TOTAL MASS = 17759.8 amu
Info: TOTAL CHARGE = 3.79514e-08 e
Info: MASS DENSITY = 0.95576 g/cm^3
Info: ATOM DENSITY = 0.0956684 atoms/A^3
Info: ADDED 0 IMPLICIT EXCLUSIONS
Info: NONBONDED TABLE R-SQUARED SPACING: 0.0625
Info: NONBONDED TABLE SIZE: 705 POINTS
Info: REMOVING COM VELOCITY -0.127316 -0.0271344 -0.140463
Info: Use 3D box decompostion in PME FFT.
Info: Updated CUDA force table with 4096 elements.
Info: Updated CUDA LJ table with 7 x 7 elements.
Info: Found 18 unique exclusion lists needing 40 bytes
TCL: Running for 1500000 steps
ETITLE: TS BOND ANGLE DIHED IMPRP ELECT VDW BOUNDARY MISC KINETIC TOTAL TEMP POTENTIAL TOTALAVG TEMPAVG PRESSURE GPRESSURE VOLUME PRESSAVG GPRESSAVG
ENERGY: 0 2.2821 3.2877 4.2879 0.0000 -10546.9132 1349.0541 0.0000 0.0000 1762.4144 -7425.5870 299.9788 -9188.0014 -7425.5870 299.9788 -747.9218 -664.7641 30856.5823 -747.9218 -664.7641
ENERGY: 300000 1.2456 8.3237 7.3823 0.0000 -10568.1504 1341.3538 0.0000 0.0000 1805.3979 -7404.4470 307.2950 -9209.8450 -7471.7226 297.2784 -611.7552 -542.9831 30627.3971 -73.5983 -6.2300
ENERGY: 600000 4.7094 3.4674 4.7493 0.0000 -10617.4769 1389.0936 0.0000 0.0000 1797.1850 -7418.2721 305.8971 -9215.4572 -7467.5122 302.1128 -502.3904 -387.6609 30526.4957 10.0089 75.7228
ENERGY: 900000 5.1407 3.6320 4.2465 0.0000 -10652.4328 1356.4168 0.0000 0.0000 1769.5058 -7513.4909 301.1858 -9282.9967 -7462.6390 302.5117 -585.8391 -567.0078 30554.1075 -114.9468 -55.3663
ENERGY: 1200000 2.9547 3.7365 2.7936 0.0000 -10501.9912 1270.3732 0.0000 0.0000 1721.4434 -7500.6898 293.0051 -9222.1332 -7470.7436 301.3083 -1322.3087 -1253.9085 30583.6815 -293.9974 -232.8190
ENERGY: 1500000 3.2892 4.9540 3.1315 0.0000 -10647.2422 1419.4899 0.0000 0.0000 1679.5309 -7536.8467 285.8713 -9216.3777 -7477.1366 300.2705 -206.3505 -154.9681 30592.7554 -209.3545 -148.6675
TCL: Running FEP window   2: Lambda1 0.95   Lambda2 0.8999999999999999 [dLambda -0.050000000000000044]
TCL: Setting parameter firsttimestep to 0
TCL: Setting parameter alchLambda to 0.95
Info: NONBONDED TABLE R-SQUARED SPACING: 0.0625
Info: NONBONDED TABLE SIZE: 705 POINTS
TCL: Setting parameter alchLambda2 to 0.8999999999999999
Info: NONBONDED TABLE R-SQUARED SPACING: 0.0625
Info: NONBONDED TABLE SIZE: 705 POINTS
TCL: Running for 1500000 steps
ETITLE: TS BOND ANGLE DIHED IMPRP ELECT VDW BOUNDARY MISC KINETIC TOTAL TEMP POTENTIAL TOTALAVG TEMPAVG PRESSURE GPRESSURE VOLUME PRESSAVG GPRESSAVG
ENERGY: 0 3.2892 4.9540 3.1315 0.0000 -10644.9014 1418.7201 0.0000 0.0000 1678.6523 -7536.1544 285.7217 -9214.8067 -7536.1544 285.7217 -243.0279 -171.5167 30592.7554 -243.0279 -171.5167
ENERGY: 300000 1.5676 2.1951 4.9203 0.0000 -10755.0051 1484.7554 0.0000 0.0000 1741.7271 -7519.8396 296.4576 -9261.5667 -7509.3250 298.6993 545.3586 577.6833 30090.8296 17.1106 74.3942
ENERGY: 600000 3.3303 3.1559 1.6614 0.0000 -10812.5656 1471.0731 0.0000 0.0000 1792.1589 -7541.1861 305.0416 -9333.3449 -7519.9381 300.0708 188.6802 237.4293 30416.4781 4.1178 60.8933
ENERGY: 900000 1.7955 2.9077 3.4671 0.0000 -10792.2722 1471.2487 0.0000 0.0000 1797.5695 -7515.2837 305.9625 -9312.8531 -7510.5268 300.9724 190.3063 150.7786 30354.0284 27.1536 79.3868
ENERGY: 1200000 5.4267 2.2926 5.2517 0.0000 -10783.5251 1467.5417 0.0000 0.0000 1798.1952 -7504.8172 306.0690 -9303.0125 -7509.3651 300.5699 30.9121 98.4741 30121.1703 25.4119 81.9450
ENERGY: 1500000 1.6558 5.7870 5.2173 0.0000 -10762.6735 1516.7423 0.0000 0.0000 1800.3387 -7432.9324 306.4338 -9233.2711 -7500.0432 301.0105 763.6022 817.6621 30386.9006 61.8640 124.6687
TCL: Running FEP window   3: Lambda1 0.8999999999999999 Lambda2 0.8499999999999999 [dLambda -0.050000000000000044]
TCL: Setting parameter firsttimestep to 0
TCL: Setting parameter alchLambda to 0.8999999999999999
Info: NONBONDED TABLE R-SQUARED SPACING: 0.0625
Info: NONBONDED TABLE SIZE: 705 POINTS
TCL: Setting parameter alchLambda2 to 0.8499999999999999
Info: NONBONDED TABLE R-SQUARED SPACING: 0.0625
Info: NONBONDED TABLE SIZE: 705 POINTS
TCL: Running for 1500000 steps
ETITLE: TS BOND ANGLE DIHED IMPRP ELECT VDW BOUNDARY MISC KINETIC TOTAL TEMP POTENTIAL TOTALAVG TEMPAVG PRESSURE GPRESSURE VOLUME PRESSAVG GPRESSAVG
ENERGY: 0 1.6558 5.7870 5.2173 0.0000 -10759.8408 1516.5115 0.0000 0.0000 1799.4515 -7431.2177 306.2828 -9230.6692 -7431.2177 306.2828 715.8894 811.0308 30386.9006 715.8894 811.0308
ENERGY: 300000 1.3577 1.9775 4.4792 0.0000 -10691.8177 1469.4523 0.0000 0.0000 1739.2450 -7475.3060 296.0351 -9214.5510 -7482.6456 300.3082 313.1398 343.6212 30511.9489 227.8981 298.3438
ENERGY: 600000 3.4846 3.1026 4.6155 0.0000 -10838.4628 1498.9908 0.0000 0.0000 1712.0394 -7616.2300 291.4045 -9328.2694 -7518.4618 300.0473 -181.7755 -102.9102 30713.2989 -30.2652 38.9656
ENERGY: 900000 3.1938 7.4076 2.8831 0.0000 -10791.3382 1443.0273 0.0000 0.0000 1778.7182 -7556.1083 302.7538 -9334.8264 -7528.6975 300.5058 -143.8731 -126.4515 30599.1750 -63.1033 -4.3695
ENERGY: 1200000 2.8143 5.0535 1.1269 0.0000 -10786.3328 1472.9574 0.0000 0.0000 1744.1948 -7560.1858 296.8776 -9304.3806 -7528.4336 299.8857 202.4959 256.6450 30313.3407 33.7052 91.7389
ENERGY: 1500000 2.3997 2.2453 8.4217 0.0000 -10869.0063 1491.5635 0.0000 0.0000 1794.8512 -7569.5249 305.4998 -9364.3761 -7522.6578 300.0245 330.3434 349.5216 30083.9929 81.1247 140.5208
TCL: Running FEP window   4: Lambda1 0.8499999999999999 Lambda2 0.7999999999999998 [dLambda -0.050000000000000044]
TCL: Setting parameter firsttimestep to 0
TCL: Setting parameter alchLambda to 0.8499999999999999
Info: NONBONDED TABLE R-SQUARED SPACING: 0.0625
Info: NONBONDED TABLE SIZE: 705 POINTS
TCL: Setting parameter alchLambda2 to 0.7999999999999998
Info: NONBONDED TABLE R-SQUARED SPACING: 0.0625
Info: NONBONDED TABLE SIZE: 705 POINTS
TCL: Running for 1500000 steps
ETITLE: TS BOND ANGLE DIHED IMPRP ELECT VDW BOUNDARY MISC KINETIC TOTAL TEMP POTENTIAL TOTALAVG TEMPAVG PRESSURE GPRESSURE VOLUME PRESSAVG GPRESSAVG
ENERGY: 0 2.3997 2.2453 8.4217 0.0000 -10866.6385 1491.5015 0.0000 0.0000 1793.9782 -7568.0921 305.3512 -9362.0703 -7568.0921 305.3512 259.8529 345.9655 30083.9929 259.8529 345.9655
ENERGY: 300000 1.5825 1.6631 4.4913 0.0000 -10720.2910 1404.1709 0.0000 0.0000 1808.8844 -7499.4987 307.8884 -9308.3831 -7544.5275 305.4177 -138.2815 -133.2867 29834.1396 102.9387 155.4533
ENERGY: 600000 1.1408 5.2075 1.2246 0.0000 -10581.2373 1395.9372 0.0000 0.0000 1793.4390 -7384.2882 305.2594 -9177.7272 -7496.8688 305.7478 18.4726 128.2707 30257.9036 248.9000 310.9750
ENERGY: 900000 2.1798 2.0115 3.0629 0.0000 -10675.8270 1433.2754 0.0000 0.0000 1743.9008 -7491.3965 296.8276 -9235.2973 -7496.0386 303.7259 206.7982 212.5357 30293.9260 142.1583 193.1561
ENERGY: 1200000 0.4475 2.5558 5.5758 0.0000 -10652.1119 1381.0452 0.0000 0.0000 1797.7447 -7464.7430 305.9923 -9262.4876 -7494.5556 303.2247 -490.0691 -414.5965 30625.0731 113.2951 164.5827
ENERGY: 1500000 3.8231 2.8902 2.0062 0.0000 -10727.4752 1520.5168 0.0000 0.0000 1773.5066 -7424.7323 301.8668 -9198.2389 -7484.6964 303.1846 1243.0370 1187.2577 29767.9399 128.1035 170.5322
TCL: Running FEP window   5: Lambda1 0.7999999999999998 Lambda2 0.7499999999999998 [dLambda -0.050000000000000044]
TCL: Setting parameter firsttimestep to 0
TCL: Setting parameter alchLambda to 0.7999999999999998
Info: NONBONDED TABLE R-SQUARED SPACING: 0.0625
Info: NONBONDED TABLE SIZE: 705 POINTS
TCL: Setting parameter alchLambda2 to 0.7499999999999998
Info: NONBONDED TABLE R-SQUARED SPACING: 0.0625
Info: NONBONDED TABLE SIZE: 705 POINTS
TCL: Running for 1500000 steps
ETITLE: TS BOND ANGLE DIHED IMPRP ELECT VDW BOUNDARY MISC KINETIC TOTAL TEMP POTENTIAL TOTALAVG TEMPAVG PRESSURE GPRESSURE VOLUME PRESSAVG GPRESSAVG
ENERGY: 0 3.8231 2.8902 2.0062 0.0000 -10725.1216 1518.7572 0.0000 0.0000 1772.6390 -7425.0059 301.7191 -9197.6449 -7425.0059 301.7191 1081.2598 1159.0923 29767.9399 1081.2598 1159.0923
ENERGY: 300000 2.2492 3.5917 2.6337 0.0000 -10774.6498 1479.3156 0.0000 0.0000 1825.5869 -7461.2726 310.7313 -9286.8595 -7467.6227 303.3068 346.9991 388.9871 30287.4186 347.4550 437.1785
ENERGY: 600000 1.4232 2.4237 4.0094 0.0000 -10721.2845 1432.7608 0.0000 0.0000 1735.2903 -7545.3771 295.3620 -9280.6674 -7493.3203 300.6449 -196.3530 -124.3625 30564.6108 205.8223 285.0971
ENERGY: 900000 4.1891 3.8278 4.8675 0.0000 -10745.9822 1443.0561 0.0000 0.0000 1748.1722 -7541.8696 297.5546 -9290.0419 -7498.9085 301.0952 -55.1682 -40.7534 30427.4628 197.3420 263.8781
ENERGY: 1200000 2.3324 4.1651 2.7650 0.0000 -10767.5018 1495.5451 0.0000 0.0000 1795.7897 -7466.9045 305.6596 -9262.6942 -7488.8584 301.3697 584.5003 624.4620 29975.7916 160.9324 220.6981
ENERGY: 1500000 2.2563 2.7583 2.9765 0.0000 -10710.6340 1433.1200 0.0000 0.0000 1829.9023 -7439.6206 311.4658 -9269.5229 -7489.5852 301.9093 94.8805 143.4203 30522.4051 191.1159 254.4889
TCL: Running FEP window   6: Lambda1 0.7499999999999998 Lambda2 0.6999999999999997 [dLambda -0.050000000000000044]
TCL: Setting parameter firsttimestep to 0
TCL: Setting parameter alchLambda to 0.7499999999999998
Info: NONBONDED TABLE R-SQUARED SPACING: 0.0625
Info: NONBONDED TABLE SIZE: 705 POINTS
TCL: Setting parameter alchLambda2 to 0.6999999999999997
Info: NONBONDED TABLE R-SQUARED SPACING: 0.0625
Info: NONBONDED TABLE SIZE: 705 POINTS
TCL: Running for 1500000 steps
ETITLE: TS BOND ANGLE DIHED IMPRP ELECT VDW BOUNDARY MISC KINETIC TOTAL TEMP POTENTIAL TOTALAVG TEMPAVG PRESSURE GPRESSURE VOLUME PRESSAVG GPRESSAVG
ENERGY: 0 2.2563 2.7583 2.9765 0.0000 -10707.8850 1431.8797 0.0000 0.0000 1829.0083 -7439.0059 311.3137 -9268.0142 -7439.0059 311.3137 37.1922 125.2076 30522.4051 37.1922 125.2076
ENERGY: 300000 3.7432 6.4413 3.8668 0.0000 -10591.6932 1330.9880 0.0000 0.0000 1734.6313 -7512.0226 295.2499 -9246.6540 -7495.9443 303.5625 -706.7290 -579.6062 30347.8740 -340.8019 -253.5516
ENERGY: 600000 1.7177 3.6228 3.6924 0.0000 -10705.0227 1439.6775 0.0000 0.0000 1715.7504 -7540.5619 292.0361 -9256.3123 -7519.2113 300.3012 -306.9483 -246.6562 31272.9185 -265.1622 -197.1917
ENERGY: 900000 1.5114 2.5624 5.0328 0.0000 -10689.8783 1446.6779 0.0000 0.0000 1738.1426 -7495.9512 295.8475 -9234.0938 -7514.6407 299.9283 45.1538 139.4443 30726.8422 -63.6674 12.6858
ENERGY: 1200000 3.5298 2.7939 5.0396 0.0000 -10719.1198 1449.1818 0.0000 0.0000 1793.2113 -7465.3635 305.2207 -9258.5748 -7508.3220 300.0808 149.8389 218.9583 30410.8695 -78.0174 -4.5395
ENERGY: 1500000 3.8345 1.8953 2.8063 0.0000 -10820.5785 1522.1976 0.0000 0.0000 1798.9309 -7490.9139 306.1942 -9289.8448 -7506.7534 300.2061 618.1148 672.9122 30565.4501 -16.7850 52.8211
TCL: Running FEP window   7: Lambda1 0.6999999999999997 Lambda2 0.6499999999999997 [dLambda -0.050000000000000044]
TCL: Setting parameter firsttimestep to 0
TCL: Setting parameter alchLambda to 0.6999999999999997
Info: NONBONDED TABLE R-SQUARED SPACING: 0.0625
Info: NONBONDED TABLE SIZE: 705 POINTS
TCL: Setting parameter alchLambda2 to 0.6499999999999997
Info: NONBONDED TABLE R-SQUARED SPACING: 0.0625
Info: NONBONDED TABLE SIZE: 705 POINTS
TCL: Running for 1500000 steps
ETITLE: TS BOND ANGLE DIHED IMPRP ELECT VDW BOUNDARY MISC KINETIC TOTAL TEMP POTENTIAL TOTALAVG TEMPAVG PRESSURE GPRESSURE VOLUME PRESSAVG GPRESSAVG
ENERGY: 0 3.8345 1.8953 2.8063 0.0000 -10818.9410 1522.2938 0.0000 0.0000 1798.0618 -7490.0494 306.0463 -9288.1112 -7490.0494 306.0463 586.1485 666.5627 30565.4501 586.1485 666.5627
ENERGY: 300000 4.0863 5.7828 5.7695 0.0000 -10707.1167 1477.6748 0.0000 0.0000 1766.0171 -7447.7862 300.5920 -9213.8033 -7460.2274 303.0522 545.6150 555.6174 30273.4597 179.7986 242.1819
ENERGY: 600000 2.5045 4.4596 1.9440 0.0000 -10872.1338 1577.1968 0.0000 0.0000 1782.5346 -7503.4942 303.4034 -9286.0289 -7472.4189 301.0460 1127.0568 1138.8393 30187.4088 341.4314 392.6985
ENERGY: 900000 3.0778 3.9982 2.9608 0.0000 -10706.9908 1463.2888 0.0000 0.0000 1787.5022 -7446.1630 304.2489 -9233.6652 -7474.6374 301.4568 10.2588 157.1082 30796.8764 169.0406 225.9321
ENERGY: 1200000 4.4950 4.3758 2.8681 0.0000 -10583.0305 1406.4181 0.0000 0.0000 1757.7223 -7407.1513 299.1801 -9164.8735 -7467.3332 300.9056 112.1819 177.3235 30209.9976 117.2733 175.3863
ENERGY: 1500000 4.9757 4.4186 3.4366 0.0000 -10782.9907 1536.4622 0.0000 0.0000 1704.4037 -7529.2939 290.1048 -9233.6976 -7472.6062 300.5591 658.4744 677.6324 30447.2413 111.5893 165.5782
TCL: Running FEP window   8: Lambda1 0.6499999999999997 Lambda2 0.5999999999999996 [dLambda -0.050000000000000044]
TCL: Setting parameter firsttimestep to 0
TCL: Setting parameter alchLambda to 0.6499999999999997
Info: NONBONDED TABLE R-SQUARED SPACING: 0.0625
Info: NONBONDED TABLE SIZE: 705 POINTS
TCL: Setting parameter alchLambda2 to 0.5999999999999996
Info: NONBONDED TABLE R-SQUARED SPACING: 0.0625
Info: NONBONDED TABLE SIZE: 705 POINTS
TCL: Running for 1500000 steps
ETITLE: TS BOND ANGLE DIHED IMPRP ELECT VDW BOUNDARY MISC KINETIC TOTAL TEMP POTENTIAL TOTALAVG TEMPAVG PRESSURE GPRESSURE VOLUME PRESSAVG GPRESSAVG
ENERGY: 0 4.9757 4.4186 3.4366 0.0000 -10781.0905 1535.3666 0.0000 0.0000 1703.5197 -7529.3733 289.9544 -9232.8930 -7529.3733 289.9544 597.8957 661.4417 30447.2413 597.8957 661.4417
ENERGY: 300000 2.9582 5.9720 2.3803 0.0000 -10653.1809 1412.1342 0.0000 0.0000 1726.2576 -7503.4786 293.8246 -9229.7361 -7469.3608 299.7649 37.4545 101.2214 29849.9557 -180.5963 -104.5110
ENERGY: 600000 2.3421 6.2406 3.6017 0.0000 -10737.3425 1446.4584 0.0000 0.0000 1775.3102 -7503.3895 302.1738 -9278.6997 -7483.8694 300.8065 -173.9205 -113.7952 30576.1580 -202.6326 -139.0006
ENERGY: 900000 1.1491 3.4049 3.6219 0.0000 -10776.7158 1520.1480 0.0000 0.0000 1828.1924 -7420.1996 311.1748 -9248.3920 -7480.9603 301.8763 710.7588 793.5507 30071.0261 -154.5491 -81.8294
ENERGY: 1200000 2.1547 3.9972 3.9873 0.0000 -10740.9511 1475.0542 0.0000 0.0000 1803.4565 -7452.3011 306.9645 -9255.7577 -7469.3483 302.3672 97.3698 150.9171 30276.2316 -85.3250 -19.9589
ENERGY: 1500000 3.7227 6.0029 4.4433 0.0000 -10600.6334 1371.4873 0.0000 0.0000 1794.9138 -7420.0633 305.5105 -9214.9772 -7464.8819 302.9664 -612.6511 -556.7288 30479.7415 -144.7205 -75.7577
TCL: Running FEP window   9: Lambda1 0.5999999999999996 Lambda2 0.5499999999999996 [dLambda -0.050000000000000044]
TCL: Setting parameter firsttimestep to 0
TCL: Setting parameter alchLambda to 0.5999999999999996
Info: NONBONDED TABLE R-SQUARED SPACING: 0.0625
Info: NONBONDED TABLE SIZE: 705 POINTS
TCL: Setting parameter alchLambda2 to 0.5499999999999996
Info: NONBONDED TABLE R-SQUARED SPACING: 0.0625
Info: NONBONDED TABLE SIZE: 705 POINTS
TCL: Running for 1500000 steps
ETITLE: TS BOND ANGLE DIHED IMPRP ELECT VDW BOUNDARY MISC KINETIC TOTAL TEMP POTENTIAL TOTALAVG TEMPAVG PRESSURE GPRESSURE VOLUME PRESSAVG GPRESSAVG
ENERGY: 0 3.7227 6.0029 4.4433 0.0000 -10599.2884 1371.1895 0.0000 0.0000 1794.0108 -7419.9193 305.3568 -9213.9301 -7419.9193 305.3568 -634.5952 -565.2549 30479.7415 -634.5952 -565.2549
ENERGY: 300000 1.3415 2.1163 0.9998 0.0000 -10840.3727 1527.1119 0.0000 0.0000 1731.0034 -7577.7997 294.6324 -9308.8031 -7465.3306 299.8607 629.7227 633.4293 30048.9211 46.1262 86.5330
ENERGY: 600000 3.8554 2.7175 4.1344 0.0000 -10661.9763 1444.0086 0.0000 0.0000 1716.4552 -7490.8052 292.1561 -9207.2604 -7468.3157 299.0882 104.1301 161.0823 30782.0710 108.1583 162.0475
ENERGY: 900000 3.2797 6.1041 4.2366 0.0000 -10523.8358 1251.4424 0.0000 0.0000 1809.7537 -7449.0194 308.0364 -9258.7731 -7487.7475 299.1420 -1599.9491 -1560.2653 31055.4617 -81.3834 -17.5297
ENERGY: 1200000 1.9074 7.3400 3.2920 0.0000 -10660.8558 1462.2270 0.0000 0.0000 1803.8433 -7382.2461 307.0304 -9186.0894 -7492.4006 299.3319 456.3403 495.2509 30485.4137 -18.1780 44.4852
ENERGY: 1500000 1.1948 3.7508 3.7802 0.0000 -10792.7662 1480.6466 0.0000 0.0000 1836.8945 -7466.4993 312.6560 -9303.3938 -7489.8824 300.3561 11.2147 75.8416 30643.9769 1.9876 65.4157
TCL: Running FEP window  10: Lambda1 0.5499999999999996 Lambda2 0.4999999999999996 [dLambda -0.04999999999999999]
TCL: Setting parameter firsttimestep to 0
TCL: Setting parameter alchLambda to 0.5499999999999996
Info: NONBONDED TABLE R-SQUARED SPACING: 0.0625
Info: NONBONDED TABLE SIZE: 705 POINTS
TCL: Setting parameter alchLambda2 to 0.4999999999999996
Info: NONBONDED TABLE R-SQUARED SPACING: 0.0625
Info: NONBONDED TABLE SIZE: 705 POINTS
TCL: Running for 1500000 steps
ETITLE: TS BOND ANGLE DIHED IMPRP ELECT VDW BOUNDARY MISC KINETIC TOTAL TEMP POTENTIAL TOTALAVG TEMPAVG PRESSURE GPRESSURE VOLUME PRESSAVG GPRESSAVG
ENERGY: 0 1.1948 3.7508 3.7802 0.0000 -10792.1034 1480.6350 0.0000 0.0000 1836.0098 -7466.7328 312.5054 -9302.7426 -7466.7328 312.5054 -15.9176 69.7461 30643.9769 -15.9176 69.7461
ENERGY: 300000 2.0842 2.9737 4.2215 0.0000 -10598.7739 1454.3239 0.0000 0.0000 1739.9810 -7395.1895 296.1604 -9135.1705 -7436.8379 303.5208 439.3706 528.8775 30512.0198 -115.3832 -39.0738
ENERGY: 600000 5.4272 4.6341 4.5460 0.0000 -10686.1235 1439.5356 0.0000 0.0000 1755.4893 -7476.4913 298.8001 -9231.9805 -7457.2534 302.4372 -262.3999 -225.8505 30699.4964 -177.3785 -124.6765
ENERGY: 900000 4.1805 2.6908 4.3404 0.0000 -10584.0248 1393.9228 0.0000 0.0000 1714.5022 -7464.3880 291.8237 -9178.8902 -7460.9515 300.8463 -219.3898 -160.8311 30302.3621 -84.5037 -32.0389
ENERGY: 1200000 2.9078 4.5615 7.9315 0.0000 -10691.5199 1480.1365 0.0000 0.0000 1714.7265 -7481.2561 291.8619 -9195.9826 -7464.4315 299.6406 120.1171 193.3414 30758.8852 -0.5999 53.6645
ENERGY: 1500000 1.4400 1.8447 4.6057 0.0000 -10725.2212 1452.0025 0.0000 0.0000 1769.3899 -7495.9384 301.1661 -9265.3283 -7461.0736 300.3535 156.2494 237.5125 29963.3415 12.2275 71.2136
TCL: Running FEP window  11: Lambda1 0.4999999999999996 Lambda2 0.4499999999999996 [dLambda -0.04999999999999999]
TCL: Setting parameter firsttimestep to 0
TCL: Setting parameter alchLambda to 0.4999999999999996
Info: NONBONDED TABLE R-SQUARED SPACING: 0.0625
Info: NONBONDED TABLE SIZE: 705 POINTS
TCL: Setting parameter alchLambda2 to 0.4499999999999996
Info: NONBONDED TABLE R-SQUARED SPACING: 0.0625
Info: NONBONDED TABLE SIZE: 705 POINTS
TCL: Running for 1500000 steps
ETITLE: TS BOND ANGLE DIHED IMPRP ELECT VDW BOUNDARY MISC KINETIC TOTAL TEMP POTENTIAL TOTALAVG TEMPAVG PRESSURE GPRESSURE VOLUME PRESSAVG GPRESSAVG
ENERGY: 0 1.4401 1.8447 4.6057 0.0000 -10725.0985 1452.5570 0.0000 0.0000 1768.5104 -7496.1406 301.0164 -9264.6510 -7496.1406 301.0164 161.2562 234.1883 29963.3415 161.2562 234.1883
ENERGY: 300000 1.8019 4.3159 2.8417 0.0000 -10673.8310 1455.4011 0.0000 0.0000 1712.0032 -7497.4672 291.3983 -9209.4704 -7489.9713 294.8972 -249.6190 -159.3266 30873.2096 194.3285 248.1366
ENERGY: 600000 1.5832 3.4440 4.6330 0.0000 -10738.1290 1494.6356 0.0000 0.0000 1751.9268 -7481.9064 298.1937 -9233.8332 -7476.2828 298.0770 467.2972 546.4585 30394.8080 325.0989 381.3476
ENERGY: 900000 1.9886 4.1421 4.8134 0.0000 -10778.6258 1517.7478 0.0000 0.0000 1733.2614 -7516.6725 295.0167 -9249.9339 -7466.5504 298.1764 512.1377 632.4557 30152.7935 310.4809 377.7732
ENERGY: 1200000 0.8422 7.2795 3.5244 0.0000 -10619.2403 1424.7583 0.0000 0.0000 1784.7334 -7398.1025 303.7777 -9182.8359 -7466.1571 298.6188 -2.8885 16.1022 30849.2993 202.6203 265.6361
ENERGY: 1500000 1.6483 1.8056 1.4929 0.0000 -10621.9061 1384.0803 0.0000 0.0000 1725.5103 -7507.3688 293.6974 -9232.8790 -7468.9129 299.2301 -182.1679 -67.7925 30143.5437 209.0166 277.5988
TCL: Running FEP window  12: Lambda1 0.4499999999999996 Lambda2 0.39999999999999963 [dLambda -0.04999999999999999]
TCL: Setting parameter firsttimestep to 0
TCL: Setting parameter alchLambda to 0.4499999999999996
Info: NONBONDED TABLE R-SQUARED SPACING: 0.0625
Info: NONBONDED TABLE SIZE: 705 POINTS
TCL: Setting parameter alchLambda2 to 0.39999999999999963
Info: NONBONDED TABLE R-SQUARED SPACING: 0.0625
Info: NONBONDED TABLE SIZE: 705 POINTS
TCL: Running for 1500000 steps
ETITLE: TS BOND ANGLE DIHED IMPRP ELECT VDW BOUNDARY MISC KINETIC TOTAL TEMP POTENTIAL TOTALAVG TEMPAVG PRESSURE GPRESSURE VOLUME PRESSAVG GPRESSAVG
ENERGY: 0 1.6483 1.8056 1.4929 0.0000 -10621.9055 1384.0133 0.0000 0.0000 1724.6683 -7508.2771 293.5541 -9232.9454 -7508.2771 293.5541 -169.7095 -75.7703 30143.5437 -169.7095 -75.7703
ENERGY: 300000 1.4615 4.0193 4.1547 0.0000 -10650.5712 1442.2774 0.0000 0.0000 1777.3388 -7421.3196 302.5190 -9198.6583 -7490.2118 299.3795 283.3028 301.5054 30202.2127 87.0367 125.9650
ENERGY: 600000 1.0077 6.7763 3.7375 0.0000 -10617.2023 1440.5847 0.0000 0.0000 1812.9273 -7352.1689 308.5765 -9165.0962 -7457.7196 300.7115 60.9215 100.3377 30976.9568 -54.2801 2.9783
ENERGY: 900000 1.6141 5.9847 4.8902 0.0000 -10620.2239 1393.7488 0.0000 0.0000 1741.7677 -7472.2182 296.4645 -9213.9860 -7474.9756 300.6682 -226.3690 -247.9478 30535.4297 -52.8226 2.8323
ENERGY: 1200000 4.8205 2.5291 6.4182 0.0000 -10710.6488 1413.2473 0.0000 0.0000 1770.2796 -7513.3540 301.3175 -9283.6336 -7475.1734 301.0360 -568.1718 -520.5835 30468.9180 -62.6444 -9.6430
ENERGY: 1500000 2.2726 7.4518 4.4021 0.0000 -10637.9904 1408.3331 0.0000 0.0000 1751.6614 -7463.8694 298.1485 -9215.5308 -7479.0002 300.4918 -202.0209 -143.5258 30499.3697 -139.2392 -84.6413
TCL: Running FEP window  13: Lambda1 0.39999999999999963 Lambda2 0.34999999999999964 [dLambda -0.04999999999999999]
TCL: Setting parameter firsttimestep to 0
TCL: Setting parameter alchLambda to 0.39999999999999963
Info: NONBONDED TABLE R-SQUARED SPACING: 0.0625
Info: NONBONDED TABLE SIZE: 705 POINTS
TCL: Setting parameter alchLambda2 to 0.34999999999999964
Info: NONBONDED TABLE R-SQUARED SPACING: 0.0625
Info: NONBONDED TABLE SIZE: 705 POINTS
TCL: Running for 1500000 steps
ETITLE: TS BOND ANGLE DIHED IMPRP ELECT VDW BOUNDARY MISC KINETIC TOTAL TEMP POTENTIAL TOTALAVG TEMPAVG PRESSURE GPRESSURE VOLUME PRESSAVG GPRESSAVG
ENERGY: 0 2.2726 7.4518 4.4021 0.0000 -10637.9884 1407.6114 0.0000 0.0000 1750.7453 -7465.5053 297.9926 -9216.2506 -7465.5053 297.9926 -230.0433 -157.5114 30499.3697 -230.0433 -157.5114
ENERGY: 300000 3.7324 4.2555 4.0476 0.0000 -10724.4776 1478.4239 0.0000 0.0000 1782.7942 -7451.2239 303.4476 -9234.0181 -7453.8176 301.7386 112.6497 201.6714 30462.2085 -220.6369 -156.9152
ENERGY: 600000 2.5350 3.4495 3.8429 0.0000 -10660.0018 1511.2222 0.0000 0.0000 1705.1452 -7433.8071 290.2310 -9138.9523 -7479.5053 299.1288 920.3606 1034.6501 30000.3514 -105.1818 -35.7397
ENERGY: 900000 1.5816 6.0162 3.6742 0.0000 -10711.7409 1401.8135 0.0000 0.0000 1797.0940 -7501.5614 305.8816 -9298.6554 -7470.5920 301.1446 -411.8587 -318.6123 30319.3930 -81.6167 -10.4023
ENERGY: 1200000 1.4453 3.5274 2.2186 0.0000 -10805.7504 1486.6868 0.0000 0.0000 1795.8244 -7516.0479 305.6655 -9311.8723 -7477.4965 301.3623 -23.0355 63.6203 30399.9157 -153.2203 -86.0836
ENERGY: 1500000 1.1169 2.3773 3.0448 0.0000 -10725.8349 1432.5411 0.0000 0.0000 1746.9382 -7539.8165 297.3446 -9286.7548 -7489.7430 300.1214 212.2356 228.0663 29783.9618 -111.3104 -49.9966
TCL: Running FEP window  14: Lambda1 0.34999999999999964 Lambda2 0.29999999999999966 [dLambda -0.04999999999999999]
TCL: Setting parameter firsttimestep to 0
TCL: Setting parameter alchLambda to 0.34999999999999964
Info: NONBONDED TABLE R-SQUARED SPACING: 0.0625
Info: NONBONDED TABLE SIZE: 705 POINTS
TCL: Setting parameter alchLambda2 to 0.29999999999999966
Info: NONBONDED TABLE R-SQUARED SPACING: 0.0625
Info: NONBONDED TABLE SIZE: 705 POINTS
TCL: Running for 1500000 steps
ETITLE: TS BOND ANGLE DIHED IMPRP ELECT VDW BOUNDARY MISC KINETIC TOTAL TEMP POTENTIAL TOTALAVG TEMPAVG PRESSURE GPRESSURE VOLUME PRESSAVG GPRESSAVG
ENERGY: 0 1.1169 2.3773 3.0448 0.0000 -10725.8344 1433.0892 0.0000 0.0000 1746.0620 -7540.1442 297.1955 -9286.2062 -7540.1442 297.1955 159.3017 227.3886 29783.9618 159.3017 227.3886
ENERGY: 300000 2.3500 2.7309 3.2037 0.0000 -10799.0370 1466.3262 0.0000 0.0000 1715.2667 -7609.1595 291.9538 -9324.4262 -7518.5429 296.2141 -64.5693 0.8132 30433.1419 121.7708 177.0564
ENERGY: 600000 4.5170 2.7872 2.9036 0.0000 -10562.0886 1303.5846 0.0000 0.0000 1787.3781 -7460.9183 304.2278 -9248.2964 -7502.2051 299.5604 -1076.2992 -992.6259 30232.6659 -241.3392 -168.0570
ENERGY: 900000 2.2302 5.6171 5.2933 0.0000 -10710.3993 1439.7016 0.0000 0.0000 1817.9619 -7439.5952 309.4335 -9257.5572 -7471.0213 301.8093 -243.1790 -206.1264 30568.4151 -169.3370 -104.2010
ENERGY: 1200000 3.1614 3.2239 2.4236 0.0000 -10667.3077 1384.8293 0.0000 0.0000 1762.7753 -7510.8943 300.0402 -9273.6696 -7478.5714 301.8483 -389.9751 -406.0461 30433.1607 -111.9548 -53.1568
ENERGY: 1500000 2.2344 2.0523 2.9821 0.0000 -10813.3546 1539.9819 0.0000 0.0000 1715.0448 -7551.0592 291.9161 -9266.1040 -7482.2388 300.9464 643.8089 680.2916 30439.9928 -42.5739 15.1825
TCL: Running FEP window  15: Lambda1 0.29999999999999966 Lambda2 0.24999999999999967 [dLambda -0.04999999999999999]
TCL: Setting parameter firsttimestep to 0
TCL: Setting parameter alchLambda to 0.29999999999999966
Info: NONBONDED TABLE R-SQUARED SPACING: 0.0625
Info: NONBONDED TABLE SIZE: 705 POINTS
TCL: Setting parameter alchLambda2 to 0.24999999999999967
Info: NONBONDED TABLE R-SQUARED SPACING: 0.0625
Info: NONBONDED TABLE SIZE: 705 POINTS
TCL: Running for 1500000 steps
ETITLE: TS BOND ANGLE DIHED IMPRP ELECT VDW BOUNDARY MISC KINETIC TOTAL TEMP POTENTIAL TOTALAVG TEMPAVG PRESSURE GPRESSURE VOLUME PRESSAVG GPRESSAVG
ENERGY: 0 2.2344 2.0523 2.9821 0.0000 -10813.3538 1540.3127 0.0000 0.0000 1714.1697 -7551.6026 291.7671 -9265.7723 -7551.6026 291.7671 585.4335 679.1463 30439.9928 585.4335 679.1463
ENERGY: 300000 2.3560 4.7560 4.8400 0.0000 -10650.2485 1400.1813 0.0000 0.0000 1753.8889 -7484.2262 298.5277 -9238.1151 -7455.8837 302.4461 -461.8161 -400.4679 30647.5351 12.9550 78.7361
ENERGY: 600000 5.0136 5.2259 2.7442 0.0000 -10528.2599 1339.8938 0.0000 0.0000 1705.9737 -7469.4087 290.3721 -9175.3824 -7466.2762 300.6412 -749.3049 -691.8862 30453.2674 -129.4035 -51.0212
ENERGY: 900000 2.2640 3.1724 2.9066 0.0000 -10794.6629 1536.0793 0.0000 0.0000 1759.9832 -7490.2575 299.5650 -9250.2406 -7466.7841 300.5892 932.4977 1020.3008 29744.2347 -53.1761 16.9788
ENERGY: 1200000 3.2263 4.0615 4.2678 0.0000 -10635.4109 1345.7118 0.0000 0.0000 1736.1983 -7541.9453 295.5166 -9278.1435 -7483.0419 299.4726 -905.6267 -901.3033 30230.9723 -210.7027 -149.2279
ENERGY: 1500000 3.7521 3.1372 4.9708 0.0000 -10590.4951 1323.8102 0.0000 0.0000 1780.0075 -7474.8174 302.9733 -9254.8249 -7473.9454 300.3848 -1124.6596 -1051.5062 30584.8133 -166.7341 -107.7012
TCL: Running FEP window  16: Lambda1 0.24999999999999967 Lambda2 0.19999999999999968 [dLambda -0.04999999999999999]
TCL: Setting parameter firsttimestep to 0
TCL: Setting parameter alchLambda to 0.24999999999999967
Info: NONBONDED TABLE R-SQUARED SPACING: 0.0625
Info: NONBONDED TABLE SIZE: 705 POINTS
TCL: Setting parameter alchLambda2 to 0.19999999999999968
Info: NONBONDED TABLE R-SQUARED SPACING: 0.0625
Info: NONBONDED TABLE SIZE: 705 POINTS
TCL: Running for 1500000 steps
ETITLE: TS BOND ANGLE DIHED IMPRP ELECT VDW BOUNDARY MISC KINETIC TOTAL TEMP POTENTIAL TOTALAVG TEMPAVG PRESSURE GPRESSURE VOLUME PRESSAVG GPRESSAVG
ENERGY: 0 3.7522 3.1372 4.9708 0.0000 -10590.4950 1324.3937 0.0000 0.0000 1779.1068 -7475.1345 302.8200 -9254.2413 -7475.1345 302.8200 -1141.8009 -1048.5038 30584.8133 -1141.8009 -1048.5038
ENERGY: 300000 3.5592 4.0643 2.8973 0.0000 -10651.1121 1387.8483 0.0000 0.0000 1778.7627 -7473.9804 302.7614 -9252.7431 -7467.3758 304.7117 -626.2169 -558.8264 30780.5303 -486.6360 -416.8659
ENERGY: 600000 1.8376 3.7972 2.8332 0.0000 -10810.1207 1491.9671 0.0000 0.0000 1771.3705 -7538.3151 301.5032 -9309.6856 -7457.1151 304.8262 380.8264 476.4916 29901.1089 -123.9115 -45.3308
ENERGY: 900000 1.8763 3.4050 4.1069 0.0000 -10682.3443 1448.4681 0.0000 0.0000 1708.3611 -7516.1269 290.7784 -9224.4880 -7457.5692 303.7747 471.0002 447.0147 29981.8738 -27.8915 28.2460
ENERGY: 1200000 5.2819 4.9777 7.7445 0.0000 -10601.8754 1395.5817 0.0000 0.0000 1720.2978 -7467.9919 292.8102 -9188.2897 -7463.7738 302.3612 -348.0265 -281.4399 30294.1056 -109.0927 -53.0832
ENERGY: 1500000 3.9077 2.1914 2.6157 0.0000 -10630.1921 1383.4329 0.0000 0.0000 1793.7328 -7444.3115 305.3095 -9238.0443 -7472.7826 302.0665 -761.2605 -692.8052 30669.7996 -72.3364 -11.2492
TCL: Running FEP window  17: Lambda1 0.19999999999999968 Lambda2 0.1499999999999997 [dLambda -0.04999999999999999]
TCL: Setting parameter firsttimestep to 0
TCL: Setting parameter alchLambda to 0.19999999999999968
Info: NONBONDED TABLE R-SQUARED SPACING: 0.0625
Info: NONBONDED TABLE SIZE: 705 POINTS
TCL: Setting parameter alchLambda2 to 0.1499999999999997
Info: NONBONDED TABLE R-SQUARED SPACING: 0.0625
Info: NONBONDED TABLE SIZE: 705 POINTS
TCL: Running for 1500000 steps
ETITLE: TS BOND ANGLE DIHED IMPRP ELECT VDW BOUNDARY MISC KINETIC TOTAL TEMP POTENTIAL TOTALAVG TEMPAVG PRESSURE GPRESSURE VOLUME PRESSAVG GPRESSAVG
ENERGY: 0 3.9077 2.1914 2.6157 0.0000 -10630.1918 1383.7496 0.0000 0.0000 1792.8369 -7444.8906 305.1570 -9237.7275 -7444.8906 305.1570 -794.6641 -693.9253 30669.7996 -794.6641 -693.9253
ENERGY: 300000 3.4768 3.2453 1.6648 0.0000 -10683.0125 1443.2852 0.0000 0.0000 1767.6628 -7463.6777 300.8721 -9231.3404 -7528.6603 295.6145 -292.5274 -195.2157 30480.9854 69.4892 135.0872
ENERGY: 600000 2.6738 5.5083 5.6324 0.0000 -10627.8775 1425.5004 0.0000 0.0000 1731.9028 -7456.6598 294.7854 -9188.5626 -7494.2036 298.3765 24.1262 82.8724 30337.4574 -123.4663 -66.2762
ENERGY: 900000 2.2343 4.4501 3.7664 0.0000 -10648.1985 1447.8150 0.0000 0.0000 1799.9806 -7389.9522 306.3729 -9189.9327 -7485.5232 299.5264 253.3176 381.5342 30186.1713 101.7940 157.1899
ENERGY: 1200000 1.8889 5.2357 1.7441 0.0000 -10559.7233 1370.4042 0.0000 0.0000 1752.2614 -7428.1890 298.2506 -9180.4504 -7479.9577 300.1243 -23.0737 29.0884 29711.0746 69.1709 120.0325
ENERGY: 1500000 8.0898 3.5701 3.6554 0.0000 -10558.8808 1319.5039 0.0000 0.0000 1709.5333 -7514.5284 290.9779 -9224.0617 -7476.1765 300.1868 -1343.8479 -1227.4567 30638.5858 -42.2132 11.0450
TCL: Running FEP window  18: Lambda1 0.1499999999999997 Lambda2 0.09999999999999969 [dLambda -0.05 ]
TCL: Setting parameter firsttimestep to 0
TCL: Setting parameter alchLambda to 0.1499999999999997
Info: NONBONDED TABLE R-SQUARED SPACING: 0.0625
Info: NONBONDED TABLE SIZE: 705 POINTS
TCL: Setting parameter alchLambda2 to 0.09999999999999969
Info: NONBONDED TABLE R-SQUARED SPACING: 0.0625
Info: NONBONDED TABLE SIZE: 705 POINTS
TCL: Running for 1500000 steps
ETITLE: TS BOND ANGLE DIHED IMPRP ELECT VDW BOUNDARY MISC KINETIC TOTAL TEMP POTENTIAL TOTALAVG TEMPAVG PRESSURE GPRESSURE VOLUME PRESSAVG GPRESSAVG
ENERGY: 0 8.0898 3.5701 3.6554 0.0000 -10558.8808 1319.6859 0.0000 0.0000 1708.6448 -7515.2348 290.8267 -9223.8796 -7515.2348 290.8267 -1315.7543 -1228.7938 30638.5858 -1315.7543 -1228.7938
ENERGY: 300000 3.4800 1.6232 3.6074 0.0000 -10687.3679 1482.2856 0.0000 0.0000 1716.0146 -7480.3572 292.0811 -9196.3719 -7478.4579 294.7531 431.2852 421.3257 30053.1446 -186.2692 -144.6688
ENERGY: 600000 2.6687 5.3918 2.3299 0.0000 -10900.7009 1560.0903 0.0000 0.0000 1720.5199 -7609.7002 292.8480 -9330.2202 -7499.4924 296.1848 571.4423 618.1057 30487.4798 -6.7611 30.4471
ENERGY: 900000 2.9438 3.8842 3.9444 0.0000 -10864.2332 1556.6343 0.0000 0.0000 1744.8818 -7551.9447 296.9946 -9296.8265 -7503.1007 296.5973 219.6673 341.1086 30665.0307 -124.1658 -80.3692
ENERGY: 1200000 3.5234 6.0069 5.6252 0.0000 -10690.7705 1443.6072 0.0000 0.0000 1782.0695 -7449.9382 303.3242 -9232.0077 -7491.3261 297.8682 -261.6660 -221.0570 30507.0185 -155.3430 -104.6040
ENERGY: 1500000 2.5550 4.0679 4.5416 0.0000 -10823.0141 1510.5699 0.0000 0.0000 1797.1127 -7504.1669 305.8847 -9301.2796 -7490.1247 298.0483 102.1846 183.4765 30368.3046 -218.7217 -162.0201
TCL: Running FEP window  19: Lambda1 0.09999999999999969 Lambda2 0.049999999999999684 [dLambda -0.05 ]
TCL: Setting parameter firsttimestep to 0
TCL: Setting parameter alchLambda to 0.09999999999999969
Info: NONBONDED TABLE R-SQUARED SPACING: 0.0625
Info: NONBONDED TABLE SIZE: 705 POINTS
TCL: Setting parameter alchLambda2 to 0.049999999999999684
Info: NONBONDED TABLE R-SQUARED SPACING: 0.0625
Info: NONBONDED TABLE SIZE: 705 POINTS
TCL: Running for 1500000 steps
ETITLE: TS BOND ANGLE DIHED IMPRP ELECT VDW BOUNDARY MISC KINETIC TOTAL TEMP POTENTIAL TOTALAVG TEMPAVG PRESSURE GPRESSURE VOLUME PRESSAVG GPRESSAVG
ENERGY: 0 2.5550 4.0679 4.5416 0.0000 -10823.0152 1510.6881 0.0000 0.0000 1796.2595 -7504.9030 305.7395 -9301.1625 -7504.9030 305.7395 98.3240 182.1647 30368.3046 98.3240 182.1647
ENERGY: 300000 1.5954 3.2912 5.1820 0.0000 -10761.4453 1430.8501 0.0000 0.0000 1788.5891 -7531.9375 304.4340 -9320.5266 -7532.4493 304.2980 -329.2388 -234.2744 30236.4021 107.0754 160.2244
ENERGY: 600000 1.3310 3.5383 9.6770 0.0000 -10716.1296 1486.0672 0.0000 0.0000 1783.7882 -7431.7279 303.6168 -9215.5161 -7526.0293 301.1942 394.7905 474.9926 30158.5128 178.5341 240.1967
ENERGY: 900000 5.4711 2.3899 4.2429 0.0000 -10630.4393 1402.1934 0.0000 0.0000 1767.1950 -7448.9470 300.7925 -9216.1420 -7500.6409 301.6112 -316.3123 -260.0649 30136.6614 94.3907 156.4472
ENERGY: 1200000 2.9931 2.5462 2.8096 0.0000 -10678.9786 1452.8782 0.0000 0.0000 1755.5737 -7462.1778 298.8144 -9217.7515 -7503.1586 300.6766 97.2221 159.0701 30284.6714 132.8313 189.5780
ENERGY: 1500000 1.8102 4.0403 3.4004 0.0000 -10742.7277 1453.2322 0.0000 0.0000 1776.6149 -7503.6297 302.3958 -9280.2446 -7496.2347 301.4025 -134.9577 -79.9911 30598.5392 125.5452 189.9642
TCL: Running FEP window  20: Lambda1 0.049999999999999684 Lambda2 0.0    [dLambda -0.049999999999999684]
TCL: Setting parameter firsttimestep to 0
TCL: Setting parameter alchLambda to 0.049999999999999684
Info: NONBONDED TABLE R-SQUARED SPACING: 0.0625
Info: NONBONDED TABLE SIZE: 705 POINTS
TCL: Setting parameter alchLambda2 to 0.0
Info: NONBONDED TABLE R-SQUARED SPACING: 0.0625
Info: NONBONDED TABLE SIZE: 705 POINTS
TCL: Running for 1500000 steps
ETITLE: TS BOND ANGLE DIHED IMPRP ELECT VDW BOUNDARY MISC KINETIC TOTAL TEMP POTENTIAL TOTALAVG TEMPAVG PRESSURE GPRESSURE VOLUME PRESSAVG GPRESSAVG
ENERGY: 0 1.8102 4.0403 3.4004 0.0000 -10742.7274 1452.2952 0.0000 0.0000 1775.7499 -7505.4314 302.2486 -9281.1813 -7505.4314 302.2486 -170.8262 -84.7091 30598.5392 -170.8262 -84.7091
ENERGY: 300000 3.2782 3.7790 1.2306 0.0000 -10660.4794 1397.3042 0.0000 0.0000 1757.2013 -7497.6861 299.0915 -9254.8874 -7529.0043 300.0935 -385.6129 -356.0778 30040.2219 15.3290 61.8766
ENERGY: 600000 3.3445 3.5002 5.0591 0.0000 -10849.1213 1474.8630 0.0000 0.0000 1806.8051 -7555.5495 307.5345 -9362.3545 -7513.5898 301.0989 -123.2099 -71.3506 30368.5448 -308.0610 -242.0266
ENERGY: 900000 2.1781 3.0267 2.1571 0.0000 -10705.5974 1387.7177 0.0000 0.0000 1792.4822 -7518.0356 305.0966 -9310.5178 -7511.2056 300.7031 -608.2595 -533.4462 30457.2576 -205.7081 -141.5978
ENERGY: 1200000 2.3430 2.1340 4.0643 0.0000 -10789.6251 1457.7004 0.0000 0.0000 1741.5558 -7581.8277 296.4285 -9323.3835 -7507.5927 299.7800 -156.0171 -112.8935 29985.3495 -149.9572 -95.9208
ENERGY: 1500000 3.6857 1.7635 6.3653 0.0000 -10722.7148 1444.1688 0.0000 0.0000 1792.8589 -7473.8726 305.1607 -9266.7315 -7505.4986 299.8881 -7.4279 80.1145 30120.7429 -88.3722 -31.0818
TCL: Exiting due to exit command.
