Info: SIMULATION PARAMETERS:
Info: TIMESTEP               2
Info: NUMBER OF STEPS        0
Info: STEPS PER CYCLE        10
Info: PERIODIC CELL BASIS 1  31.9807 0 0
Info: PERIODIC CELL BASIS 2  0 30.5835 0
Info: PERIODIC CELL BASIS 3  0 0 31.4192
Info: PERIODIC CELL CENTER   0 0 0
Info: WRAPPING WATERS AROUND PERIODIC BOUNDARIES ON OUTPUT.
Info: WRAPPING ALL CLUSTERS AROUND PERIODIC BOUNDARIES ON OUTPUT.
Info: FIRST LDB TIMESTEP     50
Info: LAST LDB TIMESTEP     -1
Info: HOM BACKGROUND SCALING 1
Info: PME BACKGROUND SCALING 1
Info: MIN ATOMS PER PATCH    40
Info: EMPTY PATCH LOAD       40 ATOMS
Info: VELOCITY FILE          mobley_2023925_equil.vel
Info: CENTER OF MASS MOVING INITIALLY? NO
Info: DIELECTRIC             1
Info: EXCLUDE                SCALED ONE-FOUR
Info: 1-4 ELECTROSTATICS SCALED BY 0.833333
Info: MODIFIED 1-4 VDW PARAMETERS WILL BE USED
Info: DCD FILENAME           mobley_2023925_prod.dcd
Info: DCD FREQUENCY          100000
Info: DCD FIRST STEP         100000
Info: DCD FILE WILL CONTAIN UNIT CELL DATA
Info: XST FILENAME           mobley_2023925_prod.xst
Info: XST FREQUENCY          100000
Info: NO VELOCITY DCD OUTPUT
Info: NO FORCE DCD OUTPUT
Info: OUTPUT FILENAME        mobley_2023925_prod
Info: BINARY OUTPUT FILES WILL BE USED
Info: RESTART FILENAME       mobley_2023925_prod.restart
Info: RESTART FREQUENCY      100000
Info: BINARY RESTART FILES WILL BE USED
Info: CUTOFF                 9
Info: PAIRLIST DISTANCE      11
Info: PAIRLIST SHRINK RATE   0.01
Info: PAIRLIST GROW RATE     0.01
Info: PAIRLIST TRIGGER       0.3
Info: PAIRLISTS PER CYCLE    2
Info: PAIRLISTS ENABLED
Info: MARGIN                 2
Info: HYDROGEN GROUP CUTOFF  2.5
Info: PATCH DIMENSION        15.5
Info: ENERGY OUTPUT STEPS    100000
Info: ENERGY EVALUATION STEPS    100000
Info: OUTPUT ENERGY PRECISION 4
Info: CROSSTERM ENERGY INCLUDED IN DIHEDRAL
Info: TIMING OUTPUT STEPS    1000000
Info: PRESSURE OUTPUT STEPS  100000
Info: ALCHEMICAL FEP ON
Info: FEP CURRENT LAMBDA VALUE     0
Info: FEP COMPARISON LAMBDA VALUE  0.05
Info: FEP INTRA-ALCHEMICAL NON-BONDED INTERACTIONS WILL BE RETAINED
Info: FEP INTRA-ALCHEMICAL BONDED INTERACTIONS WILL BE RETAINED
Info: FEP VDW SHIFTING COEFFICIENT 5
Info: FEP ELEC. ACTIVE FOR ANNIHILATED PARTICLES BETWEEN LAMBDA = 0 AND LAMBDA = 0.5
Info: FEP ELEC. ACTIVE FOR EXNIHILATED PARTICLES BETWEEN LAMBDA = 0.5 AND LAMBDA = 1
Info: FEP VDW ACTIVE FOR ANNIHILATED PARTICLES BETWEEN LAMBDA = 0 AND LAMBDA = 1
Info: FEP VDW ACTIVE FOR EXNIHILATED PARTICLES BETWEEN LAMBDA = 0 AND LAMBDA = 1
Info: FEP BOND ACTIVE FOR ANNIHILATED PARTICLES BETWEEN LAMBDA = 1 AND LAMBDA = 1
Info: FEP BOND ACTIVE FOR EXNIHILATED PARTICLES BETWEEN LAMBDA = 0 AND LAMBDA = 0
Info: LANGEVIN DYNAMICS ACTIVE
Info: LANGEVIN TEMPERATURE   300
Info: LANGEVIN USING BBK INTEGRATOR
Info: LANGEVIN DAMPING COEFFICIENT IS 1 INVERSE PS
Info: LANGEVIN DYNAMICS APPLIED TO HYDROGENS
Info: LANGEVIN PISTON PRESSURE CONTROL ACTIVE
Info:        TARGET PRESSURE IS 1.01325 BAR
Info:     OSCILLATION PERIOD IS 50 FS
Info:             DECAY TIME IS 25 FS
Info:     PISTON TEMPERATURE IS 300 K
Info:       PRESSURE CONTROL IS GROUP-BASED
Info:    INITIAL STRAIN RATE IS -0.00062989 -0.00062989 -0.00062989
Info:       CELL FLUCTUATION IS ISOTROPIC
Info: PARTICLE MESH EWALD (PME) ACTIVE
Info: PME TOLERANCE               1e-06
Info: PME EWALD COEFFICIENT       0.348832
Info: PME INTERPOLATION ORDER     4
Info: PME GRID DIMENSIONS         32 32 32
Info: PME MAXIMUM GRID SPACING    1
Info: PME CALCULATION WILL BE PERFORMED ON GPU
Info: FULL ELECTROSTATIC EVALUATION FREQUENCY      2
Info: USING VERLET I (r-RESPA) MTS SCHEME.
Info: C1 SPLITTING OF LONG RANGE ELECTROSTATICS
Info: PLACING ATOMS IN PATCHES BY HYDROGEN GROUPS
Info: RIGID BONDS TO HYDROGEN : ALL
Info:         ERROR TOLERANCE : 1e-08
Info:          MAX ITERATIONS : 100
Info: RIGID WATER USING SETTLE ALGORITHM
Info: RANDOM NUMBER SEED     1743828114
Info: USE HYDROGEN BONDS?    NO
Info: Using AMBER format force field!
Info: AMBER PARM FILE        mobley_2023925.prmtop
Info: COORDINATE PDB         mobley_2023925.pdb
Info: Exclusions will be read from PARM file!
Info: SCNB (VDW SCALING)     2
Info: USING ARITHMETIC MEAN TO COMBINE L-J SIGMA PARAMETERS
Info: BINARY COORDINATES     mobley_2023925_equil.coor
Info: SUMMARY OF PARAMETERS:
Info: 8 BONDS
Info: 12 ANGLES
Info:   12 HARMONIC
Info:   0 COSINE-BASED
Info: 4 DIHEDRAL
Info: 0 IMPROPER
Info: 0 CROSSTERM
Info: 0 VDW
Info: 36 VDW_PAIRS
Info: 0 NBTHOLE_PAIRS
Info: To read alchdata from file: mobley_2023925.pdb
Info: To read alchflag data from column: 5
Info: STRUCTURE SUMMARY:
Info: 2958 ATOMS
Info: 2957 BONDS
Info: 19 ANGLES
Info: 16 DIHEDRALS
Info: 0 IMPROPERS
Info: 0 CROSSTERMS
Info: 2991 EXCLUSIONS
Info: 2948 RIGID BONDS
Info: ALCH: 0 ATOMS TO DISAPPEAR IN FINAL STATE
Info: ALCH: 12 ATOMS TO APPEAR IN FINAL STATE
Info: 5926 DEGREES OF FREEDOM
Info: 992 HYDROGEN GROUPS
Info: 3 ATOMS IN LARGEST HYDROGEN GROUP
Info: 992 MIGRATION GROUPS
Info: 3 ATOMS IN LARGEST MIGRATION GROUP
Info: TOTAL MASS = 17876.2 amu
Info: TOTAL CHARGE = 9.99942e-05 e
Info: MASS DENSITY = 0.965973 g/cm^3
Info: ATOM DENSITY = 0.0962562 atoms/A^3
Info: ADDED 0 IMPLICIT EXCLUSIONS
Info: NONBONDED TABLE R-SQUARED SPACING: 0.0625
Info: NONBONDED TABLE SIZE: 705 POINTS
Info: REMOVING COM VELOCITY -0.0148235 -0.0377162 -0.0440969
Info: Use 3D box decompostion in PME FFT.
Info: Updated CUDA force table with 4096 elements.
Info: Updated CUDA LJ table with 8 x 8 elements.
Info: Found 15 unique exclusion lists needing 24 bytes
TCL: Running for 1500000 steps
ETITLE: TS BOND ANGLE DIHED IMPRP ELECT VDW BOUNDARY MISC KINETIC TOTAL TEMP POTENTIAL TOTALAVG TEMPAVG PRESSURE GPRESSURE VOLUME PRESSAVG GPRESSAVG
ENERGY: 0 2.1049 5.3691 1.9732 0.0000 -10651.3606 1483.6031 0.0000 0.0000 1791.7204 -7366.5899 304.2979 -9158.3103 -7366.5899 304.2979 378.2967 449.5256 30730.4897 378.2967 449.5256
ENERGY: 300000 2.7304 7.6482 1.1381 0.0000 -10786.9731 1537.2260 0.0000 0.0000 1812.0089 -7426.2215 307.7436 -9238.2304 -7452.4378 302.6927 529.0060 669.3319 30334.0163 288.6031 368.4852
ENERGY: 600000 2.0315 5.1483 0.8706 0.0000 -10676.3295 1492.2803 0.0000 0.0000 1788.7087 -7387.2901 303.7864 -9175.9988 -7459.2728 302.2561 378.9406 473.7905 30454.2575 300.2739 376.6960
ENERGY: 900000 6.2436 2.5996 0.3776 0.0000 -10752.8809 1478.5994 0.0000 0.0000 1778.1072 -7486.9534 301.9859 -9265.0606 -7476.6493 301.4155 -30.6859 18.4098 30548.1823 268.2117 342.1808
ENERGY: 1200000 2.0188 5.8434 0.5168 0.0000 -10654.2392 1489.2074 0.0000 0.0000 1729.0800 -7427.5728 293.6593 -9156.6528 -7473.1624 301.2539 674.4307 763.9303 30148.3649 223.1610 297.0719
ENERGY: 1500000 2.2493 6.9285 3.1037 0.0000 -10778.7085 1493.7876 0.0000 0.0000 1754.6761 -7517.9634 298.0065 -9272.6395 -7474.9264 301.5078 302.3163 356.1769 30388.5338 239.2889 305.7317
TCL: Running FEP window   2: Lambda1 0.05   Lambda2 0.1    [dLambda 0.05  ]
TCL: Setting parameter firsttimestep to 0
TCL: Setting parameter alchLambda to 0.05
Info: NONBONDED TABLE R-SQUARED SPACING: 0.0625
Info: NONBONDED TABLE SIZE: 705 POINTS
TCL: Setting parameter alchLambda2 to 0.1
Info: NONBONDED TABLE R-SQUARED SPACING: 0.0625
Info: NONBONDED TABLE SIZE: 705 POINTS
TCL: Running for 1500000 steps
ETITLE: TS BOND ANGLE DIHED IMPRP ELECT VDW BOUNDARY MISC KINETIC TOTAL TEMP POTENTIAL TOTALAVG TEMPAVG PRESSURE GPRESSURE VOLUME PRESSAVG GPRESSAVG
ENERGY: 0 2.2493 6.9285 3.1037 0.0000 -10778.7083 1494.8464 0.0000 0.0000 1753.7998 -7517.7807 297.8576 -9271.5805 -7517.7807 297.8576 286.5672 361.2930 30388.5338 286.5672 361.2930
ENERGY: 300000 2.3909 5.4462 0.2496 0.0000 -10751.4036 1499.6172 0.0000 0.0000 1782.8796 -7460.8201 302.7964 -9243.6997 -7519.9799 297.7052 236.6209 289.4157 30469.8212 185.6225 259.9606
ENERGY: 600000 1.4910 5.2359 0.7017 0.0000 -10660.2539 1468.9546 0.0000 0.0000 1734.0489 -7449.8219 294.5032 -9183.8708 -7503.5787 296.6020 255.8497 288.1051 30625.0346 89.8071 155.0409
ENERGY: 900000 2.1315 5.2288 1.5319 0.0000 -10794.9736 1471.0235 0.0000 0.0000 1738.2616 -7576.7962 295.2187 -9315.0578 -7507.5766 297.1752 -117.3041 -36.2231 30544.9537 141.2423 203.5998
ENERGY: 1200000 1.2351 6.2761 0.8699 0.0000 -10838.9807 1491.4726 0.0000 0.0000 1734.7807 -7604.3462 294.6275 -9339.1269 -7514.2524 297.6469 160.6317 286.9591 29969.2967 73.5927 141.5570
ENERGY: 1500000 1.9638 8.2470 2.0051 0.0000 -10881.3940 1517.8645 0.0000 0.0000 1791.8875 -7559.4261 304.3263 -9351.3136 -7515.6024 298.0797 382.1842 438.6082 30136.1176 54.8546 119.7017
TCL: Running FEP window   3: Lambda1 0.1    Lambda2 0.15000000000000002 [dLambda 0.05000000000000002]
TCL: Setting parameter firsttimestep to 0
TCL: Setting parameter alchLambda to 0.1
Info: NONBONDED TABLE R-SQUARED SPACING: 0.0625
Info: NONBONDED TABLE SIZE: 705 POINTS
TCL: Setting parameter alchLambda2 to 0.15000000000000002
Info: NONBONDED TABLE R-SQUARED SPACING: 0.0625
Info: NONBONDED TABLE SIZE: 705 POINTS
TCL: Running for 1500000 steps
ETITLE: TS BOND ANGLE DIHED IMPRP ELECT VDW BOUNDARY MISC KINETIC TOTAL TEMP POTENTIAL TOTALAVG TEMPAVG PRESSURE GPRESSURE VOLUME PRESSAVG GPRESSAVG
ENERGY: 0 1.9638 8.2470 2.0051 0.0000 -10881.3939 1522.0222 0.0000 0.0000 1791.0425 -7556.1133 304.1828 -9347.1558 -7556.1133 304.1828 372.8943 448.5793 30136.1176 372.8943 448.5793
ENERGY: 300000 1.2214 6.6729 1.1905 0.0000 -10653.4487 1462.6165 0.0000 0.0000 1761.9912 -7419.7562 299.2488 -9181.7473 -7478.6842 302.3779 634.6083 608.2059 30117.8462 434.8639 470.5262
ENERGY: 600000 4.1893 7.2934 1.9304 0.0000 -10734.9253 1443.0707 0.0000 0.0000 1777.0503 -7501.3912 301.8064 -9278.4415 -7486.7348 300.9890 -288.7790 -152.3061 30466.3973 79.7386 146.4112
ENERGY: 900000 5.6398 4.3328 0.9293 0.0000 -10606.1032 1341.9857 0.0000 0.0000 1836.0237 -7417.1920 311.8222 -9253.2156 -7472.6226 302.5228 -748.4689 -686.0778 30451.1463 -2.1108 51.7773
ENERGY: 1200000 1.7410 4.9992 0.7894 0.0000 -10805.9409 1571.9069 0.0000 0.0000 1741.8434 -7484.6610 295.8270 -9226.5044 -7478.2451 301.7602 1206.7705 1255.0323 30290.8683 48.6574 100.3111
ENERGY: 1500000 2.3775 5.6558 0.2751 0.0000 -10513.9900 1342.8346 0.0000 0.0000 1721.4038 -7441.4431 292.3557 -9162.8470 -7487.3194 300.0701 -591.5980 -542.1127 30664.5889 -29.3207 23.9304
TCL: Running FEP window   4: Lambda1 0.15000000000000002 Lambda2 0.2    [dLambda 0.04999999999999999]
TCL: Setting parameter firsttimestep to 0
TCL: Setting parameter alchLambda to 0.15000000000000002
Info: NONBONDED TABLE R-SQUARED SPACING: 0.0625
Info: NONBONDED TABLE SIZE: 705 POINTS
TCL: Setting parameter alchLambda2 to 0.2
Info: NONBONDED TABLE R-SQUARED SPACING: 0.0625
Info: NONBONDED TABLE SIZE: 705 POINTS
TCL: Running for 1500000 steps
ETITLE: TS BOND ANGLE DIHED IMPRP ELECT VDW BOUNDARY MISC KINETIC TOTAL TEMP POTENTIAL TOTALAVG TEMPAVG PRESSURE GPRESSURE VOLUME PRESSAVG GPRESSAVG
ENERGY: 0 2.3775 5.6558 0.2751 0.0000 -10513.9896 1344.2169 0.0000 0.0000 1720.5369 -7440.9274 292.2084 -9161.4643 -7440.9274 292.2084 -621.4743 -532.0850 30664.5889 -621.4743 -532.0850
ENERGY: 300000 1.7815 5.2539 0.9786 0.0000 -10567.4525 1331.7950 0.0000 0.0000 1765.7938 -7461.8497 299.8946 -9227.6435 -7456.0856 299.5701 -889.3154 -799.1940 30322.3916 -241.6137 -148.8555
ENERGY: 600000 1.8684 2.7610 0.5641 0.0000 -10675.5277 1386.0575 0.0000 0.0000 1741.6175 -7542.6591 295.7887 -9284.2766 -7467.1456 299.1001 -767.5696 -663.0124 30775.7727 -77.6226 10.4857
ENERGY: 900000 2.5663 7.0930 0.2991 0.0000 -10768.1129 1486.7315 0.0000 0.0000 1822.0753 -7449.3477 309.4533 -9271.4230 -7461.8529 301.1288 291.1136 350.7022 30382.3543 33.1866 111.7144
ENERGY: 1200000 4.4970 7.6742 0.9521 0.0000 -10821.3960 1564.8836 0.0000 0.0000 1816.0199 -7427.3693 308.4248 -9243.3892 -7455.4024 301.9529 1364.7631 1376.2483 29809.2469 134.0744 209.0271
ENERGY: 1500000 1.8983 2.0235 0.8326 0.0000 -10688.2692 1427.4340 0.0000 0.0000 1759.1116 -7496.9692 298.7598 -9256.0809 -7463.2072 301.3650 -159.2499 -149.0201 30419.6794 85.8788 152.6316
TCL: Running FEP window   5: Lambda1 0.2    Lambda2 0.25   [dLambda 0.04999999999999999]
TCL: Setting parameter firsttimestep to 0
TCL: Setting parameter alchLambda to 0.2
Info: NONBONDED TABLE R-SQUARED SPACING: 0.0625
Info: NONBONDED TABLE SIZE: 705 POINTS
TCL: Setting parameter alchLambda2 to 0.25
Info: NONBONDED TABLE R-SQUARED SPACING: 0.0625
Info: NONBONDED TABLE SIZE: 705 POINTS
TCL: Running for 1500000 steps
ETITLE: TS BOND ANGLE DIHED IMPRP ELECT VDW BOUNDARY MISC KINETIC TOTAL TEMP POTENTIAL TOTALAVG TEMPAVG PRESSURE GPRESSURE VOLUME PRESSAVG GPRESSAVG
ENERGY: 0 1.8983 2.0235 0.8326 0.0000 -10688.2680 1427.6756 0.0000 0.0000 1758.2577 -7497.5803 298.6148 -9255.8380 -7497.5803 298.6148 -226.5382 -146.1883 30419.6794 -226.5382 -146.1883
ENERGY: 300000 2.2381 5.2809 1.9946 0.0000 -10763.7968 1422.7712 0.0000 0.0000 1767.0098 -7564.5022 300.1012 -9331.5120 -7556.1377 298.6354 -364.0929 -342.2495 30199.2595 -157.4013 -111.1175
ENERGY: 600000 1.7007 4.2634 0.4917 0.0000 -10706.6217 1452.0563 0.0000 0.0000 1722.8902 -7525.2195 292.6081 -9248.1097 -7553.7589 296.1033 306.9720 322.8122 29973.2657 8.3390 46.1243
ENERGY: 900000 2.4643 6.5309 0.4761 0.0000 -10603.0721 1372.4359 0.0000 0.0000 1776.0143 -7445.1505 301.6305 -9221.1649 -7529.1765 297.6981 -407.3245 -383.9664 30606.4162 -80.7601 -39.3268
ENERGY: 1200000 3.0109 4.1170 1.4372 0.0000 -10756.7088 1441.9094 0.0000 0.0000 1761.7227 -7544.5115 299.2032 -9306.2342 -7513.9578 298.6158 -144.4886 -139.1094 30225.3247 -52.1669 -15.0894
ENERGY: 1500000 3.1183 6.2764 0.1781 0.0000 -10646.7966 1387.8842 0.0000 0.0000 1770.4950 -7478.8445 300.6931 -9249.3396 -7506.1961 299.1462 -506.8912 -463.2159 30455.2501 -94.1582 -55.5590
TCL: Running FEP window   6: Lambda1 0.25   Lambda2 0.3    [dLambda 0.04999999999999999]
TCL: Setting parameter firsttimestep to 0
TCL: Setting parameter alchLambda to 0.25
Info: NONBONDED TABLE R-SQUARED SPACING: 0.0625
Info: NONBONDED TABLE SIZE: 705 POINTS
TCL: Setting parameter alchLambda2 to 0.3
Info: NONBONDED TABLE R-SQUARED SPACING: 0.0625
Info: NONBONDED TABLE SIZE: 705 POINTS
TCL: Running for 1500000 steps
ETITLE: TS BOND ANGLE DIHED IMPRP ELECT VDW BOUNDARY MISC KINETIC TOTAL TEMP POTENTIAL TOTALAVG TEMPAVG PRESSURE GPRESSURE VOLUME PRESSAVG GPRESSAVG
ENERGY: 0 3.1183 6.2764 0.1781 0.0000 -10646.7971 1389.0106 0.0000 0.0000 1769.6698 -7478.5439 300.5529 -9248.2137 -7478.5439 300.5529 -536.6398 -452.6425 30455.2501 -536.6398 -452.6425
ENERGY: 300000 1.1554 6.0973 1.6562 0.0000 -10547.9663 1395.7696 0.0000 0.0000 1745.2708 -7398.0170 296.4091 -9143.2878 -7475.2905 298.0965 -285.0478 -261.9340 30978.4797 -444.2807 -362.1363
ENERGY: 600000 2.4074 8.3139 0.5650 0.0000 -10765.8092 1495.2401 0.0000 0.0000 1728.7305 -7530.5523 293.6000 -9259.2828 -7474.3562 298.7795 353.7493 358.7982 30241.6912 -72.7623 -22.1453
ENERGY: 900000 2.6376 8.4372 0.3763 0.0000 -10620.6537 1412.9153 0.0000 0.0000 1748.6716 -7447.6156 296.9867 -9196.2872 -7469.0847 299.8474 -413.8502 -359.8371 31197.8618 -160.0557 -104.8929
ENERGY: 1200000 4.6837 8.0665 0.6625 0.0000 -10792.4355 1476.8647 0.0000 0.0000 1747.4395 -7554.7185 296.7774 -9302.1581 -7479.8958 300.2495 177.2787 202.6685 30120.1308 -175.7460 -124.1449
ENERGY: 1500000 2.0996 11.8970 0.6013 0.0000 -10792.3123 1452.3122 0.0000 0.0000 1802.2225 -7523.1797 306.0815 -9325.4022 -7472.0933 301.1145 -69.0587 -8.2876 30605.5486 -166.5613 -113.9135
TCL: Running FEP window   7: Lambda1 0.3    Lambda2 0.35   [dLambda 0.04999999999999999]
TCL: Setting parameter firsttimestep to 0
TCL: Setting parameter alchLambda to 0.3
Info: NONBONDED TABLE R-SQUARED SPACING: 0.0625
Info: NONBONDED TABLE SIZE: 705 POINTS
TCL: Setting parameter alchLambda2 to 0.35
Info: NONBONDED TABLE R-SQUARED SPACING: 0.0625
Info: NONBONDED TABLE SIZE: 705 POINTS
TCL: Running for 1500000 steps
ETITLE: TS BOND ANGLE DIHED IMPRP ELECT VDW BOUNDARY MISC KINETIC TOTAL TEMP POTENTIAL TOTALAVG TEMPAVG PRESSURE GPRESSURE VOLUME PRESSAVG GPRESSAVG
ENERGY: 0 2.0996 11.8970 0.6013 0.0000 -10792.3129 1452.2089 0.0000 0.0000 1801.3633 -7524.1429 305.9356 -9325.5062 -7524.1429 305.9356 -85.4610 -6.1177 30605.5486 -85.4610 -6.1177
ENERGY: 300000 3.9039 5.6035 1.0305 0.0000 -10639.3165 1412.6796 0.0000 0.0000 1747.7349 -7468.3642 296.8276 -9216.0990 -7482.0699 302.0917 -310.6813 -201.2559 30477.4959 -433.0674 -363.6876
ENERGY: 600000 4.5731 8.8367 2.2913 0.0000 -10671.2560 1425.3872 0.0000 0.0000 1771.1427 -7459.0251 300.8031 -9230.1677 -7487.2416 300.9782 129.4828 137.6091 30124.7701 -214.6841 -157.2589
ENERGY: 900000 1.6006 6.1965 0.7096 0.0000 -10693.4350 1387.1735 0.0000 0.0000 1765.3567 -7532.3981 299.8204 -9297.7548 -7493.4925 299.8442 -634.5327 -580.1543 30444.2830 -368.2180 -315.7258
ENERGY: 1200000 4.0639 6.6721 3.0379 0.0000 -10766.2959 1493.4805 0.0000 0.0000 1740.5502 -7518.4914 295.6074 -9259.0416 -7495.0455 299.8697 220.8131 287.7556 30282.6960 -331.3754 -284.4664
ENERGY: 1500000 4.3020 6.6859 2.1839 0.0000 -10607.8449 1384.7743 0.0000 0.0000 1717.1013 -7492.7976 291.6249 -9209.8989 -7493.7671 298.7723 -637.0789 -586.8909 30817.6308 -362.2533 -309.3211
TCL: Running FEP window   8: Lambda1 0.35   Lambda2 0.39999999999999997 [dLambda 0.04999999999999999]
TCL: Setting parameter firsttimestep to 0
TCL: Setting parameter alchLambda to 0.35
Info: NONBONDED TABLE R-SQUARED SPACING: 0.0625
Info: NONBONDED TABLE SIZE: 705 POINTS
TCL: Setting parameter alchLambda2 to 0.39999999999999997
Info: NONBONDED TABLE R-SQUARED SPACING: 0.0625
Info: NONBONDED TABLE SIZE: 705 POINTS
TCL: Running for 1500000 steps
ETITLE: TS BOND ANGLE DIHED IMPRP ELECT VDW BOUNDARY MISC KINETIC TOTAL TEMP POTENTIAL TOTALAVG TEMPAVG PRESSURE GPRESSURE VOLUME PRESSAVG GPRESSAVG
ENERGY: 0 4.3020 6.6859 2.1839 0.0000 -10607.8449 1385.3630 0.0000 0.0000 1716.2210 -7493.0891 291.4754 -9209.3101 -7493.0891 291.4754 -649.0917 -578.1450 30817.6308 -649.0917 -578.1450
ENERGY: 300000 0.8842 4.8972 1.0775 0.0000 -10654.5329 1407.7827 0.0000 0.0000 1776.0246 -7463.8668 301.6322 -9239.8914 -7511.2120 297.4309 -299.0669 -202.9751 30681.6104 195.3539 238.9580
ENERGY: 600000 2.9331 7.0576 1.2904 0.0000 -10889.9548 1532.4136 0.0000 0.0000 1780.4253 -7565.8348 302.3796 -9346.2600 -7515.2498 297.7764 547.2814 615.5619 30288.9066 139.6377 201.4246
ENERGY: 900000 6.1058 7.1257 1.6241 0.0000 -10643.5459 1422.9992 0.0000 0.0000 1791.0289 -7414.6622 304.1805 -9205.6912 -7507.4279 299.3790 -189.0622 -88.1907 30427.7296 88.2929 171.8021
ENERGY: 1200000 1.6358 7.4915 1.4172 0.0000 -10636.5564 1448.8356 0.0000 0.0000 1799.0188 -7378.1574 305.5374 -9177.1762 -7503.2324 299.0712 301.0403 375.0406 30423.5009 77.6924 159.3563
ENERGY: 1500000 3.3811 4.0297 0.4669 0.0000 -10546.9282 1380.5553 0.0000 0.0000 1741.7810 -7416.7142 295.8164 -9158.4952 -7499.8445 298.6301 -174.8814 -228.6203 30898.8774 51.3126 123.0831
TCL: Running FEP window   9: Lambda1 0.39999999999999997 Lambda2 0.44999999999999996 [dLambda 0.04999999999999999]
TCL: Setting parameter firsttimestep to 0
TCL: Setting parameter alchLambda to 0.39999999999999997
Info: NONBONDED TABLE R-SQUARED SPACING: 0.0625
Info: NONBONDED TABLE SIZE: 705 POINTS
TCL: Setting parameter alchLambda2 to 0.44999999999999996
Info: NONBONDED TABLE R-SQUARED SPACING: 0.0625
Info: NONBONDED TABLE SIZE: 705 POINTS
TCL: Running for 1500000 steps
ETITLE: TS BOND ANGLE DIHED IMPRP ELECT VDW BOUNDARY MISC KINETIC TOTAL TEMP POTENTIAL TOTALAVG TEMPAVG PRESSURE GPRESSURE VOLUME PRESSAVG GPRESSAVG
ENERGY: 0 3.3811 4.0297 0.4669 0.0000 -10546.9282 1380.9836 0.0000 0.0000 1740.9066 -7417.1604 295.6679 -9158.0669 -7417.1604 295.6679 -298.7217 -221.1685 30898.8774 -298.7217 -221.1685
ENERGY: 300000 1.9136 3.1996 0.9233 0.0000 -10726.1465 1497.7767 0.0000 0.0000 1764.4021 -7457.9312 299.6583 -9222.3333 -7426.2538 296.2182 534.5003 601.0693 30379.4866 34.7507 82.4863
ENERGY: 600000 2.8654 5.3871 0.0943 0.0000 -10785.8728 1444.5562 0.0000 0.0000 1734.3201 -7598.6498 294.5493 -9332.9699 -7431.9904 298.4618 -572.6657 -463.5044 30718.9149 -230.5035 -166.3243
ENERGY: 900000 3.5043 4.2136 0.8334 0.0000 -10746.1238 1512.7056 0.0000 0.0000 1751.3880 -7473.4788 297.4480 -9224.8667 -7451.5505 298.2541 664.1306 690.4803 30265.0826 -126.4383 -75.1011
ENERGY: 1200000 3.4504 3.7579 0.8296 0.0000 -10778.3737 1473.9457 0.0000 0.0000 1790.3369 -7506.0531 304.0629 -9296.3900 -7467.6068 298.6309 364.6411 365.0923 30252.4783 -92.0467 -43.8579
ENERGY: 1500000 3.6775 5.3491 0.1309 0.0000 -10850.7522 1523.0194 0.0000 0.0000 1802.1541 -7516.4213 306.0699 -9318.5753 -7468.4894 299.7019 723.3333 766.2629 29918.1250 -38.8167 9.4914
TCL: Running FEP window  10: Lambda1 0.44999999999999996 Lambda2 0.49999999999999994 [dLambda 0.04999999999999999]
TCL: Setting parameter firsttimestep to 0
TCL: Setting parameter alchLambda to 0.44999999999999996
Info: NONBONDED TABLE R-SQUARED SPACING: 0.0625
Info: NONBONDED TABLE SIZE: 705 POINTS
TCL: Setting parameter alchLambda2 to 0.49999999999999994
Info: NONBONDED TABLE R-SQUARED SPACING: 0.0625
Info: NONBONDED TABLE SIZE: 705 POINTS
TCL: Running for 1500000 steps
ETITLE: TS BOND ANGLE DIHED IMPRP ELECT VDW BOUNDARY MISC KINETIC TOTAL TEMP POTENTIAL TOTALAVG TEMPAVG PRESSURE GPRESSURE VOLUME PRESSAVG GPRESSAVG
ENERGY: 0 3.6775 5.3491 0.1309 0.0000 -10850.7526 1522.9997 0.0000 0.0000 1801.2953 -7517.3002 305.9241 -9318.5955 -7517.3002 305.9241 686.8069 768.5065 29918.1250 686.8069 768.5065
ENERGY: 300000 1.9610 9.4044 0.7460 0.0000 -10675.8191 1427.6482 0.0000 0.0000 1782.9472 -7453.1122 302.8079 -9236.0594 -7483.6337 302.8909 -88.8501 -32.0097 30628.5593 218.7940 289.5155
ENERGY: 600000 3.5522 6.4950 2.4597 0.0000 -10626.2444 1427.1370 0.0000 0.0000 1754.3721 -7432.2284 297.9548 -9186.6005 -7483.1399 300.6303 -25.0556 17.4398 30387.2188 57.2037 127.5544
ENERGY: 900000 2.5881 6.2865 0.8083 0.0000 -10696.0668 1404.8717 0.0000 0.0000 1740.3927 -7541.1196 295.5806 -9281.5123 -7492.9937 300.4919 -205.9176 -161.2545 30342.5913 36.2386 99.8566
ENERGY: 1200000 5.8857 3.4285 0.1785 0.0000 -10643.4675 1372.2865 0.0000 0.0000 1779.8781 -7481.8102 302.2867 -9261.6882 -7483.3133 301.1719 -653.9941 -599.7303 30431.8638 -45.9034 16.5222
ENERGY: 1500000 2.0132 4.9620 0.2627 0.0000 -10568.0597 1331.6677 0.0000 0.0000 1724.2603 -7504.8938 292.8408 -9229.1540 -7478.9388 300.6085 -599.1096 -569.9604 30419.6930 -159.3665 -95.8695
TCL: Running FEP window  11: Lambda1 0.49999999999999994 Lambda2 0.5499999999999999 [dLambda 0.04999999999999999]
TCL: Setting parameter firsttimestep to 0
TCL: Setting parameter alchLambda to 0.49999999999999994
Info: NONBONDED TABLE R-SQUARED SPACING: 0.0625
Info: NONBONDED TABLE SIZE: 705 POINTS
TCL: Setting parameter alchLambda2 to 0.5499999999999999
Info: NONBONDED TABLE R-SQUARED SPACING: 0.0625
Info: NONBONDED TABLE SIZE: 705 POINTS
TCL: Running for 1500000 steps
ETITLE: TS BOND ANGLE DIHED IMPRP ELECT VDW BOUNDARY MISC KINETIC TOTAL TEMP POTENTIAL TOTALAVG TEMPAVG PRESSURE GPRESSURE VOLUME PRESSAVG GPRESSAVG
ENERGY: 0 2.0132 4.9620 0.2627 0.0000 -10568.0597 1331.5189 0.0000 0.0000 1723.3844 -7505.9184 292.6920 -9229.3029 -7505.9184 292.6920 -660.5326 -562.8535 30419.6930 -660.5326 -562.8535
ENERGY: 300000 3.3602 8.9801 1.0746 0.0000 -10692.6060 1456.2472 0.0000 0.0000 1784.6103 -7438.3336 303.0904 -9222.9438 -7494.7352 298.0691 -10.8753 69.4135 30890.8883 -382.3858 -298.9946
ENERGY: 600000 2.1710 5.1509 0.4761 0.0000 -10694.5712 1433.3163 0.0000 0.0000 1778.5696 -7474.8873 302.0644 -9253.4569 -7482.8049 298.9583 -19.3491 99.8776 30516.3915 -248.2174 -158.6325
ENERGY: 900000 3.6485 1.1753 0.3231 0.0000 -10674.4435 1442.2845 0.0000 0.0000 1776.8087 -7450.2034 301.7654 -9227.0121 -7485.7596 298.8651 8.4274 13.6007 30902.9436 -48.4350 20.7998
ENERGY: 1200000 5.3569 7.2438 1.5366 0.0000 -10731.3636 1440.9346 0.0000 0.0000 1730.3405 -7545.9512 293.8734 -9276.2916 -7478.5190 299.0421 -163.9145 -91.7027 30745.7981 -50.8140 20.9841
ENERGY: 1500000 0.8778 6.3947 1.4092 0.0000 -10629.1126 1447.0249 0.0000 0.0000 1763.7048 -7409.7012 299.5399 -9173.4060 -7476.6656 298.7235 183.4882 220.2219 30701.9084 -63.9899 0.5203
TCL: Running FEP window  12: Lambda1 0.5499999999999999 Lambda2 0.6    [dLambda 0.050000000000000044]
TCL: Setting parameter firsttimestep to 0
TCL: Setting parameter alchLambda to 0.5499999999999999
Info: NONBONDED TABLE R-SQUARED SPACING: 0.0625
Info: NONBONDED TABLE SIZE: 705 POINTS
TCL: Setting parameter alchLambda2 to 0.6
Info: NONBONDED TABLE R-SQUARED SPACING: 0.0625
Info: NONBONDED TABLE SIZE: 705 POINTS
TCL: Running for 1500000 steps
ETITLE: TS BOND ANGLE DIHED IMPRP ELECT VDW BOUNDARY MISC KINETIC TOTAL TEMP POTENTIAL TOTALAVG TEMPAVG PRESSURE GPRESSURE VOLUME PRESSAVG GPRESSAVG
ENERGY: 0 0.8778 6.3947 1.4092 0.0000 -10628.8946 1447.5192 0.0000 0.0000 1762.8539 -7409.8399 299.3953 -9172.6937 -7409.8399 299.3953 123.2104 230.9908 30701.9084 123.2104 230.9908
ENERGY: 300000 0.7000 8.0836 1.9979 0.0000 -10539.0650 1364.7795 0.0000 0.0000 1793.0860 -7370.4182 304.5298 -9163.5041 -7429.2885 302.2794 -176.1132 -190.5787 30565.9492 -107.0828 -66.9995
ENERGY: 600000 2.1246 4.2266 1.1108 0.0000 -10704.7059 1470.8341 0.0000 0.0000 1812.5911 -7413.8188 307.8425 -9226.4099 -7436.0502 303.2769 403.2563 492.8891 30240.5603 75.7261 125.2966
ENERGY: 900000 4.5678 4.6188 0.8132 0.0000 -10756.4436 1474.2396 0.0000 0.0000 1807.8375 -7464.3668 307.0352 -9272.2043 -7452.1786 302.8386 310.7021 347.4718 30161.3054 59.1348 104.5607
ENERGY: 1200000 2.2454 4.8058 0.3416 0.0000 -10718.1195 1463.3472 0.0000 0.0000 1792.5232 -7454.8563 304.4343 -9247.3795 -7457.3182 302.7647 82.6299 111.4165 30621.8152 75.6731 123.2322
ENERGY: 1500000 2.4992 7.4711 0.4050 0.0000 -10584.6994 1365.9481 0.0000 0.0000 1722.2369 -7486.1391 292.4971 -9208.3760 -7461.7638 301.9878 -939.4220 -864.8448 31310.4078 0.1266 48.3474
TCL: Running FEP window  13: Lambda1 0.6    Lambda2 0.65   [dLambda 0.050000000000000044]
TCL: Setting parameter firsttimestep to 0
TCL: Setting parameter alchLambda to 0.6
Info: NONBONDED TABLE R-SQUARED SPACING: 0.0625
Info: NONBONDED TABLE SIZE: 705 POINTS
TCL: Setting parameter alchLambda2 to 0.65
Info: NONBONDED TABLE R-SQUARED SPACING: 0.0625
Info: NONBONDED TABLE SIZE: 705 POINTS
TCL: Running for 1500000 steps
ETITLE: TS BOND ANGLE DIHED IMPRP ELECT VDW BOUNDARY MISC KINETIC TOTAL TEMP POTENTIAL TOTALAVG TEMPAVG PRESSURE GPRESSURE VOLUME PRESSAVG GPRESSAVG
ENERGY: 0 2.4993 7.4711 0.4050 0.0000 -10584.9494 1366.0532 0.0000 0.0000 1721.3299 -7487.1909 292.3431 -9208.5208 -7487.1909 292.3431 -944.0297 -858.3180 31310.4078 -944.0297 -858.3180
ENERGY: 300000 1.3192 6.2858 0.2614 0.0000 -10570.9608 1377.6622 0.0000 0.0000 1826.8899 -7358.5422 310.2710 -9185.4322 -7491.0897 299.9234 -283.3087 -257.7493 30809.3334 -546.1313 -495.5705
ENERGY: 600000 3.4783 6.2209 2.6636 0.0000 -10716.9729 1511.4516 0.0000 0.0000 1804.9106 -7388.2478 306.5381 -9193.1584 -7502.0818 299.8255 722.1942 729.7557 30595.5303 -229.7976 -183.9097
ENERGY: 900000 4.4081 3.9402 1.1137 0.0000 -10778.1370 1510.4704 0.0000 0.0000 1785.8324 -7472.3722 303.2979 -9258.2046 -7492.7487 300.7417 686.0312 750.2226 30248.0117 -114.1371 -59.0404
ENERGY: 1200000 1.8517 4.7801 0.4230 0.0000 -10681.4921 1418.5142 0.0000 0.0000 1765.4020 -7490.5211 299.8281 -9255.9232 -7498.3552 300.5833 107.3456 193.2745 30114.0346 -90.0097 -36.0766
ENERGY: 1500000 4.3244 3.1625 2.0998 0.0000 -10666.3643 1401.1575 0.0000 0.0000 1801.4006 -7454.2195 305.9420 -9255.6201 -7496.5670 300.3179 -291.6854 -273.1402 30393.5724 -68.0673 -13.9245
TCL: Running FEP window  14: Lambda1 0.65   Lambda2 0.7000000000000001 [dLambda 0.050000000000000044]
TCL: Setting parameter firsttimestep to 0
TCL: Setting parameter alchLambda to 0.65
Info: NONBONDED TABLE R-SQUARED SPACING: 0.0625
Info: NONBONDED TABLE SIZE: 705 POINTS
TCL: Setting parameter alchLambda2 to 0.7000000000000001
Info: NONBONDED TABLE R-SQUARED SPACING: 0.0625
Info: NONBONDED TABLE SIZE: 705 POINTS
TCL: Running for 1500000 steps
ETITLE: TS BOND ANGLE DIHED IMPRP ELECT VDW BOUNDARY MISC KINETIC TOTAL TEMP POTENTIAL TOTALAVG TEMPAVG PRESSURE GPRESSURE VOLUME PRESSAVG GPRESSAVG
ENERGY: 0 4.3244 3.1625 2.0998 0.0000 -10666.6168 1401.4329 0.0000 0.0000 1800.5119 -7455.0853 305.7910 -9255.5972 -7455.0853 305.7910 -342.2455 -266.3256 30393.5724 -342.2455 -266.3256
ENERGY: 300000 1.9398 3.6737 1.3119 0.0000 -10667.2328 1409.0383 0.0000 0.0000 1759.6191 -7491.6499 298.8460 -9251.2690 -7481.8757 301.5508 -348.9229 -334.6982 31095.8082 69.3132 124.4668
ENERGY: 600000 1.9229 7.0832 0.4954 0.0000 -10884.2240 1526.5245 0.0000 0.0000 1706.4883 -7641.7097 289.8225 -9348.1980 -7492.0345 299.5666 479.4223 505.1651 30165.8024 31.3927 84.4598
ENERGY: 900000 6.0552 6.9125 0.2678 0.0000 -10803.9387 1455.4641 0.0000 0.0000 1772.8718 -7562.3672 301.0967 -9335.2390 -7489.2674 300.6338 -202.4261 -170.6774 30203.6405 77.7085 132.1805
ENERGY: 1200000 2.8646 7.6585 0.9183 0.0000 -10772.5387 1478.8301 0.0000 0.0000 1781.7369 -7500.5303 302.6024 -9282.2673 -7484.6703 301.2793 643.3575 762.1256 29881.2819 69.1691 127.2046
ENERGY: 1500000 1.5739 8.6515 0.8144 0.0000 -10873.8308 1515.9965 0.0000 0.0000 1802.6730 -7544.1215 306.1580 -9346.7944 -7478.5855 302.2114 239.7197 244.9833 30697.5230 72.1020 127.4803
TCL: Running FEP window  15: Lambda1 0.7000000000000001 Lambda2 0.7500000000000001 [dLambda 0.050000000000000044]
TCL: Setting parameter firsttimestep to 0
TCL: Setting parameter alchLambda to 0.7000000000000001
Info: NONBONDED TABLE R-SQUARED SPACING: 0.0625
Info: NONBONDED TABLE SIZE: 705 POINTS
TCL: Setting parameter alchLambda2 to 0.7500000000000001
Info: NONBONDED TABLE R-SQUARED SPACING: 0.0625
Info: NONBONDED TABLE SIZE: 705 POINTS
TCL: Running for 1500000 steps
ETITLE: TS BOND ANGLE DIHED IMPRP ELECT VDW BOUNDARY MISC KINETIC TOTAL TEMP POTENTIAL TOTALAVG TEMPAVG PRESSURE GPRESSURE VOLUME PRESSAVG GPRESSAVG
ENERGY: 0 1.5739 8.6515 0.8144 0.0000 -10873.9922 1516.3851 0.0000 0.0000 1801.8041 -7544.7632 306.0105 -9346.5673 -7544.7632 306.0105 172.6349 254.7819 30697.5230 172.6349 254.7819
ENERGY: 300000 3.9904 6.2523 2.8774 0.0000 -10709.9832 1373.9139 0.0000 0.0000 1731.8436 -7591.1055 294.1287 -9322.9491 -7502.5505 299.9151 -874.4131 -789.9531 30682.0702 -370.2726 -302.1291
ENERGY: 600000 3.0815 6.7155 0.5005 0.0000 -10759.1318 1445.3415 0.0000 0.0000 1801.5701 -7501.9227 305.9708 -9303.4928 -7504.4814 300.5145 0.0426 6.9394 30160.6519 -272.5232 -211.6939
ENERGY: 900000 2.5568 7.5902 1.1108 0.0000 -10537.1719 1341.8427 0.0000 0.0000 1793.8016 -7390.2698 304.6514 -9184.0714 -7487.8473 300.9258 -726.3648 -613.9024 30991.8880 -263.9631 -204.1264
ENERGY: 1200000 2.2219 4.0125 2.1695 0.0000 -10666.9178 1462.3566 0.0000 0.0000 1780.1063 -7416.0511 302.3254 -9196.1574 -7471.7338 301.3666 210.5483 299.3821 30726.6803 -243.5401 -185.2074
ENERGY: 1500000 1.2638 7.4099 2.7564 0.0000 -10816.0311 1471.6125 0.0000 0.0000 1759.0096 -7573.9788 298.7425 -9332.9885 -7478.4446 300.6456 98.5888 127.6500 30411.9209 -153.8205 -94.5510
TCL: Running FEP window  16: Lambda1 0.7500000000000001 Lambda2 0.8000000000000002 [dLambda 0.050000000000000044]
TCL: Setting parameter firsttimestep to 0
TCL: Setting parameter alchLambda to 0.7500000000000001
Info: NONBONDED TABLE R-SQUARED SPACING: 0.0625
Info: NONBONDED TABLE SIZE: 705 POINTS
TCL: Setting parameter alchLambda2 to 0.8000000000000002
Info: NONBONDED TABLE R-SQUARED SPACING: 0.0625
Info: NONBONDED TABLE SIZE: 705 POINTS
TCL: Running for 1500000 steps
ETITLE: TS BOND ANGLE DIHED IMPRP ELECT VDW BOUNDARY MISC KINETIC TOTAL TEMP POTENTIAL TOTALAVG TEMPAVG PRESSURE GPRESSURE VOLUME PRESSAVG GPRESSAVG
ENERGY: 0 1.2638 7.4099 2.7564 0.0000 -10815.9709 1472.1786 0.0000 0.0000 1758.1610 -7574.2012 298.5983 -9332.3622 -7574.2012 298.5983 67.5058 139.6368 30411.9209 67.5058 139.6368
ENERGY: 300000 2.5816 8.8578 1.8024 0.0000 -10685.4535 1426.1238 0.0000 0.0000 1784.8548 -7461.2331 303.1319 -9246.0879 -7485.7015 300.6496 44.3886 82.4816 30586.1099 189.0358 244.9233
ENERGY: 600000 1.4407 6.8146 0.6075 0.0000 -10672.6153 1401.4922 0.0000 0.0000 1759.9617 -7502.2987 298.9041 -9262.2603 -7489.3696 299.7461 -583.3251 -484.8618 30933.6126 -29.5601 36.8048
ENERGY: 900000 2.3889 4.8398 1.0909 0.0000 -10934.1159 1594.5767 0.0000 0.0000 1753.7485 -7577.4710 297.8489 -9331.2196 -7506.1232 299.3240 1257.1386 1330.8887 29818.2156 154.7638 217.1641
ENERGY: 1200000 4.0819 3.3569 0.4173 0.0000 -10731.4301 1467.2959 0.0000 0.0000 1757.8192 -7498.4589 298.5403 -9256.2781 -7489.2646 299.4734 82.2686 161.9614 30421.0873 101.4834 168.9667
ENERGY: 1500000 2.6064 5.9568 1.2438 0.0000 -10810.5592 1489.3875 0.0000 0.0000 1763.5329 -7547.8318 299.5107 -9311.3647 -7493.1856 299.4642 78.6544 138.4698 30650.6982 60.0894 131.9102
TCL: Running FEP window  17: Lambda1 0.8000000000000002 Lambda2 0.8500000000000002 [dLambda 0.050000000000000044]
TCL: Setting parameter firsttimestep to 0
TCL: Setting parameter alchLambda to 0.8000000000000002
Info: NONBONDED TABLE R-SQUARED SPACING: 0.0625
Info: NONBONDED TABLE SIZE: 705 POINTS
TCL: Setting parameter alchLambda2 to 0.8500000000000002
Info: NONBONDED TABLE R-SQUARED SPACING: 0.0625
Info: NONBONDED TABLE SIZE: 705 POINTS
TCL: Running for 1500000 steps
ETITLE: TS BOND ANGLE DIHED IMPRP ELECT VDW BOUNDARY MISC KINETIC TOTAL TEMP POTENTIAL TOTALAVG TEMPAVG PRESSURE GPRESSURE VOLUME PRESSAVG GPRESSAVG
ENERGY: 0 2.6064 5.9568 1.2438 0.0000 -10811.0414 1489.3064 0.0000 0.0000 1762.6989 -7549.2291 299.3690 -9311.9280 -7549.2291 299.3690 80.8948 146.8847 30650.6982 80.8948 146.8847
ENERGY: 300000 1.1765 6.7466 0.3571 0.0000 -10799.9617 1501.4184 0.0000 0.0000 1737.3919 -7552.8712 295.0710 -9290.2630 -7510.8292 299.0513 556.0369 574.3409 30128.8472 153.4567 189.6994
ENERGY: 600000 1.0961 4.6364 1.2495 0.0000 -10683.9408 1419.6292 0.0000 0.0000 1737.0956 -7520.2341 295.0207 -9257.3297 -7495.7451 300.2937 -33.7743 35.1322 30244.8697 103.3700 161.4493
ENERGY: 900000 5.3902 6.2935 2.2623 0.0000 -10726.3592 1438.7655 0.0000 0.0000 1735.7912 -7537.8564 294.7991 -9273.6476 -7504.1101 299.4235 146.8157 237.8403 30070.4983 227.8935 290.5122
ENERGY: 1200000 4.3287 9.5807 1.3104 0.0000 -10734.4017 1401.8226 0.0000 0.0000 1740.4229 -7576.9364 295.5858 -9317.3593 -7510.4554 299.3048 -454.5234 -404.9680 30396.3366 136.2899 197.4957
ENERGY: 1500000 2.8048 4.6577 0.0548 0.0000 -10820.4722 1460.8829 0.0000 0.0000 1806.7682 -7545.3039 306.8536 -9352.0721 -7508.8641 299.5881 -106.4457 11.5009 30452.0841 126.3105 197.9006
TCL: Running FEP window  18: Lambda1 0.8500000000000002 Lambda2 0.9000000000000002 [dLambda 0.050000000000000044]
TCL: Setting parameter firsttimestep to 0
TCL: Setting parameter alchLambda to 0.8500000000000002
Info: NONBONDED TABLE R-SQUARED SPACING: 0.0625
Info: NONBONDED TABLE SIZE: 705 POINTS
TCL: Setting parameter alchLambda2 to 0.9000000000000002
Info: NONBONDED TABLE R-SQUARED SPACING: 0.0625
Info: NONBONDED TABLE SIZE: 705 POINTS
TCL: Running for 1500000 steps
ETITLE: TS BOND ANGLE DIHED IMPRP ELECT VDW BOUNDARY MISC KINETIC TOTAL TEMP POTENTIAL TOTALAVG TEMPAVG PRESSURE GPRESSURE VOLUME PRESSAVG GPRESSAVG
ENERGY: 0 2.8048 4.6577 0.0548 0.0000 -10820.8267 1460.8938 0.0000 0.0000 1805.8710 -7546.5446 306.7012 -9352.4156 -7546.5446 306.7012 -51.5605 20.7122 30452.0841 -51.5605 20.7122
ENERGY: 300000 4.1685 3.6762 0.1031 0.0000 -10582.2230 1320.3016 0.0000 0.0000 1827.5387 -7426.4349 310.3811 -9253.9736 -7460.3178 307.0090 -732.8313 -728.2240 30604.1518 -205.1123 -157.8021
ENERGY: 600000 1.3269 6.7976 0.9117 0.0000 -10702.8265 1427.3374 0.0000 0.0000 1830.6379 -7435.8149 310.9075 -9266.4528 -7461.3510 305.5146 -61.2111 40.7369 30335.5654 -172.9253 -111.8423
ENERGY: 900000 2.5580 7.3946 0.6253 0.0000 -10671.0801 1458.2412 0.0000 0.0000 1765.7036 -7436.5574 299.8793 -9202.2610 -7460.1248 305.2874 313.9641 370.8375 30369.4874 -269.8212 -207.5378
ENERGY: 1200000 2.5200 6.0976 0.8793 0.0000 -10722.8949 1464.7773 0.0000 0.0000 1787.0371 -7461.5837 303.5025 -9248.6208 -7460.1332 304.9428 321.0118 328.2193 30590.1005 -163.2923 -108.8576
ENERGY: 1500000 3.7035 6.3913 1.5166 0.0000 -10771.5365 1485.1870 0.0000 0.0000 1813.4314 -7461.3067 307.9852 -9274.7381 -7460.7276 304.4981 252.8224 340.7806 30449.1956 -74.8325 -23.5500
TCL: Running FEP window  19: Lambda1 0.9000000000000002 Lambda2 0.9500000000000003 [dLambda 0.050000000000000044]
TCL: Setting parameter firsttimestep to 0
TCL: Setting parameter alchLambda to 0.9000000000000002
Info: NONBONDED TABLE R-SQUARED SPACING: 0.0625
Info: NONBONDED TABLE SIZE: 705 POINTS
TCL: Setting parameter alchLambda2 to 0.9500000000000003
Info: NONBONDED TABLE R-SQUARED SPACING: 0.0625
Info: NONBONDED TABLE SIZE: 705 POINTS
TCL: Running for 1500000 steps
ETITLE: TS BOND ANGLE DIHED IMPRP ELECT VDW BOUNDARY MISC KINETIC TOTAL TEMP POTENTIAL TOTALAVG TEMPAVG PRESSURE GPRESSURE VOLUME PRESSAVG GPRESSAVG
ENERGY: 0 3.7035 6.3913 1.5166 0.0000 -10772.7744 1486.0266 0.0000 0.0000 1812.5532 -7462.5832 307.8361 -9275.1364 -7462.5832 307.8361 277.6947 361.8633 30449.1956 277.6947 361.8633
ENERGY: 300000 3.3330 4.0256 0.2585 0.0000 -10771.6754 1491.1190 0.0000 0.0000 1751.0541 -7521.8852 297.3913 -9272.9393 -7513.0767 299.8750 326.8243 354.1295 30669.8542 214.0302 253.3340
ENERGY: 600000 1.7972 6.8081 0.5760 0.0000 -10642.9552 1398.8208 0.0000 0.0000 1735.3454 -7499.6076 294.7234 -9234.9530 -7518.0757 299.2984 -111.6331 49.4043 30288.3954 -31.2191 30.5281
ENERGY: 900000 7.0080 4.8315 0.7669 0.0000 -10697.7496 1444.0418 0.0000 0.0000 1831.5204 -7409.5810 311.0574 -9241.1014 -7489.3706 300.0031 -47.5160 91.5513 30396.9321 61.4231 117.3636
ENERGY: 1200000 3.2432 5.4917 0.2436 0.0000 -10816.3116 1502.7241 0.0000 0.0000 1775.7019 -7528.9070 301.5774 -9304.6089 -7497.4468 299.7206 560.9713 590.9387 30168.7814 146.9819 201.7140
ENERGY: 1500000 3.0301 2.9907 0.9187 0.0000 -10760.7451 1472.1143 0.0000 0.0000 1741.0162 -7540.6751 295.6865 -9281.6913 -7503.0399 300.2142 -177.7897 -123.6157 30971.2702 58.5242 121.7056
TCL: Running FEP window  20: Lambda1 0.9500000000000003 Lambda2 1.0    [dLambda 0.04999999999999971]
TCL: Setting parameter firsttimestep to 0
TCL: Setting parameter alchLambda to 0.9500000000000003
Info: NONBONDED TABLE R-SQUARED SPACING: 0.0625
Info: NONBONDED TABLE SIZE: 705 POINTS
TCL: Setting parameter alchLambda2 to 1.0
Info: NONBONDED TABLE R-SQUARED SPACING: 0.0625
Info: NONBONDED TABLE SIZE: 705 POINTS
TCL: Running for 1500000 steps
ETITLE: TS BOND ANGLE DIHED IMPRP ELECT VDW BOUNDARY MISC KINETIC TOTAL TEMP POTENTIAL TOTALAVG TEMPAVG PRESSURE GPRESSURE VOLUME PRESSAVG GPRESSAVG
ENERGY: 0 3.0301 2.9907 0.9187 0.0000 -10761.4259 1473.7345 0.0000 0.0000 1740.1447 -7540.6072 295.5385 -9280.7519 -7540.6072 295.5385 -173.1359 -88.5724 30971.2702 -173.1359 -88.5724
ENERGY: 300000 4.1906 4.4390 0.4978 0.0000 -10602.7377 1349.7959 0.0000 0.0000 1715.8092 -7528.0050 291.4055 -9243.8143 -7505.6471 294.6368 -613.1003 -544.4741 30492.9439 -342.7848 -285.9230
ENERGY: 600000 1.2990 5.8071 1.4285 0.0000 -10582.7277 1316.3423 0.0000 0.0000 1750.7080 -7507.1428 297.3325 -9257.8508 -7495.6519 298.0575 -957.0689 -904.9040 30879.3761 -390.7930 -337.1626
ENERGY: 900000 4.0006 5.7093 1.4533 0.0000 -10547.2322 1312.3479 0.0000 0.0000 1761.2767 -7462.4445 299.1275 -9223.7211 -7495.4229 298.4959 -1063.1143 -1024.6477 31138.5524 -431.9098 -383.4505
ENERGY: 1200000 0.7625 2.4300 0.1545 0.0000 -10954.7868 1565.0947 0.0000 0.0000 1858.9818 -7527.3633 315.7213 -9386.3451 -7502.1002 300.5340 922.6556 956.7030 30278.9356 -245.3037 -193.3319
ENERGY: 1500000 3.5479 4.1540 0.4875 0.0000 -10761.7079 1449.9441 0.0000 0.0000 1744.6898 -7558.8845 296.3104 -9303.5743 -7504.1254 300.4255 -79.3084 -90.7282 30711.0477 -279.0684 -229.5743
TCL: Exiting due to exit command.
