Info: SIMULATION PARAMETERS:
Info: TIMESTEP               2
Info: NUMBER OF STEPS        0
Info: STEPS PER CYCLE        10
Info: PERIODIC CELL BASIS 1  30.4663 0 0
Info: PERIODIC CELL BASIS 2  0 30.126 0
Info: PERIODIC CELL BASIS 3  0 0 32.1687
Info: PERIODIC CELL CENTER   0 0 0
Info: WRAPPING WATERS AROUND PERIODIC BOUNDARIES ON OUTPUT.
Info: WRAPPING ALL CLUSTERS AROUND PERIODIC BOUNDARIES ON OUTPUT.
Info: FIRST LDB TIMESTEP     50
Info: LAST LDB TIMESTEP     -1
Info: HOM BACKGROUND SCALING 1
Info: PME BACKGROUND SCALING 1
Info: MIN ATOMS PER PATCH    40
Info: EMPTY PATCH LOAD       40 ATOMS
Info: VELOCITY FILE          mobley_1903702_equil.vel
Info: CENTER OF MASS MOVING INITIALLY? NO
Info: DIELECTRIC             1
Info: EXCLUDE                SCALED ONE-FOUR
Info: 1-4 ELECTROSTATICS SCALED BY 0.833333
Info: MODIFIED 1-4 VDW PARAMETERS WILL BE USED
Info: DCD FILENAME           mobley_1903702_prod.dcd
Info: DCD FREQUENCY          100000
Info: DCD FIRST STEP         100000
Info: DCD FILE WILL CONTAIN UNIT CELL DATA
Info: XST FILENAME           mobley_1903702_prod.xst
Info: XST FREQUENCY          100000
Info: NO VELOCITY DCD OUTPUT
Info: NO FORCE DCD OUTPUT
Info: OUTPUT FILENAME        mobley_1903702_prod
Info: BINARY OUTPUT FILES WILL BE USED
Info: RESTART FILENAME       mobley_1903702_prod.restart
Info: RESTART FREQUENCY      100000
Info: BINARY RESTART FILES WILL BE USED
Info: CUTOFF                 9
Info: PAIRLIST DISTANCE      11
Info: PAIRLIST SHRINK RATE   0.01
Info: PAIRLIST GROW RATE     0.01
Info: PAIRLIST TRIGGER       0.3
Info: PAIRLISTS PER CYCLE    2
Info: PAIRLISTS ENABLED
Info: MARGIN                 2
Info: HYDROGEN GROUP CUTOFF  2.5
Info: PATCH DIMENSION        15.5
Info: ENERGY OUTPUT STEPS    100000
Info: ENERGY EVALUATION STEPS    100000
Info: OUTPUT ENERGY PRECISION 4
Info: CROSSTERM ENERGY INCLUDED IN DIHEDRAL
Info: TIMING OUTPUT STEPS    1000000
Info: PRESSURE OUTPUT STEPS  100000
Info: ALCHEMICAL FEP ON
Info: FEP CURRENT LAMBDA VALUE     1
Info: FEP COMPARISON LAMBDA VALUE  0.95
Info: FEP INTRA-ALCHEMICAL NON-BONDED INTERACTIONS WILL BE RETAINED
Info: FEP INTRA-ALCHEMICAL BONDED INTERACTIONS WILL BE RETAINED
Info: FEP VDW SHIFTING COEFFICIENT 5
Info: FEP ELEC. ACTIVE FOR ANNIHILATED PARTICLES BETWEEN LAMBDA = 0 AND LAMBDA = 0.5
Info: FEP ELEC. ACTIVE FOR EXNIHILATED PARTICLES BETWEEN LAMBDA = 0.5 AND LAMBDA = 1
Info: FEP VDW ACTIVE FOR ANNIHILATED PARTICLES BETWEEN LAMBDA = 0 AND LAMBDA = 1
Info: FEP VDW ACTIVE FOR EXNIHILATED PARTICLES BETWEEN LAMBDA = 0 AND LAMBDA = 1
Info: FEP BOND ACTIVE FOR ANNIHILATED PARTICLES BETWEEN LAMBDA = 1 AND LAMBDA = 1
Info: FEP BOND ACTIVE FOR EXNIHILATED PARTICLES BETWEEN LAMBDA = 0 AND LAMBDA = 0
Info: LANGEVIN DYNAMICS ACTIVE
Info: LANGEVIN TEMPERATURE   300
Info: LANGEVIN USING BBK INTEGRATOR
Info: LANGEVIN DAMPING COEFFICIENT IS 1 INVERSE PS
Info: LANGEVIN DYNAMICS APPLIED TO HYDROGENS
Info: LANGEVIN PISTON PRESSURE CONTROL ACTIVE
Info:        TARGET PRESSURE IS 1.01325 BAR
Info:     OSCILLATION PERIOD IS 50 FS
Info:             DECAY TIME IS 25 FS
Info:     PISTON TEMPERATURE IS 300 K
Info:       PRESSURE CONTROL IS GROUP-BASED
Info:    INITIAL STRAIN RATE IS -0.000188696 -0.000188696 -0.000188696
Info:       CELL FLUCTUATION IS ISOTROPIC
Info: PARTICLE MESH EWALD (PME) ACTIVE
Info: PME TOLERANCE               1e-06
Info: PME EWALD COEFFICIENT       0.348832
Info: PME INTERPOLATION ORDER     4
Info: PME GRID DIMENSIONS         32 32 36
Info: PME MAXIMUM GRID SPACING    1
Info: PME CALCULATION WILL BE PERFORMED ON GPU
Info: FULL ELECTROSTATIC EVALUATION FREQUENCY      2
Info: USING VERLET I (r-RESPA) MTS SCHEME.
Info: C1 SPLITTING OF LONG RANGE ELECTROSTATICS
Info: PLACING ATOMS IN PATCHES BY HYDROGEN GROUPS
Info: RIGID BONDS TO HYDROGEN : ALL
Info:         ERROR TOLERANCE : 1e-08
Info:          MAX ITERATIONS : 100
Info: RIGID WATER USING SETTLE ALGORITHM
Info: RANDOM NUMBER SEED     1743740574
Info: USE HYDROGEN BONDS?    NO
Info: Using AMBER format force field!
Info: AMBER PARM FILE        mobley_1903702.prmtop
Info: COORDINATE PDB         mobley_1903702.pdb
Info: Exclusions will be read from PARM file!
Info: SCNB (VDW SCALING)     2
Info: USING ARITHMETIC MEAN TO COMBINE L-J SIGMA PARAMETERS
Info: BINARY COORDINATES     mobley_1903702_equil.coor
Info: SUMMARY OF PARAMETERS:
Info: 7 BONDS
Info: 7 ANGLES
Info:   7 HARMONIC
Info:   0 COSINE-BASED
Info: 9 DIHEDRAL
Info: 0 IMPROPER
Info: 0 CROSSTERM
Info: 0 VDW
Info: 21 VDW_PAIRS
Info: 0 NBTHOLE_PAIRS
Info: To read alchdata from file: mobley_1903702.pdb
Info: To read alchflag data from column: 5
Info: STRUCTURE SUMMARY:
Info: 2910 ATOMS
Info: 2909 BONDS
Info: 25 ANGLES
Info: 39 DIHEDRALS
Info: 0 IMPROPERS
Info: 0 CROSSTERMS
Info: 2964 EXCLUSIONS
Info: 2905 RIGID BONDS
Info: ALCH: 0 ATOMS TO DISAPPEAR IN FINAL STATE
Info: ALCH: 15 ATOMS TO APPEAR IN FINAL STATE
Info: 5825 DEGREES OF FREEDOM
Info: 970 HYDROGEN GROUPS
Info: 4 ATOMS IN LARGEST HYDROGEN GROUP
Info: 970 MIGRATION GROUPS
Info: 4 ATOMS IN LARGEST MIGRATION GROUP
Info: TOTAL MASS = 17459.6 amu
Info: TOTAL CHARGE = 0.00010002 e
Info: MASS DENSITY = 0.981965 g/cm^3
Info: ATOM DENSITY = 0.098559 atoms/A^3
Info: ADDED 0 IMPLICIT EXCLUSIONS
Info: NONBONDED TABLE R-SQUARED SPACING: 0.0625
Info: NONBONDED TABLE SIZE: 705 POINTS
Info: REMOVING COM VELOCITY 0.0869828 -0.261155 0.00660815
Info: Use 3D box decompostion in PME FFT.
Info: Updated CUDA force table with 4096 elements.
Info: Updated CUDA LJ table with 6 x 6 elements.
Info: Found 18 unique exclusion lists needing 40 bytes
TCL: Running for 1500000 steps
ETITLE: TS BOND ANGLE DIHED IMPRP ELECT VDW BOUNDARY MISC KINETIC TOTAL TEMP POTENTIAL TOTALAVG TEMPAVG PRESSURE GPRESSURE VOLUME PRESSAVG GPRESSAVG
ENERGY: 0 0.8952 9.4974 3.5307 0.0000 -10517.4745 1408.2507 0.0000 0.0000 1734.3412 -7360.9593 299.6602 -9095.3005 -7360.9593 299.6602 254.6997 342.4490 29525.4595 254.6997 342.4490
ENERGY: 300000 1.0972 10.1985 2.4325 0.0000 -10700.0877 1546.0376 0.0000 0.0000 1759.0195 -7381.3024 303.9241 -9140.3219 -7381.4101 301.0995 928.6745 986.1966 29771.0550 178.1695 244.3784
ENERGY: 600000 2.1009 3.3737 2.8927 0.0000 -10423.0542 1372.7263 0.0000 0.0000 1705.0534 -7336.9072 294.5998 -9041.9606 -7392.0926 299.2539 -293.7863 -248.1019 30116.3472 36.4258 88.4066
ENERGY: 900000 2.9513 9.2822 2.7197 0.0000 -10551.8019 1422.4669 0.0000 0.0000 1718.7477 -7395.6342 296.9659 -9114.3819 -7388.2761 298.3544 168.9139 198.4905 29554.9000 101.5287 151.3081
ENERGY: 1200000 2.2415 5.4578 3.1270 0.0000 -10526.0816 1385.4974 0.0000 0.0000 1721.8878 -7407.8701 297.5085 -9129.7579 -7389.7169 298.6642 -533.8941 -439.0363 30152.9818 28.2509 76.8010
ENERGY: 1500000 3.6666 4.7954 4.6118 0.0000 -10627.9724 1493.9613 0.0000 0.0000 1798.2503 -7322.6869 310.7024 -9120.9373 -7381.2682 300.6529 652.8619 705.0344 29875.5689 49.6088 98.2468
TCL: Running FEP window   2: Lambda1 0.95   Lambda2 0.8999999999999999 [dLambda -0.050000000000000044]
TCL: Setting parameter firsttimestep to 0
TCL: Setting parameter alchLambda to 0.95
Info: NONBONDED TABLE R-SQUARED SPACING: 0.0625
Info: NONBONDED TABLE SIZE: 705 POINTS
TCL: Setting parameter alchLambda2 to 0.8999999999999999
Info: NONBONDED TABLE R-SQUARED SPACING: 0.0625
Info: NONBONDED TABLE SIZE: 705 POINTS
TCL: Running for 1500000 steps
ETITLE: TS BOND ANGLE DIHED IMPRP ELECT VDW BOUNDARY MISC KINETIC TOTAL TEMP POTENTIAL TOTALAVG TEMPAVG PRESSURE GPRESSURE VOLUME PRESSAVG GPRESSAVG
ENERGY: 0 3.6666 4.7954 4.6118 0.0000 -10626.5898 1492.8019 0.0000 0.0000 1797.3551 -7323.3590 310.5477 -9120.7141 -7323.3590 310.5477 596.6893 683.2567 29875.5689 596.6893 683.2567
ENERGY: 300000 1.6381 6.7909 2.2496 0.0000 -10605.3769 1438.0002 0.0000 0.0000 1793.5084 -7363.1897 309.8831 -9156.6981 -7351.6588 309.5767 417.2375 445.7612 29425.4451 -102.6401 -48.6824
ENERGY: 600000 2.3318 5.3724 2.7875 0.0000 -10520.6404 1419.0043 0.0000 0.0000 1769.8330 -7321.3114 305.7924 -9091.1444 -7345.3631 305.2470 153.9207 204.1886 29956.6897 70.0789 117.5607
ENERGY: 900000 1.1245 7.3105 3.7812 0.0000 -10535.5231 1359.6608 0.0000 0.0000 1713.3380 -7450.3082 296.0312 -9163.6462 -7360.8566 303.4795 -487.3938 -406.3437 29757.2941 -158.2239 -97.4843
ENERGY: 1200000 0.3602 5.9466 2.9271 0.0000 -10482.0744 1345.3882 0.0000 0.0000 1734.3644 -7393.0879 299.6642 -9127.4524 -7373.8199 301.7373 -684.1555 -655.2446 30364.2522 -258.0612 -202.7871
ENERGY: 1500000 0.8335 6.7606 3.3554 0.0000 -10576.2062 1436.5959 0.0000 0.0000 1775.8633 -7352.7975 306.8343 -9128.6608 -7371.8599 301.9681 -43.6328 53.5120 30197.0250 -235.3159 -177.4277
TCL: Running FEP window   3: Lambda1 0.8999999999999999 Lambda2 0.8499999999999999 [dLambda -0.050000000000000044]
TCL: Setting parameter firsttimestep to 0
TCL: Setting parameter alchLambda to 0.8999999999999999
Info: NONBONDED TABLE R-SQUARED SPACING: 0.0625
Info: NONBONDED TABLE SIZE: 705 POINTS
TCL: Setting parameter alchLambda2 to 0.8499999999999999
Info: NONBONDED TABLE R-SQUARED SPACING: 0.0625
Info: NONBONDED TABLE SIZE: 705 POINTS
TCL: Running for 1500000 steps
ETITLE: TS BOND ANGLE DIHED IMPRP ELECT VDW BOUNDARY MISC KINETIC TOTAL TEMP POTENTIAL TOTALAVG TEMPAVG PRESSURE GPRESSURE VOLUME PRESSAVG GPRESSAVG
ENERGY: 0 0.8335 6.7606 3.3554 0.0000 -10574.6754 1436.6059 0.0000 0.0000 1774.9929 -7352.1271 306.6840 -9127.1200 -7352.1271 306.6840 -37.4117 48.1322 30197.0250 -37.4117 48.1322
ENERGY: 300000 3.8751 6.3391 3.6843 0.0000 -10631.0746 1463.0240 0.0000 0.0000 1777.4558 -7376.6965 307.1095 -9154.1523 -7366.4213 303.4393 273.0603 370.4388 29729.9520 79.7587 153.8348
ENERGY: 600000 0.8486 7.8472 4.1457 0.0000 -10582.8030 1444.2710 0.0000 0.0000 1711.3984 -7414.2922 295.6961 -9125.6906 -7376.5972 300.9064 264.2060 273.7263 30040.6260 -53.8842 -2.5962
ENERGY: 900000 1.7294 5.2653 3.3793 0.0000 -10419.9681 1336.6026 0.0000 0.0000 1750.5933 -7322.3981 302.4682 -9072.9914 -7383.0991 301.6537 -755.4588 -652.0423 30220.8099 2.2515 63.6076
ENERGY: 1200000 2.2220 6.2029 2.7323 0.0000 -10702.6582 1470.7262 0.0000 0.0000 1685.5451 -7535.2297 291.2291 -9220.7748 -7393.1008 300.8288 -160.8827 -131.5321 30145.8565 10.8260 72.5013
ENERGY: 1500000 1.7801 9.3053 4.0464 0.0000 -10583.8383 1467.3951 0.0000 0.0000 1773.0606 -7328.2508 306.3501 -9101.3114 -7387.5883 301.4784 594.5485 604.9919 30173.3003 22.1177 81.9489
TCL: Running FEP window   4: Lambda1 0.8499999999999999 Lambda2 0.7999999999999998 [dLambda -0.050000000000000044]
TCL: Setting parameter firsttimestep to 0
TCL: Setting parameter alchLambda to 0.8499999999999999
Info: NONBONDED TABLE R-SQUARED SPACING: 0.0625
Info: NONBONDED TABLE SIZE: 705 POINTS
TCL: Setting parameter alchLambda2 to 0.7999999999999998
Info: NONBONDED TABLE R-SQUARED SPACING: 0.0625
Info: NONBONDED TABLE SIZE: 705 POINTS
TCL: Running for 1500000 steps
ETITLE: TS BOND ANGLE DIHED IMPRP ELECT VDW BOUNDARY MISC KINETIC TOTAL TEMP POTENTIAL TOTALAVG TEMPAVG PRESSURE GPRESSURE VOLUME PRESSAVG GPRESSAVG
ENERGY: 0 1.7801 9.3053 4.0464 0.0000 -10582.3606 1466.8839 0.0000 0.0000 1772.2033 -7328.1416 306.2020 -9100.3449 -7328.1416 306.2020 512.4537 592.4899 30173.3003 512.4537 592.4899
ENERGY: 300000 0.9051 5.7717 4.0108 0.0000 -10547.4568 1458.2356 0.0000 0.0000 1742.8655 -7335.6681 301.1330 -9078.5336 -7357.7095 304.5790 505.1891 564.3129 29845.7402 260.1863 347.4875
ENERGY: 600000 0.9861 4.2540 3.1119 0.0000 -10421.5413 1349.3544 0.0000 0.0000 1778.9448 -7284.8902 307.3668 -9063.8349 -7347.7009 303.1943 -405.0106 -333.9389 30039.4737 137.7205 209.7620
ENERGY: 900000 1.7151 6.4319 3.3571 0.0000 -10622.4302 1437.2042 0.0000 0.0000 1744.2255 -7429.4963 301.3680 -9173.7218 -7347.3619 304.6393 -2.0740 59.9582 29777.2681 195.2830 257.6095
ENERGY: 1200000 1.0316 5.7929 3.4691 0.0000 -10797.4401 1539.6777 0.0000 0.0000 1762.9564 -7484.5125 304.6043 -9247.4689 -7362.5984 303.4400 662.1026 701.5050 29575.7217 199.5748 260.5251
ENERGY: 1500000 2.1138 4.8490 2.8284 0.0000 -10499.0071 1359.1364 0.0000 0.0000 1707.7425 -7422.3369 295.0644 -9130.0794 -7371.2175 302.2818 -501.3638 -413.4832 29902.1747 80.8211 150.3639
TCL: Running FEP window   5: Lambda1 0.7999999999999998 Lambda2 0.7499999999999998 [dLambda -0.050000000000000044]
TCL: Setting parameter firsttimestep to 0
TCL: Setting parameter alchLambda to 0.7999999999999998
Info: NONBONDED TABLE R-SQUARED SPACING: 0.0625
Info: NONBONDED TABLE SIZE: 705 POINTS
TCL: Setting parameter alchLambda2 to 0.7499999999999998
Info: NONBONDED TABLE R-SQUARED SPACING: 0.0625
Info: NONBONDED TABLE SIZE: 705 POINTS
TCL: Running for 1500000 steps
ETITLE: TS BOND ANGLE DIHED IMPRP ELECT VDW BOUNDARY MISC KINETIC TOTAL TEMP POTENTIAL TOTALAVG TEMPAVG PRESSURE GPRESSURE VOLUME PRESSAVG GPRESSAVG
ENERGY: 0 2.1138 4.8490 2.8284 0.0000 -10498.0134 1359.2459 0.0000 0.0000 1706.8587 -7422.1175 294.9117 -9128.9762 -7422.1175 294.9117 -514.7828 -415.6118 29902.1747 -514.7828 -415.6118
ENERGY: 300000 1.6107 5.6630 4.3507 0.0000 -10540.5725 1400.5364 0.0000 0.0000 1687.6909 -7440.7207 291.5999 -9128.4116 -7396.6463 294.6601 -92.2519 -22.5777 29918.6521 75.9922 154.8625
ENERGY: 600000 2.2300 8.0684 3.0441 0.0000 -10700.6580 1504.4095 0.0000 0.0000 1727.4845 -7455.4215 298.4754 -9182.9060 -7407.3813 296.0027 345.1948 474.9204 29926.5294 192.6556 257.5499
ENERGY: 900000 1.8606 3.5043 3.4368 0.0000 -10628.4078 1431.3300 0.0000 0.0000 1774.1027 -7414.1734 306.5302 -9188.2761 -7419.6877 297.3647 -129.6887 -100.3533 30034.5978 58.9817 126.4193
ENERGY: 1200000 1.0138 5.5213 3.8253 0.0000 -10608.1603 1460.9963 0.0000 0.0000 1747.8036 -7389.0000 301.9862 -9136.8036 -7410.5904 297.7430 526.5529 528.0683 29773.4898 13.2108 73.2130
ENERGY: 1500000 1.8728 7.7589 3.7687 0.0000 -10365.2421 1305.4773 0.0000 0.0000 1706.8356 -7339.5289 294.9077 -9046.3645 -7394.9394 298.6910 -863.2363 -801.7717 30231.2388 -18.1320 51.2107
TCL: Running FEP window   6: Lambda1 0.7499999999999998 Lambda2 0.6999999999999997 [dLambda -0.050000000000000044]
TCL: Setting parameter firsttimestep to 0
TCL: Setting parameter alchLambda to 0.7499999999999998
Info: NONBONDED TABLE R-SQUARED SPACING: 0.0625
Info: NONBONDED TABLE SIZE: 705 POINTS
TCL: Setting parameter alchLambda2 to 0.6999999999999997
Info: NONBONDED TABLE R-SQUARED SPACING: 0.0625
Info: NONBONDED TABLE SIZE: 705 POINTS
TCL: Running for 1500000 steps
ETITLE: TS BOND ANGLE DIHED IMPRP ELECT VDW BOUNDARY MISC KINETIC TOTAL TEMP POTENTIAL TOTALAVG TEMPAVG PRESSURE GPRESSURE VOLUME PRESSAVG GPRESSAVG
ENERGY: 0 1.8728 7.7589 3.7687 0.0000 -10364.0131 1304.6411 0.0000 0.0000 1705.9749 -7339.9967 294.7590 -9045.9717 -7339.9967 294.7590 -899.9450 -816.2405 30231.2388 -899.9450 -816.2405
ENERGY: 300000 0.9739 5.5264 4.2309 0.0000 -10615.7176 1479.2520 0.0000 0.0000 1738.7026 -7387.0319 300.4137 -9125.7345 -7358.6316 303.5839 518.5683 603.5089 29489.9738 25.2793 106.2127
ENERGY: 600000 0.5889 4.3693 2.1421 0.0000 -10578.4376 1427.8968 0.0000 0.0000 1736.3059 -7407.1346 299.9996 -9143.4405 -7355.3762 302.1017 1.0745 158.0311 29801.4087 -71.4509 20.0257
ENERGY: 900000 1.0178 5.7327 2.3612 0.0000 -10725.7879 1503.0629 0.0000 0.0000 1790.9421 -7422.6712 309.4397 -9213.6133 -7377.2519 301.1753 440.4952 499.0908 29792.9178 -44.6448 38.9971
ENERGY: 1200000 1.8886 3.3083 2.9113 0.0000 -10650.7026 1439.7249 0.0000 0.0000 1811.4908 -7391.3787 312.9901 -9202.8696 -7381.8223 301.0008 -154.8855 -75.0752 30205.2981 -50.9028 28.0766
ENERGY: 1500000 1.0353 3.9503 2.0300 0.0000 -10528.6196 1439.1171 0.0000 0.0000 1695.5317 -7386.9552 292.9546 -9082.4869 -7385.8260 300.5936 334.4212 396.3356 29888.6280 -23.0154 52.8721
TCL: Running FEP window   7: Lambda1 0.6999999999999997 Lambda2 0.6499999999999997 [dLambda -0.050000000000000044]
TCL: Setting parameter firsttimestep to 0
TCL: Setting parameter alchLambda to 0.6999999999999997
Info: NONBONDED TABLE R-SQUARED SPACING: 0.0625
Info: NONBONDED TABLE SIZE: 705 POINTS
TCL: Setting parameter alchLambda2 to 0.6499999999999997
Info: NONBONDED TABLE R-SQUARED SPACING: 0.0625
Info: NONBONDED TABLE SIZE: 705 POINTS
TCL: Running for 1500000 steps
ETITLE: TS BOND ANGLE DIHED IMPRP ELECT VDW BOUNDARY MISC KINETIC TOTAL TEMP POTENTIAL TOTALAVG TEMPAVG PRESSURE GPRESSURE VOLUME PRESSAVG GPRESSAVG
ENERGY: 0 1.0353 3.9503 2.0300 0.0000 -10527.6269 1439.5707 0.0000 0.0000 1694.6817 -7386.3588 292.8078 -9081.0405 -7386.3588 292.8078 316.1696 397.8066 29888.6280 316.1696 397.8066
ENERGY: 300000 0.8328 4.5935 4.1377 0.0000 -10599.3614 1441.4628 0.0000 0.0000 1789.7886 -7358.5460 309.2404 -9148.3347 -7340.6770 301.2373 59.0597 124.8226 29964.5729 -118.6844 -39.1349
ENERGY: 600000 1.6208 5.6520 2.6416 0.0000 -10577.4023 1415.6628 0.0000 0.0000 1754.3692 -7397.4558 303.1206 -9151.8250 -7338.7020 301.3141 -84.6236 18.4093 29969.6479 -118.6195 -43.5116
ENERGY: 900000 0.8098 5.1729 2.7461 0.0000 -10759.3310 1514.4220 0.0000 0.0000 1729.6086 -7506.5715 298.8425 -9236.1802 -7371.9729 301.2499 440.9592 529.0051 29567.6308 32.9547 98.8676
ENERGY: 1200000 1.5880 6.3838 4.5282 0.0000 -10422.7819 1418.0112 0.0000 0.0000 1832.0842 -7160.1865 316.5482 -8992.2707 -7353.4590 302.5927 388.5873 398.0193 30600.0685 96.8023 161.4478
ENERGY: 1500000 0.9319 4.6244 2.0911 0.0000 -10581.1551 1415.2587 0.0000 0.0000 1784.2340 -7374.0149 308.2807 -9158.2490 -7358.2521 302.5982 -209.5040 -161.0832 30088.1606 86.9443 145.4024
TCL: Running FEP window   8: Lambda1 0.6499999999999997 Lambda2 0.5999999999999996 [dLambda -0.050000000000000044]
TCL: Setting parameter firsttimestep to 0
TCL: Setting parameter alchLambda to 0.6499999999999997
Info: NONBONDED TABLE R-SQUARED SPACING: 0.0625
Info: NONBONDED TABLE SIZE: 705 POINTS
TCL: Setting parameter alchLambda2 to 0.5999999999999996
Info: NONBONDED TABLE R-SQUARED SPACING: 0.0625
Info: NONBONDED TABLE SIZE: 705 POINTS
TCL: Running for 1500000 steps
ETITLE: TS BOND ANGLE DIHED IMPRP ELECT VDW BOUNDARY MISC KINETIC TOTAL TEMP POTENTIAL TOTALAVG TEMPAVG PRESSURE GPRESSURE VOLUME PRESSAVG GPRESSAVG
ENERGY: 0 0.9319 4.6244 2.0911 0.0000 -10579.3985 1415.0075 0.0000 0.0000 1783.3370 -7373.4066 308.1257 -9156.7435 -7373.4066 308.1257 -262.4252 -165.7717 30088.1606 -262.4252 -165.7717
ENERGY: 300000 0.6868 5.5330 2.9380 0.0000 -10455.6086 1374.5841 0.0000 0.0000 1667.5634 -7404.3032 288.1223 -9071.8667 -7365.2199 302.2549 -363.6534 -355.9803 30074.4474 53.0566 111.0740
ENERGY: 600000 1.0050 2.6879 2.6472 0.0000 -10455.4705 1433.5234 0.0000 0.0000 1800.1038 -7215.5032 311.0226 -9015.6070 -7350.0286 302.4077 624.5545 632.8005 29626.1887 130.0654 181.8970
ENERGY: 900000 1.3517 10.0287 2.4423 0.0000 -10694.5541 1494.2578 0.0000 0.0000 1720.3729 -7466.1006 297.2467 -9186.4736 -7369.8749 300.5329 487.0961 637.8764 29596.0681 291.8903 361.2710
ENERGY: 1200000 1.5359 4.4724 4.8391 0.0000 -10484.3265 1365.7112 0.0000 0.0000 1734.7836 -7372.9843 299.7366 -9107.7679 -7363.8246 301.5242 12.0572 -6.9084 29479.0479 292.4343 348.8137
ENERGY: 1500000 0.7533 6.3870 2.4781 0.0000 -10455.0011 1308.9877 0.0000 0.0000 1748.7430 -7387.6520 302.1485 -9136.3950 -7368.4031 301.8393 -866.1785 -896.1016 30243.9976 206.9743 255.1226
TCL: Running FEP window   9: Lambda1 0.5999999999999996 Lambda2 0.5499999999999996 [dLambda -0.050000000000000044]
TCL: Setting parameter firsttimestep to 0
TCL: Setting parameter alchLambda to 0.5999999999999996
Info: NONBONDED TABLE R-SQUARED SPACING: 0.0625
Info: NONBONDED TABLE SIZE: 705 POINTS
TCL: Setting parameter alchLambda2 to 0.5499999999999996
Info: NONBONDED TABLE R-SQUARED SPACING: 0.0625
Info: NONBONDED TABLE SIZE: 705 POINTS
TCL: Running for 1500000 steps
ETITLE: TS BOND ANGLE DIHED IMPRP ELECT VDW BOUNDARY MISC KINETIC TOTAL TEMP POTENTIAL TOTALAVG TEMPAVG PRESSURE GPRESSURE VOLUME PRESSAVG GPRESSAVG
ENERGY: 0 0.7533 6.3870 2.4781 0.0000 -10455.0558 1309.3556 0.0000 0.0000 1747.8794 -7388.2024 301.9993 -9136.0819 -7388.2024 301.9993 -972.9851 -897.7475 30243.9976 -972.9851 -897.7475
ENERGY: 300000 1.2728 5.5266 3.7105 0.0000 -10551.0073 1455.7354 0.0000 0.0000 1749.2748 -7335.4872 302.2404 -9084.7620 -7349.0235 302.4556 159.5687 238.8302 30241.6085 -218.2508 -168.0658
ENERGY: 600000 2.2311 3.3244 3.7740 0.0000 -10459.0551 1334.7524 0.0000 0.0000 1759.4662 -7355.5071 304.0013 -9114.9733 -7364.4157 302.3208 -534.3494 -512.9448 30157.2338 -189.9136 -143.9512
ENERGY: 900000 1.6034 3.8628 4.5600 0.0000 -10472.3635 1389.8317 0.0000 0.0000 1705.4653 -7367.0402 294.6710 -9072.5055 -7360.6421 301.7351 -404.5326 -353.3942 30521.2821 -92.2197 -42.6830
ENERGY: 1200000 1.1198 7.6552 4.1524 0.0000 -10644.5801 1380.2542 0.0000 0.0000 1732.4435 -7518.9550 299.3323 -9251.3985 -7374.4481 301.5381 -807.2474 -731.6109 29988.1853 -156.1775 -104.3639
ENERGY: 1500000 0.2481 6.2929 3.9343 0.0000 -10527.2888 1377.6916 0.0000 0.0000 1685.9012 -7453.2207 291.2907 -9139.1218 -7385.9694 300.3117 -320.8221 -312.9027 29821.0799 -112.8853 -60.5322
TCL: Running FEP window  10: Lambda1 0.5499999999999996 Lambda2 0.4999999999999996 [dLambda -0.04999999999999999]
TCL: Setting parameter firsttimestep to 0
TCL: Setting parameter alchLambda to 0.5499999999999996
Info: NONBONDED TABLE R-SQUARED SPACING: 0.0625
Info: NONBONDED TABLE SIZE: 705 POINTS
TCL: Setting parameter alchLambda2 to 0.4999999999999996
Info: NONBONDED TABLE R-SQUARED SPACING: 0.0625
Info: NONBONDED TABLE SIZE: 705 POINTS
TCL: Running for 1500000 steps
ETITLE: TS BOND ANGLE DIHED IMPRP ELECT VDW BOUNDARY MISC KINETIC TOTAL TEMP POTENTIAL TOTALAVG TEMPAVG PRESSURE GPRESSURE VOLUME PRESSAVG GPRESSAVG
ENERGY: 0 0.2481 6.2929 3.9343 0.0000 -10527.3656 1377.9552 0.0000 0.0000 1685.0528 -7453.8823 291.1441 -9138.9350 -7453.8823 291.1441 -394.2437 -313.9528 29821.0799 -394.2437 -313.9528
ENERGY: 300000 0.5543 9.8696 2.7348 0.0000 -10687.6281 1515.1275 0.0000 0.0000 1688.7779 -7470.5640 291.7877 -9159.3419 -7405.5480 297.5000 343.2510 420.2677 29980.3535 174.8001 244.1314
ENERGY: 600000 0.6425 10.3031 3.2396 0.0000 -10613.3203 1399.9842 0.0000 0.0000 1740.7310 -7458.4199 300.7642 -9199.1509 -7413.6557 298.9574 -551.1683 -501.0289 30197.5107 -38.0069 19.0487
ENERGY: 900000 2.7000 5.6300 3.4672 0.0000 -10331.3565 1293.4007 0.0000 0.0000 1732.4424 -7293.7162 299.3321 -9026.1586 -7395.7827 298.3984 -913.6567 -894.2972 30432.5026 -174.7190 -117.2252
ENERGY: 1200000 1.9203 7.5746 2.3700 0.0000 -10545.0016 1428.8206 0.0000 0.0000 1715.8992 -7388.4169 296.4737 -9104.3161 -7383.1551 299.8182 91.0281 227.0681 29915.6656 -59.8913 8.5108
ENERGY: 1500000 1.6599 10.4228 2.6961 0.0000 -10620.8453 1455.6290 0.0000 0.0000 1720.1620 -7430.2756 297.2103 -9150.4375 -7384.2785 299.4197 -77.3390 -52.7571 30555.3815 -63.6262 -4.5006
TCL: Running FEP window  11: Lambda1 0.4999999999999996 Lambda2 0.4499999999999996 [dLambda -0.04999999999999999]
TCL: Setting parameter firsttimestep to 0
TCL: Setting parameter alchLambda to 0.4999999999999996
Info: NONBONDED TABLE R-SQUARED SPACING: 0.0625
Info: NONBONDED TABLE SIZE: 705 POINTS
TCL: Setting parameter alchLambda2 to 0.4499999999999996
Info: NONBONDED TABLE R-SQUARED SPACING: 0.0625
Info: NONBONDED TABLE SIZE: 705 POINTS
TCL: Running for 1500000 steps
ETITLE: TS BOND ANGLE DIHED IMPRP ELECT VDW BOUNDARY MISC KINETIC TOTAL TEMP POTENTIAL TOTALAVG TEMPAVG PRESSURE GPRESSURE VOLUME PRESSAVG GPRESSAVG
ENERGY: 0 1.6599 10.4228 2.6961 0.0000 -10620.8183 1455.9113 0.0000 0.0000 1719.2740 -7430.8543 297.0568 -9150.1283 -7430.8543 297.0568 -125.6103 -56.4411 30555.3815 -125.6103 -56.4411
ENERGY: 300000 0.2222 5.1264 2.5730 0.0000 -10449.0480 1357.6935 0.0000 0.0000 1803.5881 -7279.8448 311.6247 -9083.4328 -7369.4580 302.8492 -330.5116 -275.5667 30027.1256 -243.8633 -182.6882
ENERGY: 600000 0.4181 7.1261 7.3887 0.0000 -10627.4278 1431.2326 0.0000 0.0000 1722.8033 -7458.4590 297.6666 -9181.2623 -7373.5340 300.8209 -128.2287 -119.7582 29902.4907 -132.5424 -70.4031
ENERGY: 900000 2.9174 6.2805 2.5849 0.0000 -10517.9054 1428.9305 0.0000 0.0000 1775.1184 -7302.0737 306.7057 -9077.1921 -7365.5873 301.3875 250.3752 278.1035 30007.6005 -60.3248 -8.0438
ENERGY: 1200000 0.9141 5.8607 3.1860 0.0000 -10491.5881 1387.1200 0.0000 0.0000 1738.3277 -7356.1796 300.3489 -9094.5073 -7373.0475 301.2465 -79.8716 -64.0477 30002.5134 -67.8896 -15.0454
ENERGY: 1500000 1.0632 8.3909 2.8460 0.0000 -10396.0143 1333.7542 0.0000 0.0000 1698.4992 -7351.4607 293.4674 -9049.9599 -7365.6703 300.0861 -710.1386 -650.4316 30606.3564 -174.0945 -111.8101
TCL: Running FEP window  12: Lambda1 0.4499999999999996 Lambda2 0.39999999999999963 [dLambda -0.04999999999999999]
TCL: Setting parameter firsttimestep to 0
TCL: Setting parameter alchLambda to 0.4499999999999996
Info: NONBONDED TABLE R-SQUARED SPACING: 0.0625
Info: NONBONDED TABLE SIZE: 705 POINTS
TCL: Setting parameter alchLambda2 to 0.39999999999999963
Info: NONBONDED TABLE R-SQUARED SPACING: 0.0625
Info: NONBONDED TABLE SIZE: 705 POINTS
TCL: Running for 1500000 steps
ETITLE: TS BOND ANGLE DIHED IMPRP ELECT VDW BOUNDARY MISC KINETIC TOTAL TEMP POTENTIAL TOTALAVG TEMPAVG PRESSURE GPRESSURE VOLUME PRESSAVG GPRESSAVG
ENERGY: 0 1.0632 8.3909 2.8460 0.0000 -10396.0150 1334.0811 0.0000 0.0000 1697.6149 -7352.0189 293.3146 -9049.6338 -7352.0189 293.3146 -736.2172 -652.2172 30606.3564 -736.2172 -652.2172
ENERGY: 300000 1.6042 5.8791 3.1327 0.0000 -10432.6860 1343.8616 0.0000 0.0000 1734.4353 -7343.7732 299.6764 -9078.2085 -7332.7725 300.5874 -559.0866 -464.6355 30061.4360 -432.6715 -359.8285
ENERGY: 600000 0.5689 7.9249 3.3164 0.0000 -10666.9508 1451.7991 0.0000 0.0000 1730.5221 -7472.8195 299.0003 -9203.3416 -7370.5122 300.2962 14.1457 78.6373 29729.9808 -32.0062 30.7643
ENERGY: 900000 0.8130 3.4387 3.5221 0.0000 -10508.8407 1403.7969 0.0000 0.0000 1744.5087 -7352.7613 301.4169 -9097.2700 -7386.2108 300.9943 -170.6629 -104.6452 29942.9233 -43.0463 24.5747
ENERGY: 1200000 0.9791 7.7485 2.9448 0.0000 -10304.8635 1323.9695 0.0000 0.0000 1714.5990 -7254.6226 296.2491 -8969.2216 -7386.9480 300.3204 -460.0330 -498.5747 30359.1838 -85.4002 -26.1460
ENERGY: 1500000 1.3552 5.1194 2.8828 0.0000 -10546.0859 1421.0567 0.0000 0.0000 1764.4119 -7351.2600 304.8558 -9115.6719 -7376.9452 300.8322 -261.1356 -230.2718 30354.6184 -128.0008 -67.3331
TCL: Running FEP window  13: Lambda1 0.39999999999999963 Lambda2 0.34999999999999964 [dLambda -0.04999999999999999]
TCL: Setting parameter firsttimestep to 0
TCL: Setting parameter alchLambda to 0.39999999999999963
Info: NONBONDED TABLE R-SQUARED SPACING: 0.0625
Info: NONBONDED TABLE SIZE: 705 POINTS
TCL: Setting parameter alchLambda2 to 0.34999999999999964
Info: NONBONDED TABLE R-SQUARED SPACING: 0.0625
Info: NONBONDED TABLE SIZE: 705 POINTS
TCL: Running for 1500000 steps
ETITLE: TS BOND ANGLE DIHED IMPRP ELECT VDW BOUNDARY MISC KINETIC TOTAL TEMP POTENTIAL TOTALAVG TEMPAVG PRESSURE GPRESSURE VOLUME PRESSAVG GPRESSAVG
ENERGY: 0 1.3552 5.1194 2.8828 0.0000 -10546.0867 1421.3472 0.0000 0.0000 1763.5352 -7351.8470 304.7043 -9115.3822 -7351.8470 304.7043 -310.5511 -229.7150 30354.6184 -310.5511 -229.7150
ENERGY: 300000 0.5705 6.0870 2.1298 0.0000 -10432.9238 1363.2851 0.0000 0.0000 1755.9005 -7304.9509 303.3852 -9060.8514 -7361.6110 299.9580 -355.5562 -214.1810 30145.8818 -228.9108 -148.1159
ENERGY: 600000 1.6322 7.2363 3.1946 0.0000 -10615.4919 1447.9120 0.0000 0.0000 1726.6327 -7428.8841 298.3283 -9155.5168 -7370.2106 301.0494 175.0061 262.2727 29416.9652 91.7977 164.7966
ENERGY: 900000 0.7492 11.8934 3.5308 0.0000 -10549.4155 1387.8523 0.0000 0.0000 1696.9331 -7448.4567 293.1968 -9145.3898 -7385.6411 299.9851 -358.9643 -355.8972 29931.3595 -23.7593 38.3702
ENERGY: 1200000 1.0985 12.6594 3.5091 0.0000 -10426.4482 1389.1742 0.0000 0.0000 1692.4480 -7327.5590 292.4218 -9020.0069 -7382.7115 299.1975 147.2213 235.0290 29727.5575 0.2841 64.2571
ENERGY: 1500000 4.2476 10.4851 3.0527 0.0000 -10439.7300 1361.2395 0.0000 0.0000 1718.5873 -7342.1179 296.9382 -9060.7052 -7371.5535 300.5148 -311.1390 -195.7150 29868.7568 26.0615 88.2319
TCL: Running FEP window  14: Lambda1 0.34999999999999964 Lambda2 0.29999999999999966 [dLambda -0.04999999999999999]
TCL: Setting parameter firsttimestep to 0
TCL: Setting parameter alchLambda to 0.34999999999999964
Info: NONBONDED TABLE R-SQUARED SPACING: 0.0625
Info: NONBONDED TABLE SIZE: 705 POINTS
TCL: Setting parameter alchLambda2 to 0.29999999999999966
Info: NONBONDED TABLE R-SQUARED SPACING: 0.0625
Info: NONBONDED TABLE SIZE: 705 POINTS
TCL: Running for 1500000 steps
ETITLE: TS BOND ANGLE DIHED IMPRP ELECT VDW BOUNDARY MISC KINETIC TOTAL TEMP POTENTIAL TOTALAVG TEMPAVG PRESSURE GPRESSURE VOLUME PRESSAVG GPRESSAVG
ENERGY: 0 4.2476 10.4851 3.0527 0.0000 -10439.7299 1361.3333 0.0000 0.0000 1717.7536 -7342.8577 296.7941 -9060.6113 -7342.8577 296.7941 -291.6297 -199.9638 29868.7568 -291.6297 -199.9638
ENERGY: 300000 0.6593 10.6516 3.0196 0.0000 -10544.3573 1415.4269 0.0000 0.0000 1763.5382 -7351.0618 304.7048 -9114.6000 -7399.2872 299.2171 -198.4165 -137.8568 29996.9593 -182.2351 -94.9648
ENERGY: 600000 1.0228 3.0681 2.4781 0.0000 -10510.4153 1383.2184 0.0000 0.0000 1741.8597 -7378.7682 300.9592 -9120.6279 -7401.2646 298.9180 -437.7229 -349.0074 29983.1768 -178.9774 -106.4524
ENERGY: 900000 0.4058 4.1555 2.4484 0.0000 -10519.4218 1374.2733 0.0000 0.0000 1757.5389 -7380.5999 303.6683 -9138.1387 -7407.9026 299.2302 -389.4722 -280.9186 29692.3895 -236.0768 -159.3711
ENERGY: 1200000 3.0019 6.6886 3.6337 0.0000 -10419.8467 1310.5066 0.0000 0.0000 1721.2099 -7374.8060 297.3913 -9096.0159 -7390.7953 300.0547 -814.3924 -739.0073 29946.7636 -257.6531 -178.9370
ENERGY: 1500000 0.1992 8.0627 3.5291 0.0000 -10470.2717 1356.3162 0.0000 0.0000 1679.6738 -7422.4907 290.2147 -9102.1645 -7389.7612 299.8425 -785.0353 -699.0195 30348.3595 -173.6802 -97.9293
TCL: Running FEP window  15: Lambda1 0.29999999999999966 Lambda2 0.24999999999999967 [dLambda -0.04999999999999999]
TCL: Setting parameter firsttimestep to 0
TCL: Setting parameter alchLambda to 0.29999999999999966
Info: NONBONDED TABLE R-SQUARED SPACING: 0.0625
Info: NONBONDED TABLE SIZE: 705 POINTS
TCL: Setting parameter alchLambda2 to 0.24999999999999967
Info: NONBONDED TABLE R-SQUARED SPACING: 0.0625
Info: NONBONDED TABLE SIZE: 705 POINTS
TCL: Running for 1500000 steps
ETITLE: TS BOND ANGLE DIHED IMPRP ELECT VDW BOUNDARY MISC KINETIC TOTAL TEMP POTENTIAL TOTALAVG TEMPAVG PRESSURE GPRESSURE VOLUME PRESSAVG GPRESSAVG
ENERGY: 0 0.1992 8.0627 3.5291 0.0000 -10470.2729 1356.6722 0.0000 0.0000 1678.8168 -7422.9930 290.0666 -9101.8098 -7422.9930 290.0666 -807.3895 -700.3077 30348.3595 -807.3895 -700.3077
ENERGY: 300000 0.3932 11.1120 3.0142 0.0000 -10489.7448 1459.7210 0.0000 0.0000 1729.0918 -7286.4126 298.7532 -9015.5044 -7376.2815 298.0181 643.7886 649.8148 29773.5916 9.5600 72.0178
ENERGY: 600000 0.8470 9.2155 3.3257 0.0000 -10485.3600 1423.4505 0.0000 0.0000 1722.5530 -7325.9683 297.6234 -9048.5213 -7376.1432 298.2025 363.7137 458.9599 29662.2752 133.1590 191.3276
ENERGY: 900000 3.4841 9.2264 3.5229 0.0000 -10647.3863 1473.7886 0.0000 0.0000 1771.9021 -7385.4623 306.1499 -9157.3645 -7365.4163 301.0041 330.6716 411.9967 29641.3067 145.0680 211.0707
ENERGY: 1200000 2.4520 7.3492 3.4278 0.0000 -10512.2392 1339.7599 0.0000 0.0000 1764.9206 -7394.3297 304.9437 -9159.2503 -7364.4817 301.6514 -1093.6080 -1029.0302 30140.1492 89.0841 152.2764
ENERGY: 1500000 0.3453 6.2584 3.5605 0.0000 -10503.8828 1390.2524 0.0000 0.0000 1766.5073 -7336.9590 305.2178 -9103.4663 -7374.2806 301.5054 -206.2713 -208.3375 30107.5443 30.0142 91.3362
TCL: Running FEP window  16: Lambda1 0.24999999999999967 Lambda2 0.19999999999999968 [dLambda -0.04999999999999999]
TCL: Setting parameter firsttimestep to 0
TCL: Setting parameter alchLambda to 0.24999999999999967
Info: NONBONDED TABLE R-SQUARED SPACING: 0.0625
Info: NONBONDED TABLE SIZE: 705 POINTS
TCL: Setting parameter alchLambda2 to 0.19999999999999968
Info: NONBONDED TABLE R-SQUARED SPACING: 0.0625
Info: NONBONDED TABLE SIZE: 705 POINTS
TCL: Running for 1500000 steps
ETITLE: TS BOND ANGLE DIHED IMPRP ELECT VDW BOUNDARY MISC KINETIC TOTAL TEMP POTENTIAL TOTALAVG TEMPAVG PRESSURE GPRESSURE VOLUME PRESSAVG GPRESSAVG
ENERGY: 0 0.3453 6.2584 3.5605 0.0000 -10503.8847 1390.4824 0.0000 0.0000 1765.6670 -7337.5711 305.0726 -9103.2381 -7337.5711 305.0726 -300.8294 -213.1752 30107.5443 -300.8294 -213.1752
ENERGY: 300000 0.1979 4.6744 3.0683 0.0000 -10495.9386 1319.7763 0.0000 0.0000 1670.7705 -7497.4512 288.6764 -9168.2217 -7388.9054 300.3552 -927.5657 -847.0160 29891.5717 -360.8326 -291.6886
ENERGY: 600000 1.8461 3.8819 3.0024 0.0000 -10550.2767 1410.8928 0.0000 0.0000 1659.6783 -7470.9752 286.7599 -9130.6535 -7418.7687 297.6641 -119.9070 -60.7329 29525.4833 -158.3877 -104.3363
ENERGY: 900000 0.3758 7.2937 3.8811 0.0000 -10633.0537 1490.0734 0.0000 0.0000 1772.5251 -7358.9045 306.2576 -9131.4296 -7415.3802 298.9448 525.5624 584.8031 29721.5092 -33.8168 15.1652
ENERGY: 1200000 0.4034 6.2613 5.9380 0.0000 -10518.6148 1361.3990 0.0000 0.0000 1702.1022 -7442.5109 294.0899 -9144.6131 -7404.7191 298.7866 -400.0852 -332.5725 29400.0141 -45.5225 10.6027
ENERGY: 1500000 3.1222 10.2767 3.3807 0.0000 -10595.2556 1414.1137 0.0000 0.0000 1703.4416 -7460.9207 294.3213 -9164.3623 -7413.9704 297.6852 -233.1485 -202.1236 29936.3976 -75.9173 -24.9393
TCL: Running FEP window  17: Lambda1 0.19999999999999968 Lambda2 0.1499999999999997 [dLambda -0.04999999999999999]
TCL: Setting parameter firsttimestep to 0
TCL: Setting parameter alchLambda to 0.19999999999999968
Info: NONBONDED TABLE R-SQUARED SPACING: 0.0625
Info: NONBONDED TABLE SIZE: 705 POINTS
TCL: Setting parameter alchLambda2 to 0.1499999999999997
Info: NONBONDED TABLE R-SQUARED SPACING: 0.0625
Info: NONBONDED TABLE SIZE: 705 POINTS
TCL: Running for 1500000 steps
ETITLE: TS BOND ANGLE DIHED IMPRP ELECT VDW BOUNDARY MISC KINETIC TOTAL TEMP POTENTIAL TOTALAVG TEMPAVG PRESSURE GPRESSURE VOLUME PRESSAVG GPRESSAVG
ENERGY: 0 3.1222 10.2767 3.3807 0.0000 -10595.2565 1414.3885 0.0000 0.0000 1702.5379 -7461.5506 294.1652 -9164.0885 -7461.5506 294.1652 -273.3532 -200.3481 29936.3976 -273.3532 -200.3481
ENERGY: 300000 1.2463 5.6257 3.7499 0.0000 -10612.7027 1449.0402 0.0000 0.0000 1727.3485 -7425.6921 298.4519 -9153.0406 -7393.1651 299.7115 458.4737 457.6764 29309.0298 179.3818 238.7184
ENERGY: 600000 1.7554 3.0332 3.0359 0.0000 -10478.0758 1334.2732 0.0000 0.0000 1738.6823 -7397.2958 300.4102 -9135.9781 -7408.8666 299.5047 -464.0823 -398.9635 29307.9151 -14.8173 31.0778
ENERGY: 900000 0.7049 4.0054 3.0237 0.0000 -10639.5018 1481.4127 0.0000 0.0000 1751.6348 -7398.7204 302.6481 -9150.3552 -7395.1536 300.5252 251.4002 361.0037 29934.7724 70.3956 127.0254
ENERGY: 1200000 1.1809 6.0060 3.9339 0.0000 -10589.5151 1430.4420 0.0000 0.0000 1674.7596 -7473.1928 289.3656 -9147.9524 -7391.6563 299.9391 203.9926 339.9825 29457.2605 54.8666 121.4667
ENERGY: 1500000 0.4155 6.2332 2.8911 0.0000 -10617.8063 1405.5784 0.0000 0.0000 1727.8330 -7474.8553 298.5357 -9202.6883 -7396.6263 299.7695 -445.5939 -382.3291 29960.4539 -8.1318 52.8264
TCL: Running FEP window  18: Lambda1 0.1499999999999997 Lambda2 0.09999999999999969 [dLambda -0.05 ]
TCL: Setting parameter firsttimestep to 0
TCL: Setting parameter alchLambda to 0.1499999999999997
Info: NONBONDED TABLE R-SQUARED SPACING: 0.0625
Info: NONBONDED TABLE SIZE: 705 POINTS
TCL: Setting parameter alchLambda2 to 0.09999999999999969
Info: NONBONDED TABLE R-SQUARED SPACING: 0.0625
Info: NONBONDED TABLE SIZE: 705 POINTS
TCL: Running for 1500000 steps
ETITLE: TS BOND ANGLE DIHED IMPRP ELECT VDW BOUNDARY MISC KINETIC TOTAL TEMP POTENTIAL TOTALAVG TEMPAVG PRESSURE GPRESSURE VOLUME PRESSAVG GPRESSAVG
ENERGY: 0 0.4155 6.2332 2.8911 0.0000 -10617.8079 1405.1163 0.0000 0.0000 1726.9666 -7476.1852 298.3860 -9203.1518 -7476.1852 298.3860 -461.7880 -389.2253 29960.4539 -461.7880 -389.2253
ENERGY: 300000 1.0702 5.5602 4.2628 0.0000 -10513.1324 1400.6551 0.0000 0.0000 1732.1934 -7369.3907 299.2891 -9101.5842 -7379.6563 299.5635 -522.0786 -446.1827 30489.5861 -393.5968 -308.0607
ENERGY: 600000 0.7890 8.5420 2.8924 0.0000 -10597.9091 1453.0201 0.0000 0.0000 1732.8592 -7399.8064 299.4041 -9132.6656 -7382.7178 298.4171 214.8120 289.5251 29728.4518 -196.6805 -118.2934
ENERGY: 900000 2.4693 5.8172 2.4105 0.0000 -10522.8962 1383.0270 0.0000 0.0000 1764.1855 -7364.9867 304.8167 -9129.1722 -7376.5807 300.8608 -321.0331 -278.4661 29864.1367 -92.3603 -25.6047
ENERGY: 1200000 1.1349 11.8735 2.8000 0.0000 -10719.7439 1537.5500 0.0000 0.0000 1724.1950 -7442.1906 297.9071 -9166.3856 -7377.4869 300.9263 540.6343 617.6969 29990.1169 -15.7806 49.4335
ENERGY: 1500000 1.4040 7.4604 2.2376 0.0000 -10613.0004 1437.4426 0.0000 0.0000 1717.9875 -7446.4684 296.8346 -9164.4559 -7386.7133 300.7052 151.5503 219.2326 29425.6269 37.6238 95.4135
TCL: Running FEP window  19: Lambda1 0.09999999999999969 Lambda2 0.049999999999999684 [dLambda -0.05 ]
TCL: Setting parameter firsttimestep to 0
TCL: Setting parameter alchLambda to 0.09999999999999969
Info: NONBONDED TABLE R-SQUARED SPACING: 0.0625
Info: NONBONDED TABLE SIZE: 705 POINTS
TCL: Setting parameter alchLambda2 to 0.049999999999999684
Info: NONBONDED TABLE R-SQUARED SPACING: 0.0625
Info: NONBONDED TABLE SIZE: 705 POINTS
TCL: Running for 1500000 steps
ETITLE: TS BOND ANGLE DIHED IMPRP ELECT VDW BOUNDARY MISC KINETIC TOTAL TEMP POTENTIAL TOTALAVG TEMPAVG PRESSURE GPRESSURE VOLUME PRESSAVG GPRESSAVG
ENERGY: 0 1.4040 7.4604 2.2376 0.0000 -10612.9993 1437.8365 0.0000 0.0000 1717.1506 -7446.9104 296.6899 -9164.0609 -7446.9104 296.6899 145.8112 217.9193 29425.6269 145.8112 217.9193
ENERGY: 300000 0.9307 6.4219 3.8818 0.0000 -10423.1689 1333.5699 0.0000 0.0000 1800.7404 -7277.6243 311.1326 -9078.3647 -7393.6432 302.5189 -485.2472 -441.5569 30039.0657 -85.1753 -4.7843
ENERGY: 600000 3.8115 6.9725 2.9546 0.0000 -10587.6925 1378.9480 0.0000 0.0000 1741.9029 -7453.1029 300.9667 -9195.0058 -7393.2029 301.2520 -719.1444 -671.1582 29940.7286 -130.2258 -59.2483
ENERGY: 900000 0.5884 5.5614 2.9392 0.0000 -10563.3009 1442.6150 0.0000 0.0000 1769.9671 -7341.6299 305.8156 -9111.5969 -7389.0141 301.2184 51.8534 137.6125 30128.3883 -146.8421 -76.5183
ENERGY: 1200000 0.9942 4.6247 4.9835 0.0000 -10681.8151 1488.2521 0.0000 0.0000 1736.5347 -7446.4259 300.0392 -9182.9606 -7380.1456 301.4631 115.7817 212.8787 29978.3960 -153.1794 -78.2351
ENERGY: 1500000 2.2903 6.7349 3.3091 0.0000 -10520.0370 1361.8967 0.0000 0.0000 1702.6088 -7443.1972 294.1774 -9145.8060 -7382.4524 300.7347 -565.8657 -544.0773 29869.0712 -107.4215 -38.0194
TCL: Running FEP window  20: Lambda1 0.049999999999999684 Lambda2 0.0    [dLambda -0.049999999999999684]
TCL: Setting parameter firsttimestep to 0
TCL: Setting parameter alchLambda to 0.049999999999999684
Info: NONBONDED TABLE R-SQUARED SPACING: 0.0625
Info: NONBONDED TABLE SIZE: 705 POINTS
TCL: Setting parameter alchLambda2 to 0.0
Info: NONBONDED TABLE R-SQUARED SPACING: 0.0625
Info: NONBONDED TABLE SIZE: 705 POINTS
TCL: Running for 1500000 steps
ETITLE: TS BOND ANGLE DIHED IMPRP ELECT VDW BOUNDARY MISC KINETIC TOTAL TEMP POTENTIAL TOTALAVG TEMPAVG PRESSURE GPRESSURE VOLUME PRESSAVG GPRESSAVG
ENERGY: 0 2.2903 6.7349 3.3091 0.0000 -10520.0389 1361.8537 0.0000 0.0000 1701.7040 -7444.1469 294.0211 -9145.8509 -7444.1469 294.0211 -615.2069 -546.2591 29869.0712 -615.2069 -546.2591
ENERGY: 300000 0.3418 5.7028 4.1412 0.0000 -10629.8969 1423.8309 0.0000 0.0000 1719.6818 -7476.1984 297.1273 -9195.8803 -7396.3764 301.4004 -153.3969 -131.3404 29622.7101 38.3945 103.3433
ENERGY: 600000 0.6577 13.1957 3.4658 0.0000 -10535.4580 1409.5483 0.0000 0.0000 1696.2675 -7412.3231 293.0818 -9108.5905 -7406.4552 299.5759 89.0782 149.3314 29628.7044 87.7644 131.9738
ENERGY: 900000 0.6588 4.8204 2.9122 0.0000 -10606.6453 1438.1673 0.0000 0.0000 1720.1878 -7439.8988 297.2147 -9160.0866 -7399.4548 299.4139 120.6684 199.3515 29397.5340 -27.3337 18.8483
ENERGY: 1200000 0.3547 8.9535 3.0185 0.0000 -10553.0762 1401.7547 0.0000 0.0000 1803.2259 -7335.7688 311.5621 -9138.9948 -7398.1867 300.4351 198.2107 258.4568 29284.4182 22.4140 73.5288
ENERGY: 1500000 1.6894 8.3485 2.6591 0.0000 -10431.4042 1338.4634 0.0000 0.0000 1738.0427 -7342.2011 300.2997 -9080.2438 -7396.6678 299.9232 -687.7721 -667.1237 30227.8109 -79.3375 -26.1918
TCL: Exiting due to exit command.
