Info: SIMULATION PARAMETERS:
Info: TIMESTEP               2
Info: NUMBER OF STEPS        0
Info: STEPS PER CYCLE        10
Info: PERIODIC CELL BASIS 1  30.9381 0 0
Info: PERIODIC CELL BASIS 2  0 30.2961 0
Info: PERIODIC CELL BASIS 3  0 0 32.8915
Info: PERIODIC CELL CENTER   0 0 0
Info: WRAPPING WATERS AROUND PERIODIC BOUNDARIES ON OUTPUT.
Info: WRAPPING ALL CLUSTERS AROUND PERIODIC BOUNDARIES ON OUTPUT.
Info: FIRST LDB TIMESTEP     50
Info: LAST LDB TIMESTEP     -1
Info: HOM BACKGROUND SCALING 1
Info: PME BACKGROUND SCALING 1
Info: MIN ATOMS PER PATCH    40
Info: EMPTY PATCH LOAD       40 ATOMS
Info: VELOCITY FILE          mobley_4613090_equil.vel
Info: CENTER OF MASS MOVING INITIALLY? NO
Info: DIELECTRIC             1
Info: EXCLUDE                SCALED ONE-FOUR
Info: 1-4 ELECTROSTATICS SCALED BY 0.833333
Info: MODIFIED 1-4 VDW PARAMETERS WILL BE USED
Info: DCD FILENAME           mobley_4613090_prod.dcd
Info: DCD FREQUENCY          100000
Info: DCD FIRST STEP         100000
Info: DCD FILE WILL CONTAIN UNIT CELL DATA
Info: XST FILENAME           mobley_4613090_prod.xst
Info: XST FREQUENCY          100000
Info: NO VELOCITY DCD OUTPUT
Info: NO FORCE DCD OUTPUT
Info: OUTPUT FILENAME        mobley_4613090_prod
Info: BINARY OUTPUT FILES WILL BE USED
Info: RESTART FILENAME       mobley_4613090_prod.restart
Info: RESTART FREQUENCY      100000
Info: BINARY RESTART FILES WILL BE USED
Info: CUTOFF                 9
Info: PAIRLIST DISTANCE      11
Info: PAIRLIST SHRINK RATE   0.01
Info: PAIRLIST GROW RATE     0.01
Info: PAIRLIST TRIGGER       0.3
Info: PAIRLISTS PER CYCLE    2
Info: PAIRLISTS ENABLED
Info: MARGIN                 2
Info: HYDROGEN GROUP CUTOFF  2.5
Info: PATCH DIMENSION        15.5
Info: ENERGY OUTPUT STEPS    100000
Info: ENERGY EVALUATION STEPS    100000
Info: OUTPUT ENERGY PRECISION 4
Info: CROSSTERM ENERGY INCLUDED IN DIHEDRAL
Info: TIMING OUTPUT STEPS    1000000
Info: PRESSURE OUTPUT STEPS  100000
Info: ALCHEMICAL FEP ON
Info: FEP CURRENT LAMBDA VALUE     0
Info: FEP COMPARISON LAMBDA VALUE  0.05
Info: FEP INTRA-ALCHEMICAL NON-BONDED INTERACTIONS WILL BE RETAINED
Info: FEP INTRA-ALCHEMICAL BONDED INTERACTIONS WILL BE RETAINED
Info: FEP VDW SHIFTING COEFFICIENT 5
Info: FEP ELEC. ACTIVE FOR ANNIHILATED PARTICLES BETWEEN LAMBDA = 0 AND LAMBDA = 0.5
Info: FEP ELEC. ACTIVE FOR EXNIHILATED PARTICLES BETWEEN LAMBDA = 0.5 AND LAMBDA = 1
Info: FEP VDW ACTIVE FOR ANNIHILATED PARTICLES BETWEEN LAMBDA = 0 AND LAMBDA = 1
Info: FEP VDW ACTIVE FOR EXNIHILATED PARTICLES BETWEEN LAMBDA = 0 AND LAMBDA = 1
Info: FEP BOND ACTIVE FOR ANNIHILATED PARTICLES BETWEEN LAMBDA = 1 AND LAMBDA = 1
Info: FEP BOND ACTIVE FOR EXNIHILATED PARTICLES BETWEEN LAMBDA = 0 AND LAMBDA = 0
Info: LANGEVIN DYNAMICS ACTIVE
Info: LANGEVIN TEMPERATURE   300
Info: LANGEVIN USING BBK INTEGRATOR
Info: LANGEVIN DAMPING COEFFICIENT IS 1 INVERSE PS
Info: LANGEVIN DYNAMICS APPLIED TO HYDROGENS
Info: LANGEVIN PISTON PRESSURE CONTROL ACTIVE
Info:        TARGET PRESSURE IS 1.01325 BAR
Info:     OSCILLATION PERIOD IS 50 FS
Info:             DECAY TIME IS 25 FS
Info:     PISTON TEMPERATURE IS 300 K
Info:       PRESSURE CONTROL IS GROUP-BASED
Info:    INITIAL STRAIN RATE IS 1.42312e-05 1.42312e-05 1.42312e-05
Info:       CELL FLUCTUATION IS ISOTROPIC
Info: PARTICLE MESH EWALD (PME) ACTIVE
Info: PME TOLERANCE               1e-06
Info: PME EWALD COEFFICIENT       0.348832
Info: PME INTERPOLATION ORDER     4
Info: PME GRID DIMENSIONS         32 32 36
Info: PME MAXIMUM GRID SPACING    1
Info: PME CALCULATION WILL BE PERFORMED ON GPU
Info: FULL ELECTROSTATIC EVALUATION FREQUENCY      2
Info: USING VERLET I (r-RESPA) MTS SCHEME.
Info: C1 SPLITTING OF LONG RANGE ELECTROSTATICS
Info: PLACING ATOMS IN PATCHES BY HYDROGEN GROUPS
Info: RIGID BONDS TO HYDROGEN : ALL
Info:         ERROR TOLERANCE : 1e-08
Info:          MAX ITERATIONS : 100
Info: RIGID WATER USING SETTLE ALGORITHM
Info: RANDOM NUMBER SEED     1743892332
Info: USE HYDROGEN BONDS?    NO
Info: Using AMBER format force field!
Info: AMBER PARM FILE        mobley_4613090.prmtop
Info: COORDINATE PDB         mobley_4613090.pdb
Info: Exclusions will be read from PARM file!
Info: SCNB (VDW SCALING)     2
Info: USING ARITHMETIC MEAN TO COMBINE L-J SIGMA PARAMETERS
Info: BINARY COORDINATES     mobley_4613090_equil.coor
Info: SUMMARY OF PARAMETERS:
Info: 14 BONDS
Info: 19 ANGLES
Info:   19 HARMONIC
Info:   0 COSINE-BASED
Info: 6 DIHEDRAL
Info: 0 IMPROPER
Info: 0 CROSSTERM
Info: 0 VDW
Info: 45 VDW_PAIRS
Info: 0 NBTHOLE_PAIRS
Info: To read alchdata from file: mobley_4613090.pdb
Info: To read alchflag data from column: 5
Info: STRUCTURE SUMMARY:
Info: 2995 ATOMS
Info: 2996 BONDS
Info: 37 ANGLES
Info: 62 DIHEDRALS
Info: 0 IMPROPERS
Info: 0 CROSSTERMS
Info: 3077 EXCLUSIONS
Info: 2983 RIGID BONDS
Info: ALCH: 0 ATOMS TO DISAPPEAR IN FINAL STATE
Info: ALCH: 22 ATOMS TO APPEAR IN FINAL STATE
Info: 6002 DEGREES OF FREEDOM
Info: 1003 HYDROGEN GROUPS
Info: 3 ATOMS IN LARGEST HYDROGEN GROUP
Info: 1003 MIGRATION GROUPS
Info: 3 ATOMS IN LARGEST MIGRATION GROUP
Info: TOTAL MASS = 18012.1 amu
Info: TOTAL CHARGE = -9.99682e-05 e
Info: MASS DENSITY = 0.970192 g/cm^3
Info: ATOM DENSITY = 0.0971476 atoms/A^3
Info: ADDED 0 IMPLICIT EXCLUSIONS
Info: NONBONDED TABLE R-SQUARED SPACING: 0.0625
Info: NONBONDED TABLE SIZE: 705 POINTS
Info: REMOVING COM VELOCITY 0.0890585 0.0322211 0.193553
Info: Use 3D box decompostion in PME FFT.
Info: Updated CUDA force table with 4096 elements.
Info: Updated CUDA LJ table with 9 x 9 elements.
Info: Found 22 unique exclusion lists needing 68 bytes
TCL: Running for 1500000 steps
ETITLE: TS BOND ANGLE DIHED IMPRP ELECT VDW BOUNDARY MISC KINETIC TOTAL TEMP POTENTIAL TOTALAVG TEMPAVG PRESSURE GPRESSURE VOLUME PRESSAVG GPRESSAVG
ENERGY: 0 3.7745 9.6442 3.5961 0.0000 -10847.5952 1511.6050 0.0000 0.0000 1778.9011 -7540.0742 298.2952 -9318.9753 -7540.0742 298.2952 535.2767 613.6293 30829.3833 535.2767 613.6293
ENERGY: 300000 6.1682 7.0603 4.4594 0.0000 -10868.8999 1544.5426 0.0000 0.0000 1807.5928 -7499.0766 303.1063 -9306.6694 -7537.3888 301.5284 414.3937 432.1649 31211.4897 -2.3277 41.7086
ENERGY: 600000 3.5154 9.7287 5.7329 0.0000 -10809.8291 1432.8124 0.0000 0.0000 1807.8961 -7550.1435 303.1572 -9358.0397 -7549.4462 299.4159 -450.3826 -430.6997 30934.3727 -116.6414 -91.4259
ENERGY: 900000 6.5469 7.1069 2.8663 0.0000 -10781.7233 1419.0729 0.0000 0.0000 1864.4034 -7481.7270 312.6326 -9346.1304 -7528.0527 302.1906 10.5974 30.5177 30427.5633 -8.3674 37.1654
ENERGY: 1200000 3.3894 6.5658 4.0284 0.0000 -10785.3778 1427.4610 0.0000 0.0000 1848.0536 -7495.8797 309.8910 -9343.9333 -7528.1278 303.5176 -257.0429 -164.8991 30686.7607 17.2152 67.2073
ENERGY: 1500000 4.9553 5.2720 4.8077 0.0000 -10861.1989 1503.4770 0.0000 0.0000 1800.4377 -7542.2492 301.9065 -9342.6868 -7535.0138 302.2974 676.9263 763.1752 30007.4960 -4.4911 43.2864
TCL: Running FEP window   2: Lambda1 0.05   Lambda2 0.1    [dLambda 0.05  ]
TCL: Setting parameter firsttimestep to 0
TCL: Setting parameter alchLambda to 0.05
Info: NONBONDED TABLE R-SQUARED SPACING: 0.0625
Info: NONBONDED TABLE SIZE: 705 POINTS
TCL: Setting parameter alchLambda2 to 0.1
Info: NONBONDED TABLE R-SQUARED SPACING: 0.0625
Info: NONBONDED TABLE SIZE: 705 POINTS
TCL: Running for 1500000 steps
ETITLE: TS BOND ANGLE DIHED IMPRP ELECT VDW BOUNDARY MISC KINETIC TOTAL TEMP POTENTIAL TOTALAVG TEMPAVG PRESSURE GPRESSURE VOLUME PRESSAVG GPRESSAVG
ENERGY: 0 4.9553 5.2720 4.8077 0.0000 -10861.1985 1507.1422 0.0000 0.0000 1799.5854 -7539.4359 301.7636 -9339.0213 -7539.4359 301.7636 685.3667 772.7423 30007.4960 685.3667 772.7423
ENERGY: 300000 5.0527 11.4428 7.7687 0.0000 -10685.5888 1395.0219 0.0000 0.0000 1762.1386 -7504.1640 295.4843 -9266.3026 -7547.2980 297.4906 -790.4135 -731.6258 31286.6948 -251.6120 -204.4184
ENERGY: 600000 1.7495 3.8414 5.8353 0.0000 -11012.8759 1583.2442 0.0000 0.0000 1806.2268 -7611.9787 302.8773 -9418.2056 -7535.3871 301.2192 918.1050 920.2790 30227.9614 -120.6177 -67.2001
ENERGY: 900000 3.1490 6.6639 2.6608 0.0000 -10896.3418 1537.6516 0.0000 0.0000 1733.6197 -7612.5969 290.7021 -9346.2166 -7553.9118 300.1590 633.7978 703.3943 30481.0096 -28.4933 32.1447
ENERGY: 1200000 6.9134 5.3491 2.2889 0.0000 -10728.7052 1439.0435 0.0000 0.0000 1814.9563 -7460.1540 304.3411 -9275.1103 -7544.9320 301.0766 -180.3662 -53.2773 30939.2170 -56.1547 10.6316
ENERGY: 1500000 3.5099 7.7947 5.4034 0.0000 -10751.8433 1394.4992 0.0000 0.0000 1832.9536 -7507.6825 307.3590 -9340.6361 -7553.8901 301.1449 -537.4463 -478.3471 30440.8079 -16.0021 46.4241
TCL: Running FEP window   3: Lambda1 0.1    Lambda2 0.15000000000000002 [dLambda 0.05000000000000002]
TCL: Setting parameter firsttimestep to 0
TCL: Setting parameter alchLambda to 0.1
Info: NONBONDED TABLE R-SQUARED SPACING: 0.0625
Info: NONBONDED TABLE SIZE: 705 POINTS
TCL: Setting parameter alchLambda2 to 0.15000000000000002
Info: NONBONDED TABLE R-SQUARED SPACING: 0.0625
Info: NONBONDED TABLE SIZE: 705 POINTS
TCL: Running for 1500000 steps
ETITLE: TS BOND ANGLE DIHED IMPRP ELECT VDW BOUNDARY MISC KINETIC TOTAL TEMP POTENTIAL TOTALAVG TEMPAVG PRESSURE GPRESSURE VOLUME PRESSAVG GPRESSAVG
ENERGY: 0 3.5099 7.7947 5.4034 0.0000 -10751.8432 1395.5359 0.0000 0.0000 1832.0674 -7507.5319 307.2103 -9339.5993 -7507.5319 307.2103 -549.1652 -469.3689 30440.8079 -549.1652 -469.3689
ENERGY: 300000 6.5004 8.7847 9.0467 0.0000 -10625.5526 1323.7427 0.0000 0.0000 1786.0496 -7491.4285 299.4938 -9277.4781 -7547.7501 298.0026 -1142.9725 -1042.0197 30905.1056 -550.7897 -463.3779
ENERGY: 600000 4.2473 2.9109 5.0885 0.0000 -10618.3674 1353.6305 0.0000 0.0000 1785.1958 -7467.2944 299.3507 -9252.4902 -7510.4362 300.0212 -786.6501 -695.7583 31143.1908 -408.2956 -327.9554
ENERGY: 900000 4.0500 7.7969 3.5189 0.0000 -10977.9385 1521.8231 0.0000 0.0000 1768.9476 -7671.8020 296.6261 -9440.7496 -7539.5357 299.5121 88.7374 162.8227 30750.0166 -322.8330 -240.9864
ENERGY: 1200000 6.2730 9.5743 3.3781 0.0000 -10708.2392 1359.8224 0.0000 0.0000 1785.6512 -7543.5403 299.4270 -9329.1914 -7537.2739 300.5139 -999.0028 -948.5160 31282.9779 -407.3051 -335.4424
ENERGY: 1500000 7.1062 7.2358 7.0931 0.0000 -10778.3893 1408.7161 0.0000 0.0000 1824.0773 -7524.1607 305.8705 -9348.2380 -7548.4826 300.8472 -485.1900 -439.5217 30709.1142 -370.7614 -307.2391
TCL: Running FEP window   4: Lambda1 0.15000000000000002 Lambda2 0.2    [dLambda 0.04999999999999999]
TCL: Setting parameter firsttimestep to 0
TCL: Setting parameter alchLambda to 0.15000000000000002
Info: NONBONDED TABLE R-SQUARED SPACING: 0.0625
Info: NONBONDED TABLE SIZE: 705 POINTS
TCL: Setting parameter alchLambda2 to 0.2
Info: NONBONDED TABLE R-SQUARED SPACING: 0.0625
Info: NONBONDED TABLE SIZE: 705 POINTS
TCL: Running for 1500000 steps
ETITLE: TS BOND ANGLE DIHED IMPRP ELECT VDW BOUNDARY MISC KINETIC TOTAL TEMP POTENTIAL TOTALAVG TEMPAVG PRESSURE GPRESSURE VOLUME PRESSAVG GPRESSAVG
ENERGY: 0 7.1062 7.2358 7.0931 0.0000 -10778.3890 1409.1334 0.0000 0.0000 1823.2123 -7524.6082 305.7255 -9347.8205 -7524.6082 305.7255 -524.9660 -434.4933 30709.1142 -524.9660 -434.4933
ENERGY: 300000 4.4714 4.9263 6.2632 0.0000 -10751.2639 1476.5397 0.0000 0.0000 1823.5731 -7435.4903 305.7860 -9259.0634 -7494.5680 303.5330 413.9669 448.8800 30739.6357 173.6080 244.6062
ENERGY: 600000 3.3875 4.1193 3.7313 0.0000 -10843.4198 1476.8213 0.0000 0.0000 1760.2943 -7595.0661 295.1751 -9355.3604 -7513.7354 302.4436 303.5454 389.7337 30569.0333 156.2321 240.0465
ENERGY: 900000 4.6801 7.9048 6.0076 0.0000 -10878.5015 1518.0380 0.0000 0.0000 1766.9296 -7574.9414 296.2877 -9341.8710 -7520.8069 300.5339 517.5130 609.7501 30630.6614 128.1258 208.7740
ENERGY: 1200000 1.8303 5.8621 6.8306 0.0000 -10882.1119 1480.2266 0.0000 0.0000 1742.4706 -7644.8917 292.1863 -9387.3622 -7540.2351 299.4113 -153.4678 -122.8822 30916.0782 11.6709 82.2258
ENERGY: 1500000 3.6556 5.9056 6.2093 0.0000 -10752.6378 1439.0148 0.0000 0.0000 1769.2544 -7528.5981 296.6776 -9297.8525 -7542.7560 299.7759 -66.6262 -30.9909 30840.3192 54.5123 122.1654
TCL: Running FEP window   5: Lambda1 0.2    Lambda2 0.25   [dLambda 0.04999999999999999]
TCL: Setting parameter firsttimestep to 0
TCL: Setting parameter alchLambda to 0.2
Info: NONBONDED TABLE R-SQUARED SPACING: 0.0625
Info: NONBONDED TABLE SIZE: 705 POINTS
TCL: Setting parameter alchLambda2 to 0.25
Info: NONBONDED TABLE R-SQUARED SPACING: 0.0625
Info: NONBONDED TABLE SIZE: 705 POINTS
TCL: Running for 1500000 steps
ETITLE: TS BOND ANGLE DIHED IMPRP ELECT VDW BOUNDARY MISC KINETIC TOTAL TEMP POTENTIAL TOTALAVG TEMPAVG PRESSURE GPRESSURE VOLUME PRESSAVG GPRESSAVG
ENERGY: 0 3.6556 5.9056 6.2093 0.0000 -10752.6396 1440.2727 0.0000 0.0000 1768.3514 -7528.2450 296.5261 -9296.5964 -7528.2450 296.5261 -94.4610 -20.6093 30840.3192 -94.4610 -20.6093
ENERGY: 300000 3.0462 9.9027 3.8437 0.0000 -10708.8376 1436.0136 0.0000 0.0000 1795.0339 -7460.9974 301.0004 -9256.0313 -7523.0298 300.8347 31.0401 44.7460 30814.3728 174.6899 230.1040
ENERGY: 600000 6.0658 4.6735 1.3885 0.0000 -10738.4368 1421.7520 0.0000 0.0000 1815.5451 -7489.0118 304.4398 -9304.5570 -7542.4320 299.9706 -165.5740 -112.8521 30555.9263 82.5322 130.8538
ENERGY: 900000 4.4238 6.8757 5.7622 0.0000 -10891.3395 1474.7686 0.0000 0.0000 1779.2523 -7620.2569 298.3540 -9399.5092 -7554.0762 299.4718 260.0087 344.6581 30323.7082 80.1170 129.8107
ENERGY: 1200000 1.8900 11.1855 6.8850 0.0000 -10812.3551 1481.7772 0.0000 0.0000 1885.3118 -7425.3055 316.1386 -9310.6173 -7538.4853 301.1571 356.2722 376.7101 30556.1185 93.6534 143.2621
ENERGY: 1500000 1.5223 5.4410 3.9953 0.0000 -10861.6352 1452.0319 0.0000 0.0000 1802.5439 -7596.1009 302.2597 -9398.6447 -7547.6511 300.6272 -73.2284 -54.1684 30702.1052 -10.7126 37.0287
TCL: Running FEP window   6: Lambda1 0.25   Lambda2 0.3    [dLambda 0.04999999999999999]
TCL: Setting parameter firsttimestep to 0
TCL: Setting parameter alchLambda to 0.25
Info: NONBONDED TABLE R-SQUARED SPACING: 0.0625
Info: NONBONDED TABLE SIZE: 705 POINTS
TCL: Setting parameter alchLambda2 to 0.3
Info: NONBONDED TABLE R-SQUARED SPACING: 0.0625
Info: NONBONDED TABLE SIZE: 705 POINTS
TCL: Running for 1500000 steps
ETITLE: TS BOND ANGLE DIHED IMPRP ELECT VDW BOUNDARY MISC KINETIC TOTAL TEMP POTENTIAL TOTALAVG TEMPAVG PRESSURE GPRESSURE VOLUME PRESSAVG GPRESSAVG
ENERGY: 0 1.5223 5.4411 3.9953 0.0000 -10861.6348 1452.1428 0.0000 0.0000 1801.6560 -7596.8774 302.1108 -9398.5334 -7596.8774 302.1108 -134.5004 -51.8826 30702.1052 -134.5004 -51.8826
ENERGY: 300000 5.0041 5.3718 7.7333 0.0000 -10787.3409 1468.1984 0.0000 0.0000 1810.6632 -7490.3702 303.6212 -9301.0334 -7538.7947 302.3310 289.7957 351.6388 30666.8446 185.0660 266.4881
ENERGY: 600000 6.8654 9.9277 3.9108 0.0000 -10673.8736 1410.8798 0.0000 0.0000 1803.5335 -7438.7564 302.4256 -9242.2899 -7533.8815 301.2252 -47.8890 24.6648 31011.4000 35.8936 109.2993
ENERGY: 900000 3.7888 6.7232 3.5476 0.0000 -10765.4222 1437.9624 0.0000 0.0000 1830.8089 -7482.5913 306.9993 -9313.4002 -7533.6697 302.8171 -189.8762 -53.5772 31140.4662 -20.3448 64.7995
ENERGY: 1200000 3.0998 6.4247 2.6708 0.0000 -10748.3237 1455.1064 0.0000 0.0000 1775.4434 -7505.5786 297.7153 -9281.0220 -7531.9790 302.0058 -186.8894 -100.2954 31319.4606 -87.6119 -8.2174
ENERGY: 1500000 7.2595 5.5281 2.7515 0.0000 -10842.4972 1448.4400 0.0000 0.0000 1767.8769 -7610.6413 296.4466 -9378.5181 -7538.2127 301.6275 -609.6156 -503.3062 31171.7005 -153.8802 -72.1982
TCL: Running FEP window   7: Lambda1 0.3    Lambda2 0.35   [dLambda 0.04999999999999999]
TCL: Setting parameter firsttimestep to 0
TCL: Setting parameter alchLambda to 0.3
Info: NONBONDED TABLE R-SQUARED SPACING: 0.0625
Info: NONBONDED TABLE SIZE: 705 POINTS
TCL: Setting parameter alchLambda2 to 0.35
Info: NONBONDED TABLE R-SQUARED SPACING: 0.0625
Info: NONBONDED TABLE SIZE: 705 POINTS
TCL: Running for 1500000 steps
ETITLE: TS BOND ANGLE DIHED IMPRP ELECT VDW BOUNDARY MISC KINETIC TOTAL TEMP POTENTIAL TOTALAVG TEMPAVG PRESSURE GPRESSURE VOLUME PRESSAVG GPRESSAVG
ENERGY: 0 7.2595 5.5281 2.7515 0.0000 -10842.4995 1448.3850 0.0000 0.0000 1767.0119 -7611.5635 296.3015 -9378.5755 -7611.5635 296.3015 -587.3223 -497.2396 31171.7005 -587.3223 -497.2396
ENERGY: 300000 2.4759 6.4092 6.9321 0.0000 -10850.1437 1507.8913 0.0000 0.0000 1797.7675 -7528.6677 301.4588 -9326.4353 -7523.9602 300.5669 241.3072 263.0738 31028.2285 35.0157 68.6457
ENERGY: 600000 2.6735 6.1027 3.6654 0.0000 -10686.5281 1387.7780 0.0000 0.0000 1828.6766 -7457.6320 306.6418 -9286.3086 -7530.1385 302.4549 -219.5147 -139.7686 30484.8228 -58.8443 -10.7087
ENERGY: 900000 4.2338 6.5596 3.4798 0.0000 -10724.0645 1429.3298 0.0000 0.0000 1792.5735 -7487.8880 300.5878 -9280.4615 -7537.6176 301.8046 -53.9275 -31.0589 31027.2907 -31.3312 10.2188
ENERGY: 1200000 4.9318 7.2312 6.4287 0.0000 -10805.7781 1479.3713 0.0000 0.0000 1805.5025 -7502.3126 302.7558 -9307.8151 -7535.5144 301.6512 226.9186 319.7662 30760.6037 60.3573 110.6428
ENERGY: 1500000 2.2661 6.6543 5.3079 0.0000 -10752.8308 1456.5305 0.0000 0.0000 1824.8399 -7457.2321 305.9984 -9282.0720 -7524.6351 302.7216 -166.7827 -172.9408 31447.2362 51.8071 99.9880
TCL: Running FEP window   8: Lambda1 0.35   Lambda2 0.39999999999999997 [dLambda 0.04999999999999999]
TCL: Setting parameter firsttimestep to 0
TCL: Setting parameter alchLambda to 0.35
Info: NONBONDED TABLE R-SQUARED SPACING: 0.0625
Info: NONBONDED TABLE SIZE: 705 POINTS
TCL: Setting parameter alchLambda2 to 0.39999999999999997
Info: NONBONDED TABLE R-SQUARED SPACING: 0.0625
Info: NONBONDED TABLE SIZE: 705 POINTS
TCL: Running for 1500000 steps
ETITLE: TS BOND ANGLE DIHED IMPRP ELECT VDW BOUNDARY MISC KINETIC TOTAL TEMP POTENTIAL TOTALAVG TEMPAVG PRESSURE GPRESSURE VOLUME PRESSAVG GPRESSAVG
ENERGY: 0 2.2661 6.6543 5.3079 0.0000 -10752.8313 1456.9405 0.0000 0.0000 1823.9742 -7457.6882 305.8532 -9281.6625 -7457.6882 305.8532 -248.5402 -166.2676 31447.2362 -248.5402 -166.2676
ENERGY: 300000 4.2605 6.4030 9.1676 0.0000 -10805.2486 1455.2468 0.0000 0.0000 1808.0921 -7522.0786 303.1900 -9330.1706 -7556.7021 301.8560 -172.2411 -51.6647 30914.6634 -227.2198 -149.4628
ENERGY: 600000 2.7040 5.2173 6.8999 0.0000 -10750.3489 1381.7061 0.0000 0.0000 1762.9666 -7590.8550 295.6232 -9353.8217 -7558.1560 300.8033 -423.9871 -309.9655 30535.0140 -78.0397 -1.7841
ENERGY: 900000 1.8849 7.2486 3.3057 0.0000 -10682.1089 1381.1841 0.0000 0.0000 1757.6612 -7530.8244 294.7335 -9288.4856 -7543.6759 300.4267 -675.7320 -628.9565 31128.3836 -7.2031 69.9927
ENERGY: 1200000 4.9449 6.2447 2.3807 0.0000 -10688.5480 1387.0604 0.0000 0.0000 1783.3350 -7504.5824 299.0386 -9287.9174 -7547.2817 300.0873 -223.0257 -201.0806 30563.8434 -44.8703 22.9207
ENERGY: 1500000 4.6529 7.4051 3.7318 0.0000 -10865.1298 1453.7504 0.0000 0.0000 1789.8405 -7605.7492 300.1295 -9395.5897 -7544.4814 300.5578 -164.4117 -196.5670 30808.4620 -67.1012 -5.1791
TCL: Running FEP window   9: Lambda1 0.39999999999999997 Lambda2 0.44999999999999996 [dLambda 0.04999999999999999]
TCL: Setting parameter firsttimestep to 0
TCL: Setting parameter alchLambda to 0.39999999999999997
Info: NONBONDED TABLE R-SQUARED SPACING: 0.0625
Info: NONBONDED TABLE SIZE: 705 POINTS
TCL: Setting parameter alchLambda2 to 0.44999999999999996
Info: NONBONDED TABLE R-SQUARED SPACING: 0.0625
Info: NONBONDED TABLE SIZE: 705 POINTS
TCL: Running for 1500000 steps
ETITLE: TS BOND ANGLE DIHED IMPRP ELECT VDW BOUNDARY MISC KINETIC TOTAL TEMP POTENTIAL TOTALAVG TEMPAVG PRESSURE GPRESSURE VOLUME PRESSAVG GPRESSAVG
ENERGY: 0 4.6529 7.4051 3.7318 0.0000 -10865.1292 1453.4110 0.0000 0.0000 1788.9639 -7606.9646 299.9825 -9395.9285 -7606.9646 299.9825 -274.0803 -192.6044 30808.4620 -274.0803 -192.6044
ENERGY: 300000 4.6785 5.0238 3.8588 0.0000 -10962.1035 1528.5052 0.0000 0.0000 1827.1071 -7592.9301 306.3786 -9420.0372 -7612.6784 301.0197 589.6797 658.1107 30353.8043 -31.5017 28.5579
ENERGY: 600000 3.3783 9.8834 3.7801 0.0000 -10708.5945 1403.8357 0.0000 0.0000 1812.0021 -7475.7150 303.8457 -9287.7171 -7608.8552 298.8979 -304.7273 -207.0879 31001.7434 -52.6239 18.1310
ENERGY: 900000 6.0048 8.6709 2.0562 0.0000 -10670.8005 1437.2797 0.0000 0.0000 1781.5697 -7435.2193 298.7426 -9216.7890 -7576.7090 299.6376 247.2172 290.3301 31057.6255 -77.0133 0.8144
ENERGY: 1200000 2.8792 5.6587 2.5839 0.0000 -10810.8906 1442.1464 0.0000 0.0000 1805.1949 -7552.4275 302.7042 -9357.6224 -7571.9737 300.1395 -182.5807 -168.3150 30841.4718 -145.9945 -68.7280
ENERGY: 1500000 2.4595 10.3929 9.0957 0.0000 -10834.0435 1528.6750 0.0000 0.0000 1809.4737 -7473.9467 303.4217 -9283.4204 -7568.5998 299.9778 849.5894 887.7015 30790.8745 17.7442 86.7368
TCL: Running FEP window  10: Lambda1 0.44999999999999996 Lambda2 0.49999999999999994 [dLambda 0.04999999999999999]
TCL: Setting parameter firsttimestep to 0
TCL: Setting parameter alchLambda to 0.44999999999999996
Info: NONBONDED TABLE R-SQUARED SPACING: 0.0625
Info: NONBONDED TABLE SIZE: 705 POINTS
TCL: Setting parameter alchLambda2 to 0.49999999999999994
Info: NONBONDED TABLE R-SQUARED SPACING: 0.0625
Info: NONBONDED TABLE SIZE: 705 POINTS
TCL: Running for 1500000 steps
ETITLE: TS BOND ANGLE DIHED IMPRP ELECT VDW BOUNDARY MISC KINETIC TOTAL TEMP POTENTIAL TOTALAVG TEMPAVG PRESSURE GPRESSURE VOLUME PRESSAVG GPRESSAVG
ENERGY: 0 2.4595 10.3929 9.0958 0.0000 -10834.0410 1528.4230 0.0000 0.0000 1808.6144 -7475.0555 303.2776 -9283.6700 -7475.0555 303.2776 816.5752 893.8704 30790.8745 816.5752 893.8704
ENERGY: 300000 2.8076 4.7824 5.6063 0.0000 -10879.3469 1476.1404 0.0000 0.0000 1778.2724 -7611.7377 298.1897 -9390.0102 -7542.4284 302.9832 69.8307 191.9339 30325.0176 363.3529 440.4998
ENERGY: 600000 3.3302 9.4892 1.6032 0.0000 -10740.8623 1383.5124 0.0000 0.0000 1826.5657 -7516.3616 306.2878 -9342.9272 -7539.7638 304.2177 -274.0036 -159.4099 30609.5420 102.5538 184.6772
ENERGY: 900000 5.5706 6.8988 4.4372 0.0000 -11024.1077 1646.9001 0.0000 0.0000 1810.4648 -7549.8363 303.5879 -9360.3011 -7545.3020 303.5711 1385.5677 1437.7982 30601.5806 47.0164 123.1900
ENERGY: 1200000 5.2001 5.7912 2.3015 0.0000 -10882.0241 1538.8830 0.0000 0.0000 1799.2370 -7530.6113 301.7052 -9329.8483 -7556.9658 301.5271 355.4023 438.4790 31282.6968 39.7264 112.5836
ENERGY: 1500000 5.2198 7.3014 4.6695 0.0000 -10870.6700 1450.1155 0.0000 0.0000 1820.4534 -7582.9104 305.2628 -9403.3638 -7561.7236 301.5938 -404.7491 -402.7479 30970.9483 2.0705 67.0528
TCL: Running FEP window  11: Lambda1 0.49999999999999994 Lambda2 0.5499999999999999 [dLambda 0.04999999999999999]
TCL: Setting parameter firsttimestep to 0
TCL: Setting parameter alchLambda to 0.49999999999999994
Info: NONBONDED TABLE R-SQUARED SPACING: 0.0625
Info: NONBONDED TABLE SIZE: 705 POINTS
TCL: Setting parameter alchLambda2 to 0.5499999999999999
Info: NONBONDED TABLE R-SQUARED SPACING: 0.0625
Info: NONBONDED TABLE SIZE: 705 POINTS
TCL: Running for 1500000 steps
ETITLE: TS BOND ANGLE DIHED IMPRP ELECT VDW BOUNDARY MISC KINETIC TOTAL TEMP POTENTIAL TOTALAVG TEMPAVG PRESSURE GPRESSURE VOLUME PRESSAVG GPRESSAVG
ENERGY: 0 5.2198 7.3014 4.6695 0.0000 -10870.6693 1449.7764 0.0000 0.0000 1819.5695 -7584.1328 305.1146 -9403.7023 -7584.1328 305.1146 -477.3148 -398.2170 30970.9483 -477.3148 -398.2170
ENERGY: 300000 5.2842 6.7493 5.4944 0.0000 -10736.6552 1430.2912 0.0000 0.0000 1794.0419 -7494.7943 300.8340 -9288.8362 -7554.9139 300.2932 -125.0941 -115.6306 31182.0257 -87.6471 -36.5740
ENERGY: 600000 3.4849 7.8674 4.7205 0.0000 -10823.9120 1409.1313 0.0000 0.0000 1829.8489 -7568.8592 306.8383 -9398.7080 -7564.9534 301.4762 -621.2510 -501.2554 30946.9019 -30.9983 20.3065
ENERGY: 900000 4.4857 6.0914 5.9115 0.0000 -10654.2626 1346.7666 0.0000 0.0000 1718.6385 -7572.3689 288.1900 -9291.0074 -7559.8018 298.9846 -855.8362 -821.9446 31036.6069 -142.4358 -89.5083
ENERGY: 1200000 4.4569 8.7030 4.6416 0.0000 -10864.2177 1524.6346 0.0000 0.0000 1771.4682 -7550.3134 297.0488 -9321.7817 -7567.6238 298.4846 859.0918 906.2193 30408.7537 -113.4249 -59.5035
ENERGY: 1500000 4.7378 6.6130 4.4017 0.0000 -10747.4362 1357.7093 0.0000 0.0000 1781.1960 -7592.7785 298.6800 -9373.9745 -7559.8578 299.2749 -1028.3353 -966.9881 31011.6785 -108.4513 -53.4212
TCL: Running FEP window  12: Lambda1 0.5499999999999999 Lambda2 0.6    [dLambda 0.050000000000000044]
TCL: Setting parameter firsttimestep to 0
TCL: Setting parameter alchLambda to 0.5499999999999999
Info: NONBONDED TABLE R-SQUARED SPACING: 0.0625
Info: NONBONDED TABLE SIZE: 705 POINTS
TCL: Setting parameter alchLambda2 to 0.6
Info: NONBONDED TABLE R-SQUARED SPACING: 0.0625
Info: NONBONDED TABLE SIZE: 705 POINTS
TCL: Running for 1500000 steps
ETITLE: TS BOND ANGLE DIHED IMPRP ELECT VDW BOUNDARY MISC KINETIC TOTAL TEMP POTENTIAL TOTALAVG TEMPAVG PRESSURE GPRESSURE VOLUME PRESSAVG GPRESSAVG
ENERGY: 0 4.7377 6.6130 4.4017 0.0000 -10747.8236 1356.9214 0.0000 0.0000 1780.3000 -7594.8498 298.5297 -9375.1498 -7594.8498 298.5297 -1044.5616 -968.1995 31011.6785 -1044.5616 -968.1995
ENERGY: 300000 2.7367 6.0996 3.9329 0.0000 -10777.0588 1392.2623 0.0000 0.0000 1739.1370 -7632.8902 291.6273 -9372.0272 -7559.6352 300.6409 -617.6391 -583.1247 30769.9953 -252.2082 -209.1788
ENERGY: 600000 4.0190 5.7785 4.1791 0.0000 -10897.4377 1477.5446 0.0000 0.0000 1761.7399 -7644.1766 295.4175 -9405.9165 -7588.5590 298.3085 41.9523 101.2009 30732.4651 -42.0319 11.6363
ENERGY: 900000 2.9627 6.9451 3.2989 0.0000 -10897.1802 1529.8576 0.0000 0.0000 1817.7212 -7536.3948 304.8047 -9354.1160 -7564.4064 299.4353 859.7940 893.0111 30374.5567 43.7537 94.5592
ENERGY: 1200000 4.1403 9.0758 7.1182 0.0000 -10842.1604 1447.3671 0.0000 0.0000 1762.2442 -7612.2148 295.5020 -9374.4589 -7561.3719 300.0815 -210.6515 -195.6085 30923.1380 -20.4183 17.5896
ENERGY: 1500000 4.0981 6.8262 8.2951 0.0000 -10970.6182 1506.3796 0.0000 0.0000 1784.1048 -7660.9145 299.1677 -9445.0193 -7566.4503 299.5834 427.7340 449.9666 30147.4309 -24.8548 16.7293
TCL: Running FEP window  13: Lambda1 0.6    Lambda2 0.65   [dLambda 0.050000000000000044]
TCL: Setting parameter firsttimestep to 0
TCL: Setting parameter alchLambda to 0.6
Info: NONBONDED TABLE R-SQUARED SPACING: 0.0625
Info: NONBONDED TABLE SIZE: 705 POINTS
TCL: Setting parameter alchLambda2 to 0.65
Info: NONBONDED TABLE R-SQUARED SPACING: 0.0625
Info: NONBONDED TABLE SIZE: 705 POINTS
TCL: Running for 1500000 steps
ETITLE: TS BOND ANGLE DIHED IMPRP ELECT VDW BOUNDARY MISC KINETIC TOTAL TEMP POTENTIAL TOTALAVG TEMPAVG PRESSURE GPRESSURE VOLUME PRESSAVG GPRESSAVG
ENERGY: 0 4.0981 6.8262 8.2951 0.0000 -10970.9482 1505.9233 0.0000 0.0000 1783.2043 -7662.6012 299.0167 -9445.8055 -7662.6012 299.0167 377.8151 457.9688 30147.4309 377.8151 457.9688
ENERGY: 300000 1.8054 7.9757 2.9111 0.0000 -10857.3806 1470.0052 0.0000 0.0000 1831.0131 -7543.6701 307.0336 -9374.6832 -7543.6726 303.6065 42.4144 120.2593 30929.5338 -54.3009 2.5920
ENERGY: 600000 2.5891 9.6712 6.9270 0.0000 -10855.5949 1450.6733 0.0000 0.0000 1829.2617 -7556.4726 306.7399 -9385.7343 -7559.5285 303.4672 203.9693 229.9378 30525.9951 -38.8077 2.2807
ENERGY: 900000 3.6408 9.9647 6.2631 0.0000 -10838.2177 1441.5991 0.0000 0.0000 1737.6893 -7639.0606 291.3845 -9376.7499 -7552.3647 302.2284 -253.5570 -169.6733 30628.0181 -54.5918 1.3123
ENERGY: 1200000 4.9707 8.9517 2.9831 0.0000 -10809.8660 1456.0138 0.0000 0.0000 1843.5099 -7493.4367 309.1291 -9336.9467 -7539.5169 303.3041 -148.4613 -69.2099 31039.1650 -0.2615 48.7208
ENERGY: 1500000 1.5055 6.2507 4.0274 0.0000 -10863.0527 1516.4120 0.0000 0.0000 1811.5129 -7523.3441 303.7637 -9334.8570 -7540.4168 303.0009 555.2546 589.1525 30679.5899 8.3668 58.6267
TCL: Running FEP window  14: Lambda1 0.65   Lambda2 0.7000000000000001 [dLambda 0.050000000000000044]
TCL: Setting parameter firsttimestep to 0
TCL: Setting parameter alchLambda to 0.65
Info: NONBONDED TABLE R-SQUARED SPACING: 0.0625
Info: NONBONDED TABLE SIZE: 705 POINTS
TCL: Setting parameter alchLambda2 to 0.7000000000000001
Info: NONBONDED TABLE R-SQUARED SPACING: 0.0625
Info: NONBONDED TABLE SIZE: 705 POINTS
TCL: Running for 1500000 steps
ETITLE: TS BOND ANGLE DIHED IMPRP ELECT VDW BOUNDARY MISC KINETIC TOTAL TEMP POTENTIAL TOTALAVG TEMPAVG PRESSURE GPRESSURE VOLUME PRESSAVG GPRESSAVG
ENERGY: 0 1.5055 6.2507 4.0274 0.0000 -10863.6273 1516.2859 0.0000 0.0000 1810.6202 -7524.9375 303.6140 -9335.5577 -7524.9375 303.6140 519.7045 600.2309 30679.5899 519.7045 600.2309
ENERGY: 300000 4.0545 6.8421 10.2885 0.0000 -10858.5558 1491.3032 0.0000 0.0000 1748.3348 -7597.7327 293.1696 -9346.0675 -7550.6694 299.3838 163.7169 256.2398 30614.4277 -171.7987 -99.5672
ENERGY: 600000 4.2690 8.3266 7.3344 0.0000 -10702.1131 1342.4139 0.0000 0.0000 1820.9583 -7518.8109 305.3475 -9339.7692 -7556.1757 299.6713 -829.1030 -805.1863 30615.1881 -265.6038 -200.7519
ENERGY: 900000 3.1237 7.2949 1.9668 0.0000 -10771.8617 1379.2257 0.0000 0.0000 1773.6229 -7606.6277 297.4101 -9380.2506 -7547.7098 300.4356 -496.8223 -528.9586 30633.9671 -159.8540 -99.7397
ENERGY: 1200000 3.9277 6.5981 2.3540 0.0000 -10666.6018 1352.4271 0.0000 0.0000 1814.0065 -7487.2883 304.1818 -9301.2948 -7543.2925 299.6199 -731.6531 -636.9392 31360.7460 -97.1802 -36.0312
ENERGY: 1500000 4.6929 5.0769 2.9965 0.0000 -10791.0938 1499.6730 0.0000 0.0000 1816.0891 -7462.5654 304.5310 -9278.6545 -7537.6990 300.0118 333.5721 396.8258 30691.3709 -34.9902 26.2822
TCL: Running FEP window  15: Lambda1 0.7000000000000001 Lambda2 0.7500000000000001 [dLambda 0.050000000000000044]
TCL: Setting parameter firsttimestep to 0
TCL: Setting parameter alchLambda to 0.7000000000000001
Info: NONBONDED TABLE R-SQUARED SPACING: 0.0625
Info: NONBONDED TABLE SIZE: 705 POINTS
TCL: Setting parameter alchLambda2 to 0.7500000000000001
Info: NONBONDED TABLE R-SQUARED SPACING: 0.0625
Info: NONBONDED TABLE SIZE: 705 POINTS
TCL: Running for 1500000 steps
ETITLE: TS BOND ANGLE DIHED IMPRP ELECT VDW BOUNDARY MISC KINETIC TOTAL TEMP POTENTIAL TOTALAVG TEMPAVG PRESSURE GPRESSURE VOLUME PRESSAVG GPRESSAVG
ENERGY: 0 4.6929 5.0769 2.9965 0.0000 -10791.1139 1499.2941 0.0000 0.0000 1815.2122 -7463.8414 304.3840 -9279.0536 -7463.8414 304.3840 326.7232 404.6061 30691.3709 326.7232 404.6061
ENERGY: 300000 6.1823 5.5829 6.3829 0.0000 -10734.0884 1452.2902 0.0000 0.0000 1820.6518 -7442.9983 305.2961 -9263.6500 -7487.8198 308.3280 3.3739 -8.8458 31236.1037 166.9488 196.4135
ENERGY: 600000 8.3781 6.4194 4.5640 0.0000 -10735.7595 1372.7617 0.0000 0.0000 1823.8209 -7519.8153 305.8275 -9343.6362 -7501.8461 307.4342 -1036.2728 -905.0161 31193.0725 -193.6879 -132.8457
ENERGY: 900000 4.3214 7.0299 6.7700 0.0000 -10770.2929 1418.6171 0.0000 0.0000 1761.0722 -7572.4822 295.3055 -9333.5544 -7528.7463 305.2532 -187.4391 -112.5295 30937.7701 -11.2222 55.5424
ENERGY: 1200000 4.3669 6.7294 8.8840 0.0000 -10754.3221 1446.9289 0.0000 0.0000 1774.6293 -7512.7835 297.5788 -9287.4129 -7534.9047 303.2305 -97.0426 -92.0214 31687.0681 -109.0438 -44.2931
ENERGY: 1500000 5.4889 9.6630 3.7623 0.0000 -10737.0732 1387.5471 0.0000 0.0000 1818.9455 -7511.6663 305.0100 -9330.6119 -7532.1225 303.2724 -17.0392 7.6153 30535.8536 -56.4025 5.2940
TCL: Running FEP window  16: Lambda1 0.7500000000000001 Lambda2 0.8000000000000002 [dLambda 0.050000000000000044]
TCL: Setting parameter firsttimestep to 0
TCL: Setting parameter alchLambda to 0.7500000000000001
Info: NONBONDED TABLE R-SQUARED SPACING: 0.0625
Info: NONBONDED TABLE SIZE: 705 POINTS
TCL: Setting parameter alchLambda2 to 0.8000000000000002
Info: NONBONDED TABLE R-SQUARED SPACING: 0.0625
Info: NONBONDED TABLE SIZE: 705 POINTS
TCL: Running for 1500000 steps
ETITLE: TS BOND ANGLE DIHED IMPRP ELECT VDW BOUNDARY MISC KINETIC TOTAL TEMP POTENTIAL TOTALAVG TEMPAVG PRESSURE GPRESSURE VOLUME PRESSAVG GPRESSAVG
ENERGY: 0 5.4889 9.6630 3.7623 0.0000 -10737.4721 1387.0008 0.0000 0.0000 1818.0237 -7513.5334 304.8554 -9331.5571 -7513.5334 304.8554 -72.4407 10.1785 30535.8536 -72.4407 10.1785
ENERGY: 300000 4.9723 8.1339 4.1265 0.0000 -10903.9627 1540.2161 0.0000 0.0000 1781.5985 -7564.9154 298.7475 -9346.5139 -7544.0745 301.1029 583.3805 648.2901 30837.6837 259.2173 329.8360
ENERGY: 600000 1.2606 7.4664 4.5449 0.0000 -10786.5580 1425.5788 0.0000 0.0000 1736.1455 -7611.5617 291.1257 -9347.7072 -7542.9712 300.2020 -99.9053 1.2363 30810.2442 145.7331 197.3831
ENERGY: 900000 1.8857 9.4513 5.2069 0.0000 -10815.6027 1487.7883 0.0000 0.0000 1775.8475 -7535.4232 297.7831 -9311.2707 -7554.9201 299.5125 293.7758 390.6324 31003.8248 175.7150 232.9091
ENERGY: 1200000 3.3196 4.0521 4.3900 0.0000 -10805.5623 1459.1365 0.0000 0.0000 1738.0363 -7596.6278 291.4427 -9334.6641 -7565.6314 299.0524 224.8859 302.5547 30737.5391 331.1107 389.2796
ENERGY: 1500000 3.8522 10.4951 2.6807 0.0000 -10744.2062 1376.3674 0.0000 0.0000 1794.7715 -7556.0393 300.9564 -9350.8108 -7571.2915 299.1957 -866.5900 -830.8101 30958.1250 202.4802 262.3452
TCL: Running FEP window  17: Lambda1 0.8000000000000002 Lambda2 0.8500000000000002 [dLambda 0.050000000000000044]
TCL: Setting parameter firsttimestep to 0
TCL: Setting parameter alchLambda to 0.8000000000000002
Info: NONBONDED TABLE R-SQUARED SPACING: 0.0625
Info: NONBONDED TABLE SIZE: 705 POINTS
TCL: Setting parameter alchLambda2 to 0.8500000000000002
Info: NONBONDED TABLE R-SQUARED SPACING: 0.0625
Info: NONBONDED TABLE SIZE: 705 POINTS
TCL: Running for 1500000 steps
ETITLE: TS BOND ANGLE DIHED IMPRP ELECT VDW BOUNDARY MISC KINETIC TOTAL TEMP POTENTIAL TOTALAVG TEMPAVG PRESSURE GPRESSURE VOLUME PRESSAVG GPRESSAVG
ENERGY: 0 3.8522 10.4951 2.6807 0.0000 -10745.5601 1377.1112 0.0000 0.0000 1793.9085 -7557.5123 300.8117 -9351.4209 -7557.5123 300.8117 -884.9484 -810.0542 30958.1250 -884.9484 -810.0542
ENERGY: 300000 2.5245 10.8986 5.0114 0.0000 -10733.4435 1365.9001 0.0000 0.0000 1818.7363 -7530.3726 304.9749 -9349.1089 -7571.3691 301.4149 -826.1723 -789.8611 31236.0191 -592.8907 -549.4878
ENERGY: 600000 4.3884 6.1450 3.8533 0.0000 -10812.8238 1428.3836 0.0000 0.0000 1807.6691 -7562.3845 303.1191 -9370.0537 -7584.3967 300.3216 -210.9194 -145.7254 30726.8648 -573.2006 -522.3212
ENERGY: 900000 5.7043 7.8841 5.8686 0.0000 -10633.2972 1365.9512 0.0000 0.0000 1756.5731 -7491.3160 294.5511 -9247.8890 -7583.8246 298.1077 -347.4626 -252.2505 30397.6635 -472.2335 -417.3114
ENERGY: 1200000 3.8383 10.2665 1.7853 0.0000 -10805.8362 1459.5969 0.0000 0.0000 1803.8339 -7526.5152 302.4760 -9330.3491 -7576.6362 298.4379 199.8743 227.1644 30835.8355 -371.3189 -313.4867
ENERGY: 1500000 2.6551 8.8854 7.5197 0.0000 -10927.5159 1495.6248 0.0000 0.0000 1762.3453 -7650.4857 295.5190 -9412.8310 -7578.7677 298.4278 191.0940 252.9630 30755.6442 -238.7665 -181.3754
TCL: Running FEP window  18: Lambda1 0.8500000000000002 Lambda2 0.9000000000000002 [dLambda 0.050000000000000044]
TCL: Setting parameter firsttimestep to 0
TCL: Setting parameter alchLambda to 0.8500000000000002
Info: NONBONDED TABLE R-SQUARED SPACING: 0.0625
Info: NONBONDED TABLE SIZE: 705 POINTS
TCL: Setting parameter alchLambda2 to 0.9000000000000002
Info: NONBONDED TABLE R-SQUARED SPACING: 0.0625
Info: NONBONDED TABLE SIZE: 705 POINTS
TCL: Running for 1500000 steps
ETITLE: TS BOND ANGLE DIHED IMPRP ELECT VDW BOUNDARY MISC KINETIC TOTAL TEMP POTENTIAL TOTALAVG TEMPAVG PRESSURE GPRESSURE VOLUME PRESSAVG GPRESSAVG
ENERGY: 0 2.6551 8.8854 7.5197 0.0000 -10928.7619 1495.3238 0.0000 0.0000 1761.4533 -7652.9246 295.3694 -9414.3779 -7652.9246 295.3694 184.5092 259.0661 30755.6442 184.5092 259.0661
ENERGY: 300000 5.9706 4.7319 3.4644 0.0000 -10874.8230 1487.9780 0.0000 0.0000 1815.2624 -7557.4156 304.3924 -9372.6780 -7568.7623 300.9013 379.6119 435.1144 30925.0882 117.9013 180.7242
ENERGY: 600000 3.5861 6.1792 3.1586 0.0000 -10884.0595 1432.7940 0.0000 0.0000 1677.3362 -7761.0054 281.2642 -9438.3416 -7592.7369 297.6533 -487.2874 -437.8895 31277.0219 37.5197 102.4847
ENERGY: 900000 6.2520 8.3645 5.8336 0.0000 -10940.5393 1445.6224 0.0000 0.0000 1800.2897 -7674.1771 301.8817 -9474.4668 -7609.3126 298.0855 -421.2938 -313.0216 30520.7310 -48.1284 16.6929
ENERGY: 1200000 4.1439 7.6290 5.8799 0.0000 -10667.3598 1355.1827 0.0000 0.0000 1751.8464 -7542.6780 293.7585 -9294.5244 -7598.3888 298.2367 -469.6195 -442.5914 30834.0335 -28.3606 31.2414
ENERGY: 1500000 1.7790 5.9609 6.4155 0.0000 -10904.5611 1508.5454 0.0000 0.0000 1797.8578 -7584.0024 301.4739 -9381.8603 -7598.0007 299.0612 401.0635 449.6958 30798.5875 16.2914 75.1542
TCL: Running FEP window  19: Lambda1 0.9000000000000002 Lambda2 0.9500000000000003 [dLambda 0.050000000000000044]
TCL: Setting parameter firsttimestep to 0
TCL: Setting parameter alchLambda to 0.9000000000000002
Info: NONBONDED TABLE R-SQUARED SPACING: 0.0625
Info: NONBONDED TABLE SIZE: 705 POINTS
TCL: Setting parameter alchLambda2 to 0.9500000000000003
Info: NONBONDED TABLE R-SQUARED SPACING: 0.0625
Info: NONBONDED TABLE SIZE: 705 POINTS
TCL: Running for 1500000 steps
ETITLE: TS BOND ANGLE DIHED IMPRP ELECT VDW BOUNDARY MISC KINETIC TOTAL TEMP POTENTIAL TOTALAVG TEMPAVG PRESSURE GPRESSURE VOLUME PRESSAVG GPRESSAVG
ENERGY: 0 1.7790 5.9609 6.4155 0.0000 -10907.2770 1509.3073 0.0000 0.0000 1796.9956 -7586.8186 301.3293 -9383.8143 -7586.8186 301.3293 386.5138 466.1991 30798.5875 386.5138 466.1991
ENERGY: 300000 1.9423 5.3356 5.0775 0.0000 -10795.0920 1431.4320 0.0000 0.0000 1759.9457 -7591.3589 295.1166 -9351.3046 -7613.4871 296.6715 -168.8080 -95.4481 30738.3951 -26.3707 18.3491
ENERGY: 600000 4.3956 8.8206 2.8020 0.0000 -10851.3101 1448.8468 0.0000 0.0000 1756.6633 -7629.7818 294.5662 -9386.4451 -7613.8968 296.1403 -263.2546 -188.0241 30938.6698 41.8258 89.5448
ENERGY: 900000 5.5433 7.2922 4.7138 0.0000 -10758.4739 1483.7607 0.0000 0.0000 1736.9354 -7520.2285 291.2581 -9257.1640 -7599.4726 295.8188 268.6465 325.5914 31003.7381 70.9789 122.5762
ENERGY: 1200000 4.8844 3.9880 6.4568 0.0000 -10790.6394 1445.2267 0.0000 0.0000 1754.6389 -7575.4446 294.2267 -9330.0835 -7599.1485 296.4977 93.0274 146.8103 30717.8314 75.7976 128.2373
ENERGY: 1500000 2.5830 7.9946 4.4137 0.0000 -10807.2728 1426.0199 0.0000 0.0000 1772.8352 -7593.4264 297.2780 -9366.2616 -7586.4111 297.5931 -348.6291 -307.8203 30765.9736 39.0193 91.3280
TCL: Running FEP window  20: Lambda1 0.9500000000000003 Lambda2 1.0    [dLambda 0.04999999999999971]
TCL: Setting parameter firsttimestep to 0
TCL: Setting parameter alchLambda to 0.9500000000000003
Info: NONBONDED TABLE R-SQUARED SPACING: 0.0625
Info: NONBONDED TABLE SIZE: 705 POINTS
TCL: Setting parameter alchLambda2 to 1.0
Info: NONBONDED TABLE R-SQUARED SPACING: 0.0625
Info: NONBONDED TABLE SIZE: 705 POINTS
TCL: Running for 1500000 steps
ETITLE: TS BOND ANGLE DIHED IMPRP ELECT VDW BOUNDARY MISC KINETIC TOTAL TEMP POTENTIAL TOTALAVG TEMPAVG PRESSURE GPRESSURE VOLUME PRESSAVG GPRESSAVG
ENERGY: 0 2.5829 7.9946 4.4137 0.0000 -10809.2629 1427.2723 0.0000 0.0000 1771.9314 -7595.0679 297.1264 -9366.9994 -7595.0679 297.1264 -377.1280 -278.5131 30765.9736 -377.1280 -278.5131
ENERGY: 300000 7.8803 8.0156 7.7121 0.0000 -10922.4051 1466.6226 0.0000 0.0000 1815.7894 -7616.3852 304.4808 -9432.1746 -7587.2835 298.9733 -78.2737 64.8771 30479.0771 -80.5572 27.0319
ENERGY: 600000 4.8219 9.8468 5.1054 0.0000 -10833.5408 1460.0815 0.0000 0.0000 1798.9729 -7554.7122 301.6609 -9353.6851 -7562.6754 298.0684 315.0108 380.2298 30372.2298 -113.3318 -20.6711
ENERGY: 900000 3.3950 5.4227 4.4423 0.0000 -10803.1580 1394.2833 0.0000 0.0000 1767.1261 -7628.4886 296.3207 -9395.6147 -7551.9496 298.2538 -481.3456 -388.3322 30922.2105 -23.9089 61.0206
ENERGY: 1200000 4.9244 4.4782 4.6088 0.0000 -10834.1151 1424.4878 0.0000 0.0000 1805.6084 -7590.0075 302.7736 -9395.6159 -7556.5995 299.0682 -227.3540 -139.1444 30484.4862 4.0681 80.2148
ENERGY: 1500000 6.1895 7.0496 3.6795 0.0000 -10878.4437 1539.8556 0.0000 0.0000 1745.1858 -7576.4837 292.6416 -9321.6695 -7556.7539 298.7707 999.0609 996.6446 30463.6045 -5.6466 61.5490
TCL: Exiting due to exit command.
