Info: SIMULATION PARAMETERS:
Info: TIMESTEP               2
Info: NUMBER OF STEPS        0
Info: STEPS PER CYCLE        10
Info: PERIODIC CELL BASIS 1  30.8922 0 0
Info: PERIODIC CELL BASIS 2  0 31.246 0
Info: PERIODIC CELL BASIS 3  0 0 31.5213
Info: PERIODIC CELL CENTER   0 0 0
Info: WRAPPING WATERS AROUND PERIODIC BOUNDARIES ON OUTPUT.
Info: WRAPPING ALL CLUSTERS AROUND PERIODIC BOUNDARIES ON OUTPUT.
Info: FIRST LDB TIMESTEP     50
Info: LAST LDB TIMESTEP     -1
Info: HOM BACKGROUND SCALING 1
Info: PME BACKGROUND SCALING 1
Info: MIN ATOMS PER PATCH    40
Info: EMPTY PATCH LOAD       40 ATOMS
Info: VELOCITY FILE          mobley_3738859_equil.vel
Info: CENTER OF MASS MOVING INITIALLY? NO
Info: DIELECTRIC             1
Info: EXCLUDE                SCALED ONE-FOUR
Info: 1-4 ELECTROSTATICS SCALED BY 0.833333
Info: MODIFIED 1-4 VDW PARAMETERS WILL BE USED
Info: DCD FILENAME           mobley_3738859_prod.dcd
Info: DCD FREQUENCY          100000
Info: DCD FIRST STEP         100000
Info: DCD FILE WILL CONTAIN UNIT CELL DATA
Info: XST FILENAME           mobley_3738859_prod.xst
Info: XST FREQUENCY          100000
Info: NO VELOCITY DCD OUTPUT
Info: NO FORCE DCD OUTPUT
Info: OUTPUT FILENAME        mobley_3738859_prod
Info: BINARY OUTPUT FILES WILL BE USED
Info: RESTART FILENAME       mobley_3738859_prod.restart
Info: RESTART FREQUENCY      100000
Info: BINARY RESTART FILES WILL BE USED
Info: CUTOFF                 9
Info: PAIRLIST DISTANCE      11
Info: PAIRLIST SHRINK RATE   0.01
Info: PAIRLIST GROW RATE     0.01
Info: PAIRLIST TRIGGER       0.3
Info: PAIRLISTS PER CYCLE    2
Info: PAIRLISTS ENABLED
Info: MARGIN                 2
Info: HYDROGEN GROUP CUTOFF  2.5
Info: PATCH DIMENSION        15.5
Info: ENERGY OUTPUT STEPS    100000
Info: ENERGY EVALUATION STEPS    100000
Info: OUTPUT ENERGY PRECISION 4
Info: CROSSTERM ENERGY INCLUDED IN DIHEDRAL
Info: TIMING OUTPUT STEPS    1000000
Info: PRESSURE OUTPUT STEPS  100000
Info: ALCHEMICAL FEP ON
Info: FEP CURRENT LAMBDA VALUE     0
Info: FEP COMPARISON LAMBDA VALUE  0.05
Info: FEP INTRA-ALCHEMICAL NON-BONDED INTERACTIONS WILL BE RETAINED
Info: FEP INTRA-ALCHEMICAL BONDED INTERACTIONS WILL BE RETAINED
Info: FEP VDW SHIFTING COEFFICIENT 5
Info: FEP ELEC. ACTIVE FOR ANNIHILATED PARTICLES BETWEEN LAMBDA = 0 AND LAMBDA = 0.5
Info: FEP ELEC. ACTIVE FOR EXNIHILATED PARTICLES BETWEEN LAMBDA = 0.5 AND LAMBDA = 1
Info: FEP VDW ACTIVE FOR ANNIHILATED PARTICLES BETWEEN LAMBDA = 0 AND LAMBDA = 1
Info: FEP VDW ACTIVE FOR EXNIHILATED PARTICLES BETWEEN LAMBDA = 0 AND LAMBDA = 1
Info: FEP BOND ACTIVE FOR ANNIHILATED PARTICLES BETWEEN LAMBDA = 1 AND LAMBDA = 1
Info: FEP BOND ACTIVE FOR EXNIHILATED PARTICLES BETWEEN LAMBDA = 0 AND LAMBDA = 0
Info: LANGEVIN DYNAMICS ACTIVE
Info: LANGEVIN TEMPERATURE   300
Info: LANGEVIN USING BBK INTEGRATOR
Info: LANGEVIN DAMPING COEFFICIENT IS 1 INVERSE PS
Info: LANGEVIN DYNAMICS APPLIED TO HYDROGENS
Info: LANGEVIN PISTON PRESSURE CONTROL ACTIVE
Info:        TARGET PRESSURE IS 1.01325 BAR
Info:     OSCILLATION PERIOD IS 50 FS
Info:             DECAY TIME IS 25 FS
Info:     PISTON TEMPERATURE IS 300 K
Info:       PRESSURE CONTROL IS GROUP-BASED
Info:    INITIAL STRAIN RATE IS -1.00138e-05 -1.00138e-05 -1.00138e-05
Info:       CELL FLUCTUATION IS ISOTROPIC
Info: PARTICLE MESH EWALD (PME) ACTIVE
Info: PME TOLERANCE               1e-06
Info: PME EWALD COEFFICIENT       0.348832
Info: PME INTERPOLATION ORDER     4
Info: PME GRID DIMENSIONS         32 32 32
Info: PME MAXIMUM GRID SPACING    1
Info: PME CALCULATION WILL BE PERFORMED ON GPU
Info: FULL ELECTROSTATIC EVALUATION FREQUENCY      2
Info: USING VERLET I (r-RESPA) MTS SCHEME.
Info: C1 SPLITTING OF LONG RANGE ELECTROSTATICS
Info: PLACING ATOMS IN PATCHES BY HYDROGEN GROUPS
Info: RIGID BONDS TO HYDROGEN : ALL
Info:         ERROR TOLERANCE : 1e-08
Info:          MAX ITERATIONS : 100
Info: RIGID WATER USING SETTLE ALGORITHM
Info: RANDOM NUMBER SEED     1743918154
Info: USE HYDROGEN BONDS?    NO
Info: Using AMBER format force field!
Info: AMBER PARM FILE        mobley_3738859.prmtop
Info: COORDINATE PDB         mobley_3738859.pdb
Info: Exclusions will be read from PARM file!
Info: SCNB (VDW SCALING)     2
Info: USING ARITHMETIC MEAN TO COMBINE L-J SIGMA PARAMETERS
Info: BINARY COORDINATES     mobley_3738859_equil.coor
Info: SUMMARY OF PARAMETERS:
Info: 6 BONDS
Info: 7 ANGLES
Info:   7 HARMONIC
Info:   0 COSINE-BASED
Info: 8 DIHEDRAL
Info: 0 IMPROPER
Info: 0 CROSSTERM
Info: 0 VDW
Info: 21 VDW_PAIRS
Info: 0 NBTHOLE_PAIRS
Info: To read alchdata from file: mobley_3738859.pdb
Info: To read alchflag data from column: 5
Info: STRUCTURE SUMMARY:
Info: 2960 ATOMS
Info: 2959 BONDS
Info: 30 ANGLES
Info: 42 DIHEDRALS
Info: 0 IMPROPERS
Info: 0 CROSSTERMS
Info: 3025 EXCLUSIONS
Info: 2954 RIGID BONDS
Info: ALCH: 0 ATOMS TO DISAPPEAR IN FINAL STATE
Info: ALCH: 17 ATOMS TO APPEAR IN FINAL STATE
Info: 5926 DEGREES OF FREEDOM
Info: 987 HYDROGEN GROUPS
Info: 4 ATOMS IN LARGEST HYDROGEN GROUP
Info: 987 MIGRATION GROUPS
Info: 4 ATOMS IN LARGEST MIGRATION GROUP
Info: TOTAL MASS = 17824.7 amu
Info: TOTAL CHARGE = -0.000100002 e
Info: MASS DENSITY = 0.972826 g/cm^3
Info: ATOM DENSITY = 0.0972847 atoms/A^3
Info: ADDED 0 IMPLICIT EXCLUSIONS
Info: NONBONDED TABLE R-SQUARED SPACING: 0.0625
Info: NONBONDED TABLE SIZE: 705 POINTS
Info: REMOVING COM VELOCITY 0.075269 0.198738 0.108635
Info: Use 3D box decompostion in PME FFT.
Info: Updated CUDA force table with 4096 elements.
Info: Updated CUDA LJ table with 6 x 6 elements.
Info: Found 20 unique exclusion lists needing 52 bytes
TCL: Running for 1500000 steps
ETITLE: TS BOND ANGLE DIHED IMPRP ELECT VDW BOUNDARY MISC KINETIC TOTAL TEMP POTENTIAL TOTALAVG TEMPAVG PRESSURE GPRESSURE VOLUME PRESSAVG GPRESSAVG
ENERGY: 0 1.4607 9.5728 4.5703 0.0000 -10752.9135 1509.9879 0.0000 0.0000 1738.8187 -7488.5031 295.3133 -9227.3218 -7488.5031 295.3133 469.7286 555.3993 30426.1554 469.7286 555.3993
ENERGY: 300000 2.0298 10.5297 4.1118 0.0000 -10635.9009 1434.7963 0.0000 0.0000 1769.2051 -7415.2281 300.4740 -9184.4333 -7489.8336 300.5786 249.2935 293.3294 30059.6519 -0.3731 63.2067
ENERGY: 600000 2.2451 7.4226 2.0828 0.0000 -10844.4144 1477.0334 0.0000 0.0000 1815.2273 -7540.4032 308.2902 -9355.6305 -7520.3841 299.7313 314.9559 318.3770 29873.9965 50.5813 90.1776
ENERGY: 900000 0.8333 5.6062 2.0490 0.0000 -10561.1479 1326.5801 0.0000 0.0000 1756.6400 -7469.4394 298.3400 -9226.0794 -7525.9670 299.6182 -714.5766 -653.4413 30043.4159 -135.9707 -88.1103
ENERGY: 1200000 2.1629 5.4364 3.0000 0.0000 -10613.7102 1415.4881 0.0000 0.0000 1731.6667 -7455.9561 294.0987 -9187.6228 -7504.8723 300.2460 -3.4953 49.6407 30418.7078 -32.0235 20.7972
ENERGY: 1500000 1.0174 8.2077 2.2432 0.0000 -10774.1915 1464.1424 0.0000 0.0000 1803.0028 -7495.5779 306.2141 -9298.5808 -7493.3733 300.4863 175.7251 246.1889 29980.4033 -51.9896 5.2986
TCL: Running FEP window   2: Lambda1 0.05   Lambda2 0.1    [dLambda 0.05  ]
TCL: Setting parameter firsttimestep to 0
TCL: Setting parameter alchLambda to 0.05
Info: NONBONDED TABLE R-SQUARED SPACING: 0.0625
Info: NONBONDED TABLE SIZE: 705 POINTS
TCL: Setting parameter alchLambda2 to 0.1
Info: NONBONDED TABLE R-SQUARED SPACING: 0.0625
Info: NONBONDED TABLE SIZE: 705 POINTS
TCL: Running for 1500000 steps
ETITLE: TS BOND ANGLE DIHED IMPRP ELECT VDW BOUNDARY MISC KINETIC TOTAL TEMP POTENTIAL TOTALAVG TEMPAVG PRESSURE GPRESSURE VOLUME PRESSAVG GPRESSAVG
ENERGY: 0 1.0174 8.2077 2.2432 0.0000 -10774.1896 1467.1367 0.0000 0.0000 1802.1254 -7493.4591 306.0651 -9295.5845 -7493.4591 306.0651 163.6267 252.6996 29980.4033 163.6267 252.6996
ENERGY: 300000 0.5522 7.1539 2.7395 0.0000 -10888.4261 1561.2799 0.0000 0.0000 1777.0578 -7539.6427 301.8077 -9316.7005 -7489.8228 301.2050 760.6246 811.5594 30206.5564 59.7283 123.5961
ENERGY: 600000 1.2056 4.5294 3.1318 0.0000 -10587.6265 1401.0539 0.0000 0.0000 1742.6444 -7435.0615 295.9631 -9177.7059 -7475.7441 300.1935 -286.3277 -272.9380 30867.3307 -208.5830 -155.1079
ENERGY: 900000 0.9359 6.8246 2.3233 0.0000 -10910.2203 1579.1261 0.0000 0.0000 1740.6135 -7580.3968 295.6181 -9321.0103 -7493.2684 297.8652 990.6969 1104.9128 29872.7373 -161.8051 -86.6489
ENERGY: 1200000 1.3382 5.6944 3.6669 0.0000 -10715.7467 1472.4830 0.0000 0.0000 1790.3119 -7442.2522 304.0587 -9232.5641 -7486.4625 298.8706 333.7073 414.7508 30199.7155 -122.9414 -54.5637
ENERGY: 1500000 0.9712 8.9339 4.0771 0.0000 -10782.8368 1517.2726 0.0000 0.0000 1751.9046 -7499.6775 297.5358 -9251.5820 -7482.7108 299.5919 402.9008 482.6695 30550.2431 -109.3066 -41.2973
TCL: Running FEP window   3: Lambda1 0.1    Lambda2 0.15000000000000002 [dLambda 0.05000000000000002]
TCL: Setting parameter firsttimestep to 0
TCL: Setting parameter alchLambda to 0.1
Info: NONBONDED TABLE R-SQUARED SPACING: 0.0625
Info: NONBONDED TABLE SIZE: 705 POINTS
TCL: Setting parameter alchLambda2 to 0.15000000000000002
Info: NONBONDED TABLE R-SQUARED SPACING: 0.0625
Info: NONBONDED TABLE SIZE: 705 POINTS
TCL: Running for 1500000 steps
ETITLE: TS BOND ANGLE DIHED IMPRP ELECT VDW BOUNDARY MISC KINETIC TOTAL TEMP POTENTIAL TOTALAVG TEMPAVG PRESSURE GPRESSURE VOLUME PRESSAVG GPRESSAVG
ENERGY: 0 0.9712 8.9339 4.0771 0.0000 -10782.8370 1518.2119 0.0000 0.0000 1751.0048 -7499.6382 297.3830 -9250.6430 -7499.6382 297.3830 406.7405 486.7231 30550.2431 406.7405 486.7231
ENERGY: 300000 3.0695 7.4832 2.5080 0.0000 -10818.7553 1482.1160 0.0000 0.0000 1757.9044 -7565.6741 298.5548 -9323.5785 -7490.9037 300.7152 41.2664 67.2434 30384.3841 15.1879 69.2482
ENERGY: 600000 3.7036 4.8575 4.7776 0.0000 -10593.0169 1377.9085 0.0000 0.0000 1717.0868 -7484.6829 291.6225 -9201.7697 -7486.5930 297.6108 -440.9290 -406.3345 30313.9506 -148.3230 -89.5096
ENERGY: 900000 0.9108 9.6130 2.1349 0.0000 -10673.7945 1368.7612 0.0000 0.0000 1778.9150 -7513.4595 302.1231 -9292.3745 -7505.4468 298.9917 -666.1276 -575.6526 30288.9353 -166.8427 -94.5628
ENERGY: 1200000 0.9119 7.5829 3.2306 0.0000 -10747.1435 1430.4687 0.0000 0.0000 1752.5469 -7552.4026 297.6449 -9304.9494 -7512.2695 298.7422 -589.0323 -524.7301 30784.2919 -229.0978 -169.1438
ENERGY: 1500000 1.2406 11.0098 4.1324 0.0000 -10626.3436 1421.6633 0.0000 0.0000 1748.8985 -7439.3990 297.0252 -9188.2975 -7507.7286 298.0587 -82.1700 -64.4610 30565.6959 -145.7528 -83.8740
TCL: Running FEP window   4: Lambda1 0.15000000000000002 Lambda2 0.2    [dLambda 0.04999999999999999]
TCL: Setting parameter firsttimestep to 0
TCL: Setting parameter alchLambda to 0.15000000000000002
Info: NONBONDED TABLE R-SQUARED SPACING: 0.0625
Info: NONBONDED TABLE SIZE: 705 POINTS
TCL: Setting parameter alchLambda2 to 0.2
Info: NONBONDED TABLE R-SQUARED SPACING: 0.0625
Info: NONBONDED TABLE SIZE: 705 POINTS
TCL: Running for 1500000 steps
ETITLE: TS BOND ANGLE DIHED IMPRP ELECT VDW BOUNDARY MISC KINETIC TOTAL TEMP POTENTIAL TOTALAVG TEMPAVG PRESSURE GPRESSURE VOLUME PRESSAVG GPRESSAVG
ENERGY: 0 1.2406 11.0098 4.1324 0.0000 -10626.3429 1423.7257 0.0000 0.0000 1747.9475 -7438.2869 296.8637 -9186.2344 -7438.2869 296.8637 -125.7295 -50.2670 30565.6959 -125.7295 -50.2670
ENERGY: 300000 0.5501 7.2778 3.7904 0.0000 -10654.4895 1386.4853 0.0000 0.0000 1753.7164 -7502.6695 297.8435 -9256.3859 -7490.4932 299.5378 -405.5177 -316.5840 30428.0619 -266.5516 -188.6194
ENERGY: 600000 1.4238 8.8707 4.2109 0.0000 -10668.1183 1415.1787 0.0000 0.0000 1771.1550 -7467.2791 300.8052 -9238.4341 -7482.3126 299.9400 -51.5971 -17.8325 30222.4919 -234.2520 -170.5580
ENERGY: 900000 2.3000 3.7390 2.9797 0.0000 -10668.0984 1444.7705 0.0000 0.0000 1749.8141 -7464.4951 297.1807 -9214.3092 -7484.1993 298.3753 194.6690 208.1088 30046.1213 -286.8509 -220.8427
ENERGY: 1200000 1.1185 8.2213 2.9032 0.0000 -10642.2654 1359.4206 0.0000 0.0000 1733.7427 -7536.8592 294.4512 -9270.6019 -7492.7399 298.2999 -965.2000 -928.9859 30864.9363 -325.8317 -260.0371
ENERGY: 1500000 0.4191 5.9102 5.3642 0.0000 -10757.2289 1445.8786 0.0000 0.0000 1749.4405 -7550.2163 297.1173 -9299.6568 -7491.7248 298.9077 -148.7077 -121.5669 30373.4369 -297.3212 -235.0840
TCL: Running FEP window   5: Lambda1 0.2    Lambda2 0.25   [dLambda 0.04999999999999999]
TCL: Setting parameter firsttimestep to 0
TCL: Setting parameter alchLambda to 0.2
Info: NONBONDED TABLE R-SQUARED SPACING: 0.0625
Info: NONBONDED TABLE SIZE: 705 POINTS
TCL: Setting parameter alchLambda2 to 0.25
Info: NONBONDED TABLE R-SQUARED SPACING: 0.0625
Info: NONBONDED TABLE SIZE: 705 POINTS
TCL: Running for 1500000 steps
ETITLE: TS BOND ANGLE DIHED IMPRP ELECT VDW BOUNDARY MISC KINETIC TOTAL TEMP POTENTIAL TOTALAVG TEMPAVG PRESSURE GPRESSURE VOLUME PRESSAVG GPRESSAVG
ENERGY: 0 0.4191 5.9102 5.3642 0.0000 -10757.2286 1445.8764 0.0000 0.0000 1748.5094 -7551.1493 296.9591 -9299.6587 -7551.1493 296.9591 -182.2170 -119.5738 30373.4369 -182.2170 -119.5738
ENERGY: 300000 1.5057 5.6322 6.2245 0.0000 -10856.2412 1526.2803 0.0000 0.0000 1778.6632 -7537.9352 302.0803 -9316.5985 -7512.1302 301.8012 353.7818 474.5972 30386.9188 148.3350 225.5576
ENERGY: 600000 1.1734 5.8484 2.2093 0.0000 -10816.9931 1483.3158 0.0000 0.0000 1781.7075 -7542.7386 302.5974 -9324.4462 -7503.1449 302.3807 -23.7767 6.1771 30625.0354 76.0823 141.6338
ENERGY: 900000 0.8746 7.2446 3.2275 0.0000 -10607.5349 1408.3018 0.0000 0.0000 1682.7086 -7505.1778 285.7838 -9187.8864 -7511.8001 299.3535 -140.5720 -101.8403 30427.8859 119.5505 177.3721
ENERGY: 1200000 2.1042 7.0868 3.0998 0.0000 -10754.5669 1438.0674 0.0000 0.0000 1786.0522 -7518.1564 303.3353 -9304.2086 -7507.0633 299.7867 -405.9577 -324.0275 30455.6938 -44.5456 11.9218
ENERGY: 1500000 2.8372 13.7837 3.4125 0.0000 -10773.3081 1518.0911 0.0000 0.0000 1731.5053 -7503.6784 294.0712 -9235.1837 -7507.9333 298.3961 624.7085 704.5908 30202.0839 -14.4360 40.8381
TCL: Running FEP window   6: Lambda1 0.25   Lambda2 0.3    [dLambda 0.04999999999999999]
TCL: Setting parameter firsttimestep to 0
TCL: Setting parameter alchLambda to 0.25
Info: NONBONDED TABLE R-SQUARED SPACING: 0.0625
Info: NONBONDED TABLE SIZE: 705 POINTS
TCL: Setting parameter alchLambda2 to 0.3
Info: NONBONDED TABLE R-SQUARED SPACING: 0.0625
Info: NONBONDED TABLE SIZE: 705 POINTS
TCL: Running for 1500000 steps
ETITLE: TS BOND ANGLE DIHED IMPRP ELECT VDW BOUNDARY MISC KINETIC TOTAL TEMP POTENTIAL TOTALAVG TEMPAVG PRESSURE GPRESSURE VOLUME PRESSAVG GPRESSAVG
ENERGY: 0 2.8372 13.7837 3.4125 0.0000 -10773.3069 1519.1774 0.0000 0.0000 1730.6413 -7503.4549 293.9245 -9234.0961 -7503.4549 293.9245 622.8303 714.0604 30202.0839 622.8303 714.0604
ENERGY: 300000 1.2826 8.3343 5.5008 0.0000 -10694.1122 1468.9598 0.0000 0.0000 1812.5089 -7397.5259 307.8285 -9210.0347 -7463.1781 300.5432 269.9407 316.8458 30326.3184 -304.3499 -241.7353
ENERGY: 600000 5.4699 9.0876 2.2875 0.0000 -10769.0189 1431.9944 0.0000 0.0000 1792.7336 -7527.4459 304.4700 -9320.1796 -7475.3246 300.8140 -314.4291 -271.4587 30139.1575 -196.2520 -132.1071
ENERGY: 900000 4.7849 11.6922 3.3035 0.0000 -10776.7525 1498.7320 0.0000 0.0000 1772.3410 -7485.8989 301.0066 -9258.2399 -7500.7700 300.2305 332.4193 388.3630 30450.9782 -100.4665 -35.0411
ENERGY: 1200000 1.6662 7.5709 2.3708 0.0000 -10773.5637 1490.6928 0.0000 0.0000 1749.8410 -7521.4220 297.1853 -9271.2630 -7504.3603 300.0565 -82.9668 9.4700 30887.9499 -92.5488 -24.2735
ENERGY: 1500000 0.9304 4.8283 2.9591 0.0000 -10598.3931 1369.6375 0.0000 0.0000 1808.7203 -7411.3176 307.1851 -9220.0379 -7498.1962 301.2062 -626.2712 -546.7124 30754.5732 -102.8923 -33.4124
TCL: Running FEP window   7: Lambda1 0.3    Lambda2 0.35   [dLambda 0.04999999999999999]
TCL: Setting parameter firsttimestep to 0
TCL: Setting parameter alchLambda to 0.3
Info: NONBONDED TABLE R-SQUARED SPACING: 0.0625
Info: NONBONDED TABLE SIZE: 705 POINTS
TCL: Setting parameter alchLambda2 to 0.35
Info: NONBONDED TABLE R-SQUARED SPACING: 0.0625
Info: NONBONDED TABLE SIZE: 705 POINTS
TCL: Running for 1500000 steps
ETITLE: TS BOND ANGLE DIHED IMPRP ELECT VDW BOUNDARY MISC KINETIC TOTAL TEMP POTENTIAL TOTALAVG TEMPAVG PRESSURE GPRESSURE VOLUME PRESSAVG GPRESSAVG
ENERGY: 0 0.9304 4.8283 2.9591 0.0000 -10598.3926 1369.5818 0.0000 0.0000 1807.8582 -7412.2349 307.0387 -9220.0931 -7412.2349 307.0387 -616.3203 -541.0574 30754.5732 -616.3203 -541.0574
ENERGY: 300000 2.4637 8.9429 2.3436 0.0000 -10653.4146 1460.2026 0.0000 0.0000 1761.7232 -7417.7388 299.2033 -9179.4619 -7438.2648 305.2554 125.2819 224.4944 30614.1723 -399.7672 -369.1894
ENERGY: 600000 0.9359 7.1208 4.1746 0.0000 -10633.1364 1417.3145 0.0000 0.0000 1845.6112 -7357.9795 313.4505 -9203.5907 -7449.5061 305.6332 92.9894 134.8685 30134.4019 -236.5989 -194.7652
ENERGY: 900000 3.5625 8.7428 4.4896 0.0000 -10690.7185 1452.6207 0.0000 0.0000 1798.2630 -7423.0398 305.4091 -9221.3028 -7455.1311 303.7605 186.1262 211.7493 30293.8515 -139.9366 -87.9780
ENERGY: 1200000 0.8389 7.4274 2.4754 0.0000 -10696.3081 1456.1134 0.0000 0.0000 1775.4782 -7453.9748 301.5394 -9229.4530 -7465.3765 302.6016 260.8045 314.5644 30480.6884 -127.6996 -76.3292
ENERGY: 1500000 0.4679 8.2189 3.5844 0.0000 -10755.1684 1467.5755 0.0000 0.0000 1743.9808 -7531.3409 296.1900 -9275.3217 -7471.1173 301.4970 168.7280 328.9353 30178.8535 -131.2254 -74.6645
TCL: Running FEP window   8: Lambda1 0.35   Lambda2 0.39999999999999997 [dLambda 0.04999999999999999]
TCL: Setting parameter firsttimestep to 0
TCL: Setting parameter alchLambda to 0.35
Info: NONBONDED TABLE R-SQUARED SPACING: 0.0625
Info: NONBONDED TABLE SIZE: 705 POINTS
TCL: Setting parameter alchLambda2 to 0.39999999999999997
Info: NONBONDED TABLE R-SQUARED SPACING: 0.0625
Info: NONBONDED TABLE SIZE: 705 POINTS
TCL: Running for 1500000 steps
ETITLE: TS BOND ANGLE DIHED IMPRP ELECT VDW BOUNDARY MISC KINETIC TOTAL TEMP POTENTIAL TOTALAVG TEMPAVG PRESSURE GPRESSURE VOLUME PRESSAVG GPRESSAVG
ENERGY: 0 0.4679 8.2189 3.5844 0.0000 -10755.1693 1467.9692 0.0000 0.0000 1743.1120 -7531.8169 296.0425 -9274.9289 -7531.8169 296.0425 262.6030 337.1717 30178.8535 262.6030 337.1717
ENERGY: 300000 2.9546 5.4461 2.9402 0.0000 -10851.7149 1569.3867 0.0000 0.0000 1800.3717 -7470.6155 305.7672 -9270.9872 -7473.2904 301.5777 949.9680 986.4337 30157.7770 316.5774 365.7656
ENERGY: 600000 2.4741 4.7026 2.3748 0.0000 -10635.2363 1373.9757 0.0000 0.0000 1746.0958 -7505.6133 296.5492 -9251.7090 -7466.2722 302.0492 -404.8091 -350.3683 30193.5339 275.4962 310.4039
ENERGY: 900000 1.6470 6.7760 3.6553 0.0000 -10771.2040 1491.0362 0.0000 0.0000 1761.7266 -7506.3629 299.2039 -9268.0895 -7481.9614 300.0655 254.7688 414.8189 30284.3538 184.4078 235.1229
ENERGY: 1200000 0.1757 8.3185 5.2759 0.0000 -10629.2418 1396.3746 0.0000 0.0000 1754.0012 -7465.0959 297.8919 -9219.0971 -7484.4608 300.1339 -242.0156 -205.5654 30415.7830 141.8236 198.0781
ENERGY: 1500000 0.8250 6.6043 2.8763 0.0000 -10641.8816 1384.6508 0.0000 0.0000 1762.5385 -7484.3868 299.3418 -9246.9253 -7483.3229 299.4277 -666.7800 -613.6421 31031.2386 76.2166 135.8603
TCL: Running FEP window   9: Lambda1 0.39999999999999997 Lambda2 0.44999999999999996 [dLambda 0.04999999999999999]
TCL: Setting parameter firsttimestep to 0
TCL: Setting parameter alchLambda to 0.39999999999999997
Info: NONBONDED TABLE R-SQUARED SPACING: 0.0625
Info: NONBONDED TABLE SIZE: 705 POINTS
TCL: Setting parameter alchLambda2 to 0.44999999999999996
Info: NONBONDED TABLE R-SQUARED SPACING: 0.0625
Info: NONBONDED TABLE SIZE: 705 POINTS
TCL: Running for 1500000 steps
ETITLE: TS BOND ANGLE DIHED IMPRP ELECT VDW BOUNDARY MISC KINETIC TOTAL TEMP POTENTIAL TOTALAVG TEMPAVG PRESSURE GPRESSURE VOLUME PRESSAVG GPRESSAVG
ENERGY: 0 0.8250 6.6043 2.8763 0.0000 -10641.8807 1384.7519 0.0000 0.0000 1761.6990 -7485.1241 299.1992 -9246.8232 -7485.1241 299.1992 -677.8910 -606.6891 31031.2386 -677.8910 -606.6891
ENERGY: 300000 1.1921 4.7662 4.6661 0.0000 -10561.3845 1391.9206 0.0000 0.0000 1800.3549 -7358.4845 305.7644 -9158.8395 -7429.0454 303.8064 -104.2452 -41.6866 30607.9237 -392.8377 -335.1910
ENERGY: 600000 1.9679 9.3481 3.6215 0.0000 -10772.2995 1494.9094 0.0000 0.0000 1791.8541 -7470.5986 304.3206 -9262.4527 -7454.6663 302.1580 351.4801 420.3446 30547.4379 -134.0245 -82.4760
ENERGY: 900000 1.7867 7.7554 3.7038 0.0000 -10728.8750 1459.7833 0.0000 0.0000 1810.5793 -7445.2665 307.5008 -9255.8457 -7466.3722 302.7213 -0.2218 106.4303 30694.3956 -149.4841 -100.1250
ENERGY: 1200000 1.6110 6.5342 2.1894 0.0000 -10845.3101 1528.3173 0.0000 0.0000 1768.9691 -7537.6891 300.4339 -9306.6582 -7485.6677 302.5021 283.6441 347.4206 30500.3242 -104.4483 -55.0421
ENERGY: 1500000 2.5536 7.0419 2.3105 0.0000 -10539.0893 1367.0415 0.0000 0.0000 1762.8228 -7397.3191 299.3901 -9160.1419 -7481.4342 301.7577 -642.8211 -552.9598 31260.3023 -148.9831 -90.8761
TCL: Running FEP window  10: Lambda1 0.44999999999999996 Lambda2 0.49999999999999994 [dLambda 0.04999999999999999]
TCL: Setting parameter firsttimestep to 0
TCL: Setting parameter alchLambda to 0.44999999999999996
Info: NONBONDED TABLE R-SQUARED SPACING: 0.0625
Info: NONBONDED TABLE SIZE: 705 POINTS
TCL: Setting parameter alchLambda2 to 0.49999999999999994
Info: NONBONDED TABLE R-SQUARED SPACING: 0.0625
Info: NONBONDED TABLE SIZE: 705 POINTS
TCL: Running for 1500000 steps
ETITLE: TS BOND ANGLE DIHED IMPRP ELECT VDW BOUNDARY MISC KINETIC TOTAL TEMP POTENTIAL TOTALAVG TEMPAVG PRESSURE GPRESSURE VOLUME PRESSAVG GPRESSAVG
ENERGY: 0 2.5536 7.0419 2.3105 0.0000 -10539.0900 1368.1179 0.0000 0.0000 1761.9655 -7397.1006 299.2445 -9159.0661 -7397.1006 299.2445 -638.1974 -544.2300 31260.3023 -638.1974 -544.2300
ENERGY: 300000 2.5977 5.1569 3.2667 0.0000 -10753.9282 1465.2092 0.0000 0.0000 1813.2087 -7464.4891 307.9474 -9277.6977 -7456.3405 301.3486 157.2139 177.0454 30157.8071 -325.2325 -315.8754
ENERGY: 600000 1.7391 7.1431 2.4205 0.0000 -10660.1550 1373.3989 0.0000 0.0000 1759.5208 -7515.9326 298.8293 -9275.4535 -7444.4344 302.5748 -927.1712 -831.1098 31074.0961 -282.7510 -237.3240
ENERGY: 900000 1.0996 7.8453 2.2581 0.0000 -10624.5368 1430.1430 0.0000 0.0000 1802.3949 -7380.7959 306.1108 -9183.1908 -7445.6443 301.8142 134.7308 273.5997 30488.8373 -239.2005 -183.0374
ENERGY: 1200000 1.2731 8.9045 2.1874 0.0000 -10654.5793 1413.1695 0.0000 0.0000 1784.4022 -7444.6426 303.0550 -9229.0448 -7454.8131 301.7948 -169.5082 -113.2135 30481.8560 -217.9008 -159.9755
ENERGY: 1500000 0.4444 6.7934 3.7189 0.0000 -10792.0296 1499.4203 0.0000 0.0000 1754.9690 -7526.6836 298.0562 -9281.6526 -7466.0196 300.9285 405.5986 439.7452 30311.8140 -161.0669 -108.9893
TCL: Running FEP window  11: Lambda1 0.49999999999999994 Lambda2 0.5499999999999999 [dLambda 0.04999999999999999]
TCL: Setting parameter firsttimestep to 0
TCL: Setting parameter alchLambda to 0.49999999999999994
Info: NONBONDED TABLE R-SQUARED SPACING: 0.0625
Info: NONBONDED TABLE SIZE: 705 POINTS
TCL: Setting parameter alchLambda2 to 0.5499999999999999
Info: NONBONDED TABLE R-SQUARED SPACING: 0.0625
Info: NONBONDED TABLE SIZE: 705 POINTS
TCL: Running for 1500000 steps
ETITLE: TS BOND ANGLE DIHED IMPRP ELECT VDW BOUNDARY MISC KINETIC TOTAL TEMP POTENTIAL TOTALAVG TEMPAVG PRESSURE GPRESSURE VOLUME PRESSAVG GPRESSAVG
ENERGY: 0 0.4444 6.7934 3.7189 0.0000 -10792.0308 1500.0410 0.0000 0.0000 1754.0992 -7526.9338 297.9085 -9281.0330 -7526.9338 297.9085 361.4992 455.7834 30311.8140 361.4992 455.7834
ENERGY: 300000 1.1226 6.6009 1.9904 0.0000 -10776.0012 1471.0996 0.0000 0.0000 1795.3032 -7499.8845 304.9064 -9295.1877 -7537.3502 296.7430 107.7815 140.2023 30545.4155 -171.6106 -109.8332
ENERGY: 600000 0.5121 9.8677 2.6138 0.0000 -10630.9908 1435.8650 0.0000 0.0000 1781.4919 -7400.6403 302.5607 -9182.1322 -7519.6366 297.4565 75.8703 156.2381 30578.5278 -265.3378 -199.1749
ENERGY: 900000 2.4592 9.1748 2.9477 0.0000 -10633.9488 1352.4859 0.0000 0.0000 1776.3132 -7490.5681 301.6812 -9266.8813 -7510.4314 299.2848 -605.4258 -533.1061 30161.0517 -303.0802 -239.2951
ENERGY: 1200000 2.4414 6.7370 2.1893 0.0000 -10611.2463 1357.2330 0.0000 0.0000 1756.3882 -7486.2574 298.2973 -9242.6456 -7518.7163 299.5025 -920.1358 -856.3257 30771.0436 -392.2024 -322.3481
ENERGY: 1500000 1.5835 7.2213 3.6960 0.0000 -10682.6359 1439.9778 0.0000 0.0000 1796.5045 -7433.6528 305.1104 -9230.1573 -7511.9047 298.9828 -134.2992 -65.8101 30719.0356 -345.1541 -279.2547
TCL: Running FEP window  12: Lambda1 0.5499999999999999 Lambda2 0.6    [dLambda 0.050000000000000044]
TCL: Setting parameter firsttimestep to 0
TCL: Setting parameter alchLambda to 0.5499999999999999
Info: NONBONDED TABLE R-SQUARED SPACING: 0.0625
Info: NONBONDED TABLE SIZE: 705 POINTS
TCL: Setting parameter alchLambda2 to 0.6
Info: NONBONDED TABLE R-SQUARED SPACING: 0.0625
Info: NONBONDED TABLE SIZE: 705 POINTS
TCL: Running for 1500000 steps
ETITLE: TS BOND ANGLE DIHED IMPRP ELECT VDW BOUNDARY MISC KINETIC TOTAL TEMP POTENTIAL TOTALAVG TEMPAVG PRESSURE GPRESSURE VOLUME PRESSAVG GPRESSAVG
ENERGY: 0 1.5835 7.2214 3.6960 0.0000 -10682.3826 1441.9161 0.0000 0.0000 1795.6190 -7432.3467 304.9600 -9227.9657 -7432.3467 304.9600 -129.5320 -43.1588 30719.0356 -129.5320 -43.1588
ENERGY: 300000 0.3446 7.8034 1.9173 0.0000 -10872.9995 1503.3326 0.0000 0.0000 1800.4661 -7559.1356 305.7832 -9359.6016 -7479.5344 304.6376 562.2234 620.1739 29735.6624 -4.0272 52.4551
ENERGY: 600000 3.4391 7.9405 2.4037 0.0000 -10647.8903 1399.4370 0.0000 0.0000 1799.8739 -7434.7960 305.6827 -9234.6699 -7480.9383 300.8046 -568.2055 -487.2111 30774.2444 46.8274 89.4630
ENERGY: 900000 2.1012 8.9758 3.2276 0.0000 -10622.1386 1357.0321 0.0000 0.0000 1756.1207 -7494.6813 298.2518 -9250.8020 -7468.2066 300.8768 -850.0048 -746.4748 30680.8921 1.7400 36.4041
ENERGY: 1200000 1.7239 4.8515 2.6901 0.0000 -10696.3792 1457.9755 0.0000 0.0000 1801.9688 -7427.1694 306.0385 -9229.1382 -7474.3683 301.1493 151.5198 238.4201 30220.6963 -34.5726 8.1569
ENERGY: 1500000 1.4496 9.2250 3.2931 0.0000 -10573.8721 1363.9791 0.0000 0.0000 1725.3707 -7470.5546 293.0294 -9195.9253 -7475.3370 300.4638 -604.2278 -576.2793 30734.4336 -72.0517 -30.3331
TCL: Running FEP window  13: Lambda1 0.6    Lambda2 0.65   [dLambda 0.050000000000000044]
TCL: Setting parameter firsttimestep to 0
TCL: Setting parameter alchLambda to 0.6
Info: NONBONDED TABLE R-SQUARED SPACING: 0.0625
Info: NONBONDED TABLE SIZE: 705 POINTS
TCL: Setting parameter alchLambda2 to 0.65
Info: NONBONDED TABLE R-SQUARED SPACING: 0.0625
Info: NONBONDED TABLE SIZE: 705 POINTS
TCL: Running for 1500000 steps
ETITLE: TS BOND ANGLE DIHED IMPRP ELECT VDW BOUNDARY MISC KINETIC TOTAL TEMP POTENTIAL TOTALAVG TEMPAVG PRESSURE GPRESSURE VOLUME PRESSAVG GPRESSAVG
ENERGY: 0 1.4496 9.2250 3.2931 0.0000 -10573.7825 1364.3231 0.0000 0.0000 1724.5138 -7470.9780 292.8838 -9195.4917 -7470.9780 292.8838 -641.1798 -562.1085 30734.4336 -641.1798 -562.1085
ENERGY: 300000 2.2866 9.2519 2.3236 0.0000 -10691.7359 1407.9915 0.0000 0.0000 1793.3621 -7476.5202 304.5767 -9269.8823 -7484.5874 301.4268 -359.1996 -323.5593 30506.4257 -201.1412 -137.1852
ENERGY: 600000 2.9837 4.2494 2.6833 0.0000 -10786.6920 1512.3396 0.0000 0.0000 1771.7303 -7492.7057 300.9029 -9264.4360 -7478.4798 301.1548 623.5859 735.8146 30167.8596 56.2689 119.2985
ENERGY: 900000 1.7633 9.2908 3.2257 0.0000 -10662.9625 1407.0233 0.0000 0.0000 1791.1962 -7450.4631 304.2089 -9241.6593 -7474.5340 301.7382 -330.7553 -314.7653 30565.6481 27.5768 98.4308
ENERGY: 1200000 3.3251 7.9626 3.1266 0.0000 -10755.2123 1469.0632 0.0000 0.0000 1760.9449 -7510.7898 299.0711 -9271.7347 -7481.6539 300.8995 301.4570 333.8543 30376.8125 66.4119 132.6290
ENERGY: 1500000 2.0907 6.8750 3.8868 0.0000 -10657.3980 1460.3103 0.0000 0.0000 1768.4562 -7415.7791 300.3468 -9184.2352 -7479.7020 300.9741 177.9243 206.3302 30943.1614 59.1398 131.4603
TCL: Running FEP window  14: Lambda1 0.65   Lambda2 0.7000000000000001 [dLambda 0.050000000000000044]
TCL: Setting parameter firsttimestep to 0
TCL: Setting parameter alchLambda to 0.65
Info: NONBONDED TABLE R-SQUARED SPACING: 0.0625
Info: NONBONDED TABLE SIZE: 705 POINTS
TCL: Setting parameter alchLambda2 to 0.7000000000000001
Info: NONBONDED TABLE R-SQUARED SPACING: 0.0625
Info: NONBONDED TABLE SIZE: 705 POINTS
TCL: Running for 1500000 steps
ETITLE: TS BOND ANGLE DIHED IMPRP ELECT VDW BOUNDARY MISC KINETIC TOTAL TEMP POTENTIAL TOTALAVG TEMPAVG PRESSURE GPRESSURE VOLUME PRESSAVG GPRESSAVG
ENERGY: 0 2.0907 6.8750 3.8868 0.0000 -10657.6587 1460.2554 0.0000 0.0000 1767.5907 -7416.9602 300.1998 -9184.5509 -7416.9602 300.1998 128.3764 214.4246 30943.1614 128.3764 214.4246
ENERGY: 300000 1.0136 4.1558 2.7533 0.0000 -10673.7566 1413.5278 0.0000 0.0000 1746.5498 -7505.7562 296.6263 -9252.3060 -7486.2682 299.0581 -48.6872 31.6505 30428.5424 185.1198 273.9994
ENERGY: 600000 1.9825 7.3647 4.6876 0.0000 -10741.9926 1395.7375 0.0000 0.0000 1756.9587 -7575.2616 298.3941 -9332.2203 -7491.1911 299.3013 -585.0763 -524.6859 30377.0255 21.8722 113.3321
ENERGY: 900000 0.1557 8.5743 2.6251 0.0000 -10636.2014 1399.9746 0.0000 0.0000 1827.7783 -7397.0934 310.4218 -9224.8718 -7484.2528 301.1269 -346.1555 -227.8635 30705.9320 5.7802 93.6807
ENERGY: 1200000 1.5020 8.6686 2.8993 0.0000 -10586.0539 1348.0501 0.0000 0.0000 1774.7651 -7450.1688 301.4183 -9224.9339 -7475.5033 302.5948 -629.9519 -515.9369 30660.4045 30.7548 115.6596
ENERGY: 1500000 1.0690 8.8373 3.2667 0.0000 -10697.9172 1383.6359 0.0000 0.0000 1733.5481 -7567.5603 294.4182 -9301.1084 -7484.1592 301.3889 -394.9476 -334.9289 30019.0581 33.2351 104.4120
TCL: Running FEP window  15: Lambda1 0.7000000000000001 Lambda2 0.7500000000000001 [dLambda 0.050000000000000044]
TCL: Setting parameter firsttimestep to 0
TCL: Setting parameter alchLambda to 0.7000000000000001
Info: NONBONDED TABLE R-SQUARED SPACING: 0.0625
Info: NONBONDED TABLE SIZE: 705 POINTS
TCL: Setting parameter alchLambda2 to 0.7500000000000001
Info: NONBONDED TABLE R-SQUARED SPACING: 0.0625
Info: NONBONDED TABLE SIZE: 705 POINTS
TCL: Running for 1500000 steps
ETITLE: TS BOND ANGLE DIHED IMPRP ELECT VDW BOUNDARY MISC KINETIC TOTAL TEMP POTENTIAL TOTALAVG TEMPAVG PRESSURE GPRESSURE VOLUME PRESSAVG GPRESSAVG
ENERGY: 0 1.0690 8.8373 3.2667 0.0000 -10697.8730 1383.6344 0.0000 0.0000 1732.6931 -7568.3726 294.2730 -9301.0657 -7568.3726 294.2730 -404.9003 -324.2252 30019.0581 -404.9003 -324.2252
ENERGY: 300000 4.6553 8.6191 3.8088 0.0000 -10631.1883 1417.5901 0.0000 0.0000 1777.8081 -7418.7070 301.9351 -9196.5151 -7505.0308 298.4394 -59.1139 -36.8117 30513.8802 -439.3008 -373.5945
ENERGY: 600000 1.1979 7.9016 4.6123 0.0000 -10792.6539 1529.7252 0.0000 0.0000 1740.8740 -7508.3430 295.6624 -9249.2170 -7478.8735 299.3366 593.1717 574.8664 30798.4969 -183.2623 -136.3890
ENERGY: 900000 1.6030 12.3023 3.9949 0.0000 -10809.8643 1545.7612 0.0000 0.0000 1744.4260 -7501.7769 296.2656 -9246.2029 -7493.9362 298.3702 673.3166 733.0250 30612.4060 -86.1162 -40.6630
ENERGY: 1200000 2.0417 9.0863 3.1081 0.0000 -10682.4196 1479.3975 0.0000 0.0000 1820.9616 -7367.8244 309.2641 -9188.7860 -7494.0281 299.6819 703.5460 712.3778 30280.2657 4.8799 41.9004
ENERGY: 1500000 0.4172 5.5762 3.1641 0.0000 -10601.6501 1410.7887 0.0000 0.0000 1764.8637 -7416.8401 299.7367 -9181.7038 -7491.2231 299.8002 -24.2149 -0.4623 30817.4853 -52.1614 -9.0915
TCL: Running FEP window  16: Lambda1 0.7500000000000001 Lambda2 0.8000000000000002 [dLambda 0.050000000000000044]
TCL: Setting parameter firsttimestep to 0
TCL: Setting parameter alchLambda to 0.7500000000000001
Info: NONBONDED TABLE R-SQUARED SPACING: 0.0625
Info: NONBONDED TABLE SIZE: 705 POINTS
TCL: Setting parameter alchLambda2 to 0.8000000000000002
Info: NONBONDED TABLE R-SQUARED SPACING: 0.0625
Info: NONBONDED TABLE SIZE: 705 POINTS
TCL: Running for 1500000 steps
ETITLE: TS BOND ANGLE DIHED IMPRP ELECT VDW BOUNDARY MISC KINETIC TOTAL TEMP POTENTIAL TOTALAVG TEMPAVG PRESSURE GPRESSURE VOLUME PRESSAVG GPRESSAVG
ENERGY: 0 0.4172 5.5762 3.1641 0.0000 -10601.9929 1411.0779 0.0000 0.0000 1763.9918 -7417.7656 299.5886 -9181.7574 -7417.7656 299.5886 -73.0603 9.3987 30817.4853 -73.0603 9.3987
ENERGY: 300000 1.4685 9.3313 3.3154 0.0000 -10697.5345 1363.2657 0.0000 0.0000 1733.0789 -7587.0747 294.3385 -9320.1536 -7482.9503 296.2367 -661.8907 -680.4300 30304.2025 329.5080 357.5283
ENERGY: 600000 2.5635 8.0621 2.5313 0.0000 -10609.8986 1397.9873 0.0000 0.0000 1723.9383 -7474.8162 292.7861 -9198.7545 -7480.1296 297.4716 48.4855 115.3596 30283.6211 373.7784 422.8127
ENERGY: 900000 0.8673 10.7268 2.0371 0.0000 -10656.0858 1415.4330 0.0000 0.0000 1804.3601 -7422.6616 306.4446 -9227.0216 -7467.5309 298.9650 -93.2617 -36.0678 30674.0362 118.2234 173.6604
ENERGY: 1200000 1.2833 8.3215 2.7897 0.0000 -10708.1256 1439.8306 0.0000 0.0000 1780.8475 -7475.0530 302.4513 -9255.9005 -7469.0279 299.8111 89.8487 142.2742 30606.6492 22.5666 73.5367
ENERGY: 1500000 0.4243 13.7469 2.6405 0.0000 -10699.4940 1418.4456 0.0000 0.0000 1775.8920 -7488.3448 301.6097 -9264.2367 -7482.0839 299.6975 -112.5785 -10.0587 30360.7565 -36.0112 16.9455
TCL: Running FEP window  17: Lambda1 0.8000000000000002 Lambda2 0.8500000000000002 [dLambda 0.050000000000000044]
TCL: Setting parameter firsttimestep to 0
TCL: Setting parameter alchLambda to 0.8000000000000002
Info: NONBONDED TABLE R-SQUARED SPACING: 0.0625
Info: NONBONDED TABLE SIZE: 705 POINTS
TCL: Setting parameter alchLambda2 to 0.8500000000000002
Info: NONBONDED TABLE R-SQUARED SPACING: 0.0625
Info: NONBONDED TABLE SIZE: 705 POINTS
TCL: Running for 1500000 steps
ETITLE: TS BOND ANGLE DIHED IMPRP ELECT VDW BOUNDARY MISC KINETIC TOTAL TEMP POTENTIAL TOTALAVG TEMPAVG PRESSURE GPRESSURE VOLUME PRESSAVG GPRESSAVG
ENERGY: 0 0.4243 13.7469 2.6405 0.0000 -10699.8330 1418.4604 0.0000 0.0000 1775.0278 -7489.5331 301.4629 -9264.5610 -7489.5331 301.4629 -95.6495 -1.4138 30360.7565 -95.6495 -1.4138
ENERGY: 300000 0.9406 11.3754 2.0280 0.0000 -10638.6153 1362.9880 0.0000 0.0000 1775.9732 -7485.3101 301.6235 -9261.2833 -7504.7841 299.5223 -430.6191 -447.7797 30573.8381 -478.6616 -429.6344
ENERGY: 600000 0.6330 8.4240 3.9294 0.0000 -10689.3438 1400.2114 0.0000 0.0000 1814.0590 -7462.0869 308.0918 -9276.1459 -7489.5658 302.6701 -451.4765 -289.4618 30687.6209 -299.3586 -240.2987
ENERGY: 900000 1.6570 9.6124 3.6940 0.0000 -10570.0077 1345.2206 0.0000 0.0000 1773.3428 -7436.4809 301.1767 -9209.8236 -7469.9498 301.9666 -586.9913 -481.4696 30528.4469 -347.1822 -286.9551
ENERGY: 1200000 1.3495 7.3447 2.9447 0.0000 -10869.5410 1553.5646 0.0000 0.0000 1779.5316 -7524.8058 302.2278 -9304.3374 -7486.8599 301.0871 806.3507 847.2990 30246.1159 -155.1660 -95.1813
ENERGY: 1500000 2.0582 4.4664 3.3025 0.0000 -10698.2725 1416.3068 0.0000 0.0000 1767.1522 -7504.9864 300.1254 -9272.1386 -7493.9895 300.0839 -281.3411 -228.5609 30583.2805 -84.3291 -27.4774
TCL: Running FEP window  18: Lambda1 0.8500000000000002 Lambda2 0.9000000000000002 [dLambda 0.050000000000000044]
TCL: Setting parameter firsttimestep to 0
TCL: Setting parameter alchLambda to 0.8500000000000002
Info: NONBONDED TABLE R-SQUARED SPACING: 0.0625
Info: NONBONDED TABLE SIZE: 705 POINTS
TCL: Setting parameter alchLambda2 to 0.9000000000000002
Info: NONBONDED TABLE R-SQUARED SPACING: 0.0625
Info: NONBONDED TABLE SIZE: 705 POINTS
TCL: Running for 1500000 steps
ETITLE: TS BOND ANGLE DIHED IMPRP ELECT VDW BOUNDARY MISC KINETIC TOTAL TEMP POTENTIAL TOTALAVG TEMPAVG PRESSURE GPRESSURE VOLUME PRESSAVG GPRESSAVG
ENERGY: 0 2.0582 4.4664 3.3025 0.0000 -10698.4429 1417.2927 0.0000 0.0000 1766.2320 -7505.0910 299.9691 -9271.3230 -7505.0910 299.9691 -287.9405 -204.2465 30583.2805 -287.9405 -204.2465
ENERGY: 300000 2.4052 5.0604 3.1023 0.0000 -10517.4009 1284.9755 0.0000 0.0000 1751.3706 -7470.4869 297.4451 -9221.8575 -7532.2575 298.7615 -1443.9774 -1373.2863 31110.2998 -344.4578 -277.7153
ENERGY: 600000 2.2504 8.0984 2.8705 0.0000 -10749.8724 1425.5169 0.0000 0.0000 1749.0723 -7562.0638 297.0548 -9311.1361 -7523.7464 299.1369 -264.0715 -122.6973 30157.3128 -374.3020 -289.9443
ENERGY: 900000 2.4220 4.4873 2.0289 0.0000 -10621.8350 1366.0744 0.0000 0.0000 1705.9067 -7540.9156 289.7237 -9246.8223 -7531.1645 297.4939 -693.1467 -563.2673 30607.0591 -222.1140 -149.8659
ENERGY: 1200000 1.5635 9.6003 2.8073 0.0000 -10716.3469 1422.9384 0.0000 0.0000 1771.1976 -7508.2398 300.8124 -9279.4374 -7517.3096 297.9424 35.2874 42.5344 30062.5620 -272.5369 -209.2618
ENERGY: 1500000 2.0512 7.3916 4.2598 0.0000 -10683.9102 1400.8598 0.0000 0.0000 1791.5513 -7477.7967 304.2692 -9269.3479 -7500.3976 299.0959 -508.1683 -454.4704 30650.6482 -209.1363 -144.3858
TCL: Running FEP window  19: Lambda1 0.9000000000000002 Lambda2 0.9500000000000003 [dLambda 0.050000000000000044]
TCL: Setting parameter firsttimestep to 0
TCL: Setting parameter alchLambda to 0.9000000000000002
Info: NONBONDED TABLE R-SQUARED SPACING: 0.0625
Info: NONBONDED TABLE SIZE: 705 POINTS
TCL: Setting parameter alchLambda2 to 0.9500000000000003
Info: NONBONDED TABLE R-SQUARED SPACING: 0.0625
Info: NONBONDED TABLE SIZE: 705 POINTS
TCL: Running for 1500000 steps
ETITLE: TS BOND ANGLE DIHED IMPRP ELECT VDW BOUNDARY MISC KINETIC TOTAL TEMP POTENTIAL TOTALAVG TEMPAVG PRESSURE GPRESSURE VOLUME PRESSAVG GPRESSAVG
ENERGY: 0 2.0512 7.3915 4.2598 0.0000 -10684.2300 1400.6513 0.0000 0.0000 1790.6178 -7479.2584 304.1106 -9269.8762 -7479.2584 304.1106 -519.4413 -443.8179 30650.6482 -519.4413 -443.8179
ENERGY: 300000 2.5238 7.4719 4.6180 0.0000 -10746.6429 1473.8489 0.0000 0.0000 1779.7592 -7478.4211 302.2665 -9258.1803 -7510.0870 300.6925 333.0223 457.6669 30255.2969 -92.3194 -21.2939
ENERGY: 600000 1.4890 10.6297 3.5741 0.0000 -10701.7107 1458.9079 0.0000 0.0000 1807.1345 -7419.9756 306.9158 -9227.1101 -7487.9307 300.8061 407.5916 502.7107 30338.8909 44.9565 126.9472
ENERGY: 900000 2.2831 6.7824 4.6916 0.0000 -10821.0909 1485.8136 0.0000 0.0000 1744.4678 -7577.0524 296.2727 -9321.5202 -7493.5101 299.7358 94.1298 181.6274 30325.0540 21.3898 109.4936
ENERGY: 1200000 0.4613 7.0324 4.0914 0.0000 -10732.7838 1451.1727 0.0000 0.0000 1768.8225 -7501.2036 300.4090 -9270.0260 -7490.7251 299.4793 382.1988 423.2134 29962.7795 2.1343 87.2603
ENERGY: 1500000 2.1355 5.0884 1.9725 0.0000 -10694.5966 1407.7593 0.0000 0.0000 1752.3006 -7525.3403 297.6030 -9277.6408 -7489.3511 300.0092 -153.6855 -108.1421 30022.3003 112.3241 187.5178
TCL: Running FEP window  20: Lambda1 0.9500000000000003 Lambda2 1.0    [dLambda 0.04999999999999971]
TCL: Setting parameter firsttimestep to 0
TCL: Setting parameter alchLambda to 0.9500000000000003
Info: NONBONDED TABLE R-SQUARED SPACING: 0.0625
Info: NONBONDED TABLE SIZE: 705 POINTS
TCL: Setting parameter alchLambda2 to 1.0
Info: NONBONDED TABLE R-SQUARED SPACING: 0.0625
Info: NONBONDED TABLE SIZE: 705 POINTS
TCL: Running for 1500000 steps
ETITLE: TS BOND ANGLE DIHED IMPRP ELECT VDW BOUNDARY MISC KINETIC TOTAL TEMP POTENTIAL TOTALAVG TEMPAVG PRESSURE GPRESSURE VOLUME PRESSAVG GPRESSAVG
ENERGY: 0 2.1355 5.0884 1.9725 0.0000 -10694.8014 1407.5831 0.0000 0.0000 1751.4142 -7526.6076 297.4525 -9278.0218 -7526.6076 297.4525 -196.2289 -96.6358 30022.3003 -196.2289 -96.6358
ENERGY: 300000 3.0254 8.6243 2.5788 0.0000 -10534.6501 1384.3735 0.0000 0.0000 1776.5699 -7359.4783 301.7248 -9136.0482 -7483.0807 296.4706 -38.5466 40.9151 30530.1697 -289.1385 -227.8397
ENERGY: 600000 0.6707 7.7426 1.9514 0.0000 -10680.1987 1383.3996 0.0000 0.0000 1778.7247 -7507.7098 302.0908 -9286.4345 -7474.4458 299.0458 -410.9919 -377.7305 30367.6649 -424.0524 -373.1794
ENERGY: 900000 2.4742 12.2688 2.3018 0.0000 -10683.3797 1453.4152 0.0000 0.0000 1799.6864 -7413.2333 305.6508 -9212.9197 -7476.6860 299.1459 304.5725 330.7156 30471.4118 -319.5651 -251.2563
ENERGY: 1200000 1.2817 9.3184 3.6165 0.0000 -10819.2375 1504.6119 0.0000 0.0000 1746.1919 -7554.2171 296.5656 -9300.4090 -7491.3875 299.1286 328.0745 372.4580 30531.2295 -214.2766 -149.1667
ENERGY: 1500000 0.9331 7.4089 4.2755 0.0000 -10642.0281 1383.8198 0.0000 0.0000 1761.8670 -7483.7238 299.2277 -9245.5908 -7485.7468 299.9244 -348.0369 -273.6478 30638.6710 -204.9703 -140.6670
TCL: Exiting due to exit command.
