Info: SIMULATION PARAMETERS:
Info: TIMESTEP               2
Info: NUMBER OF STEPS        0
Info: STEPS PER CYCLE        10
Info: PERIODIC CELL BASIS 1  30.954 0 0
Info: PERIODIC CELL BASIS 2  0 29.4747 0
Info: PERIODIC CELL BASIS 3  0 0 33.135
Info: PERIODIC CELL CENTER   0 0 0
Info: WRAPPING WATERS AROUND PERIODIC BOUNDARIES ON OUTPUT.
Info: WRAPPING ALL CLUSTERS AROUND PERIODIC BOUNDARIES ON OUTPUT.
Info: FIRST LDB TIMESTEP     50
Info: LAST LDB TIMESTEP     -1
Info: HOM BACKGROUND SCALING 1
Info: PME BACKGROUND SCALING 1
Info: MIN ATOMS PER PATCH    40
Info: EMPTY PATCH LOAD       40 ATOMS
Info: VELOCITY FILE          mobley_486214_equil.vel
Info: CENTER OF MASS MOVING INITIALLY? NO
Info: DIELECTRIC             1
Info: EXCLUDE                SCALED ONE-FOUR
Info: 1-4 ELECTROSTATICS SCALED BY 0.833333
Info: MODIFIED 1-4 VDW PARAMETERS WILL BE USED
Info: DCD FILENAME           mobley_486214_prod.dcd
Info: DCD FREQUENCY          100000
Info: DCD FIRST STEP         100000
Info: DCD FILE WILL CONTAIN UNIT CELL DATA
Info: XST FILENAME           mobley_486214_prod.xst
Info: XST FREQUENCY          100000
Info: NO VELOCITY DCD OUTPUT
Info: NO FORCE DCD OUTPUT
Info: OUTPUT FILENAME        mobley_486214_prod
Info: BINARY OUTPUT FILES WILL BE USED
Info: RESTART FILENAME       mobley_486214_prod.restart
Info: RESTART FREQUENCY      100000
Info: BINARY RESTART FILES WILL BE USED
Info: CUTOFF                 9
Info: PAIRLIST DISTANCE      11
Info: PAIRLIST SHRINK RATE   0.01
Info: PAIRLIST GROW RATE     0.01
Info: PAIRLIST TRIGGER       0.3
Info: PAIRLISTS PER CYCLE    2
Info: PAIRLISTS ENABLED
Info: MARGIN                 2
Info: HYDROGEN GROUP CUTOFF  2.5
Info: PATCH DIMENSION        15.5
Info: ENERGY OUTPUT STEPS    100000
Info: ENERGY EVALUATION STEPS    100000
Info: OUTPUT ENERGY PRECISION 4
Info: CROSSTERM ENERGY INCLUDED IN DIHEDRAL
Info: TIMING OUTPUT STEPS    1000000
Info: PRESSURE OUTPUT STEPS  100000
Info: ALCHEMICAL FEP ON
Info: FEP CURRENT LAMBDA VALUE     0
Info: FEP COMPARISON LAMBDA VALUE  0.05
Info: FEP INTRA-ALCHEMICAL NON-BONDED INTERACTIONS WILL BE RETAINED
Info: FEP INTRA-ALCHEMICAL BONDED INTERACTIONS WILL BE RETAINED
Info: FEP VDW SHIFTING COEFFICIENT 5
Info: FEP ELEC. ACTIVE FOR ANNIHILATED PARTICLES BETWEEN LAMBDA = 0 AND LAMBDA = 0.5
Info: FEP ELEC. ACTIVE FOR EXNIHILATED PARTICLES BETWEEN LAMBDA = 0.5 AND LAMBDA = 1
Info: FEP VDW ACTIVE FOR ANNIHILATED PARTICLES BETWEEN LAMBDA = 0 AND LAMBDA = 1
Info: FEP VDW ACTIVE FOR EXNIHILATED PARTICLES BETWEEN LAMBDA = 0 AND LAMBDA = 1
Info: FEP BOND ACTIVE FOR ANNIHILATED PARTICLES BETWEEN LAMBDA = 1 AND LAMBDA = 1
Info: FEP BOND ACTIVE FOR EXNIHILATED PARTICLES BETWEEN LAMBDA = 0 AND LAMBDA = 0
Info: LANGEVIN DYNAMICS ACTIVE
Info: LANGEVIN TEMPERATURE   300
Info: LANGEVIN USING BBK INTEGRATOR
Info: LANGEVIN DAMPING COEFFICIENT IS 1 INVERSE PS
Info: LANGEVIN DYNAMICS APPLIED TO HYDROGENS
Info: LANGEVIN PISTON PRESSURE CONTROL ACTIVE
Info:        TARGET PRESSURE IS 1.01325 BAR
Info:     OSCILLATION PERIOD IS 50 FS
Info:             DECAY TIME IS 25 FS
Info:     PISTON TEMPERATURE IS 300 K
Info:       PRESSURE CONTROL IS GROUP-BASED
Info:    INITIAL STRAIN RATE IS -0.000310491 -0.000310491 -0.000310491
Info:       CELL FLUCTUATION IS ISOTROPIC
Info: PARTICLE MESH EWALD (PME) ACTIVE
Info: PME TOLERANCE               1e-06
Info: PME EWALD COEFFICIENT       0.348832
Info: PME INTERPOLATION ORDER     4
Info: PME GRID DIMENSIONS         32 32 36
Info: PME MAXIMUM GRID SPACING    1
Info: PME CALCULATION WILL BE PERFORMED ON GPU
Info: FULL ELECTROSTATIC EVALUATION FREQUENCY      2
Info: USING VERLET I (r-RESPA) MTS SCHEME.
Info: C1 SPLITTING OF LONG RANGE ELECTROSTATICS
Info: PLACING ATOMS IN PATCHES BY HYDROGEN GROUPS
Info: RIGID BONDS TO HYDROGEN : ALL
Info:         ERROR TOLERANCE : 1e-08
Info:          MAX ITERATIONS : 100
Info: RIGID WATER USING SETTLE ALGORITHM
Info: RANDOM NUMBER SEED     1743869457
Info: USE HYDROGEN BONDS?    NO
Info: Using AMBER format force field!
Info: AMBER PARM FILE        mobley_486214.prmtop
Info: COORDINATE PDB         mobley_486214.pdb
Info: Exclusions will be read from PARM file!
Info: SCNB (VDW SCALING)     2
Info: USING ARITHMETIC MEAN TO COMBINE L-J SIGMA PARAMETERS
Info: BINARY COORDINATES     mobley_486214_equil.coor
Info: SUMMARY OF PARAMETERS:
Info: 9 BONDS
Info: 8 ANGLES
Info:   8 HARMONIC
Info:   0 COSINE-BASED
Info: 4 DIHEDRAL
Info: 0 IMPROPER
Info: 0 CROSSTERM
Info: 0 VDW
Info: 36 VDW_PAIRS
Info: 0 NBTHOLE_PAIRS
Info: To read alchdata from file: mobley_486214.pdb
Info: To read alchflag data from column: 5
Info: STRUCTURE SUMMARY:
Info: 2916 ATOMS
Info: 2916 BONDS
Info: 33 ANGLES
Info: 42 DIHEDRALS
Info: 0 IMPROPERS
Info: 0 CROSSTERMS
Info: 2982 EXCLUSIONS
Info: 2905 RIGID BONDS
Info: ALCH: 0 ATOMS TO DISAPPEAR IN FINAL STATE
Info: ALCH: 21 ATOMS TO APPEAR IN FINAL STATE
Info: 5843 DEGREES OF FREEDOM
Info: 976 HYDROGEN GROUPS
Info: 4 ATOMS IN LARGEST HYDROGEN GROUP
Info: 976 MIGRATION GROUPS
Info: 4 ATOMS IN LARGEST MIGRATION GROUP
Info: TOTAL MASS = 17539.6 amu
Info: TOTAL CHARGE = 0.000300005 e
Info: MASS DENSITY = 0.963442 g/cm^3
Info: ATOM DENSITY = 0.0964571 atoms/A^3
Info: ADDED 0 IMPLICIT EXCLUSIONS
Info: NONBONDED TABLE R-SQUARED SPACING: 0.0625
Info: NONBONDED TABLE SIZE: 705 POINTS
Info: REMOVING COM VELOCITY -0.279412 -0.164409 -0.0965772
Info: Use 3D box decompostion in PME FFT.
Info: Updated CUDA force table with 4096 elements.
Info: Updated CUDA LJ table with 8 x 8 elements.
Info: Found 22 unique exclusion lists needing 60 bytes
TCL: Running for 1500000 steps
ETITLE: TS BOND ANGLE DIHED IMPRP ELECT VDW BOUNDARY MISC KINETIC TOTAL TEMP POTENTIAL TOTALAVG TEMPAVG PRESSURE GPRESSURE VOLUME PRESSAVG GPRESSAVG
ENERGY: 0 2.3903 7.9096 8.6242 0.0000 -10430.4871 1387.9484 0.0000 0.0000 1755.8697 -7267.7450 302.4453 -9023.6147 -7267.7450 302.4453 -363.1338 -278.7438 30231.0601 -363.1338 -278.7438
ENERGY: 300000 3.9781 3.8733 7.9212 0.0000 -10687.5216 1512.1859 0.0000 0.0000 1721.8276 -7437.7355 296.5816 -9159.5631 -7380.6663 298.5048 331.4388 422.1805 29878.5859 -130.9353 -72.4086
ENERGY: 600000 3.5351 10.4736 5.1634 0.0000 -10459.6084 1363.6697 0.0000 0.0000 1723.8370 -7352.9295 296.9277 -9076.7666 -7371.6155 297.3820 -592.3281 -541.1215 30126.0500 -39.3511 23.6440
ENERGY: 900000 2.3378 10.8093 6.9986 0.0000 -10605.4793 1446.3539 0.0000 0.0000 1762.6690 -7376.3106 303.6164 -9138.9797 -7367.0512 297.7943 229.6408 254.3115 29500.6424 -59.2309 -5.4918
ENERGY: 1200000 3.5936 9.1941 8.2139 0.0000 -10481.3913 1455.4754 0.0000 0.0000 1763.5701 -7241.3442 303.7716 -9004.9142 -7341.6139 299.8515 451.0005 539.6152 29826.8811 66.4924 129.0093
ENERGY: 1500000 4.8807 6.1568 10.7618 0.0000 -10614.3154 1463.2973 0.0000 0.0000 1746.7866 -7382.4322 300.8807 -9129.2188 -7339.6715 300.8787 457.0944 557.3442 29432.0316 128.3287 193.4983
TCL: Running FEP window   2: Lambda1 0.05   Lambda2 0.1    [dLambda 0.05  ]
TCL: Setting parameter firsttimestep to 0
TCL: Setting parameter alchLambda to 0.05
Info: NONBONDED TABLE R-SQUARED SPACING: 0.0625
Info: NONBONDED TABLE SIZE: 705 POINTS
TCL: Setting parameter alchLambda2 to 0.1
Info: NONBONDED TABLE R-SQUARED SPACING: 0.0625
Info: NONBONDED TABLE SIZE: 705 POINTS
TCL: Running for 1500000 steps
ETITLE: TS BOND ANGLE DIHED IMPRP ELECT VDW BOUNDARY MISC KINETIC TOTAL TEMP POTENTIAL TOTALAVG TEMPAVG PRESSURE GPRESSURE VOLUME PRESSAVG GPRESSAVG
ENERGY: 0 4.8807 6.1568 10.7619 0.0000 -10614.3162 1465.4067 0.0000 0.0000 1745.8759 -7381.2343 300.7238 -9127.1101 -7381.2343 300.7238 485.6058 566.3433 29432.0316 485.6058 566.3433
ENERGY: 300000 1.2813 8.5081 6.1894 0.0000 -10537.7173 1426.0097 0.0000 0.0000 1762.4415 -7333.2872 303.5772 -9095.7288 -7365.1164 300.6802 -10.4986 8.8546 30089.3277 -14.5560 41.2323
ENERGY: 600000 2.1123 9.5037 7.7250 0.0000 -10591.9967 1479.2506 0.0000 0.0000 1731.3644 -7362.0408 298.2243 -9093.4052 -7362.2738 299.7166 615.5609 660.9475 29418.9263 31.8054 82.7824
ENERGY: 900000 2.5111 9.2973 2.5042 0.0000 -10385.6240 1330.2134 0.0000 0.0000 1698.2550 -7342.8429 292.5212 -9041.0979 -7350.5632 299.3114 -853.4401 -737.0003 29969.5089 -59.4609 -4.9113
ENERGY: 1200000 5.5893 9.5637 12.2283 0.0000 -10425.2775 1322.9121 0.0000 0.0000 1748.1415 -7326.8427 301.1141 -9074.9841 -7344.9820 299.7799 -962.3234 -830.7502 29971.5926 -144.3971 -87.0894
ENERGY: 1500000 2.7854 5.8975 9.0472 0.0000 -10394.9787 1367.2396 0.0000 0.0000 1731.4294 -7278.5797 298.2355 -9010.0091 -7344.0271 300.0017 -287.3097 -280.4602 30197.8209 -58.9845 -8.3572
TCL: Running FEP window   3: Lambda1 0.1    Lambda2 0.15000000000000002 [dLambda 0.05000000000000002]
TCL: Setting parameter firsttimestep to 0
TCL: Setting parameter alchLambda to 0.1
Info: NONBONDED TABLE R-SQUARED SPACING: 0.0625
Info: NONBONDED TABLE SIZE: 705 POINTS
TCL: Setting parameter alchLambda2 to 0.15000000000000002
Info: NONBONDED TABLE R-SQUARED SPACING: 0.0625
Info: NONBONDED TABLE SIZE: 705 POINTS
TCL: Running for 1500000 steps
ETITLE: TS BOND ANGLE DIHED IMPRP ELECT VDW BOUNDARY MISC KINETIC TOTAL TEMP POTENTIAL TOTALAVG TEMPAVG PRESSURE GPRESSURE VOLUME PRESSAVG GPRESSAVG
ENERGY: 0 2.7854 5.8975 9.0472 0.0000 -10394.9794 1368.0660 0.0000 0.0000 1730.5688 -7278.6145 298.0872 -9009.1833 -7278.6145 298.0872 -364.8792 -273.0514 30197.8209 -364.8792 -273.0514
ENERGY: 300000 4.0392 7.6548 11.2759 0.0000 -10342.2700 1340.5184 0.0000 0.0000 1721.5197 -7257.2619 296.5285 -8978.7816 -7323.2060 299.4492 -161.6976 -153.9320 29500.5168 -288.2372 -249.2795
ENERGY: 600000 4.9883 13.9573 5.3899 0.0000 -10452.4491 1384.3437 0.0000 0.0000 1767.9596 -7275.8102 304.5277 -9043.7698 -7325.5577 300.2802 4.5235 52.2837 29630.1057 -86.7952 -42.7658
ENERGY: 900000 1.8954 6.1046 7.8773 0.0000 -10543.7059 1460.3404 0.0000 0.0000 1787.7434 -7279.7447 307.9355 -9067.4881 -7317.9691 302.2604 115.6955 202.9611 30164.9402 -1.2557 52.9819
ENERGY: 1200000 2.0770 9.2844 2.6212 0.0000 -10425.4246 1367.3642 0.0000 0.0000 1823.2863 -7220.7915 314.0576 -9044.0778 -7319.5171 303.2255 2.5673 14.9636 29685.3766 -68.1117 -16.9401
ENERGY: 1500000 3.6043 10.3355 7.6510 0.0000 -10555.9392 1480.7107 0.0000 0.0000 1754.7533 -7298.8844 302.2530 -9053.6377 -7327.2161 302.5550 430.0028 477.0511 30058.3197 -57.0608 -8.1035
TCL: Running FEP window   4: Lambda1 0.15000000000000002 Lambda2 0.2    [dLambda 0.04999999999999999]
TCL: Setting parameter firsttimestep to 0
TCL: Setting parameter alchLambda to 0.15000000000000002
Info: NONBONDED TABLE R-SQUARED SPACING: 0.0625
Info: NONBONDED TABLE SIZE: 705 POINTS
TCL: Setting parameter alchLambda2 to 0.2
Info: NONBONDED TABLE R-SQUARED SPACING: 0.0625
Info: NONBONDED TABLE SIZE: 705 POINTS
TCL: Running for 1500000 steps
ETITLE: TS BOND ANGLE DIHED IMPRP ELECT VDW BOUNDARY MISC KINETIC TOTAL TEMP POTENTIAL TOTALAVG TEMPAVG PRESSURE GPRESSURE VOLUME PRESSAVG GPRESSAVG
ENERGY: 0 3.6043 10.3355 7.6510 0.0000 -10555.9382 1480.7564 0.0000 0.0000 1753.8620 -7299.7289 302.0994 -9053.5909 -7299.7289 302.0994 385.0079 482.4914 30058.3197 385.0079 482.4914
ENERGY: 300000 2.1739 8.7289 12.0070 0.0000 -10409.6658 1336.5366 0.0000 0.0000 1750.8235 -7299.3961 301.5761 -9050.2195 -7356.1908 298.8191 -621.4790 -603.6808 30165.3807 -2.9240 46.4200
ENERGY: 600000 4.7460 6.0476 2.5292 0.0000 -10554.5545 1458.3850 0.0000 0.0000 1734.5679 -7348.2788 298.7761 -9082.8467 -7343.9710 300.3659 682.7599 702.7663 29363.3352 218.6576 270.7131
ENERGY: 900000 2.7725 8.6692 7.1825 0.0000 -10690.1916 1528.6823 0.0000 0.0000 1779.8642 -7363.0209 306.5783 -9142.8851 -7341.0151 300.4134 1009.0001 1026.0118 29549.3500 361.9356 416.2827
ENERGY: 1200000 2.6397 9.0019 5.4540 0.0000 -10551.5203 1424.8248 0.0000 0.0000 1694.1265 -7415.4735 291.8101 -9109.6000 -7345.4456 299.7031 -231.7517 -196.7878 30218.5135 245.2227 303.0701
ENERGY: 1500000 5.6493 5.7930 8.6499 0.0000 -10554.8680 1456.4592 0.0000 0.0000 1765.0966 -7313.2199 304.0346 -9078.3165 -7344.5481 300.2128 234.6488 305.9661 29895.2596 250.0738 311.0327
TCL: Running FEP window   5: Lambda1 0.2    Lambda2 0.25   [dLambda 0.04999999999999999]
TCL: Setting parameter firsttimestep to 0
TCL: Setting parameter alchLambda to 0.2
Info: NONBONDED TABLE R-SQUARED SPACING: 0.0625
Info: NONBONDED TABLE SIZE: 705 POINTS
TCL: Setting parameter alchLambda2 to 0.25
Info: NONBONDED TABLE R-SQUARED SPACING: 0.0625
Info: NONBONDED TABLE SIZE: 705 POINTS
TCL: Running for 1500000 steps
ETITLE: TS BOND ANGLE DIHED IMPRP ELECT VDW BOUNDARY MISC KINETIC TOTAL TEMP POTENTIAL TOTALAVG TEMPAVG PRESSURE GPRESSURE VOLUME PRESSAVG GPRESSAVG
ENERGY: 0 5.6493 5.7930 8.6499 0.0000 -10554.8695 1457.8549 0.0000 0.0000 1764.2198 -7312.7026 303.8835 -9076.9224 -7312.7026 303.8835 227.4445 313.9335 29895.2596 227.4445 313.9335
ENERGY: 300000 4.9402 10.0049 4.6780 0.0000 -10482.3427 1371.3160 0.0000 0.0000 1730.9078 -7360.4959 298.1456 -9091.4037 -7326.4263 300.1537 -511.1460 -490.2824 29813.5074 -73.2851 -30.8471
ENERGY: 600000 1.9049 7.8008 9.2647 0.0000 -10453.9123 1364.5760 0.0000 0.0000 1778.4339 -7291.9320 306.3319 -9070.3659 -7336.1579 301.6334 -384.6569 -373.6744 30132.8167 -57.4846 -16.2491
ENERGY: 900000 3.8649 5.6675 9.8166 0.0000 -10541.7573 1338.6007 0.0000 0.0000 1704.2201 -7479.5876 293.5487 -9183.8077 -7355.3115 301.1606 -1010.5937 -960.8166 30165.0581 -220.9126 -176.8665
ENERGY: 1200000 3.4807 8.6593 5.7906 0.0000 -10546.6743 1453.2324 0.0000 0.0000 1786.7593 -7288.7520 307.7659 -9075.5113 -7351.0587 301.3540 418.4235 382.4472 30065.0080 -118.2460 -74.6886
ENERGY: 1500000 2.2594 6.9585 5.6604 0.0000 -10514.1300 1427.0120 0.0000 0.0000 1725.6180 -7346.6216 297.2345 -9072.2395 -7350.8939 301.5184 -103.4065 3.1630 30165.9341 -223.8417 -168.7816
TCL: Running FEP window   6: Lambda1 0.25   Lambda2 0.3    [dLambda 0.04999999999999999]
TCL: Setting parameter firsttimestep to 0
TCL: Setting parameter alchLambda to 0.25
Info: NONBONDED TABLE R-SQUARED SPACING: 0.0625
Info: NONBONDED TABLE SIZE: 705 POINTS
TCL: Setting parameter alchLambda2 to 0.3
Info: NONBONDED TABLE R-SQUARED SPACING: 0.0625
Info: NONBONDED TABLE SIZE: 705 POINTS
TCL: Running for 1500000 steps
ETITLE: TS BOND ANGLE DIHED IMPRP ELECT VDW BOUNDARY MISC KINETIC TOTAL TEMP POTENTIAL TOTALAVG TEMPAVG PRESSURE GPRESSURE VOLUME PRESSAVG GPRESSAVG
ENERGY: 0 2.2594 6.9585 5.6604 0.0000 -10514.1321 1427.0858 0.0000 0.0000 1724.7481 -7347.4198 297.0846 -9072.1679 -7347.4198 297.0846 -91.8134 5.8739 30165.9341 -91.8134 5.8739
ENERGY: 300000 2.9755 9.2844 6.4216 0.0000 -10538.7124 1466.9925 0.0000 0.0000 1738.9988 -7314.0397 299.5393 -9053.0385 -7342.3999 300.6971 351.8675 432.8186 30008.7620 -186.1474 -97.1306
ENERGY: 600000 2.6976 11.6425 2.9439 0.0000 -10443.2856 1390.5473 0.0000 0.0000 1771.9536 -7263.5007 305.2157 -9035.4543 -7321.7673 302.2723 4.9085 19.5011 30261.3835 -323.6958 -241.8944
ENERGY: 900000 5.5288 7.8321 3.1760 0.0000 -10465.7047 1355.0422 0.0000 0.0000 1747.0674 -7347.0582 300.9291 -9094.1256 -7334.8059 300.7180 -963.1004 -918.8260 30600.8944 -347.6786 -273.5070
ENERGY: 1200000 8.0116 11.7177 5.9433 0.0000 -10497.2238 1402.7189 0.0000 0.0000 1798.0736 -7270.7588 309.7148 -9068.8324 -7333.4996 301.2134 -408.3792 -329.1981 30459.9588 -360.3650 -288.3880
ENERGY: 1500000 2.4061 9.7727 9.9059 0.0000 -10523.0691 1398.9538 0.0000 0.0000 1711.8742 -7390.1564 294.8671 -9102.0306 -7341.4394 301.1559 -182.3735 -167.4635 29964.0981 -379.7775 -316.7840
TCL: Running FEP window   7: Lambda1 0.3    Lambda2 0.35   [dLambda 0.04999999999999999]
TCL: Setting parameter firsttimestep to 0
TCL: Setting parameter alchLambda to 0.3
Info: NONBONDED TABLE R-SQUARED SPACING: 0.0625
Info: NONBONDED TABLE SIZE: 705 POINTS
TCL: Setting parameter alchLambda2 to 0.35
Info: NONBONDED TABLE R-SQUARED SPACING: 0.0625
Info: NONBONDED TABLE SIZE: 705 POINTS
TCL: Running for 1500000 steps
ETITLE: TS BOND ANGLE DIHED IMPRP ELECT VDW BOUNDARY MISC KINETIC TOTAL TEMP POTENTIAL TOTALAVG TEMPAVG PRESSURE GPRESSURE VOLUME PRESSAVG GPRESSAVG
ENERGY: 0 2.4061 9.7727 9.9059 0.0000 -10523.0694 1399.2276 0.0000 0.0000 1711.0101 -7390.7470 294.7183 -9101.7571 -7390.7470 294.7183 -228.8155 -163.8788 29964.0981 -228.8155 -163.8788
ENERGY: 300000 6.5692 9.1318 7.5995 0.0000 -10574.2584 1367.0017 0.0000 0.0000 1752.4001 -7431.5560 301.8476 -9183.9561 -7357.6969 299.7127 -748.6857 -620.8666 29877.9281 -293.7739 -214.4747
ENERGY: 600000 3.7064 4.7647 5.6811 0.0000 -10515.7607 1419.8479 0.0000 0.0000 1682.6091 -7399.1517 289.8263 -9081.7608 -7350.7117 301.0333 8.4556 88.6638 29953.1188 -145.9373 -73.4251
ENERGY: 900000 2.8411 12.5213 4.4023 0.0000 -10561.4379 1477.2045 0.0000 0.0000 1784.5425 -7279.9264 307.3841 -9064.4688 -7358.9614 300.9469 517.9842 535.3499 30009.7783 -23.7603 44.2629
ENERGY: 1200000 2.4798 12.0651 5.0857 0.0000 -10452.6180 1383.1063 0.0000 0.0000 1664.9685 -7384.9126 286.7877 -9049.8811 -7346.2555 301.1231 -55.3744 13.9793 29667.5934 -81.1022 -15.9181
ENERGY: 1500000 1.8902 7.1727 5.3000 0.0000 -10528.1587 1405.7821 0.0000 0.0000 1743.4447 -7364.5690 300.3051 -9108.0137 -7342.7637 300.6632 -411.4350 -327.0315 30228.9330 -186.6143 -118.9949
TCL: Running FEP window   8: Lambda1 0.35   Lambda2 0.39999999999999997 [dLambda 0.04999999999999999]
TCL: Setting parameter firsttimestep to 0
TCL: Setting parameter alchLambda to 0.35
Info: NONBONDED TABLE R-SQUARED SPACING: 0.0625
Info: NONBONDED TABLE SIZE: 705 POINTS
TCL: Setting parameter alchLambda2 to 0.39999999999999997
Info: NONBONDED TABLE R-SQUARED SPACING: 0.0625
Info: NONBONDED TABLE SIZE: 705 POINTS
TCL: Running for 1500000 steps
ETITLE: TS BOND ANGLE DIHED IMPRP ELECT VDW BOUNDARY MISC KINETIC TOTAL TEMP POTENTIAL TOTALAVG TEMPAVG PRESSURE GPRESSURE VOLUME PRESSAVG GPRESSAVG
ENERGY: 0 1.8902 7.1727 5.3000 0.0000 -10528.1581 1406.1733 0.0000 0.0000 1742.5428 -7365.0792 300.1497 -9107.6219 -7365.0792 300.1497 -413.8707 -318.5414 30228.9330 -413.8707 -318.5414
ENERGY: 300000 2.2237 14.7870 3.9370 0.0000 -10536.7650 1410.5595 0.0000 0.0000 1764.5085 -7340.7492 303.9333 -9105.2578 -7358.0816 301.4869 -192.5925 -95.6371 30073.9804 -49.1473 45.9644
ENERGY: 600000 1.3857 8.1704 9.9458 0.0000 -10593.9178 1411.4113 0.0000 0.0000 1820.6782 -7342.3264 313.6084 -9163.0046 -7353.8556 303.7464 -92.6055 -25.1554 29764.8662 -76.5884 7.5802
ENERGY: 900000 5.4079 14.9319 4.2163 0.0000 -10461.1457 1452.9743 0.0000 0.0000 1678.8312 -7304.7841 289.1755 -8983.6153 -7334.7668 301.8175 381.9137 445.1245 30176.2646 -71.1535 -4.9438
ENERGY: 1200000 3.0880 5.7019 7.7529 0.0000 -10570.9374 1432.1968 0.0000 0.0000 1759.6479 -7362.5499 303.0961 -9122.1978 -7341.4981 300.9664 12.7259 116.3895 29940.7825 -81.1325 -11.4874
ENERGY: 1500000 5.1223 4.3195 13.7335 0.0000 -10492.7342 1389.6398 0.0000 0.0000 1739.4860 -7340.4331 299.6232 -9079.9192 -7343.8629 300.6656 -273.2024 -224.0217 29850.0030 -111.6239 -49.5497
TCL: Running FEP window   9: Lambda1 0.39999999999999997 Lambda2 0.44999999999999996 [dLambda 0.04999999999999999]
TCL: Setting parameter firsttimestep to 0
TCL: Setting parameter alchLambda to 0.39999999999999997
Info: NONBONDED TABLE R-SQUARED SPACING: 0.0625
Info: NONBONDED TABLE SIZE: 705 POINTS
TCL: Setting parameter alchLambda2 to 0.44999999999999996
Info: NONBONDED TABLE R-SQUARED SPACING: 0.0625
Info: NONBONDED TABLE SIZE: 705 POINTS
TCL: Running for 1500000 steps
ETITLE: TS BOND ANGLE DIHED IMPRP ELECT VDW BOUNDARY MISC KINETIC TOTAL TEMP POTENTIAL TOTALAVG TEMPAVG PRESSURE GPRESSURE VOLUME PRESSAVG GPRESSAVG
ENERGY: 0 5.1223 4.3195 13.7335 0.0000 -10492.7341 1388.8707 0.0000 0.0000 1738.6512 -7342.0369 299.4794 -9080.6881 -7342.0369 299.4794 -311.8833 -221.8614 29850.0030 -311.8833 -221.8614
ENERGY: 300000 3.1319 11.4870 2.2889 0.0000 -10532.8761 1371.0043 0.0000 0.0000 1709.6723 -7435.2918 294.4878 -9144.9640 -7361.7842 297.2838 -456.4079 -368.5805 29607.3834 -554.6121 -482.6220
ENERGY: 600000 1.3472 9.3955 6.0119 0.0000 -10559.8044 1390.5139 0.0000 0.0000 1655.5616 -7496.9743 285.1674 -9152.5359 -7371.4355 296.9804 -281.7017 -227.8111 29797.9745 -377.9949 -323.7183
ENERGY: 900000 1.6462 7.2903 4.7643 0.0000 -10552.5171 1458.3906 0.0000 0.0000 1770.8534 -7309.5724 305.0262 -9080.4258 -7367.2497 298.1800 345.9689 491.6311 29818.4045 -221.3577 -158.8900
ENERGY: 1200000 2.2314 7.9875 10.2146 0.0000 -10501.5452 1426.4492 0.0000 0.0000 1775.9637 -7278.6988 305.9064 -9054.6625 -7353.4961 299.4268 287.8599 363.5100 29945.5851 -192.3038 -127.8008
ENERGY: 1500000 2.3924 7.6809 6.8687 0.0000 -10551.1112 1437.5248 0.0000 0.0000 1744.4656 -7352.1788 300.4809 -9096.6445 -7346.0322 299.6646 140.9709 154.0642 30004.2364 -140.2899 -83.7412
TCL: Running FEP window  10: Lambda1 0.44999999999999996 Lambda2 0.49999999999999994 [dLambda 0.04999999999999999]
TCL: Setting parameter firsttimestep to 0
TCL: Setting parameter alchLambda to 0.44999999999999996
Info: NONBONDED TABLE R-SQUARED SPACING: 0.0625
Info: NONBONDED TABLE SIZE: 705 POINTS
TCL: Setting parameter alchLambda2 to 0.49999999999999994
Info: NONBONDED TABLE R-SQUARED SPACING: 0.0625
Info: NONBONDED TABLE SIZE: 705 POINTS
TCL: Running for 1500000 steps
ETITLE: TS BOND ANGLE DIHED IMPRP ELECT VDW BOUNDARY MISC KINETIC TOTAL TEMP POTENTIAL TOTALAVG TEMPAVG PRESSURE GPRESSURE VOLUME PRESSAVG GPRESSAVG
ENERGY: 0 2.3924 7.6809 6.8687 0.0000 -10551.1091 1438.1036 0.0000 0.0000 1743.6062 -7352.4573 300.3329 -9096.0635 -7352.4573 300.3329 81.2979 165.0472 30004.2364 81.2979 165.0472
ENERGY: 300000 2.3842 9.8783 7.8438 0.0000 -10598.7433 1464.2269 0.0000 0.0000 1769.3659 -7345.0443 304.7700 -9114.4101 -7376.2460 301.1404 580.3352 651.0953 29652.3113 350.7624 417.4152
ENERGY: 600000 4.6380 6.6806 11.1607 0.0000 -10540.2703 1458.8333 0.0000 0.0000 1758.3876 -7300.5702 302.8790 -9058.9578 -7343.3390 301.0926 156.3218 238.5621 30182.9964 291.9314 354.8573
ENERGY: 900000 3.2549 6.3952 7.0682 0.0000 -10496.1413 1476.4960 0.0000 0.0000 1706.7322 -7296.1948 293.9814 -9002.9270 -7354.1066 298.7594 576.4017 665.9425 30142.7579 305.7040 360.7769
ENERGY: 1200000 6.4690 11.2818 10.3475 0.0000 -10598.1634 1473.0011 0.0000 0.0000 1742.9961 -7354.0680 300.2278 -9097.0641 -7362.8754 299.0723 176.4774 233.8766 30352.9174 204.2572 265.9592
ENERGY: 1500000 1.8719 9.1104 4.7560 0.0000 -10655.9786 1523.9080 0.0000 0.0000 1733.8552 -7382.4770 298.6533 -9116.3322 -7362.5775 299.2875 1045.4344 1104.0683 29352.3076 266.3324 322.0967
TCL: Running FEP window  11: Lambda1 0.49999999999999994 Lambda2 0.5499999999999999 [dLambda 0.04999999999999999]
TCL: Setting parameter firsttimestep to 0
TCL: Setting parameter alchLambda to 0.49999999999999994
Info: NONBONDED TABLE R-SQUARED SPACING: 0.0625
Info: NONBONDED TABLE SIZE: 705 POINTS
TCL: Setting parameter alchLambda2 to 0.5499999999999999
Info: NONBONDED TABLE R-SQUARED SPACING: 0.0625
Info: NONBONDED TABLE SIZE: 705 POINTS
TCL: Running for 1500000 steps
ETITLE: TS BOND ANGLE DIHED IMPRP ELECT VDW BOUNDARY MISC KINETIC TOTAL TEMP POTENTIAL TOTALAVG TEMPAVG PRESSURE GPRESSURE VOLUME PRESSAVG GPRESSAVG
ENERGY: 0 1.8719 9.1104 4.7560 0.0000 -10655.9788 1523.8578 0.0000 0.0000 1732.9780 -7383.4048 298.5022 -9116.3827 -7383.4048 298.5022 1017.3628 1109.0427 29352.3076 1017.3628 1109.0427
ENERGY: 300000 3.0354 9.7905 3.6251 0.0000 -10580.0819 1460.1955 0.0000 0.0000 1690.5657 -7412.8697 291.1968 -9103.4354 -7389.5707 293.4747 97.6609 188.7053 30171.1532 340.6486 432.0005
ENERGY: 600000 1.6673 5.7338 8.1055 0.0000 -10588.3883 1444.2939 0.0000 0.0000 1708.2807 -7420.3071 294.2482 -9128.5878 -7377.5911 296.0302 258.0010 306.0119 29828.3790 238.7062 319.0859
ENERGY: 900000 1.9580 9.2946 8.1551 0.0000 -10449.3807 1411.9457 0.0000 0.0000 1696.4733 -7321.5540 292.2143 -9018.0273 -7371.0476 296.6924 362.5045 454.2351 29751.7118 251.7361 321.7683
ENERGY: 1200000 2.0144 6.6382 8.4160 0.0000 -10674.9764 1404.1059 0.0000 0.0000 1755.5986 -7498.2034 302.3986 -9253.8020 -7378.0020 298.0234 -334.0455 -213.3847 29509.2829 108.2631 187.7393
ENERGY: 1500000 4.1943 11.4030 3.9751 0.0000 -10479.8580 1363.8286 0.0000 0.0000 1760.4966 -7335.9604 303.2422 -9096.4570 -7379.2169 299.5035 -360.2242 -264.0816 29968.1941 86.5092 163.9868
TCL: Running FEP window  12: Lambda1 0.5499999999999999 Lambda2 0.6    [dLambda 0.050000000000000044]
TCL: Setting parameter firsttimestep to 0
TCL: Setting parameter alchLambda to 0.5499999999999999
Info: NONBONDED TABLE R-SQUARED SPACING: 0.0625
Info: NONBONDED TABLE SIZE: 705 POINTS
TCL: Setting parameter alchLambda2 to 0.6
Info: NONBONDED TABLE R-SQUARED SPACING: 0.0625
Info: NONBONDED TABLE SIZE: 705 POINTS
TCL: Running for 1500000 steps
ETITLE: TS BOND ANGLE DIHED IMPRP ELECT VDW BOUNDARY MISC KINETIC TOTAL TEMP POTENTIAL TOTALAVG TEMPAVG PRESSURE GPRESSURE VOLUME PRESSAVG GPRESSAVG
ENERGY: 0 4.1943 11.4030 3.9751 0.0000 -10479.6406 1363.4387 0.0000 0.0000 1759.6173 -7337.0122 303.0908 -9096.6296 -7337.0122 303.0908 -336.3934 -258.8894 29968.1941 -336.3934 -258.8894
ENERGY: 300000 2.8457 10.7050 7.3443 0.0000 -10606.6095 1456.1605 0.0000 0.0000 1704.8514 -7424.7025 293.6575 -9129.5540 -7342.2876 299.3751 244.4070 321.3125 29904.4903 31.8381 110.8910
ENERGY: 600000 2.3390 11.6030 13.3514 0.0000 -10516.4014 1445.9637 0.0000 0.0000 1758.1086 -7285.0356 302.8309 -9043.1443 -7330.9674 300.1370 245.3608 350.3615 30257.5520 40.9805 122.2198
ENERGY: 900000 2.9912 8.6783 7.1898 0.0000 -10629.8182 1444.4919 0.0000 0.0000 1743.5792 -7422.8878 300.3282 -9166.4670 -7349.7318 299.5571 -67.6904 -13.2867 30195.4037 66.5461 136.9263
ENERGY: 1200000 4.2073 8.9880 5.1477 0.0000 -10590.5735 1497.6629 0.0000 0.0000 1707.9842 -7366.5834 294.1971 -9074.5676 -7350.2502 299.7450 714.9517 782.1738 29886.4153 105.2834 169.8492
ENERGY: 1500000 2.4777 7.0920 4.4362 0.0000 -10523.0095 1407.2572 0.0000 0.0000 1726.0302 -7375.7161 297.3055 -9101.7462 -7358.8340 299.4397 -385.9441 -299.1433 30345.3304 112.8377 173.3669
TCL: Running FEP window  13: Lambda1 0.6    Lambda2 0.65   [dLambda 0.050000000000000044]
TCL: Setting parameter firsttimestep to 0
TCL: Setting parameter alchLambda to 0.6
Info: NONBONDED TABLE R-SQUARED SPACING: 0.0625
Info: NONBONDED TABLE SIZE: 705 POINTS
TCL: Setting parameter alchLambda2 to 0.65
Info: NONBONDED TABLE R-SQUARED SPACING: 0.0625
Info: NONBONDED TABLE SIZE: 705 POINTS
TCL: Running for 1500000 steps
ETITLE: TS BOND ANGLE DIHED IMPRP ELECT VDW BOUNDARY MISC KINETIC TOTAL TEMP POTENTIAL TOTALAVG TEMPAVG PRESSURE GPRESSURE VOLUME PRESSAVG GPRESSAVG
ENERGY: 0 2.4777 7.0920 4.4362 0.0000 -10523.4982 1406.8353 0.0000 0.0000 1725.1553 -7377.5016 297.1548 -9102.6569 -7377.5016 297.1548 -380.1515 -294.4444 30345.3304 -380.1515 -294.4444
ENERGY: 300000 2.4194 14.4133 3.7425 0.0000 -10537.4451 1407.5335 0.0000 0.0000 1708.9060 -7400.4304 294.3559 -9109.3364 -7387.5782 297.9061 -317.2177 -241.9798 30188.1888 161.5277 223.4149
ENERGY: 600000 3.3699 8.9773 5.7338 0.0000 -10474.7565 1402.4017 0.0000 0.0000 1703.6224 -7350.6514 293.4458 -9054.2738 -7376.1648 298.6945 -98.9840 34.2630 29834.6790 173.0176 250.4657
ENERGY: 900000 3.9688 5.6473 9.1143 0.0000 -10495.6419 1369.5481 0.0000 0.0000 1760.9130 -7346.4504 303.3140 -9107.3633 -7360.1572 299.8036 -410.4720 -328.8834 29892.0191 43.1333 102.8887
ENERGY: 1200000 5.7470 8.3658 6.2219 0.0000 -10589.5809 1486.5690 0.0000 0.0000 1757.3705 -7325.3068 302.7038 -9082.6773 -7374.5302 298.7946 484.8807 550.7853 30277.9284 14.6913 74.9464
ENERGY: 1500000 6.1406 10.2310 8.4283 0.0000 -10578.2069 1397.4553 0.0000 0.0000 1789.7751 -7366.1766 308.2854 -9155.9517 -7379.8654 297.7634 -168.8416 -92.5747 29724.0631 128.5096 180.4277
TCL: Running FEP window  14: Lambda1 0.65   Lambda2 0.7000000000000001 [dLambda 0.050000000000000044]
TCL: Setting parameter firsttimestep to 0
TCL: Setting parameter alchLambda to 0.65
Info: NONBONDED TABLE R-SQUARED SPACING: 0.0625
Info: NONBONDED TABLE SIZE: 705 POINTS
TCL: Setting parameter alchLambda2 to 0.7000000000000001
Info: NONBONDED TABLE R-SQUARED SPACING: 0.0625
Info: NONBONDED TABLE SIZE: 705 POINTS
TCL: Running for 1500000 steps
ETITLE: TS BOND ANGLE DIHED IMPRP ELECT VDW BOUNDARY MISC KINETIC TOTAL TEMP POTENTIAL TOTALAVG TEMPAVG PRESSURE GPRESSURE VOLUME PRESSAVG GPRESSAVG
ENERGY: 0 6.1406 10.2310 8.4283 0.0000 -10578.7787 1397.6151 0.0000 0.0000 1788.9159 -7367.4478 308.1374 -9156.3637 -7367.4478 308.1374 -160.3611 -75.3815 29724.0631 -160.3611 -75.3815
ENERGY: 300000 6.6988 4.7467 9.0197 0.0000 -10612.1398 1491.4620 0.0000 0.0000 1754.4266 -7345.7861 302.1967 -9100.2126 -7350.3082 303.1789 542.7113 575.6790 30101.2124 -89.6670 -42.0202
ENERGY: 600000 2.7651 6.6231 6.5350 0.0000 -10526.3686 1410.2989 0.0000 0.0000 1761.8398 -7338.3069 303.4736 -9100.1467 -7355.6999 299.9879 26.9388 140.0012 29866.3344 -202.9144 -134.3615
ENERGY: 900000 1.9612 10.6845 5.7815 0.0000 -10454.5225 1407.8233 0.0000 0.0000 1754.8326 -7273.4395 302.2666 -9028.2720 -7334.9187 300.3725 -225.6453 -141.1295 30409.2028 -222.7769 -159.2004
ENERGY: 1200000 4.4777 7.9933 6.1062 0.0000 -10532.8712 1410.6697 0.0000 0.0000 1731.4370 -7372.1872 298.2368 -9103.6243 -7336.4139 300.8664 -45.4324 18.1093 29877.2228 -203.8450 -143.8341
ENERGY: 1500000 3.6600 10.4880 9.4346 0.0000 -10546.9336 1409.2395 0.0000 0.0000 1685.8001 -7428.3114 290.3759 -9114.1115 -7343.2446 300.0049 -239.0092 -193.0659 30238.9365 -150.8553 -93.0282
TCL: Running FEP window  15: Lambda1 0.7000000000000001 Lambda2 0.7500000000000001 [dLambda 0.050000000000000044]
TCL: Setting parameter firsttimestep to 0
TCL: Setting parameter alchLambda to 0.7000000000000001
Info: NONBONDED TABLE R-SQUARED SPACING: 0.0625
Info: NONBONDED TABLE SIZE: 705 POINTS
TCL: Setting parameter alchLambda2 to 0.7500000000000001
Info: NONBONDED TABLE R-SQUARED SPACING: 0.0625
Info: NONBONDED TABLE SIZE: 705 POINTS
TCL: Running for 1500000 steps
ETITLE: TS BOND ANGLE DIHED IMPRP ELECT VDW BOUNDARY MISC KINETIC TOTAL TEMP POTENTIAL TOTALAVG TEMPAVG PRESSURE GPRESSURE VOLUME PRESSAVG GPRESSAVG
ENERGY: 0 3.6600 10.4880 9.4346 0.0000 -10547.9859 1409.6052 0.0000 0.0000 1684.9259 -7429.8722 290.2253 -9114.7981 -7429.8722 290.2253 -271.3877 -177.9194 30238.9365 -271.3877 -177.9194
ENERGY: 300000 2.9063 13.0923 6.8304 0.0000 -10583.0900 1443.7260 0.0000 0.0000 1755.6583 -7360.8768 302.4088 -9116.5350 -7349.4412 300.7633 18.3460 32.8770 30199.3486 -303.1571 -221.4266
ENERGY: 600000 2.1125 7.6114 6.7262 0.0000 -10594.2898 1404.8195 0.0000 0.0000 1722.3096 -7450.7107 296.6646 -9173.0202 -7373.6515 298.7121 -445.2117 -368.4554 30184.2743 -161.0522 -93.4781
ENERGY: 900000 4.3701 8.7526 5.9673 0.0000 -10445.8115 1345.2785 0.0000 0.0000 1741.0674 -7340.3757 299.8956 -9081.4431 -7375.5057 300.0357 -430.9512 -391.9828 30024.8507 -221.7982 -157.2540
ENERGY: 1200000 7.4084 10.5803 11.1982 0.0000 -10516.9503 1463.4936 0.0000 0.0000 1727.0260 -7297.2437 297.4770 -9024.2698 -7378.7498 299.1097 573.3115 602.6267 29925.5842 -137.3962 -72.7655
ENERGY: 1500000 6.2093 6.5770 3.1450 0.0000 -10452.3205 1365.3130 0.0000 0.0000 1722.7976 -7348.2786 296.7487 -9071.0762 -7378.4334 298.8614 -530.7239 -499.4019 30078.5289 -126.6574 -59.1044
TCL: Running FEP window  16: Lambda1 0.7500000000000001 Lambda2 0.8000000000000002 [dLambda 0.050000000000000044]
TCL: Setting parameter firsttimestep to 0
TCL: Setting parameter alchLambda to 0.7500000000000001
Info: NONBONDED TABLE R-SQUARED SPACING: 0.0625
Info: NONBONDED TABLE SIZE: 705 POINTS
TCL: Setting parameter alchLambda2 to 0.8000000000000002
Info: NONBONDED TABLE R-SQUARED SPACING: 0.0625
Info: NONBONDED TABLE SIZE: 705 POINTS
TCL: Running for 1500000 steps
ETITLE: TS BOND ANGLE DIHED IMPRP ELECT VDW BOUNDARY MISC KINETIC TOTAL TEMP POTENTIAL TOTALAVG TEMPAVG PRESSURE GPRESSURE VOLUME PRESSAVG GPRESSAVG
ENERGY: 0 6.2093 6.5770 3.1450 0.0000 -10453.9354 1365.9853 0.0000 0.0000 1721.9440 -7350.0748 296.6016 -9072.0188 -7350.0748 296.6016 -571.0253 -486.2777 30078.5289 -571.0253 -486.2777
ENERGY: 300000 5.1323 6.7820 6.3279 0.0000 -10654.6893 1465.8821 0.0000 0.0000 1728.5666 -7441.9984 297.7423 -9170.5649 -7377.9945 300.8544 401.6041 509.8643 29279.3577 -239.0643 -166.8050
ENERGY: 600000 4.2185 10.0495 5.4962 0.0000 -10772.7932 1570.8760 0.0000 0.0000 1752.6706 -7429.4825 301.8942 -9182.1531 -7378.5171 301.5137 1210.6240 1153.6608 29968.1762 -17.0280 26.0010
ENERGY: 900000 3.4421 4.0213 6.5276 0.0000 -10610.5987 1460.2347 0.0000 0.0000 1724.4403 -7411.9328 297.0316 -9136.3730 -7374.8821 300.0980 117.4181 118.3159 30311.3728 -11.4938 28.2130
ENERGY: 1200000 5.4983 9.7743 7.0303 0.0000 -10542.6454 1349.3505 0.0000 0.0000 1714.4079 -7456.5841 295.3035 -9170.9920 -7372.7765 300.2561 -614.7071 -523.6509 29651.0177 -22.0474 20.4519
ENERGY: 1500000 5.0342 11.0673 6.6056 0.0000 -10543.5615 1390.5792 0.0000 0.0000 1716.2456 -7414.0294 295.6201 -9130.2751 -7367.0722 300.0170 -447.0073 -358.7264 29965.0775 -62.6983 -10.0965
TCL: Running FEP window  17: Lambda1 0.8000000000000002 Lambda2 0.8500000000000002 [dLambda 0.050000000000000044]
TCL: Setting parameter firsttimestep to 0
TCL: Setting parameter alchLambda to 0.8000000000000002
Info: NONBONDED TABLE R-SQUARED SPACING: 0.0625
Info: NONBONDED TABLE SIZE: 705 POINTS
TCL: Setting parameter alchLambda2 to 0.8500000000000002
Info: NONBONDED TABLE R-SQUARED SPACING: 0.0625
Info: NONBONDED TABLE SIZE: 705 POINTS
TCL: Running for 1500000 steps
ETITLE: TS BOND ANGLE DIHED IMPRP ELECT VDW BOUNDARY MISC KINETIC TOTAL TEMP POTENTIAL TOTALAVG TEMPAVG PRESSURE GPRESSURE VOLUME PRESSAVG GPRESSAVG
ENERGY: 0 5.0342 11.0673 6.6056 0.0000 -10544.2633 1392.1034 0.0000 0.0000 1715.3591 -7414.0935 295.4674 -9129.4526 -7414.0935 295.4674 -430.8845 -332.7899 29965.0775 -430.8845 -332.7899
ENERGY: 300000 3.0240 9.3770 7.4015 0.0000 -10497.4045 1387.7417 0.0000 0.0000 1816.4584 -7273.4019 312.8815 -9089.8603 -7340.5315 303.2680 69.2329 84.7098 29695.1329 -99.6448 -52.4152
ENERGY: 600000 2.2313 6.3513 5.1515 0.0000 -10650.3271 1469.0387 0.0000 0.0000 1712.1362 -7455.4181 294.9122 -9167.5543 -7348.8433 303.1069 179.6398 317.9488 29927.5511 -85.9404 -27.7360
ENERGY: 900000 2.2735 5.9917 9.8602 0.0000 -10591.6901 1416.6307 0.0000 0.0000 1787.9495 -7368.9846 307.9710 -9156.9341 -7358.5615 303.4485 -5.5335 16.9596 30037.4952 -27.5787 25.0378
ENERGY: 1200000 3.4009 6.6785 8.2739 0.0000 -10417.1006 1298.9395 0.0000 0.0000 1775.0508 -7324.7570 305.7492 -9099.8078 -7352.5004 303.3933 -964.6380 -880.4061 30086.3306 -115.1327 -55.7863
ENERGY: 1500000 3.9132 9.6228 7.1512 0.0000 -10530.4284 1362.9974 0.0000 0.0000 1757.7597 -7388.9841 302.7708 -9146.7438 -7353.4507 302.8416 -469.1857 -454.3993 29812.0830 -126.4041 -65.8432
TCL: Running FEP window  18: Lambda1 0.8500000000000002 Lambda2 0.9000000000000002 [dLambda 0.050000000000000044]
TCL: Setting parameter firsttimestep to 0
TCL: Setting parameter alchLambda to 0.8500000000000002
Info: NONBONDED TABLE R-SQUARED SPACING: 0.0625
Info: NONBONDED TABLE SIZE: 705 POINTS
TCL: Setting parameter alchLambda2 to 0.9000000000000002
Info: NONBONDED TABLE R-SQUARED SPACING: 0.0625
Info: NONBONDED TABLE SIZE: 705 POINTS
TCL: Running for 1500000 steps
ETITLE: TS BOND ANGLE DIHED IMPRP ELECT VDW BOUNDARY MISC KINETIC TOTAL TEMP POTENTIAL TOTALAVG TEMPAVG PRESSURE GPRESSURE VOLUME PRESSAVG GPRESSAVG
ENERGY: 0 3.9132 9.6228 7.1512 0.0000 -10531.5262 1364.4478 0.0000 0.0000 1756.9009 -7389.4904 302.6229 -9146.3912 -7389.4904 302.6229 -504.7180 -425.5392 29812.0830 -504.7180 -425.5392
ENERGY: 300000 3.3381 6.0150 9.9720 0.0000 -10648.6432 1534.3229 0.0000 0.0000 1783.9144 -7311.0808 307.2759 -9094.9952 -7361.2260 300.4925 868.5035 984.1929 29950.3212 61.4459 126.3713
ENERGY: 600000 3.8524 7.1508 5.0724 0.0000 -10513.8229 1365.0106 0.0000 0.0000 1695.7710 -7436.9657 292.0934 -9132.7367 -7364.0582 301.1283 -464.4504 -345.9222 29855.5404 -62.7886 4.0505
ENERGY: 900000 4.4167 6.8836 7.7474 0.0000 -10575.0664 1395.1894 0.0000 0.0000 1711.5570 -7449.2723 294.8125 -9160.8293 -7374.6748 300.0138 -572.6904 -416.8905 29589.7321 -81.5425 -12.7004
ENERGY: 1200000 4.8401 16.3963 8.4130 0.0000 -10641.7086 1476.3423 0.0000 0.0000 1746.4213 -7389.2955 300.8178 -9135.7169 -7379.3067 299.9759 583.3628 594.8281 29649.2179 -7.6511 58.9922
ENERGY: 1500000 3.0947 3.4446 5.2760 0.0000 -10547.4133 1460.8599 0.0000 0.0000 1711.7629 -7362.9753 294.8479 -9074.7381 -7376.5375 299.2817 325.2205 398.2724 30175.1210 49.8163 118.3784
TCL: Running FEP window  19: Lambda1 0.9000000000000002 Lambda2 0.9500000000000003 [dLambda 0.050000000000000044]
TCL: Setting parameter firsttimestep to 0
TCL: Setting parameter alchLambda to 0.9000000000000002
Info: NONBONDED TABLE R-SQUARED SPACING: 0.0625
Info: NONBONDED TABLE SIZE: 705 POINTS
TCL: Setting parameter alchLambda2 to 0.9500000000000003
Info: NONBONDED TABLE R-SQUARED SPACING: 0.0625
Info: NONBONDED TABLE SIZE: 705 POINTS
TCL: Running for 1500000 steps
ETITLE: TS BOND ANGLE DIHED IMPRP ELECT VDW BOUNDARY MISC KINETIC TOTAL TEMP POTENTIAL TOTALAVG TEMPAVG PRESSURE GPRESSURE VOLUME PRESSAVG GPRESSAVG
ENERGY: 0 3.0947 3.4446 5.2760 0.0000 -10549.3725 1460.6287 0.0000 0.0000 1710.8977 -7366.0308 294.6989 -9076.9285 -7366.0308 294.6989 326.1607 404.9434 30175.1210 326.1607 404.9434
ENERGY: 300000 3.0051 5.4559 8.4655 0.0000 -10554.5467 1438.7999 0.0000 0.0000 1710.1118 -7388.7084 294.5636 -9098.8202 -7365.1339 297.1862 554.5783 567.0930 29699.2999 295.3021 330.7334
ENERGY: 600000 2.0714 9.4242 3.7417 0.0000 -10473.6716 1356.4647 0.0000 0.0000 1741.7945 -7360.1752 300.0208 -9101.9697 -7368.7017 297.0792 -365.6598 -327.1984 29837.1236 -9.9984 34.7183
ENERGY: 900000 7.9706 6.9173 6.3518 0.0000 -10520.1194 1323.5539 0.0000 0.0000 1717.0823 -7458.2434 295.7642 -9175.3257 -7371.2369 296.9331 -1140.5536 -1117.0191 30318.8699 -220.6041 -167.9786
ENERGY: 1200000 4.3413 7.2036 9.0069 0.0000 -10483.6056 1370.5806 0.0000 0.0000 1740.4541 -7352.0191 299.7900 -9092.4732 -7367.3858 298.1962 -256.2635 -233.9510 29790.7429 -174.0769 -122.4304
ENERGY: 1500000 7.8018 5.1273 5.2373 0.0000 -10593.3693 1410.3358 0.0000 0.0000 1727.0048 -7437.8623 297.4733 -9164.8672 -7377.1673 298.1152 -195.4182 -66.2784 29981.2217 -174.0271 -115.8618
TCL: Running FEP window  20: Lambda1 0.9500000000000003 Lambda2 1.0    [dLambda 0.04999999999999971]
TCL: Setting parameter firsttimestep to 0
TCL: Setting parameter alchLambda to 0.9500000000000003
Info: NONBONDED TABLE R-SQUARED SPACING: 0.0625
Info: NONBONDED TABLE SIZE: 705 POINTS
TCL: Setting parameter alchLambda2 to 1.0
Info: NONBONDED TABLE R-SQUARED SPACING: 0.0625
Info: NONBONDED TABLE SIZE: 705 POINTS
TCL: Running for 1500000 steps
ETITLE: TS BOND ANGLE DIHED IMPRP ELECT VDW BOUNDARY MISC KINETIC TOTAL TEMP POTENTIAL TOTALAVG TEMPAVG PRESSURE GPRESSURE VOLUME PRESSAVG GPRESSAVG
ENERGY: 0 7.8018 5.1273 5.2373 0.0000 -10595.5709 1411.1017 0.0000 0.0000 1726.1399 -7440.1631 297.3244 -9166.3029 -7440.1631 297.3244 -134.7825 -42.7127 29981.2217 -134.7825 -42.7127
ENERGY: 300000 5.4853 5.5065 6.9953 0.0000 -10421.1270 1347.1514 0.0000 0.0000 1741.4015 -7314.5870 299.9531 -9055.9885 -7373.3360 300.5801 -523.2571 -446.6940 30385.7305 -64.7866 7.7022
ENERGY: 600000 3.8827 5.9395 8.7251 0.0000 -10545.0116 1428.5832 0.0000 0.0000 1760.4238 -7337.4574 303.2297 -9097.8812 -7353.0255 300.2645 90.6380 104.7095 30082.0340 78.9496 141.7047
ENERGY: 900000 5.6252 7.5243 6.2248 0.0000 -10492.6361 1384.5436 0.0000 0.0000 1754.1501 -7334.5681 302.1491 -9088.7182 -7361.1940 300.0964 -120.3296 23.6442 29879.0104 -36.6215 27.9646
ENERGY: 1200000 1.5044 4.8930 10.9501 0.0000 -10484.3994 1414.9436 0.0000 0.0000 1771.6926 -7280.4156 305.1707 -9052.1082 -7358.6757 300.2160 151.0681 182.9312 30035.4331 -6.2099 55.6251
ENERGY: 1500000 2.8852 7.3876 4.6721 0.0000 -10501.9866 1395.7198 0.0000 0.0000 1725.3178 -7366.0041 297.1828 -9091.3219 -7364.7415 299.7527 -127.7836 -120.5471 30077.4053 17.7940 79.1636
TCL: Exiting due to exit command.
