Info: SIMULATION PARAMETERS:
Info: TIMESTEP               2
Info: NUMBER OF STEPS        0
Info: STEPS PER CYCLE        10
Info: PERIODIC CELL BASIS 1  32.0146 0 0
Info: PERIODIC CELL BASIS 2  0 30.2313 0
Info: PERIODIC CELL BASIS 3  0 0 31.5222
Info: PERIODIC CELL CENTER   0 0 0
Info: WRAPPING WATERS AROUND PERIODIC BOUNDARIES ON OUTPUT.
Info: WRAPPING ALL CLUSTERS AROUND PERIODIC BOUNDARIES ON OUTPUT.
Info: FIRST LDB TIMESTEP     50
Info: LAST LDB TIMESTEP     -1
Info: HOM BACKGROUND SCALING 1
Info: PME BACKGROUND SCALING 1
Info: MIN ATOMS PER PATCH    40
Info: EMPTY PATCH LOAD       40 ATOMS
Info: VELOCITY FILE          mobley_590519_equil.vel
Info: CENTER OF MASS MOVING INITIALLY? NO
Info: DIELECTRIC             1
Info: EXCLUDE                SCALED ONE-FOUR
Info: 1-4 ELECTROSTATICS SCALED BY 0.833333
Info: MODIFIED 1-4 VDW PARAMETERS WILL BE USED
Info: DCD FILENAME           mobley_590519_prod.dcd
Info: DCD FREQUENCY          100000
Info: DCD FIRST STEP         100000
Info: DCD FILE WILL CONTAIN UNIT CELL DATA
Info: XST FILENAME           mobley_590519_prod.xst
Info: XST FREQUENCY          100000
Info: NO VELOCITY DCD OUTPUT
Info: NO FORCE DCD OUTPUT
Info: OUTPUT FILENAME        mobley_590519_prod
Info: BINARY OUTPUT FILES WILL BE USED
Info: RESTART FILENAME       mobley_590519_prod.restart
Info: RESTART FREQUENCY      100000
Info: BINARY RESTART FILES WILL BE USED
Info: CUTOFF                 9
Info: PAIRLIST DISTANCE      11
Info: PAIRLIST SHRINK RATE   0.01
Info: PAIRLIST GROW RATE     0.01
Info: PAIRLIST TRIGGER       0.3
Info: PAIRLISTS PER CYCLE    2
Info: PAIRLISTS ENABLED
Info: MARGIN                 2
Info: HYDROGEN GROUP CUTOFF  2.5
Info: PATCH DIMENSION        15.5
Info: ENERGY OUTPUT STEPS    100000
Info: ENERGY EVALUATION STEPS    100000
Info: OUTPUT ENERGY PRECISION 4
Info: CROSSTERM ENERGY INCLUDED IN DIHEDRAL
Info: TIMING OUTPUT STEPS    1000000
Info: PRESSURE OUTPUT STEPS  100000
Info: ALCHEMICAL FEP ON
Info: FEP CURRENT LAMBDA VALUE     0
Info: FEP COMPARISON LAMBDA VALUE  0.05
Info: FEP INTRA-ALCHEMICAL NON-BONDED INTERACTIONS WILL BE RETAINED
Info: FEP INTRA-ALCHEMICAL BONDED INTERACTIONS WILL BE RETAINED
Info: FEP VDW SHIFTING COEFFICIENT 5
Info: FEP ELEC. ACTIVE FOR ANNIHILATED PARTICLES BETWEEN LAMBDA = 0 AND LAMBDA = 0.5
Info: FEP ELEC. ACTIVE FOR EXNIHILATED PARTICLES BETWEEN LAMBDA = 0.5 AND LAMBDA = 1
Info: FEP VDW ACTIVE FOR ANNIHILATED PARTICLES BETWEEN LAMBDA = 0 AND LAMBDA = 1
Info: FEP VDW ACTIVE FOR EXNIHILATED PARTICLES BETWEEN LAMBDA = 0 AND LAMBDA = 1
Info: FEP BOND ACTIVE FOR ANNIHILATED PARTICLES BETWEEN LAMBDA = 1 AND LAMBDA = 1
Info: FEP BOND ACTIVE FOR EXNIHILATED PARTICLES BETWEEN LAMBDA = 0 AND LAMBDA = 0
Info: LANGEVIN DYNAMICS ACTIVE
Info: LANGEVIN TEMPERATURE   300
Info: LANGEVIN USING BBK INTEGRATOR
Info: LANGEVIN DAMPING COEFFICIENT IS 1 INVERSE PS
Info: LANGEVIN DYNAMICS APPLIED TO HYDROGENS
Info: LANGEVIN PISTON PRESSURE CONTROL ACTIVE
Info:        TARGET PRESSURE IS 1.01325 BAR
Info:     OSCILLATION PERIOD IS 50 FS
Info:             DECAY TIME IS 25 FS
Info:     PISTON TEMPERATURE IS 300 K
Info:       PRESSURE CONTROL IS GROUP-BASED
Info:    INITIAL STRAIN RATE IS 0.000653972 0.000653972 0.000653972
Info:       CELL FLUCTUATION IS ISOTROPIC
Info: PARTICLE MESH EWALD (PME) ACTIVE
Info: PME TOLERANCE               1e-06
Info: PME EWALD COEFFICIENT       0.348832
Info: PME INTERPOLATION ORDER     4
Info: PME GRID DIMENSIONS         36 32 32
Info: PME MAXIMUM GRID SPACING    1
Info: PME CALCULATION WILL BE PERFORMED ON GPU
Info: FULL ELECTROSTATIC EVALUATION FREQUENCY      2
Info: USING VERLET I (r-RESPA) MTS SCHEME.
Info: C1 SPLITTING OF LONG RANGE ELECTROSTATICS
Info: PLACING ATOMS IN PATCHES BY HYDROGEN GROUPS
Info: RIGID BONDS TO HYDROGEN : ALL
Info:         ERROR TOLERANCE : 1e-08
Info:          MAX ITERATIONS : 100
Info: RIGID WATER USING SETTLE ALGORITHM
Info: RANDOM NUMBER SEED     1743910779
Info: USE HYDROGEN BONDS?    NO
Info: Using AMBER format force field!
Info: AMBER PARM FILE        mobley_590519.prmtop
Info: COORDINATE PDB         mobley_590519.pdb
Info: Exclusions will be read from PARM file!
Info: SCNB (VDW SCALING)     2
Info: USING ARITHMETIC MEAN TO COMBINE L-J SIGMA PARAMETERS
Info: BINARY COORDINATES     mobley_590519_equil.coor
Info: SUMMARY OF PARAMETERS:
Info: 7 BONDS
Info: 7 ANGLES
Info:   7 HARMONIC
Info:   0 COSINE-BASED
Info: 4 DIHEDRAL
Info: 0 IMPROPER
Info: 0 CROSSTERM
Info: 0 VDW
Info: 21 VDW_PAIRS
Info: 0 NBTHOLE_PAIRS
Info: To read alchdata from file: mobley_590519.pdb
Info: To read alchflag data from column: 5
Info: STRUCTURE SUMMARY:
Info: 2914 ATOMS
Info: 2913 BONDS
Info: 26 ANGLES
Info: 26 DIHEDRALS
Info: 0 IMPROPERS
Info: 0 CROSSTERMS
Info: 2964 EXCLUSIONS
Info: 2908 RIGID BONDS
Info: ALCH: 0 ATOMS TO DISAPPEAR IN FINAL STATE
Info: ALCH: 16 ATOMS TO APPEAR IN FINAL STATE
Info: 5834 DEGREES OF FREEDOM
Info: 972 HYDROGEN GROUPS
Info: 4 ATOMS IN LARGEST HYDROGEN GROUP
Info: 972 MIGRATION GROUPS
Info: 4 ATOMS IN LARGEST MIGRATION GROUP
Info: TOTAL MASS = 17525.7 amu
Info: TOTAL CHARGE = -0.000100017 e
Info: MASS DENSITY = 0.953923 g/cm^3
Info: ATOM DENSITY = 0.0955143 atoms/A^3
Info: ADDED 0 IMPLICIT EXCLUSIONS
Info: NONBONDED TABLE R-SQUARED SPACING: 0.0625
Info: NONBONDED TABLE SIZE: 705 POINTS
Info: REMOVING COM VELOCITY -0.217319 -0.143645 -0.0896884
Info: Use 3D box decompostion in PME FFT.
Info: Updated CUDA force table with 4096 elements.
Info: Updated CUDA LJ table with 6 x 6 elements.
Info: Found 19 unique exclusion lists needing 40 bytes
TCL: Running for 1500000 steps
ETITLE: TS BOND ANGLE DIHED IMPRP ELECT VDW BOUNDARY MISC KINETIC TOTAL TEMP POTENTIAL TOTALAVG TEMPAVG PRESSURE GPRESSURE VOLUME PRESSAVG GPRESSAVG
ENERGY: 0 3.0366 9.7829 4.6694 0.0000 -10595.4210 1461.7876 0.0000 0.0000 1761.8163 -7354.3282 303.9377 -9116.1445 -7354.3282 303.9377 -13.3898 62.5269 30508.5209 -13.3898 62.5269
ENERGY: 300000 2.3341 5.4188 1.3256 0.0000 -10539.7254 1344.9765 0.0000 0.0000 1725.2143 -7460.4561 297.6234 -9185.6703 -7389.4848 296.8651 -1045.3367 -1003.6570 30168.6581 154.5467 207.6536
ENERGY: 600000 1.2551 6.2994 1.8042 0.0000 -10457.6291 1382.6259 0.0000 0.0000 1732.7751 -7332.8694 298.9277 -9065.6446 -7373.9648 298.1293 -281.7316 -275.0938 30406.4715 59.0623 103.8163
ENERGY: 900000 3.7624 5.7256 2.0619 0.0000 -10591.0626 1443.9187 0.0000 0.0000 1743.6762 -7391.9178 300.8083 -9135.5940 -7365.1160 298.3945 323.5368 349.0768 29555.1013 42.1973 85.6572
ENERGY: 1200000 0.7263 6.0208 2.1360 0.0000 -10517.5995 1412.3957 0.0000 0.0000 1711.4098 -7384.9110 295.2419 -9096.3208 -7369.3689 298.0891 -93.9927 -3.8351 29996.7886 -33.9643 17.3446
ENERGY: 1500000 1.1109 7.6185 1.6507 0.0000 -10535.2116 1443.7732 0.0000 0.0000 1717.9351 -7363.1231 296.3676 -9081.0582 -7361.1679 298.9220 349.7508 374.8625 29805.9956 57.2835 109.0285
TCL: Running FEP window   2: Lambda1 0.05   Lambda2 0.1    [dLambda 0.05  ]
TCL: Setting parameter firsttimestep to 0
TCL: Setting parameter alchLambda to 0.05
Info: NONBONDED TABLE R-SQUARED SPACING: 0.0625
Info: NONBONDED TABLE SIZE: 705 POINTS
TCL: Setting parameter alchLambda2 to 0.1
Info: NONBONDED TABLE R-SQUARED SPACING: 0.0625
Info: NONBONDED TABLE SIZE: 705 POINTS
TCL: Running for 1500000 steps
ETITLE: TS BOND ANGLE DIHED IMPRP ELECT VDW BOUNDARY MISC KINETIC TOTAL TEMP POTENTIAL TOTALAVG TEMPAVG PRESSURE GPRESSURE VOLUME PRESSAVG GPRESSAVG
ENERGY: 0 1.1109 7.6186 1.6507 0.0000 -10535.2116 1449.1506 0.0000 0.0000 1717.0628 -7358.6180 296.2171 -9075.6809 -7358.6180 296.2171 299.8632 383.2331 29805.9956 299.8632 383.2331
ENERGY: 300000 1.3792 5.7073 0.8474 0.0000 -10601.1155 1505.8928 0.0000 0.0000 1760.5021 -7326.7867 303.7110 -9087.2888 -7384.0024 299.7552 696.8850 688.3155 30329.7387 551.5372 603.0290
ENERGY: 600000 0.6541 5.3196 1.6408 0.0000 -10486.7206 1353.0708 0.0000 0.0000 1730.8459 -7395.1894 298.5949 -9126.0352 -7391.5578 300.1938 -800.7368 -773.4418 30426.8337 226.2446 289.1147
ENERGY: 900000 0.8213 9.1098 1.7571 0.0000 -10393.4636 1286.4966 0.0000 0.0000 1810.0970 -7285.1818 312.2668 -9095.2788 -7376.4367 301.8320 -983.9040 -883.6381 29946.9021 0.9797 72.7335
ENERGY: 1200000 1.6923 6.9240 1.9013 0.0000 -10538.3558 1404.2071 0.0000 0.0000 1713.8593 -7409.7719 295.6645 -9123.6311 -7384.1200 301.4902 -97.6637 -81.0412 29593.9347 -115.2893 -52.0284
ENERGY: 1500000 1.6957 6.7179 4.8971 0.0000 -10436.0189 1361.5636 0.0000 0.0000 1748.6122 -7312.5324 301.6598 -9061.1445 -7377.6450 301.5384 -288.0468 -176.1602 29478.1848 -136.5263 -67.1414
TCL: Running FEP window   3: Lambda1 0.1    Lambda2 0.15000000000000002 [dLambda 0.05000000000000002]
TCL: Setting parameter firsttimestep to 0
TCL: Setting parameter alchLambda to 0.1
Info: NONBONDED TABLE R-SQUARED SPACING: 0.0625
Info: NONBONDED TABLE SIZE: 705 POINTS
TCL: Setting parameter alchLambda2 to 0.15000000000000002
Info: NONBONDED TABLE R-SQUARED SPACING: 0.0625
Info: NONBONDED TABLE SIZE: 705 POINTS
TCL: Running for 1500000 steps
ETITLE: TS BOND ANGLE DIHED IMPRP ELECT VDW BOUNDARY MISC KINETIC TOTAL TEMP POTENTIAL TOTALAVG TEMPAVG PRESSURE GPRESSURE VOLUME PRESSAVG GPRESSAVG
ENERGY: 0 1.6957 6.7179 4.8971 0.0000 -10436.0182 1362.3833 0.0000 0.0000 1747.7649 -7312.5592 301.5136 -9060.3241 -7312.5592 301.5136 -272.4921 -170.4039 29478.1848 -272.4921 -170.4039
ENERGY: 300000 0.8892 7.0228 1.7407 0.0000 -10593.2752 1474.5163 0.0000 0.0000 1739.0402 -7370.0659 300.0085 -9109.1062 -7384.3079 299.1900 409.4358 450.8908 29897.1059 224.6293 284.5098
ENERGY: 600000 2.5156 5.5144 1.7216 0.0000 -10526.1554 1381.2740 0.0000 0.0000 1735.9060 -7399.2237 299.4678 -9135.1298 -7397.7714 299.5696 -427.1314 -357.4222 29911.2346 -7.2771 42.7274
ENERGY: 900000 1.3473 7.4180 4.0038 0.0000 -10396.8325 1357.1833 0.0000 0.0000 1757.9144 -7268.9656 303.2646 -9026.8800 -7377.0020 300.0017 -586.3116 -516.2899 30370.6997 -146.0547 -95.5592
ENERGY: 1200000 1.5120 7.0011 0.8988 0.0000 -10582.1212 1418.7448 0.0000 0.0000 1704.3244 -7449.6401 294.0196 -9153.9644 -7385.1179 299.4069 -291.4083 -246.7821 30066.9018 -128.0375 -71.4369
ENERGY: 1500000 1.6480 7.1292 2.2372 0.0000 -10421.3930 1348.1516 0.0000 0.0000 1726.8503 -7335.3767 297.9056 -9062.2271 -7385.1609 298.5750 -476.3423 -409.2096 30085.9222 -78.7471 -23.4547
TCL: Running FEP window   4: Lambda1 0.15000000000000002 Lambda2 0.2    [dLambda 0.04999999999999999]
TCL: Setting parameter firsttimestep to 0
TCL: Setting parameter alchLambda to 0.15000000000000002
Info: NONBONDED TABLE R-SQUARED SPACING: 0.0625
Info: NONBONDED TABLE SIZE: 705 POINTS
TCL: Setting parameter alchLambda2 to 0.2
Info: NONBONDED TABLE R-SQUARED SPACING: 0.0625
Info: NONBONDED TABLE SIZE: 705 POINTS
TCL: Running for 1500000 steps
ETITLE: TS BOND ANGLE DIHED IMPRP ELECT VDW BOUNDARY MISC KINETIC TOTAL TEMP POTENTIAL TOTALAVG TEMPAVG PRESSURE GPRESSURE VOLUME PRESSAVG GPRESSAVG
ENERGY: 0 1.6480 7.1292 2.2372 0.0000 -10421.3930 1348.1926 0.0000 0.0000 1725.9895 -7336.1965 297.7571 -9062.1860 -7336.1965 297.7571 -494.6357 -406.6729 30085.9222 -494.6357 -406.6729
ENERGY: 300000 1.2138 5.0071 1.4584 0.0000 -10626.4861 1426.0090 0.0000 0.0000 1750.5890 -7442.2088 302.0008 -9192.7978 -7364.4523 303.3399 -407.3697 -331.4706 30338.0097 -36.4464 26.1352
ENERGY: 600000 1.5773 8.7815 5.4133 0.0000 -10441.6507 1363.3346 0.0000 0.0000 1712.4264 -7350.1176 295.4173 -9062.5440 -7371.8080 300.4778 -539.7781 -495.9693 30361.1181 -210.0287 -137.4771
ENERGY: 900000 1.2664 3.8277 1.8268 0.0000 -10429.5078 1332.5128 0.0000 0.0000 1695.4409 -7394.6332 292.4870 -9090.0741 -7378.7286 299.4531 -570.7840 -519.8049 30143.3659 -185.3215 -115.6222
ENERGY: 1200000 4.2088 3.6470 1.8703 0.0000 -10486.6795 1351.3373 0.0000 0.0000 1752.9992 -7372.6169 302.4166 -9125.6160 -7371.2271 299.6103 -589.3829 -520.5416 29562.5801 -151.3133 -78.8737
ENERGY: 1500000 1.4049 5.2034 1.3252 0.0000 -10489.7668 1358.0855 0.0000 0.0000 1674.2770 -7449.4708 288.8360 -9123.7478 -7373.7751 299.0304 -707.0417 -621.1577 30045.7535 -129.4076 -56.4104
TCL: Running FEP window   5: Lambda1 0.2    Lambda2 0.25   [dLambda 0.04999999999999999]
TCL: Setting parameter firsttimestep to 0
TCL: Setting parameter alchLambda to 0.2
Info: NONBONDED TABLE R-SQUARED SPACING: 0.0625
Info: NONBONDED TABLE SIZE: 705 POINTS
TCL: Setting parameter alchLambda2 to 0.25
Info: NONBONDED TABLE R-SQUARED SPACING: 0.0625
Info: NONBONDED TABLE SIZE: 705 POINTS
TCL: Running for 1500000 steps
ETITLE: TS BOND ANGLE DIHED IMPRP ELECT VDW BOUNDARY MISC KINETIC TOTAL TEMP POTENTIAL TOTALAVG TEMPAVG PRESSURE GPRESSURE VOLUME PRESSAVG GPRESSAVG
ENERGY: 0 1.4049 5.2034 1.3252 0.0000 -10489.7672 1359.8093 0.0000 0.0000 1673.4114 -7448.6131 288.6866 -9122.0244 -7448.6131 288.6866 -708.2224 -611.2103 30045.7535 -708.2224 -611.2103
ENERGY: 300000 1.3572 8.9205 2.4217 0.0000 -10701.3159 1485.4065 0.0000 0.0000 1671.5273 -7531.6827 288.3616 -9203.2100 -7440.0534 294.8413 438.3677 479.7005 29718.7101 -369.7355 -317.9101
ENERGY: 600000 0.2861 8.7506 2.2596 0.0000 -10525.0684 1350.1891 0.0000 0.0000 1727.1028 -7436.4801 297.9491 -9163.5829 -7438.3835 296.9939 -724.7276 -639.0609 29883.1731 -401.8467 -335.1767
ENERGY: 900000 2.2138 5.9806 3.7771 0.0000 -10481.2212 1408.7177 0.0000 0.0000 1749.5390 -7310.9930 301.8197 -9060.5319 -7413.4072 298.3855 271.4852 338.8026 29671.5446 -160.3228 -101.5263
ENERGY: 1200000 0.6137 5.3926 1.4761 0.0000 -10669.2675 1500.4655 0.0000 0.0000 1765.8698 -7395.4499 304.6370 -9161.3197 -7393.4984 300.5475 296.1025 362.3758 30329.7690 -140.8901 -82.2242
ENERGY: 1500000 2.9505 8.1991 1.7274 0.0000 -10680.3270 1456.1506 0.0000 0.0000 1724.2424 -7487.0571 297.4557 -9211.2995 -7394.2396 300.3884 -75.6105 -9.3624 30004.6597 -139.3243 -76.1152
TCL: Running FEP window   6: Lambda1 0.25   Lambda2 0.3    [dLambda 0.04999999999999999]
TCL: Setting parameter firsttimestep to 0
TCL: Setting parameter alchLambda to 0.25
Info: NONBONDED TABLE R-SQUARED SPACING: 0.0625
Info: NONBONDED TABLE SIZE: 705 POINTS
TCL: Setting parameter alchLambda2 to 0.3
Info: NONBONDED TABLE R-SQUARED SPACING: 0.0625
Info: NONBONDED TABLE SIZE: 705 POINTS
TCL: Running for 1500000 steps
ETITLE: TS BOND ANGLE DIHED IMPRP ELECT VDW BOUNDARY MISC KINETIC TOTAL TEMP POTENTIAL TOTALAVG TEMPAVG PRESSURE GPRESSURE VOLUME PRESSAVG GPRESSAVG
ENERGY: 0 2.9505 8.1991 1.7274 0.0000 -10680.3271 1456.0079 0.0000 0.0000 1723.3474 -7488.0949 297.3013 -9211.4423 -7488.0949 297.3013 -97.6453 -6.1410 30004.6597 -97.6453 -6.1410
ENERGY: 300000 0.8148 11.9793 1.4476 0.0000 -10556.7142 1355.9532 0.0000 0.0000 1761.3910 -7425.1282 303.8643 -9186.5192 -7412.5311 298.8829 -684.4270 -643.4112 29663.1378 -341.8554 -298.6668
ENERGY: 600000 0.9415 5.7319 0.9013 0.0000 -10486.9281 1402.3884 0.0000 0.0000 1772.0823 -7304.8826 305.7087 -9076.9649 -7383.5179 301.1891 -13.9169 116.9092 29800.8772 -159.8461 -95.0106
ENERGY: 900000 0.8717 8.1187 0.6179 0.0000 -10595.9326 1490.2842 0.0000 0.0000 1764.1999 -7331.8402 304.3489 -9096.0401 -7380.3185 302.2552 634.4388 657.1862 29707.1809 -173.6815 -115.7029
ENERGY: 1200000 0.9867 7.0442 4.3169 0.0000 -10463.1155 1334.3312 0.0000 0.0000 1756.7842 -7359.6523 303.0696 -9116.4365 -7373.4356 302.4862 -782.4788 -771.1975 30564.1458 -191.1011 -133.9833
ENERGY: 1500000 0.6454 3.4390 5.0705 0.0000 -10555.8383 1449.7420 0.0000 0.0000 1774.8047 -7322.1367 306.1784 -9096.9414 -7378.3218 302.2872 175.4112 237.2424 30188.2492 -50.7339 11.6475
TCL: Running FEP window   7: Lambda1 0.3    Lambda2 0.35   [dLambda 0.04999999999999999]
TCL: Setting parameter firsttimestep to 0
TCL: Setting parameter alchLambda to 0.3
Info: NONBONDED TABLE R-SQUARED SPACING: 0.0625
Info: NONBONDED TABLE SIZE: 705 POINTS
TCL: Setting parameter alchLambda2 to 0.35
Info: NONBONDED TABLE R-SQUARED SPACING: 0.0625
Info: NONBONDED TABLE SIZE: 705 POINTS
TCL: Running for 1500000 steps
ETITLE: TS BOND ANGLE DIHED IMPRP ELECT VDW BOUNDARY MISC KINETIC TOTAL TEMP POTENTIAL TOTALAVG TEMPAVG PRESSURE GPRESSURE VOLUME PRESSAVG GPRESSAVG
ENERGY: 0 0.6454 3.4390 5.0705 0.0000 -10555.8376 1450.2181 0.0000 0.0000 1773.8899 -7322.5747 306.0206 -9096.4646 -7322.5747 306.0206 172.0293 244.0669 30188.2492 172.0293 244.0669
ENERGY: 300000 2.2511 7.6778 3.3034 0.0000 -10438.3170 1304.2486 0.0000 0.0000 1698.9084 -7421.9277 293.0852 -9120.8361 -7343.7764 303.8484 -713.1502 -683.6175 29681.0449 -223.5427 -170.3141
ENERGY: 600000 3.8532 11.3414 2.1461 0.0000 -10565.2099 1363.8461 0.0000 0.0000 1762.3376 -7421.6856 304.0276 -9184.0231 -7360.4498 302.3076 -597.4464 -558.5240 29842.8028 -338.9447 -282.1690
ENERGY: 900000 3.5101 6.7970 3.0345 0.0000 -10534.1933 1461.4560 0.0000 0.0000 1770.0790 -7289.3167 305.3631 -9059.3957 -7357.6966 301.9155 341.6931 342.6263 30320.6161 -208.5068 -137.0596
ENERGY: 1200000 2.1469 8.6151 1.3587 0.0000 -10517.9957 1428.0140 0.0000 0.0000 1764.7808 -7313.0802 304.4491 -9077.8610 -7350.7297 302.2206 -176.8177 -74.1553 30280.5328 -86.2972 -11.1892
ENERGY: 1500000 2.1671 4.0051 1.4580 0.0000 -10479.4408 1371.1462 0.0000 0.0000 1714.4413 -7386.2232 295.7649 -9100.6645 -7353.1946 300.7938 -630.2766 -589.2279 30682.9716 -121.7386 -54.2393
TCL: Running FEP window   8: Lambda1 0.35   Lambda2 0.39999999999999997 [dLambda 0.04999999999999999]
TCL: Setting parameter firsttimestep to 0
TCL: Setting parameter alchLambda to 0.35
Info: NONBONDED TABLE R-SQUARED SPACING: 0.0625
Info: NONBONDED TABLE SIZE: 705 POINTS
TCL: Setting parameter alchLambda2 to 0.39999999999999997
Info: NONBONDED TABLE R-SQUARED SPACING: 0.0625
Info: NONBONDED TABLE SIZE: 705 POINTS
TCL: Running for 1500000 steps
ETITLE: TS BOND ANGLE DIHED IMPRP ELECT VDW BOUNDARY MISC KINETIC TOTAL TEMP POTENTIAL TOTALAVG TEMPAVG PRESSURE GPRESSURE VOLUME PRESSAVG GPRESSAVG
ENERGY: 0 2.1671 4.0051 1.4580 0.0000 -10479.4413 1371.0627 0.0000 0.0000 1713.5996 -7387.1489 295.6197 -9100.7485 -7387.1489 295.6197 -665.4143 -582.8549 30682.9716 -665.4143 -582.8549
ENERGY: 300000 4.1459 9.5058 1.1373 0.0000 -10689.2358 1508.6586 0.0000 0.0000 1713.5491 -7452.2391 295.6109 -9165.7882 -7408.3302 301.8486 604.0730 686.8673 29690.6484 -92.9376 -53.5725
ENERGY: 600000 2.3294 7.5957 1.5830 0.0000 -10508.4292 1380.4469 0.0000 0.0000 1740.5779 -7375.8963 300.2738 -9116.4741 -7398.0508 302.4602 -236.7618 -151.5818 29690.4100 -85.8594 -30.4003
ENERGY: 900000 3.0087 6.1273 2.4418 0.0000 -10592.6340 1460.1519 0.0000 0.0000 1731.4461 -7389.4582 298.6984 -9120.9043 -7390.3059 303.1447 506.8519 529.4543 29697.8426 -3.4280 45.1799
ENERGY: 1200000 0.9989 6.1957 1.7039 0.0000 -10369.2087 1296.7573 0.0000 0.0000 1690.3627 -7373.1902 291.6110 -9063.5529 -7375.0351 302.2322 -1025.8258 -968.7289 30288.6584 -151.4273 -98.5948
ENERGY: 1500000 1.6939 5.3293 1.7727 0.0000 -10559.8714 1361.8463 0.0000 0.0000 1714.8231 -7474.4061 295.8307 -9189.2292 -7389.4781 301.8295 -798.1706 -700.2862 29955.2849 -179.4235 -116.4928
TCL: Running FEP window   9: Lambda1 0.39999999999999997 Lambda2 0.44999999999999996 [dLambda 0.04999999999999999]
TCL: Setting parameter firsttimestep to 0
TCL: Setting parameter alchLambda to 0.39999999999999997
Info: NONBONDED TABLE R-SQUARED SPACING: 0.0625
Info: NONBONDED TABLE SIZE: 705 POINTS
TCL: Setting parameter alchLambda2 to 0.44999999999999996
Info: NONBONDED TABLE R-SQUARED SPACING: 0.0625
Info: NONBONDED TABLE SIZE: 705 POINTS
TCL: Running for 1500000 steps
ETITLE: TS BOND ANGLE DIHED IMPRP ELECT VDW BOUNDARY MISC KINETIC TOTAL TEMP POTENTIAL TOTALAVG TEMPAVG PRESSURE GPRESSURE VOLUME PRESSAVG GPRESSAVG
ENERGY: 0 1.6939 5.3293 1.7727 0.0000 -10559.8718 1361.4054 0.0000 0.0000 1713.9606 -7475.7099 295.6819 -9189.6704 -7475.7099 295.6819 -803.2674 -697.7425 29955.2849 -803.2674 -697.7425
ENERGY: 300000 0.4484 4.8853 2.0986 0.0000 -10553.2602 1500.3163 0.0000 0.0000 1758.6419 -7286.8697 303.3901 -9045.5116 -7363.4737 299.3235 878.6869 905.0732 29981.7968 -219.3292 -158.2423
ENERGY: 600000 0.8669 12.2048 4.4768 0.0000 -10528.3674 1424.7369 0.0000 0.0000 1701.5258 -7384.5561 293.5368 -9086.0819 -7379.2676 298.8945 -49.1537 -24.9620 30183.8274 -149.3040 -90.2046
ENERGY: 900000 0.7217 9.0648 2.8216 0.0000 -10433.9776 1382.3445 0.0000 0.0000 1713.8779 -7325.1472 295.6677 -9039.0250 -7381.6672 299.0436 -209.2649 -156.9474 30159.9886 -135.5647 -80.0723
ENERGY: 1200000 2.1820 11.5834 1.2232 0.0000 -10516.4049 1376.4464 0.0000 0.0000 1735.8319 -7389.1381 299.4550 -9124.9700 -7381.5113 299.1506 -595.8664 -531.4319 30111.6106 -231.0193 -174.3271
ENERGY: 1500000 1.3953 5.8477 1.2193 0.0000 -10509.0043 1352.5545 0.0000 0.0000 1724.4182 -7423.5692 297.4860 -9147.9874 -7383.9559 299.1890 -793.3721 -691.3893 30171.8525 -273.3278 -216.7789
TCL: Running FEP window  10: Lambda1 0.44999999999999996 Lambda2 0.49999999999999994 [dLambda 0.04999999999999999]
TCL: Setting parameter firsttimestep to 0
TCL: Setting parameter alchLambda to 0.44999999999999996
Info: NONBONDED TABLE R-SQUARED SPACING: 0.0625
Info: NONBONDED TABLE SIZE: 705 POINTS
TCL: Setting parameter alchLambda2 to 0.49999999999999994
Info: NONBONDED TABLE R-SQUARED SPACING: 0.0625
Info: NONBONDED TABLE SIZE: 705 POINTS
TCL: Running for 1500000 steps
ETITLE: TS BOND ANGLE DIHED IMPRP ELECT VDW BOUNDARY MISC KINETIC TOTAL TEMP POTENTIAL TOTALAVG TEMPAVG PRESSURE GPRESSURE VOLUME PRESSAVG GPRESSAVG
ENERGY: 0 1.3954 5.8477 1.2193 0.0000 -10509.0040 1352.5351 0.0000 0.0000 1723.5810 -7424.4255 297.3416 -9148.0065 -7424.4255 297.3416 -755.8120 -685.5569 30171.8525 -755.8120 -685.5569
ENERGY: 300000 2.0629 10.0368 1.0743 0.0000 -10691.5831 1487.5119 0.0000 0.0000 1718.2874 -7472.6098 296.4284 -9190.8972 -7412.3081 298.7398 634.4860 664.7950 29459.3583 -89.6184 -49.9625
ENERGY: 600000 2.1235 10.1638 0.9155 0.0000 -10463.8870 1309.7166 0.0000 0.0000 1773.9878 -7366.9798 306.0375 -9140.9675 -7404.2891 299.8021 -745.3111 -713.6212 29776.2014 -187.9276 -141.7609
ENERGY: 900000 1.7307 7.0997 1.7001 0.0000 -10521.0448 1460.1864 0.0000 0.0000 1799.0264 -7251.3015 310.3570 -9050.3279 -7387.7028 299.6918 203.6479 247.9128 30478.2215 -19.3476 25.7131
ENERGY: 1200000 1.9104 8.6900 3.9811 0.0000 -10542.7872 1394.1133 0.0000 0.0000 1774.5727 -7359.5197 306.1384 -9134.0924 -7383.9056 300.5006 -28.3248 80.1830 29569.5420 -16.4103 33.4014
ENERGY: 1500000 1.0846 5.3065 3.2604 0.0000 -10613.8666 1446.0561 0.0000 0.0000 1731.8393 -7426.3197 298.7663 -9158.1590 -7385.6221 300.3486 275.3611 333.9255 29737.4816 44.4757 94.2332
TCL: Running FEP window  11: Lambda1 0.49999999999999994 Lambda2 0.5499999999999999 [dLambda 0.04999999999999999]
TCL: Setting parameter firsttimestep to 0
TCL: Setting parameter alchLambda to 0.49999999999999994
Info: NONBONDED TABLE R-SQUARED SPACING: 0.0625
Info: NONBONDED TABLE SIZE: 705 POINTS
TCL: Setting parameter alchLambda2 to 0.5499999999999999
Info: NONBONDED TABLE R-SQUARED SPACING: 0.0625
Info: NONBONDED TABLE SIZE: 705 POINTS
TCL: Running for 1500000 steps
ETITLE: TS BOND ANGLE DIHED IMPRP ELECT VDW BOUNDARY MISC KINETIC TOTAL TEMP POTENTIAL TOTALAVG TEMPAVG PRESSURE GPRESSURE VOLUME PRESSAVG GPRESSAVG
ENERGY: 0 1.0846 5.3065 3.2604 0.0000 -10613.8666 1447.3814 0.0000 0.0000 1730.9753 -7425.8584 298.6172 -9156.8337 -7425.8584 298.6172 266.6892 350.4806 29737.4816 266.6892 350.4806
ENERGY: 300000 1.2381 5.3678 1.4936 0.0000 -10541.5674 1362.8318 0.0000 0.0000 1743.5535 -7427.0827 300.7871 -9170.6361 -7409.5212 299.1272 -338.0454 -342.8802 29750.4542 17.1745 55.7469
ENERGY: 600000 1.7273 7.3101 4.0468 0.0000 -10714.7486 1495.5385 0.0000 0.0000 1761.5264 -7444.5995 303.8877 -9206.1259 -7393.1945 299.7049 486.4483 514.9195 29774.9764 193.0085 235.7229
ENERGY: 900000 0.5011 6.5935 2.5071 0.0000 -10486.7634 1362.3861 0.0000 0.0000 1733.9689 -7380.8067 299.1336 -9114.7756 -7398.0182 299.3937 -487.4580 -398.9520 29931.0378 -1.0339 45.6726
ENERGY: 1200000 1.4899 7.6848 2.1323 0.0000 -10591.9634 1400.5523 0.0000 0.0000 1763.1453 -7416.9589 304.1670 -9180.1041 -7392.0548 299.7750 -235.8886 -232.2117 30034.7862 0.3076 42.1478
ENERGY: 1500000 2.2845 8.4182 3.4053 0.0000 -10431.8008 1300.7870 0.0000 0.0000 1755.4287 -7361.4772 302.8358 -9116.9059 -7382.6364 301.4117 -977.7740 -949.2677 30317.4243 -106.8997 -66.8612
TCL: Running FEP window  12: Lambda1 0.5499999999999999 Lambda2 0.6    [dLambda 0.050000000000000044]
TCL: Setting parameter firsttimestep to 0
TCL: Setting parameter alchLambda to 0.5499999999999999
Info: NONBONDED TABLE R-SQUARED SPACING: 0.0625
Info: NONBONDED TABLE SIZE: 705 POINTS
TCL: Setting parameter alchLambda2 to 0.6
Info: NONBONDED TABLE R-SQUARED SPACING: 0.0625
Info: NONBONDED TABLE SIZE: 705 POINTS
TCL: Running for 1500000 steps
ETITLE: TS BOND ANGLE DIHED IMPRP ELECT VDW BOUNDARY MISC KINETIC TOTAL TEMP POTENTIAL TOTALAVG TEMPAVG PRESSURE GPRESSURE VOLUME PRESSAVG GPRESSAVG
ENERGY: 0 2.2845 8.4182 3.4053 0.0000 -10432.5935 1301.6054 0.0000 0.0000 1754.5549 -7362.3253 302.6850 -9116.8802 -7362.3253 302.6850 -1013.9341 -938.6568 30317.4243 -1013.9341 -938.6568
ENERGY: 300000 3.6611 7.7104 2.2287 0.0000 -10552.3021 1432.9598 0.0000 0.0000 1721.3398 -7384.4022 296.9550 -9105.7421 -7379.3076 300.1822 50.1286 140.6643 30038.7247 -673.1267 -602.5114
ENERGY: 600000 1.5689 4.2095 4.6665 0.0000 -10640.4790 1479.0666 0.0000 0.0000 1732.3332 -7418.6344 298.8515 -9150.9676 -7399.9004 299.9941 627.2936 670.9822 29436.3577 -320.3320 -256.0723
ENERGY: 900000 1.9943 6.2523 4.2335 0.0000 -10473.9303 1335.9031 0.0000 0.0000 1780.4637 -7345.0834 307.1546 -9125.5470 -7389.2623 301.4694 -548.8349 -534.9171 29814.5338 -332.2041 -277.5671
ENERGY: 1200000 1.8429 8.8127 4.5035 0.0000 -10595.1263 1410.2425 0.0000 0.0000 1721.9205 -7447.8042 297.0551 -9169.7247 -7384.9775 301.3567 -181.3049 -132.2660 29865.2442 -254.4220 -195.7629
ENERGY: 1500000 3.1527 8.0453 2.4719 0.0000 -10540.5514 1427.1877 0.0000 0.0000 1732.2690 -7367.4248 298.8404 -9099.6938 -7381.6705 301.3119 159.2829 161.3231 30088.7043 -139.9127 -86.8996
TCL: Running FEP window  13: Lambda1 0.6    Lambda2 0.65   [dLambda 0.050000000000000044]
TCL: Setting parameter firsttimestep to 0
TCL: Setting parameter alchLambda to 0.6
Info: NONBONDED TABLE R-SQUARED SPACING: 0.0625
Info: NONBONDED TABLE SIZE: 705 POINTS
TCL: Setting parameter alchLambda2 to 0.65
Info: NONBONDED TABLE R-SQUARED SPACING: 0.0625
Info: NONBONDED TABLE SIZE: 705 POINTS
TCL: Running for 1500000 steps
ETITLE: TS BOND ANGLE DIHED IMPRP ELECT VDW BOUNDARY MISC KINETIC TOTAL TEMP POTENTIAL TOTALAVG TEMPAVG PRESSURE GPRESSURE VOLUME PRESSAVG GPRESSAVG
ENERGY: 0 3.1527 8.0453 2.4719 0.0000 -10540.4978 1426.6563 0.0000 0.0000 1731.4514 -7368.7202 298.6993 -9100.1716 -7368.7202 298.6993 70.4677 165.5685 30088.7043 70.4677 165.5685
ENERGY: 300000 0.5590 3.7053 1.0076 0.0000 -10604.8841 1467.7469 0.0000 0.0000 1742.6527 -7389.2126 300.6317 -9131.8654 -7350.7204 303.3478 266.6987 402.8755 30224.3936 389.6308 479.8686
ENERGY: 600000 4.5963 5.2877 3.1846 0.0000 -10790.9309 1552.1653 0.0000 0.0000 1712.1431 -7513.5539 295.3684 -9225.6970 -7379.3052 302.3126 1026.4847 1097.1150 29611.4077 224.4306 304.2384
ENERGY: 900000 2.3690 6.8646 3.7445 0.0000 -10483.3698 1401.6141 0.0000 0.0000 1740.1510 -7328.6266 300.2001 -9068.7776 -7359.0721 302.6881 -260.3198 -190.7262 30165.2276 181.0954 254.7195
ENERGY: 1200000 0.1833 7.5850 3.2469 0.0000 -10489.7564 1413.9272 0.0000 0.0000 1762.1738 -7302.6402 303.9994 -9064.8140 -7367.0956 301.6950 -29.7833 32.3519 30349.6590 88.0117 156.0097
ENERGY: 1500000 0.7260 8.8233 1.2564 0.0000 -10557.8959 1398.8431 0.0000 0.0000 1731.3503 -7416.8968 298.6819 -9148.2471 -7375.6492 301.1200 -106.2156 4.3118 29632.2126 45.7490 114.0839
TCL: Running FEP window  14: Lambda1 0.65   Lambda2 0.7000000000000001 [dLambda 0.050000000000000044]
TCL: Setting parameter firsttimestep to 0
TCL: Setting parameter alchLambda to 0.65
Info: NONBONDED TABLE R-SQUARED SPACING: 0.0625
Info: NONBONDED TABLE SIZE: 705 POINTS
TCL: Setting parameter alchLambda2 to 0.7000000000000001
Info: NONBONDED TABLE R-SQUARED SPACING: 0.0625
Info: NONBONDED TABLE SIZE: 705 POINTS
TCL: Running for 1500000 steps
ETITLE: TS BOND ANGLE DIHED IMPRP ELECT VDW BOUNDARY MISC KINETIC TOTAL TEMP POTENTIAL TOTALAVG TEMPAVG PRESSURE GPRESSURE VOLUME PRESSAVG GPRESSAVG
ENERGY: 0 0.7260 8.8233 1.2564 0.0000 -10558.1040 1399.3396 0.0000 0.0000 1730.5047 -7417.4541 298.5360 -9147.9588 -7417.4541 298.5360 -64.4687 16.8534 29632.2126 -64.4687 16.8534
ENERGY: 300000 1.0833 3.6848 3.7257 0.0000 -10479.4961 1409.3746 0.0000 0.0000 1724.1651 -7337.4625 297.4424 -9061.6276 -7401.6203 298.3214 -155.1156 -88.7258 30553.7321 285.7826 324.7620
ENERGY: 600000 1.7456 6.5467 2.4007 0.0000 -10574.7639 1391.1182 0.0000 0.0000 1791.5325 -7381.4202 309.0642 -9172.9528 -7376.7195 301.6455 -371.5212 -359.4461 30017.9871 -51.9736 8.7605
ENERGY: 900000 1.4412 10.9127 3.4993 0.0000 -10586.5703 1422.8440 0.0000 0.0000 1749.7068 -7398.1662 301.8487 -9147.8730 -7391.6036 300.0284 275.6720 281.6707 29577.5013 33.9724 88.9084
ENERGY: 1200000 1.3165 6.8858 2.5568 0.0000 -10502.2211 1364.0333 0.0000 0.0000 1717.3767 -7410.0520 296.2713 -9127.4288 -7393.1098 299.3740 -551.5074 -471.5122 30239.1274 -87.3402 -30.9013
ENERGY: 1500000 0.7496 9.7604 0.9735 0.0000 -10401.9549 1299.8636 0.0000 0.0000 1734.2580 -7356.3498 299.1835 -9090.6078 -7396.3940 299.7904 -786.8089 -749.2659 30078.1521 -156.3077 -99.4574
TCL: Running FEP window  15: Lambda1 0.7000000000000001 Lambda2 0.7500000000000001 [dLambda 0.050000000000000044]
TCL: Setting parameter firsttimestep to 0
TCL: Setting parameter alchLambda to 0.7000000000000001
Info: NONBONDED TABLE R-SQUARED SPACING: 0.0625
Info: NONBONDED TABLE SIZE: 705 POINTS
TCL: Setting parameter alchLambda2 to 0.7500000000000001
Info: NONBONDED TABLE R-SQUARED SPACING: 0.0625
Info: NONBONDED TABLE SIZE: 705 POINTS
TCL: Running for 1500000 steps
ETITLE: TS BOND ANGLE DIHED IMPRP ELECT VDW BOUNDARY MISC KINETIC TOTAL TEMP POTENTIAL TOTALAVG TEMPAVG PRESSURE GPRESSURE VOLUME PRESSAVG GPRESSAVG
ENERGY: 0 0.7496 9.7604 0.9735 0.0000 -10402.6416 1300.3758 0.0000 0.0000 1733.3803 -7357.4020 299.0321 -9090.7823 -7357.4020 299.0321 -815.0700 -737.3303 30078.1521 -815.0700 -737.3303
ENERGY: 300000 0.8497 3.1432 1.7140 0.0000 -10514.8887 1370.1677 0.0000 0.0000 1733.8827 -7405.1315 299.1188 -9139.0142 -7377.6151 299.6995 -418.6730 -341.7909 29949.1556 -410.0980 -306.6421
ENERGY: 600000 1.9387 11.7259 1.8137 0.0000 -10584.1583 1371.8983 0.0000 0.0000 1740.5728 -7456.2089 300.2729 -9196.7817 -7390.0162 301.2394 -433.5494 -332.9247 29680.5430 -289.7767 -199.9495
ENERGY: 900000 3.3993 4.0070 0.8747 0.0000 -10635.5962 1476.6635 0.0000 0.0000 1731.7283 -7418.9233 298.7471 -9150.6516 -7379.9704 301.2272 124.9644 169.1135 30319.6376 -167.2024 -91.7244
ENERGY: 1200000 1.0002 6.1278 2.4808 0.0000 -10634.7372 1465.9883 0.0000 0.0000 1771.4474 -7387.6928 305.5992 -9159.1402 -7385.0133 301.2062 223.2890 277.7679 29968.8290 -139.7864 -70.0401
ENERGY: 1500000 0.7444 9.2876 1.9272 0.0000 -10568.2673 1428.6629 0.0000 0.0000 1699.9090 -7427.7362 293.2578 -9127.6451 -7388.9056 300.8502 -160.7621 -131.5020 30273.7311 -161.6726 -94.4987
TCL: Running FEP window  16: Lambda1 0.7500000000000001 Lambda2 0.8000000000000002 [dLambda 0.050000000000000044]
TCL: Setting parameter firsttimestep to 0
TCL: Setting parameter alchLambda to 0.7500000000000001
Info: NONBONDED TABLE R-SQUARED SPACING: 0.0625
Info: NONBONDED TABLE SIZE: 705 POINTS
TCL: Setting parameter alchLambda2 to 0.8000000000000002
Info: NONBONDED TABLE R-SQUARED SPACING: 0.0625
Info: NONBONDED TABLE SIZE: 705 POINTS
TCL: Running for 1500000 steps
ETITLE: TS BOND ANGLE DIHED IMPRP ELECT VDW BOUNDARY MISC KINETIC TOTAL TEMP POTENTIAL TOTALAVG TEMPAVG PRESSURE GPRESSURE VOLUME PRESSAVG GPRESSAVG
ENERGY: 0 0.7444 9.2876 1.9272 0.0000 -10568.4116 1428.3711 0.0000 0.0000 1699.0685 -7429.0127 293.1128 -9128.0812 -7429.0127 293.1128 -227.2828 -127.0081 30273.7311 -227.2828 -127.0081
ENERGY: 300000 1.7950 6.4105 1.3427 0.0000 -10581.5866 1409.1218 0.0000 0.0000 1834.9216 -7327.9950 316.5494 -9162.9166 -7383.5872 305.3614 -221.6381 -142.5998 30265.3414 23.4341 108.9742
ENERGY: 600000 0.4014 7.3273 1.6299 0.0000 -10563.3080 1402.8750 0.0000 0.0000 1759.0309 -7392.0436 303.4572 -9151.0745 -7359.2690 304.8171 -264.4155 -214.9738 30209.8712 42.2713 116.3749
ENERGY: 900000 1.5077 6.5821 0.9508 0.0000 -10562.8870 1419.5942 0.0000 0.0000 1732.9202 -7401.3321 298.9527 -9134.2523 -7368.0960 302.3736 -125.7508 -13.4432 30192.3047 78.0405 145.6819
ENERGY: 1200000 0.4826 7.1410 1.6398 0.0000 -10472.2197 1327.0230 0.0000 0.0000 1756.9386 -7378.9948 303.0962 -9135.9334 -7387.1352 300.5583 -860.1125 -852.8842 30409.8730 -24.9878 35.5471
ENERGY: 1500000 2.0801 6.0498 1.5531 0.0000 -10514.3429 1366.9935 0.0000 0.0000 1709.7719 -7427.8944 294.9593 -9137.6664 -7385.0976 301.1183 -755.6450 -613.3592 30326.3044 -156.7434 -92.8476
TCL: Running FEP window  17: Lambda1 0.8000000000000002 Lambda2 0.8500000000000002 [dLambda 0.050000000000000044]
TCL: Setting parameter firsttimestep to 0
TCL: Setting parameter alchLambda to 0.8000000000000002
Info: NONBONDED TABLE R-SQUARED SPACING: 0.0625
Info: NONBONDED TABLE SIZE: 705 POINTS
TCL: Setting parameter alchLambda2 to 0.8500000000000002
Info: NONBONDED TABLE R-SQUARED SPACING: 0.0625
Info: NONBONDED TABLE SIZE: 705 POINTS
TCL: Running for 1500000 steps
ETITLE: TS BOND ANGLE DIHED IMPRP ELECT VDW BOUNDARY MISC KINETIC TOTAL TEMP POTENTIAL TOTALAVG TEMPAVG PRESSURE GPRESSURE VOLUME PRESSAVG GPRESSAVG
ENERGY: 0 2.0801 6.0498 1.5531 0.0000 -10515.1240 1366.9479 0.0000 0.0000 1708.9111 -7429.5819 294.8108 -9138.4931 -7429.5819 294.8108 -686.7355 -607.0364 30326.3044 -686.7355 -607.0364
ENERGY: 300000 2.0621 6.0722 3.5238 0.0000 -10608.4529 1463.2880 0.0000 0.0000 1773.3171 -7360.1898 305.9218 -9133.5069 -7376.0894 297.3134 342.4579 481.2588 29892.4628 -373.9882 -295.8598
ENERGY: 600000 1.4196 7.2760 2.7215 0.0000 -10748.1541 1541.6788 0.0000 0.0000 1731.6230 -7463.4352 298.7289 -9195.0582 -7396.5301 298.5987 896.0362 903.2910 29789.7756 -216.9613 -149.6843
ENERGY: 900000 2.8569 7.0256 1.1614 0.0000 -10584.6825 1490.5817 0.0000 0.0000 1714.2735 -7368.7835 295.7359 -9083.0570 -7399.1480 298.3265 675.5900 696.1804 29728.3467 -98.9420 -36.6924
ENERGY: 1200000 0.9801 6.9958 2.4508 0.0000 -10513.2567 1410.2741 0.0000 0.0000 1754.1245 -7338.4313 302.6108 -9092.5558 -7385.2157 299.3844 50.8982 137.9965 29895.9875 -142.1778 -76.0071
ENERGY: 1500000 1.8763 6.0207 3.7430 0.0000 -10673.5049 1518.7033 0.0000 0.0000 1738.1103 -7405.0514 299.8481 -9143.1617 -7387.0069 299.5617 1010.2238 1090.2989 29559.8890 -9.2169 50.3049
TCL: Running FEP window  18: Lambda1 0.8500000000000002 Lambda2 0.9000000000000002 [dLambda 0.050000000000000044]
TCL: Setting parameter firsttimestep to 0
TCL: Setting parameter alchLambda to 0.8500000000000002
Info: NONBONDED TABLE R-SQUARED SPACING: 0.0625
Info: NONBONDED TABLE SIZE: 705 POINTS
TCL: Setting parameter alchLambda2 to 0.9000000000000002
Info: NONBONDED TABLE R-SQUARED SPACING: 0.0625
Info: NONBONDED TABLE SIZE: 705 POINTS
TCL: Running for 1500000 steps
ETITLE: TS BOND ANGLE DIHED IMPRP ELECT VDW BOUNDARY MISC KINETIC TOTAL TEMP POTENTIAL TOTALAVG TEMPAVG PRESSURE GPRESSURE VOLUME PRESSAVG GPRESSAVG
ENERGY: 0 1.8763 6.0207 3.7430 0.0000 -10674.0069 1518.3763 0.0000 0.0000 1737.2300 -7406.7606 299.6962 -9143.9905 -7406.7606 299.6962 1037.4080 1100.4441 29559.8890 1037.4080 1100.4441
ENERGY: 300000 0.1403 5.7081 2.6614 0.0000 -10598.0554 1429.8425 0.0000 0.0000 1713.4924 -7446.2106 295.6012 -9159.7030 -7393.8194 300.2153 65.7347 120.7452 30186.6814 641.8922 712.0425
ENERGY: 600000 1.0924 8.7614 2.2047 0.0000 -10515.0161 1344.2560 0.0000 0.0000 1703.8311 -7454.8704 293.9345 -9158.7015 -7409.9262 299.9819 -738.2994 -647.8186 30119.4642 327.8302 406.3758
ENERGY: 900000 1.1726 4.5213 1.3844 0.0000 -10654.2609 1531.4750 0.0000 0.0000 1776.5756 -7339.1319 306.4839 -9115.7076 -7403.5422 300.9535 1386.7016 1435.0966 29232.9351 318.3348 390.8295
ENERGY: 1200000 1.8912 7.6326 2.8644 0.0000 -10630.6857 1475.6608 0.0000 0.0000 1795.5907 -7347.0459 309.7643 -9142.6366 -7387.8884 302.1893 315.7876 428.1545 29896.1086 212.5803 282.9708
ENERGY: 1500000 1.0381 6.4917 1.4236 0.0000 -10558.9329 1402.8527 0.0000 0.0000 1738.7801 -7408.3466 299.9637 -9147.1268 -7377.5291 302.1751 85.9544 92.4355 29783.7962 267.1086 336.3226
TCL: Running FEP window  19: Lambda1 0.9000000000000002 Lambda2 0.9500000000000003 [dLambda 0.050000000000000044]
TCL: Setting parameter firsttimestep to 0
TCL: Setting parameter alchLambda to 0.9000000000000002
Info: NONBONDED TABLE R-SQUARED SPACING: 0.0625
Info: NONBONDED TABLE SIZE: 705 POINTS
TCL: Setting parameter alchLambda2 to 0.9500000000000003
Info: NONBONDED TABLE R-SQUARED SPACING: 0.0625
Info: NONBONDED TABLE SIZE: 705 POINTS
TCL: Running for 1500000 steps
ETITLE: TS BOND ANGLE DIHED IMPRP ELECT VDW BOUNDARY MISC KINETIC TOTAL TEMP POTENTIAL TOTALAVG TEMPAVG PRESSURE GPRESSURE VOLUME PRESSAVG GPRESSAVG
ENERGY: 0 1.0381 6.4917 1.4236 0.0000 -10559.5107 1403.0679 0.0000 0.0000 1737.9236 -7409.5658 299.8159 -9147.4894 -7409.5658 299.8159 26.0662 107.8062 29783.7962 26.0662 107.8062
ENERGY: 300000 0.3245 4.4379 1.1974 0.0000 -10540.4857 1427.7634 0.0000 0.0000 1734.1552 -7372.6073 299.1658 -9106.7625 -7375.8361 297.7922 72.7262 114.8008 30285.0059 -213.2054 -154.2028
ENERGY: 600000 0.5223 5.5464 3.9665 0.0000 -10434.9359 1377.1327 0.0000 0.0000 1758.6914 -7289.0766 303.3986 -9047.7680 -7370.7186 299.5328 -316.1471 -304.0279 31075.9178 -236.9833 -185.9242
ENERGY: 900000 2.8318 10.0661 2.0352 0.0000 -10545.5645 1408.4215 0.0000 0.0000 1766.0387 -7356.1712 304.6661 -9122.2098 -7366.5548 299.5227 -29.5005 71.7778 29846.6882 -216.3722 -159.2810
ENERGY: 1200000 0.4362 7.3366 1.5759 0.0000 -10508.3995 1382.2127 0.0000 0.0000 1671.5287 -7445.3095 288.3619 -9116.8382 -7382.0566 298.6137 -269.2026 -198.4038 30078.6179 -203.4838 -135.7354
ENERGY: 1500000 1.2928 5.6892 1.4047 0.0000 -10633.3298 1462.3483 0.0000 0.0000 1755.9318 -7406.6630 302.9225 -9162.5948 -7382.1917 299.0821 471.1786 547.0236 29735.5005 -195.6521 -124.1199
TCL: Running FEP window  20: Lambda1 0.9500000000000003 Lambda2 1.0    [dLambda 0.04999999999999971]
TCL: Setting parameter firsttimestep to 0
TCL: Setting parameter alchLambda to 0.9500000000000003
Info: NONBONDED TABLE R-SQUARED SPACING: 0.0625
Info: NONBONDED TABLE SIZE: 705 POINTS
TCL: Setting parameter alchLambda2 to 1.0
Info: NONBONDED TABLE R-SQUARED SPACING: 0.0625
Info: NONBONDED TABLE SIZE: 705 POINTS
TCL: Running for 1500000 steps
ETITLE: TS BOND ANGLE DIHED IMPRP ELECT VDW BOUNDARY MISC KINETIC TOTAL TEMP POTENTIAL TOTALAVG TEMPAVG PRESSURE GPRESSURE VOLUME PRESSAVG GPRESSAVG
ENERGY: 0 1.2928 5.6892 1.4047 0.0000 -10633.8450 1462.5691 0.0000 0.0000 1755.0400 -7407.8492 302.7687 -9162.8893 -7407.8492 302.7687 480.9055 563.6002 29735.5005 480.9055 563.6002
ENERGY: 300000 3.1236 8.9928 1.5267 0.0000 -10683.4770 1508.8680 0.0000 0.0000 1732.8360 -7428.1300 298.9382 -9160.9659 -7401.0058 298.0131 669.8524 714.3871 29798.0101 109.5291 176.4861
ENERGY: 600000 3.4849 6.9103 3.5505 0.0000 -10369.6164 1323.3276 0.0000 0.0000 1791.2477 -7241.0954 309.0150 -9032.3431 -7375.1809 299.8633 -289.1515 -157.0803 29574.2518 -3.5500 82.4686
ENERGY: 900000 1.9644 7.7286 2.2600 0.0000 -10549.7323 1393.7426 0.0000 0.0000 1748.8315 -7395.2051 301.6977 -9144.0367 -7373.0750 301.1161 -235.8553 -147.2216 29910.9255 -133.8948 -43.1910
ENERGY: 1200000 1.7071 5.5906 2.9129 0.0000 -10647.8859 1436.4587 0.0000 0.0000 1764.2766 -7436.9400 304.3621 -9201.2166 -7381.0484 301.2631 -60.5496 32.7848 29994.6721 -102.8188 -16.4024
ENERGY: 1500000 0.5819 4.2675 1.3731 0.0000 -10438.8916 1352.6421 0.0000 0.0000 1770.3386 -7309.6883 305.4079 -9080.0268 -7370.4950 301.7969 -371.0906 -358.5657 30399.1488 -115.3211 -36.1944
TCL: Exiting due to exit command.
