Info: SIMULATION PARAMETERS:
Info: TIMESTEP               2
Info: NUMBER OF STEPS        0
Info: STEPS PER CYCLE        10
Info: PERIODIC CELL BASIS 1  31.7279 0 0
Info: PERIODIC CELL BASIS 2  0 30.1901 0
Info: PERIODIC CELL BASIS 3  0 0 31.4794
Info: PERIODIC CELL CENTER   0 0 0
Info: WRAPPING WATERS AROUND PERIODIC BOUNDARIES ON OUTPUT.
Info: WRAPPING ALL CLUSTERS AROUND PERIODIC BOUNDARIES ON OUTPUT.
Info: FIRST LDB TIMESTEP     50
Info: LAST LDB TIMESTEP     -1
Info: HOM BACKGROUND SCALING 1
Info: PME BACKGROUND SCALING 1
Info: MIN ATOMS PER PATCH    40
Info: EMPTY PATCH LOAD       40 ATOMS
Info: VELOCITY FILE          mobley_8525830_equil.vel
Info: CENTER OF MASS MOVING INITIALLY? NO
Info: DIELECTRIC             1
Info: EXCLUDE                SCALED ONE-FOUR
Info: 1-4 ELECTROSTATICS SCALED BY 0.833333
Info: MODIFIED 1-4 VDW PARAMETERS WILL BE USED
Info: DCD FILENAME           mobley_8525830_prod.dcd
Info: DCD FREQUENCY          100000
Info: DCD FIRST STEP         100000
Info: DCD FILE WILL CONTAIN UNIT CELL DATA
Info: XST FILENAME           mobley_8525830_prod.xst
Info: XST FREQUENCY          100000
Info: NO VELOCITY DCD OUTPUT
Info: NO FORCE DCD OUTPUT
Info: OUTPUT FILENAME        mobley_8525830_prod
Info: BINARY OUTPUT FILES WILL BE USED
Info: RESTART FILENAME       mobley_8525830_prod.restart
Info: RESTART FREQUENCY      100000
Info: BINARY RESTART FILES WILL BE USED
Info: CUTOFF                 9
Info: PAIRLIST DISTANCE      11
Info: PAIRLIST SHRINK RATE   0.01
Info: PAIRLIST GROW RATE     0.01
Info: PAIRLIST TRIGGER       0.3
Info: PAIRLISTS PER CYCLE    2
Info: PAIRLISTS ENABLED
Info: MARGIN                 2
Info: HYDROGEN GROUP CUTOFF  2.5
Info: PATCH DIMENSION        15.5
Info: ENERGY OUTPUT STEPS    100000
Info: ENERGY EVALUATION STEPS    100000
Info: OUTPUT ENERGY PRECISION 4
Info: CROSSTERM ENERGY INCLUDED IN DIHEDRAL
Info: TIMING OUTPUT STEPS    1000000
Info: PRESSURE OUTPUT STEPS  100000
Info: ALCHEMICAL FEP ON
Info: FEP CURRENT LAMBDA VALUE     0
Info: FEP COMPARISON LAMBDA VALUE  0.05
Info: FEP INTRA-ALCHEMICAL NON-BONDED INTERACTIONS WILL BE RETAINED
Info: FEP INTRA-ALCHEMICAL BONDED INTERACTIONS WILL BE RETAINED
Info: FEP VDW SHIFTING COEFFICIENT 5
Info: FEP ELEC. ACTIVE FOR ANNIHILATED PARTICLES BETWEEN LAMBDA = 0 AND LAMBDA = 0.5
Info: FEP ELEC. ACTIVE FOR EXNIHILATED PARTICLES BETWEEN LAMBDA = 0.5 AND LAMBDA = 1
Info: FEP VDW ACTIVE FOR ANNIHILATED PARTICLES BETWEEN LAMBDA = 0 AND LAMBDA = 1
Info: FEP VDW ACTIVE FOR EXNIHILATED PARTICLES BETWEEN LAMBDA = 0 AND LAMBDA = 1
Info: FEP BOND ACTIVE FOR ANNIHILATED PARTICLES BETWEEN LAMBDA = 1 AND LAMBDA = 1
Info: FEP BOND ACTIVE FOR EXNIHILATED PARTICLES BETWEEN LAMBDA = 0 AND LAMBDA = 0
Info: LANGEVIN DYNAMICS ACTIVE
Info: LANGEVIN TEMPERATURE   300
Info: LANGEVIN USING BBK INTEGRATOR
Info: LANGEVIN DAMPING COEFFICIENT IS 1 INVERSE PS
Info: LANGEVIN DYNAMICS APPLIED TO HYDROGENS
Info: LANGEVIN PISTON PRESSURE CONTROL ACTIVE
Info:        TARGET PRESSURE IS 1.01325 BAR
Info:     OSCILLATION PERIOD IS 50 FS
Info:             DECAY TIME IS 25 FS
Info:     PISTON TEMPERATURE IS 300 K
Info:       PRESSURE CONTROL IS GROUP-BASED
Info:    INITIAL STRAIN RATE IS 0.000417078 0.000417078 0.000417078
Info:       CELL FLUCTUATION IS ISOTROPIC
Info: PARTICLE MESH EWALD (PME) ACTIVE
Info: PME TOLERANCE               1e-06
Info: PME EWALD COEFFICIENT       0.348832
Info: PME INTERPOLATION ORDER     4
Info: PME GRID DIMENSIONS         32 32 32
Info: PME MAXIMUM GRID SPACING    1
Info: PME CALCULATION WILL BE PERFORMED ON GPU
Info: FULL ELECTROSTATIC EVALUATION FREQUENCY      2
Info: USING VERLET I (r-RESPA) MTS SCHEME.
Info: C1 SPLITTING OF LONG RANGE ELECTROSTATICS
Info: PLACING ATOMS IN PATCHES BY HYDROGEN GROUPS
Info: RIGID BONDS TO HYDROGEN : ALL
Info:         ERROR TOLERANCE : 1e-08
Info:          MAX ITERATIONS : 100
Info: RIGID WATER USING SETTLE ALGORITHM
Info: RANDOM NUMBER SEED     1743914860
Info: USE HYDROGEN BONDS?    NO
Info: Using AMBER format force field!
Info: AMBER PARM FILE        mobley_8525830.prmtop
Info: COORDINATE PDB         mobley_8525830.pdb
Info: Exclusions will be read from PARM file!
Info: SCNB (VDW SCALING)     2
Info: USING ARITHMETIC MEAN TO COMBINE L-J SIGMA PARAMETERS
Info: BINARY COORDINATES     mobley_8525830_equil.coor
Info: SUMMARY OF PARAMETERS:
Info: 6 BONDS
Info: 7 ANGLES
Info:   7 HARMONIC
Info:   0 COSINE-BASED
Info: 6 DIHEDRAL
Info: 0 IMPROPER
Info: 0 CROSSTERM
Info: 0 VDW
Info: 21 VDW_PAIRS
Info: 0 NBTHOLE_PAIRS
Info: To read alchdata from file: mobley_8525830.pdb
Info: To read alchflag data from column: 5
Info: STRUCTURE SUMMARY:
Info: 2906 ATOMS
Info: 2905 BONDS
Info: 30 ANGLES
Info: 40 DIHEDRALS
Info: 0 IMPROPERS
Info: 0 CROSSTERMS
Info: 2971 EXCLUSIONS
Info: 2900 RIGID BONDS
Info: ALCH: 0 ATOMS TO DISAPPEAR IN FINAL STATE
Info: ALCH: 17 ATOMS TO APPEAR IN FINAL STATE
Info: 5818 DEGREES OF FREEDOM
Info: 969 HYDROGEN GROUPS
Info: 4 ATOMS IN LARGEST HYDROGEN GROUP
Info: 969 MIGRATION GROUPS
Info: 4 ATOMS IN LARGEST MIGRATION GROUP
Info: TOTAL MASS = 17547.4 amu
Info: TOTAL CHARGE = 0.000299998 e
Info: MASS DENSITY = 0.966366 g/cm^3
Info: ATOM DENSITY = 0.0963749 atoms/A^3
Info: ADDED 0 IMPLICIT EXCLUSIONS
Info: NONBONDED TABLE R-SQUARED SPACING: 0.0625
Info: NONBONDED TABLE SIZE: 705 POINTS
Info: REMOVING COM VELOCITY -0.000887628 -0.0157181 -0.0194849
Info: Use 3D box decompostion in PME FFT.
Info: Updated CUDA force table with 4096 elements.
Info: Updated CUDA LJ table with 6 x 6 elements.
Info: Found 20 unique exclusion lists needing 52 bytes
TCL: Running for 1500000 steps
ETITLE: TS BOND ANGLE DIHED IMPRP ELECT VDW BOUNDARY MISC KINETIC TOTAL TEMP POTENTIAL TOTALAVG TEMPAVG PRESSURE GPRESSURE VOLUME PRESSAVG GPRESSAVG
ENERGY: 0 3.1328 9.6123 4.7855 0.0000 -10501.8001 1414.1170 0.0000 0.0000 1720.0242 -7350.1283 297.5440 -9070.1525 -7350.1283 297.5440 -108.0947 -11.9079 30153.0752 -108.0947 -11.9079
ENERGY: 300000 0.7968 7.3391 1.7953 0.0000 -10378.4328 1326.9453 0.0000 0.0000 1724.5692 -7316.9871 298.3302 -9041.5563 -7343.6546 301.6021 -671.9252 -644.2354 29823.5347 -426.5152 -367.5200
ENERGY: 600000 0.7960 7.4918 1.8846 0.0000 -10468.3501 1400.7450 0.0000 0.0000 1689.7077 -7367.7250 292.2996 -9057.4327 -7341.8081 301.4157 -236.6768 -187.5755 30519.1849 -193.2076 -145.9480
ENERGY: 900000 0.4659 5.2176 1.6780 0.0000 -10681.7094 1545.2431 0.0000 0.0000 1710.6114 -7418.4933 295.9157 -9129.1048 -7357.6990 299.5503 890.8235 1007.9866 29574.1549 -25.6521 26.1870
ENERGY: 1200000 1.6968 8.6944 3.2724 0.0000 -10472.3196 1409.6813 0.0000 0.0000 1745.3815 -7303.5933 301.9305 -9048.9748 -7347.3075 299.9513 -296.9655 -206.2079 30440.1355 -76.4714 -26.3887
ENERGY: 1500000 0.8863 7.1102 1.9555 0.0000 -10608.1858 1488.0475 0.0000 0.0000 1758.1538 -7352.0325 304.1400 -9110.1863 -7351.0646 300.4100 862.4524 902.2159 29086.7030 27.0655 76.3454
TCL: Running FEP window   2: Lambda1 0.05   Lambda2 0.1    [dLambda 0.05  ]
TCL: Setting parameter firsttimestep to 0
TCL: Setting parameter alchLambda to 0.05
Info: NONBONDED TABLE R-SQUARED SPACING: 0.0625
Info: NONBONDED TABLE SIZE: 705 POINTS
TCL: Setting parameter alchLambda2 to 0.1
Info: NONBONDED TABLE R-SQUARED SPACING: 0.0625
Info: NONBONDED TABLE SIZE: 705 POINTS
TCL: Running for 1500000 steps
ETITLE: TS BOND ANGLE DIHED IMPRP ELECT VDW BOUNDARY MISC KINETIC TOTAL TEMP POTENTIAL TOTALAVG TEMPAVG PRESSURE GPRESSURE VOLUME PRESSAVG GPRESSAVG
ENERGY: 0 0.8863 7.1102 1.9555 0.0000 -10608.1862 1489.9707 0.0000 0.0000 1757.2891 -7350.9744 303.9904 -9108.2635 -7350.9744 303.9904 825.4541 911.4645 29086.7030 825.4541 911.4645
ENERGY: 300000 4.3650 7.2078 3.0647 0.0000 -10597.9724 1441.7276 0.0000 0.0000 1722.5418 -7419.0656 297.9795 -9141.6074 -7410.0293 298.9222 60.8724 87.1327 29685.1484 -71.4779 -14.6933
ENERGY: 600000 1.4895 7.9606 1.5095 0.0000 -10581.3503 1422.6062 0.0000 0.0000 1713.8938 -7433.8905 296.4835 -9147.7843 -7419.2770 297.6645 -152.0991 -107.4151 29663.9454 23.3980 77.9286
ENERGY: 900000 3.6268 4.8116 3.1277 0.0000 -10541.6619 1409.9893 0.0000 0.0000 1804.1734 -7315.9331 312.1008 -9120.1065 -7399.6821 299.4813 -321.1139 -249.5917 29835.1216 -85.6537 -33.2148
ENERGY: 1200000 2.1848 11.0822 1.1444 0.0000 -10628.2860 1448.9038 0.0000 0.0000 1742.7704 -7422.2005 301.4788 -9164.9708 -7399.5447 299.1934 -37.8811 69.2919 29684.1573 -146.8739 -88.5786
ENERGY: 1500000 2.4895 8.9681 3.8171 0.0000 -10637.9242 1431.9534 0.0000 0.0000 1774.5913 -7416.1049 306.9835 -9190.6962 -7387.4693 300.8800 -198.2336 -109.8653 29772.4982 -117.6728 -57.6239
TCL: Running FEP window   3: Lambda1 0.1    Lambda2 0.15000000000000002 [dLambda 0.05000000000000002]
TCL: Setting parameter firsttimestep to 0
TCL: Setting parameter alchLambda to 0.1
Info: NONBONDED TABLE R-SQUARED SPACING: 0.0625
Info: NONBONDED TABLE SIZE: 705 POINTS
TCL: Setting parameter alchLambda2 to 0.15000000000000002
Info: NONBONDED TABLE R-SQUARED SPACING: 0.0625
Info: NONBONDED TABLE SIZE: 705 POINTS
TCL: Running for 1500000 steps
ETITLE: TS BOND ANGLE DIHED IMPRP ELECT VDW BOUNDARY MISC KINETIC TOTAL TEMP POTENTIAL TOTALAVG TEMPAVG PRESSURE GPRESSURE VOLUME PRESSAVG GPRESSAVG
ENERGY: 0 2.4895 8.9681 3.8171 0.0000 -10637.9254 1433.8751 0.0000 0.0000 1773.7016 -7415.0740 306.8296 -9188.7756 -7415.0740 306.8296 -178.9423 -99.4508 29772.4982 -178.9423 -99.4508
ENERGY: 300000 1.0447 11.5005 4.6554 0.0000 -10304.6039 1276.0447 0.0000 0.0000 1750.3825 -7260.9761 302.7956 -9011.3585 -7339.1083 301.9334 -1092.7136 -983.6260 29938.2776 -653.7280 -589.0247
ENERGY: 600000 1.4967 7.7986 1.8086 0.0000 -10505.3206 1406.9860 0.0000 0.0000 1756.7304 -7330.5005 303.8938 -9087.2308 -7332.3000 304.5619 -64.2298 -26.6265 29634.9149 -431.8200 -375.1993
ENERGY: 900000 1.6204 6.9258 1.3711 0.0000 -10454.2085 1377.1231 0.0000 0.0000 1777.2072 -7289.9609 307.4360 -9067.1681 -7336.3713 303.7409 -360.9114 -315.2342 30036.8087 -375.9504 -316.1363
ENERGY: 1200000 3.6645 6.6495 2.3164 0.0000 -10566.8286 1438.0302 0.0000 0.0000 1719.2089 -7396.9591 297.4030 -9116.1680 -7337.6091 303.2922 162.8988 166.9960 29736.7820 -316.6987 -261.2171
ENERGY: 1500000 0.7563 7.9477 5.0334 0.0000 -10452.4396 1413.0845 0.0000 0.0000 1740.6565 -7284.9612 301.1132 -9025.6177 -7333.9979 302.5081 14.1856 56.5928 29845.8424 -296.3500 -236.3164
TCL: Running FEP window   4: Lambda1 0.15000000000000002 Lambda2 0.2    [dLambda 0.04999999999999999]
TCL: Setting parameter firsttimestep to 0
TCL: Setting parameter alchLambda to 0.15000000000000002
Info: NONBONDED TABLE R-SQUARED SPACING: 0.0625
Info: NONBONDED TABLE SIZE: 705 POINTS
TCL: Setting parameter alchLambda2 to 0.2
Info: NONBONDED TABLE R-SQUARED SPACING: 0.0625
Info: NONBONDED TABLE SIZE: 705 POINTS
TCL: Running for 1500000 steps
ETITLE: TS BOND ANGLE DIHED IMPRP ELECT VDW BOUNDARY MISC KINETIC TOTAL TEMP POTENTIAL TOTALAVG TEMPAVG PRESSURE GPRESSURE VOLUME PRESSAVG GPRESSAVG
ENERGY: 0 0.7563 7.9477 5.0334 0.0000 -10452.4399 1413.7778 0.0000 0.0000 1739.7982 -7285.1265 300.9647 -9024.9247 -7285.1265 300.9647 -1.9353 64.1362 29845.8424 -1.9353 64.1362
ENERGY: 300000 2.3672 5.9962 1.5817 0.0000 -10532.9832 1395.5282 0.0000 0.0000 1767.7332 -7359.7767 305.7971 -9127.5100 -7351.1404 301.4519 -152.4359 -59.0481 29365.6019 -14.7652 73.6532
ENERGY: 600000 2.4481 8.5117 1.4442 0.0000 -10426.7322 1360.2279 0.0000 0.0000 1789.5892 -7264.5110 309.5779 -9054.1002 -7340.3363 300.1517 -579.5851 -472.7725 30066.0610 -184.7733 -101.0473
ENERGY: 900000 1.2666 10.7247 1.8909 0.0000 -10537.9139 1487.7103 0.0000 0.0000 1751.1392 -7285.1822 302.9266 -9036.3214 -7329.0154 302.1789 709.6298 781.9825 29547.6497 -107.4467 -33.6919
ENERGY: 1200000 1.7040 8.7792 4.0638 0.0000 -10663.4043 1450.0328 0.0000 0.0000 1721.3602 -7477.4643 297.7751 -9198.8245 -7345.3712 300.9081 0.6194 113.5155 29520.5504 -64.5843 10.8818
ENERGY: 1500000 0.2119 9.4271 2.7421 0.0000 -10543.4957 1408.0425 0.0000 0.0000 1716.3222 -7406.7500 296.9036 -9123.0721 -7343.8282 301.0004 -117.2778 -71.5576 29646.2325 -86.5840 -14.3783
TCL: Running FEP window   5: Lambda1 0.2    Lambda2 0.25   [dLambda 0.04999999999999999]
TCL: Setting parameter firsttimestep to 0
TCL: Setting parameter alchLambda to 0.2
Info: NONBONDED TABLE R-SQUARED SPACING: 0.0625
Info: NONBONDED TABLE SIZE: 705 POINTS
TCL: Setting parameter alchLambda2 to 0.25
Info: NONBONDED TABLE R-SQUARED SPACING: 0.0625
Info: NONBONDED TABLE SIZE: 705 POINTS
TCL: Running for 1500000 steps
ETITLE: TS BOND ANGLE DIHED IMPRP ELECT VDW BOUNDARY MISC KINETIC TOTAL TEMP POTENTIAL TOTALAVG TEMPAVG PRESSURE GPRESSURE VOLUME PRESSAVG GPRESSAVG
ENERGY: 0 0.2119 9.4271 2.7421 0.0000 -10543.4973 1407.8623 0.0000 0.0000 1715.4680 -7407.7859 296.7559 -9123.2539 -7407.7859 296.7559 -154.3925 -68.5216 29646.2325 -154.3925 -68.5216
ENERGY: 300000 1.3149 8.8558 2.5744 0.0000 -10453.8694 1337.5454 0.0000 0.0000 1672.5607 -7431.0182 289.3334 -9103.5789 -7386.1909 296.3162 -696.3453 -548.6697 29644.3120 -171.4232 -63.5162
ENERGY: 600000 0.2058 10.5826 1.5771 0.0000 -10541.3354 1446.5238 0.0000 0.0000 1696.9638 -7385.4822 293.5548 -9082.4460 -7363.5801 297.1517 -17.4720 78.4447 30263.1398 -168.0797 -78.9542
ENERGY: 900000 1.1357 8.8545 1.8390 0.0000 -10417.9718 1322.9366 0.0000 0.0000 1742.2439 -7340.9621 301.3878 -9083.2060 -7357.9487 297.9681 -599.9275 -482.2465 29427.0914 -228.9217 -139.9335
ENERGY: 1200000 3.3874 6.1101 1.6525 0.0000 -10562.3718 1383.5021 0.0000 0.0000 1757.4610 -7410.2587 304.0202 -9167.7197 -7358.8104 299.1353 -311.0286 -301.9193 29719.0603 -230.3137 -147.6000
ENERGY: 1500000 0.1556 10.3615 2.2372 0.0000 -10526.2295 1430.4888 0.0000 0.0000 1753.8817 -7329.1048 303.4010 -9082.9865 -7355.3811 300.1168 59.8644 149.6265 29954.0274 -103.8551 -22.1288
TCL: Running FEP window   6: Lambda1 0.25   Lambda2 0.3    [dLambda 0.04999999999999999]
TCL: Setting parameter firsttimestep to 0
TCL: Setting parameter alchLambda to 0.25
Info: NONBONDED TABLE R-SQUARED SPACING: 0.0625
Info: NONBONDED TABLE SIZE: 705 POINTS
TCL: Setting parameter alchLambda2 to 0.3
Info: NONBONDED TABLE R-SQUARED SPACING: 0.0625
Info: NONBONDED TABLE SIZE: 705 POINTS
TCL: Running for 1500000 steps
ETITLE: TS BOND ANGLE DIHED IMPRP ELECT VDW BOUNDARY MISC KINETIC TOTAL TEMP POTENTIAL TOTALAVG TEMPAVG PRESSURE GPRESSURE VOLUME PRESSAVG GPRESSAVG
ENERGY: 0 0.1556 10.3615 2.2372 0.0000 -10526.2290 1430.2819 0.0000 0.0000 1753.0650 -7330.1279 303.2597 -9083.1928 -7330.1279 303.2597 50.7119 151.4370 29954.0274 50.7119 151.4370
ENERGY: 300000 1.7445 11.2209 1.5617 0.0000 -10549.3571 1473.9597 0.0000 0.0000 1741.6852 -7319.1850 301.2911 -9060.8702 -7334.8971 304.3549 676.5213 758.5930 29288.3415 -19.9731 51.3932
ENERGY: 600000 1.1621 8.0127 2.6342 0.0000 -10479.4139 1389.7206 0.0000 0.0000 1740.8236 -7337.0607 301.1421 -9077.8843 -7340.8404 304.1356 -1.3351 52.1299 29437.5541 62.7610 143.0788
ENERGY: 900000 0.9841 8.1430 1.5027 0.0000 -10431.3772 1398.1819 0.0000 0.0000 1730.0020 -7292.5636 299.2701 -9022.5656 -7328.5537 304.1171 -28.0797 85.4615 30012.3402 -57.7486 27.9021
ENERGY: 1200000 0.7800 7.5368 1.2922 0.0000 -10524.6461 1399.4324 0.0000 0.0000 1736.7641 -7378.8406 300.4398 -9115.6047 -7335.6318 303.1455 -280.7588 -184.5971 30046.0665 -72.1078 8.1202
ENERGY: 1500000 1.4454 5.5137 3.7891 0.0000 -10387.0743 1344.4865 0.0000 0.0000 1766.5564 -7265.2832 305.5935 -9031.8396 -7343.9987 301.5779 -284.3425 -279.3128 29892.2335 -91.1859 -17.3457
TCL: Running FEP window   7: Lambda1 0.3    Lambda2 0.35   [dLambda 0.04999999999999999]
TCL: Setting parameter firsttimestep to 0
TCL: Setting parameter alchLambda to 0.3
Info: NONBONDED TABLE R-SQUARED SPACING: 0.0625
Info: NONBONDED TABLE SIZE: 705 POINTS
TCL: Setting parameter alchLambda2 to 0.35
Info: NONBONDED TABLE R-SQUARED SPACING: 0.0625
Info: NONBONDED TABLE SIZE: 705 POINTS
TCL: Running for 1500000 steps
ETITLE: TS BOND ANGLE DIHED IMPRP ELECT VDW BOUNDARY MISC KINETIC TOTAL TEMP POTENTIAL TOTALAVG TEMPAVG PRESSURE GPRESSURE VOLUME PRESSAVG GPRESSAVG
ENERGY: 0 1.4454 5.5137 3.7891 0.0000 -10387.0756 1345.0549 0.0000 0.0000 1765.6915 -7265.5811 305.4439 -9031.2726 -7265.5811 305.4439 -345.0491 -269.9829 29892.2335 -345.0491 -269.9829
ENERGY: 300000 1.5108 6.7677 2.2523 0.0000 -10720.9706 1529.1403 0.0000 0.0000 1726.9940 -7454.3054 298.7497 -9181.2994 -7359.3155 297.5964 629.7119 722.6216 29696.4456 305.8727 404.9579
ENERGY: 600000 1.3496 10.1138 0.9436 0.0000 -10573.0547 1445.2043 0.0000 0.0000 1755.1042 -7360.3392 303.6124 -9115.4435 -7373.8968 297.8981 348.1686 422.8940 29328.7184 258.3655 340.3235
ENERGY: 900000 2.8799 5.2568 1.6946 0.0000 -10380.0880 1292.4087 0.0000 0.0000 1712.2470 -7365.6010 296.1987 -9077.8480 -7363.8358 297.8058 -859.3775 -864.5845 29701.0124 -56.3488 16.0682
ENERGY: 1200000 4.5282 9.4876 2.9721 0.0000 -10516.7012 1400.0335 0.0000 0.0000 1733.6571 -7366.0226 299.9023 -9099.6797 -7357.8746 298.5473 -316.0430 -290.2880 29502.6985 -21.1136 42.4442
ENERGY: 1500000 1.7177 9.6822 2.6057 0.0000 -10477.0249 1355.8111 0.0000 0.0000 1746.5307 -7360.6775 302.1293 -9107.2082 -7361.2627 298.0646 -439.5910 -348.8841 29592.4025 -77.0210 -7.9143
TCL: Running FEP window   8: Lambda1 0.35   Lambda2 0.39999999999999997 [dLambda 0.04999999999999999]
TCL: Setting parameter firsttimestep to 0
TCL: Setting parameter alchLambda to 0.35
Info: NONBONDED TABLE R-SQUARED SPACING: 0.0625
Info: NONBONDED TABLE SIZE: 705 POINTS
TCL: Setting parameter alchLambda2 to 0.39999999999999997
Info: NONBONDED TABLE R-SQUARED SPACING: 0.0625
Info: NONBONDED TABLE SIZE: 705 POINTS
TCL: Running for 1500000 steps
ETITLE: TS BOND ANGLE DIHED IMPRP ELECT VDW BOUNDARY MISC KINETIC TOTAL TEMP POTENTIAL TOTALAVG TEMPAVG PRESSURE GPRESSURE VOLUME PRESSAVG GPRESSAVG
ENERGY: 0 1.7177 9.6822 2.6057 0.0000 -10477.0251 1355.7733 0.0000 0.0000 1745.7006 -7361.5456 301.9857 -9107.2462 -7361.5456 301.9857 -426.1486 -342.8405 29592.4025 -426.1486 -342.8405
ENERGY: 300000 1.5347 7.6634 1.4304 0.0000 -10542.6619 1465.0513 0.0000 0.0000 1764.1976 -7302.7845 305.1855 -9066.9820 -7344.2695 302.0141 324.8262 432.5152 30186.3593 -121.2317 -48.5050
ENERGY: 600000 0.9431 6.3804 3.5216 0.0000 -10549.6887 1406.0952 0.0000 0.0000 1808.7164 -7324.0319 312.8867 -9132.7484 -7335.1305 303.5510 31.2889 57.8516 29744.7608 -22.5348 37.4106
ENERGY: 900000 1.5768 7.2432 3.6504 0.0000 -10560.5034 1407.9241 0.0000 0.0000 1740.1600 -7399.9489 301.0273 -9140.1089 -7342.0332 302.6598 -360.0580 -253.4202 29951.7628 -22.4280 40.1053
ENERGY: 1200000 2.5897 8.5737 2.3173 0.0000 -10669.5247 1557.9943 0.0000 0.0000 1737.6279 -7360.4217 300.5893 -9098.0496 -7351.6743 302.2306 1319.7162 1394.4682 29626.7596 27.1388 95.1548
ENERGY: 1500000 0.4582 8.6387 1.4792 0.0000 -10623.5410 1515.3474 0.0000 0.0000 1717.4889 -7380.1287 297.1054 -9097.6175 -7359.5346 300.4089 764.3936 806.2529 29577.8883 21.3850 87.6735
TCL: Running FEP window   9: Lambda1 0.39999999999999997 Lambda2 0.44999999999999996 [dLambda 0.04999999999999999]
TCL: Setting parameter firsttimestep to 0
TCL: Setting parameter alchLambda to 0.39999999999999997
Info: NONBONDED TABLE R-SQUARED SPACING: 0.0625
Info: NONBONDED TABLE SIZE: 705 POINTS
TCL: Setting parameter alchLambda2 to 0.44999999999999996
Info: NONBONDED TABLE R-SQUARED SPACING: 0.0625
Info: NONBONDED TABLE SIZE: 705 POINTS
TCL: Running for 1500000 steps
ETITLE: TS BOND ANGLE DIHED IMPRP ELECT VDW BOUNDARY MISC KINETIC TOTAL TEMP POTENTIAL TOTALAVG TEMPAVG PRESSURE GPRESSURE VOLUME PRESSAVG GPRESSAVG
ENERGY: 0 0.4582 8.6387 1.4792 0.0000 -10623.5404 1515.3093 0.0000 0.0000 1716.6607 -7380.9943 296.9622 -9097.6550 -7380.9943 296.9622 732.2857 812.1701 29577.8883 732.2857 812.1701
ENERGY: 300000 2.1532 4.4051 2.2523 0.0000 -10570.7833 1401.4810 0.0000 0.0000 1716.6831 -7443.8086 296.9660 -9160.4917 -7411.7841 296.1186 -210.8562 -190.1787 29766.8067 -16.1500 24.9426
ENERGY: 600000 0.9472 7.4378 2.8049 0.0000 -10481.6544 1431.2835 0.0000 0.0000 1698.2084 -7340.9727 293.7701 -9039.1811 -7375.9314 296.6881 201.3334 246.4219 30285.8785 92.5941 137.1637
ENERGY: 900000 0.3306 10.4139 1.2643 0.0000 -10599.6186 1426.7596 0.0000 0.0000 1738.4746 -7422.3757 300.7357 -9160.8503 -7364.7263 297.0338 25.8970 153.3082 29417.5470 168.2947 222.2537
ENERGY: 1200000 0.5269 4.9030 2.0587 0.0000 -10571.9503 1471.7354 0.0000 0.0000 1733.4700 -7359.2562 299.8700 -9092.7263 -7369.1673 296.6504 395.7192 476.8826 30075.9402 221.7612 281.0632
ENERGY: 1500000 2.4660 6.5327 1.1269 0.0000 -10654.8584 1431.2556 0.0000 0.0000 1742.3422 -7471.1349 301.4048 -9213.4771 -7369.1958 296.9743 -42.1026 80.1573 29245.4806 180.8951 238.2493
TCL: Running FEP window  10: Lambda1 0.44999999999999996 Lambda2 0.49999999999999994 [dLambda 0.04999999999999999]
TCL: Setting parameter firsttimestep to 0
TCL: Setting parameter alchLambda to 0.44999999999999996
Info: NONBONDED TABLE R-SQUARED SPACING: 0.0625
Info: NONBONDED TABLE SIZE: 705 POINTS
TCL: Setting parameter alchLambda2 to 0.49999999999999994
Info: NONBONDED TABLE R-SQUARED SPACING: 0.0625
Info: NONBONDED TABLE SIZE: 705 POINTS
TCL: Running for 1500000 steps
ETITLE: TS BOND ANGLE DIHED IMPRP ELECT VDW BOUNDARY MISC KINETIC TOTAL TEMP POTENTIAL TOTALAVG TEMPAVG PRESSURE GPRESSURE VOLUME PRESSAVG GPRESSAVG
ENERGY: 0 2.4660 6.5327 1.1269 0.0000 -10654.8595 1430.8881 0.0000 0.0000 1741.5063 -7472.3394 301.2602 -9213.8457 -7472.3394 301.2602 -8.1029 83.1019 29245.4806 -8.1029 83.1019
ENERGY: 300000 4.0961 5.7740 2.1526 0.0000 -10490.7612 1426.7877 0.0000 0.0000 1744.3895 -7307.5613 301.7589 -9051.9508 -7339.7588 304.1975 241.2212 325.0185 29886.4796 -80.7720 -13.6959
ENERGY: 600000 0.6968 6.6184 2.3155 0.0000 -10497.8762 1404.2752 0.0000 0.0000 1697.8321 -7386.1383 293.7050 -9083.9704 -7362.6520 300.7639 -23.9759 54.7828 29634.0792 14.7171 78.3123
ENERGY: 900000 0.6222 6.1049 1.6803 0.0000 -10711.7546 1568.3692 0.0000 0.0000 1754.7946 -7380.1833 303.5589 -9134.9779 -7360.2897 300.8633 1182.5895 1288.2484 29467.8211 59.8167 129.3570
ENERGY: 1200000 1.8932 6.6334 2.2803 0.0000 -10590.7461 1420.2644 0.0000 0.0000 1723.5561 -7436.1187 298.1550 -9159.6748 -7374.3100 298.9946 -57.7717 14.5025 29749.2808 -27.9683 41.2459
ENERGY: 1500000 2.0765 8.4226 3.2067 0.0000 -10550.0645 1401.6901 0.0000 0.0000 1664.6918 -7469.9768 287.9722 -9134.6686 -7386.6042 297.3724 -461.3104 -346.3997 30129.2559 -9.5917 63.0347
TCL: Running FEP window  11: Lambda1 0.49999999999999994 Lambda2 0.5499999999999999 [dLambda 0.04999999999999999]
TCL: Setting parameter firsttimestep to 0
TCL: Setting parameter alchLambda to 0.49999999999999994
Info: NONBONDED TABLE R-SQUARED SPACING: 0.0625
Info: NONBONDED TABLE SIZE: 705 POINTS
TCL: Setting parameter alchLambda2 to 0.5499999999999999
Info: NONBONDED TABLE R-SQUARED SPACING: 0.0625
Info: NONBONDED TABLE SIZE: 705 POINTS
TCL: Running for 1500000 steps
ETITLE: TS BOND ANGLE DIHED IMPRP ELECT VDW BOUNDARY MISC KINETIC TOTAL TEMP POTENTIAL TOTALAVG TEMPAVG PRESSURE GPRESSURE VOLUME PRESSAVG GPRESSAVG
ENERGY: 0 2.0765 8.4226 3.2067 0.0000 -10550.0635 1401.2672 0.0000 0.0000 1663.8209 -7471.2697 287.8215 -9135.0905 -7471.2697 287.8215 -422.4859 -344.8135 30129.2559 -422.4859 -344.8135
ENERGY: 300000 0.8603 6.4403 1.8631 0.0000 -10535.3671 1385.3716 0.0000 0.0000 1750.1906 -7390.6412 302.7624 -9140.8318 -7368.5989 301.3705 -492.9355 -471.8314 30089.4943 -100.6433 -48.8519
ENERGY: 600000 0.3645 6.6287 1.9684 0.0000 -10412.4067 1327.3465 0.0000 0.0000 1736.9880 -7339.1106 300.4786 -9076.0986 -7367.1032 300.6559 -522.6959 -431.4146 29628.4090 -199.9966 -142.8551
ENERGY: 900000 0.7752 5.1367 1.0171 0.0000 -10462.1796 1425.5007 0.0000 0.0000 1749.2145 -7280.5354 302.5936 -9029.7499 -7362.1060 301.2949 178.1647 241.1882 29998.3673 -30.4273 26.3203
ENERGY: 1200000 4.4654 8.1884 1.7492 0.0000 -10460.1655 1362.5237 0.0000 0.0000 1714.9798 -7368.2590 296.6714 -9083.2388 -7368.9071 300.8642 -413.8224 -447.8083 29883.5240 -17.4796 33.8028
ENERGY: 1500000 1.9847 4.4981 3.2565 0.0000 -10361.8639 1366.4228 0.0000 0.0000 1745.5485 -7240.1532 301.9594 -8985.7017 -7363.8116 300.9607 -77.2473 -18.3669 30028.3032 -22.3249 34.9570
TCL: Running FEP window  12: Lambda1 0.5499999999999999 Lambda2 0.6    [dLambda 0.050000000000000044]
TCL: Setting parameter firsttimestep to 0
TCL: Setting parameter alchLambda to 0.5499999999999999
Info: NONBONDED TABLE R-SQUARED SPACING: 0.0625
Info: NONBONDED TABLE SIZE: 705 POINTS
TCL: Setting parameter alchLambda2 to 0.6
Info: NONBONDED TABLE R-SQUARED SPACING: 0.0625
Info: NONBONDED TABLE SIZE: 705 POINTS
TCL: Running for 1500000 steps
ETITLE: TS BOND ANGLE DIHED IMPRP ELECT VDW BOUNDARY MISC KINETIC TOTAL TEMP POTENTIAL TOTALAVG TEMPAVG PRESSURE GPRESSURE VOLUME PRESSAVG GPRESSAVG
ENERGY: 0 1.9847 4.4981 3.2565 0.0000 -10361.9424 1366.9178 0.0000 0.0000 1744.6464 -7240.6388 301.8034 -8985.2853 -7240.6388 301.8034 -88.0333 -7.3676 30028.3032 -88.0333 -7.3676
ENERGY: 300000 1.5699 8.7357 2.2987 0.0000 -10506.5911 1410.5470 0.0000 0.0000 1777.7463 -7305.6935 307.5293 -9083.4397 -7356.0670 300.3545 -67.7669 -19.7263 29887.0001 85.5252 167.8983
ENERGY: 600000 1.0527 6.1011 2.4820 0.0000 -10602.5433 1437.5771 0.0000 0.0000 1739.5295 -7415.8010 300.9182 -9155.3305 -7374.5643 299.9882 234.5967 372.8056 29382.0608 104.5303 186.6609
ENERGY: 900000 4.4876 6.7566 2.5317 0.0000 -10538.6336 1438.3453 0.0000 0.0000 1729.8253 -7356.6872 299.2395 -9086.5124 -7367.1260 299.2634 -26.4096 47.0874 30239.4252 166.2173 242.6030
ENERGY: 1200000 0.9389 10.2728 1.3180 0.0000 -10413.2927 1419.3782 0.0000 0.0000 1733.4300 -7247.9547 299.8631 -8981.3848 -7356.3015 299.7490 201.7636 305.0294 29905.1800 199.3988 275.1855
ENERGY: 1500000 1.9298 9.0159 2.3614 0.0000 -10466.3886 1380.9708 0.0000 0.0000 1781.1513 -7290.9594 308.1183 -9072.1107 -7347.7260 300.0321 -434.5783 -361.1416 30135.1193 76.9994 153.0682
TCL: Running FEP window  13: Lambda1 0.6    Lambda2 0.65   [dLambda 0.050000000000000044]
TCL: Setting parameter firsttimestep to 0
TCL: Setting parameter alchLambda to 0.6
Info: NONBONDED TABLE R-SQUARED SPACING: 0.0625
Info: NONBONDED TABLE SIZE: 705 POINTS
TCL: Setting parameter alchLambda2 to 0.65
Info: NONBONDED TABLE R-SQUARED SPACING: 0.0625
Info: NONBONDED TABLE SIZE: 705 POINTS
TCL: Running for 1500000 steps
ETITLE: TS BOND ANGLE DIHED IMPRP ELECT VDW BOUNDARY MISC KINETIC TOTAL TEMP POTENTIAL TOTALAVG TEMPAVG PRESSURE GPRESSURE VOLUME PRESSAVG GPRESSAVG
ENERGY: 0 1.9298 9.0159 2.3614 0.0000 -10466.2925 1380.6357 0.0000 0.0000 1780.2850 -7292.0647 307.9684 -9072.3497 -7292.0647 307.9684 -440.7889 -355.4757 30135.1193 -440.7889 -355.4757
ENERGY: 300000 1.8980 9.9542 1.9059 0.0000 -10552.7764 1473.3212 0.0000 0.0000 1723.9147 -7341.7824 298.2170 -9065.6971 -7332.8673 300.4065 582.2940 716.0160 29694.5491 -85.4894 -4.3583
ENERGY: 600000 0.9969 8.4560 2.5720 0.0000 -10458.0494 1340.2269 0.0000 0.0000 1765.8744 -7339.9233 305.4756 -9105.7977 -7342.0816 301.7845 -774.2977 -670.9437 30387.7552 -48.8480 39.3130
ENERGY: 900000 0.9319 3.8037 1.3574 0.0000 -10487.1409 1435.8265 0.0000 0.0000 1700.9366 -7344.2848 294.2421 -9045.2214 -7332.5148 300.6990 55.1934 81.4585 30370.6049 -78.9983 5.6860
ENERGY: 1200000 1.6707 8.1118 2.7516 0.0000 -10615.7359 1432.3566 0.0000 0.0000 1700.0911 -7470.7541 294.0958 -9170.8452 -7351.7176 299.2686 129.4903 159.8019 29308.8479 -90.9000 -19.5421
ENERGY: 1500000 1.2790 11.0841 3.4246 0.0000 -10638.9052 1487.1839 0.0000 0.0000 1740.1158 -7395.8179 301.0196 -9135.9337 -7352.3050 300.0732 493.7905 552.1922 29919.4446 -88.9486 -12.6707
TCL: Running FEP window  14: Lambda1 0.65   Lambda2 0.7000000000000001 [dLambda 0.050000000000000044]
TCL: Setting parameter firsttimestep to 0
TCL: Setting parameter alchLambda to 0.65
Info: NONBONDED TABLE R-SQUARED SPACING: 0.0625
Info: NONBONDED TABLE SIZE: 705 POINTS
TCL: Setting parameter alchLambda2 to 0.7000000000000001
Info: NONBONDED TABLE R-SQUARED SPACING: 0.0625
Info: NONBONDED TABLE SIZE: 705 POINTS
TCL: Running for 1500000 steps
ETITLE: TS BOND ANGLE DIHED IMPRP ELECT VDW BOUNDARY MISC KINETIC TOTAL TEMP POTENTIAL TOTALAVG TEMPAVG PRESSURE GPRESSURE VOLUME PRESSAVG GPRESSAVG
ENERGY: 0 1.2790 11.0841 3.4246 0.0000 -10639.2229 1486.6909 0.0000 0.0000 1739.2479 -7397.4965 300.8695 -9136.7444 -7397.4965 300.8695 461.6773 555.0913 29919.4446 461.6773 555.0913
ENERGY: 300000 0.4608 9.0946 2.0330 0.0000 -10416.2280 1363.8747 0.0000 0.0000 1776.4036 -7264.3612 307.2970 -9040.7648 -7313.0413 305.0475 -9.3186 9.9405 29657.9778 88.3715 154.2572
ENERGY: 600000 2.0638 5.0933 1.4170 0.0000 -10442.9728 1413.7478 0.0000 0.0000 1719.5009 -7301.1500 297.4535 -9020.6509 -7317.5661 302.2296 -28.2428 65.5495 30263.0229 -129.3248 -62.8413
ENERGY: 900000 1.1221 7.1622 1.6312 0.0000 -10553.8171 1364.7647 0.0000 0.0000 1677.2735 -7501.8635 290.1486 -9179.1370 -7333.2781 301.2269 -623.6938 -551.4234 29879.3517 -195.5940 -129.2593
ENERGY: 1200000 1.0160 4.1165 1.1552 0.0000 -10483.4004 1403.3695 0.0000 0.0000 1715.7402 -7358.0030 296.8029 -9073.7432 -7333.3605 301.5364 -110.9801 -64.3563 30135.9636 -107.0146 -46.3486
ENERGY: 1500000 1.6274 7.3311 2.2338 0.0000 -10617.0849 1447.1061 0.0000 0.0000 1737.7593 -7421.0273 300.6120 -9158.7866 -7340.2030 301.1925 -21.4285 52.5085 29814.4031 -142.1362 -75.1391
TCL: Running FEP window  15: Lambda1 0.7000000000000001 Lambda2 0.7500000000000001 [dLambda 0.050000000000000044]
TCL: Setting parameter firsttimestep to 0
TCL: Setting parameter alchLambda to 0.7000000000000001
Info: NONBONDED TABLE R-SQUARED SPACING: 0.0625
Info: NONBONDED TABLE SIZE: 705 POINTS
TCL: Setting parameter alchLambda2 to 0.7500000000000001
Info: NONBONDED TABLE R-SQUARED SPACING: 0.0625
Info: NONBONDED TABLE SIZE: 705 POINTS
TCL: Running for 1500000 steps
ETITLE: TS BOND ANGLE DIHED IMPRP ELECT VDW BOUNDARY MISC KINETIC TOTAL TEMP POTENTIAL TOTALAVG TEMPAVG PRESSURE GPRESSURE VOLUME PRESSAVG GPRESSAVG
ENERGY: 0 1.6274 7.3311 2.2338 0.0000 -10616.9778 1448.4927 0.0000 0.0000 1736.8957 -7420.3971 300.4626 -9157.2928 -7420.3971 300.4626 -17.1331 77.5560 29814.4031 -17.1331 77.5560
ENERGY: 300000 1.5215 5.1040 1.9410 0.0000 -10534.2683 1410.2063 0.0000 0.0000 1767.6758 -7347.8197 305.7872 -9115.4954 -7340.3194 299.5674 -90.1975 28.2138 30117.1854 -186.5004 -110.4600
ENERGY: 600000 1.2889 6.3180 1.5259 0.0000 -10472.7595 1376.9265 0.0000 0.0000 1739.3489 -7347.3512 300.8870 -9086.7002 -7337.2683 299.6581 -347.7506 -283.7159 30112.8783 -111.0340 -36.3843
ENERGY: 900000 1.9531 6.3181 2.5369 0.0000 -10627.4081 1542.7409 0.0000 0.0000 1684.7703 -7389.0888 291.4455 -9073.8592 -7348.5475 298.1223 1058.3060 1145.5173 29585.9818 25.5817 92.9174
ENERGY: 1200000 0.7554 5.3154 1.2008 0.0000 -10340.2634 1291.0994 0.0000 0.0000 1732.3770 -7309.5155 299.6809 -9041.8924 -7352.9371 298.2890 -974.5459 -886.1013 30322.5410 -102.7479 -36.4146
ENERGY: 1500000 1.9607 7.7332 2.1800 0.0000 -10518.6600 1413.4851 0.0000 0.0000 1729.6314 -7363.6696 299.2059 -9093.3010 -7353.2304 298.3465 -44.2953 75.3300 29740.8773 -70.0992 2.4357
TCL: Running FEP window  16: Lambda1 0.7500000000000001 Lambda2 0.8000000000000002 [dLambda 0.050000000000000044]
TCL: Setting parameter firsttimestep to 0
TCL: Setting parameter alchLambda to 0.7500000000000001
Info: NONBONDED TABLE R-SQUARED SPACING: 0.0625
Info: NONBONDED TABLE SIZE: 705 POINTS
TCL: Setting parameter alchLambda2 to 0.8000000000000002
Info: NONBONDED TABLE R-SQUARED SPACING: 0.0625
Info: NONBONDED TABLE SIZE: 705 POINTS
TCL: Running for 1500000 steps
ETITLE: TS BOND ANGLE DIHED IMPRP ELECT VDW BOUNDARY MISC KINETIC TOTAL TEMP POTENTIAL TOTALAVG TEMPAVG PRESSURE GPRESSURE VOLUME PRESSAVG GPRESSAVG
ENERGY: 0 1.9607 7.7332 2.1800 0.0000 -10518.7207 1413.5030 0.0000 0.0000 1728.7498 -7364.5940 299.0534 -9093.3438 -7364.5940 299.0534 3.9409 86.1713 29740.8773 3.9409 86.1713
ENERGY: 300000 0.7142 8.0625 1.9362 0.0000 -10591.6254 1465.8371 0.0000 0.0000 1740.3797 -7374.6957 301.0653 -9115.0754 -7344.8867 299.9512 593.9932 669.7457 29398.5767 -20.2028 48.9449
ENERGY: 600000 2.9274 8.3666 2.8306 0.0000 -10653.2218 1490.1620 0.0000 0.0000 1675.3159 -7473.6192 289.8100 -9148.9351 -7370.8446 296.4485 611.6432 642.5750 29414.4402 -134.6720 -68.6350
ENERGY: 900000 1.1855 8.5871 1.8547 0.0000 -10597.3628 1428.0066 0.0000 0.0000 1743.6680 -7414.0609 301.6341 -9157.7289 -7368.6078 297.1629 -128.2186 -27.0957 30099.4373 -94.0765 -17.6801
ENERGY: 1200000 1.2060 6.8731 2.0645 0.0000 -10572.8859 1486.7178 0.0000 0.0000 1748.2220 -7327.8025 302.4219 -9076.0245 -7368.7417 298.2262 598.8437 691.2494 30094.1047 -113.4283 -35.8028
ENERGY: 1500000 0.7717 6.8145 1.3628 0.0000 -10620.2295 1482.7941 0.0000 0.0000 1751.6444 -7376.8420 303.0139 -9128.4864 -7371.8750 299.0331 773.4742 815.5148 29446.2384 -44.0566 29.7829
TCL: Running FEP window  17: Lambda1 0.8000000000000002 Lambda2 0.8500000000000002 [dLambda 0.050000000000000044]
TCL: Setting parameter firsttimestep to 0
TCL: Setting parameter alchLambda to 0.8000000000000002
Info: NONBONDED TABLE R-SQUARED SPACING: 0.0625
Info: NONBONDED TABLE SIZE: 705 POINTS
TCL: Setting parameter alchLambda2 to 0.8500000000000002
Info: NONBONDED TABLE R-SQUARED SPACING: 0.0625
Info: NONBONDED TABLE SIZE: 705 POINTS
TCL: Running for 1500000 steps
ETITLE: TS BOND ANGLE DIHED IMPRP ELECT VDW BOUNDARY MISC KINETIC TOTAL TEMP POTENTIAL TOTALAVG TEMPAVG PRESSURE GPRESSURE VOLUME PRESSAVG GPRESSAVG
ENERGY: 0 0.7717 6.8145 1.3628 0.0000 -10620.4016 1483.3379 0.0000 0.0000 1750.7480 -7377.3667 302.8589 -9128.1147 -7377.3667 302.8589 753.6151 836.0750 29446.2384 753.6151 836.0750
ENERGY: 300000 0.5912 8.7655 2.5226 0.0000 -10550.5405 1397.6069 0.0000 0.0000 1725.4666 -7415.5877 298.4855 -9141.0543 -7393.5836 298.1903 -191.7735 -132.1599 29766.5961 426.7812 488.6585
ENERGY: 600000 2.3699 8.6674 1.2961 0.0000 -10433.6228 1351.0619 0.0000 0.0000 1761.9284 -7308.2991 304.7929 -9070.2275 -7375.3615 300.0546 -498.2247 -434.1104 30089.2631 96.1074 153.5325
ENERGY: 900000 1.9420 6.0803 1.1440 0.0000 -10561.1467 1440.3589 0.0000 0.0000 1711.6344 -7399.9871 296.0927 -9111.6215 -7381.3653 299.0480 373.5295 489.4189 29418.3303 55.1584 113.2187
ENERGY: 1200000 1.2559 7.4779 1.9419 0.0000 -10549.3939 1432.7608 0.0000 0.0000 1739.7708 -7366.1865 300.9599 -9105.9573 -7377.7068 299.0436 200.9488 225.3511 30142.0984 92.5618 144.4534
ENERGY: 1500000 1.5380 7.1445 3.2473 0.0000 -10456.5737 1334.2878 0.0000 0.0000 1740.7293 -7369.6268 301.1258 -9110.3561 -7367.9915 299.2681 -572.0330 -531.5831 29915.8151 33.7649 86.4608
TCL: Running FEP window  18: Lambda1 0.8500000000000002 Lambda2 0.9000000000000002 [dLambda 0.050000000000000044]
TCL: Setting parameter firsttimestep to 0
TCL: Setting parameter alchLambda to 0.8500000000000002
Info: NONBONDED TABLE R-SQUARED SPACING: 0.0625
Info: NONBONDED TABLE SIZE: 705 POINTS
TCL: Setting parameter alchLambda2 to 0.9000000000000002
Info: NONBONDED TABLE R-SQUARED SPACING: 0.0625
Info: NONBONDED TABLE SIZE: 705 POINTS
TCL: Running for 1500000 steps
ETITLE: TS BOND ANGLE DIHED IMPRP ELECT VDW BOUNDARY MISC KINETIC TOTAL TEMP POTENTIAL TOTALAVG TEMPAVG PRESSURE GPRESSURE VOLUME PRESSAVG GPRESSAVG
ENERGY: 0 1.5380 7.1445 3.2473 0.0000 -10456.6306 1334.0787 0.0000 0.0000 1739.8883 -7370.7337 300.9803 -9110.6220 -7370.7337 300.9803 -590.4171 -519.3283 29915.8151 -590.4171 -519.3283
ENERGY: 300000 1.1639 6.2406 1.5570 0.0000 -10569.4283 1386.8695 0.0000 0.0000 1763.7675 -7409.8299 305.1111 -9173.5973 -7359.7903 304.9561 -327.6660 -245.8372 29754.7715 223.8088 270.2345
ENERGY: 600000 0.5066 9.4203 1.8777 0.0000 -10522.4838 1419.9735 0.0000 0.0000 1711.7655 -7378.9401 296.1154 -9090.7056 -7353.1758 303.3111 -10.5289 -17.7075 30274.3793 169.0125 212.1168
ENERGY: 900000 3.8703 9.4580 2.4223 0.0000 -10484.4823 1414.8437 0.0000 0.0000 1768.0786 -7285.8093 305.8569 -9053.8879 -7351.1627 302.3687 51.5882 119.4803 29752.9199 158.2739 208.0285
ENERGY: 1200000 1.4090 7.2780 4.9489 0.0000 -10464.9238 1341.5259 0.0000 0.0000 1735.1348 -7374.6273 300.1580 -9109.7621 -7359.4427 301.2069 -579.2361 -426.4879 29708.1985 -99.0770 -36.8760
ENERGY: 1500000 0.3016 7.2402 1.7837 0.0000 -10481.3445 1415.2945 0.0000 0.0000 1735.4804 -7321.2440 300.2178 -9056.7244 -7354.4314 301.4289 53.2011 75.6675 30141.9760 -53.3635 6.6867
TCL: Running FEP window  19: Lambda1 0.9000000000000002 Lambda2 0.9500000000000003 [dLambda 0.050000000000000044]
TCL: Setting parameter firsttimestep to 0
TCL: Setting parameter alchLambda to 0.9000000000000002
Info: NONBONDED TABLE R-SQUARED SPACING: 0.0625
Info: NONBONDED TABLE SIZE: 705 POINTS
TCL: Setting parameter alchLambda2 to 0.9500000000000003
Info: NONBONDED TABLE R-SQUARED SPACING: 0.0625
Info: NONBONDED TABLE SIZE: 705 POINTS
TCL: Running for 1500000 steps
ETITLE: TS BOND ANGLE DIHED IMPRP ELECT VDW BOUNDARY MISC KINETIC TOTAL TEMP POTENTIAL TOTALAVG TEMPAVG PRESSURE GPRESSURE VOLUME PRESSAVG GPRESSAVG
ENERGY: 0 0.3017 7.2402 1.7837 0.0000 -10481.7164 1414.9173 0.0000 0.0000 1734.6090 -7322.8646 300.0670 -9057.4735 -7322.8646 300.0670 3.1689 82.8008 30141.9760 3.1689 82.8008
ENERGY: 300000 1.8256 7.3923 2.6591 0.0000 -10371.0035 1316.8448 0.0000 0.0000 1728.2433 -7314.0384 298.9658 -9042.2817 -7336.0614 297.3321 -817.0462 -797.3100 30548.7047 -289.8019 -230.9624
ENERGY: 600000 2.0771 8.3402 3.3231 0.0000 -10549.8549 1467.5022 0.0000 0.0000 1693.5173 -7375.0950 292.9586 -9068.6123 -7365.6808 295.0066 583.6258 631.4229 29705.5717 -166.0956 -105.1094
ENERGY: 900000 0.8887 6.5297 1.6593 0.0000 -10308.3312 1319.9354 0.0000 0.0000 1750.2584 -7229.0598 302.7742 -8979.3182 -7333.7453 296.5649 -294.2534 -214.2346 29888.7134 -139.4081 -78.8985
ENERGY: 1200000 0.6915 8.2019 1.2875 0.0000 -10446.3581 1326.8208 0.0000 0.0000 1755.5700 -7353.7866 303.6930 -9109.3565 -7343.8157 297.3490 -863.8733 -841.4431 30218.9099 -156.5889 -96.2233
ENERGY: 1500000 0.8484 10.0063 4.0416 0.0000 -10417.9906 1397.2579 0.0000 0.0000 1765.2915 -7240.5449 305.3747 -9005.8364 -7339.4626 298.8217 349.0127 374.6022 29850.9206 -113.3902 -53.7601
TCL: Running FEP window  20: Lambda1 0.9500000000000003 Lambda2 1.0    [dLambda 0.04999999999999971]
TCL: Setting parameter firsttimestep to 0
TCL: Setting parameter alchLambda to 0.9500000000000003
Info: NONBONDED TABLE R-SQUARED SPACING: 0.0625
Info: NONBONDED TABLE SIZE: 705 POINTS
TCL: Setting parameter alchLambda2 to 1.0
Info: NONBONDED TABLE R-SQUARED SPACING: 0.0625
Info: NONBONDED TABLE SIZE: 705 POINTS
TCL: Running for 1500000 steps
ETITLE: TS BOND ANGLE DIHED IMPRP ELECT VDW BOUNDARY MISC KINETIC TOTAL TEMP POTENTIAL TOTALAVG TEMPAVG PRESSURE GPRESSURE VOLUME PRESSAVG GPRESSAVG
ENERGY: 0 0.8484 10.0063 4.0416 0.0000 -10418.4960 1397.7123 0.0000 0.0000 1764.4372 -7241.4502 305.2270 -9005.8874 -7241.4502 305.2270 320.2191 398.0499 29850.9206 320.2191 398.0499
ENERGY: 300000 3.1973 5.6581 2.9176 0.0000 -10442.2824 1384.9108 0.0000 0.0000 1719.5515 -7326.0471 297.4623 -9045.5986 -7302.5014 305.1578 -105.8926 -21.3735 29837.3168 482.3353 529.3475
ENERGY: 600000 1.8996 7.4373 4.0023 0.0000 -10442.4391 1367.3575 0.0000 0.0000 1738.4492 -7323.2932 300.7313 -9061.7424 -7349.7350 301.5640 -298.5358 -202.2061 30091.0100 182.7796 240.9629
ENERGY: 900000 1.8875 4.9342 1.8492 0.0000 -10540.9007 1443.0852 0.0000 0.0000 1712.4076 -7376.7369 296.2264 -9089.1445 -7364.5105 299.1612 198.3865 227.0728 30261.6030 79.2105 134.6120
ENERGY: 1200000 0.5307 7.5989 1.1951 0.0000 -10462.9951 1420.4303 0.0000 0.0000 1742.0604 -7291.1798 301.3560 -9033.2401 -7357.4690 299.6899 345.6850 397.4356 29952.0513 87.8976 142.9200
ENERGY: 1500000 1.2015 10.5558 2.3262 0.0000 -10458.9678 1406.2259 0.0000 0.0000 1724.5806 -7314.0777 298.3322 -9038.6583 -7360.4331 299.0583 176.9520 239.4997 29870.5051 68.0585 134.0552
TCL: Exiting due to exit command.
