Info: SIMULATION PARAMETERS:
Info: TIMESTEP               2
Info: NUMBER OF STEPS        0
Info: STEPS PER CYCLE        10
Info: PERIODIC CELL BASIS 1  32.7545 0 0
Info: PERIODIC CELL BASIS 2  0 30.2203 0
Info: PERIODIC CELL BASIS 3  0 0 30.1929
Info: PERIODIC CELL CENTER   0 0 0
Info: WRAPPING WATERS AROUND PERIODIC BOUNDARIES ON OUTPUT.
Info: WRAPPING ALL CLUSTERS AROUND PERIODIC BOUNDARIES ON OUTPUT.
Info: FIRST LDB TIMESTEP     50
Info: LAST LDB TIMESTEP     -1
Info: HOM BACKGROUND SCALING 1
Info: PME BACKGROUND SCALING 1
Info: MIN ATOMS PER PATCH    40
Info: EMPTY PATCH LOAD       40 ATOMS
Info: VELOCITY FILE          mobley_2049967_equil.vel
Info: CENTER OF MASS MOVING INITIALLY? NO
Info: DIELECTRIC             1
Info: EXCLUDE                SCALED ONE-FOUR
Info: 1-4 ELECTROSTATICS SCALED BY 0.833333
Info: MODIFIED 1-4 VDW PARAMETERS WILL BE USED
Info: DCD FILENAME           mobley_2049967_prod.dcd
Info: DCD FREQUENCY          100000
Info: DCD FIRST STEP         100000
Info: DCD FILE WILL CONTAIN UNIT CELL DATA
Info: XST FILENAME           mobley_2049967_prod.xst
Info: XST FREQUENCY          100000
Info: NO VELOCITY DCD OUTPUT
Info: NO FORCE DCD OUTPUT
Info: OUTPUT FILENAME        mobley_2049967_prod
Info: BINARY OUTPUT FILES WILL BE USED
Info: RESTART FILENAME       mobley_2049967_prod.restart
Info: RESTART FREQUENCY      100000
Info: BINARY RESTART FILES WILL BE USED
Info: CUTOFF                 9
Info: PAIRLIST DISTANCE      11
Info: PAIRLIST SHRINK RATE   0.01
Info: PAIRLIST GROW RATE     0.01
Info: PAIRLIST TRIGGER       0.3
Info: PAIRLISTS PER CYCLE    2
Info: PAIRLISTS ENABLED
Info: MARGIN                 2
Info: HYDROGEN GROUP CUTOFF  2.5
Info: PATCH DIMENSION        15.5
Info: ENERGY OUTPUT STEPS    100000
Info: ENERGY EVALUATION STEPS    100000
Info: OUTPUT ENERGY PRECISION 4
Info: CROSSTERM ENERGY INCLUDED IN DIHEDRAL
Info: TIMING OUTPUT STEPS    1000000
Info: PRESSURE OUTPUT STEPS  100000
Info: ALCHEMICAL FEP ON
Info: FEP CURRENT LAMBDA VALUE     0
Info: FEP COMPARISON LAMBDA VALUE  0.05
Info: FEP INTRA-ALCHEMICAL NON-BONDED INTERACTIONS WILL BE RETAINED
Info: FEP INTRA-ALCHEMICAL BONDED INTERACTIONS WILL BE RETAINED
Info: FEP VDW SHIFTING COEFFICIENT 5
Info: FEP ELEC. ACTIVE FOR ANNIHILATED PARTICLES BETWEEN LAMBDA = 0 AND LAMBDA = 0.5
Info: FEP ELEC. ACTIVE FOR EXNIHILATED PARTICLES BETWEEN LAMBDA = 0.5 AND LAMBDA = 1
Info: FEP VDW ACTIVE FOR ANNIHILATED PARTICLES BETWEEN LAMBDA = 0 AND LAMBDA = 1
Info: FEP VDW ACTIVE FOR EXNIHILATED PARTICLES BETWEEN LAMBDA = 0 AND LAMBDA = 1
Info: FEP BOND ACTIVE FOR ANNIHILATED PARTICLES BETWEEN LAMBDA = 1 AND LAMBDA = 1
Info: FEP BOND ACTIVE FOR EXNIHILATED PARTICLES BETWEEN LAMBDA = 0 AND LAMBDA = 0
Info: LANGEVIN DYNAMICS ACTIVE
Info: LANGEVIN TEMPERATURE   300
Info: LANGEVIN USING BBK INTEGRATOR
Info: LANGEVIN DAMPING COEFFICIENT IS 1 INVERSE PS
Info: LANGEVIN DYNAMICS APPLIED TO HYDROGENS
Info: LANGEVIN PISTON PRESSURE CONTROL ACTIVE
Info:        TARGET PRESSURE IS 1.01325 BAR
Info:     OSCILLATION PERIOD IS 50 FS
Info:             DECAY TIME IS 25 FS
Info:     PISTON TEMPERATURE IS 300 K
Info:       PRESSURE CONTROL IS GROUP-BASED
Info:    INITIAL STRAIN RATE IS 0.00101654 0.00101654 0.00101654
Info:       CELL FLUCTUATION IS ISOTROPIC
Info: PARTICLE MESH EWALD (PME) ACTIVE
Info: PME TOLERANCE               1e-06
Info: PME EWALD COEFFICIENT       0.348832
Info: PME INTERPOLATION ORDER     4
Info: PME GRID DIMENSIONS         36 32 32
Info: PME MAXIMUM GRID SPACING    1
Info: PME CALCULATION WILL BE PERFORMED ON GPU
Info: FULL ELECTROSTATIC EVALUATION FREQUENCY      2
Info: USING VERLET I (r-RESPA) MTS SCHEME.
Info: C1 SPLITTING OF LONG RANGE ELECTROSTATICS
Info: PLACING ATOMS IN PATCHES BY HYDROGEN GROUPS
Info: RIGID BONDS TO HYDROGEN : ALL
Info:         ERROR TOLERANCE : 1e-08
Info:          MAX ITERATIONS : 100
Info: RIGID WATER USING SETTLE ALGORITHM
Info: RANDOM NUMBER SEED     1743687477
Info: USE HYDROGEN BONDS?    NO
Info: Using AMBER format force field!
Info: AMBER PARM FILE        mobley_2049967.prmtop
Info: COORDINATE PDB         mobley_2049967.pdb
Info: Exclusions will be read from PARM file!
Info: SCNB (VDW SCALING)     2
Info: USING ARITHMETIC MEAN TO COMBINE L-J SIGMA PARAMETERS
Info: BINARY COORDINATES     mobley_2049967_equil.coor
Info: SUMMARY OF PARAMETERS:
Info: 6 BONDS
Info: 7 ANGLES
Info:   7 HARMONIC
Info:   0 COSINE-BASED
Info: 2 DIHEDRAL
Info: 0 IMPROPER
Info: 0 CROSSTERM
Info: 0 VDW
Info: 21 VDW_PAIRS
Info: 0 NBTHOLE_PAIRS
Info: To read alchdata from file: mobley_2049967.pdb
Info: To read alchflag data from column: 5
Info: STRUCTURE SUMMARY:
Info: 2931 ATOMS
Info: 2930 BONDS
Info: 19 ANGLES
Info: 15 DIHEDRALS
Info: 0 IMPROPERS
Info: 0 CROSSTERMS
Info: 2964 EXCLUSIONS
Info: 2927 RIGID BONDS
Info: ALCH: 0 ATOMS TO DISAPPEAR IN FINAL STATE
Info: ALCH: 12 ATOMS TO APPEAR IN FINAL STATE
Info: 5866 DEGREES OF FREEDOM
Info: 977 HYDROGEN GROUPS
Info: 4 ATOMS IN LARGEST HYDROGEN GROUP
Info: 977 MIGRATION GROUPS
Info: 4 ATOMS IN LARGEST MIGRATION GROUP
Info: TOTAL MASS = 17605.7 amu
Info: TOTAL CHARGE = 9.99859e-05 e
Info: MASS DENSITY = 0.978224 g/cm^3
Info: ATOM DENSITY = 0.0980711 atoms/A^3
Info: ADDED 0 IMPLICIT EXCLUSIONS
Info: NONBONDED TABLE R-SQUARED SPACING: 0.0625
Info: NONBONDED TABLE SIZE: 705 POINTS
Info: REMOVING COM VELOCITY -0.0475151 0.144807 -0.00696775
Info: Use 3D box decompostion in PME FFT.
Info: Updated CUDA force table with 4096 elements.
Info: Updated CUDA LJ table with 6 x 6 elements.
Info: Found 15 unique exclusion lists needing 28 bytes
TCL: Running for 1500000 steps
ETITLE: TS BOND ANGLE DIHED IMPRP ELECT VDW BOUNDARY MISC KINETIC TOTAL TEMP POTENTIAL TOTALAVG TEMPAVG PRESSURE GPRESSURE VOLUME PRESSAVG GPRESSAVG
ENERGY: 0 0.6577 7.5140 1.5922 0.0000 -10587.6214 1435.6056 0.0000 0.0000 1748.3850 -7393.8669 299.9752 -9142.2519 -7393.8669 299.9752 243.5211 313.4882 29886.4833 243.5211 313.4882
ENERGY: 300000 0.7332 7.3756 0.1017 0.0000 -10639.0794 1410.2648 0.0000 0.0000 1720.0515 -7500.5526 295.1140 -9220.6041 -7440.6294 302.8241 -263.5663 -275.7221 30102.8559 -214.6547 -154.4146
ENERGY: 600000 0.5452 4.1443 3.5360 0.0000 -10582.2421 1414.3204 0.0000 0.0000 1713.8488 -7445.8474 294.0498 -9159.6963 -7417.5891 303.0401 -109.6028 -71.8412 30238.5614 -142.6191 -92.2167
ENERGY: 900000 0.4102 5.3696 1.2612 0.0000 -10681.0041 1433.3039 0.0000 0.0000 1693.2327 -7547.4264 290.5126 -9240.6592 -7437.5538 300.8976 294.6344 271.8412 29417.2360 -8.8025 37.5451
ENERGY: 1200000 0.5915 6.5458 2.2463 0.0000 -10654.7818 1377.6523 0.0000 0.0000 1736.9205 -7530.8254 298.0082 -9267.7459 -7448.7442 300.3936 -480.1515 -454.5344 29541.6555 -36.4017 13.5440
ENERGY: 1500000 1.2551 4.7870 1.9895 0.0000 -10664.0375 1491.9340 0.0000 0.0000 1702.8538 -7461.2181 292.1633 -9164.0719 -7451.7749 300.1220 634.3026 700.9895 29663.4016 -6.6564 50.0561
TCL: Running FEP window   2: Lambda1 0.05   Lambda2 0.1    [dLambda 0.05  ]
TCL: Setting parameter firsttimestep to 0
TCL: Setting parameter alchLambda to 0.05
Info: NONBONDED TABLE R-SQUARED SPACING: 0.0625
Info: NONBONDED TABLE SIZE: 705 POINTS
TCL: Setting parameter alchLambda2 to 0.1
Info: NONBONDED TABLE R-SQUARED SPACING: 0.0625
Info: NONBONDED TABLE SIZE: 705 POINTS
TCL: Running for 1500000 steps
ETITLE: TS BOND ANGLE DIHED IMPRP ELECT VDW BOUNDARY MISC KINETIC TOTAL TEMP POTENTIAL TOTALAVG TEMPAVG PRESSURE GPRESSURE VOLUME PRESSAVG GPRESSAVG
ENERGY: 0 1.2551 4.7869 1.9895 0.0000 -10664.0377 1497.0569 0.0000 0.0000 1701.9951 -7456.9541 292.0160 -9158.9492 -7456.9541 292.0160 619.5998 708.1561 29663.4016 619.5998 708.1561
ENERGY: 300000 2.3848 5.0951 0.9777 0.0000 -10688.8838 1481.5669 0.0000 0.0000 1728.3341 -7470.5252 296.5351 -9198.8593 -7475.6341 295.5578 793.5948 839.6643 29291.0198 166.4916 237.3580
ENERGY: 600000 1.0533 3.4763 0.8745 0.0000 -10547.1819 1376.2126 0.0000 0.0000 1704.5153 -7461.0499 292.4484 -9165.5652 -7448.3709 295.7392 -178.5753 -85.4601 29886.4484 -16.2221 64.0457
ENERGY: 900000 0.3955 7.2357 1.9425 0.0000 -10668.7387 1397.2822 0.0000 0.0000 1724.1199 -7537.7630 295.8120 -9261.8829 -7449.3089 297.2759 -243.8560 -172.7961 29488.3645 -8.7614 62.8668
ENERGY: 1200000 1.8791 2.7275 0.1012 0.0000 -10628.3271 1416.2617 0.0000 0.0000 1769.0687 -7438.2889 303.5240 -9207.3576 -7451.2116 299.0844 -453.0861 -381.5367 30204.2646 -25.8128 44.8398
ENERGY: 1500000 0.9618 4.1569 0.9244 0.0000 -10549.5622 1410.4070 0.0000 0.0000 1705.0699 -7428.0422 292.5435 -9133.1121 -7446.5660 298.3364 191.4780 281.5204 29835.5439 -6.9285 68.4352
TCL: Running FEP window   3: Lambda1 0.1    Lambda2 0.15000000000000002 [dLambda 0.05000000000000002]
TCL: Setting parameter firsttimestep to 0
TCL: Setting parameter alchLambda to 0.1
Info: NONBONDED TABLE R-SQUARED SPACING: 0.0625
Info: NONBONDED TABLE SIZE: 705 POINTS
TCL: Setting parameter alchLambda2 to 0.15000000000000002
Info: NONBONDED TABLE R-SQUARED SPACING: 0.0625
Info: NONBONDED TABLE SIZE: 705 POINTS
TCL: Running for 1500000 steps
ETITLE: TS BOND ANGLE DIHED IMPRP ELECT VDW BOUNDARY MISC KINETIC TOTAL TEMP POTENTIAL TOTALAVG TEMPAVG PRESSURE GPRESSURE VOLUME PRESSAVG GPRESSAVG
ENERGY: 0 0.9618 4.1569 0.9244 0.0000 -10549.5622 1412.7400 0.0000 0.0000 1704.2162 -7426.5629 292.3971 -9130.7791 -7426.5629 292.3971 198.4502 291.1388 29835.5439 198.4502 291.1388
ENERGY: 300000 0.3076 5.6119 1.8334 0.0000 -10682.4522 1481.4605 0.0000 0.0000 1782.1819 -7411.0569 305.7739 -9193.2387 -7422.9446 302.9556 633.7101 669.6117 29698.8544 240.9710 298.6298
ENERGY: 600000 6.3694 4.2393 0.8422 0.0000 -10625.4344 1519.1425 0.0000 0.0000 1745.4862 -7349.3548 299.4779 -9094.8411 -7408.8461 303.1573 769.4512 780.3789 30252.8391 204.4647 244.8073
ENERGY: 900000 1.2872 4.6010 2.3563 0.0000 -10651.1737 1434.8047 0.0000 0.0000 1770.5306 -7437.5939 303.7748 -9208.1245 -7408.3209 303.0077 99.0332 115.4419 29888.5290 83.8699 127.5977
ENERGY: 1200000 0.3902 4.8108 0.4336 0.0000 -10537.0792 1443.2509 0.0000 0.0000 1711.3852 -7376.8086 293.6271 -9088.1937 -7425.7727 302.0340 223.1915 302.5314 30146.6043 109.4979 157.8007
ENERGY: 1500000 0.2599 5.6163 1.5560 0.0000 -10713.0969 1496.8518 0.0000 0.0000 1772.8853 -7435.9276 304.1788 -9208.8128 -7433.1826 301.5381 539.7335 629.6100 29914.1204 149.2296 203.7692
TCL: Running FEP window   4: Lambda1 0.15000000000000002 Lambda2 0.2    [dLambda 0.04999999999999999]
TCL: Setting parameter firsttimestep to 0
TCL: Setting parameter alchLambda to 0.15000000000000002
Info: NONBONDED TABLE R-SQUARED SPACING: 0.0625
Info: NONBONDED TABLE SIZE: 705 POINTS
TCL: Setting parameter alchLambda2 to 0.2
Info: NONBONDED TABLE R-SQUARED SPACING: 0.0625
Info: NONBONDED TABLE SIZE: 705 POINTS
TCL: Running for 1500000 steps
ETITLE: TS BOND ANGLE DIHED IMPRP ELECT VDW BOUNDARY MISC KINETIC TOTAL TEMP POTENTIAL TOTALAVG TEMPAVG PRESSURE GPRESSURE VOLUME PRESSAVG GPRESSAVG
ENERGY: 0 0.2599 5.6163 1.5560 0.0000 -10713.0977 1497.5789 0.0000 0.0000 1772.0358 -7436.0508 304.0331 -9208.0866 -7436.0508 304.0331 552.1836 633.7505 29914.1204 552.1836 633.7505
ENERGY: 300000 0.0909 4.8852 0.3190 0.0000 -10573.7103 1389.7732 0.0000 0.0000 1767.2793 -7411.3628 303.2170 -9178.6421 -7412.6778 303.9791 -70.7851 -39.3249 29776.1714 -90.9456 -32.2971
ENERGY: 600000 0.7757 2.1495 0.7124 0.0000 -10657.6084 1411.7776 0.0000 0.0000 1722.9101 -7519.2830 295.6044 -9242.1931 -7422.3469 302.9237 -414.2369 -359.4695 30124.5843 -79.4381 -12.5599
ENERGY: 900000 1.3356 8.0460 1.5047 0.0000 -10570.5227 1372.3853 0.0000 0.0000 1799.4590 -7387.7920 308.7381 -9187.2510 -7419.2097 303.8670 -433.3572 -377.2420 30074.4747 -73.0701 -11.2470
ENERGY: 1200000 0.9593 8.8581 1.8436 0.0000 -10607.1443 1365.3557 0.0000 0.0000 1760.7442 -7469.3835 302.0957 -9230.1276 -7424.0387 302.7055 -435.3799 -376.7040 29888.6190 -199.3503 -141.0459
ENERGY: 1500000 0.9081 4.3394 0.6033 0.0000 -10578.1248 1411.8450 0.0000 0.0000 1756.0703 -7404.3587 301.2938 -9160.4289 -7418.2133 302.0304 -243.7780 -241.6014 30599.0377 -187.7128 -130.8035
TCL: Running FEP window   5: Lambda1 0.2    Lambda2 0.25   [dLambda 0.04999999999999999]
TCL: Setting parameter firsttimestep to 0
TCL: Setting parameter alchLambda to 0.2
Info: NONBONDED TABLE R-SQUARED SPACING: 0.0625
Info: NONBONDED TABLE SIZE: 705 POINTS
TCL: Setting parameter alchLambda2 to 0.25
Info: NONBONDED TABLE R-SQUARED SPACING: 0.0625
Info: NONBONDED TABLE SIZE: 705 POINTS
TCL: Running for 1500000 steps
ETITLE: TS BOND ANGLE DIHED IMPRP ELECT VDW BOUNDARY MISC KINETIC TOTAL TEMP POTENTIAL TOTALAVG TEMPAVG PRESSURE GPRESSURE VOLUME PRESSAVG GPRESSAVG
ENERGY: 0 0.9081 4.3394 0.6033 0.0000 -10578.1273 1413.5476 0.0000 0.0000 1755.2271 -7403.5018 301.1491 -9158.7288 -7403.5018 301.1491 -308.6494 -231.4757 30599.0377 -308.6494 -231.4757
ENERGY: 300000 0.3110 6.1573 0.3684 0.0000 -10708.5245 1510.5967 0.0000 0.0000 1683.3581 -7507.7331 288.8184 -9191.0912 -7450.6675 296.9372 802.1008 874.2437 29629.4845 -252.2550 -176.7950
ENERGY: 600000 0.9273 5.6974 0.7759 0.0000 -10438.0590 1326.4460 0.0000 0.0000 1777.2149 -7326.9975 304.9217 -9104.2124 -7426.4894 298.4744 -871.4291 -768.2993 30676.1573 -208.5179 -151.2418
ENERGY: 900000 2.7905 3.3956 0.2184 0.0000 -10651.8999 1519.1589 0.0000 0.0000 1703.7536 -7422.5830 292.3177 -9126.3366 -7426.0353 298.9585 779.8872 828.4507 29958.7424 -44.0267 19.8340
ENERGY: 1200000 0.8589 4.7246 0.3065 0.0000 -10760.0581 1444.4733 0.0000 0.0000 1707.5994 -7602.0953 292.9775 -9309.6948 -7440.8077 298.3568 -114.0744 41.8951 29577.7785 -2.5102 66.5217
ENERGY: 1500000 0.6321 6.2841 0.8832 0.0000 -10567.0218 1410.3142 0.0000 0.0000 1735.4494 -7413.4590 297.7558 -9148.9084 -7437.7774 298.8832 -60.4190 -2.0427 30078.5505 7.4740 73.5954
TCL: Running FEP window   6: Lambda1 0.25   Lambda2 0.3    [dLambda 0.04999999999999999]
TCL: Setting parameter firsttimestep to 0
TCL: Setting parameter alchLambda to 0.25
Info: NONBONDED TABLE R-SQUARED SPACING: 0.0625
Info: NONBONDED TABLE SIZE: 705 POINTS
TCL: Setting parameter alchLambda2 to 0.3
Info: NONBONDED TABLE R-SQUARED SPACING: 0.0625
Info: NONBONDED TABLE SIZE: 705 POINTS
TCL: Running for 1500000 steps
ETITLE: TS BOND ANGLE DIHED IMPRP ELECT VDW BOUNDARY MISC KINETIC TOTAL TEMP POTENTIAL TOTALAVG TEMPAVG PRESSURE GPRESSURE VOLUME PRESSAVG GPRESSAVG
ENERGY: 0 0.6321 6.2841 0.8832 0.0000 -10567.0226 1411.4172 0.0000 0.0000 1734.5722 -7413.2338 297.6053 -9147.8060 -7413.2338 297.6053 -84.8453 7.0673 30078.5505 -84.8453 7.0673
ENERGY: 300000 0.2357 6.4953 0.4365 0.0000 -10698.6123 1460.2323 0.0000 0.0000 1703.4112 -7527.8013 292.2590 -9231.2125 -7454.5795 300.8683 -21.6274 -21.5836 30436.6693 205.8089 289.3290
ENERGY: 600000 2.7557 4.1607 2.9536 0.0000 -10672.1615 1458.2525 0.0000 0.0000 1755.9340 -7448.1050 301.2704 -9204.0390 -7445.3243 301.3533 388.7788 414.0906 29930.2763 193.3325 273.1108
ENERGY: 900000 0.6478 5.5820 1.4408 0.0000 -10569.7888 1401.8803 0.0000 0.0000 1720.4673 -7439.7708 295.1853 -9160.2380 -7448.8088 300.3650 -274.8689 -215.0268 30340.7702 163.4948 239.4103
ENERGY: 1200000 2.0485 6.7869 0.2549 0.0000 -10649.4859 1428.4157 0.0000 0.0000 1733.2781 -7478.7018 297.3833 -9211.9799 -7467.0540 299.1656 77.5241 118.2119 29631.7735 103.3694 181.7409
ENERGY: 1500000 0.2071 5.7543 0.6076 0.0000 -10654.0050 1458.5542 0.0000 0.0000 1784.1626 -7404.7193 306.1137 -9188.8819 -7463.2339 299.4990 491.3767 570.1664 29714.3552 101.8708 173.5304
TCL: Running FEP window   7: Lambda1 0.3    Lambda2 0.35   [dLambda 0.04999999999999999]
TCL: Setting parameter firsttimestep to 0
TCL: Setting parameter alchLambda to 0.3
Info: NONBONDED TABLE R-SQUARED SPACING: 0.0625
Info: NONBONDED TABLE SIZE: 705 POINTS
TCL: Setting parameter alchLambda2 to 0.35
Info: NONBONDED TABLE R-SQUARED SPACING: 0.0625
Info: NONBONDED TABLE SIZE: 705 POINTS
TCL: Running for 1500000 steps
ETITLE: TS BOND ANGLE DIHED IMPRP ELECT VDW BOUNDARY MISC KINETIC TOTAL TEMP POTENTIAL TOTALAVG TEMPAVG PRESSURE GPRESSURE VOLUME PRESSAVG GPRESSAVG
ENERGY: 0 0.2071 5.7543 0.6076 0.0000 -10654.0059 1459.9361 0.0000 0.0000 1783.3003 -7404.2006 305.9657 -9187.5009 -7404.2006 305.9657 515.6836 585.8047 29714.3552 515.6836 585.8047
ENERGY: 300000 0.4677 5.3653 2.1591 0.0000 -10660.2810 1484.3717 0.0000 0.0000 1749.5123 -7418.4048 300.1687 -9167.9171 -7382.1104 304.3131 560.9336 703.3163 29786.9506 125.9636 243.6231
ENERGY: 600000 0.9716 3.6769 1.5402 0.0000 -10728.5082 1465.1235 0.0000 0.0000 1774.7272 -7482.4687 304.4948 -9257.1959 -7413.7290 302.9436 5.4126 94.1902 30050.7901 46.6884 143.0559
ENERGY: 900000 0.2384 4.5729 0.8600 0.0000 -10553.9569 1335.7624 0.0000 0.0000 1807.4927 -7405.0305 310.1165 -9212.5232 -7415.2602 304.2276 -808.9214 -704.2790 30017.1418 -50.4595 36.1134
ENERGY: 1200000 1.2753 7.0427 0.6926 0.0000 -10604.7044 1413.7773 0.0000 0.0000 1708.1504 -7473.7661 293.0721 -9181.9165 -7418.9602 302.9653 -421.0009 -283.9551 30654.9098 -153.6316 -66.0324
ENERGY: 1500000 0.4252 2.6325 0.8006 0.0000 -10598.5084 1427.7397 0.0000 0.0000 1696.4903 -7470.4201 291.0715 -9166.9104 -7425.1383 301.9358 -122.8737 -81.1554 30252.3058 -99.3338 -24.3363
TCL: Running FEP window   8: Lambda1 0.35   Lambda2 0.39999999999999997 [dLambda 0.04999999999999999]
TCL: Setting parameter firsttimestep to 0
TCL: Setting parameter alchLambda to 0.35
Info: NONBONDED TABLE R-SQUARED SPACING: 0.0625
Info: NONBONDED TABLE SIZE: 705 POINTS
TCL: Setting parameter alchLambda2 to 0.39999999999999997
Info: NONBONDED TABLE R-SQUARED SPACING: 0.0625
Info: NONBONDED TABLE SIZE: 705 POINTS
TCL: Running for 1500000 steps
ETITLE: TS BOND ANGLE DIHED IMPRP ELECT VDW BOUNDARY MISC KINETIC TOTAL TEMP POTENTIAL TOTALAVG TEMPAVG PRESSURE GPRESSURE VOLUME PRESSAVG GPRESSAVG
ENERGY: 0 0.4252 2.6325 0.8006 0.0000 -10598.5062 1427.6848 0.0000 0.0000 1695.6154 -7471.3476 290.9214 -9166.9630 -7471.3476 290.9214 -157.0139 -79.5478 30252.3058 -157.0139 -79.5478
ENERGY: 300000 0.5017 8.0821 1.2898 0.0000 -10601.5138 1437.8678 0.0000 0.0000 1713.7396 -7440.0329 294.0310 -9153.7725 -7423.0518 296.7760 381.2021 411.7881 29689.1653 -92.1435 -39.8991
ENERGY: 600000 1.3551 10.9610 0.3852 0.0000 -10692.1832 1478.1928 0.0000 0.0000 1734.4964 -7466.7928 297.5923 -9201.2891 -7441.4100 297.4663 470.8078 470.7957 29727.8618 -309.3457 -257.6957
ENERGY: 900000 0.5355 3.7592 1.3094 0.0000 -10546.9642 1396.3733 0.0000 0.0000 1751.4732 -7393.5135 300.5051 -9144.9867 -7441.1532 297.1136 -209.5675 -177.8266 30397.0438 -294.9994 -245.7302
ENERGY: 1200000 2.6792 4.0875 0.4176 0.0000 -10759.6622 1470.5638 0.0000 0.0000 1719.7257 -7562.1883 295.0581 -9281.9140 -7447.1658 296.8039 -191.1932 -70.0992 30643.1336 -269.9010 -205.4118
ENERGY: 1500000 0.4933 3.8675 2.5908 0.0000 -10612.0036 1405.4266 0.0000 0.0000 1759.2400 -7440.3854 301.8377 -9199.6254 -7442.3642 297.7847 -200.6220 -121.6074 29851.8737 -282.2036 -220.3752
TCL: Running FEP window   9: Lambda1 0.39999999999999997 Lambda2 0.44999999999999996 [dLambda 0.04999999999999999]
TCL: Setting parameter firsttimestep to 0
TCL: Setting parameter alchLambda to 0.39999999999999997
Info: NONBONDED TABLE R-SQUARED SPACING: 0.0625
Info: NONBONDED TABLE SIZE: 705 POINTS
TCL: Setting parameter alchLambda2 to 0.44999999999999996
Info: NONBONDED TABLE R-SQUARED SPACING: 0.0625
Info: NONBONDED TABLE SIZE: 705 POINTS
TCL: Running for 1500000 steps
ETITLE: TS BOND ANGLE DIHED IMPRP ELECT VDW BOUNDARY MISC KINETIC TOTAL TEMP POTENTIAL TOTALAVG TEMPAVG PRESSURE GPRESSURE VOLUME PRESSAVG GPRESSAVG
ENERGY: 0 0.4933 3.8675 2.5908 0.0000 -10612.0042 1405.2122 0.0000 0.0000 1758.3816 -7441.4588 301.6904 -9199.8404 -7441.4588 301.6904 -203.5136 -118.2133 29851.8737 -203.5136 -118.2133
ENERGY: 300000 1.8410 4.7690 1.0593 0.0000 -10729.8933 1508.8558 0.0000 0.0000 1723.9910 -7489.3771 295.7899 -9213.3681 -7475.3149 296.5552 483.3838 511.4845 30184.0561 266.0815 299.8825
ENERGY: 600000 0.7680 5.9652 1.3019 0.0000 -10514.4144 1376.7877 0.0000 0.0000 1746.3117 -7383.2800 299.6195 -9129.5916 -7457.2399 295.8274 -324.3580 -298.0717 30686.8114 -13.5200 25.7426
ENERGY: 900000 0.4208 5.1739 0.9778 0.0000 -10602.5472 1469.3838 0.0000 0.0000 1730.7551 -7395.8359 296.9504 -9126.5910 -7438.5641 297.8957 476.4738 469.1846 30286.6449 -22.1391 23.7407
ENERGY: 1200000 0.3251 6.1658 1.0137 0.0000 -10697.7829 1539.7893 0.0000 0.0000 1744.4937 -7405.9953 299.3076 -9150.4890 -7440.0330 298.1525 773.2931 879.4562 30231.3387 107.0029 162.8964
ENERGY: 1500000 0.6963 4.2206 1.0131 0.0000 -10550.3598 1389.2472 0.0000 0.0000 1697.0620 -7458.1205 291.1696 -9155.1825 -7446.2293 297.5199 -303.6482 -249.4792 30157.4556 67.8510 123.3402
TCL: Running FEP window  10: Lambda1 0.44999999999999996 Lambda2 0.49999999999999994 [dLambda 0.04999999999999999]
TCL: Setting parameter firsttimestep to 0
TCL: Setting parameter alchLambda to 0.44999999999999996
Info: NONBONDED TABLE R-SQUARED SPACING: 0.0625
Info: NONBONDED TABLE SIZE: 705 POINTS
TCL: Setting parameter alchLambda2 to 0.49999999999999994
Info: NONBONDED TABLE R-SQUARED SPACING: 0.0625
Info: NONBONDED TABLE SIZE: 705 POINTS
TCL: Running for 1500000 steps
ETITLE: TS BOND ANGLE DIHED IMPRP ELECT VDW BOUNDARY MISC KINETIC TOTAL TEMP POTENTIAL TOTALAVG TEMPAVG PRESSURE GPRESSURE VOLUME PRESSAVG GPRESSAVG
ENERGY: 0 0.6963 4.2206 1.0131 0.0000 -10550.3603 1389.4294 0.0000 0.0000 1696.1960 -7458.8049 291.0210 -9155.0009 -7458.8049 291.0210 -331.4166 -243.7326 30157.4556 -331.4166 -243.7326
ENERGY: 300000 1.5713 3.8356 0.2888 0.0000 -10624.8851 1429.7040 0.0000 0.0000 1774.5324 -7414.9530 304.4614 -9189.4854 -7429.1426 299.8536 -82.4519 5.3459 29984.8137 -231.2592 -181.6450
ENERGY: 600000 0.2603 5.7737 1.8615 0.0000 -10568.7461 1368.2707 0.0000 0.0000 1709.9938 -7482.5860 293.3884 -9192.5798 -7444.4995 299.0362 -713.1781 -682.0452 30364.7550 -414.4634 -362.6701
ENERGY: 900000 1.0639 5.3495 0.6165 0.0000 -10471.9044 1364.6545 0.0000 0.0000 1721.5313 -7378.6887 295.3679 -9100.2200 -7424.4547 299.3740 -334.8469 -255.1129 30157.9560 -431.1212 -376.1269
ENERGY: 1200000 1.2922 3.7672 1.6737 0.0000 -10550.4972 1449.1439 0.0000 0.0000 1780.9085 -7313.7116 305.5554 -9094.6201 -7412.8410 299.6462 406.3386 464.8004 30189.9686 -245.6503 -190.2419
ENERGY: 1500000 0.5906 2.1115 0.9674 0.0000 -10467.5594 1327.0092 0.0000 0.0000 1783.7769 -7353.1038 306.0475 -9136.8807 -7410.8154 300.4953 -1077.0509 -989.0329 30853.4379 -279.4959 -230.1730
TCL: Running FEP window  11: Lambda1 0.49999999999999994 Lambda2 0.5499999999999999 [dLambda 0.04999999999999999]
TCL: Setting parameter firsttimestep to 0
TCL: Setting parameter alchLambda to 0.49999999999999994
Info: NONBONDED TABLE R-SQUARED SPACING: 0.0625
Info: NONBONDED TABLE SIZE: 705 POINTS
TCL: Setting parameter alchLambda2 to 0.5499999999999999
Info: NONBONDED TABLE R-SQUARED SPACING: 0.0625
Info: NONBONDED TABLE SIZE: 705 POINTS
TCL: Running for 1500000 steps
ETITLE: TS BOND ANGLE DIHED IMPRP ELECT VDW BOUNDARY MISC KINETIC TOTAL TEMP POTENTIAL TOTALAVG TEMPAVG PRESSURE GPRESSURE VOLUME PRESSAVG GPRESSAVG
ENERGY: 0 0.5906 2.1115 0.9674 0.0000 -10467.5584 1327.2377 0.0000 0.0000 1782.9112 -7353.7400 305.8990 -9136.6512 -7353.7400 305.8990 -1069.2355 -982.8945 30853.4379 -1069.2355 -982.8945
ENERGY: 300000 1.0744 6.3187 1.3045 0.0000 -10522.5368 1345.2965 0.0000 0.0000 1727.4730 -7441.0698 296.3873 -9168.5428 -7391.5657 304.2948 -605.1053 -553.4967 30260.8240 -384.2202 -317.5727
ENERGY: 600000 0.2883 3.6952 1.0206 0.0000 -10624.8694 1467.3188 0.0000 0.0000 1801.5094 -7351.0371 309.0899 -9152.5465 -7381.4646 305.5059 632.8943 586.4502 29847.0080 -118.5289 -83.3188
ENERGY: 900000 1.2917 4.0675 0.4801 0.0000 -10569.3816 1389.7242 0.0000 0.0000 1735.9210 -7437.8972 297.8367 -9173.8181 -7400.2282 303.1115 -577.8533 -522.3708 30570.5338 -171.7343 -123.0659
ENERGY: 1200000 1.3348 3.4626 1.9692 0.0000 -10529.6374 1420.2714 0.0000 0.0000 1753.9696 -7348.6297 300.9334 -9102.5993 -7385.0621 303.3378 -180.3984 -128.6524 30872.4687 43.3565 89.3688
ENERGY: 1500000 0.3115 4.6974 1.6121 0.0000 -10668.6085 1438.5144 0.0000 0.0000 1775.0676 -7448.4056 304.5532 -9223.4731 -7391.9626 303.2218 192.7474 235.0441 29844.2327 91.6234 138.3662
TCL: Running FEP window  12: Lambda1 0.5499999999999999 Lambda2 0.6    [dLambda 0.050000000000000044]
TCL: Setting parameter firsttimestep to 0
TCL: Setting parameter alchLambda to 0.5499999999999999
Info: NONBONDED TABLE R-SQUARED SPACING: 0.0625
Info: NONBONDED TABLE SIZE: 705 POINTS
TCL: Setting parameter alchLambda2 to 0.6
Info: NONBONDED TABLE R-SQUARED SPACING: 0.0625
Info: NONBONDED TABLE SIZE: 705 POINTS
TCL: Running for 1500000 steps
ETITLE: TS BOND ANGLE DIHED IMPRP ELECT VDW BOUNDARY MISC KINETIC TOTAL TEMP POTENTIAL TOTALAVG TEMPAVG PRESSURE GPRESSURE VOLUME PRESSAVG GPRESSAVG
ENERGY: 0 0.3115 4.6974 1.6121 0.0000 -10668.7319 1438.5113 0.0000 0.0000 1774.1875 -7449.4121 304.4022 -9223.5996 -7449.4121 304.4022 158.7105 239.4737 29844.2327 158.7105 239.4737
ENERGY: 300000 0.3455 5.4402 0.6197 0.0000 -10628.8168 1465.0532 0.0000 0.0000 1752.5046 -7404.8536 300.6820 -9157.3582 -7441.2926 300.5279 677.7005 716.4112 29447.9618 282.8111 347.7489
ENERGY: 600000 1.2162 3.5491 1.2514 0.0000 -10578.2607 1419.3298 0.0000 0.0000 1663.1114 -7489.8028 285.3446 -9152.9142 -7428.4464 299.7761 -332.6581 -296.3994 30462.0299 166.4647 226.7141
ENERGY: 900000 0.8776 3.9881 1.7257 0.0000 -10692.0865 1468.2465 0.0000 0.0000 1792.3240 -7424.9246 307.5140 -9217.2486 -7428.2637 301.4572 247.8703 351.8644 30091.6018 168.6736 236.3362
ENERGY: 1200000 1.3038 3.6720 0.7331 0.0000 -10784.6977 1473.9193 0.0000 0.0000 1729.4390 -7575.6305 296.7246 -9305.0695 -7435.9810 301.0337 -33.9989 57.9753 30123.3283 109.9519 174.4309
ENERGY: 1500000 0.5269 3.7128 0.0369 0.0000 -10572.8973 1379.8028 0.0000 0.0000 1756.1001 -7432.7178 301.2989 -9188.8179 -7434.7584 300.7692 -275.2006 -277.2862 30038.3908 118.9936 177.8051
TCL: Running FEP window  13: Lambda1 0.6    Lambda2 0.65   [dLambda 0.050000000000000044]
TCL: Setting parameter firsttimestep to 0
TCL: Setting parameter alchLambda to 0.6
Info: NONBONDED TABLE R-SQUARED SPACING: 0.0625
Info: NONBONDED TABLE SIZE: 705 POINTS
TCL: Setting parameter alchLambda2 to 0.65
Info: NONBONDED TABLE R-SQUARED SPACING: 0.0625
Info: NONBONDED TABLE SIZE: 705 POINTS
TCL: Running for 1500000 steps
ETITLE: TS BOND ANGLE DIHED IMPRP ELECT VDW BOUNDARY MISC KINETIC TOTAL TEMP POTENTIAL TOTALAVG TEMPAVG PRESSURE GPRESSURE VOLUME PRESSAVG GPRESSAVG
ENERGY: 0 0.5269 3.7128 0.0369 0.0000 -10572.9288 1380.2692 0.0000 0.0000 1755.2705 -7433.1125 301.1566 -9188.3831 -7433.1125 301.1566 -354.8708 -268.2917 30038.3908 -354.8708 -268.2917
ENERGY: 300000 0.8361 4.2207 0.5507 0.0000 -10699.6151 1515.1492 0.0000 0.0000 1810.1785 -7368.6799 310.5773 -9178.8584 -7458.9469 300.8417 650.8841 675.9589 30105.7420 54.8604 102.4438
ENERGY: 600000 0.9041 7.7093 0.2604 0.0000 -10578.7682 1441.6279 0.0000 0.0000 1729.4483 -7398.8181 296.7262 -9128.2664 -7423.3309 301.4182 153.3568 234.8295 30199.6844 -163.2695 -125.4375
ENERGY: 900000 0.5254 5.9471 1.0401 0.0000 -10621.1561 1456.6933 0.0000 0.0000 1705.3541 -7451.5962 292.5923 -9156.9502 -7423.0076 300.3308 623.4990 675.0411 29574.5059 -116.1513 -77.9329
ENERGY: 1200000 0.9660 8.6926 0.8308 0.0000 -10556.5788 1373.3812 0.0000 0.0000 1687.4086 -7485.2995 289.5133 -9172.7081 -7433.9576 299.6473 -182.5075 -168.9082 29839.4588 -176.2136 -133.5499
ENERGY: 1500000 0.3593 6.1817 1.6386 0.0000 -10545.4338 1309.8911 0.0000 0.0000 1773.0643 -7454.2987 304.2095 -9227.3630 -7430.9768 300.7181 -937.9942 -931.6062 30019.7091 -200.7175 -158.8684
TCL: Running FEP window  14: Lambda1 0.65   Lambda2 0.7000000000000001 [dLambda 0.050000000000000044]
TCL: Setting parameter firsttimestep to 0
TCL: Setting parameter alchLambda to 0.65
Info: NONBONDED TABLE R-SQUARED SPACING: 0.0625
Info: NONBONDED TABLE SIZE: 705 POINTS
TCL: Setting parameter alchLambda2 to 0.7000000000000001
Info: NONBONDED TABLE R-SQUARED SPACING: 0.0625
Info: NONBONDED TABLE SIZE: 705 POINTS
TCL: Running for 1500000 steps
ETITLE: TS BOND ANGLE DIHED IMPRP ELECT VDW BOUNDARY MISC KINETIC TOTAL TEMP POTENTIAL TOTALAVG TEMPAVG PRESSURE GPRESSURE VOLUME PRESSAVG GPRESSAVG
ENERGY: 0 0.3593 6.1817 1.6386 0.0000 -10545.2957 1309.8559 0.0000 0.0000 1772.1895 -7455.0707 304.0594 -9227.2601 -7455.0707 304.0594 -1015.4279 -927.9488 30019.7091 -1015.4279 -927.9488
ENERGY: 300000 0.8047 6.8028 0.1381 0.0000 -10553.6163 1414.4678 0.0000 0.0000 1729.5046 -7401.8984 296.7359 -9131.4029 -7402.9468 301.1545 -98.8022 -10.2779 30248.0010 -247.1707 -189.0132
ENERGY: 600000 0.2394 3.7944 1.7344 0.0000 -10598.5684 1430.6405 0.0000 0.0000 1733.5718 -7428.5879 297.4337 -9162.1596 -7395.2298 301.4275 -297.7476 -165.2695 30733.4711 -88.6020 -16.2958
ENERGY: 900000 0.5797 4.7390 1.0899 0.0000 -10518.8961 1361.7734 0.0000 0.0000 1773.5884 -7377.1258 304.2994 -9150.7142 -7398.6193 302.5085 -193.0465 -66.0062 29776.2186 -57.2054 27.1056
ENERGY: 1200000 0.5361 5.2727 1.3547 0.0000 -10513.2296 1377.1466 0.0000 0.0000 1740.1308 -7388.7886 298.5590 -9128.9194 -7408.6097 299.8692 -504.4499 -409.1747 30762.5840 -66.8630 14.3899
ENERGY: 1500000 1.1270 4.9260 2.6095 0.0000 -10624.8681 1419.7402 0.0000 0.0000 1755.6896 -7440.7759 301.2285 -9196.4655 -7420.3331 299.2541 -207.4928 -57.2817 30340.4570 -24.3532 58.3854
TCL: Running FEP window  15: Lambda1 0.7000000000000001 Lambda2 0.7500000000000001 [dLambda 0.050000000000000044]
TCL: Setting parameter firsttimestep to 0
TCL: Setting parameter alchLambda to 0.7000000000000001
Info: NONBONDED TABLE R-SQUARED SPACING: 0.0625
Info: NONBONDED TABLE SIZE: 705 POINTS
TCL: Setting parameter alchLambda2 to 0.7500000000000001
Info: NONBONDED TABLE R-SQUARED SPACING: 0.0625
Info: NONBONDED TABLE SIZE: 705 POINTS
TCL: Running for 1500000 steps
ETITLE: TS BOND ANGLE DIHED IMPRP ELECT VDW BOUNDARY MISC KINETIC TOTAL TEMP POTENTIAL TOTALAVG TEMPAVG PRESSURE GPRESSURE VOLUME PRESSAVG GPRESSAVG
ENERGY: 0 1.1270 4.9260 2.6095 0.0000 -10625.1195 1420.7025 0.0000 0.0000 1754.8158 -7440.9388 301.0786 -9195.7545 -7440.9388 301.0786 -127.4290 -42.5915 30340.4570 -127.4290 -42.5915
ENERGY: 300000 2.2320 7.7164 0.2687 0.0000 -10710.9642 1479.5475 0.0000 0.0000 1770.6781 -7450.5217 303.8001 -9221.1997 -7478.4542 300.9032 460.4270 495.3696 29855.1662 -72.6018 -0.6420
ENERGY: 600000 0.0812 6.3224 0.5270 0.0000 -10488.9302 1347.0698 0.0000 0.0000 1662.7612 -7472.1687 285.2845 -9134.9299 -7473.4793 297.1059 -426.3953 -450.7225 30295.3590 -95.3253 -31.7381
ENERGY: 900000 0.2329 7.8582 1.3050 0.0000 -10673.7782 1465.3416 0.0000 0.0000 1736.8646 -7462.1760 297.9986 -9199.0405 -7467.3745 297.0903 508.9336 542.7474 29838.3722 -149.2713 -76.8066
ENERGY: 1200000 3.5746 2.5177 0.3019 0.0000 -10623.4814 1460.8162 0.0000 0.0000 1701.3637 -7454.9073 291.9077 -9156.2710 -7473.8672 296.5922 459.9187 527.7005 29952.1726 -19.1492 53.6186
ENERGY: 1500000 1.2202 3.7315 0.8281 0.0000 -10626.3129 1439.4089 0.0000 0.0000 1740.3553 -7440.7690 298.5976 -9181.1243 -7467.8018 297.2384 -20.5104 100.1365 30168.3119 -34.0336 39.1141
TCL: Running FEP window  16: Lambda1 0.7500000000000001 Lambda2 0.8000000000000002 [dLambda 0.050000000000000044]
TCL: Setting parameter firsttimestep to 0
TCL: Setting parameter alchLambda to 0.7500000000000001
Info: NONBONDED TABLE R-SQUARED SPACING: 0.0625
Info: NONBONDED TABLE SIZE: 705 POINTS
TCL: Setting parameter alchLambda2 to 0.8000000000000002
Info: NONBONDED TABLE R-SQUARED SPACING: 0.0625
Info: NONBONDED TABLE SIZE: 705 POINTS
TCL: Running for 1500000 steps
ETITLE: TS BOND ANGLE DIHED IMPRP ELECT VDW BOUNDARY MISC KINETIC TOTAL TEMP POTENTIAL TOTALAVG TEMPAVG PRESSURE GPRESSURE VOLUME PRESSAVG GPRESSAVG
ENERGY: 0 1.2202 3.7315 0.8281 0.0000 -10626.3729 1439.1943 0.0000 0.0000 1739.4583 -7441.9405 298.4437 -9181.3988 -7441.9405 298.4437 2.1734 102.6268 30168.3119 2.1734 102.6268
ENERGY: 300000 0.1645 4.6811 0.1467 0.0000 -10533.9128 1346.0346 0.0000 0.0000 1766.0769 -7416.8090 303.0107 -9182.8860 -7447.8794 302.0412 -600.2390 -453.5310 29986.3109 -270.6882 -203.0438
ENERGY: 600000 0.5437 5.6611 0.8760 0.0000 -10638.4210 1405.0466 0.0000 0.0000 1799.6068 -7426.6868 308.7635 -9226.2936 -7445.7178 301.8066 -168.4703 -109.7984 30096.9090 -190.0096 -129.7383
ENERGY: 900000 2.3490 5.6791 0.3230 0.0000 -10703.6436 1444.0868 0.0000 0.0000 1749.2639 -7501.9419 300.1260 -9251.2057 -7448.1614 300.3216 -17.3439 118.8063 29776.2816 -150.8040 -82.2425
ENERGY: 1200000 1.3387 2.3954 1.5694 0.0000 -10616.9552 1405.4917 0.0000 0.0000 1831.7038 -7374.4562 314.2705 -9206.1600 -7433.8670 301.8050 -201.8889 -149.2075 30282.0021 -151.1522 -80.1224
ENERGY: 1500000 0.6890 4.3560 0.4696 0.0000 -10609.6448 1489.3066 0.0000 0.0000 1737.2786 -7377.5449 298.0697 -9114.8235 -7429.9961 301.1186 803.9304 883.5082 30130.4511 -52.5175 17.4682
TCL: Running FEP window  17: Lambda1 0.8000000000000002 Lambda2 0.8500000000000002 [dLambda 0.050000000000000044]
TCL: Setting parameter firsttimestep to 0
TCL: Setting parameter alchLambda to 0.8000000000000002
Info: NONBONDED TABLE R-SQUARED SPACING: 0.0625
Info: NONBONDED TABLE SIZE: 705 POINTS
TCL: Setting parameter alchLambda2 to 0.8500000000000002
Info: NONBONDED TABLE R-SQUARED SPACING: 0.0625
Info: NONBONDED TABLE SIZE: 705 POINTS
TCL: Running for 1500000 steps
ETITLE: TS BOND ANGLE DIHED IMPRP ELECT VDW BOUNDARY MISC KINETIC TOTAL TEMP POTENTIAL TOTALAVG TEMPAVG PRESSURE GPRESSURE VOLUME PRESSAVG GPRESSAVG
ENERGY: 0 0.6890 4.3560 0.4696 0.0000 -10609.8238 1489.3698 0.0000 0.0000 1736.3811 -7378.5583 297.9157 -9114.9394 -7378.5583 297.9157 803.4440 893.4349 30130.4511 803.4440 893.4349
ENERGY: 300000 1.8262 5.0506 1.4161 0.0000 -10595.1677 1443.5308 0.0000 0.0000 1758.5341 -7384.8098 301.7165 -9143.3439 -7445.4721 296.7168 260.7512 284.9535 30557.5966 157.6502 185.7413
ENERGY: 600000 0.9408 4.8589 0.8791 0.0000 -10592.2911 1404.4369 0.0000 0.0000 1743.1119 -7438.0636 299.0705 -9181.1755 -7463.0071 297.3109 -263.8510 -191.9564 30358.6105 94.8917 131.7323
ENERGY: 900000 0.1484 4.1742 0.9195 0.0000 -10663.2094 1447.2394 0.0000 0.0000 1749.7140 -7461.0139 300.2033 -9210.7279 -7466.0431 297.3483 -23.6975 13.0927 30393.8922 14.5816 57.5621
ENERGY: 1200000 0.6262 6.5603 0.5467 0.0000 -10705.2675 1490.8470 0.0000 0.0000 1764.5747 -7442.1125 302.7529 -9206.6873 -7459.7738 298.6136 664.2817 662.5786 29802.0521 118.6677 164.0122
ENERGY: 1500000 0.6289 4.4651 1.9452 0.0000 -10703.0584 1475.3360 0.0000 0.0000 1761.7821 -7458.9011 302.2738 -9220.6833 -7465.1027 298.6257 469.6964 502.9682 30040.3068 141.1469 186.4221
TCL: Running FEP window  18: Lambda1 0.8500000000000002 Lambda2 0.9000000000000002 [dLambda 0.050000000000000044]
TCL: Setting parameter firsttimestep to 0
TCL: Setting parameter alchLambda to 0.8500000000000002
Info: NONBONDED TABLE R-SQUARED SPACING: 0.0625
Info: NONBONDED TABLE SIZE: 705 POINTS
TCL: Setting parameter alchLambda2 to 0.9000000000000002
Info: NONBONDED TABLE R-SQUARED SPACING: 0.0625
Info: NONBONDED TABLE SIZE: 705 POINTS
TCL: Running for 1500000 steps
ETITLE: TS BOND ANGLE DIHED IMPRP ELECT VDW BOUNDARY MISC KINETIC TOTAL TEMP POTENTIAL TOTALAVG TEMPAVG PRESSURE GPRESSURE VOLUME PRESSAVG GPRESSAVG
ENERGY: 0 0.6289 4.4651 1.9452 0.0000 -10702.9352 1475.2321 0.0000 0.0000 1760.9290 -7459.7350 302.1274 -9220.6640 -7459.7350 302.1274 431.1760 510.4096 30040.3068 431.1760 510.4096
ENERGY: 300000 1.8852 4.4609 1.8825 0.0000 -10577.5496 1375.5220 0.0000 0.0000 1732.5182 -7461.2808 297.2529 -9193.7990 -7457.9495 302.2829 -300.3696 -245.7028 29830.1826 32.8522 106.2854
ENERGY: 600000 2.5805 3.8981 0.7003 0.0000 -10588.2566 1396.8726 0.0000 0.0000 1715.2272 -7468.9778 294.2863 -9184.2051 -7448.7656 301.4405 -292.9233 -212.4090 30157.1419 -152.8600 -83.6099
ENERGY: 900000 1.4016 7.6705 0.7734 0.0000 -10549.3571 1397.0469 0.0000 0.0000 1780.9097 -7361.5551 305.5556 -9142.4648 -7432.9438 304.0245 -206.9247 -200.5844 30570.9206 -142.4479 -80.1406
ENERGY: 1200000 0.4340 3.8871 1.2857 0.0000 -10803.7998 1512.5360 0.0000 0.0000 1727.2724 -7558.3847 296.3529 -9285.6571 -7448.4481 302.1686 842.6695 944.2009 29188.2883 -102.6238 -37.8728
ENERGY: 1500000 1.1110 5.3484 1.2369 0.0000 -10580.5396 1359.5675 0.0000 0.0000 1796.1392 -7417.1368 308.1685 -9213.2759 -7445.5261 301.8257 -762.0288 -676.3838 30579.5431 -184.4347 -119.7960
TCL: Running FEP window  19: Lambda1 0.9000000000000002 Lambda2 0.9500000000000003 [dLambda 0.050000000000000044]
TCL: Setting parameter firsttimestep to 0
TCL: Setting parameter alchLambda to 0.9000000000000002
Info: NONBONDED TABLE R-SQUARED SPACING: 0.0625
Info: NONBONDED TABLE SIZE: 705 POINTS
TCL: Setting parameter alchLambda2 to 0.9500000000000003
Info: NONBONDED TABLE R-SQUARED SPACING: 0.0625
Info: NONBONDED TABLE SIZE: 705 POINTS
TCL: Running for 1500000 steps
ETITLE: TS BOND ANGLE DIHED IMPRP ELECT VDW BOUNDARY MISC KINETIC TOTAL TEMP POTENTIAL TOTALAVG TEMPAVG PRESSURE GPRESSURE VOLUME PRESSAVG GPRESSAVG
ENERGY: 0 1.1109 5.3484 1.2369 0.0000 -10581.1441 1359.2271 0.0000 0.0000 1795.2625 -7418.9583 308.0181 -9214.2208 -7418.9583 308.0181 -755.6909 -671.4393 30579.5431 -755.6909 -671.4393
ENERGY: 300000 0.1303 3.9357 0.2091 0.0000 -10766.1013 1512.5601 0.0000 0.0000 1771.1373 -7478.1288 303.8789 -9249.2661 -7422.1143 305.3349 759.2819 799.6962 29813.5461 -207.0878 -153.2050
ENERGY: 600000 0.7204 5.0596 0.8479 0.0000 -10490.7579 1351.6007 0.0000 0.0000 1712.4871 -7420.0422 293.8161 -9132.5294 -7427.3509 303.3630 -533.6268 -535.4636 30766.0351 -290.3270 -244.9621
ENERGY: 900000 0.7697 5.5755 0.6717 0.0000 -10678.0899 1453.8656 0.0000 0.0000 1806.3561 -7410.8514 309.9215 -9217.2075 -7423.4044 303.8901 -31.0478 71.2508 30333.3418 -296.6186 -233.8738
ENERGY: 1200000 1.3888 5.0271 1.0578 0.0000 -10623.4756 1432.3726 0.0000 0.0000 1771.3405 -7412.2888 303.9138 -9183.6293 -7431.5227 302.1420 88.0512 135.2771 30166.6733 -234.5712 -171.3756
ENERGY: 1500000 0.4669 5.1867 0.7078 0.0000 -10711.6316 1477.8991 0.0000 0.0000 1746.5538 -7480.8173 299.6611 -9227.3712 -7435.8857 301.9596 235.5945 294.8806 30421.0155 -68.8772 -6.0508
TCL: Running FEP window  20: Lambda1 0.9500000000000003 Lambda2 1.0    [dLambda 0.04999999999999971]
TCL: Setting parameter firsttimestep to 0
TCL: Setting parameter alchLambda to 0.9500000000000003
Info: NONBONDED TABLE R-SQUARED SPACING: 0.0625
Info: NONBONDED TABLE SIZE: 705 POINTS
TCL: Setting parameter alchLambda2 to 1.0
Info: NONBONDED TABLE R-SQUARED SPACING: 0.0625
Info: NONBONDED TABLE SIZE: 705 POINTS
TCL: Running for 1500000 steps
ETITLE: TS BOND ANGLE DIHED IMPRP ELECT VDW BOUNDARY MISC KINETIC TOTAL TEMP POTENTIAL TOTALAVG TEMPAVG PRESSURE GPRESSURE VOLUME PRESSAVG GPRESSAVG
ENERGY: 0 0.4669 5.1867 0.7078 0.0000 -10712.0092 1478.0240 0.0000 0.0000 1745.7043 -7481.9195 299.5153 -9227.6238 -7481.9195 299.5153 227.1088 307.3511 30421.0155 227.1088 307.3511
ENERGY: 300000 1.4696 4.3682 0.6686 0.0000 -10656.8187 1426.9089 0.0000 0.0000 1723.7014 -7499.7020 295.7402 -9223.4033 -7453.2532 299.0455 -170.2384 -177.6024 30368.5726 229.8791 279.3552
ENERGY: 600000 0.7449 7.1295 0.5111 0.0000 -10603.2531 1450.3650 0.0000 0.0000 1774.3530 -7370.1496 304.4306 -9144.5026 -7434.9063 299.1311 241.5843 362.5911 30300.4888 55.9111 119.3656
ENERGY: 900000 2.7310 5.1662 1.7838 0.0000 -10591.1165 1459.1151 0.0000 0.0000 1702.1954 -7420.1251 292.0504 -9122.3205 -7439.8260 299.0321 534.1874 608.6950 29711.4149 103.8823 164.7043
ENERGY: 1200000 0.8112 3.5304 0.6724 0.0000 -10579.1265 1434.7410 0.0000 0.0000 1725.5790 -7413.7925 296.0623 -9139.3715 -7433.7021 299.8037 188.8107 213.0140 30389.9594 123.7635 175.0289
ENERGY: 1500000 1.0893 7.0984 0.5616 0.0000 -10709.3973 1506.9211 0.0000 0.0000 1726.7349 -7466.9921 296.2607 -9193.7270 -7431.1619 300.1808 398.8138 491.0532 30347.0484 157.5706 214.8496
TCL: Exiting due to exit command.
