Info: SIMULATION PARAMETERS:
Info: TIMESTEP               2
Info: NUMBER OF STEPS        0
Info: STEPS PER CYCLE        10
Info: PERIODIC CELL BASIS 1  31.0065 0 0
Info: PERIODIC CELL BASIS 2  0 29.6 0
Info: PERIODIC CELL BASIS 3  0 0 32.9642
Info: PERIODIC CELL CENTER   0 0 0
Info: WRAPPING WATERS AROUND PERIODIC BOUNDARIES ON OUTPUT.
Info: WRAPPING ALL CLUSTERS AROUND PERIODIC BOUNDARIES ON OUTPUT.
Info: FIRST LDB TIMESTEP     50
Info: LAST LDB TIMESTEP     -1
Info: HOM BACKGROUND SCALING 1
Info: PME BACKGROUND SCALING 1
Info: MIN ATOMS PER PATCH    40
Info: EMPTY PATCH LOAD       40 ATOMS
Info: VELOCITY FILE          mobley_3515580_equil.vel
Info: CENTER OF MASS MOVING INITIALLY? NO
Info: DIELECTRIC             1
Info: EXCLUDE                SCALED ONE-FOUR
Info: 1-4 ELECTROSTATICS SCALED BY 0.833333
Info: MODIFIED 1-4 VDW PARAMETERS WILL BE USED
Info: DCD FILENAME           mobley_3515580_prod.dcd
Info: DCD FREQUENCY          100000
Info: DCD FIRST STEP         100000
Info: DCD FILE WILL CONTAIN UNIT CELL DATA
Info: XST FILENAME           mobley_3515580_prod.xst
Info: XST FREQUENCY          100000
Info: NO VELOCITY DCD OUTPUT
Info: NO FORCE DCD OUTPUT
Info: OUTPUT FILENAME        mobley_3515580_prod
Info: BINARY OUTPUT FILES WILL BE USED
Info: RESTART FILENAME       mobley_3515580_prod.restart
Info: RESTART FREQUENCY      100000
Info: BINARY RESTART FILES WILL BE USED
Info: CUTOFF                 9
Info: PAIRLIST DISTANCE      11
Info: PAIRLIST SHRINK RATE   0.01
Info: PAIRLIST GROW RATE     0.01
Info: PAIRLIST TRIGGER       0.3
Info: PAIRLISTS PER CYCLE    2
Info: PAIRLISTS ENABLED
Info: MARGIN                 2
Info: HYDROGEN GROUP CUTOFF  2.5
Info: PATCH DIMENSION        15.5
Info: ENERGY OUTPUT STEPS    100000
Info: ENERGY EVALUATION STEPS    100000
Info: OUTPUT ENERGY PRECISION 4
Info: CROSSTERM ENERGY INCLUDED IN DIHEDRAL
Info: TIMING OUTPUT STEPS    1000000
Info: PRESSURE OUTPUT STEPS  100000
Info: ALCHEMICAL FEP ON
Info: FEP CURRENT LAMBDA VALUE     0
Info: FEP COMPARISON LAMBDA VALUE  0.05
Info: FEP INTRA-ALCHEMICAL NON-BONDED INTERACTIONS WILL BE RETAINED
Info: FEP INTRA-ALCHEMICAL BONDED INTERACTIONS WILL BE RETAINED
Info: FEP VDW SHIFTING COEFFICIENT 5
Info: FEP ELEC. ACTIVE FOR ANNIHILATED PARTICLES BETWEEN LAMBDA = 0 AND LAMBDA = 0.5
Info: FEP ELEC. ACTIVE FOR EXNIHILATED PARTICLES BETWEEN LAMBDA = 0.5 AND LAMBDA = 1
Info: FEP VDW ACTIVE FOR ANNIHILATED PARTICLES BETWEEN LAMBDA = 0 AND LAMBDA = 1
Info: FEP VDW ACTIVE FOR EXNIHILATED PARTICLES BETWEEN LAMBDA = 0 AND LAMBDA = 1
Info: FEP BOND ACTIVE FOR ANNIHILATED PARTICLES BETWEEN LAMBDA = 1 AND LAMBDA = 1
Info: FEP BOND ACTIVE FOR EXNIHILATED PARTICLES BETWEEN LAMBDA = 0 AND LAMBDA = 0
Info: LANGEVIN DYNAMICS ACTIVE
Info: LANGEVIN TEMPERATURE   300
Info: LANGEVIN USING BBK INTEGRATOR
Info: LANGEVIN DAMPING COEFFICIENT IS 1 INVERSE PS
Info: LANGEVIN DYNAMICS APPLIED TO HYDROGENS
Info: LANGEVIN PISTON PRESSURE CONTROL ACTIVE
Info:        TARGET PRESSURE IS 1.01325 BAR
Info:     OSCILLATION PERIOD IS 50 FS
Info:             DECAY TIME IS 25 FS
Info:     PISTON TEMPERATURE IS 300 K
Info:       PRESSURE CONTROL IS GROUP-BASED
Info:    INITIAL STRAIN RATE IS -0.000574643 -0.000574643 -0.000574643
Info:       CELL FLUCTUATION IS ISOTROPIC
Info: PARTICLE MESH EWALD (PME) ACTIVE
Info: PME TOLERANCE               1e-06
Info: PME EWALD COEFFICIENT       0.348832
Info: PME INTERPOLATION ORDER     4
Info: PME GRID DIMENSIONS         32 32 36
Info: PME MAXIMUM GRID SPACING    1
Info: PME CALCULATION WILL BE PERFORMED ON GPU
Info: FULL ELECTROSTATIC EVALUATION FREQUENCY      2
Info: USING VERLET I (r-RESPA) MTS SCHEME.
Info: C1 SPLITTING OF LONG RANGE ELECTROSTATICS
Info: PLACING ATOMS IN PATCHES BY HYDROGEN GROUPS
Info: RIGID BONDS TO HYDROGEN : ALL
Info:         ERROR TOLERANCE : 1e-08
Info:          MAX ITERATIONS : 100
Info: RIGID WATER USING SETTLE ALGORITHM
Info: RANDOM NUMBER SEED     1743765157
Info: USE HYDROGEN BONDS?    NO
Info: Using AMBER format force field!
Info: AMBER PARM FILE        mobley_3515580.prmtop
Info: COORDINATE PDB         mobley_3515580.pdb
Info: Exclusions will be read from PARM file!
Info: SCNB (VDW SCALING)     2
Info: USING ARITHMETIC MEAN TO COMBINE L-J SIGMA PARAMETERS
Info: BINARY COORDINATES     mobley_3515580_equil.coor
Info: SUMMARY OF PARAMETERS:
Info: 9 BONDS
Info: 8 ANGLES
Info:   8 HARMONIC
Info:   0 COSINE-BASED
Info: 4 DIHEDRAL
Info: 0 IMPROPER
Info: 0 CROSSTERM
Info: 0 VDW
Info: 36 VDW_PAIRS
Info: 0 NBTHOLE_PAIRS
Info: To read alchdata from file: mobley_3515580.pdb
Info: To read alchflag data from column: 5
Info: STRUCTURE SUMMARY:
Info: 2927 ATOMS
Info: 2927 BONDS
Info: 26 ANGLES
Info: 37 DIHEDRALS
Info: 0 IMPROPERS
Info: 0 CROSSTERMS
Info: 2981 EXCLUSIONS
Info: 2918 RIGID BONDS
Info: ALCH: 0 ATOMS TO DISAPPEAR IN FINAL STATE
Info: ALCH: 17 ATOMS TO APPEAR IN FINAL STATE
Info: 5863 DEGREES OF FREEDOM
Info: 979 HYDROGEN GROUPS
Info: 4 ATOMS IN LARGEST HYDROGEN GROUP
Info: 979 MIGRATION GROUPS
Info: 4 ATOMS IN LARGEST MIGRATION GROUP
Info: TOTAL MASS = 17599.7 amu
Info: TOTAL CHARGE = -0.000199955 e
Info: MASS DENSITY = 0.965996 g/cm^3
Info: ATOM DENSITY = 0.0967464 atoms/A^3
Info: ADDED 0 IMPLICIT EXCLUSIONS
Info: NONBONDED TABLE R-SQUARED SPACING: 0.0625
Info: NONBONDED TABLE SIZE: 705 POINTS
Info: REMOVING COM VELOCITY 0.180693 -0.0391972 -0.23031
Info: Use 3D box decompostion in PME FFT.
Info: Updated CUDA force table with 4096 elements.
Info: Updated CUDA LJ table with 8 x 8 elements.
Info: Found 16 unique exclusion lists needing 36 bytes
TCL: Running for 1500000 steps
ETITLE: TS BOND ANGLE DIHED IMPRP ELECT VDW BOUNDARY MISC KINETIC TOTAL TEMP POTENTIAL TOTALAVG TEMPAVG PRESSURE GPRESSURE VOLUME PRESSAVG GPRESSAVG
ENERGY: 0 2.1457 4.3504 8.7459 0.0000 -10520.4403 1395.5767 0.0000 0.0000 1745.4313 -7364.1902 299.6217 -9109.6215 -7364.1902 299.6217 -149.8168 -61.4678 30254.3662 -149.8168 -61.4678
ENERGY: 300000 2.8401 4.6140 4.0006 0.0000 -10531.9515 1389.9578 0.0000 0.0000 1795.0295 -7335.5096 308.1357 -9130.5391 -7388.5118 302.8356 -344.6040 -339.6242 30192.2871 -318.8613 -263.1554
ENERGY: 600000 2.8143 9.4933 3.6675 0.0000 -10531.1666 1311.1670 0.0000 0.0000 1739.1604 -7464.8641 298.5452 -9204.0245 -7391.5516 303.7148 -1110.9110 -1038.3047 30109.7544 -267.7332 -209.4434
ENERGY: 900000 1.5444 6.3842 1.8667 0.0000 -10601.0578 1404.3506 0.0000 0.0000 1817.7304 -7369.1816 312.0326 -9186.9119 -7397.8490 303.7085 87.6557 159.4186 29453.2589 -113.1026 -52.6205
ENERGY: 1200000 3.4400 6.9292 3.7018 0.0000 -10557.6943 1428.8416 0.0000 0.0000 1817.5325 -7297.2491 311.9986 -9114.7817 -7395.6312 303.9908 -57.4230 24.8707 30088.2826 -116.7809 -47.8561
ENERGY: 1500000 1.8417 6.4641 6.8603 0.0000 -10575.6600 1412.5802 0.0000 0.0000 1725.0667 -7422.8469 296.1259 -9147.9136 -7397.0876 303.7249 -148.8981 -102.3882 30061.5701 -105.4986 -40.3196
TCL: Running FEP window   2: Lambda1 0.05   Lambda2 0.1    [dLambda 0.05  ]
TCL: Setting parameter firsttimestep to 0
TCL: Setting parameter alchLambda to 0.05
Info: NONBONDED TABLE R-SQUARED SPACING: 0.0625
Info: NONBONDED TABLE SIZE: 705 POINTS
TCL: Setting parameter alchLambda2 to 0.1
Info: NONBONDED TABLE R-SQUARED SPACING: 0.0625
Info: NONBONDED TABLE SIZE: 705 POINTS
TCL: Running for 1500000 steps
ETITLE: TS BOND ANGLE DIHED IMPRP ELECT VDW BOUNDARY MISC KINETIC TOTAL TEMP POTENTIAL TOTALAVG TEMPAVG PRESSURE GPRESSURE VOLUME PRESSAVG GPRESSAVG
ENERGY: 0 1.8417 6.4641 6.8603 0.0000 -10575.6603 1414.8446 0.0000 0.0000 1724.2056 -7421.4440 295.9781 -9145.6496 -7421.4440 295.9781 -181.5209 -97.3682 30061.5701 -181.5209 -97.3682
ENERGY: 300000 1.8162 1.9699 4.3400 0.0000 -10659.9305 1437.2172 0.0000 0.0000 1759.9567 -7454.6307 302.1151 -9214.5874 -7392.7190 301.4167 -428.4082 -323.1082 30486.1856 -405.4275 -334.6058
ENERGY: 600000 2.8017 2.8815 3.7373 0.0000 -10626.5905 1403.0392 0.0000 0.0000 1715.2326 -7498.8982 294.4378 -9214.1308 -7396.8109 301.1889 -347.0839 -330.5539 29714.0479 -301.3596 -242.3725
ENERGY: 900000 3.3008 4.3108 5.5442 0.0000 -10501.6724 1380.1478 0.0000 0.0000 1766.3314 -7342.0374 303.2094 -9108.3688 -7380.7191 303.7311 -318.1640 -291.4832 30167.2694 -308.8916 -251.1828
ENERGY: 1200000 3.2971 8.5331 3.5415 0.0000 -10591.6754 1460.6987 0.0000 0.0000 1711.0951 -7404.5099 293.7275 -9115.6049 -7386.0444 302.1366 129.4191 169.5572 29965.0815 -255.4157 -202.7938
ENERGY: 1500000 2.1861 7.0137 2.8027 0.0000 -10619.2885 1455.7694 0.0000 0.0000 1701.4309 -7450.0857 292.0686 -9151.5167 -7390.3040 301.7800 -250.3262 -228.2692 30492.1548 -333.0139 -286.2810
TCL: Running FEP window   3: Lambda1 0.1    Lambda2 0.15000000000000002 [dLambda 0.05000000000000002]
TCL: Setting parameter firsttimestep to 0
TCL: Setting parameter alchLambda to 0.1
Info: NONBONDED TABLE R-SQUARED SPACING: 0.0625
Info: NONBONDED TABLE SIZE: 705 POINTS
TCL: Setting parameter alchLambda2 to 0.15000000000000002
Info: NONBONDED TABLE R-SQUARED SPACING: 0.0625
Info: NONBONDED TABLE SIZE: 705 POINTS
TCL: Running for 1500000 steps
ETITLE: TS BOND ANGLE DIHED IMPRP ELECT VDW BOUNDARY MISC KINETIC TOTAL TEMP POTENTIAL TOTALAVG TEMPAVG PRESSURE GPRESSURE VOLUME PRESSAVG GPRESSAVG
ENERGY: 0 2.1861 7.0137 2.8027 0.0000 -10619.2899 1461.9459 0.0000 0.0000 1700.5317 -7444.8099 291.9142 -9145.3416 -7444.8099 291.9142 -280.7805 -213.3054 30492.1548 -280.7805 -213.3054
ENERGY: 300000 1.4590 6.4671 3.9118 0.0000 -10452.7045 1345.8476 0.0000 0.0000 1713.5539 -7381.4652 294.1496 -9095.0190 -7412.4154 294.0377 -644.7781 -629.7099 30413.9981 -586.8076 -560.6975
ENERGY: 600000 1.5187 6.9263 2.3946 0.0000 -10574.7040 1397.5682 0.0000 0.0000 1739.5426 -7426.7537 298.6108 -9166.2963 -7408.4133 297.3537 -106.3850 -8.6702 29791.6686 -227.9610 -190.7866
ENERGY: 900000 2.9663 11.1050 5.5855 0.0000 -10588.4348 1389.4102 0.0000 0.0000 1734.1556 -7445.2122 297.6861 -9179.3678 -7399.2620 298.8057 -229.3850 -182.5418 29804.4964 -255.7606 -218.5352
ENERGY: 1200000 3.2000 7.7745 3.6329 0.0000 -10691.5460 1458.7527 0.0000 0.0000 1754.9416 -7463.2444 301.2542 -9218.1860 -7412.4383 298.3602 43.1959 46.9552 30124.3466 -195.8155 -157.1812
ENERGY: 1500000 4.6648 4.4754 3.5642 0.0000 -10516.2606 1401.8225 0.0000 0.0000 1826.2642 -7275.4695 313.4975 -9101.7337 -7398.4709 299.4490 -59.2547 60.3229 30069.3201 -169.3058 -119.6800
TCL: Running FEP window   4: Lambda1 0.15000000000000002 Lambda2 0.2    [dLambda 0.04999999999999999]
TCL: Setting parameter firsttimestep to 0
TCL: Setting parameter alchLambda to 0.15000000000000002
Info: NONBONDED TABLE R-SQUARED SPACING: 0.0625
Info: NONBONDED TABLE SIZE: 705 POINTS
TCL: Setting parameter alchLambda2 to 0.2
Info: NONBONDED TABLE R-SQUARED SPACING: 0.0625
Info: NONBONDED TABLE SIZE: 705 POINTS
TCL: Running for 1500000 steps
ETITLE: TS BOND ANGLE DIHED IMPRP ELECT VDW BOUNDARY MISC KINETIC TOTAL TEMP POTENTIAL TOTALAVG TEMPAVG PRESSURE GPRESSURE VOLUME PRESSAVG GPRESSAVG
ENERGY: 0 4.6648 4.4754 3.5642 0.0000 -10516.2596 1402.0662 0.0000 0.0000 1825.3992 -7276.0898 313.3490 -9101.4889 -7276.0898 313.3490 -31.6429 67.0226 30069.3201 -31.6429 67.0226
ENERGY: 300000 3.7327 5.3335 2.5367 0.0000 -10623.2729 1405.2832 0.0000 0.0000 1742.0233 -7464.3635 299.0367 -9206.3868 -7390.3921 302.2746 -323.9104 -240.3557 29832.7041 -143.4922 -79.9037
ENERGY: 600000 2.4632 8.3588 2.6769 0.0000 -10618.0134 1422.7036 0.0000 0.0000 1783.2312 -7398.5798 306.1104 -9181.8111 -7392.4213 302.7173 112.4946 90.8336 30020.1089 -137.9793 -93.3087
ENERGY: 900000 8.3657 5.2060 2.9155 0.0000 -10567.9677 1364.5315 0.0000 0.0000 1726.0722 -7460.8768 296.2985 -9186.9490 -7382.7513 302.8083 -880.5357 -820.3229 30117.4700 -112.7685 -62.5847
ENERGY: 1200000 2.5244 8.1045 6.4007 0.0000 -10592.8486 1403.0900 0.0000 0.0000 1762.1793 -7410.5496 302.4967 -9172.7289 -7386.3055 302.5707 -376.2375 -285.7714 30157.7095 -104.6684 -53.8381
ENERGY: 1500000 1.5806 10.2213 5.2437 0.0000 -10578.5074 1442.1106 0.0000 0.0000 1689.0740 -7430.2772 289.9474 -9119.3511 -7399.9290 301.3706 13.1068 119.7673 29926.0274 -114.1889 -62.8043
TCL: Running FEP window   5: Lambda1 0.2    Lambda2 0.25   [dLambda 0.04999999999999999]
TCL: Setting parameter firsttimestep to 0
TCL: Setting parameter alchLambda to 0.2
Info: NONBONDED TABLE R-SQUARED SPACING: 0.0625
Info: NONBONDED TABLE SIZE: 705 POINTS
TCL: Setting parameter alchLambda2 to 0.25
Info: NONBONDED TABLE R-SQUARED SPACING: 0.0625
Info: NONBONDED TABLE SIZE: 705 POINTS
TCL: Running for 1500000 steps
ETITLE: TS BOND ANGLE DIHED IMPRP ELECT VDW BOUNDARY MISC KINETIC TOTAL TEMP POTENTIAL TOTALAVG TEMPAVG PRESSURE GPRESSURE VOLUME PRESSAVG GPRESSAVG
ENERGY: 0 1.5806 10.2213 5.2437 0.0000 -10578.5081 1443.4818 0.0000 0.0000 1688.1924 -7429.7883 289.7960 -9117.9806 -7429.7883 289.7960 43.0668 131.3161 29926.0274 43.0668 131.3161
ENERGY: 300000 5.1753 6.0511 2.5195 0.0000 -10488.5254 1368.5438 0.0000 0.0000 1767.4480 -7338.7877 303.4011 -9106.2357 -7391.8568 300.5450 -244.5583 -214.7983 30050.8246 -60.5845 -9.6376
ENERGY: 600000 1.3457 6.4706 1.8101 0.0000 -10584.0883 1381.4988 0.0000 0.0000 1787.1361 -7405.8270 306.7808 -9192.9631 -7383.9072 303.3100 -451.1369 -340.6200 30109.0243 -207.6704 -138.1349
ENERGY: 900000 2.5486 6.2600 8.0093 0.0000 -10694.6137 1501.2612 0.0000 0.0000 1764.4185 -7412.1161 302.8810 -9176.5345 -7396.9228 301.9257 776.2007 866.2527 29426.4196 -62.0471 9.5530
ENERGY: 1200000 6.0755 4.6186 4.6035 0.0000 -10716.4037 1474.4001 0.0000 0.0000 1710.9685 -7515.7376 293.7058 -9226.7061 -7418.3371 300.1769 -85.2979 102.8123 29929.5586 -15.6908 64.0955
ENERGY: 1500000 2.7312 7.4632 4.9649 0.0000 -10381.5841 1367.6956 0.0000 0.0000 1796.3569 -7202.3722 308.3636 -8998.7291 -7401.7098 300.9532 -280.6325 -188.3484 30607.1397 -35.1819 43.8255
TCL: Running FEP window   6: Lambda1 0.25   Lambda2 0.3    [dLambda 0.04999999999999999]
TCL: Setting parameter firsttimestep to 0
TCL: Setting parameter alchLambda to 0.25
Info: NONBONDED TABLE R-SQUARED SPACING: 0.0625
Info: NONBONDED TABLE SIZE: 705 POINTS
TCL: Setting parameter alchLambda2 to 0.3
Info: NONBONDED TABLE R-SQUARED SPACING: 0.0625
Info: NONBONDED TABLE SIZE: 705 POINTS
TCL: Running for 1500000 steps
ETITLE: TS BOND ANGLE DIHED IMPRP ELECT VDW BOUNDARY MISC KINETIC TOTAL TEMP POTENTIAL TOTALAVG TEMPAVG PRESSURE GPRESSURE VOLUME PRESSAVG GPRESSAVG
ENERGY: 0 2.7312 7.4632 4.9649 0.0000 -10381.5841 1368.8818 0.0000 0.0000 1795.4912 -7202.0518 308.2150 -8997.5430 -7202.0518 308.2150 -243.3164 -178.6804 30607.1397 -243.3164 -178.6804
ENERGY: 300000 1.5583 2.8349 5.5298 0.0000 -10496.3770 1431.3626 0.0000 0.0000 1740.0651 -7315.0262 298.7005 -9055.0913 -7333.6854 301.2744 305.7328 386.9763 30083.7226 -36.0174 28.2448
ENERGY: 600000 3.1740 6.2445 3.9157 0.0000 -10579.8312 1471.6070 0.0000 0.0000 1705.6837 -7389.2063 292.7986 -9094.8900 -7345.2363 300.3366 232.0455 306.2555 30089.3473 194.4840 260.7958
ENERGY: 900000 4.0211 3.8547 2.9283 0.0000 -10693.3741 1433.2426 0.0000 0.0000 1782.0817 -7467.2457 305.9131 -9249.3274 -7367.6222 300.6767 -329.9933 -200.6100 29737.2604 -1.0463 78.3291
ENERGY: 1200000 1.7675 4.8588 4.1036 0.0000 -10755.2827 1517.3096 0.0000 0.0000 1772.3771 -7454.8661 304.2472 -9227.2432 -7377.0037 301.2541 614.1330 646.8094 29797.1441 18.4625 90.7794
ENERGY: 1500000 0.5100 5.2518 8.2987 0.0000 -10605.5139 1418.9798 0.0000 0.0000 1720.8009 -7451.6728 295.3936 -9172.4737 -7390.5994 300.9785 -83.9395 32.9581 30041.6598 98.1819 166.2367
TCL: Running FEP window   7: Lambda1 0.3    Lambda2 0.35   [dLambda 0.04999999999999999]
TCL: Setting parameter firsttimestep to 0
TCL: Setting parameter alchLambda to 0.3
Info: NONBONDED TABLE R-SQUARED SPACING: 0.0625
Info: NONBONDED TABLE SIZE: 705 POINTS
TCL: Setting parameter alchLambda2 to 0.35
Info: NONBONDED TABLE R-SQUARED SPACING: 0.0625
Info: NONBONDED TABLE SIZE: 705 POINTS
TCL: Running for 1500000 steps
ETITLE: TS BOND ANGLE DIHED IMPRP ELECT VDW BOUNDARY MISC KINETIC TOTAL TEMP POTENTIAL TOTALAVG TEMPAVG PRESSURE GPRESSURE VOLUME PRESSAVG GPRESSAVG
ENERGY: 0 0.5100 5.2518 8.2987 0.0000 -10605.5136 1419.5345 0.0000 0.0000 1719.8816 -7452.0371 295.2358 -9171.9186 -7452.0371 295.2358 -49.9653 43.2419 30041.6598 -49.9653 43.2419
ENERGY: 300000 1.1968 4.9270 1.3954 0.0000 -10682.5174 1462.5229 0.0000 0.0000 1768.8951 -7443.5803 303.6495 -9212.4754 -7453.4643 298.9013 158.4565 198.5663 29893.2081 -238.1798 -187.2779
ENERGY: 600000 3.5747 4.1603 7.3851 0.0000 -10509.7527 1429.0164 0.0000 0.0000 1688.3335 -7377.2827 289.8202 -9065.6162 -7430.0193 299.5797 285.4125 334.4597 30105.0639 97.0750 158.3694
ENERGY: 900000 4.3899 7.6768 1.2069 0.0000 -10588.0323 1454.6142 0.0000 0.0000 1752.1114 -7368.0330 300.7684 -9120.1444 -7404.9371 300.4514 349.9305 381.7163 29833.4076 53.5280 111.4075
ENERGY: 1200000 6.3109 7.2035 4.8628 0.0000 -10563.4743 1399.8916 0.0000 0.0000 1798.6602 -7346.5453 308.7590 -9145.2055 -7407.0827 301.3589 -199.3833 -158.9492 30302.4920 19.1667 75.9681
ENERGY: 1500000 5.7668 4.4524 2.5684 0.0000 -10614.4315 1481.0918 0.0000 0.0000 1732.8093 -7387.7427 297.4550 -9120.5520 -7406.0609 300.9050 585.4063 701.7005 29816.5875 12.3425 69.1434
TCL: Running FEP window   8: Lambda1 0.35   Lambda2 0.39999999999999997 [dLambda 0.04999999999999999]
TCL: Setting parameter firsttimestep to 0
TCL: Setting parameter alchLambda to 0.35
Info: NONBONDED TABLE R-SQUARED SPACING: 0.0625
Info: NONBONDED TABLE SIZE: 705 POINTS
TCL: Setting parameter alchLambda2 to 0.39999999999999997
Info: NONBONDED TABLE R-SQUARED SPACING: 0.0625
Info: NONBONDED TABLE SIZE: 705 POINTS
TCL: Running for 1500000 steps
ETITLE: TS BOND ANGLE DIHED IMPRP ELECT VDW BOUNDARY MISC KINETIC TOTAL TEMP POTENTIAL TOTALAVG TEMPAVG PRESSURE GPRESSURE VOLUME PRESSAVG GPRESSAVG
ENERGY: 0 5.7668 4.4524 2.5684 0.0000 -10614.4313 1481.8212 0.0000 0.0000 1731.9551 -7387.8673 297.3084 -9119.8225 -7387.8673 297.3084 617.6373 706.8614 29816.5875 617.6373 706.8614
ENERGY: 300000 7.1156 6.2424 2.7069 0.0000 -10452.6515 1401.4986 0.0000 0.0000 1725.2124 -7309.8756 296.1509 -9035.0880 -7414.1226 297.0500 -356.1249 -315.6150 30675.0979 -146.2526 -72.9036
ENERGY: 600000 2.0897 6.1753 4.7905 0.0000 -10626.9356 1455.7988 0.0000 0.0000 1810.6703 -7347.4110 310.8206 -9158.0813 -7411.2402 297.3178 392.0313 469.8362 29812.0549 231.5196 302.1711
ENERGY: 900000 2.2210 7.7207 2.1924 0.0000 -10524.8948 1417.6079 0.0000 0.0000 1710.1485 -7385.0043 293.5650 -9095.1528 -7408.5306 298.2720 54.8057 106.9657 30194.1907 181.2572 257.5426
ENERGY: 1200000 1.6049 4.1987 3.0031 0.0000 -10707.4422 1512.4599 0.0000 0.0000 1743.3896 -7442.7860 299.2712 -9186.1756 -7405.8758 299.2984 386.4332 467.7414 30232.6532 141.0881 220.3353
ENERGY: 1500000 0.7434 4.6398 6.0987 0.0000 -10596.0100 1443.0457 0.0000 0.0000 1823.2935 -7318.1890 312.9876 -9141.4825 -7404.8061 299.9078 257.5304 372.0769 29962.8316 196.4922 275.1128
TCL: Running FEP window   9: Lambda1 0.39999999999999997 Lambda2 0.44999999999999996 [dLambda 0.04999999999999999]
TCL: Setting parameter firsttimestep to 0
TCL: Setting parameter alchLambda to 0.39999999999999997
Info: NONBONDED TABLE R-SQUARED SPACING: 0.0625
Info: NONBONDED TABLE SIZE: 705 POINTS
TCL: Setting parameter alchLambda2 to 0.44999999999999996
Info: NONBONDED TABLE R-SQUARED SPACING: 0.0625
Info: NONBONDED TABLE SIZE: 705 POINTS
TCL: Running for 1500000 steps
ETITLE: TS BOND ANGLE DIHED IMPRP ELECT VDW BOUNDARY MISC KINETIC TOTAL TEMP POTENTIAL TOTALAVG TEMPAVG PRESSURE GPRESSURE VOLUME PRESSAVG GPRESSAVG
ENERGY: 0 0.7434 4.6398 6.0987 0.0000 -10596.0099 1442.8102 0.0000 0.0000 1822.4349 -7319.2830 312.8402 -9141.7179 -7319.2830 312.8402 294.7464 378.6928 29962.8316 294.7464 378.6928
ENERGY: 300000 4.6099 3.6684 4.0097 0.0000 -10570.3591 1411.8349 0.0000 0.0000 1742.7533 -7403.4829 299.1620 -9146.2362 -7413.9077 298.7294 -189.3675 -171.7093 30078.4321 -199.4518 -130.7099
ENERGY: 600000 5.7396 8.3537 2.6305 0.0000 -10549.7344 1393.9427 0.0000 0.0000 1752.7626 -7386.3053 300.8802 -9139.0679 -7409.2516 299.5205 -376.7706 -364.6745 30326.0173 -86.7205 -40.4684
ENERGY: 900000 1.9694 5.1633 2.2049 0.0000 -10557.1076 1449.6319 0.0000 0.0000 1768.9027 -7329.2354 303.6508 -9098.1381 -7403.9925 299.0348 299.3690 342.8838 30421.0176 -11.4399 44.7578
ENERGY: 1200000 3.1410 8.7924 6.7083 0.0000 -10532.3287 1407.5277 0.0000 0.0000 1809.2983 -7296.8610 310.5851 -9106.1593 -7391.9797 300.4262 40.1458 0.4488 29919.9186 -63.1531 -20.6125
ENERGY: 1500000 1.1631 3.5886 6.6722 0.0000 -10566.9389 1428.7256 0.0000 0.0000 1737.4888 -7389.3006 298.2583 -9126.7894 -7386.2560 300.3165 92.4381 142.0462 29955.0284 -117.3940 -65.3828
TCL: Running FEP window  10: Lambda1 0.44999999999999996 Lambda2 0.49999999999999994 [dLambda 0.04999999999999999]
TCL: Setting parameter firsttimestep to 0
TCL: Setting parameter alchLambda to 0.44999999999999996
Info: NONBONDED TABLE R-SQUARED SPACING: 0.0625
Info: NONBONDED TABLE SIZE: 705 POINTS
TCL: Setting parameter alchLambda2 to 0.49999999999999994
Info: NONBONDED TABLE R-SQUARED SPACING: 0.0625
Info: NONBONDED TABLE SIZE: 705 POINTS
TCL: Running for 1500000 steps
ETITLE: TS BOND ANGLE DIHED IMPRP ELECT VDW BOUNDARY MISC KINETIC TOTAL TEMP POTENTIAL TOTALAVG TEMPAVG PRESSURE GPRESSURE VOLUME PRESSAVG GPRESSAVG
ENERGY: 0 1.1631 3.5887 6.6722 0.0000 -10566.9388 1428.2458 0.0000 0.0000 1736.6138 -7390.6552 298.1081 -9127.2690 -7390.6552 298.1081 61.5721 143.8292 29955.0284 61.5721 143.8292
ENERGY: 300000 3.3957 5.0536 5.8829 0.0000 -10570.4597 1383.0861 0.0000 0.0000 1776.3214 -7396.7200 304.9243 -9173.0414 -7404.7042 304.4474 -95.7016 -70.8919 29815.8080 -62.4163 1.2310
ENERGY: 600000 1.2225 5.8142 4.1534 0.0000 -10677.0205 1468.1723 0.0000 0.0000 1703.4099 -7494.2483 292.4083 -9197.6582 -7423.6367 302.2157 282.9948 325.1119 30001.2185 -35.2310 28.6921
ENERGY: 900000 3.8436 5.1830 3.2057 0.0000 -10620.5498 1406.5987 0.0000 0.0000 1802.3734 -7399.3454 309.3964 -9201.7188 -7437.1078 302.2172 -314.7445 -251.0649 30013.7881 -3.2367 63.7743
ENERGY: 1200000 6.4716 5.7003 3.2863 0.0000 -10559.7079 1441.2597 0.0000 0.0000 1847.5054 -7255.4847 317.1438 -9102.9901 -7416.6943 303.4040 201.4703 207.6108 30255.1576 -108.8549 -42.6607
ENERGY: 1500000 5.2737 3.0000 6.4094 0.0000 -10628.4935 1424.9994 0.0000 0.0000 1760.5996 -7428.2115 302.2255 -9188.8111 -7425.2911 302.9451 -215.5668 -170.4236 29842.6830 -195.1761 -132.8428
TCL: Running FEP window  11: Lambda1 0.49999999999999994 Lambda2 0.5499999999999999 [dLambda 0.04999999999999999]
TCL: Setting parameter firsttimestep to 0
TCL: Setting parameter alchLambda to 0.49999999999999994
Info: NONBONDED TABLE R-SQUARED SPACING: 0.0625
Info: NONBONDED TABLE SIZE: 705 POINTS
TCL: Setting parameter alchLambda2 to 0.5499999999999999
Info: NONBONDED TABLE R-SQUARED SPACING: 0.0625
Info: NONBONDED TABLE SIZE: 705 POINTS
TCL: Running for 1500000 steps
ETITLE: TS BOND ANGLE DIHED IMPRP ELECT VDW BOUNDARY MISC KINETIC TOTAL TEMP POTENTIAL TOTALAVG TEMPAVG PRESSURE GPRESSURE VOLUME PRESSAVG GPRESSAVG
ENERGY: 0 5.2737 3.0000 6.4094 0.0000 -10628.4945 1425.0774 0.0000 0.0000 1759.7534 -7428.9807 302.0802 -9188.7341 -7428.9807 302.0802 -241.1963 -162.3422 29842.6830 -241.1963 -162.3422
ENERGY: 300000 2.0514 9.8148 2.1392 0.0000 -10616.5094 1400.2239 0.0000 0.0000 1732.1788 -7470.1013 297.3468 -9202.2801 -7413.6377 302.6480 -260.7266 -226.3837 30070.6201 -110.6084 -58.5791
ENERGY: 600000 4.0825 6.3568 4.8640 0.0000 -10713.0738 1514.4099 0.0000 0.0000 1753.6383 -7429.7223 301.0305 -9183.3606 -7419.6079 301.3849 621.6804 680.8577 29969.6140 12.6009 60.8539
ENERGY: 900000 2.7901 5.6820 6.0942 0.0000 -10691.7432 1490.7062 0.0000 0.0000 1777.7360 -7408.7346 305.1671 -9186.4707 -7411.4910 301.3988 712.2299 737.0958 29382.9314 39.6738 93.6853
ENERGY: 1200000 2.4671 6.4350 2.1717 0.0000 -10561.8075 1430.4460 0.0000 0.0000 1714.5581 -7405.7296 294.3220 -9120.2877 -7408.7017 301.1757 -99.6709 32.7836 30467.0572 53.0594 114.7918
ENERGY: 1500000 4.6137 8.7379 4.1377 0.0000 -10629.3956 1419.7474 0.0000 0.0000 1687.6484 -7504.5105 289.7027 -9192.1589 -7411.6285 299.7545 -229.7766 -176.9523 29982.4041 72.1593 133.9290
TCL: Running FEP window  12: Lambda1 0.5499999999999999 Lambda2 0.6    [dLambda 0.050000000000000044]
TCL: Setting parameter firsttimestep to 0
TCL: Setting parameter alchLambda to 0.5499999999999999
Info: NONBONDED TABLE R-SQUARED SPACING: 0.0625
Info: NONBONDED TABLE SIZE: 705 POINTS
TCL: Setting parameter alchLambda2 to 0.6
Info: NONBONDED TABLE R-SQUARED SPACING: 0.0625
Info: NONBONDED TABLE SIZE: 705 POINTS
TCL: Running for 1500000 steps
ETITLE: TS BOND ANGLE DIHED IMPRP ELECT VDW BOUNDARY MISC KINETIC TOTAL TEMP POTENTIAL TOTALAVG TEMPAVG PRESSURE GPRESSURE VOLUME PRESSAVG GPRESSAVG
ENERGY: 0 4.6137 8.7379 4.1377 0.0000 -10629.2923 1419.9071 0.0000 0.0000 1686.7479 -7505.1480 289.5481 -9191.8959 -7505.1480 289.5481 -251.8862 -168.9714 29982.4041 -251.8862 -168.9714
ENERGY: 300000 5.4242 4.1039 0.8609 0.0000 -10632.1944 1430.4320 0.0000 0.0000 1739.1086 -7452.2648 298.5363 -9191.3734 -7459.3652 295.9337 -407.5118 -373.4852 30464.1898 -110.7623 -39.0092
ENERGY: 600000 3.3074 3.1780 6.3926 0.0000 -10595.4124 1381.8040 0.0000 0.0000 1768.9860 -7431.7444 303.6651 -9200.7304 -7447.6748 298.1667 -526.9898 -443.5989 30485.2911 -137.6540 -74.4050
ENERGY: 900000 4.2261 8.6718 2.3656 0.0000 -10527.3255 1365.9228 0.0000 0.0000 1773.0766 -7373.0626 304.3673 -9146.1393 -7438.6063 298.3963 -251.4502 -148.7775 29641.4535 -171.5825 -93.9129
ENERGY: 1200000 2.4743 8.2410 4.2490 0.0000 -10506.0454 1394.4654 0.0000 0.0000 1686.9905 -7409.6251 289.5897 -9096.6156 -7428.9604 297.6633 -307.1353 -256.7849 30634.6285 -7.4508 63.0668
ENERGY: 1500000 3.3784 4.9974 4.0629 0.0000 -10559.2141 1411.7264 0.0000 0.0000 1794.4603 -7340.5887 308.0380 -9135.0490 -7424.2152 297.4805 -39.1217 -45.7217 30430.3803 25.0391 88.9774
TCL: Running FEP window  13: Lambda1 0.6    Lambda2 0.65   [dLambda 0.050000000000000044]
TCL: Setting parameter firsttimestep to 0
TCL: Setting parameter alchLambda to 0.6
Info: NONBONDED TABLE R-SQUARED SPACING: 0.0625
Info: NONBONDED TABLE SIZE: 705 POINTS
TCL: Setting parameter alchLambda2 to 0.65
Info: NONBONDED TABLE R-SQUARED SPACING: 0.0625
Info: NONBONDED TABLE SIZE: 705 POINTS
TCL: Running for 1500000 steps
ETITLE: TS BOND ANGLE DIHED IMPRP ELECT VDW BOUNDARY MISC KINETIC TOTAL TEMP POTENTIAL TOTALAVG TEMPAVG PRESSURE GPRESSURE VOLUME PRESSAVG GPRESSAVG
ENERGY: 0 3.3784 4.9974 4.0629 0.0000 -10559.4883 1411.4245 0.0000 0.0000 1793.6017 -7342.0235 307.8907 -9135.6252 -7342.0235 307.8907 -121.5057 -43.0897 30430.3803 -121.5057 -43.0897
ENERGY: 300000 0.8760 5.0649 6.5547 0.0000 -10716.9033 1479.0381 0.0000 0.0000 1729.5533 -7495.8163 296.8961 -9225.3696 -7399.5083 303.0398 175.3786 255.8017 30084.5457 -70.4429 3.7775
ENERGY: 600000 4.9419 7.7623 4.9190 0.0000 -10578.1548 1436.4959 0.0000 0.0000 1773.9100 -7350.1258 304.5104 -9124.0357 -7415.0073 301.4549 246.1702 327.1504 30049.9384 -30.5674 48.3867
ENERGY: 900000 1.5033 12.0375 2.9990 0.0000 -10502.0730 1366.2662 0.0000 0.0000 1774.0822 -7345.1849 304.5399 -9119.2671 -7405.1456 302.1701 -466.3599 -425.8957 30291.6610 -106.6452 -40.0755
ENERGY: 1200000 1.7864 4.5417 2.5526 0.0000 -10542.4033 1397.1259 0.0000 0.0000 1757.0543 -7379.3424 301.6169 -9136.3966 -7410.9695 301.0115 -142.8645 -137.2491 30466.1870 -104.1205 -38.9710
ENERGY: 1500000 4.3276 8.1527 5.8357 0.0000 -10683.8763 1431.9807 0.0000 0.0000 1712.2742 -7521.3055 293.9299 -9233.5797 -7420.3278 299.8626 -390.2415 -318.4546 30448.9236 -104.2718 -38.1495
TCL: Running FEP window  14: Lambda1 0.65   Lambda2 0.7000000000000001 [dLambda 0.050000000000000044]
TCL: Setting parameter firsttimestep to 0
TCL: Setting parameter alchLambda to 0.65
Info: NONBONDED TABLE R-SQUARED SPACING: 0.0625
Info: NONBONDED TABLE SIZE: 705 POINTS
TCL: Setting parameter alchLambda2 to 0.7000000000000001
Info: NONBONDED TABLE R-SQUARED SPACING: 0.0625
Info: NONBONDED TABLE SIZE: 705 POINTS
TCL: Running for 1500000 steps
ETITLE: TS BOND ANGLE DIHED IMPRP ELECT VDW BOUNDARY MISC KINETIC TOTAL TEMP POTENTIAL TOTALAVG TEMPAVG PRESSURE GPRESSURE VOLUME PRESSAVG GPRESSAVG
ENERGY: 0 4.3276 8.1527 5.8357 0.0000 -10684.1560 1431.5433 0.0000 0.0000 1711.3619 -7522.9348 293.7733 -9234.2968 -7522.9348 293.7733 -401.1871 -317.4912 30448.9236 -401.1871 -317.4912
ENERGY: 300000 1.6481 3.3292 5.2998 0.0000 -10578.9842 1419.6683 0.0000 0.0000 1732.6233 -7416.4156 297.4231 -9149.0389 -7460.6959 300.0936 -82.2412 -61.4457 30150.0520 -180.1804 -123.4788
ENERGY: 600000 3.1631 7.2799 6.2889 0.0000 -10537.3044 1392.4632 0.0000 0.0000 1786.6732 -7341.4360 306.7013 -9128.1093 -7428.7600 301.9839 -141.3159 -108.5622 30149.6939 -258.6270 -202.6216
ENERGY: 900000 4.7380 3.8038 5.0448 0.0000 -10510.5247 1362.1396 0.0000 0.0000 1710.6506 -7424.1480 293.6512 -9134.7985 -7421.7779 300.1130 -314.9315 -240.2483 30022.4329 -283.2438 -222.2510
ENERGY: 1200000 2.2096 5.8923 1.8589 0.0000 -10602.7167 1458.0150 0.0000 0.0000 1786.5122 -7348.2287 306.6737 -9134.7409 -7421.9460 299.9867 292.7785 322.6590 30167.1967 -243.9511 -180.3517
ENERGY: 1500000 3.8005 5.8937 0.8990 0.0000 -10564.2996 1404.5861 0.0000 0.0000 1758.1411 -7390.9793 301.8035 -9149.1204 -7420.0663 300.5326 -12.0498 -17.6761 30081.2390 -202.5556 -143.9467
TCL: Running FEP window  15: Lambda1 0.7000000000000001 Lambda2 0.7500000000000001 [dLambda 0.050000000000000044]
TCL: Setting parameter firsttimestep to 0
TCL: Setting parameter alchLambda to 0.7000000000000001
Info: NONBONDED TABLE R-SQUARED SPACING: 0.0625
Info: NONBONDED TABLE SIZE: 705 POINTS
TCL: Setting parameter alchLambda2 to 0.7500000000000001
Info: NONBONDED TABLE R-SQUARED SPACING: 0.0625
Info: NONBONDED TABLE SIZE: 705 POINTS
TCL: Running for 1500000 steps
ETITLE: TS BOND ANGLE DIHED IMPRP ELECT VDW BOUNDARY MISC KINETIC TOTAL TEMP POTENTIAL TOTALAVG TEMPAVG PRESSURE GPRESSURE VOLUME PRESSAVG GPRESSAVG
ENERGY: 0 3.8005 5.8937 0.8990 0.0000 -10564.5434 1404.7040 0.0000 0.0000 1757.2632 -7391.9832 301.6528 -9149.2463 -7391.9832 301.6528 -75.7305 -6.9270 30081.2390 -75.7305 -6.9270
ENERGY: 300000 2.4927 5.0038 3.1184 0.0000 -10396.8371 1313.9144 0.0000 0.0000 1645.7893 -7426.5185 282.5171 -9072.3078 -7402.0128 299.0050 -1013.1045 -902.6432 30658.2597 -248.1974 -183.1456
ENERGY: 600000 1.6622 4.8555 4.1378 0.0000 -10521.7252 1396.7176 0.0000 0.0000 1754.8029 -7359.5491 301.2304 -9114.3520 -7405.1320 299.5401 -218.3547 -190.3375 30298.1190 -272.3047 -203.7213
ENERGY: 900000 1.8636 4.6186 4.2758 0.0000 -10517.9632 1379.0845 0.0000 0.0000 1750.3260 -7377.7947 300.4619 -9128.1207 -7407.6993 299.4473 -172.7371 -104.1581 30067.3395 -248.9900 -187.3992
ENERGY: 1200000 5.1025 3.6959 6.9676 0.0000 -10663.2871 1508.6166 0.0000 0.0000 1695.3847 -7443.5198 291.0307 -9138.9045 -7416.1880 298.4667 498.6624 524.9596 30442.7410 -132.9393 -69.4445
ENERGY: 1500000 4.3426 7.8275 3.2689 0.0000 -10652.9308 1462.7757 0.0000 0.0000 1742.5895 -7432.1266 299.1339 -9174.7161 -7414.8614 299.3125 309.7201 366.5228 29973.5157 -144.3997 -83.7593
TCL: Running FEP window  16: Lambda1 0.7500000000000001 Lambda2 0.8000000000000002 [dLambda 0.050000000000000044]
TCL: Setting parameter firsttimestep to 0
TCL: Setting parameter alchLambda to 0.7500000000000001
Info: NONBONDED TABLE R-SQUARED SPACING: 0.0625
Info: NONBONDED TABLE SIZE: 705 POINTS
TCL: Setting parameter alchLambda2 to 0.8000000000000002
Info: NONBONDED TABLE R-SQUARED SPACING: 0.0625
Info: NONBONDED TABLE SIZE: 705 POINTS
TCL: Running for 1500000 steps
ETITLE: TS BOND ANGLE DIHED IMPRP ELECT VDW BOUNDARY MISC KINETIC TOTAL TEMP POTENTIAL TOTALAVG TEMPAVG PRESSURE GPRESSURE VOLUME PRESSAVG GPRESSAVG
ENERGY: 0 4.3426 7.8275 3.2689 0.0000 -10654.1895 1464.0662 0.0000 0.0000 1741.7144 -7432.9700 298.9836 -9174.6844 -7432.9700 298.9836 318.1934 385.5324 29973.5157 318.1934 385.5324
ENERGY: 300000 2.6926 3.9647 1.6108 0.0000 -10692.0713 1503.1084 0.0000 0.0000 1756.9575 -7423.7373 301.6003 -9180.6948 -7433.8031 299.3296 656.6413 694.6049 29682.7747 334.0228 384.2996
ENERGY: 600000 2.6940 5.9103 4.0243 0.0000 -10595.6736 1383.0353 0.0000 0.0000 1745.8749 -7454.1348 299.6978 -9200.0097 -7423.8320 298.7514 -266.2738 -167.5968 29967.6598 196.3257 240.3795
ENERGY: 900000 1.4510 5.0724 4.1244 0.0000 -10468.1332 1322.4373 0.0000 0.0000 1738.0458 -7397.0022 298.3539 -9135.0480 -7424.3367 297.4491 -743.6788 -779.4772 30327.3767 167.4046 210.0763
ENERGY: 1200000 2.0596 6.0258 3.6461 0.0000 -10592.9915 1435.7869 0.0000 0.0000 1773.7991 -7371.6739 304.4913 -9145.4730 -7418.5997 298.2136 177.6295 226.5302 29956.8736 73.7525 114.0318
ENERGY: 1500000 2.7275 9.2113 1.9149 0.0000 -10586.4679 1420.8588 0.0000 0.0000 1763.5581 -7388.1973 302.7333 -9151.7554 -7407.2343 299.4704 99.0195 143.6067 30091.4982 82.1445 123.3205
TCL: Running FEP window  17: Lambda1 0.8000000000000002 Lambda2 0.8500000000000002 [dLambda 0.050000000000000044]
TCL: Setting parameter firsttimestep to 0
TCL: Setting parameter alchLambda to 0.8000000000000002
Info: NONBONDED TABLE R-SQUARED SPACING: 0.0625
Info: NONBONDED TABLE SIZE: 705 POINTS
TCL: Setting parameter alchLambda2 to 0.8500000000000002
Info: NONBONDED TABLE R-SQUARED SPACING: 0.0625
Info: NONBONDED TABLE SIZE: 705 POINTS
TCL: Running for 1500000 steps
ETITLE: TS BOND ANGLE DIHED IMPRP ELECT VDW BOUNDARY MISC KINETIC TOTAL TEMP POTENTIAL TOTALAVG TEMPAVG PRESSURE GPRESSURE VOLUME PRESSAVG GPRESSAVG
ENERGY: 0 2.7275 9.2113 1.9149 0.0000 -10587.3988 1421.5504 0.0000 0.0000 1762.7043 -7389.2904 302.5868 -9151.9947 -7389.2904 302.5868 84.5445 160.7109 30091.4982 84.5445 160.7109
ENERGY: 300000 4.5169 5.6455 4.4830 0.0000 -10711.2414 1539.2619 0.0000 0.0000 1715.3680 -7441.9662 294.4610 -9157.3342 -7403.2636 298.7087 1196.0689 1239.5196 29685.3170 202.8585 256.2686
ENERGY: 600000 4.5545 6.7404 1.5748 0.0000 -10641.6435 1450.7095 0.0000 0.0000 1731.9499 -7446.1144 297.3075 -9178.0643 -7420.5167 297.9600 -125.4930 -82.8780 30560.7719 187.4344 246.3654
ENERGY: 900000 2.9582 4.2799 6.4874 0.0000 -10586.6787 1420.6692 0.0000 0.0000 1733.5629 -7418.7211 297.5844 -9152.2841 -7423.2727 297.9479 176.5656 247.0838 30179.4750 81.9775 154.8657
ENERGY: 1200000 3.5795 3.4923 8.4166 0.0000 -10634.0789 1448.7078 0.0000 0.0000 1723.3440 -7446.5387 295.8302 -9169.8827 -7425.7467 298.5679 8.9774 48.6161 30131.5440 126.7299 188.0437
ENERGY: 1500000 1.6021 7.0011 3.3015 0.0000 -10544.5805 1420.6936 0.0000 0.0000 1731.3061 -7380.6761 297.1969 -9111.9821 -7423.2686 299.1068 207.8589 280.3793 30047.7002 129.9780 191.4810
TCL: Running FEP window  18: Lambda1 0.8500000000000002 Lambda2 0.9000000000000002 [dLambda 0.050000000000000044]
TCL: Setting parameter firsttimestep to 0
TCL: Setting parameter alchLambda to 0.8500000000000002
Info: NONBONDED TABLE R-SQUARED SPACING: 0.0625
Info: NONBONDED TABLE SIZE: 705 POINTS
TCL: Setting parameter alchLambda2 to 0.9000000000000002
Info: NONBONDED TABLE R-SQUARED SPACING: 0.0625
Info: NONBONDED TABLE SIZE: 705 POINTS
TCL: Running for 1500000 steps
ETITLE: TS BOND ANGLE DIHED IMPRP ELECT VDW BOUNDARY MISC KINETIC TOTAL TEMP POTENTIAL TOTALAVG TEMPAVG PRESSURE GPRESSURE VOLUME PRESSAVG GPRESSAVG
ENERGY: 0 1.6021 7.0011 3.3015 0.0000 -10545.3967 1420.3300 0.0000 0.0000 1730.4151 -7382.7469 297.0440 -9113.1620 -7382.7469 297.0440 218.3448 289.6552 30047.7002 218.3448 289.6552
ENERGY: 300000 2.2897 5.3050 6.3943 0.0000 -10790.7976 1537.2230 0.0000 0.0000 1796.7901 -7442.7955 308.4380 -9239.5856 -7367.6012 304.2399 807.2467 817.8553 29969.4061 331.0093 348.2217
ENERGY: 600000 2.1987 3.2368 5.4249 0.0000 -10622.5292 1474.7958 0.0000 0.0000 1741.3970 -7395.4760 298.9292 -9136.8730 -7382.4118 302.9246 285.5880 306.7438 30302.9654 365.1350 391.5683
ENERGY: 900000 3.6986 4.3587 3.0242 0.0000 -10692.3800 1468.7700 0.0000 0.0000 1744.3628 -7468.1657 299.4383 -9212.5284 -7392.9810 302.0546 84.9644 136.1642 30219.5683 232.1273 273.5404
ENERGY: 1200000 2.8343 3.9414 5.6668 0.0000 -10608.3764 1412.8702 0.0000 0.0000 1716.6273 -7466.4364 294.6772 -9183.0636 -7393.3207 301.6820 -81.6046 -113.6438 30289.5454 129.5036 169.2312
ENERGY: 1500000 1.7281 8.1452 5.1085 0.0000 -10628.4316 1441.8928 0.0000 0.0000 1725.8528 -7445.7042 296.2608 -9171.5570 -7403.1359 300.6007 -12.6661 52.8913 30505.8527 108.4417 150.9063
TCL: Running FEP window  19: Lambda1 0.9000000000000002 Lambda2 0.9500000000000003 [dLambda 0.050000000000000044]
TCL: Setting parameter firsttimestep to 0
TCL: Setting parameter alchLambda to 0.9000000000000002
Info: NONBONDED TABLE R-SQUARED SPACING: 0.0625
Info: NONBONDED TABLE SIZE: 705 POINTS
TCL: Setting parameter alchLambda2 to 0.9500000000000003
Info: NONBONDED TABLE R-SQUARED SPACING: 0.0625
Info: NONBONDED TABLE SIZE: 705 POINTS
TCL: Running for 1500000 steps
ETITLE: TS BOND ANGLE DIHED IMPRP ELECT VDW BOUNDARY MISC KINETIC TOTAL TEMP POTENTIAL TOTALAVG TEMPAVG PRESSURE GPRESSURE VOLUME PRESSAVG GPRESSAVG
ENERGY: 0 1.7281 8.1452 5.1085 0.0000 -10629.2521 1442.2844 0.0000 0.0000 1724.9766 -7447.0093 296.1104 -9171.9859 -7447.0093 296.1104 -12.3172 65.2298 30505.8527 -12.3172 65.2298
ENERGY: 300000 3.4371 6.4665 3.9924 0.0000 -10572.3155 1364.7948 0.0000 0.0000 1779.6704 -7413.9543 305.4992 -9193.6247 -7455.7294 300.3256 -582.6585 -554.4684 30343.9766 -301.4829 -248.2339
ENERGY: 600000 3.2008 6.4154 5.4893 0.0000 -10479.1333 1313.5759 0.0000 0.0000 1731.5332 -7418.9186 297.2359 -9150.4519 -7445.6276 299.0184 -756.5555 -654.8289 30145.2676 -157.9170 -109.7822
ENERGY: 900000 2.7816 3.9499 5.8756 0.0000 -10572.9776 1418.0170 0.0000 0.0000 1778.5041 -7363.8494 305.2990 -9142.3534 -7419.4230 300.5383 132.7240 178.9154 29991.9866 -143.3428 -88.9938
ENERGY: 1200000 2.2792 6.3429 3.0383 0.0000 -10715.4762 1471.1936 0.0000 0.0000 1754.2476 -7478.3745 301.1351 -9232.6221 -7416.8241 301.2164 192.1996 282.3797 29734.1594 -84.5971 -24.0547
ENERGY: 1500000 1.7122 4.2764 7.3233 0.0000 -10555.5644 1418.3449 0.0000 0.0000 1693.1557 -7430.7519 290.6480 -9123.9076 -7420.5504 300.3816 -47.3784 48.5480 30484.3663 -76.7984 -16.1220
TCL: Running FEP window  20: Lambda1 0.9500000000000003 Lambda2 1.0    [dLambda 0.04999999999999971]
TCL: Setting parameter firsttimestep to 0
TCL: Setting parameter alchLambda to 0.9500000000000003
Info: NONBONDED TABLE R-SQUARED SPACING: 0.0625
Info: NONBONDED TABLE SIZE: 705 POINTS
TCL: Setting parameter alchLambda2 to 1.0
Info: NONBONDED TABLE R-SQUARED SPACING: 0.0625
Info: NONBONDED TABLE SIZE: 705 POINTS
TCL: Running for 1500000 steps
ETITLE: TS BOND ANGLE DIHED IMPRP ELECT VDW BOUNDARY MISC KINETIC TOTAL TEMP POTENTIAL TOTALAVG TEMPAVG PRESSURE GPRESSURE VOLUME PRESSAVG GPRESSAVG
ENERGY: 0 1.7122 4.2764 7.3233 0.0000 -10557.0505 1419.6947 0.0000 0.0000 1692.2735 -7431.7704 290.4966 -9124.0440 -7431.7704 290.4966 -8.9760 75.4838 30484.3663 -8.9760 75.4838
ENERGY: 300000 2.7976 8.5756 3.0098 0.0000 -10510.7569 1339.0346 0.0000 0.0000 1749.3914 -7407.9477 300.3015 -9157.3392 -7439.8452 296.2399 -807.6226 -696.2334 30237.1295 -358.9335 -259.9763
ENERGY: 600000 3.7880 4.2620 3.1614 0.0000 -10593.4403 1407.9576 0.0000 0.0000 1677.9423 -7496.3290 288.0365 -9174.2714 -7448.8144 296.4269 -132.0580 -100.6060 29915.2252 -217.1107 -145.4895
ENERGY: 900000 2.3277 3.6783 5.1011 0.0000 -10552.0985 1407.2509 0.0000 0.0000 1764.2920 -7369.4486 302.8593 -9133.7405 -7436.7828 297.4992 -191.4712 -173.4515 30519.7465 -245.2379 -184.0997
ENERGY: 1200000 1.7277 2.6109 3.0286 0.0000 -10580.8755 1372.8210 0.0000 0.0000 1749.7815 -7450.9058 300.3684 -9200.6873 -7435.4723 297.6168 -604.9149 -581.0731 30505.5913 -219.9206 -161.2530
ENERGY: 1500000 4.1156 7.0400 3.8302 0.0000 -10723.6040 1483.0181 0.0000 0.0000 1696.7355 -7528.8646 291.2626 -9225.6002 -7430.5881 298.1034 7.0578 128.3541 30307.8497 -201.8339 -137.2743
TCL: Exiting due to exit command.
