Info: SIMULATION PARAMETERS:
Info: TIMESTEP               2
Info: NUMBER OF STEPS        0
Info: STEPS PER CYCLE        10
Info: PERIODIC CELL BASIS 1  33.1137 0 0
Info: PERIODIC CELL BASIS 2  0 29.7138 0
Info: PERIODIC CELL BASIS 3  0 0 30.7219
Info: PERIODIC CELL CENTER   0 0 0
Info: WRAPPING WATERS AROUND PERIODIC BOUNDARIES ON OUTPUT.
Info: WRAPPING ALL CLUSTERS AROUND PERIODIC BOUNDARIES ON OUTPUT.
Info: FIRST LDB TIMESTEP     50
Info: LAST LDB TIMESTEP     -1
Info: HOM BACKGROUND SCALING 1
Info: PME BACKGROUND SCALING 1
Info: MIN ATOMS PER PATCH    40
Info: EMPTY PATCH LOAD       40 ATOMS
Info: VELOCITY FILE          mobley_4983965_equil.vel
Info: CENTER OF MASS MOVING INITIALLY? NO
Info: DIELECTRIC             1
Info: EXCLUDE                SCALED ONE-FOUR
Info: 1-4 ELECTROSTATICS SCALED BY 0.833333
Info: MODIFIED 1-4 VDW PARAMETERS WILL BE USED
Info: DCD FILENAME           mobley_4983965_prod.dcd
Info: DCD FREQUENCY          100000
Info: DCD FIRST STEP         100000
Info: DCD FILE WILL CONTAIN UNIT CELL DATA
Info: XST FILENAME           mobley_4983965_prod.xst
Info: XST FREQUENCY          100000
Info: NO VELOCITY DCD OUTPUT
Info: NO FORCE DCD OUTPUT
Info: OUTPUT FILENAME        mobley_4983965_prod
Info: BINARY OUTPUT FILES WILL BE USED
Info: RESTART FILENAME       mobley_4983965_prod.restart
Info: RESTART FREQUENCY      100000
Info: BINARY RESTART FILES WILL BE USED
Info: CUTOFF                 9
Info: PAIRLIST DISTANCE      11
Info: PAIRLIST SHRINK RATE   0.01
Info: PAIRLIST GROW RATE     0.01
Info: PAIRLIST TRIGGER       0.3
Info: PAIRLISTS PER CYCLE    2
Info: PAIRLISTS ENABLED
Info: MARGIN                 2
Info: HYDROGEN GROUP CUTOFF  2.5
Info: PATCH DIMENSION        15.5
Info: ENERGY OUTPUT STEPS    100000
Info: ENERGY EVALUATION STEPS    100000
Info: OUTPUT ENERGY PRECISION 4
Info: CROSSTERM ENERGY INCLUDED IN DIHEDRAL
Info: TIMING OUTPUT STEPS    1000000
Info: PRESSURE OUTPUT STEPS  100000
Info: ALCHEMICAL FEP ON
Info: FEP CURRENT LAMBDA VALUE     1
Info: FEP COMPARISON LAMBDA VALUE  0.95
Info: FEP INTRA-ALCHEMICAL NON-BONDED INTERACTIONS WILL BE RETAINED
Info: FEP INTRA-ALCHEMICAL BONDED INTERACTIONS WILL BE RETAINED
Info: FEP VDW SHIFTING COEFFICIENT 5
Info: FEP ELEC. ACTIVE FOR ANNIHILATED PARTICLES BETWEEN LAMBDA = 0 AND LAMBDA = 0.5
Info: FEP ELEC. ACTIVE FOR EXNIHILATED PARTICLES BETWEEN LAMBDA = 0.5 AND LAMBDA = 1
Info: FEP VDW ACTIVE FOR ANNIHILATED PARTICLES BETWEEN LAMBDA = 0 AND LAMBDA = 1
Info: FEP VDW ACTIVE FOR EXNIHILATED PARTICLES BETWEEN LAMBDA = 0 AND LAMBDA = 1
Info: FEP BOND ACTIVE FOR ANNIHILATED PARTICLES BETWEEN LAMBDA = 1 AND LAMBDA = 1
Info: FEP BOND ACTIVE FOR EXNIHILATED PARTICLES BETWEEN LAMBDA = 0 AND LAMBDA = 0
Info: LANGEVIN DYNAMICS ACTIVE
Info: LANGEVIN TEMPERATURE   300
Info: LANGEVIN USING BBK INTEGRATOR
Info: LANGEVIN DAMPING COEFFICIENT IS 1 INVERSE PS
Info: LANGEVIN DYNAMICS APPLIED TO HYDROGENS
Info: LANGEVIN PISTON PRESSURE CONTROL ACTIVE
Info:        TARGET PRESSURE IS 1.01325 BAR
Info:     OSCILLATION PERIOD IS 50 FS
Info:             DECAY TIME IS 25 FS
Info:     PISTON TEMPERATURE IS 300 K
Info:       PRESSURE CONTROL IS GROUP-BASED
Info:    INITIAL STRAIN RATE IS -5.63644e-05 -5.63644e-05 -5.63644e-05
Info:       CELL FLUCTUATION IS ISOTROPIC
Info: PARTICLE MESH EWALD (PME) ACTIVE
Info: PME TOLERANCE               1e-06
Info: PME EWALD COEFFICIENT       0.348832
Info: PME INTERPOLATION ORDER     4
Info: PME GRID DIMENSIONS         36 32 32
Info: PME MAXIMUM GRID SPACING    1
Info: PME CALCULATION WILL BE PERFORMED ON GPU
Info: FULL ELECTROSTATIC EVALUATION FREQUENCY      2
Info: USING VERLET I (r-RESPA) MTS SCHEME.
Info: C1 SPLITTING OF LONG RANGE ELECTROSTATICS
Info: PLACING ATOMS IN PATCHES BY HYDROGEN GROUPS
Info: RIGID BONDS TO HYDROGEN : ALL
Info:         ERROR TOLERANCE : 1e-08
Info:          MAX ITERATIONS : 100
Info: RIGID WATER USING SETTLE ALGORITHM
Info: RANDOM NUMBER SEED     1743840315
Info: USE HYDROGEN BONDS?    NO
Info: Using AMBER format force field!
Info: AMBER PARM FILE        mobley_4983965.prmtop
Info: COORDINATE PDB         mobley_4983965.pdb
Info: Exclusions will be read from PARM file!
Info: SCNB (VDW SCALING)     2
Info: USING ARITHMETIC MEAN TO COMBINE L-J SIGMA PARAMETERS
Info: BINARY COORDINATES     mobley_4983965_equil.coor
Info: SUMMARY OF PARAMETERS:
Info: 6 BONDS
Info: 7 ANGLES
Info:   7 HARMONIC
Info:   0 COSINE-BASED
Info: 2 DIHEDRAL
Info: 0 IMPROPER
Info: 0 CROSSTERM
Info: 0 VDW
Info: 21 VDW_PAIRS
Info: 0 NBTHOLE_PAIRS
Info: To read alchdata from file: mobley_4983965.pdb
Info: To read alchflag data from column: 5
Info: STRUCTURE SUMMARY:
Info: 2940 ATOMS
Info: 2939 BONDS
Info: 25 ANGLES
Info: 24 DIHEDRALS
Info: 0 IMPROPERS
Info: 0 CROSSTERMS
Info: 2988 EXCLUSIONS
Info: 2935 RIGID BONDS
Info: ALCH: 0 ATOMS TO DISAPPEAR IN FINAL STATE
Info: ALCH: 15 ATOMS TO APPEAR IN FINAL STATE
Info: 5885 DEGREES OF FREEDOM
Info: 980 HYDROGEN GROUPS
Info: 4 ATOMS IN LARGEST HYDROGEN GROUP
Info: 980 MIGRATION GROUPS
Info: 4 ATOMS IN LARGEST MIGRATION GROUP
Info: TOTAL MASS = 17655.8 amu
Info: TOTAL CHARGE = -2.8871e-08 e
Info: MASS DENSITY = 0.969914 g/cm^3
Info: ATOM DENSITY = 0.09726 atoms/A^3
Info: ADDED 0 IMPLICIT EXCLUSIONS
Info: NONBONDED TABLE R-SQUARED SPACING: 0.0625
Info: NONBONDED TABLE SIZE: 705 POINTS
Info: REMOVING COM VELOCITY -0.196917 -0.0298075 0.184874
Info: Use 3D box decompostion in PME FFT.
Info: Updated CUDA force table with 4096 elements.
Info: Updated CUDA LJ table with 6 x 6 elements.
Info: Found 16 unique exclusion lists needing 32 bytes
TCL: Running for 1500000 steps
ETITLE: TS BOND ANGLE DIHED IMPRP ELECT VDW BOUNDARY MISC KINETIC TOTAL TEMP POTENTIAL TOTALAVG TEMPAVG PRESSURE GPRESSURE VOLUME PRESSAVG GPRESSAVG
ENERGY: 0 1.7824 7.8754 3.6468 0.0000 -10651.0780 1381.5595 0.0000 0.0000 1769.1748 -7487.0392 302.5622 -9256.2140 -7487.0392 302.5622 -395.9426 -304.4862 30228.2551 -395.9426 -304.4862
ENERGY: 300000 1.3522 6.3990 1.1902 0.0000 -10632.4332 1445.9851 0.0000 0.0000 1793.6682 -7383.8386 306.7510 -9177.5068 -7449.5102 302.0888 359.3041 344.3522 30118.2812 -45.0166 -7.3405
ENERGY: 600000 1.9031 5.6595 1.5036 0.0000 -10667.1018 1436.8538 0.0000 0.0000 1761.1117 -7460.0700 301.1832 -9221.1817 -7442.5510 302.2164 -75.6607 73.2488 30192.0577 -70.5237 -13.0815
ENERGY: 900000 0.4271 7.4579 1.9500 0.0000 -10665.8173 1493.8428 0.0000 0.0000 1745.3779 -7416.7615 298.4925 -9162.1395 -7450.3873 300.1125 629.0912 662.8249 30234.2815 -23.6276 30.2037
ENERGY: 1200000 1.2403 7.9676 2.9006 0.0000 -10504.1126 1318.7130 0.0000 0.0000 1778.5512 -7394.7398 304.1657 -9173.2910 -7444.9933 300.7700 -823.3896 -793.9319 30472.7270 -96.4152 -48.2706
ENERGY: 1500000 0.4546 7.4380 0.8122 0.0000 -10686.7840 1450.0659 0.0000 0.0000 1753.1846 -7474.8287 299.8276 -9228.0133 -7454.5926 299.5965 357.0829 404.9321 29910.6051 -124.9399 -76.0850
TCL: Running FEP window   2: Lambda1 0.95   Lambda2 0.8999999999999999 [dLambda -0.050000000000000044]
TCL: Setting parameter firsttimestep to 0
TCL: Setting parameter alchLambda to 0.95
Info: NONBONDED TABLE R-SQUARED SPACING: 0.0625
Info: NONBONDED TABLE SIZE: 705 POINTS
TCL: Setting parameter alchLambda2 to 0.8999999999999999
Info: NONBONDED TABLE R-SQUARED SPACING: 0.0625
Info: NONBONDED TABLE SIZE: 705 POINTS
TCL: Running for 1500000 steps
ETITLE: TS BOND ANGLE DIHED IMPRP ELECT VDW BOUNDARY MISC KINETIC TOTAL TEMP POTENTIAL TOTALAVG TEMPAVG PRESSURE GPRESSURE VOLUME PRESSAVG GPRESSAVG
ENERGY: 0 0.4546 7.4380 0.8122 0.0000 -10686.2738 1450.4761 0.0000 0.0000 1752.3111 -7474.7818 299.6782 -9227.0929 -7474.7818 299.6782 338.4670 401.0034 29910.6051 338.4670 401.0034
ENERGY: 300000 1.5971 7.6527 2.4383 0.0000 -10694.8137 1471.1141 0.0000 0.0000 1755.1925 -7456.8189 300.1710 -9212.0114 -7434.9719 302.4212 293.0963 386.4063 30351.7317 136.1927 209.2587
ENERGY: 600000 0.8097 9.3477 1.5699 0.0000 -10586.4924 1346.0702 0.0000 0.0000 1782.2325 -7446.4625 304.7953 -9228.6950 -7442.1994 303.0080 -629.8152 -566.5491 30334.4687 -73.3848 1.5612
ENERGY: 900000 0.6609 11.4514 0.6531 0.0000 -10734.5723 1461.1538 0.0000 0.0000 1730.8175 -7529.8355 296.0024 -9260.6530 -7445.4552 301.3901 12.3830 116.2375 30250.8325 -172.0058 -91.0740
ENERGY: 1200000 0.2545 9.2059 0.4187 0.0000 -10726.3047 1461.0040 0.0000 0.0000 1716.1544 -7539.2672 293.4947 -9255.4217 -7449.2603 301.1643 -211.6029 -88.2932 30851.0928 -83.8948 3.8899
ENERGY: 1500000 0.3867 3.8782 2.5089 0.0000 -10609.9910 1405.5251 0.0000 0.0000 1837.0647 -7360.6274 314.1726 -9197.6921 -7437.8887 302.3216 -33.1741 67.1505 30062.5072 -86.9045 0.2555
TCL: Running FEP window   3: Lambda1 0.8999999999999999 Lambda2 0.8499999999999999 [dLambda -0.050000000000000044]
TCL: Setting parameter firsttimestep to 0
TCL: Setting parameter alchLambda to 0.8999999999999999
Info: NONBONDED TABLE R-SQUARED SPACING: 0.0625
Info: NONBONDED TABLE SIZE: 705 POINTS
TCL: Setting parameter alchLambda2 to 0.8499999999999999
Info: NONBONDED TABLE R-SQUARED SPACING: 0.0625
Info: NONBONDED TABLE SIZE: 705 POINTS
TCL: Running for 1500000 steps
ETITLE: TS BOND ANGLE DIHED IMPRP ELECT VDW BOUNDARY MISC KINETIC TOTAL TEMP POTENTIAL TOTALAVG TEMPAVG PRESSURE GPRESSURE VOLUME PRESSAVG GPRESSAVG
ENERGY: 0 0.3867 3.8782 2.5089 0.0000 -10609.6840 1405.3725 0.0000 0.0000 1836.2023 -7361.3353 314.0252 -9197.5376 -7361.3353 314.0252 -20.6161 54.3531 30062.5072 -20.6161 54.3531
ENERGY: 300000 1.8316 3.9482 1.6204 0.0000 -10611.4103 1394.7190 0.0000 0.0000 1694.8688 -7514.4223 289.8545 -9209.2911 -7442.8116 301.2309 -299.1119 -253.7540 30428.3430 112.7219 162.0611
ENERGY: 600000 0.9161 8.6844 1.1302 0.0000 -10596.3568 1405.5846 0.0000 0.0000 1782.2829 -7397.7586 304.8039 -9180.0415 -7462.2359 297.9038 -88.7504 -74.5615 30459.5456 120.6443 163.2625
ENERGY: 900000 1.0339 2.2396 0.4836 0.0000 -10727.8328 1487.1693 0.0000 0.0000 1743.9064 -7493.0000 298.2408 -9236.9064 -7449.9518 299.8941 569.6676 673.4136 29875.5108 140.6576 196.1178
ENERGY: 1200000 0.3450 6.6273 0.5189 0.0000 -10762.0821 1511.1056 0.0000 0.0000 1770.4109 -7473.0744 302.7736 -9243.4853 -7453.9151 300.1461 732.4612 786.2877 30057.6444 196.3929 250.4219
ENERGY: 1500000 0.0375 9.6116 1.5732 0.0000 -10716.6598 1516.4477 0.0000 0.0000 1704.2162 -7484.7737 291.4531 -9188.9899 -7452.2939 299.0604 351.1497 437.1534 30779.2672 189.7275 248.9773
TCL: Running FEP window   4: Lambda1 0.8499999999999999 Lambda2 0.7999999999999998 [dLambda -0.050000000000000044]
TCL: Setting parameter firsttimestep to 0
TCL: Setting parameter alchLambda to 0.8499999999999999
Info: NONBONDED TABLE R-SQUARED SPACING: 0.0625
Info: NONBONDED TABLE SIZE: 705 POINTS
TCL: Setting parameter alchLambda2 to 0.7999999999999998
Info: NONBONDED TABLE R-SQUARED SPACING: 0.0625
Info: NONBONDED TABLE SIZE: 705 POINTS
TCL: Running for 1500000 steps
ETITLE: TS BOND ANGLE DIHED IMPRP ELECT VDW BOUNDARY MISC KINETIC TOTAL TEMP POTENTIAL TOTALAVG TEMPAVG PRESSURE GPRESSURE VOLUME PRESSAVG GPRESSAVG
ENERGY: 0 0.0375 9.6116 1.5732 0.0000 -10715.9943 1516.6837 0.0000 0.0000 1703.3348 -7484.7535 291.3023 -9188.0883 -7484.7535 291.3023 362.7094 431.0886 30779.2672 362.7094 431.0886
ENERGY: 300000 0.9648 2.7340 2.0733 0.0000 -10666.0777 1438.5603 0.0000 0.0000 1792.7173 -7429.0280 306.5884 -9221.7454 -7447.2100 299.7753 -113.7892 -66.2479 30416.6526 -79.5184 -13.7451
ENERGY: 600000 1.4716 9.3030 1.6849 0.0000 -10576.0098 1410.2314 0.0000 0.0000 1725.2696 -7428.0491 295.0536 -9153.3187 -7436.8050 300.5491 255.0943 301.3630 29883.7557 63.9526 140.7400
ENERGY: 900000 0.2576 7.4939 0.7095 0.0000 -10663.1826 1353.9494 0.0000 0.0000 1799.8443 -7500.9279 307.8073 -9300.7721 -7441.0274 301.3113 -1044.4859 -939.9099 30584.4836 -57.0726 17.6309
ENERGY: 1200000 0.5828 7.3691 2.1955 0.0000 -10721.7418 1497.2897 0.0000 0.0000 1763.1079 -7451.1968 301.5246 -9214.3048 -7441.7903 300.6809 672.3559 778.3201 29794.6263 -61.0738 17.1388
ENERGY: 1500000 2.1679 6.8422 1.9940 0.0000 -10579.7207 1441.0778 0.0000 0.0000 1701.1291 -7426.5097 290.9251 -9127.6388 -7445.1105 298.9029 156.3268 153.9189 30551.2750 -23.2082 55.3768
TCL: Running FEP window   5: Lambda1 0.7999999999999998 Lambda2 0.7499999999999998 [dLambda -0.050000000000000044]
TCL: Setting parameter firsttimestep to 0
TCL: Setting parameter alchLambda to 0.7999999999999998
Info: NONBONDED TABLE R-SQUARED SPACING: 0.0625
Info: NONBONDED TABLE SIZE: 705 POINTS
TCL: Setting parameter alchLambda2 to 0.7499999999999998
Info: NONBONDED TABLE R-SQUARED SPACING: 0.0625
Info: NONBONDED TABLE SIZE: 705 POINTS
TCL: Running for 1500000 steps
ETITLE: TS BOND ANGLE DIHED IMPRP ELECT VDW BOUNDARY MISC KINETIC TOTAL TEMP POTENTIAL TOTALAVG TEMPAVG PRESSURE GPRESSURE VOLUME PRESSAVG GPRESSAVG
ENERGY: 0 2.1679 6.8422 1.9940 0.0000 -10579.1644 1441.5741 0.0000 0.0000 1700.2466 -7426.3396 290.7742 -9126.5863 -7426.3396 290.7742 64.5366 152.8125 30551.2750 64.5366 152.8125
ENERGY: 300000 0.6571 6.7781 1.4087 0.0000 -10627.5807 1430.2503 0.0000 0.0000 1695.0517 -7493.4348 289.8857 -9188.4865 -7478.2838 298.2068 6.2775 85.1269 30375.7353 -25.5603 32.6404
ENERGY: 600000 1.4026 5.3639 0.7685 0.0000 -10575.3854 1382.0724 0.0000 0.0000 1660.8503 -7524.9278 284.0367 -9185.7781 -7469.6373 298.3180 -619.9382 -554.3937 30788.5502 -48.0801 8.1729
ENERGY: 900000 1.0224 6.2953 0.7087 0.0000 -10555.5328 1314.3708 0.0000 0.0000 1737.8859 -7495.2497 297.2112 -9233.1356 -7471.2092 299.0275 -974.1144 -915.2727 30308.5216 -177.4415 -112.6594
ENERGY: 1200000 2.3847 3.7486 0.8985 0.0000 -10628.2346 1367.2702 0.0000 0.0000 1743.3924 -7510.5401 298.1529 -9253.9326 -7471.0115 298.5885 -627.6320 -530.4092 30125.8290 -287.5269 -225.9298
ENERGY: 1500000 3.2437 3.8532 1.1671 0.0000 -10539.1593 1422.8429 0.0000 0.0000 1779.2824 -7328.7699 304.2908 -9108.0523 -7463.1781 299.1189 315.6234 378.8887 30043.0786 -231.7512 -169.9922
TCL: Running FEP window   6: Lambda1 0.7499999999999998 Lambda2 0.6999999999999997 [dLambda -0.050000000000000044]
TCL: Setting parameter firsttimestep to 0
TCL: Setting parameter alchLambda to 0.7499999999999998
Info: NONBONDED TABLE R-SQUARED SPACING: 0.0625
Info: NONBONDED TABLE SIZE: 705 POINTS
TCL: Setting parameter alchLambda2 to 0.6999999999999997
Info: NONBONDED TABLE R-SQUARED SPACING: 0.0625
Info: NONBONDED TABLE SIZE: 705 POINTS
TCL: Running for 1500000 steps
ETITLE: TS BOND ANGLE DIHED IMPRP ELECT VDW BOUNDARY MISC KINETIC TOTAL TEMP POTENTIAL TOTALAVG TEMPAVG PRESSURE GPRESSURE VOLUME PRESSAVG GPRESSAVG
ENERGY: 0 3.2437 3.8532 1.1671 0.0000 -10538.5920 1423.3579 0.0000 0.0000 1778.3944 -7328.5756 304.1389 -9106.9700 -7328.5756 304.1389 305.7742 381.0696 30043.0786 305.7742 381.0696
ENERGY: 300000 1.6543 8.0283 1.1079 0.0000 -10598.9976 1381.1927 0.0000 0.0000 1744.3443 -7462.6701 298.3157 -9207.0144 -7397.0669 302.2095 -627.9999 -630.0684 30987.5647 -82.4938 -52.8848
ENERGY: 600000 2.6504 3.6998 2.1681 0.0000 -10581.1123 1467.9169 0.0000 0.0000 1786.0563 -7318.6208 305.4493 -9104.6771 -7413.3443 302.1240 840.2174 923.1084 29967.5514 66.5085 109.5915
ENERGY: 900000 0.3609 5.6688 2.6278 0.0000 -10654.6443 1433.5822 0.0000 0.0000 1749.1065 -7463.2980 299.1301 -9212.4046 -7427.9819 301.8188 -176.8360 -124.8912 30733.2182 25.2017 70.8692
ENERGY: 1200000 1.4486 4.6483 1.2446 0.0000 -10506.0164 1392.1184 0.0000 0.0000 1866.6536 -7239.9029 319.2329 -9106.5564 -7408.9202 303.2786 -74.0405 -72.0578 30519.2660 14.6560 71.1772
ENERGY: 1500000 1.8422 6.3336 1.9288 0.0000 -10585.0887 1412.7769 0.0000 0.0000 1735.2694 -7426.9378 296.7637 -9162.2072 -7415.3471 302.7067 -210.1894 -116.1488 30397.5680 -73.6300 -10.1385
TCL: Running FEP window   7: Lambda1 0.6999999999999997 Lambda2 0.6499999999999997 [dLambda -0.050000000000000044]
TCL: Setting parameter firsttimestep to 0
TCL: Setting parameter alchLambda to 0.6999999999999997
Info: NONBONDED TABLE R-SQUARED SPACING: 0.0625
Info: NONBONDED TABLE SIZE: 705 POINTS
TCL: Setting parameter alchLambda2 to 0.6499999999999997
Info: NONBONDED TABLE R-SQUARED SPACING: 0.0625
Info: NONBONDED TABLE SIZE: 705 POINTS
TCL: Running for 1500000 steps
ETITLE: TS BOND ANGLE DIHED IMPRP ELECT VDW BOUNDARY MISC KINETIC TOTAL TEMP POTENTIAL TOTALAVG TEMPAVG PRESSURE GPRESSURE VOLUME PRESSAVG GPRESSAVG
ENERGY: 0 1.8422 6.3336 1.9288 0.0000 -10585.0896 1413.3161 0.0000 0.0000 1734.4185 -7427.2504 296.6182 -9161.6690 -7427.2504 296.6182 -196.2475 -118.0103 30397.5680 -196.2475 -118.0103
ENERGY: 300000 0.7465 5.6983 2.5009 0.0000 -10632.0015 1378.4861 0.0000 0.0000 1688.5841 -7555.9855 288.7797 -9244.5697 -7475.9042 295.7582 -679.5306 -612.8505 30603.4266 -425.7651 -352.3300
ENERGY: 600000 0.6486 4.0178 1.2005 0.0000 -10613.7571 1353.2328 0.0000 0.0000 1758.7485 -7495.9089 300.7791 -9254.6574 -7467.8284 298.7198 -849.2222 -769.0015 30258.8651 -308.5365 -231.8836
ENERGY: 900000 1.5665 7.5032 2.5377 0.0000 -10714.1545 1476.3283 0.0000 0.0000 1760.2053 -7466.0136 301.0282 -9226.2189 -7465.2707 300.0749 320.2145 375.6253 30086.1158 -128.2657 -48.0543
ENERGY: 1200000 1.2770 5.8827 2.9098 0.0000 -10487.7520 1384.0013 0.0000 0.0000 1752.0918 -7341.5893 299.6407 -9093.6811 -7450.5441 300.5334 -412.8061 -411.3850 31213.6649 -115.9158 -41.6524
ENERGY: 1500000 0.7925 8.8829 0.9770 0.0000 -10688.4294 1446.6923 0.0000 0.0000 1788.0213 -7443.0634 305.7853 -9231.0847 -7447.1392 301.2317 377.0090 413.6452 29598.2012 -117.9988 -45.8334
TCL: Running FEP window   8: Lambda1 0.6499999999999997 Lambda2 0.5999999999999996 [dLambda -0.050000000000000044]
TCL: Setting parameter firsttimestep to 0
TCL: Setting parameter alchLambda to 0.6499999999999997
Info: NONBONDED TABLE R-SQUARED SPACING: 0.0625
Info: NONBONDED TABLE SIZE: 705 POINTS
TCL: Setting parameter alchLambda2 to 0.5999999999999996
Info: NONBONDED TABLE R-SQUARED SPACING: 0.0625
Info: NONBONDED TABLE SIZE: 705 POINTS
TCL: Running for 1500000 steps
ETITLE: TS BOND ANGLE DIHED IMPRP ELECT VDW BOUNDARY MISC KINETIC TOTAL TEMP POTENTIAL TOTALAVG TEMPAVG PRESSURE GPRESSURE VOLUME PRESSAVG GPRESSAVG
ENERGY: 0 0.7925 8.8829 0.9770 0.0000 -10688.4097 1446.2742 0.0000 0.0000 1787.1421 -7444.3409 305.6349 -9231.4831 -7444.3409 305.6349 305.2968 398.7965 29598.2012 305.2968 398.7965
ENERGY: 300000 0.2555 6.1276 0.3914 0.0000 -10648.6114 1461.0762 0.0000 0.0000 1781.5580 -7399.2026 304.6800 -9180.7606 -7440.1047 300.3556 284.6231 290.2074 30426.6958 55.3718 105.6288
ENERGY: 600000 1.1659 4.3930 3.0239 0.0000 -10611.4129 1410.8175 0.0000 0.0000 1763.2955 -7428.7171 301.5567 -9192.0126 -7439.8539 300.3623 -234.4886 -196.1130 30478.2040 42.5584 95.8715
ENERGY: 900000 2.9484 4.6869 0.9821 0.0000 -10644.1784 1454.6651 0.0000 0.0000 1771.5342 -7409.3618 302.9657 -9180.8960 -7443.3993 300.6265 352.2067 343.1532 30446.0358 101.5752 151.4686
ENERGY: 1200000 0.5832 4.2432 1.0104 0.0000 -10632.3571 1436.6973 0.0000 0.0000 1788.1462 -7401.6767 305.8067 -9189.8230 -7445.8592 300.9546 88.2092 99.3796 30547.5461 91.0664 137.5152
ENERGY: 1500000 0.2309 6.6935 1.2910 0.0000 -10718.8709 1520.6472 0.0000 0.0000 1729.4518 -7460.5565 295.7688 -9190.0083 -7448.0737 300.5068 809.6489 863.0165 30254.6335 55.5434 104.0296
TCL: Running FEP window   9: Lambda1 0.5999999999999996 Lambda2 0.5499999999999996 [dLambda -0.050000000000000044]
TCL: Setting parameter firsttimestep to 0
TCL: Setting parameter alchLambda to 0.5999999999999996
Info: NONBONDED TABLE R-SQUARED SPACING: 0.0625
Info: NONBONDED TABLE SIZE: 705 POINTS
TCL: Setting parameter alchLambda2 to 0.5499999999999996
Info: NONBONDED TABLE R-SQUARED SPACING: 0.0625
Info: NONBONDED TABLE SIZE: 705 POINTS
TCL: Running for 1500000 steps
ETITLE: TS BOND ANGLE DIHED IMPRP ELECT VDW BOUNDARY MISC KINETIC TOTAL TEMP POTENTIAL TOTALAVG TEMPAVG PRESSURE GPRESSURE VOLUME PRESSAVG GPRESSAVG
ENERGY: 0 0.2309 6.6935 1.2910 0.0000 -10718.6549 1520.8492 0.0000 0.0000 1728.5768 -7461.0135 295.6192 -9189.5903 -7461.0135 295.6192 778.4839 858.1504 30254.6335 778.4839 858.1504
ENERGY: 300000 3.6827 5.3144 2.2749 0.0000 -10559.5747 1420.3258 0.0000 0.0000 1756.0017 -7371.9752 300.3094 -9127.9769 -7401.9531 301.7020 -61.2265 7.6189 30401.3993 101.0402 159.5891
ENERGY: 600000 0.5532 5.0599 1.6489 0.0000 -10631.5554 1411.9041 0.0000 0.0000 1722.5861 -7489.8031 294.5947 -9212.3892 -7430.7776 300.1189 -148.9720 -79.2858 30116.0865 291.8194 355.9740
ENERGY: 900000 0.6798 6.0717 0.5962 0.0000 -10594.2473 1403.8700 0.0000 0.0000 1768.3588 -7414.6708 302.4226 -9183.0296 -7442.2114 300.5777 -256.9020 -202.1567 30590.5615 67.7475 133.7021
ENERGY: 1200000 0.7631 5.7140 2.4141 0.0000 -10664.1402 1385.9582 0.0000 0.0000 1770.3579 -7498.9329 302.7645 -9269.2908 -7453.3368 299.4299 -321.0423 -251.3409 29943.8025 -44.4715 15.0259
ENERGY: 1500000 0.9125 6.0891 1.1785 0.0000 -10472.8730 1276.3756 0.0000 0.0000 1789.6307 -7398.6866 306.0605 -9188.3173 -7447.7471 299.7265 -1049.2747 -1045.2397 30419.1016 -134.6216 -80.3977
TCL: Running FEP window  10: Lambda1 0.5499999999999996 Lambda2 0.4999999999999996 [dLambda -0.04999999999999999]
TCL: Setting parameter firsttimestep to 0
TCL: Setting parameter alchLambda to 0.5499999999999996
Info: NONBONDED TABLE R-SQUARED SPACING: 0.0625
Info: NONBONDED TABLE SIZE: 705 POINTS
TCL: Setting parameter alchLambda2 to 0.4999999999999996
Info: NONBONDED TABLE R-SQUARED SPACING: 0.0625
Info: NONBONDED TABLE SIZE: 705 POINTS
TCL: Running for 1500000 steps
ETITLE: TS BOND ANGLE DIHED IMPRP ELECT VDW BOUNDARY MISC KINETIC TOTAL TEMP POTENTIAL TOTALAVG TEMPAVG PRESSURE GPRESSURE VOLUME PRESSAVG GPRESSAVG
ENERGY: 0 0.9125 6.0891 1.1785 0.0000 -10472.8948 1276.7780 0.0000 0.0000 1788.7455 -7399.1913 305.9092 -9187.9368 -7399.1913 305.9092 -1122.3642 -1050.2961 30419.1016 -1122.3642 -1050.2961
ENERGY: 300000 1.4167 7.1165 1.1402 0.0000 -10637.9433 1417.5966 0.0000 0.0000 1741.3888 -7469.2846 297.8103 -9210.6733 -7466.8754 299.2263 -84.5376 65.6224 29969.7293 -475.9068 -383.9034
ENERGY: 600000 0.7796 5.4609 1.3735 0.0000 -10554.7174 1390.4508 0.0000 0.0000 1705.5349 -7451.1177 291.6786 -9156.6526 -7462.9870 297.5545 -308.2376 -220.1495 30421.9224 -246.2781 -163.1006
ENERGY: 900000 0.6632 5.7841 0.6025 0.0000 -10716.2373 1422.2553 0.0000 0.0000 1756.7765 -7530.1557 300.4418 -9286.9322 -7465.5029 298.4785 -271.9420 -181.0914 30048.2199 -270.2453 -182.8212
ENERGY: 1200000 1.5106 6.1773 1.1091 0.0000 -10634.4041 1475.0877 0.0000 0.0000 1831.4765 -7319.0429 313.2170 -9150.5194 -7461.7880 299.3222 339.7800 415.1207 30830.3328 -220.6630 -142.4979
ENERGY: 1500000 1.1281 5.3464 0.3756 0.0000 -10596.7571 1408.8255 0.0000 0.0000 1783.6878 -7397.3937 305.0442 -9181.0815 -7455.1116 299.8022 -19.7510 81.7183 29978.4884 -232.0101 -152.8847
TCL: Running FEP window  11: Lambda1 0.4999999999999996 Lambda2 0.4499999999999996 [dLambda -0.04999999999999999]
TCL: Setting parameter firsttimestep to 0
TCL: Setting parameter alchLambda to 0.4999999999999996
Info: NONBONDED TABLE R-SQUARED SPACING: 0.0625
Info: NONBONDED TABLE SIZE: 705 POINTS
TCL: Setting parameter alchLambda2 to 0.4499999999999996
Info: NONBONDED TABLE R-SQUARED SPACING: 0.0625
Info: NONBONDED TABLE SIZE: 705 POINTS
TCL: Running for 1500000 steps
ETITLE: TS BOND ANGLE DIHED IMPRP ELECT VDW BOUNDARY MISC KINETIC TOTAL TEMP POTENTIAL TOTALAVG TEMPAVG PRESSURE GPRESSURE VOLUME PRESSAVG GPRESSAVG
ENERGY: 0 1.1281 5.3464 0.3756 0.0000 -10596.4424 1408.8359 0.0000 0.0000 1782.7919 -7397.9645 304.8910 -9180.7564 -7397.9645 304.8910 -28.4193 75.4532 29978.4884 -28.4193 75.4532
ENERGY: 300000 0.4352 9.2988 1.6776 0.0000 -10577.5033 1381.7132 0.0000 0.0000 1756.5600 -7427.8185 300.4048 -9184.3785 -7467.8909 301.5633 -330.2561 -302.1960 30425.6782 -341.5869 -284.1783
ENERGY: 600000 0.9501 4.6734 1.0865 0.0000 -10714.4213 1505.3842 0.0000 0.0000 1755.8223 -7446.5049 300.2787 -9202.3272 -7460.3288 300.4808 455.8531 537.8656 30225.8334 -212.5705 -148.1208
ENERGY: 900000 0.3454 9.2895 2.8003 0.0000 -10537.2716 1398.5139 0.0000 0.0000 1794.0642 -7332.2584 306.8187 -9126.3226 -7451.9068 301.3141 15.0859 84.6579 30210.5493 -210.4237 -147.2435
ENERGY: 1200000 1.0889 6.4267 0.2717 0.0000 -10700.8954 1489.1998 0.0000 0.0000 1739.1074 -7464.8007 297.4201 -9203.9082 -7450.4041 301.7387 328.0361 461.6387 30227.5095 -149.0102 -78.2622
ENERGY: 1500000 0.5174 6.1922 1.1406 0.0000 -10639.5235 1386.1669 0.0000 0.0000 1726.1931 -7519.3134 295.2115 -9245.5065 -7456.1436 301.7605 -776.6203 -688.4767 30580.1365 -137.0391 -69.0137
TCL: Running FEP window  12: Lambda1 0.4499999999999996 Lambda2 0.39999999999999963 [dLambda -0.04999999999999999]
TCL: Setting parameter firsttimestep to 0
TCL: Setting parameter alchLambda to 0.4499999999999996
Info: NONBONDED TABLE R-SQUARED SPACING: 0.0625
Info: NONBONDED TABLE SIZE: 705 POINTS
TCL: Setting parameter alchLambda2 to 0.39999999999999963
Info: NONBONDED TABLE R-SQUARED SPACING: 0.0625
Info: NONBONDED TABLE SIZE: 705 POINTS
TCL: Running for 1500000 steps
ETITLE: TS BOND ANGLE DIHED IMPRP ELECT VDW BOUNDARY MISC KINETIC TOTAL TEMP POTENTIAL TOTALAVG TEMPAVG PRESSURE GPRESSURE VOLUME PRESSAVG GPRESSAVG
ENERGY: 0 0.5174 6.1922 1.1406 0.0000 -10639.5235 1386.2677 0.0000 0.0000 1725.3100 -7520.0956 295.0605 -9245.4056 -7520.0956 295.0605 -774.1732 -692.6358 30580.1365 -774.1732 -692.6358
ENERGY: 300000 0.5827 6.8496 1.8164 0.0000 -10742.9697 1492.5506 0.0000 0.0000 1729.0908 -7512.0796 295.7071 -9241.1704 -7509.6995 296.0545 145.7825 229.4256 30345.1130 -322.7168 -244.2482
ENERGY: 600000 2.1812 10.1867 3.1107 0.0000 -10617.9120 1412.7211 0.0000 0.0000 1787.2584 -7402.4538 305.6548 -9189.7122 -7476.5306 297.7052 -178.9856 -127.0529 30153.8594 -354.0026 -301.6392
ENERGY: 900000 0.8648 13.4390 1.6424 0.0000 -10686.4250 1402.6613 0.0000 0.0000 1736.8675 -7530.9500 297.0370 -9267.8176 -7484.8044 299.8231 -549.8390 -449.0180 30322.8847 -394.1445 -333.4757
ENERGY: 1200000 2.0422 7.1005 0.9583 0.0000 -10849.4980 1510.5732 0.0000 0.0000 1786.2584 -7542.5655 305.4838 -9328.8239 -7481.4618 300.5754 500.3094 532.5354 29774.4009 -301.8918 -249.3336
ENERGY: 1500000 0.8910 3.9631 0.3030 0.0000 -10791.2497 1481.7167 0.0000 0.0000 1737.1594 -7567.2165 297.0870 -9304.3759 -7477.7286 300.6844 -84.2125 -32.1624 30238.4997 -181.9173 -126.9811
TCL: Running FEP window  13: Lambda1 0.39999999999999963 Lambda2 0.34999999999999964 [dLambda -0.04999999999999999]
TCL: Setting parameter firsttimestep to 0
TCL: Setting parameter alchLambda to 0.39999999999999963
Info: NONBONDED TABLE R-SQUARED SPACING: 0.0625
Info: NONBONDED TABLE SIZE: 705 POINTS
TCL: Setting parameter alchLambda2 to 0.34999999999999964
Info: NONBONDED TABLE R-SQUARED SPACING: 0.0625
Info: NONBONDED TABLE SIZE: 705 POINTS
TCL: Running for 1500000 steps
ETITLE: TS BOND ANGLE DIHED IMPRP ELECT VDW BOUNDARY MISC KINETIC TOTAL TEMP POTENTIAL TOTALAVG TEMPAVG PRESSURE GPRESSURE VOLUME PRESSAVG GPRESSAVG
ENERGY: 0 0.8910 3.9631 0.3030 0.0000 -10791.2504 1481.3550 0.0000 0.0000 1736.3014 -7568.4369 296.9402 -9304.7383 -7568.4369 296.9402 -127.7256 -39.5293 30238.4997 -127.7256 -39.5293
ENERGY: 300000 3.7738 5.0469 1.0269 0.0000 -10591.4429 1411.1959 0.0000 0.0000 1787.3551 -7383.0443 305.6714 -9170.3995 -7451.6318 301.9329 -345.7340 -301.9477 30403.7187 -116.8986 -44.9419
ENERGY: 600000 1.2859 7.4962 1.8647 0.0000 -10616.2704 1390.6944 0.0000 0.0000 1757.3866 -7457.5427 300.5462 -9214.9293 -7475.7373 301.3500 -326.3756 -225.7867 30098.4676 -191.6207 -120.7443
ENERGY: 900000 1.2106 9.7248 0.5492 0.0000 -10727.8929 1462.0653 0.0000 0.0000 1732.3040 -7522.0390 296.2566 -9254.3430 -7483.8368 300.8036 153.2371 239.2455 30027.9789 -45.1381 16.6169
ENERGY: 1200000 0.6239 2.8864 1.4918 0.0000 -10592.9112 1391.4568 0.0000 0.0000 1731.4090 -7465.0432 296.1035 -9196.4522 -7472.3570 301.4719 -393.0529 -431.4282 30953.1752 -22.2658 27.6241
ENERGY: 1500000 1.6434 6.6087 1.2126 0.0000 -10561.2050 1371.4712 0.0000 0.0000 1726.0949 -7454.1742 295.1947 -9180.2691 -7472.8803 300.6153 -635.6099 -563.2165 30516.3188 -56.1932 -6.8476
TCL: Running FEP window  14: Lambda1 0.34999999999999964 Lambda2 0.29999999999999966 [dLambda -0.04999999999999999]
TCL: Setting parameter firsttimestep to 0
TCL: Setting parameter alchLambda to 0.34999999999999964
Info: NONBONDED TABLE R-SQUARED SPACING: 0.0625
Info: NONBONDED TABLE SIZE: 705 POINTS
TCL: Setting parameter alchLambda2 to 0.29999999999999966
Info: NONBONDED TABLE R-SQUARED SPACING: 0.0625
Info: NONBONDED TABLE SIZE: 705 POINTS
TCL: Running for 1500000 steps
ETITLE: TS BOND ANGLE DIHED IMPRP ELECT VDW BOUNDARY MISC KINETIC TOTAL TEMP POTENTIAL TOTALAVG TEMPAVG PRESSURE GPRESSURE VOLUME PRESSAVG GPRESSAVG
ENERGY: 0 1.6434 6.6087 1.2126 0.0000 -10561.2040 1371.8702 0.0000 0.0000 1725.1935 -7454.6755 295.0406 -9179.8690 -7454.6755 295.0406 -626.8967 -563.7308 30516.3188 -626.8967 -563.7308
ENERGY: 300000 1.3582 6.6951 2.0428 0.0000 -10607.2087 1434.4808 0.0000 0.0000 1698.1331 -7464.4988 290.4127 -9162.6319 -7461.6673 297.2052 -99.5495 -65.9570 30425.5063 -326.8357 -292.4997
ENERGY: 600000 0.6183 5.5298 0.5858 0.0000 -10616.2229 1430.0645 0.0000 0.0000 1789.4415 -7389.9830 306.0282 -9179.4245 -7453.2308 298.1455 56.4424 93.6711 30236.2066 -220.3613 -187.0979
ENERGY: 900000 0.6723 8.9280 4.3071 0.0000 -10630.9155 1445.0338 0.0000 0.0000 1725.6251 -7446.3490 295.1144 -9171.9742 -7444.2318 298.9718 211.3840 251.5430 30191.8778 -71.4215 -21.5364
ENERGY: 1200000 0.6733 5.2908 1.2473 0.0000 -10675.5087 1393.5776 0.0000 0.0000 1792.0789 -7482.6407 306.4792 -9274.7196 -7446.7810 300.4541 -529.8327 -452.6717 30182.6380 -58.8513 3.3961
ENERGY: 1500000 0.6027 6.4541 0.5128 0.0000 -10885.7061 1563.6174 0.0000 0.0000 1782.2876 -7532.2316 304.8047 -9314.5192 -7450.8474 300.9176 774.4581 848.9884 30175.9717 1.6235 68.0557
TCL: Running FEP window  15: Lambda1 0.29999999999999966 Lambda2 0.24999999999999967 [dLambda -0.04999999999999999]
TCL: Setting parameter firsttimestep to 0
TCL: Setting parameter alchLambda to 0.29999999999999966
Info: NONBONDED TABLE R-SQUARED SPACING: 0.0625
Info: NONBONDED TABLE SIZE: 705 POINTS
TCL: Setting parameter alchLambda2 to 0.24999999999999967
Info: NONBONDED TABLE R-SQUARED SPACING: 0.0625
Info: NONBONDED TABLE SIZE: 705 POINTS
TCL: Running for 1500000 steps
ETITLE: TS BOND ANGLE DIHED IMPRP ELECT VDW BOUNDARY MISC KINETIC TOTAL TEMP POTENTIAL TOTALAVG TEMPAVG PRESSURE GPRESSURE VOLUME PRESSAVG GPRESSAVG
ENERGY: 0 0.6027 6.4541 0.5128 0.0000 -10885.7059 1564.0315 0.0000 0.0000 1781.4065 -7532.6982 304.6541 -9314.1048 -7532.6982 304.6541 785.2338 849.3057 30175.9717 785.2338 849.3057
ENERGY: 300000 0.5732 7.7028 1.6465 0.0000 -10613.9378 1406.2465 0.0000 0.0000 1749.7263 -7448.0425 299.2361 -9197.7688 -7455.5862 302.2025 -412.1975 -326.7182 30541.2493 232.4821 311.5948
ENERGY: 600000 3.6290 6.6138 0.5732 0.0000 -10613.1927 1418.1420 0.0000 0.0000 1782.6856 -7401.5491 304.8728 -9184.2347 -7452.0493 299.9023 -81.1334 -15.8312 30210.1979 124.7512 210.6490
ENERGY: 900000 1.5291 4.3877 1.3393 0.0000 -10798.3791 1492.4188 0.0000 0.0000 1745.3300 -7553.3741 298.4843 -9298.7041 -7475.0672 299.4437 117.0477 153.9136 30123.6490 95.6037 174.4337
ENERGY: 1200000 0.5438 3.3252 1.9181 0.0000 -10638.5174 1416.4506 0.0000 0.0000 1751.2242 -7465.0555 299.4923 -9216.2797 -7469.7523 300.7705 -513.0453 -410.4510 30836.2335 11.4208 94.4360
ENERGY: 1500000 1.9691 4.2918 2.1724 0.0000 -10658.4030 1423.8465 0.0000 0.0000 1731.6787 -7494.4446 296.1496 -9226.1232 -7465.7350 301.0208 -33.2493 3.0387 30014.3950 34.8789 111.3873
TCL: Running FEP window  16: Lambda1 0.24999999999999967 Lambda2 0.19999999999999968 [dLambda -0.04999999999999999]
TCL: Setting parameter firsttimestep to 0
TCL: Setting parameter alchLambda to 0.24999999999999967
Info: NONBONDED TABLE R-SQUARED SPACING: 0.0625
Info: NONBONDED TABLE SIZE: 705 POINTS
TCL: Setting parameter alchLambda2 to 0.19999999999999968
Info: NONBONDED TABLE R-SQUARED SPACING: 0.0625
Info: NONBONDED TABLE SIZE: 705 POINTS
TCL: Running for 1500000 steps
ETITLE: TS BOND ANGLE DIHED IMPRP ELECT VDW BOUNDARY MISC KINETIC TOTAL TEMP POTENTIAL TOTALAVG TEMPAVG PRESSURE GPRESSURE VOLUME PRESSAVG GPRESSAVG
ENERGY: 0 1.9691 4.2918 2.1724 0.0000 -10658.4044 1423.7583 0.0000 0.0000 1730.8012 -7495.4116 295.9996 -9226.2129 -7495.4116 295.9996 -97.3855 0.2983 30014.3950 -97.3855 0.2983
ENERGY: 300000 0.0799 8.9269 1.4431 0.0000 -10619.0516 1336.8487 0.0000 0.0000 1818.5896 -7453.1634 311.0131 -9271.7530 -7437.5674 305.5780 -785.2624 -713.9784 29947.0127 -22.6346 58.0464
ENERGY: 600000 1.6126 4.9005 1.4532 0.0000 -10639.8880 1365.6249 0.0000 0.0000 1774.6931 -7491.6037 303.5059 -9266.2967 -7437.2687 305.8813 -879.6834 -817.7060 30491.3299 -178.7578 -113.5903
ENERGY: 900000 1.5340 7.7522 0.5994 0.0000 -10773.5081 1528.7129 0.0000 0.0000 1800.1472 -7434.7625 307.8591 -9234.9097 -7438.7506 305.6010 700.1033 730.3204 30198.5214 -75.6400 -21.3495
ENERGY: 1200000 0.4642 6.4410 1.7087 0.0000 -10842.8460 1580.0151 0.0000 0.0000 1739.4971 -7514.7199 297.4867 -9254.2170 -7448.5168 304.1429 1032.5523 1131.2483 29913.0340 76.8094 142.6326
ENERGY: 1500000 0.5569 4.1258 1.1802 0.0000 -10851.6245 1484.1815 0.0000 0.0000 1737.7905 -7623.7896 297.1949 -9361.5801 -7452.9086 303.3460 -148.7728 -83.7312 30261.8734 51.0792 118.1338
TCL: Running FEP window  17: Lambda1 0.19999999999999968 Lambda2 0.1499999999999997 [dLambda -0.04999999999999999]
TCL: Setting parameter firsttimestep to 0
TCL: Setting parameter alchLambda to 0.19999999999999968
Info: NONBONDED TABLE R-SQUARED SPACING: 0.0625
Info: NONBONDED TABLE SIZE: 705 POINTS
TCL: Setting parameter alchLambda2 to 0.1499999999999997
Info: NONBONDED TABLE R-SQUARED SPACING: 0.0625
Info: NONBONDED TABLE SIZE: 705 POINTS
TCL: Running for 1500000 steps
ETITLE: TS BOND ANGLE DIHED IMPRP ELECT VDW BOUNDARY MISC KINETIC TOTAL TEMP POTENTIAL TOTALAVG TEMPAVG PRESSURE GPRESSURE VOLUME PRESSAVG GPRESSAVG
ENERGY: 0 0.5569 4.1258 1.1802 0.0000 -10851.6253 1484.4274 0.0000 0.0000 1736.8937 -7624.4412 297.0415 -9361.3349 -7624.4412 297.0415 -157.8895 -82.1676 30261.8734 -157.8895 -82.1676
ENERGY: 300000 2.2844 10.0684 1.5982 0.0000 -10674.4613 1386.5894 0.0000 0.0000 1727.1519 -7546.7690 295.3755 -9273.9209 -7524.3638 297.2001 -581.4788 -520.2508 30247.0983 -305.0327 -243.8563
ENERGY: 600000 0.3158 9.4323 0.7717 0.0000 -10803.3493 1518.6080 0.0000 0.0000 1729.5272 -7544.6942 295.7817 -9274.2214 -7491.1698 299.9772 632.2696 720.1209 29732.5819 -219.3968 -154.2462
ENERGY: 900000 1.1631 5.6883 3.5013 0.0000 -10611.6949 1410.0507 0.0000 0.0000 1766.3156 -7424.9758 302.0732 -9191.2914 -7484.0944 299.2447 -346.7790 -250.6633 30237.7273 -236.1331 -169.3292
ENERGY: 1200000 1.0483 7.0117 0.6111 0.0000 -10727.6385 1414.6200 0.0000 0.0000 1787.4156 -7516.9318 305.6817 -9304.3474 -7485.9904 300.1687 -304.5962 -269.1574 29888.4363 -41.6247 19.2160
ENERGY: 1500000 1.4319 4.1186 1.9542 0.0000 -10444.4119 1306.7632 0.0000 0.0000 1782.5315 -7347.6124 304.8464 -9130.1439 -7471.5176 300.7071 -936.0327 -897.7924 30705.4345 -83.5443 -17.3453
TCL: Running FEP window  18: Lambda1 0.1499999999999997 Lambda2 0.09999999999999969 [dLambda -0.05 ]
TCL: Setting parameter firsttimestep to 0
TCL: Setting parameter alchLambda to 0.1499999999999997
Info: NONBONDED TABLE R-SQUARED SPACING: 0.0625
Info: NONBONDED TABLE SIZE: 705 POINTS
TCL: Setting parameter alchLambda2 to 0.09999999999999969
Info: NONBONDED TABLE R-SQUARED SPACING: 0.0625
Info: NONBONDED TABLE SIZE: 705 POINTS
TCL: Running for 1500000 steps
ETITLE: TS BOND ANGLE DIHED IMPRP ELECT VDW BOUNDARY MISC KINETIC TOTAL TEMP POTENTIAL TOTALAVG TEMPAVG PRESSURE GPRESSURE VOLUME PRESSAVG GPRESSAVG
ENERGY: 0 1.4319 4.1186 1.9542 0.0000 -10444.4121 1307.0154 0.0000 0.0000 1781.6531 -7348.2388 304.6962 -9129.8919 -7348.2388 304.6962 -968.4197 -899.8884 30705.4345 -968.4197 -899.8884
ENERGY: 300000 0.2369 5.9244 1.8879 0.0000 -10488.0242 1384.7876 0.0000 0.0000 1758.4626 -7336.7249 300.7302 -9095.1875 -7406.9142 302.4089 -180.9547 -142.4093 30553.7366 -548.5440 -500.3824
ENERGY: 600000 2.6776 8.4747 1.2416 0.0000 -10561.0513 1414.7175 0.0000 0.0000 1786.9156 -7347.0243 305.5962 -9133.9399 -7418.7057 300.8482 -158.9770 -58.1755 30486.5213 -514.3049 -452.4560
ENERGY: 900000 1.4570 4.7380 0.7245 0.0000 -10699.5243 1457.2139 0.0000 0.0000 1766.1695 -7469.2214 302.0482 -9235.3909 -7433.6981 301.7796 147.3899 239.2778 29896.4279 -381.2144 -321.7328
ENERGY: 1200000 3.3534 8.7965 2.0415 0.0000 -10474.2835 1320.4424 0.0000 0.0000 1722.5031 -7417.1466 294.5805 -9139.6497 -7441.5532 300.4260 -798.1791 -748.9383 30035.0607 -382.8404 -325.2049
ENERGY: 1500000 4.0726 6.0828 1.5693 0.0000 -10728.1863 1429.4992 0.0000 0.0000 1715.2477 -7571.7146 293.3396 -9286.9623 -7451.9308 300.2373 -396.5449 -307.4742 30173.2085 -376.9720 -325.7572
TCL: Running FEP window  19: Lambda1 0.09999999999999969 Lambda2 0.049999999999999684 [dLambda -0.05 ]
TCL: Setting parameter firsttimestep to 0
TCL: Setting parameter alchLambda to 0.09999999999999969
Info: NONBONDED TABLE R-SQUARED SPACING: 0.0625
Info: NONBONDED TABLE SIZE: 705 POINTS
TCL: Setting parameter alchLambda2 to 0.049999999999999684
Info: NONBONDED TABLE R-SQUARED SPACING: 0.0625
Info: NONBONDED TABLE SIZE: 705 POINTS
TCL: Running for 1500000 steps
ETITLE: TS BOND ANGLE DIHED IMPRP ELECT VDW BOUNDARY MISC KINETIC TOTAL TEMP POTENTIAL TOTALAVG TEMPAVG PRESSURE GPRESSURE VOLUME PRESSAVG GPRESSAVG
ENERGY: 0 4.0726 6.0828 1.5693 0.0000 -10728.1871 1428.9768 0.0000 0.0000 1714.3854 -7573.1000 293.1922 -9287.4854 -7573.1000 293.1922 -401.1592 -311.8101 30173.2085 -401.1592 -311.8101
ENERGY: 300000 1.4229 8.3557 1.6180 0.0000 -10629.1348 1446.2293 0.0000 0.0000 1765.0090 -7406.4999 301.8498 -9171.5089 -7457.0851 299.4424 75.8949 117.7361 30589.9883 -201.2453 -148.9404
ENERGY: 600000 0.4164 4.4270 0.8649 0.0000 -10633.1333 1423.1164 0.0000 0.0000 1738.7500 -7465.5586 297.3590 -9204.3085 -7472.2923 298.5101 -71.5906 -50.1401 30015.1010 -260.5429 -201.8360
ENERGY: 900000 1.5986 6.9317 0.5449 0.0000 -10694.4864 1456.0507 0.0000 0.0000 1795.5873 -7433.7733 307.0792 -9229.3606 -7450.4193 300.1956 104.6241 149.8851 30055.3321 -223.7288 -172.5579
ENERGY: 1200000 1.0001 5.3405 2.9585 0.0000 -10532.2011 1346.5667 0.0000 0.0000 1789.1945 -7387.1408 305.9859 -9176.3353 -7442.2951 300.5864 -566.6439 -457.6351 30003.4995 -262.6791 -201.2171
ENERGY: 1500000 1.8239 5.7336 1.0127 0.0000 -10688.2462 1523.3669 0.0000 0.0000 1754.5088 -7401.8004 300.0540 -9156.3092 -7444.7703 300.1171 709.1550 776.6752 30360.2704 -151.1558 -89.5111
TCL: Running FEP window  20: Lambda1 0.049999999999999684 Lambda2 0.0    [dLambda -0.049999999999999684]
TCL: Setting parameter firsttimestep to 0
TCL: Setting parameter alchLambda to 0.049999999999999684
Info: NONBONDED TABLE R-SQUARED SPACING: 0.0625
Info: NONBONDED TABLE SIZE: 705 POINTS
TCL: Setting parameter alchLambda2 to 0.0
Info: NONBONDED TABLE R-SQUARED SPACING: 0.0625
Info: NONBONDED TABLE SIZE: 705 POINTS
TCL: Running for 1500000 steps
ETITLE: TS BOND ANGLE DIHED IMPRP ELECT VDW BOUNDARY MISC KINETIC TOTAL TEMP POTENTIAL TOTALAVG TEMPAVG PRESSURE GPRESSURE VOLUME PRESSAVG GPRESSAVG
ENERGY: 0 1.8239 5.7336 1.0127 0.0000 -10688.2469 1523.2274 0.0000 0.0000 1753.6577 -7402.7917 299.9085 -9156.4494 -7402.7917 299.9085 699.8461 774.7370 30360.2704 699.8461 774.7370
ENERGY: 300000 0.1934 5.9405 1.4462 0.0000 -10726.7194 1414.7315 0.0000 0.0000 1744.6344 -7559.7734 298.3653 -9304.4078 -7432.7694 302.0691 -322.7692 -338.4993 30057.9202 -13.8713 37.9622
ENERGY: 600000 2.2117 5.8891 2.3361 0.0000 -10641.2418 1454.1514 0.0000 0.0000 1763.5214 -7413.1321 301.5954 -9176.6535 -7449.0297 301.3469 149.4145 155.4585 30373.4132 -124.9224 -73.1761
ENERGY: 900000 1.6563 5.9024 2.2511 0.0000 -10507.9464 1364.8194 0.0000 0.0000 1780.5968 -7352.7203 304.5156 -9133.3171 -7442.6072 300.9895 -373.8025 -349.9445 30224.0355 -245.7233 -196.1389
ENERGY: 1200000 1.3277 8.9516 1.3819 0.0000 -10715.4410 1451.5981 0.0000 0.0000 1757.0379 -7495.1437 300.4866 -9252.1816 -7442.1988 301.0963 -212.2329 -111.5252 30127.1815 -173.4264 -121.6650
ENERGY: 1500000 2.7274 5.2781 1.9737 0.0000 -10600.2555 1411.4239 0.0000 0.0000 1778.8922 -7399.9602 304.2241 -9178.8525 -7441.0103 300.7162 -314.0183 -283.7376 30557.8935 -164.4497 -117.8534
TCL: Exiting due to exit command.
