Info: SIMULATION PARAMETERS:
Info: TIMESTEP               2
Info: NUMBER OF STEPS        0
Info: STEPS PER CYCLE        10
Info: PERIODIC CELL BASIS 1  30.3138 0 0
Info: PERIODIC CELL BASIS 2  0 30.3607 0
Info: PERIODIC CELL BASIS 3  0 0 32.9617
Info: PERIODIC CELL CENTER   0 0 0
Info: WRAPPING WATERS AROUND PERIODIC BOUNDARIES ON OUTPUT.
Info: WRAPPING ALL CLUSTERS AROUND PERIODIC BOUNDARIES ON OUTPUT.
Info: FIRST LDB TIMESTEP     50
Info: LAST LDB TIMESTEP     -1
Info: HOM BACKGROUND SCALING 1
Info: PME BACKGROUND SCALING 1
Info: MIN ATOMS PER PATCH    40
Info: EMPTY PATCH LOAD       40 ATOMS
Info: VELOCITY FILE          mobley_3746675_equil.vel
Info: CENTER OF MASS MOVING INITIALLY? NO
Info: DIELECTRIC             1
Info: EXCLUDE                SCALED ONE-FOUR
Info: 1-4 ELECTROSTATICS SCALED BY 0.833333
Info: MODIFIED 1-4 VDW PARAMETERS WILL BE USED
Info: DCD FILENAME           mobley_3746675_prod.dcd
Info: DCD FREQUENCY          100000
Info: DCD FIRST STEP         100000
Info: DCD FILE WILL CONTAIN UNIT CELL DATA
Info: XST FILENAME           mobley_3746675_prod.xst
Info: XST FREQUENCY          100000
Info: NO VELOCITY DCD OUTPUT
Info: NO FORCE DCD OUTPUT
Info: OUTPUT FILENAME        mobley_3746675_prod
Info: BINARY OUTPUT FILES WILL BE USED
Info: RESTART FILENAME       mobley_3746675_prod.restart
Info: RESTART FREQUENCY      100000
Info: BINARY RESTART FILES WILL BE USED
Info: CUTOFF                 9
Info: PAIRLIST DISTANCE      11
Info: PAIRLIST SHRINK RATE   0.01
Info: PAIRLIST GROW RATE     0.01
Info: PAIRLIST TRIGGER       0.3
Info: PAIRLISTS PER CYCLE    2
Info: PAIRLISTS ENABLED
Info: MARGIN                 2
Info: HYDROGEN GROUP CUTOFF  2.5
Info: PATCH DIMENSION        15.5
Info: ENERGY OUTPUT STEPS    100000
Info: ENERGY EVALUATION STEPS    100000
Info: OUTPUT ENERGY PRECISION 4
Info: CROSSTERM ENERGY INCLUDED IN DIHEDRAL
Info: TIMING OUTPUT STEPS    1000000
Info: PRESSURE OUTPUT STEPS  100000
Info: ALCHEMICAL FEP ON
Info: FEP CURRENT LAMBDA VALUE     0
Info: FEP COMPARISON LAMBDA VALUE  0.05
Info: FEP INTRA-ALCHEMICAL NON-BONDED INTERACTIONS WILL BE RETAINED
Info: FEP INTRA-ALCHEMICAL BONDED INTERACTIONS WILL BE RETAINED
Info: FEP VDW SHIFTING COEFFICIENT 5
Info: FEP ELEC. ACTIVE FOR ANNIHILATED PARTICLES BETWEEN LAMBDA = 0 AND LAMBDA = 0.5
Info: FEP ELEC. ACTIVE FOR EXNIHILATED PARTICLES BETWEEN LAMBDA = 0.5 AND LAMBDA = 1
Info: FEP VDW ACTIVE FOR ANNIHILATED PARTICLES BETWEEN LAMBDA = 0 AND LAMBDA = 1
Info: FEP VDW ACTIVE FOR EXNIHILATED PARTICLES BETWEEN LAMBDA = 0 AND LAMBDA = 1
Info: FEP BOND ACTIVE FOR ANNIHILATED PARTICLES BETWEEN LAMBDA = 1 AND LAMBDA = 1
Info: FEP BOND ACTIVE FOR EXNIHILATED PARTICLES BETWEEN LAMBDA = 0 AND LAMBDA = 0
Info: LANGEVIN DYNAMICS ACTIVE
Info: LANGEVIN TEMPERATURE   300
Info: LANGEVIN USING BBK INTEGRATOR
Info: LANGEVIN DAMPING COEFFICIENT IS 1 INVERSE PS
Info: LANGEVIN DYNAMICS APPLIED TO HYDROGENS
Info: LANGEVIN PISTON PRESSURE CONTROL ACTIVE
Info:        TARGET PRESSURE IS 1.01325 BAR
Info:     OSCILLATION PERIOD IS 50 FS
Info:             DECAY TIME IS 25 FS
Info:     PISTON TEMPERATURE IS 300 K
Info:       PRESSURE CONTROL IS GROUP-BASED
Info:    INITIAL STRAIN RATE IS -0.000181328 -0.000181328 -0.000181328
Info:       CELL FLUCTUATION IS ISOTROPIC
Info: PARTICLE MESH EWALD (PME) ACTIVE
Info: PME TOLERANCE               1e-06
Info: PME EWALD COEFFICIENT       0.348832
Info: PME INTERPOLATION ORDER     4
Info: PME GRID DIMENSIONS         32 32 36
Info: PME MAXIMUM GRID SPACING    1
Info: PME CALCULATION WILL BE PERFORMED ON GPU
Info: FULL ELECTROSTATIC EVALUATION FREQUENCY      2
Info: USING VERLET I (r-RESPA) MTS SCHEME.
Info: C1 SPLITTING OF LONG RANGE ELECTROSTATICS
Info: PLACING ATOMS IN PATCHES BY HYDROGEN GROUPS
Info: RIGID BONDS TO HYDROGEN : ALL
Info:         ERROR TOLERANCE : 1e-08
Info:          MAX ITERATIONS : 100
Info: RIGID WATER USING SETTLE ALGORITHM
Info: RANDOM NUMBER SEED     1743783728
Info: USE HYDROGEN BONDS?    NO
Info: Using AMBER format force field!
Info: AMBER PARM FILE        mobley_3746675.prmtop
Info: COORDINATE PDB         mobley_3746675.pdb
Info: Exclusions will be read from PARM file!
Info: SCNB (VDW SCALING)     2
Info: USING ARITHMETIC MEAN TO COMBINE L-J SIGMA PARAMETERS
Info: BINARY COORDINATES     mobley_3746675_equil.coor
Info: SUMMARY OF PARAMETERS:
Info: 9 BONDS
Info: 10 ANGLES
Info:   10 HARMONIC
Info:   0 COSINE-BASED
Info: 6 DIHEDRAL
Info: 0 IMPROPER
Info: 0 CROSSTERM
Info: 0 VDW
Info: 21 VDW_PAIRS
Info: 0 NBTHOLE_PAIRS
Info: To read alchdata from file: mobley_3746675.pdb
Info: To read alchflag data from column: 5
Info: STRUCTURE SUMMARY:
Info: 2956 ATOMS
Info: 2956 BONDS
Info: 30 ANGLES
Info: 52 DIHEDRALS
Info: 0 IMPROPERS
Info: 0 CROSSTERMS
Info: 3021 EXCLUSIONS
Info: 2947 RIGID BONDS
Info: ALCH: 0 ATOMS TO DISAPPEAR IN FINAL STATE
Info: ALCH: 19 ATOMS TO APPEAR IN FINAL STATE
Info: 5921 DEGREES OF FREEDOM
Info: 988 HYDROGEN GROUPS
Info: 4 ATOMS IN LARGEST HYDROGEN GROUP
Info: 988 MIGRATION GROUPS
Info: 4 ATOMS IN LARGEST MIGRATION GROUP
Info: TOTAL MASS = 17755.8 amu
Info: TOTAL CHARGE = 0.000199996 e
Info: MASS DENSITY = 0.971938 g/cm^3
Info: ATOM DENSITY = 0.0974412 atoms/A^3
Info: ADDED 0 IMPLICIT EXCLUSIONS
Info: NONBONDED TABLE R-SQUARED SPACING: 0.0625
Info: NONBONDED TABLE SIZE: 705 POINTS
Info: REMOVING COM VELOCITY 0.148956 0.14801 -0.0418103
Info: Use 3D box decompostion in PME FFT.
Info: Updated CUDA force table with 4096 elements.
Info: Updated CUDA LJ table with 6 x 6 elements.
Info: Found 18 unique exclusion lists needing 48 bytes
TCL: Running for 1500000 steps
ETITLE: TS BOND ANGLE DIHED IMPRP ELECT VDW BOUNDARY MISC KINETIC TOTAL TEMP POTENTIAL TOTALAVG TEMPAVG PRESSURE GPRESSURE VOLUME PRESSAVG GPRESSAVG
ENERGY: 0 3.5659 4.0055 18.2968 0.0000 -10542.1850 1423.9463 0.0000 0.0000 1731.3826 -7360.9878 294.2987 -9092.3705 -7360.9878 294.2987 297.6354 380.6496 30336.2440 297.6354 380.6496
ENERGY: 300000 2.0919 4.3682 15.6382 0.0000 -10770.7531 1488.1705 0.0000 0.0000 1786.9860 -7473.4983 303.7501 -9260.4843 -7460.0173 296.0018 298.4640 371.3708 30129.5534 166.2132 213.2170
ENERGY: 600000 4.6311 7.5714 16.8024 0.0000 -10724.3787 1456.6497 0.0000 0.0000 1780.8492 -7457.8750 302.7070 -9238.7242 -7472.0306 297.8867 -251.9062 -194.2917 30177.3485 216.6702 275.1636
ENERGY: 900000 1.9901 10.0192 18.5409 0.0000 -10637.8758 1389.9173 0.0000 0.0000 1705.5046 -7511.9035 289.9000 -9217.4082 -7470.1135 298.0150 -505.5627 -382.0260 30562.6875 95.8319 158.4530
ENERGY: 1200000 1.8076 5.7538 13.4096 0.0000 -10758.3572 1519.3734 0.0000 0.0000 1769.0164 -7448.9963 300.6957 -9218.0127 -7458.6290 298.7197 695.3047 727.7032 30269.9427 142.3547 196.8270
ENERGY: 1500000 1.7685 3.6139 14.1088 0.0000 -10592.1307 1356.8391 0.0000 0.0000 1772.9021 -7442.8983 301.3562 -9215.8003 -7457.1836 299.6232 -941.4642 -849.5202 30768.1729 70.1777 121.2225
TCL: Running FEP window   2: Lambda1 0.05   Lambda2 0.1    [dLambda 0.05  ]
TCL: Setting parameter firsttimestep to 0
TCL: Setting parameter alchLambda to 0.05
Info: NONBONDED TABLE R-SQUARED SPACING: 0.0625
Info: NONBONDED TABLE SIZE: 705 POINTS
TCL: Setting parameter alchLambda2 to 0.1
Info: NONBONDED TABLE R-SQUARED SPACING: 0.0625
Info: NONBONDED TABLE SIZE: 705 POINTS
TCL: Running for 1500000 steps
ETITLE: TS BOND ANGLE DIHED IMPRP ELECT VDW BOUNDARY MISC KINETIC TOTAL TEMP POTENTIAL TOTALAVG TEMPAVG PRESSURE GPRESSURE VOLUME PRESSAVG GPRESSAVG
ENERGY: 0 1.7685 3.6139 14.1088 0.0000 -10592.1316 1359.5489 0.0000 0.0000 1772.0044 -7441.0870 301.2036 -9213.0914 -7441.0870 301.2036 -928.4088 -840.6820 30768.1729 -928.4088 -840.6820
ENERGY: 300000 1.0569 5.7290 19.1118 0.0000 -10732.6579 1473.5688 0.0000 0.0000 1779.7863 -7453.4052 302.5263 -9233.1915 -7472.7794 299.3378 425.6583 487.7067 29751.7873 -238.0082 -164.8822
ENERGY: 600000 1.8816 5.2529 18.2925 0.0000 -10600.3870 1392.2855 0.0000 0.0000 1753.4670 -7429.2076 298.0526 -9182.6746 -7471.8352 300.7764 -290.2425 -245.0657 30454.9448 -11.2015 60.2909
ENERGY: 900000 1.9661 4.5226 14.9783 0.0000 -10732.5119 1474.5473 0.0000 0.0000 1700.7161 -7535.7815 289.0861 -9236.4976 -7470.6761 299.1218 195.5720 295.9283 30240.5332 89.7082 158.8785
ENERGY: 1200000 1.9723 6.4833 14.4493 0.0000 -10890.4116 1489.5430 0.0000 0.0000 1763.3554 -7614.6084 299.7334 -9377.9638 -7479.5934 299.6655 76.8546 102.3016 29886.8162 41.5157 111.4396
ENERGY: 1500000 4.3173 6.1450 15.8173 0.0000 -10704.6349 1446.9795 0.0000 0.0000 1745.4504 -7485.9253 296.6900 -9231.3758 -7467.5385 299.3462 -421.5682 -336.8700 30518.8061 -32.5331 37.2451
TCL: Running FEP window   3: Lambda1 0.1    Lambda2 0.15000000000000002 [dLambda 0.05000000000000002]
TCL: Setting parameter firsttimestep to 0
TCL: Setting parameter alchLambda to 0.1
Info: NONBONDED TABLE R-SQUARED SPACING: 0.0625
Info: NONBONDED TABLE SIZE: 705 POINTS
TCL: Setting parameter alchLambda2 to 0.15000000000000002
Info: NONBONDED TABLE R-SQUARED SPACING: 0.0625
Info: NONBONDED TABLE SIZE: 705 POINTS
TCL: Running for 1500000 steps
ETITLE: TS BOND ANGLE DIHED IMPRP ELECT VDW BOUNDARY MISC KINETIC TOTAL TEMP POTENTIAL TOTALAVG TEMPAVG PRESSURE GPRESSURE VOLUME PRESSAVG GPRESSAVG
ENERGY: 0 4.3173 6.1450 15.8173 0.0000 -10704.6341 1449.6334 0.0000 0.0000 1744.5678 -7484.1532 296.5399 -9228.7210 -7484.1532 296.5399 -417.7237 -323.7666 30518.8061 -417.7237 -323.7666
ENERGY: 300000 2.6360 3.7629 15.1221 0.0000 -10569.0187 1378.5543 0.0000 0.0000 1796.0693 -7372.8741 305.2941 -9168.9434 -7427.5483 299.6069 -536.7680 -445.3670 30428.3460 55.1693 122.5541
ENERGY: 600000 3.6043 4.6613 17.8010 0.0000 -10584.3514 1382.4773 0.0000 0.0000 1757.0983 -7418.7091 298.6698 -9175.8074 -7430.4714 301.8419 -462.2466 -408.3485 30492.7102 -59.4134 -5.5363
ENERGY: 900000 4.7290 5.0283 17.8379 0.0000 -10701.2661 1394.1095 0.0000 0.0000 1798.6309 -7480.9305 305.7295 -9279.5614 -7444.9227 301.8458 -320.0542 -301.6518 30084.4812 -7.1013 48.8283
ENERGY: 1200000 1.6278 4.1652 14.7001 0.0000 -10806.5237 1529.8066 0.0000 0.0000 1771.0418 -7485.1822 301.0399 -9256.2239 -7451.8251 301.7764 790.5015 842.0011 30028.7081 -5.8790 52.0789
ENERGY: 1500000 4.2575 2.6443 17.6615 0.0000 -10684.9264 1421.4956 0.0000 0.0000 1748.6712 -7490.1963 297.2374 -9238.8675 -7462.8618 300.4646 -56.3429 73.2889 29876.5997 0.4093 65.2802
TCL: Running FEP window   4: Lambda1 0.15000000000000002 Lambda2 0.2    [dLambda 0.04999999999999999]
TCL: Setting parameter firsttimestep to 0
TCL: Setting parameter alchLambda to 0.15000000000000002
Info: NONBONDED TABLE R-SQUARED SPACING: 0.0625
Info: NONBONDED TABLE SIZE: 705 POINTS
TCL: Setting parameter alchLambda2 to 0.2
Info: NONBONDED TABLE R-SQUARED SPACING: 0.0625
Info: NONBONDED TABLE SIZE: 705 POINTS
TCL: Running for 1500000 steps
ETITLE: TS BOND ANGLE DIHED IMPRP ELECT VDW BOUNDARY MISC KINETIC TOTAL TEMP POTENTIAL TOTALAVG TEMPAVG PRESSURE GPRESSURE VOLUME PRESSAVG GPRESSAVG
ENERGY: 0 4.2574 2.6443 17.6615 0.0000 -10684.9261 1422.4814 0.0000 0.0000 1747.7718 -7490.1096 297.0845 -9237.8815 -7490.1096 297.0845 -16.4301 78.7300 29876.5997 -16.4301 78.7300
ENERGY: 300000 2.9204 4.0413 17.0076 0.0000 -10687.2098 1436.2778 0.0000 0.0000 1789.4831 -7437.4796 304.1746 -9226.9627 -7460.1239 299.0019 -275.7020 -255.5477 30584.9618 -432.7422 -369.4033
ENERGY: 600000 4.2687 6.7295 17.0649 0.0000 -10621.4912 1382.2470 0.0000 0.0000 1769.4243 -7441.7568 300.7650 -9211.1811 -7443.9271 301.4897 -442.2875 -392.8388 30284.5771 -579.3531 -539.9174
ENERGY: 900000 1.2807 3.6505 16.8412 0.0000 -10616.6038 1396.6468 0.0000 0.0000 1757.4701 -7440.7145 298.7330 -9198.1846 -7462.9030 299.9122 -379.1472 -278.0105 30605.8934 -477.3151 -427.6551
ENERGY: 1200000 2.0358 8.9190 14.4162 0.0000 -10515.6865 1349.5303 0.0000 0.0000 1777.5447 -7363.2406 302.1453 -9140.7853 -7458.9625 299.6486 -472.8669 -439.1095 30374.9582 -404.7960 -353.4290
ENERGY: 1500000 3.3544 5.2239 18.3361 0.0000 -10615.3666 1405.9009 0.0000 0.0000 1768.6107 -7413.9407 300.6267 -9182.5514 -7459.8127 299.7683 -464.1399 -383.5280 30766.7698 -333.3654 -282.2562
TCL: Running FEP window   5: Lambda1 0.2    Lambda2 0.25   [dLambda 0.04999999999999999]
TCL: Setting parameter firsttimestep to 0
TCL: Setting parameter alchLambda to 0.2
Info: NONBONDED TABLE R-SQUARED SPACING: 0.0625
Info: NONBONDED TABLE SIZE: 705 POINTS
TCL: Setting parameter alchLambda2 to 0.25
Info: NONBONDED TABLE R-SQUARED SPACING: 0.0625
Info: NONBONDED TABLE SIZE: 705 POINTS
TCL: Running for 1500000 steps
ETITLE: TS BOND ANGLE DIHED IMPRP ELECT VDW BOUNDARY MISC KINETIC TOTAL TEMP POTENTIAL TOTALAVG TEMPAVG PRESSURE GPRESSURE VOLUME PRESSAVG GPRESSAVG
ENERGY: 0 3.3544 5.2239 18.3361 0.0000 -10615.3667 1407.1347 0.0000 0.0000 1767.7381 -7413.5795 300.4784 -9181.3176 -7413.5795 300.4784 -462.7413 -372.7623 30766.7698 -462.7413 -372.7623
ENERGY: 300000 4.8671 6.3860 18.1267 0.0000 -10586.6133 1419.3396 0.0000 0.0000 1779.7313 -7358.1626 302.5170 -9137.8939 -7462.7353 299.7353 -100.3139 -17.2203 30363.7868 -535.6175 -448.1207
ENERGY: 600000 1.8781 5.0409 17.8146 0.0000 -10600.6016 1451.5747 0.0000 0.0000 1704.4550 -7419.8383 289.7216 -9124.2933 -7456.4850 298.1878 129.5223 163.1066 30632.2339 -300.2546 -227.4327
ENERGY: 900000 1.7218 5.2690 15.0952 0.0000 -10759.3375 1454.9698 0.0000 0.0000 1775.2022 -7507.0795 301.7471 -9282.2817 -7472.5247 297.9823 -135.7196 -88.5630 30378.9719 -245.3185 -178.2696
ENERGY: 1200000 6.0751 4.8867 16.6402 0.0000 -10742.5660 1502.0406 0.0000 0.0000 1764.2917 -7448.6317 299.8926 -9212.9234 -7463.1614 299.8028 525.7484 522.2582 30440.8573 -198.6535 -136.2604
ENERGY: 1500000 2.5035 5.5097 14.2898 0.0000 -10841.3298 1516.6576 0.0000 0.0000 1777.4240 -7524.9452 302.1248 -9302.3692 -7467.6698 300.1254 213.6065 272.5804 30358.5760 -79.0611 -18.2948
TCL: Running FEP window   6: Lambda1 0.25   Lambda2 0.3    [dLambda 0.04999999999999999]
TCL: Setting parameter firsttimestep to 0
TCL: Setting parameter alchLambda to 0.25
Info: NONBONDED TABLE R-SQUARED SPACING: 0.0625
Info: NONBONDED TABLE SIZE: 705 POINTS
TCL: Setting parameter alchLambda2 to 0.3
Info: NONBONDED TABLE R-SQUARED SPACING: 0.0625
Info: NONBONDED TABLE SIZE: 705 POINTS
TCL: Running for 1500000 steps
ETITLE: TS BOND ANGLE DIHED IMPRP ELECT VDW BOUNDARY MISC KINETIC TOTAL TEMP POTENTIAL TOTALAVG TEMPAVG PRESSURE GPRESSURE VOLUME PRESSAVG GPRESSAVG
ENERGY: 0 2.5034 5.5097 14.2898 0.0000 -10841.3294 1517.1838 0.0000 0.0000 1776.5382 -7525.3044 301.9742 -9301.8426 -7525.3044 301.9742 194.0367 284.6779 30358.5760 194.0367 284.6779
ENERGY: 300000 2.7421 4.8481 17.1549 0.0000 -10691.2541 1408.2423 0.0000 0.0000 1760.6124 -7497.6543 299.2672 -9258.2667 -7470.8810 302.8009 -285.9481 -223.9256 30171.7792 -149.4838 -97.6195
ENERGY: 600000 3.4598 3.1717 17.3039 0.0000 -10706.8089 1442.2646 0.0000 0.0000 1781.5308 -7459.0780 302.8229 -9240.6089 -7467.2152 300.7624 -58.4317 46.6601 30246.1543 -199.2130 -141.9784
ENERGY: 900000 3.2763 5.9215 13.7089 0.0000 -10632.8393 1412.8243 0.0000 0.0000 1824.1950 -7372.9133 310.0749 -9197.1084 -7472.1631 299.6630 -84.9746 -55.5115 30572.7155 -155.5529 -102.6698
ENERGY: 1200000 3.5795 4.3749 13.0680 0.0000 -10605.1907 1365.6441 0.0000 0.0000 1786.0385 -7432.4858 303.5891 -9218.5242 -7462.4781 300.6148 -908.6097 -923.4084 31091.1016 -185.1265 -139.6998
ENERGY: 1500000 4.1981 6.7097 22.2926 0.0000 -10692.4796 1444.2454 0.0000 0.0000 1775.4407 -7439.5931 301.7877 -9215.0338 -7459.6896 300.1917 -191.9622 -130.9741 30446.1069 -75.6201 -22.9264
TCL: Running FEP window   7: Lambda1 0.3    Lambda2 0.35   [dLambda 0.04999999999999999]
TCL: Setting parameter firsttimestep to 0
TCL: Setting parameter alchLambda to 0.3
Info: NONBONDED TABLE R-SQUARED SPACING: 0.0625
Info: NONBONDED TABLE SIZE: 705 POINTS
TCL: Setting parameter alchLambda2 to 0.35
Info: NONBONDED TABLE R-SQUARED SPACING: 0.0625
Info: NONBONDED TABLE SIZE: 705 POINTS
TCL: Running for 1500000 steps
ETITLE: TS BOND ANGLE DIHED IMPRP ELECT VDW BOUNDARY MISC KINETIC TOTAL TEMP POTENTIAL TOTALAVG TEMPAVG PRESSURE GPRESSURE VOLUME PRESSAVG GPRESSAVG
ENERGY: 0 4.1981 6.7097 22.2926 0.0000 -10692.4810 1444.4726 0.0000 0.0000 1774.5334 -7440.2745 301.6335 -9214.8079 -7440.2745 301.6335 -210.6876 -124.5832 30446.1069 -210.6876 -124.5832
ENERGY: 300000 2.2516 5.1051 16.7679 0.0000 -10694.6274 1441.1468 0.0000 0.0000 1775.9775 -7453.3785 301.8789 -9229.3560 -7486.8612 299.8873 -278.0529 -265.0071 30971.8180 -268.0227 -231.4343
ENERGY: 600000 4.0192 9.2933 11.8039 0.0000 -10712.2641 1472.8484 0.0000 0.0000 1766.4295 -7447.8697 300.2560 -9214.2992 -7464.0097 299.9021 276.6432 368.2209 30150.0766 -75.3022 -27.2093
ENERGY: 900000 3.2525 7.5468 14.9037 0.0000 -10785.0484 1491.0000 0.0000 0.0000 1789.1426 -7479.2028 304.1167 -9268.3454 -7463.6447 301.3421 264.0937 340.2029 30277.1030 19.6445 77.2799
ENERGY: 1200000 1.9644 3.5423 17.8288 0.0000 -10918.8930 1644.0890 0.0000 0.0000 1796.1985 -7455.2699 305.3161 -9251.4685 -7470.4152 300.7657 1736.4613 1798.1043 29700.0294 119.0623 179.3152
ENERGY: 1500000 3.9789 4.9233 14.9108 0.0000 -10678.7286 1481.7958 0.0000 0.0000 1767.3177 -7405.8021 300.4069 -9173.1198 -7463.3646 301.5282 761.0988 752.2255 29925.6603 189.5280 243.6224
TCL: Running FEP window   8: Lambda1 0.35   Lambda2 0.39999999999999997 [dLambda 0.04999999999999999]
TCL: Setting parameter firsttimestep to 0
TCL: Setting parameter alchLambda to 0.35
Info: NONBONDED TABLE R-SQUARED SPACING: 0.0625
Info: NONBONDED TABLE SIZE: 705 POINTS
TCL: Setting parameter alchLambda2 to 0.39999999999999997
Info: NONBONDED TABLE R-SQUARED SPACING: 0.0625
Info: NONBONDED TABLE SIZE: 705 POINTS
TCL: Running for 1500000 steps
ETITLE: TS BOND ANGLE DIHED IMPRP ELECT VDW BOUNDARY MISC KINETIC TOTAL TEMP POTENTIAL TOTALAVG TEMPAVG PRESSURE GPRESSURE VOLUME PRESSAVG GPRESSAVG
ENERGY: 0 3.9789 4.9232 14.9108 0.0000 -10678.7288 1481.8732 0.0000 0.0000 1766.4800 -7406.5627 300.2645 -9173.0427 -7406.5627 300.2645 678.4615 758.1841 29925.6603 678.4615 758.1841
ENERGY: 300000 6.6468 7.1087 16.3702 0.0000 -10623.5073 1405.4456 0.0000 0.0000 1776.6424 -7411.2935 301.9919 -9187.9359 -7409.7647 302.1369 31.4909 81.2580 30410.4652 201.4590 264.9862
ENERGY: 600000 4.3326 6.6817 22.4573 0.0000 -10785.7161 1488.0893 0.0000 0.0000 1701.9235 -7562.2316 289.2913 -9264.1551 -7455.9845 299.8178 163.1450 206.3485 30416.2404 32.2646 94.3486
ENERGY: 900000 4.4009 4.9163 17.5948 0.0000 -10619.0727 1403.2863 0.0000 0.0000 1771.7670 -7417.1074 301.1632 -9188.8744 -7441.4628 300.7336 -290.3129 -274.8721 30639.9271 -44.1698 26.4528
ENERGY: 1200000 1.9778 4.7229 13.2091 0.0000 -10613.8649 1378.5784 0.0000 0.0000 1749.0376 -7466.3392 297.2997 -9215.3767 -7443.5261 300.8707 -819.1480 -681.2109 30909.9343 -40.6831 35.0867
ENERGY: 1500000 2.7890 7.4992 19.2707 0.0000 -10737.3917 1470.2387 0.0000 0.0000 1727.6954 -7509.8987 293.6720 -9237.5941 -7449.8375 300.3611 138.2205 246.7447 30218.4443 -11.0231 57.6521
TCL: Running FEP window   9: Lambda1 0.39999999999999997 Lambda2 0.44999999999999996 [dLambda 0.04999999999999999]
TCL: Setting parameter firsttimestep to 0
TCL: Setting parameter alchLambda to 0.39999999999999997
Info: NONBONDED TABLE R-SQUARED SPACING: 0.0625
Info: NONBONDED TABLE SIZE: 705 POINTS
TCL: Setting parameter alchLambda2 to 0.44999999999999996
Info: NONBONDED TABLE R-SQUARED SPACING: 0.0625
Info: NONBONDED TABLE SIZE: 705 POINTS
TCL: Running for 1500000 steps
ETITLE: TS BOND ANGLE DIHED IMPRP ELECT VDW BOUNDARY MISC KINETIC TOTAL TEMP POTENTIAL TOTALAVG TEMPAVG PRESSURE GPRESSURE VOLUME PRESSAVG GPRESSAVG
ENERGY: 0 2.7890 7.4992 19.2707 0.0000 -10737.3920 1470.6243 0.0000 0.0000 1726.8394 -7510.3695 293.5265 -9237.2088 -7510.3695 293.5265 167.1342 256.7762 30218.4443 167.1342 256.7762
ENERGY: 300000 2.6882 14.7736 15.7740 0.0000 -10682.0572 1430.5871 0.0000 0.0000 1779.2737 -7438.9607 302.4392 -9218.2344 -7459.8139 298.7437 -123.9760 -68.9037 30316.3630 34.2523 105.1588
ENERGY: 600000 5.0286 4.3486 17.8156 0.0000 -10738.2123 1445.1277 0.0000 0.0000 1814.8589 -7451.0330 308.4879 -9265.8919 -7468.9603 300.5969 -257.9460 -216.7600 30656.8561 -115.7020 -47.1796
ENERGY: 900000 2.9892 4.5890 16.7840 0.0000 -10724.5062 1479.2151 0.0000 0.0000 1798.3114 -7422.6176 305.6752 -9220.9289 -7462.9222 301.3504 398.6872 513.0823 30090.5758 6.4348 84.1134
ENERGY: 1200000 7.1959 4.1753 15.6352 0.0000 -10628.6294 1390.7039 0.0000 0.0000 1779.9998 -7430.9193 302.5626 -9210.9191 -7465.6232 300.6057 -512.5168 -430.7774 30904.0479 -65.7254 7.6004
ENERGY: 1500000 2.5357 5.7941 14.8663 0.0000 -10593.8091 1338.0705 0.0000 0.0000 1734.6193 -7497.9232 294.8489 -9232.5425 -7469.1763 299.7243 -760.7610 -649.5437 30161.7829 -92.5241 -15.1698
TCL: Running FEP window  10: Lambda1 0.44999999999999996 Lambda2 0.49999999999999994 [dLambda 0.04999999999999999]
TCL: Setting parameter firsttimestep to 0
TCL: Setting parameter alchLambda to 0.44999999999999996
Info: NONBONDED TABLE R-SQUARED SPACING: 0.0625
Info: NONBONDED TABLE SIZE: 705 POINTS
TCL: Setting parameter alchLambda2 to 0.49999999999999994
Info: NONBONDED TABLE R-SQUARED SPACING: 0.0625
Info: NONBONDED TABLE SIZE: 705 POINTS
TCL: Running for 1500000 steps
ETITLE: TS BOND ANGLE DIHED IMPRP ELECT VDW BOUNDARY MISC KINETIC TOTAL TEMP POTENTIAL TOTALAVG TEMPAVG PRESSURE GPRESSURE VOLUME PRESSAVG GPRESSAVG
ENERGY: 0 2.5358 5.7941 14.8663 0.0000 -10593.8102 1337.5121 0.0000 0.0000 1733.7406 -7499.3613 294.6995 -9233.1019 -7499.3613 294.6995 -732.8088 -648.1323 30161.7829 -732.8088 -648.1323
ENERGY: 300000 4.6127 3.3755 15.5391 0.0000 -10626.7174 1429.8548 0.0000 0.0000 1791.3485 -7381.9867 304.4917 -9173.3351 -7475.6429 299.4818 238.1612 287.5880 30057.8505 -158.5910 -89.3499
ENERGY: 600000 4.1336 5.5998 15.2254 0.0000 -10665.3567 1470.8500 0.0000 0.0000 1733.1831 -7436.3646 294.6048 -9169.5478 -7462.0465 298.8813 98.9442 128.8427 30700.6066 -261.5206 -211.2574
ENERGY: 900000 1.9923 3.2975 17.9752 0.0000 -10611.4799 1402.8933 0.0000 0.0000 1804.1099 -7381.2117 306.6608 -9185.3216 -7447.5991 300.2898 -251.0154 -221.2963 30595.2450 -198.5082 -140.0634
ENERGY: 1200000 3.2744 4.0339 14.1585 0.0000 -10531.5635 1344.7421 0.0000 0.0000 1733.4624 -7431.8922 294.6522 -9165.3546 -7445.2716 299.4013 -679.6481 -635.1913 30690.2402 -144.5333 -85.2955
ENERGY: 1500000 1.3507 7.1296 15.9803 0.0000 -10723.1819 1441.3184 0.0000 0.0000 1753.5877 -7503.8151 298.0731 -9257.4029 -7445.2641 299.6246 -257.7731 -234.2116 30496.2795 -192.9601 -129.6501
TCL: Running FEP window  11: Lambda1 0.49999999999999994 Lambda2 0.5499999999999999 [dLambda 0.04999999999999999]
TCL: Setting parameter firsttimestep to 0
TCL: Setting parameter alchLambda to 0.49999999999999994
Info: NONBONDED TABLE R-SQUARED SPACING: 0.0625
Info: NONBONDED TABLE SIZE: 705 POINTS
TCL: Setting parameter alchLambda2 to 0.5499999999999999
Info: NONBONDED TABLE R-SQUARED SPACING: 0.0625
Info: NONBONDED TABLE SIZE: 705 POINTS
TCL: Running for 1500000 steps
ETITLE: TS BOND ANGLE DIHED IMPRP ELECT VDW BOUNDARY MISC KINETIC TOTAL TEMP POTENTIAL TOTALAVG TEMPAVG PRESSURE GPRESSURE VOLUME PRESSAVG GPRESSAVG
ENERGY: 0 1.3507 7.1296 15.9803 0.0000 -10723.1830 1441.9799 0.0000 0.0000 1752.7062 -7504.0364 297.9233 -9256.7426 -7504.0364 297.9233 -300.8564 -222.2002 30496.2795 -300.8564 -222.2002
ENERGY: 300000 1.4556 9.6682 17.4506 0.0000 -10698.9122 1406.2688 0.0000 0.0000 1751.0077 -7513.0614 297.6346 -9264.0691 -7502.3197 296.6574 -474.9931 -443.7199 30544.9785 -262.8462 -214.5769
ENERGY: 600000 2.8978 5.3531 14.0126 0.0000 -10753.4938 1530.8531 0.0000 0.0000 1808.7787 -7391.5986 307.4544 -9200.3772 -7470.3042 300.4940 721.4504 808.1019 30733.8046 110.5778 155.5186
ENERGY: 900000 2.4574 2.6103 15.0287 0.0000 -10682.4365 1433.3206 0.0000 0.0000 1752.6035 -7476.4159 297.9058 -9229.0194 -7450.5294 301.2292 -110.0460 -6.6407 30240.6480 30.0379 79.8960
ENERGY: 1200000 6.7630 4.1804 16.3912 0.0000 -10505.0306 1357.8585 0.0000 0.0000 1794.1126 -7325.7249 304.9615 -9119.8375 -7434.3897 301.7250 -476.9515 -383.5139 30485.4364 -37.0990 12.9732
ENERGY: 1500000 5.3697 5.9694 14.7809 0.0000 -10737.3048 1468.3388 0.0000 0.0000 1728.7516 -7514.0945 293.8515 -9242.8461 -7447.5680 300.9692 198.6984 251.4629 30157.0331 -28.2716 26.3719
TCL: Running FEP window  12: Lambda1 0.5499999999999999 Lambda2 0.6    [dLambda 0.050000000000000044]
TCL: Setting parameter firsttimestep to 0
TCL: Setting parameter alchLambda to 0.5499999999999999
Info: NONBONDED TABLE R-SQUARED SPACING: 0.0625
Info: NONBONDED TABLE SIZE: 705 POINTS
TCL: Setting parameter alchLambda2 to 0.6
Info: NONBONDED TABLE R-SQUARED SPACING: 0.0625
Info: NONBONDED TABLE SIZE: 705 POINTS
TCL: Running for 1500000 steps
ETITLE: TS BOND ANGLE DIHED IMPRP ELECT VDW BOUNDARY MISC KINETIC TOTAL TEMP POTENTIAL TOTALAVG TEMPAVG PRESSURE GPRESSURE VOLUME PRESSAVG GPRESSAVG
ENERGY: 0 5.3697 5.9694 14.7809 0.0000 -10737.4046 1468.7707 0.0000 0.0000 1727.8720 -7514.6420 293.7020 -9242.5141 -7514.6420 293.7020 194.3521 260.8356 30157.0331 194.3521 260.8356
ENERGY: 300000 4.6160 6.2394 17.5018 0.0000 -10673.9704 1478.4920 0.0000 0.0000 1796.3791 -7370.7421 305.3468 -9167.1212 -7429.0493 299.6284 624.0269 668.8373 30247.8356 221.7357 287.6675
ENERGY: 600000 3.9456 4.2443 14.7968 0.0000 -10680.2833 1422.5468 0.0000 0.0000 1733.0112 -7501.7385 294.5756 -9234.7497 -7462.1574 298.6150 -236.4290 -140.2029 29998.0798 -5.8615 56.2210
ENERGY: 900000 2.6275 6.0327 16.5049 0.0000 -10649.1695 1461.5214 0.0000 0.0000 1731.8790 -7430.6040 294.3831 -9162.4830 -7451.8933 298.5701 260.7435 332.3914 30393.9974 48.2341 112.8263
ENERGY: 1200000 5.5344 5.5539 19.2591 0.0000 -10505.4980 1342.0095 0.0000 0.0000 1716.4090 -7416.7321 291.7535 -9133.1411 -7446.8216 298.1355 -642.5613 -566.5650 30260.6914 49.0009 113.7245
ENERGY: 1500000 4.3799 10.1372 14.9864 0.0000 -10593.1151 1371.3517 0.0000 0.0000 1740.3525 -7451.9074 295.8234 -9192.2599 -7444.5132 299.3487 -777.6768 -687.1288 30807.6161 -46.3940 15.6815
TCL: Running FEP window  13: Lambda1 0.6    Lambda2 0.65   [dLambda 0.050000000000000044]
TCL: Setting parameter firsttimestep to 0
TCL: Setting parameter alchLambda to 0.6
Info: NONBONDED TABLE R-SQUARED SPACING: 0.0625
Info: NONBONDED TABLE SIZE: 705 POINTS
TCL: Setting parameter alchLambda2 to 0.65
Info: NONBONDED TABLE R-SQUARED SPACING: 0.0625
Info: NONBONDED TABLE SIZE: 705 POINTS
TCL: Running for 1500000 steps
ETITLE: TS BOND ANGLE DIHED IMPRP ELECT VDW BOUNDARY MISC KINETIC TOTAL TEMP POTENTIAL TOTALAVG TEMPAVG PRESSURE GPRESSURE VOLUME PRESSAVG GPRESSAVG
ENERGY: 0 4.3799 10.1372 14.9864 0.0000 -10593.1733 1371.6272 0.0000 0.0000 1739.4323 -7452.6103 295.6670 -9192.0426 -7452.6103 295.6670 -757.4105 -674.1413 30807.6161 -757.4105 -674.1413
ENERGY: 300000 3.2209 5.5438 15.9223 0.0000 -10637.3813 1420.3525 0.0000 0.0000 1782.4999 -7409.8419 302.9876 -9192.3418 -7473.4820 300.8758 157.8497 219.2588 30141.4553 -245.4342 -185.7225
ENERGY: 600000 1.6575 2.8053 15.4639 0.0000 -10680.9008 1429.3491 0.0000 0.0000 1799.5868 -7432.0382 305.8920 -9231.6250 -7469.4300 300.7300 61.1176 168.3533 30128.3349 -216.0790 -144.0196
ENERGY: 900000 2.9971 3.6633 19.4373 0.0000 -10767.4967 1411.3199 0.0000 0.0000 1769.5815 -7560.4977 300.7917 -9330.0792 -7466.1019 301.1772 -681.8413 -635.7186 30410.4895 -219.9700 -153.6108
ENERGY: 1200000 6.4717 4.3539 16.4114 0.0000 -10673.0351 1374.4367 0.0000 0.0000 1741.0254 -7530.3360 295.9378 -9271.3614 -7466.6867 300.6356 -513.6503 -455.5982 30007.5083 -161.1634 -93.1847
ENERGY: 1500000 1.4904 6.3810 14.3843 0.0000 -10645.3474 1431.7775 0.0000 0.0000 1746.9919 -7444.3223 296.9520 -9191.3142 -7475.4392 299.0629 89.4341 128.0644 30426.5118 -137.5419 -73.9155
TCL: Running FEP window  14: Lambda1 0.65   Lambda2 0.7000000000000001 [dLambda 0.050000000000000044]
TCL: Setting parameter firsttimestep to 0
TCL: Setting parameter alchLambda to 0.65
Info: NONBONDED TABLE R-SQUARED SPACING: 0.0625
Info: NONBONDED TABLE SIZE: 705 POINTS
TCL: Setting parameter alchLambda2 to 0.7000000000000001
Info: NONBONDED TABLE R-SQUARED SPACING: 0.0625
Info: NONBONDED TABLE SIZE: 705 POINTS
TCL: Running for 1500000 steps
ETITLE: TS BOND ANGLE DIHED IMPRP ELECT VDW BOUNDARY MISC KINETIC TOTAL TEMP POTENTIAL TOTALAVG TEMPAVG PRESSURE GPRESSURE VOLUME PRESSAVG GPRESSAVG
ENERGY: 0 1.4904 6.3810 14.3843 0.0000 -10645.3466 1432.6874 0.0000 0.0000 1746.0962 -7444.3072 296.7997 -9190.4034 -7444.3072 296.7997 62.5697 146.9014 30426.5118 62.5697 146.9014
ENERGY: 300000 2.3514 4.0763 20.6829 0.0000 -10834.6322 1559.5494 0.0000 0.0000 1768.3788 -7479.5935 300.5873 -9247.9723 -7454.3951 301.4827 945.2765 984.4530 29922.9844 376.9343 440.9832
ENERGY: 600000 1.9107 6.3801 14.7002 0.0000 -10733.6024 1476.2075 0.0000 0.0000 1790.0087 -7444.3951 304.2639 -9234.4038 -7451.2438 301.2636 142.0103 231.7526 30673.6959 477.0535 544.6230
ENERGY: 900000 2.5253 4.3224 15.8310 0.0000 -10677.4700 1444.7490 0.0000 0.0000 1728.5069 -7481.5354 293.8099 -9210.0423 -7449.7176 300.5567 97.9952 159.0252 30318.8347 491.3438 556.2853
ENERGY: 1200000 1.3119 10.9145 15.8239 0.0000 -10757.1434 1491.9368 0.0000 0.0000 1838.0784 -7399.0779 312.4348 -9237.1563 -7457.6552 300.9990 223.1995 208.7240 30830.7171 400.4027 464.3020
ENERGY: 1500000 1.3464 10.1349 18.0788 0.0000 -10658.2017 1387.7226 0.0000 0.0000 1724.4496 -7516.4693 293.1203 -9240.9190 -7465.3626 299.2279 -369.3761 -327.3971 30356.2843 296.2626 358.9945
TCL: Running FEP window  15: Lambda1 0.7000000000000001 Lambda2 0.7500000000000001 [dLambda 0.050000000000000044]
TCL: Setting parameter firsttimestep to 0
TCL: Setting parameter alchLambda to 0.7000000000000001
Info: NONBONDED TABLE R-SQUARED SPACING: 0.0625
Info: NONBONDED TABLE SIZE: 705 POINTS
TCL: Setting parameter alchLambda2 to 0.7500000000000001
Info: NONBONDED TABLE R-SQUARED SPACING: 0.0625
Info: NONBONDED TABLE SIZE: 705 POINTS
TCL: Running for 1500000 steps
ETITLE: TS BOND ANGLE DIHED IMPRP ELECT VDW BOUNDARY MISC KINETIC TOTAL TEMP POTENTIAL TOTALAVG TEMPAVG PRESSURE GPRESSURE VOLUME PRESSAVG GPRESSAVG
ENERGY: 0 1.3464 10.1349 18.0788 0.0000 -10659.1588 1389.1933 0.0000 0.0000 1723.5442 -7516.8612 292.9664 -9240.4054 -7516.8612 292.9664 -385.9509 -304.6935 30356.2843 -385.9509 -304.6935
ENERGY: 300000 6.5880 5.2649 18.9274 0.0000 -10816.7455 1547.1274 0.0000 0.0000 1729.3681 -7509.4697 293.9563 -9238.8378 -7527.5561 295.1456 720.5853 813.5654 30356.2505 229.5867 327.0216
ENERGY: 600000 7.2452 5.4902 18.4069 0.0000 -10555.6581 1301.8313 0.0000 0.0000 1752.1822 -7470.5023 297.8342 -9222.6845 -7499.3587 296.7919 -1334.7408 -1281.9437 30436.0643 -205.8569 -123.7489
ENERGY: 900000 1.6166 4.7335 14.8561 0.0000 -10758.9037 1471.9509 0.0000 0.0000 1797.7448 -7468.0017 305.5789 -9265.7465 -7487.5691 297.2832 247.0137 291.1130 30333.6408 -170.8756 -95.3337
ENERGY: 1200000 1.9562 6.4308 19.5588 0.0000 -10679.6050 1448.2260 0.0000 0.0000 1745.9133 -7457.5199 296.7686 -9203.4332 -7484.7024 297.3400 148.2268 217.9671 30481.6717 -122.2011 -49.1393
ENERGY: 1500000 1.7462 4.2532 14.3507 0.0000 -10540.9119 1346.5504 0.0000 0.0000 1774.3633 -7399.6481 301.6045 -9174.0114 -7475.5579 298.1671 -605.4936 -521.4328 30584.1830 -159.1567 -89.8186
TCL: Running FEP window  16: Lambda1 0.7500000000000001 Lambda2 0.8000000000000002 [dLambda 0.050000000000000044]
TCL: Setting parameter firsttimestep to 0
TCL: Setting parameter alchLambda to 0.7500000000000001
Info: NONBONDED TABLE R-SQUARED SPACING: 0.0625
Info: NONBONDED TABLE SIZE: 705 POINTS
TCL: Setting parameter alchLambda2 to 0.8000000000000002
Info: NONBONDED TABLE R-SQUARED SPACING: 0.0625
Info: NONBONDED TABLE SIZE: 705 POINTS
TCL: Running for 1500000 steps
ETITLE: TS BOND ANGLE DIHED IMPRP ELECT VDW BOUNDARY MISC KINETIC TOTAL TEMP POTENTIAL TOTALAVG TEMPAVG PRESSURE GPRESSURE VOLUME PRESSAVG GPRESSAVG
ENERGY: 0 1.7462 4.2532 14.3507 0.0000 -10541.1960 1346.3564 0.0000 0.0000 1773.4861 -7401.0033 301.4554 -9174.4894 -7401.0033 301.4554 -599.7754 -514.9408 30584.1830 -599.7754 -514.9408
ENERGY: 300000 4.1114 7.0437 15.9531 0.0000 -10612.7181 1378.9875 0.0000 0.0000 1782.0614 -7424.5610 302.9131 -9206.6224 -7432.5091 303.0164 -414.8259 -396.5947 30879.4141 -437.9989 -381.4082
ENERGY: 600000 2.0009 4.9970 17.0452 0.0000 -10737.3558 1467.7852 0.0000 0.0000 1720.9694 -7524.5581 292.5287 -9245.5275 -7438.7478 301.7336 173.9900 239.3925 30619.4910 -159.4713 -109.0115
ENERGY: 900000 2.0840 5.5911 17.0356 0.0000 -10655.2001 1463.6365 0.0000 0.0000 1733.5604 -7433.2925 294.6689 -9166.8529 -7450.4003 300.9044 201.2101 286.8052 30652.3639 -147.0604 -96.7368
ENERGY: 1200000 2.3390 3.9166 16.0506 0.0000 -10617.6120 1396.1966 0.0000 0.0000 1767.1707 -7431.9385 300.3820 -9199.1092 -7457.2409 300.2442 -399.9143 -298.0148 30684.6509 -138.9708 -86.2991
ENERGY: 1500000 4.1524 5.2553 14.0454 0.0000 -10574.2912 1397.0446 0.0000 0.0000 1754.5160 -7399.2774 298.2309 -9153.7934 -7457.5281 299.5160 -48.4190 -14.0932 30637.0010 -90.2218 -35.4487
TCL: Running FEP window  17: Lambda1 0.8000000000000002 Lambda2 0.8500000000000002 [dLambda 0.050000000000000044]
TCL: Setting parameter firsttimestep to 0
TCL: Setting parameter alchLambda to 0.8000000000000002
Info: NONBONDED TABLE R-SQUARED SPACING: 0.0625
Info: NONBONDED TABLE SIZE: 705 POINTS
TCL: Setting parameter alchLambda2 to 0.8500000000000002
Info: NONBONDED TABLE R-SQUARED SPACING: 0.0625
Info: NONBONDED TABLE SIZE: 705 POINTS
TCL: Running for 1500000 steps
ETITLE: TS BOND ANGLE DIHED IMPRP ELECT VDW BOUNDARY MISC KINETIC TOTAL TEMP POTENTIAL TOTALAVG TEMPAVG PRESSURE GPRESSURE VOLUME PRESSAVG GPRESSAVG
ENERGY: 0 4.1524 5.2553 14.0454 0.0000 -10574.7905 1397.3532 0.0000 0.0000 1753.6721 -7400.3121 298.0875 -9153.9842 -7400.3121 298.0875 -78.3541 -2.5180 30637.0010 -78.3541 -2.5180
ENERGY: 300000 0.7894 3.5276 14.5813 0.0000 -10542.8454 1380.5191 0.0000 0.0000 1753.3551 -7390.0729 298.0336 -9143.4280 -7466.1396 296.9972 -271.4554 -122.1397 30503.7548 92.0946 162.0157
ENERGY: 600000 2.6146 3.6018 15.5519 0.0000 -10636.7620 1417.7122 0.0000 0.0000 1734.8918 -7462.3897 294.8952 -9197.2815 -7484.0184 296.5803 175.3417 197.1741 30338.6811 39.9675 110.9431
ENERGY: 900000 1.9598 6.4309 17.1198 0.0000 -10679.6453 1489.4518 0.0000 0.0000 1795.2228 -7369.4602 305.1502 -9164.6831 -7468.7449 298.7020 682.9366 709.2845 30455.3322 76.3661 135.0258
ENERGY: 1200000 3.1064 8.3374 17.0165 0.0000 -10671.7109 1431.4466 0.0000 0.0000 1733.3866 -7478.4175 294.6394 -9211.8041 -7466.9877 298.6904 -60.9505 12.8159 30232.3944 101.8572 162.0596
ENERGY: 1500000 1.3217 6.3423 15.2678 0.0000 -10733.5434 1437.0010 0.0000 0.0000 1769.1285 -7504.4821 300.7147 -9273.6106 -7472.2476 298.4157 -17.6783 71.5539 30079.6461 16.2762 81.4060
TCL: Running FEP window  18: Lambda1 0.8500000000000002 Lambda2 0.9000000000000002 [dLambda 0.050000000000000044]
TCL: Setting parameter firsttimestep to 0
TCL: Setting parameter alchLambda to 0.8500000000000002
Info: NONBONDED TABLE R-SQUARED SPACING: 0.0625
Info: NONBONDED TABLE SIZE: 705 POINTS
TCL: Setting parameter alchLambda2 to 0.9000000000000002
Info: NONBONDED TABLE R-SQUARED SPACING: 0.0625
Info: NONBONDED TABLE SIZE: 705 POINTS
TCL: Running for 1500000 steps
ETITLE: TS BOND ANGLE DIHED IMPRP ELECT VDW BOUNDARY MISC KINETIC TOTAL TEMP POTENTIAL TOTALAVG TEMPAVG PRESSURE GPRESSURE VOLUME PRESSAVG GPRESSAVG
ENERGY: 0 1.3218 6.3423 15.2678 0.0000 -10733.6358 1436.4262 0.0000 0.0000 1768.2336 -7506.0441 300.5626 -9274.2777 -7506.0441 300.5626 -10.9163 75.5639 30079.6461 -10.9163 75.5639
ENERGY: 300000 5.2613 8.1613 14.7171 0.0000 -10697.2978 1464.8303 0.0000 0.0000 1724.5198 -7479.8080 293.1322 -9204.3278 -7478.1714 298.3787 83.9724 173.5944 30534.7098 -225.6369 -158.2062
ENERGY: 600000 3.8588 3.5910 13.3243 0.0000 -10703.5219 1434.1348 0.0000 0.0000 1778.5558 -7470.0572 302.3172 -9248.6130 -7483.2712 298.4940 -224.7868 -160.0140 30471.6865 -73.1517 -19.3202
ENERGY: 900000 3.9095 7.4201 11.4338 0.0000 -10660.2236 1393.2311 0.0000 0.0000 1722.2618 -7521.9673 292.7484 -9244.2291 -7486.0228 298.5555 -333.1783 -230.7283 30270.9161 -88.0092 -35.2558
ENERGY: 1200000 4.6558 7.2472 18.1400 0.0000 -10700.6585 1502.9560 0.0000 0.0000 1711.6546 -7456.0050 290.9454 -9167.6596 -7486.3316 298.3358 428.2096 502.9441 30816.6503 -51.8921 1.4363
ENERGY: 1500000 2.6176 6.6160 15.8656 0.0000 -10892.8801 1469.5249 0.0000 0.0000 1787.3167 -7610.9393 303.8063 -9398.2560 -7489.8956 298.4760 98.3930 175.0063 29570.6763 8.1689 59.6366
TCL: Running FEP window  19: Lambda1 0.9000000000000002 Lambda2 0.9500000000000003 [dLambda 0.050000000000000044]
TCL: Setting parameter firsttimestep to 0
TCL: Setting parameter alchLambda to 0.9000000000000002
Info: NONBONDED TABLE R-SQUARED SPACING: 0.0625
Info: NONBONDED TABLE SIZE: 705 POINTS
TCL: Setting parameter alchLambda2 to 0.9500000000000003
Info: NONBONDED TABLE R-SQUARED SPACING: 0.0625
Info: NONBONDED TABLE SIZE: 705 POINTS
TCL: Running for 1500000 steps
ETITLE: TS BOND ANGLE DIHED IMPRP ELECT VDW BOUNDARY MISC KINETIC TOTAL TEMP POTENTIAL TOTALAVG TEMPAVG PRESSURE GPRESSURE VOLUME PRESSAVG GPRESSAVG
ENERGY: 0 2.6176 6.6160 15.8656 0.0000 -10893.4089 1469.4479 0.0000 0.0000 1786.4415 -7612.4204 303.6576 -9398.8618 -7612.4204 303.6576 83.0961 187.1885 29570.6763 83.0961 187.1885
ENERGY: 300000 4.5076 3.1261 15.0651 0.0000 -10831.6397 1514.0780 0.0000 0.0000 1781.5458 -7513.3172 302.8254 -9294.8630 -7501.8392 303.3571 406.6211 472.7908 30504.2411 -2.0532 66.5974
ENERGY: 600000 2.1548 7.1573 14.3811 0.0000 -10782.7943 1499.5088 0.0000 0.0000 1797.4979 -7462.0944 305.5369 -9259.5923 -7485.5897 301.8054 303.6183 362.0587 30590.6030 61.3063 127.0210
ENERGY: 900000 3.3202 7.3238 16.9061 0.0000 -10700.7919 1436.1402 0.0000 0.0000 1737.4911 -7499.6105 295.3370 -9237.1015 -7494.7697 300.0136 16.9523 134.7846 30093.3822 140.6318 217.1449
ENERGY: 1200000 4.0070 2.5623 13.2667 0.0000 -10490.9754 1334.7915 0.0000 0.0000 1735.3024 -7401.0455 294.9650 -9136.3480 -7484.0944 299.1782 -355.5943 -353.6854 30318.6953 35.1850 104.1570
ENERGY: 1500000 1.9034 3.2732 16.8883 0.0000 -10636.0471 1389.9034 0.0000 0.0000 1744.2076 -7479.8711 296.4787 -9224.0787 -7477.5543 298.8346 -463.7726 -373.1197 30604.6881 76.1196 147.1351
TCL: Running FEP window  20: Lambda1 0.9500000000000003 Lambda2 1.0    [dLambda 0.04999999999999971]
TCL: Setting parameter firsttimestep to 0
TCL: Setting parameter alchLambda to 0.9500000000000003
Info: NONBONDED TABLE R-SQUARED SPACING: 0.0625
Info: NONBONDED TABLE SIZE: 705 POINTS
TCL: Setting parameter alchLambda2 to 1.0
Info: NONBONDED TABLE R-SQUARED SPACING: 0.0625
Info: NONBONDED TABLE SIZE: 705 POINTS
TCL: Running for 1500000 steps
ETITLE: TS BOND ANGLE DIHED IMPRP ELECT VDW BOUNDARY MISC KINETIC TOTAL TEMP POTENTIAL TOTALAVG TEMPAVG PRESSURE GPRESSURE VOLUME PRESSAVG GPRESSAVG
ENERGY: 0 1.9034 3.2732 16.8883 0.0000 -10636.4885 1389.8115 0.0000 0.0000 1743.3514 -7481.2606 296.3332 -9224.6120 -7481.2606 296.3332 -433.6995 -357.7073 30604.6881 -433.6995 -357.7073
ENERGY: 300000 4.0776 5.9877 16.6865 0.0000 -10897.1469 1589.8738 0.0000 0.0000 1754.6833 -7525.8380 298.2594 -9280.5214 -7488.7352 297.1052 1339.8255 1418.2713 30004.0920 -179.9754 -118.8452
ENERGY: 600000 1.9159 6.7684 14.9149 0.0000 -10650.5176 1439.4689 0.0000 0.0000 1771.4529 -7415.9966 301.1098 -9187.4495 -7478.2954 298.3165 320.8390 336.2770 30446.1659 -58.6705 -7.9127
ENERGY: 900000 3.3530 10.3318 14.2817 0.0000 -10760.6591 1442.5583 0.0000 0.0000 1807.4902 -7482.6440 307.2354 -9290.1342 -7469.4613 300.4943 -71.6290 24.4591 30115.6044 -12.6836 41.7765
ENERGY: 1200000 3.9278 4.1731 14.7180 0.0000 -10523.8166 1327.6456 0.0000 0.0000 1819.2488 -7354.1033 309.2341 -9173.3521 -7463.5737 300.6907 -650.7775 -579.9828 30246.8613 -146.3433 -88.8189
ENERGY: 1500000 3.7575 6.2005 13.1944 0.0000 -10554.2374 1370.2234 0.0000 0.0000 1752.9373 -7407.9244 297.9626 -9160.8617 -7461.9387 300.8194 -389.2017 -339.4916 30807.5063 -143.3220 -89.0371
TCL: Exiting due to exit command.
