Info: SIMULATION PARAMETERS:
Info: TIMESTEP               2
Info: NUMBER OF STEPS        0
Info: STEPS PER CYCLE        10
Info: PERIODIC CELL BASIS 1  30.8414 0 0
Info: PERIODIC CELL BASIS 2  0 30.2014 0
Info: PERIODIC CELL BASIS 3  0 0 32.7888
Info: PERIODIC CELL CENTER   0 0 0
Info: WRAPPING WATERS AROUND PERIODIC BOUNDARIES ON OUTPUT.
Info: WRAPPING ALL CLUSTERS AROUND PERIODIC BOUNDARIES ON OUTPUT.
Info: FIRST LDB TIMESTEP     50
Info: LAST LDB TIMESTEP     -1
Info: HOM BACKGROUND SCALING 1
Info: PME BACKGROUND SCALING 1
Info: MIN ATOMS PER PATCH    40
Info: EMPTY PATCH LOAD       40 ATOMS
Info: VELOCITY FILE          mobley_5600967_equil.vel
Info: CENTER OF MASS MOVING INITIALLY? NO
Info: DIELECTRIC             1
Info: EXCLUDE                SCALED ONE-FOUR
Info: 1-4 ELECTROSTATICS SCALED BY 0.833333
Info: MODIFIED 1-4 VDW PARAMETERS WILL BE USED
Info: DCD FILENAME           mobley_5600967_prod.dcd
Info: DCD FREQUENCY          100000
Info: DCD FIRST STEP         100000
Info: DCD FILE WILL CONTAIN UNIT CELL DATA
Info: XST FILENAME           mobley_5600967_prod.xst
Info: XST FREQUENCY          100000
Info: NO VELOCITY DCD OUTPUT
Info: NO FORCE DCD OUTPUT
Info: OUTPUT FILENAME        mobley_5600967_prod
Info: BINARY OUTPUT FILES WILL BE USED
Info: RESTART FILENAME       mobley_5600967_prod.restart
Info: RESTART FREQUENCY      100000
Info: BINARY RESTART FILES WILL BE USED
Info: CUTOFF                 9
Info: PAIRLIST DISTANCE      11
Info: PAIRLIST SHRINK RATE   0.01
Info: PAIRLIST GROW RATE     0.01
Info: PAIRLIST TRIGGER       0.3
Info: PAIRLISTS PER CYCLE    2
Info: PAIRLISTS ENABLED
Info: MARGIN                 2
Info: HYDROGEN GROUP CUTOFF  2.5
Info: PATCH DIMENSION        15.5
Info: ENERGY OUTPUT STEPS    100000
Info: ENERGY EVALUATION STEPS    100000
Info: OUTPUT ENERGY PRECISION 4
Info: CROSSTERM ENERGY INCLUDED IN DIHEDRAL
Info: TIMING OUTPUT STEPS    1000000
Info: PRESSURE OUTPUT STEPS  100000
Info: ALCHEMICAL FEP ON
Info: FEP CURRENT LAMBDA VALUE     0
Info: FEP COMPARISON LAMBDA VALUE  0.05
Info: FEP INTRA-ALCHEMICAL NON-BONDED INTERACTIONS WILL BE RETAINED
Info: FEP INTRA-ALCHEMICAL BONDED INTERACTIONS WILL BE RETAINED
Info: FEP VDW SHIFTING COEFFICIENT 5
Info: FEP ELEC. ACTIVE FOR ANNIHILATED PARTICLES BETWEEN LAMBDA = 0 AND LAMBDA = 0.5
Info: FEP ELEC. ACTIVE FOR EXNIHILATED PARTICLES BETWEEN LAMBDA = 0.5 AND LAMBDA = 1
Info: FEP VDW ACTIVE FOR ANNIHILATED PARTICLES BETWEEN LAMBDA = 0 AND LAMBDA = 1
Info: FEP VDW ACTIVE FOR EXNIHILATED PARTICLES BETWEEN LAMBDA = 0 AND LAMBDA = 1
Info: FEP BOND ACTIVE FOR ANNIHILATED PARTICLES BETWEEN LAMBDA = 1 AND LAMBDA = 1
Info: FEP BOND ACTIVE FOR EXNIHILATED PARTICLES BETWEEN LAMBDA = 0 AND LAMBDA = 0
Info: LANGEVIN DYNAMICS ACTIVE
Info: LANGEVIN TEMPERATURE   300
Info: LANGEVIN USING BBK INTEGRATOR
Info: LANGEVIN DAMPING COEFFICIENT IS 1 INVERSE PS
Info: LANGEVIN DYNAMICS APPLIED TO HYDROGENS
Info: LANGEVIN PISTON PRESSURE CONTROL ACTIVE
Info:        TARGET PRESSURE IS 1.01325 BAR
Info:     OSCILLATION PERIOD IS 50 FS
Info:             DECAY TIME IS 25 FS
Info:     PISTON TEMPERATURE IS 300 K
Info:       PRESSURE CONTROL IS GROUP-BASED
Info:    INITIAL STRAIN RATE IS -0.000136935 -0.000136935 -0.000136935
Info:       CELL FLUCTUATION IS ISOTROPIC
Info: PARTICLE MESH EWALD (PME) ACTIVE
Info: PME TOLERANCE               1e-06
Info: PME EWALD COEFFICIENT       0.348832
Info: PME INTERPOLATION ORDER     4
Info: PME GRID DIMENSIONS         32 32 36
Info: PME MAXIMUM GRID SPACING    1
Info: PME CALCULATION WILL BE PERFORMED ON GPU
Info: FULL ELECTROSTATIC EVALUATION FREQUENCY      2
Info: USING VERLET I (r-RESPA) MTS SCHEME.
Info: C1 SPLITTING OF LONG RANGE ELECTROSTATICS
Info: PLACING ATOMS IN PATCHES BY HYDROGEN GROUPS
Info: RIGID BONDS TO HYDROGEN : ALL
Info:         ERROR TOLERANCE : 1e-08
Info:          MAX ITERATIONS : 100
Info: RIGID WATER USING SETTLE ALGORITHM
Info: RANDOM NUMBER SEED     1743891448
Info: USE HYDROGEN BONDS?    NO
Info: Using AMBER format force field!
Info: AMBER PARM FILE        mobley_5600967.prmtop
Info: COORDINATE PDB         mobley_5600967.pdb
Info: Exclusions will be read from PARM file!
Info: SCNB (VDW SCALING)     2
Info: USING ARITHMETIC MEAN TO COMBINE L-J SIGMA PARAMETERS
Info: BINARY COORDINATES     mobley_5600967_equil.coor
Info: SUMMARY OF PARAMETERS:
Info: 11 BONDS
Info: 13 ANGLES
Info:   13 HARMONIC
Info:   0 COSINE-BASED
Info: 8 DIHEDRAL
Info: 0 IMPROPER
Info: 0 CROSSTERM
Info: 0 VDW
Info: 45 VDW_PAIRS
Info: 0 NBTHOLE_PAIRS
Info: To read alchdata from file: mobley_5600967.pdb
Info: To read alchflag data from column: 5
Info: STRUCTURE SUMMARY:
Info: 2954 ATOMS
Info: 2954 BONDS
Info: 43 ANGLES
Info: 57 DIHEDRALS
Info: 0 IMPROPERS
Info: 0 CROSSTERMS
Info: 3043 EXCLUSIONS
Info: 2941 RIGID BONDS
Info: ALCH: 0 ATOMS TO DISAPPEAR IN FINAL STATE
Info: ALCH: 26 ATOMS TO APPEAR IN FINAL STATE
Info: 5921 DEGREES OF FREEDOM
Info: 989 HYDROGEN GROUPS
Info: 4 ATOMS IN LARGEST HYDROGEN GROUP
Info: 989 MIGRATION GROUPS
Info: 4 ATOMS IN LARGEST MIGRATION GROUP
Info: TOTAL MASS = 17762.8 amu
Info: TOTAL CHARGE = -0.000299979 e
Info: MASS DENSITY = 0.965793 g/cm^3
Info: ATOM DENSITY = 0.0967216 atoms/A^3
Info: ADDED 0 IMPLICIT EXCLUSIONS
Info: NONBONDED TABLE R-SQUARED SPACING: 0.0625
Info: NONBONDED TABLE SIZE: 705 POINTS
Info: REMOVING COM VELOCITY -0.0258404 -0.0858648 -0.0452165
Info: Use 3D box decompostion in PME FFT.
Info: Updated CUDA force table with 4096 elements.
Info: Updated CUDA LJ table with 9 x 9 elements.
Info: Found 28 unique exclusion lists needing 92 bytes
TCL: Running for 1500000 steps
ETITLE: TS BOND ANGLE DIHED IMPRP ELECT VDW BOUNDARY MISC KINETIC TOTAL TEMP POTENTIAL TOTALAVG TEMPAVG PRESSURE GPRESSURE VOLUME PRESSAVG GPRESSAVG
ENERGY: 0 4.6770 12.9970 9.3168 0.0000 -10645.9433 1423.7347 0.0000 0.0000 1733.0491 -7462.1688 294.5820 -9195.2179 -7462.1688 294.5820 -225.4702 -144.0135 30541.2801 -225.4702 -144.0135
ENERGY: 300000 2.2450 8.7295 10.7175 0.0000 -10746.5596 1508.0243 0.0000 0.0000 1794.4526 -7422.3907 305.0193 -9216.8433 -7420.5062 302.8154 730.3889 844.3694 29784.8489 357.5184 410.1467
ENERGY: 600000 4.2316 7.4415 10.9087 0.0000 -10730.0022 1536.3110 0.0000 0.0000 1774.3295 -7396.7799 301.5988 -9171.1094 -7435.5066 302.1066 1064.3310 1152.5587 29704.0336 509.6566 582.8864
ENERGY: 900000 6.6142 8.1139 9.6934 0.0000 -10687.7768 1425.8780 0.0000 0.0000 1738.4838 -7498.9936 295.5058 -9237.4774 -7445.2105 300.7560 -57.7751 4.8592 29737.8934 176.6832 244.0777
ENERGY: 1200000 3.1019 7.1970 18.9683 0.0000 -10632.8087 1419.5249 0.0000 0.0000 1724.8458 -7459.1707 293.1876 -9184.0166 -7441.6978 299.7534 -64.7442 -70.7520 30215.6562 85.3325 145.1321
ENERGY: 1500000 2.8388 6.9536 11.2923 0.0000 -10724.8006 1483.6268 0.0000 0.0000 1796.8267 -7423.2624 305.4228 -9220.0891 -7438.0491 300.0079 603.4973 670.2540 29940.8228 100.3994 164.5707
TCL: Running FEP window   2: Lambda1 0.05   Lambda2 0.1    [dLambda 0.05  ]
TCL: Setting parameter firsttimestep to 0
TCL: Setting parameter alchLambda to 0.05
Info: NONBONDED TABLE R-SQUARED SPACING: 0.0625
Info: NONBONDED TABLE SIZE: 705 POINTS
TCL: Setting parameter alchLambda2 to 0.1
Info: NONBONDED TABLE R-SQUARED SPACING: 0.0625
Info: NONBONDED TABLE SIZE: 705 POINTS
TCL: Running for 1500000 steps
ETITLE: TS BOND ANGLE DIHED IMPRP ELECT VDW BOUNDARY MISC KINETIC TOTAL TEMP POTENTIAL TOTALAVG TEMPAVG PRESSURE GPRESSURE VOLUME PRESSAVG GPRESSAVG
ENERGY: 0 2.8388 6.9536 11.2923 0.0000 -10724.8012 1485.3604 0.0000 0.0000 1795.9205 -7422.4356 305.2688 -9218.3561 -7422.4356 305.2688 585.6918 677.1754 29940.8228 585.6918 677.1754
ENERGY: 300000 3.5462 9.9131 11.0054 0.0000 -10648.8429 1445.5261 0.0000 0.0000 1784.1661 -7394.6860 303.2708 -9178.8521 -7403.2230 304.5785 204.1876 223.8245 29967.6510 -38.8939 34.2863
ENERGY: 600000 4.9746 9.1004 8.6269 0.0000 -10573.1454 1358.7244 0.0000 0.0000 1721.3695 -7470.3497 292.5967 -9191.7191 -7433.7546 300.5890 -752.2847 -684.7596 30127.9432 -57.9500 11.0003
ENERGY: 900000 4.1576 11.1351 6.4015 0.0000 -10749.0461 1415.7832 0.0000 0.0000 1778.5446 -7533.0241 302.3153 -9311.5687 -7461.1753 299.7180 -331.2618 -247.3476 29789.9272 -59.8408 2.2848
ENERGY: 1200000 8.6695 14.5398 10.7289 0.0000 -10621.8109 1442.2498 0.0000 0.0000 1767.2019 -7378.4210 300.3872 -9145.6228 -7451.4568 299.5893 -272.7252 -298.8419 30858.4631 -23.2607 27.2270
ENERGY: 1500000 5.8848 7.3392 15.5259 0.0000 -10848.9249 1482.3686 0.0000 0.0000 1804.7043 -7533.1019 306.7619 -9337.8063 -7456.1421 300.7766 -1.3131 66.8235 29528.6873 -1.7145 53.7306
TCL: Running FEP window   3: Lambda1 0.1    Lambda2 0.15000000000000002 [dLambda 0.05000000000000002]
TCL: Setting parameter firsttimestep to 0
TCL: Setting parameter alchLambda to 0.1
Info: NONBONDED TABLE R-SQUARED SPACING: 0.0625
Info: NONBONDED TABLE SIZE: 705 POINTS
TCL: Setting parameter alchLambda2 to 0.15000000000000002
Info: NONBONDED TABLE R-SQUARED SPACING: 0.0625
Info: NONBONDED TABLE SIZE: 705 POINTS
TCL: Running for 1500000 steps
ETITLE: TS BOND ANGLE DIHED IMPRP ELECT VDW BOUNDARY MISC KINETIC TOTAL TEMP POTENTIAL TOTALAVG TEMPAVG PRESSURE GPRESSURE VOLUME PRESSAVG GPRESSAVG
ENERGY: 0 5.8849 7.3392 15.5259 0.0000 -10848.9255 1486.4913 0.0000 0.0000 1803.8159 -7529.8683 306.6109 -9333.6841 -7529.8683 306.6109 -12.3973 81.3821 29528.6873 -12.3973 81.3821
ENERGY: 300000 4.3273 9.9169 8.8630 0.0000 -10734.6331 1490.0008 0.0000 0.0000 1779.7439 -7441.7812 302.5191 -9221.5251 -7440.4181 306.5337 353.3662 461.2942 29901.6527 -201.8808 -116.1706
ENERGY: 600000 5.8033 6.4627 11.6991 0.0000 -10832.9121 1506.3979 0.0000 0.0000 1790.0588 -7512.4903 304.2724 -9302.5490 -7452.5489 306.0242 243.1063 326.3375 29875.9005 -236.3776 -171.1153
ENERGY: 900000 7.0914 12.9043 8.5623 0.0000 -10759.6942 1503.8115 0.0000 0.0000 1733.3845 -7493.9402 294.6390 -9227.3247 -7436.8790 303.9840 294.0305 332.9242 30344.1589 -134.1353 -76.5897
ENERGY: 1200000 5.9378 9.3549 8.0460 0.0000 -10635.0443 1454.2427 0.0000 0.0000 1830.7332 -7326.7297 311.1862 -9157.4629 -7432.8424 303.1605 386.7412 457.3510 30004.6972 -129.1984 -68.1644
ENERGY: 1500000 1.8448 7.1099 13.1035 0.0000 -10671.3792 1448.4281 0.0000 0.0000 1778.3158 -7422.5771 302.2764 -9200.8929 -7440.2462 302.8373 460.1753 478.0942 29733.2747 -20.5864 35.7099
TCL: Running FEP window   4: Lambda1 0.15000000000000002 Lambda2 0.2    [dLambda 0.04999999999999999]
TCL: Setting parameter firsttimestep to 0
TCL: Setting parameter alchLambda to 0.15000000000000002
Info: NONBONDED TABLE R-SQUARED SPACING: 0.0625
Info: NONBONDED TABLE SIZE: 705 POINTS
TCL: Setting parameter alchLambda2 to 0.2
Info: NONBONDED TABLE R-SQUARED SPACING: 0.0625
Info: NONBONDED TABLE SIZE: 705 POINTS
TCL: Running for 1500000 steps
ETITLE: TS BOND ANGLE DIHED IMPRP ELECT VDW BOUNDARY MISC KINETIC TOTAL TEMP POTENTIAL TOTALAVG TEMPAVG PRESSURE GPRESSURE VOLUME PRESSAVG GPRESSAVG
ENERGY: 0 1.8448 7.1099 13.1035 0.0000 -10671.3811 1450.4834 0.0000 0.0000 1777.4581 -7421.3814 302.1306 -9198.8396 -7421.3814 302.1306 401.2392 490.7616 29733.2747 401.2392 490.7616
ENERGY: 300000 3.4106 6.5582 10.6617 0.0000 -10628.0396 1443.2318 0.0000 0.0000 1829.9234 -7334.2538 311.0486 -9164.1773 -7451.1697 299.0563 371.8368 422.1731 30070.3653 -75.3243 -1.0467
ENERGY: 600000 3.1248 16.1432 9.1887 0.0000 -10625.0744 1425.0135 0.0000 0.0000 1759.4711 -7412.1330 299.0732 -9171.6041 -7439.7286 300.3007 16.4515 73.0821 30020.0941 79.8061 146.4943
ENERGY: 900000 8.2549 11.0247 11.2334 0.0000 -10647.6741 1479.8962 0.0000 0.0000 1781.4368 -7355.8281 302.8069 -9137.2649 -7423.8208 300.7666 109.1632 165.0583 30572.6670 68.2014 126.7711
ENERGY: 1200000 6.8584 7.5976 15.8729 0.0000 -10625.4321 1415.7011 0.0000 0.0000 1804.2099 -7375.1921 306.6778 -9179.4020 -7417.0983 301.6029 -25.2888 52.6314 30330.9574 169.3897 235.3042
ENERGY: 1500000 6.7324 9.8166 8.4635 0.0000 -10658.7532 1416.5382 0.0000 0.0000 1734.3808 -7482.8217 294.8084 -9217.2025 -7432.5643 300.9934 -450.7110 -342.1382 30190.3955 124.7319 196.6948
TCL: Running FEP window   5: Lambda1 0.2    Lambda2 0.25   [dLambda 0.04999999999999999]
TCL: Setting parameter firsttimestep to 0
TCL: Setting parameter alchLambda to 0.2
Info: NONBONDED TABLE R-SQUARED SPACING: 0.0625
Info: NONBONDED TABLE SIZE: 705 POINTS
TCL: Setting parameter alchLambda2 to 0.25
Info: NONBONDED TABLE R-SQUARED SPACING: 0.0625
Info: NONBONDED TABLE SIZE: 705 POINTS
TCL: Running for 1500000 steps
ETITLE: TS BOND ANGLE DIHED IMPRP ELECT VDW BOUNDARY MISC KINETIC TOTAL TEMP POTENTIAL TOTALAVG TEMPAVG PRESSURE GPRESSURE VOLUME PRESSAVG GPRESSAVG
ENERGY: 0 6.7324 9.8166 8.4635 0.0000 -10658.7526 1416.5167 0.0000 0.0000 1733.4938 -7483.7295 294.6576 -9217.2233 -7483.7295 294.6576 -417.6046 -337.2120 30190.3955 -417.6046 -337.2120
ENERGY: 300000 1.9433 10.7513 9.6479 0.0000 -10694.5283 1496.6700 0.0000 0.0000 1788.2408 -7387.2751 303.9634 -9175.5159 -7434.1393 299.4697 481.7324 517.2338 30427.0981 40.6268 109.7239
ENERGY: 600000 4.8534 12.3950 11.5727 0.0000 -10535.4834 1390.2197 0.0000 0.0000 1727.2630 -7389.1797 293.5985 -9116.4427 -7412.2786 300.7339 -413.8413 -353.9599 30445.2807 80.5825 149.0111
ENERGY: 900000 7.1633 14.6431 11.8006 0.0000 -10612.0653 1358.2054 0.0000 0.0000 1789.7280 -7430.5250 304.2162 -9220.2529 -7417.8430 301.4611 -1092.2141 -969.8457 30321.7275 -166.3191 -90.0982
ENERGY: 1200000 7.3991 12.4999 14.0651 0.0000 -10692.2407 1411.7868 0.0000 0.0000 1729.8987 -7516.5911 294.0465 -9246.4898 -7412.1752 301.1744 -581.7053 -524.6613 30038.5285 -303.5974 -221.3733
ENERGY: 1500000 5.4097 6.0456 10.7092 0.0000 -10686.0596 1444.4883 0.0000 0.0000 1783.6913 -7435.7154 303.1901 -9219.4068 -7420.7932 300.5116 34.2157 99.8342 30365.9630 -315.2920 -234.8623
TCL: Running FEP window   6: Lambda1 0.25   Lambda2 0.3    [dLambda 0.04999999999999999]
TCL: Setting parameter firsttimestep to 0
TCL: Setting parameter alchLambda to 0.25
Info: NONBONDED TABLE R-SQUARED SPACING: 0.0625
Info: NONBONDED TABLE SIZE: 705 POINTS
TCL: Setting parameter alchLambda2 to 0.3
Info: NONBONDED TABLE R-SQUARED SPACING: 0.0625
Info: NONBONDED TABLE SIZE: 705 POINTS
TCL: Running for 1500000 steps
ETITLE: TS BOND ANGLE DIHED IMPRP ELECT VDW BOUNDARY MISC KINETIC TOTAL TEMP POTENTIAL TOTALAVG TEMPAVG PRESSURE GPRESSURE VOLUME PRESSAVG GPRESSAVG
ENERGY: 0 5.4097 6.0456 10.7092 0.0000 -10686.0605 1444.5551 0.0000 0.0000 1782.8163 -7436.5246 303.0414 -9219.3408 -7436.5246 303.0414 28.4528 108.1343 30365.9630 28.4528 108.1343
ENERGY: 300000 2.3824 10.5573 13.0834 0.0000 -10704.8046 1452.4816 0.0000 0.0000 1798.2405 -7428.0594 305.6632 -9226.2998 -7418.3512 304.5301 72.7077 110.1935 30729.8964 -165.3277 -108.0900
ENERGY: 600000 6.4265 9.6682 11.8969 0.0000 -10601.1687 1317.7269 0.0000 0.0000 1814.4085 -7441.0417 308.4114 -9255.4502 -7421.3987 303.2317 -1130.3136 -1097.1696 30505.9720 -385.1708 -319.5911
ENERGY: 900000 4.0273 15.1513 11.8060 0.0000 -10515.3409 1334.9262 0.0000 0.0000 1737.9194 -7411.5107 295.4098 -9149.4301 -7411.9823 302.6677 -879.5926 -837.8031 30122.6010 -335.3261 -274.0924
ENERGY: 1200000 5.6345 9.0840 19.0572 0.0000 -10811.2813 1526.6626 0.0000 0.0000 1815.3419 -7435.5012 308.5700 -9250.8430 -7422.7677 302.8330 945.7514 1017.9903 29589.5016 -149.8452 -85.8255
ENERGY: 1500000 4.7364 8.6582 10.9283 0.0000 -10610.0693 1427.6636 0.0000 0.0000 1798.6580 -7359.4248 305.7341 -9158.0828 -7409.5791 302.8078 -105.8337 -47.3808 30879.6226 -132.3586 -75.1922
TCL: Running FEP window   7: Lambda1 0.3    Lambda2 0.35   [dLambda 0.04999999999999999]
TCL: Setting parameter firsttimestep to 0
TCL: Setting parameter alchLambda to 0.3
Info: NONBONDED TABLE R-SQUARED SPACING: 0.0625
Info: NONBONDED TABLE SIZE: 705 POINTS
TCL: Setting parameter alchLambda2 to 0.35
Info: NONBONDED TABLE R-SQUARED SPACING: 0.0625
Info: NONBONDED TABLE SIZE: 705 POINTS
TCL: Running for 1500000 steps
ETITLE: TS BOND ANGLE DIHED IMPRP ELECT VDW BOUNDARY MISC KINETIC TOTAL TEMP POTENTIAL TOTALAVG TEMPAVG PRESSURE GPRESSURE VOLUME PRESSAVG GPRESSAVG
ENERGY: 0 4.7364 8.6582 10.9283 0.0000 -10610.0694 1429.3709 0.0000 0.0000 1797.7709 -7358.6047 305.5833 -9156.3756 -7358.6047 305.5833 -121.6650 -31.8409 30879.6226 -121.6650 -31.8409
ENERGY: 300000 3.1367 7.9493 12.1116 0.0000 -10729.0158 1470.4412 0.0000 0.0000 1792.3662 -7443.0108 304.6647 -9235.3770 -7397.0866 304.1551 251.9385 310.8269 30057.4629 -130.6986 -73.4563
ENERGY: 600000 4.9923 14.2392 11.8384 0.0000 -10681.8708 1451.4159 0.0000 0.0000 1783.8161 -7415.5690 303.2113 -9199.3851 -7417.7233 301.4884 86.3894 162.2490 30139.2529 -234.3812 -169.8920
ENERGY: 900000 9.4410 12.1742 8.3919 0.0000 -10678.7783 1417.2317 0.0000 0.0000 1810.3988 -7421.1408 307.7298 -9231.5395 -7413.7660 302.9475 -412.7835 -379.4226 30078.2675 -203.1800 -140.0782
ENERGY: 1200000 5.5147 9.7842 11.8215 0.0000 -10590.9953 1386.2483 0.0000 0.0000 1801.8813 -7375.7454 306.2820 -9177.6266 -7411.1045 303.4470 -430.7336 -349.3915 30633.6139 -137.7190 -75.3185
ENERGY: 1500000 4.0711 8.3109 11.1305 0.0000 -10777.7157 1499.7661 0.0000 0.0000 1767.2414 -7487.1956 300.3940 -9254.4370 -7414.3708 303.7228 248.3853 362.4815 30121.3825 -139.5229 -69.7191
TCL: Running FEP window   8: Lambda1 0.35   Lambda2 0.39999999999999997 [dLambda 0.04999999999999999]
TCL: Setting parameter firsttimestep to 0
TCL: Setting parameter alchLambda to 0.35
Info: NONBONDED TABLE R-SQUARED SPACING: 0.0625
Info: NONBONDED TABLE SIZE: 705 POINTS
TCL: Setting parameter alchLambda2 to 0.39999999999999997
Info: NONBONDED TABLE R-SQUARED SPACING: 0.0625
Info: NONBONDED TABLE SIZE: 705 POINTS
TCL: Running for 1500000 steps
ETITLE: TS BOND ANGLE DIHED IMPRP ELECT VDW BOUNDARY MISC KINETIC TOTAL TEMP POTENTIAL TOTALAVG TEMPAVG PRESSURE GPRESSURE VOLUME PRESSAVG GPRESSAVG
ENERGY: 0 4.0711 8.3109 11.1305 0.0000 -10777.7137 1500.1508 0.0000 0.0000 1766.3632 -7487.6872 300.2447 -9254.0503 -7487.6872 300.2447 285.8175 371.9236 30121.3825 285.8175 371.9236
ENERGY: 300000 5.0244 10.6928 12.6860 0.0000 -10659.5901 1490.2047 0.0000 0.0000 1721.0388 -7419.9434 292.5405 -9140.9822 -7437.3740 298.6511 372.9525 405.7806 30705.0036 21.6281 88.9932
ENERGY: 600000 4.6262 13.6048 9.0497 0.0000 -10623.2357 1423.8536 0.0000 0.0000 1773.2106 -7398.8907 301.4086 -9172.1013 -7424.9107 301.7872 110.2226 174.7023 30183.3937 -24.9839 39.5046
ENERGY: 900000 4.7208 15.0264 8.9931 0.0000 -10652.9417 1413.6660 0.0000 0.0000 1798.9501 -7411.5853 305.7838 -9210.5354 -7429.5629 302.2712 -204.4973 -195.5083 30428.9259 121.4830 176.5012
ENERGY: 1200000 5.3101 15.1632 12.2786 0.0000 -10825.2015 1508.3356 0.0000 0.0000 1747.1060 -7537.0079 296.9714 -9284.1139 -7445.4008 301.6999 391.4865 484.3583 30187.7725 197.2807 251.4868
ENERGY: 1500000 5.5535 9.2334 10.5705 0.0000 -10787.6320 1512.2120 0.0000 0.0000 1761.1576 -7488.9050 299.3598 -9250.0625 -7450.5535 301.1630 459.1380 493.6590 29910.9192 131.0170 187.5959
TCL: Running FEP window   9: Lambda1 0.39999999999999997 Lambda2 0.44999999999999996 [dLambda 0.04999999999999999]
TCL: Setting parameter firsttimestep to 0
TCL: Setting parameter alchLambda to 0.39999999999999997
Info: NONBONDED TABLE R-SQUARED SPACING: 0.0625
Info: NONBONDED TABLE SIZE: 705 POINTS
TCL: Setting parameter alchLambda2 to 0.44999999999999996
Info: NONBONDED TABLE R-SQUARED SPACING: 0.0625
Info: NONBONDED TABLE SIZE: 705 POINTS
TCL: Running for 1500000 steps
ETITLE: TS BOND ANGLE DIHED IMPRP ELECT VDW BOUNDARY MISC KINETIC TOTAL TEMP POTENTIAL TOTALAVG TEMPAVG PRESSURE GPRESSURE VOLUME PRESSAVG GPRESSAVG
ENERGY: 0 5.5535 9.2334 10.5705 0.0000 -10787.6315 1512.4544 0.0000 0.0000 1760.2392 -7489.5804 299.2037 -9249.8196 -7489.5804 299.2037 419.3768 503.9926 29910.9192 419.3768 503.9926
ENERGY: 300000 3.6442 9.0024 10.1497 0.0000 -10800.7988 1556.4511 0.0000 0.0000 1688.1068 -7533.4448 286.9427 -9221.5515 -7448.5875 295.6451 972.9312 995.3831 30242.6445 250.4063 297.6956
ENERGY: 600000 4.0482 14.2994 11.3646 0.0000 -10736.3845 1452.9115 0.0000 0.0000 1783.5784 -7470.1824 303.1709 -9253.7608 -7423.9743 299.7570 167.2921 248.1736 30089.5555 212.2326 279.6415
ENERGY: 900000 2.2389 9.5717 11.0063 0.0000 -10576.0878 1392.7700 0.0000 0.0000 1748.6282 -7411.8727 297.2301 -9160.5009 -7449.4990 299.1589 -274.1381 -219.6911 30426.1748 79.2609 150.1035
ENERGY: 1200000 6.1034 7.5621 12.3605 0.0000 -10574.6667 1339.9820 0.0000 0.0000 1755.3790 -7453.2797 298.3776 -9208.6587 -7435.3163 299.7760 -956.2749 -841.0026 30307.0226 13.4090 91.3859
ENERGY: 1500000 7.1045 14.1557 7.4043 0.0000 -10549.2377 1341.0508 0.0000 0.0000 1792.2515 -7387.2708 304.6452 -9179.5223 -7422.6473 300.4661 -924.6827 -844.6053 30321.5859 23.9904 98.3002
TCL: Running FEP window  10: Lambda1 0.44999999999999996 Lambda2 0.49999999999999994 [dLambda 0.04999999999999999]
TCL: Setting parameter firsttimestep to 0
TCL: Setting parameter alchLambda to 0.44999999999999996
Info: NONBONDED TABLE R-SQUARED SPACING: 0.0625
Info: NONBONDED TABLE SIZE: 705 POINTS
TCL: Setting parameter alchLambda2 to 0.49999999999999994
Info: NONBONDED TABLE R-SQUARED SPACING: 0.0625
Info: NONBONDED TABLE SIZE: 705 POINTS
TCL: Running for 1500000 steps
ETITLE: TS BOND ANGLE DIHED IMPRP ELECT VDW BOUNDARY MISC KINETIC TOTAL TEMP POTENTIAL TOTALAVG TEMPAVG PRESSURE GPRESSURE VOLUME PRESSAVG GPRESSAVG
ENERGY: 0 7.1045 14.1557 7.4043 0.0000 -10549.2374 1343.4768 0.0000 0.0000 1791.3739 -7385.7222 304.4960 -9177.0960 -7385.7222 304.4960 -910.3271 -819.7717 30321.5859 -910.3271 -819.7717
ENERGY: 300000 6.2637 11.8407 7.9375 0.0000 -10814.0610 1515.9512 0.0000 0.0000 1817.9196 -7454.1482 309.0082 -9272.0679 -7433.5373 304.1815 551.4638 661.7939 30030.4911 -340.0325 -236.3299
ENERGY: 600000 4.5588 11.7252 11.2683 0.0000 -10602.4307 1355.3225 0.0000 0.0000 1787.0200 -7432.5359 303.7559 -9219.5559 -7413.4296 304.6805 -821.1506 -741.6304 30494.8346 -300.6835 -211.7260
ENERGY: 900000 10.0838 8.8571 8.7061 0.0000 -10625.7235 1441.4030 0.0000 0.0000 1727.1847 -7429.4889 293.5852 -9156.6736 -7420.9570 302.8348 -76.5727 -25.7979 30476.6792 -217.3327 -136.7579
ENERGY: 1200000 4.3717 12.9852 8.3957 0.0000 -10795.5637 1469.7437 0.0000 0.0000 1759.8753 -7540.1921 299.1419 -9300.0673 -7425.3347 301.9181 31.3482 72.1174 30268.0308 -166.8420 -92.4958
ENERGY: 1500000 2.9521 9.2447 12.4194 0.0000 -10682.5493 1461.4870 0.0000 0.0000 1809.6525 -7386.7936 307.6030 -9196.4461 -7422.7912 301.5356 144.7483 285.6904 30332.1024 -196.5686 -123.5692
TCL: Running FEP window  11: Lambda1 0.49999999999999994 Lambda2 0.5499999999999999 [dLambda 0.04999999999999999]
TCL: Setting parameter firsttimestep to 0
TCL: Setting parameter alchLambda to 0.49999999999999994
Info: NONBONDED TABLE R-SQUARED SPACING: 0.0625
Info: NONBONDED TABLE SIZE: 705 POINTS
TCL: Setting parameter alchLambda2 to 0.5499999999999999
Info: NONBONDED TABLE R-SQUARED SPACING: 0.0625
Info: NONBONDED TABLE SIZE: 705 POINTS
TCL: Running for 1500000 steps
ETITLE: TS BOND ANGLE DIHED IMPRP ELECT VDW BOUNDARY MISC KINETIC TOTAL TEMP POTENTIAL TOTALAVG TEMPAVG PRESSURE GPRESSURE VOLUME PRESSAVG GPRESSAVG
ENERGY: 0 2.9521 9.2447 12.4194 0.0000 -10682.5489 1461.3933 0.0000 0.0000 1808.7314 -7387.8079 307.4464 -9196.5394 -7387.8079 307.4464 216.6867 297.6815 30332.1024 216.6867 297.6815
ENERGY: 300000 3.5934 8.3189 14.0361 0.0000 -10623.8354 1421.1090 0.0000 0.0000 1740.4466 -7436.3315 295.8394 -9176.7781 -7417.7984 302.5284 128.9736 195.9541 30029.8267 -260.1958 -209.5018
ENERGY: 600000 5.9800 10.9884 14.9716 0.0000 -10628.2277 1455.0235 0.0000 0.0000 1752.4305 -7388.8337 297.8764 -9141.2642 -7410.2749 300.2456 591.7875 627.7930 30104.7739 -250.1466 -200.9649
ENERGY: 900000 8.6850 9.7054 8.2217 0.0000 -10547.5911 1396.8821 0.0000 0.0000 1813.7185 -7310.3784 308.2941 -9124.0970 -7418.8216 299.6752 109.4015 156.1522 30091.0435 -205.6970 -152.2663
ENERGY: 1200000 5.8921 10.5278 10.3253 0.0000 -10752.7980 1496.8587 0.0000 0.0000 1814.7860 -7414.4081 308.4755 -9229.1941 -7418.4538 301.6263 669.8454 724.2241 29964.4290 -132.3849 -75.7366
ENERGY: 1500000 5.1980 8.6040 10.9789 0.0000 -10696.8900 1439.2022 0.0000 0.0000 1750.7587 -7482.1481 297.5923 -9232.9069 -7424.7285 301.5983 232.5402 225.5446 30086.2149 -101.9721 -53.2104
TCL: Running FEP window  12: Lambda1 0.5499999999999999 Lambda2 0.6    [dLambda 0.050000000000000044]
TCL: Setting parameter firsttimestep to 0
TCL: Setting parameter alchLambda to 0.5499999999999999
Info: NONBONDED TABLE R-SQUARED SPACING: 0.0625
Info: NONBONDED TABLE SIZE: 705 POINTS
TCL: Setting parameter alchLambda2 to 0.6
Info: NONBONDED TABLE R-SQUARED SPACING: 0.0625
Info: NONBONDED TABLE SIZE: 705 POINTS
TCL: Running for 1500000 steps
ETITLE: TS BOND ANGLE DIHED IMPRP ELECT VDW BOUNDARY MISC KINETIC TOTAL TEMP POTENTIAL TOTALAVG TEMPAVG PRESSURE GPRESSURE VOLUME PRESSAVG GPRESSAVG
ENERGY: 0 5.1980 8.6040 10.9789 0.0000 -10696.7685 1438.8312 0.0000 0.0000 1749.9270 -7483.2294 297.4509 -9233.1564 -7483.2294 297.4509 154.4368 233.0032 30086.2149 154.4368 233.0032
ENERGY: 300000 4.8945 8.7781 11.5953 0.0000 -10594.0777 1409.1354 0.0000 0.0000 1781.9592 -7377.7152 302.8957 -9159.6744 -7443.2661 298.1673 -306.9716 -226.6435 30622.9309 85.6315 174.6523
ENERGY: 600000 2.9047 11.2662 13.3509 0.0000 -10698.5176 1446.4521 0.0000 0.0000 1797.7716 -7426.7722 305.5834 -9224.5438 -7454.3993 298.1110 96.3691 173.4165 30097.8146 60.1359 143.3766
ENERGY: 900000 2.1600 11.3270 13.7611 0.0000 -10828.4959 1535.0597 0.0000 0.0000 1744.1557 -7522.0324 296.4699 -9266.1881 -7458.9370 298.4495 775.9882 857.7648 29828.1252 41.6809 117.2948
ENERGY: 1200000 7.4614 8.2641 11.1728 0.0000 -10699.8876 1429.0137 0.0000 0.0000 1762.1071 -7481.8685 299.5212 -9243.9757 -7460.6698 298.1146 -446.5713 -381.8124 30640.9575 -5.3158 63.2392
ENERGY: 1500000 4.4984 7.4984 7.2863 0.0000 -10666.0641 1418.7847 0.0000 0.0000 1804.4802 -7423.5161 306.7238 -9227.9963 -7447.3960 298.9175 27.8287 111.4550 30114.2409 -33.3980 32.7460
TCL: Running FEP window  13: Lambda1 0.6    Lambda2 0.65   [dLambda 0.050000000000000044]
TCL: Setting parameter firsttimestep to 0
TCL: Setting parameter alchLambda to 0.6
Info: NONBONDED TABLE R-SQUARED SPACING: 0.0625
Info: NONBONDED TABLE SIZE: 705 POINTS
TCL: Setting parameter alchLambda2 to 0.65
Info: NONBONDED TABLE R-SQUARED SPACING: 0.0625
Info: NONBONDED TABLE SIZE: 705 POINTS
TCL: Running for 1500000 steps
ETITLE: TS BOND ANGLE DIHED IMPRP ELECT VDW BOUNDARY MISC KINETIC TOTAL TEMP POTENTIAL TOTALAVG TEMPAVG PRESSURE GPRESSURE VOLUME PRESSAVG GPRESSAVG
ENERGY: 0 4.4984 7.4984 7.2863 0.0000 -10666.6181 1418.8460 0.0000 0.0000 1803.5862 -7424.9029 306.5718 -9228.4890 -7424.9029 306.5718 48.1270 119.9278 30114.2409 48.1270 119.9278
ENERGY: 300000 4.2666 7.4504 10.2215 0.0000 -10730.3816 1463.9295 0.0000 0.0000 1724.7269 -7519.7867 293.1674 -9244.5136 -7479.0894 297.9141 127.9778 184.1350 30268.8033 -311.7231 -252.1047
ENERGY: 600000 4.5980 11.6523 7.2102 0.0000 -10637.0126 1423.4659 0.0000 0.0000 1741.4359 -7448.6503 296.0076 -9190.0862 -7482.3489 297.4019 -329.1819 -244.3011 30885.0771 -405.0362 -334.9754
ENERGY: 900000 4.3974 13.0818 16.3841 0.0000 -10649.0789 1425.9596 0.0000 0.0000 1790.5171 -7398.7389 304.3503 -9189.2560 -7461.1509 298.3882 130.8699 181.7455 30075.7685 -152.9060 -85.4438
ENERGY: 1200000 4.2721 11.1672 8.4520 0.0000 -10629.6335 1441.5685 0.0000 0.0000 1718.0919 -7446.0818 292.0396 -9164.1737 -7463.0940 296.8066 -53.2747 -1.6582 30616.8532 -106.9803 -45.9590
ENERGY: 1500000 3.7220 11.6900 10.9412 0.0000 -10729.6191 1410.5465 0.0000 0.0000 1747.5717 -7545.1477 297.0505 -9292.7194 -7461.6659 297.6027 -368.0714 -318.8338 30454.5267 -153.3877 -87.3397
TCL: Running FEP window  14: Lambda1 0.65   Lambda2 0.7000000000000001 [dLambda 0.050000000000000044]
TCL: Setting parameter firsttimestep to 0
TCL: Setting parameter alchLambda to 0.65
Info: NONBONDED TABLE R-SQUARED SPACING: 0.0625
Info: NONBONDED TABLE SIZE: 705 POINTS
TCL: Setting parameter alchLambda2 to 0.7000000000000001
Info: NONBONDED TABLE R-SQUARED SPACING: 0.0625
Info: NONBONDED TABLE SIZE: 705 POINTS
TCL: Running for 1500000 steps
ETITLE: TS BOND ANGLE DIHED IMPRP ELECT VDW BOUNDARY MISC KINETIC TOTAL TEMP POTENTIAL TOTALAVG TEMPAVG PRESSURE GPRESSURE VOLUME PRESSAVG GPRESSAVG
ENERGY: 0 3.7220 11.6900 10.9412 0.0000 -10730.7027 1410.7338 0.0000 0.0000 1746.7261 -7546.8895 296.9068 -9293.6156 -7546.8895 296.9068 -390.9720 -306.7008 30454.5267 -390.9720 -306.7008
ENERGY: 300000 8.5356 13.6651 11.0313 0.0000 -10544.7027 1365.6498 0.0000 0.0000 1793.2156 -7352.6053 304.8090 -9145.8209 -7418.2346 302.5918 -299.9928 -279.4145 30295.6415 -49.0581 20.5688
ENERGY: 600000 3.6784 7.8733 12.6136 0.0000 -10921.2629 1535.9530 0.0000 0.0000 1772.4547 -7588.6900 301.2801 -9361.1446 -7433.3465 303.2686 661.0899 703.3441 29794.7542 -25.0770 47.3445
ENERGY: 900000 4.2410 6.3868 9.9394 0.0000 -10602.6280 1356.1046 0.0000 0.0000 1708.8636 -7517.0926 290.4710 -9225.9562 -7452.3956 301.9112 -623.5742 -562.0067 30016.3081 -77.6664 -10.2417
ENERGY: 1200000 2.4217 10.9054 12.3122 0.0000 -10694.8362 1403.2302 0.0000 0.0000 1699.2566 -7566.7102 288.8380 -9265.9668 -7451.3369 300.8289 -409.5920 -387.8437 30316.3470 -144.7205 -79.8312
ENERGY: 1500000 3.6895 7.6001 13.2015 0.0000 -10615.4934 1420.2979 0.0000 0.0000 1762.0115 -7408.6930 299.5050 -9170.7045 -7444.9439 301.1944 -192.6387 -153.7738 30610.7800 -151.0379 -95.2849
TCL: Running FEP window  15: Lambda1 0.7000000000000001 Lambda2 0.7500000000000001 [dLambda 0.050000000000000044]
TCL: Setting parameter firsttimestep to 0
TCL: Setting parameter alchLambda to 0.7000000000000001
Info: NONBONDED TABLE R-SQUARED SPACING: 0.0625
Info: NONBONDED TABLE SIZE: 705 POINTS
TCL: Setting parameter alchLambda2 to 0.7500000000000001
Info: NONBONDED TABLE R-SQUARED SPACING: 0.0625
Info: NONBONDED TABLE SIZE: 705 POINTS
TCL: Running for 1500000 steps
ETITLE: TS BOND ANGLE DIHED IMPRP ELECT VDW BOUNDARY MISC KINETIC TOTAL TEMP POTENTIAL TOTALAVG TEMPAVG PRESSURE GPRESSURE VOLUME PRESSAVG GPRESSAVG
ENERGY: 0 3.6895 7.6001 13.2015 0.0000 -10616.7395 1420.0847 0.0000 0.0000 1761.1168 -7411.0470 299.3529 -9172.1638 -7411.0470 299.3529 -218.1293 -143.8981 30610.7800 -218.1293 -143.8981
ENERGY: 300000 5.1243 10.5009 15.5061 0.0000 -10573.5209 1379.7063 0.0000 0.0000 1741.3630 -7421.3203 295.9952 -9162.6833 -7424.0268 297.6256 35.3001 143.7167 29784.9674 -63.2178 33.0993
ENERGY: 600000 2.1776 9.4810 11.1057 0.0000 -10691.4840 1438.5759 0.0000 0.0000 1777.8917 -7452.2521 302.2043 -9230.1438 -7434.0128 298.4739 -80.0384 -21.5581 30531.5158 38.8785 110.0284
ENERGY: 900000 4.9288 7.6876 11.5850 0.0000 -10680.7406 1377.2866 0.0000 0.0000 1843.5728 -7435.6798 313.3687 -9279.2526 -7425.5918 301.0880 -697.6681 -647.6833 30662.8666 42.3922 117.5971
ENERGY: 1200000 1.9478 13.3717 10.5207 0.0000 -10712.6711 1451.8404 0.0000 0.0000 1775.6819 -7459.3086 301.8287 -9234.9904 -7430.1159 300.8035 229.2311 232.5996 30396.4608 29.7599 97.1891
ENERGY: 1500000 2.9046 9.2419 9.5380 0.0000 -10645.7285 1408.4191 0.0000 0.0000 1768.5925 -7447.0324 300.6236 -9215.6249 -7437.4299 300.9676 -296.9469 -210.4440 30503.5609 -56.1929 6.0888
TCL: Running FEP window  16: Lambda1 0.7500000000000001 Lambda2 0.8000000000000002 [dLambda 0.050000000000000044]
TCL: Setting parameter firsttimestep to 0
TCL: Setting parameter alchLambda to 0.7500000000000001
Info: NONBONDED TABLE R-SQUARED SPACING: 0.0625
Info: NONBONDED TABLE SIZE: 705 POINTS
TCL: Setting parameter alchLambda2 to 0.8000000000000002
Info: NONBONDED TABLE R-SQUARED SPACING: 0.0625
Info: NONBONDED TABLE SIZE: 705 POINTS
TCL: Running for 1500000 steps
ETITLE: TS BOND ANGLE DIHED IMPRP ELECT VDW BOUNDARY MISC KINETIC TOTAL TEMP POTENTIAL TOTALAVG TEMPAVG PRESSURE GPRESSURE VOLUME PRESSAVG GPRESSAVG
ENERGY: 0 2.9046 9.2419 9.5380 0.0000 -10647.0741 1408.0250 0.0000 0.0000 1767.6936 -7449.6710 300.4708 -9217.3646 -7449.6710 300.4708 -295.3000 -207.5271 30503.5609 -295.3000 -207.5271
ENERGY: 300000 4.2303 7.8426 14.3908 0.0000 -10660.0371 1434.4327 0.0000 0.0000 1777.8854 -7421.2552 302.2032 -9199.1407 -7406.8644 300.0306 226.6500 287.4112 30213.8886 543.0590 631.5869
ENERGY: 600000 3.3815 11.7773 8.8339 0.0000 -10625.1791 1428.7193 0.0000 0.0000 1822.6078 -7349.8593 309.8051 -9172.4671 -7410.7810 302.0615 9.1770 56.1010 30436.3852 375.1834 455.4634
ENERGY: 900000 3.1218 10.7787 10.0780 0.0000 -10621.5427 1385.5487 0.0000 0.0000 1771.1611 -7440.8545 301.0602 -9212.0156 -7427.3258 300.5283 -316.1181 -322.7178 30363.7269 201.5127 271.5785
ENERGY: 1200000 8.0219 9.6472 9.5587 0.0000 -10693.8425 1431.4065 0.0000 0.0000 1799.5663 -7435.6419 305.8885 -9235.2082 -7430.1243 301.1960 53.1625 145.5948 30154.8824 110.5507 179.9196
ENERGY: 1500000 5.5725 7.4283 11.2971 0.0000 -10690.6072 1468.8699 0.0000 0.0000 1796.1396 -7401.2997 305.3061 -9197.4393 -7433.7382 301.1119 152.7447 194.3069 30558.7513 69.8964 132.0811
TCL: Running FEP window  17: Lambda1 0.8000000000000002 Lambda2 0.8500000000000002 [dLambda 0.050000000000000044]
TCL: Setting parameter firsttimestep to 0
TCL: Setting parameter alchLambda to 0.8000000000000002
Info: NONBONDED TABLE R-SQUARED SPACING: 0.0625
Info: NONBONDED TABLE SIZE: 705 POINTS
TCL: Setting parameter alchLambda2 to 0.8500000000000002
Info: NONBONDED TABLE R-SQUARED SPACING: 0.0625
Info: NONBONDED TABLE SIZE: 705 POINTS
TCL: Running for 1500000 steps
ETITLE: TS BOND ANGLE DIHED IMPRP ELECT VDW BOUNDARY MISC KINETIC TOTAL TEMP POTENTIAL TOTALAVG TEMPAVG PRESSURE GPRESSURE VOLUME PRESSAVG GPRESSAVG
ENERGY: 0 5.5725 7.4283 11.2971 0.0000 -10691.5921 1469.8937 0.0000 0.0000 1795.2536 -7402.1468 305.1555 -9197.4004 -7402.1468 305.1555 129.3161 219.5236 30558.7513 129.3161 219.5236
ENERGY: 300000 2.2681 11.0599 12.9153 0.0000 -10670.7212 1422.5378 0.0000 0.0000 1734.3850 -7487.5551 294.8091 -9221.9401 -7471.0795 299.2161 -487.1880 -410.7300 31050.1742 -325.3830 -236.3320
ENERGY: 600000 3.3111 7.0978 11.3014 0.0000 -10651.2964 1450.1947 0.0000 0.0000 1755.6728 -7423.7185 298.4275 -9179.3913 -7457.2234 298.2440 494.0062 526.4117 30158.3835 -137.2316 -61.5145
ENERGY: 900000 1.9619 6.3217 10.6045 0.0000 -10674.3174 1412.0424 0.0000 0.0000 1752.9922 -7490.3947 297.9719 -9243.3869 -7463.4845 298.9827 -41.3096 -1.2055 30350.1157 -159.0630 -90.3116
ENERGY: 1200000 3.5194 7.4000 8.7314 0.0000 -10658.3186 1379.5589 0.0000 0.0000 1785.3538 -7473.7551 303.4727 -9259.1089 -7460.1472 299.0180 -526.3813 -476.4143 30215.0015 -212.4720 -148.4025
ENERGY: 1500000 5.4861 11.2720 10.4371 0.0000 -10672.6464 1431.4516 0.0000 0.0000 1769.3714 -7444.6282 300.7560 -9213.9996 -7456.3012 299.1146 -25.3095 14.9354 30345.7906 -209.0058 -156.5118
TCL: Running FEP window  18: Lambda1 0.8500000000000002 Lambda2 0.9000000000000002 [dLambda 0.050000000000000044]
TCL: Setting parameter firsttimestep to 0
TCL: Setting parameter alchLambda to 0.8500000000000002
Info: NONBONDED TABLE R-SQUARED SPACING: 0.0625
Info: NONBONDED TABLE SIZE: 705 POINTS
TCL: Setting parameter alchLambda2 to 0.9000000000000002
Info: NONBONDED TABLE R-SQUARED SPACING: 0.0625
Info: NONBONDED TABLE SIZE: 705 POINTS
TCL: Running for 1500000 steps
ETITLE: TS BOND ANGLE DIHED IMPRP ELECT VDW BOUNDARY MISC KINETIC TOTAL TEMP POTENTIAL TOTALAVG TEMPAVG PRESSURE GPRESSURE VOLUME PRESSAVG GPRESSAVG
ENERGY: 0 5.4861 11.2720 10.4371 0.0000 -10674.3382 1431.0420 0.0000 0.0000 1768.5160 -7447.5850 300.6106 -9216.1010 -7447.5850 300.6106 -53.9896 18.9668 30345.7906 -53.9896 18.9668
ENERGY: 300000 3.2753 8.7013 8.4767 0.0000 -10801.1270 1506.7842 0.0000 0.0000 1813.0888 -7460.8007 308.1871 -9273.8895 -7483.6166 301.0052 439.1810 456.1005 30365.2366 -50.3416 -7.5305
ENERGY: 600000 5.8287 12.0300 10.1612 0.0000 -10705.7415 1448.8978 0.0000 0.0000 1772.7598 -7456.0639 301.3320 -9228.8237 -7460.0704 302.3803 -215.4940 -118.0164 30557.6571 -10.8710 48.8351
ENERGY: 900000 7.8219 8.5360 10.3728 0.0000 -10534.4702 1372.6186 0.0000 0.0000 1779.3945 -7355.7264 302.4597 -9135.1209 -7434.9629 303.1203 -455.1465 -419.6804 30464.5514 -146.0467 -92.2443
ENERGY: 1200000 6.5496 9.2128 13.2577 0.0000 -10671.4229 1474.4880 0.0000 0.0000 1740.2371 -7427.6777 295.8038 -9167.9148 -7426.6171 303.0208 187.4609 206.0500 30752.7133 -159.5553 -101.5915
ENERGY: 1500000 2.7105 8.5841 13.6115 0.0000 -10774.9055 1476.6985 0.0000 0.0000 1756.1437 -7517.1573 298.5076 -9273.3010 -7434.8571 302.7272 37.2957 155.5179 30251.0574 -135.5527 -77.1063
TCL: Running FEP window  19: Lambda1 0.9000000000000002 Lambda2 0.9500000000000003 [dLambda 0.050000000000000044]
TCL: Setting parameter firsttimestep to 0
TCL: Setting parameter alchLambda to 0.9000000000000002
Info: NONBONDED TABLE R-SQUARED SPACING: 0.0625
Info: NONBONDED TABLE SIZE: 705 POINTS
TCL: Setting parameter alchLambda2 to 0.9500000000000003
Info: NONBONDED TABLE R-SQUARED SPACING: 0.0625
Info: NONBONDED TABLE SIZE: 705 POINTS
TCL: Running for 1500000 steps
ETITLE: TS BOND ANGLE DIHED IMPRP ELECT VDW BOUNDARY MISC KINETIC TOTAL TEMP POTENTIAL TOTALAVG TEMPAVG PRESSURE GPRESSURE VOLUME PRESSAVG GPRESSAVG
ENERGY: 0 2.7105 8.5841 13.6115 0.0000 -10777.5611 1478.3152 0.0000 0.0000 1755.2614 -7519.0785 298.3576 -9274.3399 -7519.0785 298.3576 90.4668 187.2254 30251.0574 90.4668 187.2254
ENERGY: 300000 2.8475 8.2680 8.3891 0.0000 -10595.1183 1380.6252 0.0000 0.0000 1757.3560 -7437.6325 298.7137 -9194.9885 -7475.0795 296.5209 -265.1221 -154.8239 30289.5323 33.4867 102.9755
ENERGY: 600000 3.2413 8.5022 8.1068 0.0000 -10725.1052 1495.1690 0.0000 0.0000 1802.4462 -7407.6396 306.3780 -9210.0859 -7464.5009 299.9315 798.8407 979.9967 30099.0857 164.3062 256.3366
ENERGY: 900000 3.0638 6.2043 9.6021 0.0000 -10614.8909 1361.9661 0.0000 0.0000 1724.5352 -7509.5193 293.1348 -9234.0545 -7467.1037 300.5229 -649.9947 -607.3332 30419.2134 -48.0948 34.0365
ENERGY: 1200000 2.4483 11.4355 13.0145 0.0000 -10635.5592 1421.1481 0.0000 0.0000 1828.3944 -7359.1183 310.7887 -9187.5127 -7449.0289 301.1376 161.4190 292.1925 30286.1887 36.8717 121.2645
ENERGY: 1500000 7.8416 6.3708 13.3813 0.0000 -10617.2567 1388.5084 0.0000 0.0000 1758.6505 -7442.5040 298.9337 -9201.1546 -7456.6969 300.8558 -447.4617 -357.3563 30266.4123 15.4649 100.0459
TCL: Running FEP window  20: Lambda1 0.9500000000000003 Lambda2 1.0    [dLambda 0.04999999999999971]
TCL: Setting parameter firsttimestep to 0
TCL: Setting parameter alchLambda to 0.9500000000000003
Info: NONBONDED TABLE R-SQUARED SPACING: 0.0625
Info: NONBONDED TABLE SIZE: 705 POINTS
TCL: Setting parameter alchLambda2 to 1.0
Info: NONBONDED TABLE R-SQUARED SPACING: 0.0625
Info: NONBONDED TABLE SIZE: 705 POINTS
TCL: Running for 1500000 steps
ETITLE: TS BOND ANGLE DIHED IMPRP ELECT VDW BOUNDARY MISC KINETIC TOTAL TEMP POTENTIAL TOTALAVG TEMPAVG PRESSURE GPRESSURE VOLUME PRESSAVG GPRESSAVG
ENERGY: 0 7.8416 6.3708 13.3813 0.0000 -10619.5550 1389.3346 0.0000 0.0000 1757.7984 -7444.8282 298.7889 -9202.6267 -7444.8282 298.7889 -422.2133 -335.4562 30266.4123 -422.2133 -335.4562
ENERGY: 300000 4.5906 10.6080 6.4849 0.0000 -10797.2548 1496.4319 0.0000 0.0000 1695.2033 -7583.9361 288.1490 -9279.1394 -7475.1860 295.9093 522.1859 510.0554 30287.6024 -317.5720 -287.3963
ENERGY: 600000 5.3346 8.1455 18.9873 0.0000 -10730.4822 1450.0622 0.0000 0.0000 1745.2400 -7502.7126 296.6542 -9247.9526 -7476.3178 297.2506 -159.3740 -98.9514 30405.8264 -159.8353 -121.1809
ENERGY: 900000 1.6142 11.6026 16.6224 0.0000 -10662.6103 1401.8675 0.0000 0.0000 1751.4213 -7479.4824 297.7049 -9230.9037 -7482.0730 298.3251 -408.0929 -355.9646 30840.6955 -265.3298 -220.3308
ENERGY: 1200000 4.0995 14.1369 9.5033 0.0000 -10606.0017 1356.5255 0.0000 0.0000 1696.0785 -7525.6580 288.2978 -9221.7364 -7478.6786 298.5095 -502.7381 -422.1679 30293.2884 -278.7539 -227.1188
ENERGY: 1500000 3.8691 8.3523 9.2635 0.0000 -10743.6149 1469.2618 0.0000 0.0000 1741.1245 -7511.7438 295.9546 -9252.8683 -7474.0414 298.6188 158.0353 269.3405 30152.2529 -319.3034 -266.0844
TCL: Exiting due to exit command.
