Info: SIMULATION PARAMETERS:
Info: TIMESTEP               2
Info: NUMBER OF STEPS        0
Info: STEPS PER CYCLE        10
Info: PERIODIC CELL BASIS 1  30.348 0 0
Info: PERIODIC CELL BASIS 2  0 28.5301 0
Info: PERIODIC CELL BASIS 3  0 0 35.0678
Info: PERIODIC CELL CENTER   0 0 0
Info: WRAPPING WATERS AROUND PERIODIC BOUNDARIES ON OUTPUT.
Info: WRAPPING ALL CLUSTERS AROUND PERIODIC BOUNDARIES ON OUTPUT.
Info: FIRST LDB TIMESTEP     50
Info: LAST LDB TIMESTEP     -1
Info: HOM BACKGROUND SCALING 1
Info: PME BACKGROUND SCALING 1
Info: MIN ATOMS PER PATCH    40
Info: EMPTY PATCH LOAD       40 ATOMS
Info: VELOCITY FILE          mobley_2005792_equil.vel
Info: CENTER OF MASS MOVING INITIALLY? NO
Info: DIELECTRIC             1
Info: EXCLUDE                SCALED ONE-FOUR
Info: 1-4 ELECTROSTATICS SCALED BY 0.833333
Info: MODIFIED 1-4 VDW PARAMETERS WILL BE USED
Info: DCD FILENAME           mobley_2005792_prod.dcd
Info: DCD FREQUENCY          100000
Info: DCD FIRST STEP         100000
Info: DCD FILE WILL CONTAIN UNIT CELL DATA
Info: XST FILENAME           mobley_2005792_prod.xst
Info: XST FREQUENCY          100000
Info: NO VELOCITY DCD OUTPUT
Info: NO FORCE DCD OUTPUT
Info: OUTPUT FILENAME        mobley_2005792_prod
Info: BINARY OUTPUT FILES WILL BE USED
Info: RESTART FILENAME       mobley_2005792_prod.restart
Info: RESTART FREQUENCY      100000
Info: BINARY RESTART FILES WILL BE USED
Info: CUTOFF                 9
Info: PAIRLIST DISTANCE      11
Info: PAIRLIST SHRINK RATE   0.01
Info: PAIRLIST GROW RATE     0.01
Info: PAIRLIST TRIGGER       0.3
Info: PAIRLISTS PER CYCLE    2
Info: PAIRLISTS ENABLED
Info: MARGIN                 2
Info: HYDROGEN GROUP CUTOFF  2.5
Info: PATCH DIMENSION        15.5
Info: ENERGY OUTPUT STEPS    100000
Info: ENERGY EVALUATION STEPS    100000
Info: OUTPUT ENERGY PRECISION 4
Info: CROSSTERM ENERGY INCLUDED IN DIHEDRAL
Info: TIMING OUTPUT STEPS    1000000
Info: PRESSURE OUTPUT STEPS  100000
Info: ALCHEMICAL FEP ON
Info: FEP CURRENT LAMBDA VALUE     1
Info: FEP COMPARISON LAMBDA VALUE  0.95
Info: FEP INTRA-ALCHEMICAL NON-BONDED INTERACTIONS WILL BE RETAINED
Info: FEP INTRA-ALCHEMICAL BONDED INTERACTIONS WILL BE RETAINED
Info: FEP VDW SHIFTING COEFFICIENT 5
Info: FEP ELEC. ACTIVE FOR ANNIHILATED PARTICLES BETWEEN LAMBDA = 0 AND LAMBDA = 0.5
Info: FEP ELEC. ACTIVE FOR EXNIHILATED PARTICLES BETWEEN LAMBDA = 0.5 AND LAMBDA = 1
Info: FEP VDW ACTIVE FOR ANNIHILATED PARTICLES BETWEEN LAMBDA = 0 AND LAMBDA = 1
Info: FEP VDW ACTIVE FOR EXNIHILATED PARTICLES BETWEEN LAMBDA = 0 AND LAMBDA = 1
Info: FEP BOND ACTIVE FOR ANNIHILATED PARTICLES BETWEEN LAMBDA = 1 AND LAMBDA = 1
Info: FEP BOND ACTIVE FOR EXNIHILATED PARTICLES BETWEEN LAMBDA = 0 AND LAMBDA = 0
Info: LANGEVIN DYNAMICS ACTIVE
Info: LANGEVIN TEMPERATURE   300
Info: LANGEVIN USING BBK INTEGRATOR
Info: LANGEVIN DAMPING COEFFICIENT IS 1 INVERSE PS
Info: LANGEVIN DYNAMICS APPLIED TO HYDROGENS
Info: LANGEVIN PISTON PRESSURE CONTROL ACTIVE
Info:        TARGET PRESSURE IS 1.01325 BAR
Info:     OSCILLATION PERIOD IS 50 FS
Info:             DECAY TIME IS 25 FS
Info:     PISTON TEMPERATURE IS 300 K
Info:       PRESSURE CONTROL IS GROUP-BASED
Info:    INITIAL STRAIN RATE IS -3.51157e-05 -3.51157e-05 -3.51157e-05
Info:       CELL FLUCTUATION IS ISOTROPIC
Info: PARTICLE MESH EWALD (PME) ACTIVE
Info: PME TOLERANCE               1e-06
Info: PME EWALD COEFFICIENT       0.348832
Info: PME INTERPOLATION ORDER     4
Info: PME GRID DIMENSIONS         32 32 36
Info: PME MAXIMUM GRID SPACING    1
Info: PME CALCULATION WILL BE PERFORMED ON GPU
Info: FULL ELECTROSTATIC EVALUATION FREQUENCY      2
Info: USING VERLET I (r-RESPA) MTS SCHEME.
Info: C1 SPLITTING OF LONG RANGE ELECTROSTATICS
Info: PLACING ATOMS IN PATCHES BY HYDROGEN GROUPS
Info: RIGID BONDS TO HYDROGEN : ALL
Info:         ERROR TOLERANCE : 1e-08
Info:          MAX ITERATIONS : 100
Info: RIGID WATER USING SETTLE ALGORITHM
Info: RANDOM NUMBER SEED     1743789410
Info: USE HYDROGEN BONDS?    NO
Info: Using AMBER format force field!
Info: AMBER PARM FILE        mobley_2005792.prmtop
Info: COORDINATE PDB         mobley_2005792.pdb
Info: Exclusions will be read from PARM file!
Info: SCNB (VDW SCALING)     2
Info: USING ARITHMETIC MEAN TO COMBINE L-J SIGMA PARAMETERS
Info: BINARY COORDINATES     mobley_2005792_equil.coor
Info: SUMMARY OF PARAMETERS:
Info: 6 BONDS
Info: 6 ANGLES
Info:   6 HARMONIC
Info:   0 COSINE-BASED
Info: 3 DIHEDRAL
Info: 0 IMPROPER
Info: 0 CROSSTERM
Info: 0 VDW
Info: 10 VDW_PAIRS
Info: 0 NBTHOLE_PAIRS
Info: To read alchdata from file: mobley_2005792.pdb
Info: To read alchflag data from column: 5
Info: STRUCTURE SUMMARY:
Info: 2950 ATOMS
Info: 2951 BONDS
Info: 36 ANGLES
Info: 64 DIHEDRALS
Info: 0 IMPROPERS
Info: 0 CROSSTERMS
Info: 3033 EXCLUSIONS
Info: 2938 RIGID BONDS
Info: ALCH: 0 ATOMS TO DISAPPEAR IN FINAL STATE
Info: ALCH: 22 ATOMS TO APPEAR IN FINAL STATE
Info: 5912 DEGREES OF FREEDOM
Info: 988 HYDROGEN GROUPS
Info: 3 ATOMS IN LARGEST HYDROGEN GROUP
Info: 988 MIGRATION GROUPS
Info: 3 ATOMS IN LARGEST MIGRATION GROUP
Info: TOTAL MASS = 17737.8 amu
Info: TOTAL CHARGE = -0.000199966 e
Info: MASS DENSITY = 0.970101 g/cm^3
Info: ATOM DENSITY = 0.0971583 atoms/A^3
Info: ADDED 0 IMPLICIT EXCLUSIONS
Info: NONBONDED TABLE R-SQUARED SPACING: 0.0625
Info: NONBONDED TABLE SIZE: 705 POINTS
Info: REMOVING COM VELOCITY 0.19141 0.0237347 0.165763
Info: Use 3D box decompostion in PME FFT.
Info: Updated CUDA force table with 4096 elements.
Info: Updated CUDA LJ table with 4 x 4 elements.
Info: Found 20 unique exclusion lists needing 60 bytes
TCL: Running for 1500000 steps
ETITLE: TS BOND ANGLE DIHED IMPRP ELECT VDW BOUNDARY MISC KINETIC TOTAL TEMP POTENTIAL TOTALAVG TEMPAVG PRESSURE GPRESSURE VOLUME PRESSAVG GPRESSAVG
ENERGY: 0 4.2047 4.2491 8.2048 0.0000 -10718.5703 1415.8595 0.0000 0.0000 1796.3712 -7489.6811 305.8103 -9286.0523 -7489.6811 305.8103 -331.0889 -247.8270 30362.8301 -331.0889 -247.8270
ENERGY: 300000 3.0405 4.8223 10.3779 0.0000 -10565.2292 1370.1649 0.0000 0.0000 1767.8117 -7409.0119 300.9483 -9176.8236 -7479.2656 300.4815 -431.8487 -378.9311 30655.3327 70.2298 145.2097
ENERGY: 600000 5.1334 4.3488 7.6290 0.0000 -10530.7200 1311.1544 0.0000 0.0000 1745.4554 -7456.9989 297.1425 -9202.4544 -7466.1083 300.4307 -1126.1434 -1132.3622 30894.7888 -92.8536 -11.9279
ENERGY: 900000 4.0949 9.1613 9.6031 0.0000 -10535.9828 1349.5124 0.0000 0.0000 1765.6428 -7397.9683 300.5791 -9163.6111 -7460.8321 299.5859 -491.8419 -464.8975 30656.4535 -88.9286 -17.3331
ENERGY: 1200000 4.9044 7.4432 8.0671 0.0000 -10682.6288 1459.0094 0.0000 0.0000 1725.7999 -7477.4048 293.7964 -9203.2048 -7453.2147 299.7582 -184.6743 -93.6876 30825.5232 -82.5859 -6.6697
ENERGY: 1500000 3.1616 5.4378 5.9499 0.0000 -10746.8358 1496.4125 0.0000 0.0000 1728.5795 -7507.2946 294.2696 -9235.8741 -7466.3414 298.6143 122.5551 167.5400 30736.4113 -1.8850 67.2292
TCL: Running FEP window   2: Lambda1 0.95   Lambda2 0.8999999999999999 [dLambda -0.050000000000000044]
TCL: Setting parameter firsttimestep to 0
TCL: Setting parameter alchLambda to 0.95
Info: NONBONDED TABLE R-SQUARED SPACING: 0.0625
Info: NONBONDED TABLE SIZE: 705 POINTS
TCL: Setting parameter alchLambda2 to 0.8999999999999999
Info: NONBONDED TABLE R-SQUARED SPACING: 0.0625
Info: NONBONDED TABLE SIZE: 705 POINTS
TCL: Running for 1500000 steps
ETITLE: TS BOND ANGLE DIHED IMPRP ELECT VDW BOUNDARY MISC KINETIC TOTAL TEMP POTENTIAL TOTALAVG TEMPAVG PRESSURE GPRESSURE VOLUME PRESSAVG GPRESSAVG
ENERGY: 0 3.1616 5.4378 5.9499 0.0000 -10746.1030 1496.9439 0.0000 0.0000 1727.6920 -7506.9179 294.1185 -9234.6099 -7506.9179 294.1185 92.6580 163.0331 30736.4113 92.6580 163.0331
ENERGY: 300000 6.3144 8.2065 9.6695 0.0000 -10614.8452 1383.0561 0.0000 0.0000 1730.1405 -7477.4582 294.5353 -9207.5987 -7443.1373 297.2271 -304.1832 -287.9314 30173.4964 -49.4425 -11.6614
ENERGY: 600000 6.2265 6.0622 7.4255 0.0000 -10490.2408 1263.0246 0.0000 0.0000 1713.3603 -7494.1417 291.6787 -9207.5020 -7454.5495 297.8400 -1641.8780 -1595.0631 30820.1867 -310.8921 -257.8544
ENERGY: 900000 2.9111 5.4262 7.3293 0.0000 -10797.9096 1443.4929 0.0000 0.0000 1731.5001 -7607.2500 294.7667 -9338.7500 -7457.0722 297.9224 25.7828 103.0983 29930.5118 -194.8393 -137.3044
ENERGY: 1200000 3.0823 3.2617 5.3568 0.0000 -10617.2115 1386.7019 0.0000 0.0000 1699.5727 -7519.2362 289.3315 -9218.8089 -7451.8963 297.9746 -95.4129 -111.9568 30039.1677 -113.8245 -67.8842
ENERGY: 1500000 2.2696 10.1578 4.5844 0.0000 -10671.2641 1439.7617 0.0000 0.0000 1750.7442 -7463.7465 298.0428 -9214.4907 -7444.9494 298.8408 151.9091 219.5904 30265.0008 -14.2013 39.1407
TCL: Running FEP window   3: Lambda1 0.8999999999999999 Lambda2 0.8499999999999999 [dLambda -0.050000000000000044]
TCL: Setting parameter firsttimestep to 0
TCL: Setting parameter alchLambda to 0.8999999999999999
Info: NONBONDED TABLE R-SQUARED SPACING: 0.0625
Info: NONBONDED TABLE SIZE: 705 POINTS
TCL: Setting parameter alchLambda2 to 0.8499999999999999
Info: NONBONDED TABLE R-SQUARED SPACING: 0.0625
Info: NONBONDED TABLE SIZE: 705 POINTS
TCL: Running for 1500000 steps
ETITLE: TS BOND ANGLE DIHED IMPRP ELECT VDW BOUNDARY MISC KINETIC TOTAL TEMP POTENTIAL TOTALAVG TEMPAVG PRESSURE GPRESSURE VOLUME PRESSAVG GPRESSAVG
ENERGY: 0 2.2696 10.1578 4.5844 0.0000 -10669.9644 1440.2808 0.0000 0.0000 1749.8906 -7462.7813 297.8975 -9212.6719 -7462.7813 297.8975 157.2693 214.3297 30265.0008 157.2693 214.3297
ENERGY: 300000 2.8219 4.9386 10.9257 0.0000 -10427.1231 1297.1494 0.0000 0.0000 1801.8516 -7309.4359 306.7432 -9111.2875 -7459.5402 296.9000 -876.2933 -791.1924 30860.0685 -113.8265 -29.8069
ENERGY: 600000 3.8609 4.8676 6.7087 0.0000 -10817.9261 1518.7408 0.0000 0.0000 1827.7554 -7455.9927 311.1530 -9283.7480 -7450.0365 299.7827 637.1734 681.3830 30320.2585 -45.4390 21.7189
ENERGY: 900000 4.8794 4.1306 5.8540 0.0000 -10704.4616 1471.9283 0.0000 0.0000 1739.8615 -7477.8079 296.1902 -9217.6693 -7443.7517 299.9912 377.6332 403.8597 30369.8462 -79.9382 -18.4744
ENERGY: 1200000 7.3860 2.5613 5.8952 0.0000 -10569.0387 1380.1298 0.0000 0.0000 1797.3654 -7375.7010 305.9795 -9173.0664 -7442.0002 300.2513 -733.4062 -649.3380 30665.3859 -104.1570 -30.4540
ENERGY: 1500000 4.9407 7.6045 4.4136 0.0000 -10510.7798 1356.2926 0.0000 0.0000 1739.2310 -7398.2975 296.0828 -9137.5285 -7438.7637 300.1475 -606.1413 -563.1307 30642.7238 -161.1092 -88.2605
TCL: Running FEP window   4: Lambda1 0.8499999999999999 Lambda2 0.7999999999999998 [dLambda -0.050000000000000044]
TCL: Setting parameter firsttimestep to 0
TCL: Setting parameter alchLambda to 0.8499999999999999
Info: NONBONDED TABLE R-SQUARED SPACING: 0.0625
Info: NONBONDED TABLE SIZE: 705 POINTS
TCL: Setting parameter alchLambda2 to 0.7999999999999998
Info: NONBONDED TABLE R-SQUARED SPACING: 0.0625
Info: NONBONDED TABLE SIZE: 705 POINTS
TCL: Running for 1500000 steps
ETITLE: TS BOND ANGLE DIHED IMPRP ELECT VDW BOUNDARY MISC KINETIC TOTAL TEMP POTENTIAL TOTALAVG TEMPAVG PRESSURE GPRESSURE VOLUME PRESSAVG GPRESSAVG
ENERGY: 0 4.9407 7.6045 4.4136 0.0000 -10509.6043 1356.3994 0.0000 0.0000 1738.3404 -7397.9056 295.9312 -9136.2460 -7397.9056 295.9312 -673.8831 -576.9655 30642.7238 -673.8831 -576.9655
ENERGY: 300000 4.0611 2.5603 9.5700 0.0000 -10700.1187 1430.5370 0.0000 0.0000 1795.5312 -7457.8591 305.6673 -9253.3903 -7446.2522 300.3699 182.8419 213.4019 30188.5378 -138.2099 -70.5633
ENERGY: 600000 8.2798 7.4858 5.7517 0.0000 -10710.4744 1488.1176 0.0000 0.0000 1801.1557 -7399.6839 306.6247 -9200.8396 -7435.0666 299.2521 622.7244 691.6104 30170.9950 134.7422 192.9343
ENERGY: 900000 5.3361 6.4687 7.7696 0.0000 -10647.2508 1431.9038 0.0000 0.0000 1767.3162 -7428.4565 300.8640 -9195.7726 -7434.4125 300.2557 -92.2472 -83.5055 30289.5501 105.4329 150.0006
ENERGY: 1200000 8.2807 5.2565 5.1794 0.0000 -10600.1042 1370.6421 0.0000 0.0000 1769.4576 -7441.2878 301.2285 -9210.7454 -7431.0688 300.1317 -862.3512 -843.7744 30794.3011 2.4697 46.8210
ENERGY: 1500000 6.3551 7.2212 8.0813 0.0000 -10817.3258 1546.4074 0.0000 0.0000 1765.6539 -7483.6069 300.5810 -9249.2608 -7435.8088 300.4976 478.2851 585.9141 30355.0216 84.9223 132.1086
TCL: Running FEP window   5: Lambda1 0.7999999999999998 Lambda2 0.7499999999999998 [dLambda -0.050000000000000044]
TCL: Setting parameter firsttimestep to 0
TCL: Setting parameter alchLambda to 0.7999999999999998
Info: NONBONDED TABLE R-SQUARED SPACING: 0.0625
Info: NONBONDED TABLE SIZE: 705 POINTS
TCL: Setting parameter alchLambda2 to 0.7499999999999998
Info: NONBONDED TABLE R-SQUARED SPACING: 0.0625
Info: NONBONDED TABLE SIZE: 705 POINTS
TCL: Running for 1500000 steps
ETITLE: TS BOND ANGLE DIHED IMPRP ELECT VDW BOUNDARY MISC KINETIC TOTAL TEMP POTENTIAL TOTALAVG TEMPAVG PRESSURE GPRESSURE VOLUME PRESSAVG GPRESSAVG
ENERGY: 0 6.3551 7.2212 8.0813 0.0000 -10816.6991 1546.6713 0.0000 0.0000 1764.7501 -7483.6201 300.4271 -9248.3702 -7483.6201 300.4271 499.4617 577.9839 30355.0216 499.4617 577.9839
ENERGY: 300000 3.7584 3.5936 10.2550 0.0000 -10757.0268 1498.0710 0.0000 0.0000 1716.7522 -7524.5966 292.2561 -9241.3488 -7471.3236 297.4118 340.4682 352.4688 30148.2384 292.0065 315.9339
ENERGY: 600000 2.4809 4.1899 9.9228 0.0000 -10732.2624 1513.5363 0.0000 0.0000 1772.6321 -7429.5005 301.7690 -9202.1325 -7457.4079 300.5894 847.6395 917.9323 29867.6651 167.6396 215.5795
ENERGY: 900000 3.6162 6.9193 9.1418 0.0000 -10652.2854 1393.4879 0.0000 0.0000 1773.8912 -7465.2289 301.9833 -9239.1201 -7456.9950 301.4095 -315.1248 -288.6770 30282.6778 -26.6688 32.4930
ENERGY: 1200000 5.4817 4.4713 9.9155 0.0000 -10576.5533 1317.6447 0.0000 0.0000 1796.0199 -7443.0201 305.7504 -9239.0400 -7447.4698 302.5434 -1162.7949 -1120.3831 30537.3874 -63.9879 -1.6708
ENERGY: 1500000 3.5375 6.5296 4.2823 0.0000 -10714.0781 1484.0627 0.0000 0.0000 1795.9432 -7419.7228 305.7374 -9215.6660 -7440.1860 302.1552 504.8719 580.4142 29994.8108 -58.8403 2.8413
TCL: Running FEP window   6: Lambda1 0.7499999999999998 Lambda2 0.6999999999999997 [dLambda -0.050000000000000044]
TCL: Setting parameter firsttimestep to 0
TCL: Setting parameter alchLambda to 0.7499999999999998
Info: NONBONDED TABLE R-SQUARED SPACING: 0.0625
Info: NONBONDED TABLE SIZE: 705 POINTS
TCL: Setting parameter alchLambda2 to 0.6999999999999997
Info: NONBONDED TABLE R-SQUARED SPACING: 0.0625
Info: NONBONDED TABLE SIZE: 705 POINTS
TCL: Running for 1500000 steps
ETITLE: TS BOND ANGLE DIHED IMPRP ELECT VDW BOUNDARY MISC KINETIC TOTAL TEMP POTENTIAL TOTALAVG TEMPAVG PRESSURE GPRESSURE VOLUME PRESSAVG GPRESSAVG
ENERGY: 0 3.5375 6.5296 4.2823 0.0000 -10713.0811 1484.4722 0.0000 0.0000 1795.0219 -7419.2376 305.5806 -9214.2595 -7419.2376 305.5806 492.8921 574.3946 29994.8108 492.8921 574.3946
ENERGY: 300000 4.3525 9.2329 4.9623 0.0000 -10623.8974 1373.2572 0.0000 0.0000 1748.7189 -7483.3736 297.6980 -9232.0926 -7474.8066 299.9157 -925.0591 -789.7089 30593.7879 29.0030 126.1667
ENERGY: 600000 5.4064 4.8099 9.3024 0.0000 -10579.9684 1407.7928 0.0000 0.0000 1740.3010 -7412.3559 296.2650 -9152.6569 -7431.6742 299.1904 -105.4696 -73.3907 30468.2205 -3.1451 65.6080
ENERGY: 900000 4.1473 9.0812 9.2235 0.0000 -10756.3534 1517.1039 0.0000 0.0000 1856.4901 -7360.3075 316.0448 -9216.7975 -7436.2336 300.7200 844.8309 896.5586 29857.1063 64.4700 135.7420
ENERGY: 1200000 6.0113 8.3732 7.9324 0.0000 -10716.1085 1437.4964 0.0000 0.0000 1807.7805 -7448.5146 307.7525 -9256.2951 -7434.3121 300.6247 -380.3688 -251.3596 30205.9572 46.5471 124.5749
ENERGY: 1500000 3.9963 7.4011 7.5392 0.0000 -10538.1405 1355.3873 0.0000 0.0000 1747.4650 -7416.3515 297.4846 -9163.8166 -7432.3250 299.7371 -807.6139 -693.1107 30867.0150 -25.1113 48.9005
TCL: Running FEP window   7: Lambda1 0.6999999999999997 Lambda2 0.6499999999999997 [dLambda -0.050000000000000044]
TCL: Setting parameter firsttimestep to 0
TCL: Setting parameter alchLambda to 0.6999999999999997
Info: NONBONDED TABLE R-SQUARED SPACING: 0.0625
Info: NONBONDED TABLE SIZE: 705 POINTS
TCL: Setting parameter alchLambda2 to 0.6499999999999997
Info: NONBONDED TABLE R-SQUARED SPACING: 0.0625
Info: NONBONDED TABLE SIZE: 705 POINTS
TCL: Running for 1500000 steps
ETITLE: TS BOND ANGLE DIHED IMPRP ELECT VDW BOUNDARY MISC KINETIC TOTAL TEMP POTENTIAL TOTALAVG TEMPAVG PRESSURE GPRESSURE VOLUME PRESSAVG GPRESSAVG
ENERGY: 0 3.9963 7.4011 7.5392 0.0000 -10537.4945 1355.9080 0.0000 0.0000 1746.5984 -7416.0515 297.3370 -9162.6500 -7416.0515 297.3370 -784.2594 -696.4396 30867.0150 -784.2594 -696.4396
ENERGY: 300000 6.1370 5.2622 9.2496 0.0000 -10620.8256 1432.2022 0.0000 0.0000 1776.5667 -7391.4079 302.4388 -9167.9746 -7452.3229 298.8210 43.4128 144.8862 30665.0485 -310.3195 -242.5797
ENERGY: 600000 4.9028 3.3556 7.7994 0.0000 -10639.9624 1477.7095 0.0000 0.0000 1772.4456 -7373.7495 301.7372 -9146.1951 -7433.7501 299.7016 621.2435 641.9681 30361.2721 -45.2471 11.1085
ENERGY: 900000 7.1818 7.7196 6.8364 0.0000 -10624.1881 1451.4780 0.0000 0.0000 1760.0708 -7390.9015 299.6305 -9150.9723 -7424.9450 300.0588 -186.9669 -142.2966 30904.6290 -158.0015 -112.6047
ENERGY: 1200000 5.0498 6.8976 7.7766 0.0000 -10682.6474 1398.8152 0.0000 0.0000 1667.7177 -7596.3904 283.9086 -9264.1081 -7432.2477 298.9023 -504.0798 -439.9588 30240.8763 -142.2568 -93.7978
ENERGY: 1500000 5.3266 8.7528 6.2389 0.0000 -10755.5981 1535.0725 0.0000 0.0000 1774.5493 -7425.6581 302.0953 -9200.2074 -7427.9946 299.6818 1037.3509 1049.9377 30032.7202 -167.1600 -119.8693
TCL: Running FEP window   8: Lambda1 0.6499999999999997 Lambda2 0.5999999999999996 [dLambda -0.050000000000000044]
TCL: Setting parameter firsttimestep to 0
TCL: Setting parameter alchLambda to 0.6499999999999997
Info: NONBONDED TABLE R-SQUARED SPACING: 0.0625
Info: NONBONDED TABLE SIZE: 705 POINTS
TCL: Setting parameter alchLambda2 to 0.5999999999999996
Info: NONBONDED TABLE R-SQUARED SPACING: 0.0625
Info: NONBONDED TABLE SIZE: 705 POINTS
TCL: Running for 1500000 steps
ETITLE: TS BOND ANGLE DIHED IMPRP ELECT VDW BOUNDARY MISC KINETIC TOTAL TEMP POTENTIAL TOTALAVG TEMPAVG PRESSURE GPRESSURE VOLUME PRESSAVG GPRESSAVG
ENERGY: 0 5.3266 8.7528 6.2389 0.0000 -10754.7882 1535.5176 0.0000 0.0000 1773.6637 -7425.2887 301.9446 -9198.9524 -7425.2887 301.9446 964.6534 1044.2235 30032.7202 964.6534 1044.2235
ENERGY: 300000 2.1210 3.6255 8.5203 0.0000 -10606.2435 1481.1258 0.0000 0.0000 1805.4517 -7305.3992 307.3561 -9110.8509 -7454.2994 300.9471 436.5511 484.5726 30791.4274 273.3324 329.6500
ENERGY: 600000 4.7393 6.9828 12.3437 0.0000 -10588.0251 1395.1763 0.0000 0.0000 1789.3211 -7379.4619 304.6101 -9168.7830 -7435.3768 303.2307 -276.8826 -183.4318 30176.6709 135.9660 193.5650
ENERGY: 900000 3.7042 3.1854 5.9440 0.0000 -10712.7066 1470.8231 0.0000 0.0000 1762.8828 -7466.1671 300.1093 -9229.0499 -7432.8810 301.9197 457.1016 451.6152 30327.2935 248.8381 302.2420
ENERGY: 1200000 5.5305 8.4555 6.1653 0.0000 -10716.9318 1467.1345 0.0000 0.0000 1753.6194 -7476.0267 298.5323 -9229.6460 -7436.8712 302.0674 119.8322 137.4658 30238.3117 101.2207 157.3796
ENERGY: 1500000 1.6663 3.1340 5.2897 0.0000 -10715.5796 1493.2263 0.0000 0.0000 1753.8941 -7458.3692 298.5790 -9212.2633 -7432.7819 301.5011 399.0540 455.9487 30196.5729 166.1290 223.7968
TCL: Running FEP window   9: Lambda1 0.5999999999999996 Lambda2 0.5499999999999996 [dLambda -0.050000000000000044]
TCL: Setting parameter firsttimestep to 0
TCL: Setting parameter alchLambda to 0.5999999999999996
Info: NONBONDED TABLE R-SQUARED SPACING: 0.0625
Info: NONBONDED TABLE SIZE: 705 POINTS
TCL: Setting parameter alchLambda2 to 0.5499999999999996
Info: NONBONDED TABLE R-SQUARED SPACING: 0.0625
Info: NONBONDED TABLE SIZE: 705 POINTS
TCL: Running for 1500000 steps
ETITLE: TS BOND ANGLE DIHED IMPRP ELECT VDW BOUNDARY MISC KINETIC TOTAL TEMP POTENTIAL TOTALAVG TEMPAVG PRESSURE GPRESSURE VOLUME PRESSAVG GPRESSAVG
ENERGY: 0 1.6663 3.1340 5.2897 0.0000 -10714.7248 1493.7988 0.0000 0.0000 1753.0150 -7457.8210 298.4294 -9210.8360 -7457.8210 298.4294 369.2426 457.7832 30196.5729 369.2426 457.7832
ENERGY: 300000 6.8095 3.0203 7.4624 0.0000 -10613.3966 1432.4931 0.0000 0.0000 1735.5751 -7428.0362 295.4605 -9163.6113 -7428.9582 299.8052 -263.0213 -208.7299 30737.5953 -129.5713 -40.3909
ENERGY: 600000 1.4462 4.2891 11.7538 0.0000 -10742.6346 1487.9136 0.0000 0.0000 1718.7283 -7518.5037 292.5925 -9237.2319 -7439.5012 301.2068 187.7638 262.0547 30412.4125 131.1880 203.2715
ENERGY: 900000 2.8245 10.2070 7.2819 0.0000 -10565.9334 1455.4306 0.0000 0.0000 1688.6008 -7401.5885 287.4637 -9090.1894 -7435.2256 299.9203 285.1004 363.3072 30315.0186 218.9752 286.1334
ENERGY: 1200000 6.2825 5.2943 14.4122 0.0000 -10644.3694 1469.9576 0.0000 0.0000 1789.1556 -7359.2672 304.5819 -9148.4228 -7428.4744 301.1288 116.9240 154.3436 31117.0200 222.4674 281.0881
ENERGY: 1500000 5.5177 6.1633 7.1826 0.0000 -10670.4889 1441.2225 0.0000 0.0000 1761.2909 -7449.1119 299.8383 -9210.4028 -7426.8695 302.0979 17.5627 154.6289 29988.7499 133.2903 196.0864
TCL: Running FEP window  10: Lambda1 0.5499999999999996 Lambda2 0.4999999999999996 [dLambda -0.04999999999999999]
TCL: Setting parameter firsttimestep to 0
TCL: Setting parameter alchLambda to 0.5499999999999996
Info: NONBONDED TABLE R-SQUARED SPACING: 0.0625
Info: NONBONDED TABLE SIZE: 705 POINTS
TCL: Setting parameter alchLambda2 to 0.4999999999999996
Info: NONBONDED TABLE R-SQUARED SPACING: 0.0625
Info: NONBONDED TABLE SIZE: 705 POINTS
TCL: Running for 1500000 steps
ETITLE: TS BOND ANGLE DIHED IMPRP ELECT VDW BOUNDARY MISC KINETIC TOTAL TEMP POTENTIAL TOTALAVG TEMPAVG PRESSURE GPRESSURE VOLUME PRESSAVG GPRESSAVG
ENERGY: 0 5.5177 6.1633 7.1826 0.0000 -10669.1500 1441.3353 0.0000 0.0000 1760.4216 -7448.5295 299.6903 -9208.9512 -7448.5295 299.6903 66.1598 148.9027 29988.7499 66.1598 148.9027
ENERGY: 300000 6.5271 9.9568 11.4413 0.0000 -10795.9884 1554.7053 0.0000 0.0000 1730.2563 -7483.1015 294.5550 -9213.3578 -7454.2604 303.2210 646.7891 737.0656 30377.9688 258.0105 341.1134
ENERGY: 600000 3.3371 4.9203 8.2925 0.0000 -10775.4699 1521.9744 0.0000 0.0000 1709.7701 -7527.1756 291.0675 -9236.9457 -7472.0336 300.9621 531.0324 637.4350 30081.9531 84.4928 159.2462
ENERGY: 900000 7.5277 5.9190 5.9879 0.0000 -10577.1537 1355.1693 0.0000 0.0000 1800.6264 -7401.9234 306.5346 -9202.5498 -7466.2759 299.4964 -758.1510 -757.1501 30434.7841 -132.0988 -66.4785
ENERGY: 1200000 5.0953 6.4917 5.8871 0.0000 -10566.8130 1328.4999 0.0000 0.0000 1779.6616 -7441.1774 302.9656 -9220.8390 -7458.6430 299.4234 -904.9739 -850.3053 30157.8655 -25.6372 36.1474
ENERGY: 1500000 4.0500 6.8008 13.1923 0.0000 -10812.3088 1505.6936 0.0000 0.0000 1777.3496 -7505.2225 302.5721 -9282.5721 -7457.5953 299.2977 438.3105 499.0634 29787.5272 -42.6747 18.1615
TCL: Running FEP window  11: Lambda1 0.4999999999999996 Lambda2 0.4499999999999996 [dLambda -0.04999999999999999]
TCL: Setting parameter firsttimestep to 0
TCL: Setting parameter alchLambda to 0.4999999999999996
Info: NONBONDED TABLE R-SQUARED SPACING: 0.0625
Info: NONBONDED TABLE SIZE: 705 POINTS
TCL: Setting parameter alchLambda2 to 0.4499999999999996
Info: NONBONDED TABLE R-SQUARED SPACING: 0.0625
Info: NONBONDED TABLE SIZE: 705 POINTS
TCL: Running for 1500000 steps
ETITLE: TS BOND ANGLE DIHED IMPRP ELECT VDW BOUNDARY MISC KINETIC TOTAL TEMP POTENTIAL TOTALAVG TEMPAVG PRESSURE GPRESSURE VOLUME PRESSAVG GPRESSAVG
ENERGY: 0 4.0500 6.8008 13.1923 0.0000 -10812.2502 1505.7355 0.0000 0.0000 1776.4611 -7506.0106 302.4208 -9282.4717 -7506.0106 302.4208 408.4794 489.5098 29787.5272 408.4794 489.5098
ENERGY: 300000 6.7056 2.2934 8.9826 0.0000 -10600.6719 1359.1230 0.0000 0.0000 1747.5354 -7476.0318 297.4966 -9223.5672 -7491.7284 300.3833 -553.9919 -520.6485 30302.7109 245.8067 299.7889
ENERGY: 600000 7.5457 3.4824 8.1560 0.0000 -10796.7129 1503.2532 0.0000 0.0000 1818.2763 -7455.9993 309.5393 -9274.2756 -7458.1495 302.4075 407.1246 518.4521 29970.5427 177.2304 242.7509
ENERGY: 900000 5.0115 7.0860 5.7491 0.0000 -10578.7807 1354.5164 0.0000 0.0000 1677.1219 -7529.2958 285.5095 -9206.4176 -7469.8668 300.0033 -840.0491 -764.6964 30181.4472 64.6524 129.0791
ENERGY: 1200000 2.9064 6.1833 9.4957 0.0000 -10619.0375 1437.8684 0.0000 0.0000 1795.7396 -7366.8440 305.7027 -9162.5836 -7452.1877 300.0182 170.9629 257.5604 30190.7540 89.8467 158.9728
ENERGY: 1500000 4.0576 5.5825 9.7200 0.0000 -10572.0398 1393.7274 0.0000 0.0000 1775.4883 -7383.4639 302.2552 -9158.9523 -7448.7248 300.3273 -680.9031 -519.3815 30589.2506 89.6859 163.2656
TCL: Running FEP window  12: Lambda1 0.4499999999999996 Lambda2 0.39999999999999963 [dLambda -0.04999999999999999]
TCL: Setting parameter firsttimestep to 0
TCL: Setting parameter alchLambda to 0.4499999999999996
Info: NONBONDED TABLE R-SQUARED SPACING: 0.0625
Info: NONBONDED TABLE SIZE: 705 POINTS
TCL: Setting parameter alchLambda2 to 0.39999999999999963
Info: NONBONDED TABLE R-SQUARED SPACING: 0.0625
Info: NONBONDED TABLE SIZE: 705 POINTS
TCL: Running for 1500000 steps
ETITLE: TS BOND ANGLE DIHED IMPRP ELECT VDW BOUNDARY MISC KINETIC TOTAL TEMP POTENTIAL TOTALAVG TEMPAVG PRESSURE GPRESSURE VOLUME PRESSAVG GPRESSAVG
ENERGY: 0 4.0576 5.5825 9.7200 0.0000 -10572.0398 1394.1811 0.0000 0.0000 1774.6214 -7383.8772 302.1076 -9158.4986 -7383.8772 302.1076 -610.2834 -522.2863 30589.2506 -610.2834 -522.2863
ENERGY: 300000 4.4414 2.7125 7.7942 0.0000 -10501.7506 1345.6299 0.0000 0.0000 1774.7143 -7366.4582 302.1234 -9141.1726 -7396.0112 301.6557 -686.7107 -568.5867 30457.0823 -625.8152 -536.5274
ENERGY: 600000 8.2056 7.3533 13.9093 0.0000 -10711.3132 1465.4353 0.0000 0.0000 1759.4875 -7456.9223 299.5312 -9216.4098 -7412.7678 302.6368 173.8010 237.6217 30082.9043 -310.2768 -222.6118
ENERGY: 900000 4.8605 4.5085 8.0627 0.0000 -10571.2569 1371.4743 0.0000 0.0000 1721.6998 -7460.6511 293.0984 -9182.3509 -7412.3300 301.7196 -713.9512 -657.7653 31002.6301 -292.8315 -207.2352
ENERGY: 1200000 2.5997 6.8105 9.3560 0.0000 -10696.3228 1483.4919 0.0000 0.0000 1756.0950 -7437.9697 298.9537 -9194.0647 -7411.5001 301.8937 83.7535 188.7091 30585.9219 -74.8159 8.8980
ENERGY: 1500000 4.6847 3.2812 13.2067 0.0000 -10505.7740 1382.2557 0.0000 0.0000 1761.3159 -7341.0298 299.8425 -9102.3457 -7404.1899 301.7512 -56.0991 -42.7568 30208.5045 -30.8183 43.5715
TCL: Running FEP window  13: Lambda1 0.39999999999999963 Lambda2 0.34999999999999964 [dLambda -0.04999999999999999]
TCL: Setting parameter firsttimestep to 0
TCL: Setting parameter alchLambda to 0.39999999999999963
Info: NONBONDED TABLE R-SQUARED SPACING: 0.0625
Info: NONBONDED TABLE SIZE: 705 POINTS
TCL: Setting parameter alchLambda2 to 0.34999999999999964
Info: NONBONDED TABLE R-SQUARED SPACING: 0.0625
Info: NONBONDED TABLE SIZE: 705 POINTS
TCL: Running for 1500000 steps
ETITLE: TS BOND ANGLE DIHED IMPRP ELECT VDW BOUNDARY MISC KINETIC TOTAL TEMP POTENTIAL TOTALAVG TEMPAVG PRESSURE GPRESSURE VOLUME PRESSAVG GPRESSAVG
ENERGY: 0 4.6847 3.2812 13.2067 0.0000 -10505.7728 1382.3821 0.0000 0.0000 1760.4232 -7341.7950 299.6905 -9102.2182 -7341.7950 299.6905 -142.6341 -49.5910 30208.5045 -142.6341 -49.5910
ENERGY: 300000 2.5817 4.5576 13.2571 0.0000 -10834.8077 1540.2906 0.0000 0.0000 1717.4259 -7556.6949 292.3708 -9274.1208 -7426.0629 298.4648 525.7361 639.5938 30454.5533 -29.8425 45.0995
ENERGY: 600000 4.3610 3.1862 3.5949 0.0000 -10713.0601 1510.2258 0.0000 0.0000 1809.0990 -7382.5932 307.9770 -9191.6923 -7439.9296 299.9708 849.9065 908.8776 29933.1649 31.5628 108.1415
ENERGY: 900000 4.9464 3.5978 9.1540 0.0000 -10592.4628 1396.0552 0.0000 0.0000 1811.4338 -7367.2757 308.3745 -9178.7095 -7417.2946 302.2566 34.6798 87.3980 30032.0993 -160.9756 -92.5948
ENERGY: 1200000 3.3284 9.4169 12.2919 0.0000 -10573.7223 1362.2674 0.0000 0.0000 1743.4092 -7443.0085 296.7941 -9186.4176 -7420.6343 301.8145 -553.9987 -522.4943 30416.9247 -142.0211 -80.2087
ENERGY: 1500000 3.1762 6.4413 7.7262 0.0000 -10775.4912 1531.4694 0.0000 0.0000 1826.4606 -7400.2175 310.9326 -9226.6781 -7426.3196 301.1754 535.1761 610.2241 30245.9389 -66.3571 -2.0801
TCL: Running FEP window  14: Lambda1 0.34999999999999964 Lambda2 0.29999999999999966 [dLambda -0.04999999999999999]
TCL: Setting parameter firsttimestep to 0
TCL: Setting parameter alchLambda to 0.34999999999999964
Info: NONBONDED TABLE R-SQUARED SPACING: 0.0625
Info: NONBONDED TABLE SIZE: 705 POINTS
TCL: Setting parameter alchLambda2 to 0.29999999999999966
Info: NONBONDED TABLE R-SQUARED SPACING: 0.0625
Info: NONBONDED TABLE SIZE: 705 POINTS
TCL: Running for 1500000 steps
ETITLE: TS BOND ANGLE DIHED IMPRP ELECT VDW BOUNDARY MISC KINETIC TOTAL TEMP POTENTIAL TOTALAVG TEMPAVG PRESSURE GPRESSURE VOLUME PRESSAVG GPRESSAVG
ENERGY: 0 3.1762 6.4413 7.7262 0.0000 -10775.4912 1531.9383 0.0000 0.0000 1825.5998 -7400.6095 310.7861 -9226.2093 -7400.6095 310.7861 523.2906 610.7676 30245.9389 523.2906 610.7676
ENERGY: 300000 5.0985 7.9423 8.5864 0.0000 -10723.8783 1459.8054 0.0000 0.0000 1809.5833 -7432.8624 308.0595 -9242.4457 -7419.4663 305.7255 195.9403 223.7392 29910.6460 11.6516 73.7727
ENERGY: 600000 4.7203 2.6973 4.7842 0.0000 -10566.7800 1357.1631 0.0000 0.0000 1794.8057 -7402.6094 305.5437 -9197.4151 -7425.3860 303.1075 -708.0663 -648.6554 30222.3566 -94.7910 -36.9204
ENERGY: 900000 3.3573 6.0426 12.9411 0.0000 -10638.7906 1383.0845 0.0000 0.0000 1813.1620 -7420.2031 308.6687 -9233.3651 -7428.8278 302.0819 -279.3739 -264.3137 30359.2181 13.4152 68.8642
ENERGY: 1200000 3.6048 6.6620 9.7132 0.0000 -10691.8330 1461.5428 0.0000 0.0000 1751.5021 -7458.8080 298.1718 -9210.3101 -7425.1017 302.5283 519.9353 540.3151 29914.5054 15.1648 71.1072
ENERGY: 1500000 3.6582 7.3885 8.4926 0.0000 -10567.3709 1328.4425 0.0000 0.0000 1742.2245 -7477.1646 296.5924 -9219.3891 -7433.2887 301.7641 -931.6404 -835.5949 30237.7021 -52.5047 12.6791
TCL: Running FEP window  15: Lambda1 0.29999999999999966 Lambda2 0.24999999999999967 [dLambda -0.04999999999999999]
TCL: Setting parameter firsttimestep to 0
TCL: Setting parameter alchLambda to 0.29999999999999966
Info: NONBONDED TABLE R-SQUARED SPACING: 0.0625
Info: NONBONDED TABLE SIZE: 705 POINTS
TCL: Setting parameter alchLambda2 to 0.24999999999999967
Info: NONBONDED TABLE R-SQUARED SPACING: 0.0625
Info: NONBONDED TABLE SIZE: 705 POINTS
TCL: Running for 1500000 steps
ETITLE: TS BOND ANGLE DIHED IMPRP ELECT VDW BOUNDARY MISC KINETIC TOTAL TEMP POTENTIAL TOTALAVG TEMPAVG PRESSURE GPRESSURE VOLUME PRESSAVG GPRESSAVG
ENERGY: 0 3.6582 7.3885 8.4926 0.0000 -10567.3720 1328.6576 0.0000 0.0000 1741.3143 -7477.8607 296.4375 -9219.1750 -7477.8607 296.4375 -926.0279 -838.0110 30237.7021 -926.0279 -838.0110
ENERGY: 300000 2.4181 3.1109 9.0133 0.0000 -10667.1765 1416.6036 0.0000 0.0000 1760.2009 -7475.8297 299.6527 -9236.0305 -7460.4127 298.7848 104.4130 93.4047 30024.3672 -378.0495 -356.3422
ENERGY: 600000 4.8490 7.4107 7.0972 0.0000 -10872.6137 1555.7669 0.0000 0.0000 1776.4934 -7520.9964 302.4263 -9297.4899 -7487.8603 298.4093 1099.3866 1120.6720 29594.4136 -39.5216 -0.4330
ENERGY: 900000 4.0043 4.3822 8.4902 0.0000 -10671.3415 1438.4430 0.0000 0.0000 1771.7314 -7444.2903 301.6156 -9216.0218 -7463.6518 298.8961 10.2488 95.6393 30263.8422 -139.5664 -98.2369
ENERGY: 1200000 3.2242 5.0695 8.1698 0.0000 -10570.6743 1435.2721 0.0000 0.0000 1761.0241 -7357.9147 299.7928 -9118.9388 -7455.1397 299.4089 -136.0930 -101.7199 31027.3130 -153.6221 -107.9259
ENERGY: 1500000 3.9950 1.6757 7.8262 0.0000 -10437.1871 1288.1737 0.0000 0.0000 1719.5213 -7415.9952 292.7275 -9135.5164 -7443.0001 298.9079 -1119.1959 -1050.0768 30306.6002 -209.9491 -161.2502
TCL: Running FEP window  16: Lambda1 0.24999999999999967 Lambda2 0.19999999999999968 [dLambda -0.04999999999999999]
TCL: Setting parameter firsttimestep to 0
TCL: Setting parameter alchLambda to 0.24999999999999967
Info: NONBONDED TABLE R-SQUARED SPACING: 0.0625
Info: NONBONDED TABLE SIZE: 705 POINTS
TCL: Setting parameter alchLambda2 to 0.19999999999999968
Info: NONBONDED TABLE R-SQUARED SPACING: 0.0625
Info: NONBONDED TABLE SIZE: 705 POINTS
TCL: Running for 1500000 steps
ETITLE: TS BOND ANGLE DIHED IMPRP ELECT VDW BOUNDARY MISC KINETIC TOTAL TEMP POTENTIAL TOTALAVG TEMPAVG PRESSURE GPRESSURE VOLUME PRESSAVG GPRESSAVG
ENERGY: 0 3.9950 1.6757 7.8262 0.0000 -10437.1881 1288.5933 0.0000 0.0000 1718.6691 -7416.4288 292.5824 -9135.0979 -7416.4288 292.5824 -1138.2882 -1055.6290 30306.6002 -1138.2882 -1055.6290
ENERGY: 300000 2.3021 2.0368 7.7402 0.0000 -10659.6291 1450.2736 0.0000 0.0000 1747.1037 -7450.1727 297.4231 -9197.2764 -7425.6287 297.7753 109.8379 155.4390 30179.5745 -457.5551 -401.1022
ENERGY: 600000 8.0787 5.9648 7.3738 0.0000 -10768.2203 1513.4659 0.0000 0.0000 1806.9835 -7426.3537 307.6169 -9233.3372 -7432.2436 299.3627 516.0899 513.7885 30067.3445 -455.9826 -408.4067
ENERGY: 900000 4.3124 8.6248 8.7258 0.0000 -10572.8075 1416.0800 0.0000 0.0000 1785.6151 -7349.4494 303.9792 -9135.0645 -7409.2466 299.8500 -62.8525 10.6499 30315.1073 -280.8048 -233.4387
ENERGY: 1200000 6.3737 7.9892 8.5808 0.0000 -10578.6495 1347.6957 0.0000 0.0000 1809.4674 -7398.5427 308.0397 -9208.0100 -7415.1134 300.6255 -677.8052 -700.2091 30301.1229 -331.2051 -284.8071
ENERGY: 1500000 5.1706 6.9420 3.9654 0.0000 -10688.6908 1497.2506 0.0000 0.0000 1772.0411 -7403.3210 301.6684 -9175.3621 -7418.1968 300.4415 568.6263 636.2870 30217.9205 -345.1206 -295.7487
TCL: Running FEP window  17: Lambda1 0.19999999999999968 Lambda2 0.1499999999999997 [dLambda -0.04999999999999999]
TCL: Setting parameter firsttimestep to 0
TCL: Setting parameter alchLambda to 0.19999999999999968
Info: NONBONDED TABLE R-SQUARED SPACING: 0.0625
Info: NONBONDED TABLE SIZE: 705 POINTS
TCL: Setting parameter alchLambda2 to 0.1499999999999997
Info: NONBONDED TABLE R-SQUARED SPACING: 0.0625
Info: NONBONDED TABLE SIZE: 705 POINTS
TCL: Running for 1500000 steps
ETITLE: TS BOND ANGLE DIHED IMPRP ELECT VDW BOUNDARY MISC KINETIC TOTAL TEMP POTENTIAL TOTALAVG TEMPAVG PRESSURE GPRESSURE VOLUME PRESSAVG GPRESSAVG
ENERGY: 0 5.1706 6.9420 3.9654 0.0000 -10688.6906 1497.8856 0.0000 0.0000 1771.1407 -7403.5863 301.5151 -9174.7270 -7403.5863 301.5151 565.1565 635.3666 30217.9205 565.1565 635.3666
ENERGY: 300000 10.2697 6.8654 4.1688 0.0000 -10604.1469 1437.7616 0.0000 0.0000 1779.0326 -7366.0487 302.8586 -9145.0814 -7430.3134 300.2766 4.4400 50.1759 30286.2787 240.4688 306.2667
ENERGY: 600000 4.8676 4.0685 6.8493 0.0000 -10611.4132 1427.1360 0.0000 0.0000 1692.9045 -7475.5873 288.1963 -9168.4918 -7421.8411 298.4371 172.0558 198.3798 29964.7564 80.3869 128.3157
ENERGY: 900000 3.0587 9.5046 5.7102 0.0000 -10591.5319 1369.0059 0.0000 0.0000 1767.8507 -7436.4018 300.9550 -9204.2525 -7429.3531 299.1630 -563.9134 -509.8899 30361.1521 1.8971 53.1106
ENERGY: 1200000 6.8145 4.9599 4.9266 0.0000 -10654.8438 1464.8733 0.0000 0.0000 1795.0894 -7378.1801 305.5920 -9173.2695 -7415.8134 299.0190 -223.6820 -141.7872 30677.4200 15.0001 68.6192
ENERGY: 1500000 4.2774 7.4318 9.8263 0.0000 -10529.1805 1393.5902 0.0000 0.0000 1767.2801 -7346.7748 300.8579 -9114.0549 -7409.5962 300.2309 -238.4376 -175.4759 30661.2449 -10.5783 41.0597
TCL: Running FEP window  18: Lambda1 0.1499999999999997 Lambda2 0.09999999999999969 [dLambda -0.05 ]
TCL: Setting parameter firsttimestep to 0
TCL: Setting parameter alchLambda to 0.1499999999999997
Info: NONBONDED TABLE R-SQUARED SPACING: 0.0625
Info: NONBONDED TABLE SIZE: 705 POINTS
TCL: Setting parameter alchLambda2 to 0.09999999999999969
Info: NONBONDED TABLE R-SQUARED SPACING: 0.0625
Info: NONBONDED TABLE SIZE: 705 POINTS
TCL: Running for 1500000 steps
ETITLE: TS BOND ANGLE DIHED IMPRP ELECT VDW BOUNDARY MISC KINETIC TOTAL TEMP POTENTIAL TOTALAVG TEMPAVG PRESSURE GPRESSURE VOLUME PRESSAVG GPRESSAVG
ENERGY: 0 4.2774 7.4318 9.8263 0.0000 -10529.1796 1393.2171 0.0000 0.0000 1766.3519 -7348.0751 300.6998 -9114.4270 -7348.0751 300.6998 -267.8533 -182.2484 30661.2449 -267.8533 -182.2484
ENERGY: 300000 7.0371 8.2522 7.3178 0.0000 -10644.4932 1383.4197 0.0000 0.0000 1745.8463 -7492.6200 297.2090 -9238.4664 -7396.8967 303.2286 -778.7349 -733.3790 30061.6524 -242.5212 -188.0386
ENERGY: 600000 4.7747 5.5209 8.3894 0.0000 -10559.2960 1357.5824 0.0000 0.0000 1754.7109 -7428.3177 298.7181 -9183.0285 -7408.7476 302.3821 -722.0742 -671.7153 30254.2638 -246.0796 -185.0082
ENERGY: 900000 4.2973 5.5404 7.7818 0.0000 -10571.5770 1393.1195 0.0000 0.0000 1747.0161 -7413.8219 297.4081 -9160.8380 -7410.0648 300.7852 -266.0732 -115.8458 29849.3627 -176.0349 -107.3333
ENERGY: 1200000 9.1317 9.8115 9.6817 0.0000 -10570.9305 1433.3403 0.0000 0.0000 1841.1271 -7267.8382 313.4294 -9108.9653 -7396.3978 302.0451 -243.5664 -160.5978 30253.3921 -139.1121 -75.0018
ENERGY: 1500000 6.4697 3.0938 11.8157 0.0000 -10581.2314 1382.9467 0.0000 0.0000 1735.5158 -7441.3897 295.4504 -9176.9055 -7409.3599 300.7043 -309.1813 -279.9579 30051.0978 -118.6827 -53.1237
TCL: Running FEP window  19: Lambda1 0.09999999999999969 Lambda2 0.049999999999999684 [dLambda -0.05 ]
TCL: Setting parameter firsttimestep to 0
TCL: Setting parameter alchLambda to 0.09999999999999969
Info: NONBONDED TABLE R-SQUARED SPACING: 0.0625
Info: NONBONDED TABLE SIZE: 705 POINTS
TCL: Setting parameter alchLambda2 to 0.049999999999999684
Info: NONBONDED TABLE R-SQUARED SPACING: 0.0625
Info: NONBONDED TABLE SIZE: 705 POINTS
TCL: Running for 1500000 steps
ETITLE: TS BOND ANGLE DIHED IMPRP ELECT VDW BOUNDARY MISC KINETIC TOTAL TEMP POTENTIAL TOTALAVG TEMPAVG PRESSURE GPRESSURE VOLUME PRESSAVG GPRESSAVG
ENERGY: 0 6.4697 3.0938 11.8157 0.0000 -10581.2315 1383.1324 0.0000 0.0000 1734.6241 -7442.0959 295.2986 -9176.7200 -7442.0959 295.2986 -352.3033 -284.1955 30051.0978 -352.3033 -284.1955
ENERGY: 300000 4.0437 4.4718 10.7978 0.0000 -10683.9576 1458.5958 0.0000 0.0000 1703.0979 -7502.9505 289.9316 -9206.0484 -7458.7689 293.2504 328.9964 389.3633 29936.2389 4.8350 76.8824
ENERGY: 600000 4.6301 5.6220 7.8384 0.0000 -10667.2166 1479.3178 0.0000 0.0000 1786.2237 -7383.5845 304.0828 -9169.8083 -7459.8572 297.2543 369.7529 405.6037 30496.3198 172.9825 249.2300
ENERGY: 900000 2.5613 8.4598 12.5894 0.0000 -10685.7878 1482.9530 0.0000 0.0000 1776.7142 -7402.5100 302.4639 -9179.2242 -7432.4250 299.3401 409.7075 515.6495 30057.9494 125.8090 209.6009
ENERGY: 1200000 5.7243 5.6005 8.5918 0.0000 -10659.4669 1378.4645 0.0000 0.0000 1833.7164 -7427.3694 312.1678 -9261.0858 -7433.5972 300.2262 -1022.2847 -968.6379 30283.5706 -55.2428 17.2044
ENERGY: 1500000 5.7060 6.3388 9.0270 0.0000 -10694.2873 1474.2374 0.0000 0.0000 1750.6486 -7448.3296 298.0265 -9198.9782 -7436.0462 300.4743 195.3286 262.8398 30197.5139 0.8509 66.8711
TCL: Running FEP window  20: Lambda1 0.049999999999999684 Lambda2 0.0    [dLambda -0.049999999999999684]
TCL: Setting parameter firsttimestep to 0
TCL: Setting parameter alchLambda to 0.049999999999999684
Info: NONBONDED TABLE R-SQUARED SPACING: 0.0625
Info: NONBONDED TABLE SIZE: 705 POINTS
TCL: Setting parameter alchLambda2 to 0.0
Info: NONBONDED TABLE R-SQUARED SPACING: 0.0625
Info: NONBONDED TABLE SIZE: 705 POINTS
TCL: Running for 1500000 steps
ETITLE: TS BOND ANGLE DIHED IMPRP ELECT VDW BOUNDARY MISC KINETIC TOTAL TEMP POTENTIAL TOTALAVG TEMPAVG PRESSURE GPRESSURE VOLUME PRESSAVG GPRESSAVG
ENERGY: 0 5.7060 6.3388 9.0270 0.0000 -10694.2847 1473.8558 0.0000 0.0000 1749.7618 -7449.5954 297.8756 -9199.3572 -7449.5954 297.8756 176.2105 257.9719 30197.5139 176.2105 257.9719
ENERGY: 300000 3.0769 3.6506 12.4790 0.0000 -10660.1461 1422.6260 0.0000 0.0000 1730.5204 -7487.7932 294.6000 -9218.3136 -7453.4389 299.6121 -313.9779 -247.3090 30200.8103 93.1273 182.8778
ENERGY: 600000 5.7320 4.2952 4.9864 0.0000 -10526.4172 1356.9629 0.0000 0.0000 1772.0284 -7382.4124 301.6662 -9154.4407 -7458.1472 299.0715 -599.1727 -496.1457 30144.2403 -118.1861 -21.4227
ENERGY: 900000 5.3626 4.1863 9.1220 0.0000 -10720.1360 1496.8310 0.0000 0.0000 1786.8394 -7417.7948 304.1876 -9204.6342 -7453.9733 300.3176 159.8916 190.3719 30534.7700 -61.4509 19.2808
ENERGY: 1200000 2.3116 3.6117 7.1099 0.0000 -10710.3609 1458.0362 0.0000 0.0000 1755.0244 -7484.2671 298.7715 -9239.2915 -7451.9577 300.1713 -26.2397 -2.9180 30585.0691 -107.6568 -30.6267
ENERGY: 1500000 7.6286 5.0486 7.3798 0.0000 -10616.6474 1379.8538 0.0000 0.0000 1765.1578 -7451.5787 300.4966 -9216.7365 -7455.0774 299.9314 -596.7641 -528.3420 29917.4001 -208.7865 -132.4499
TCL: Exiting due to exit command.
