Info: SIMULATION PARAMETERS:
Info: TIMESTEP               2
Info: NUMBER OF STEPS        0
Info: STEPS PER CYCLE        10
Info: PERIODIC CELL BASIS 1  32.2817 0 0
Info: PERIODIC CELL BASIS 2  0 30.2244 0
Info: PERIODIC CELL BASIS 3  0 0 30.8366
Info: PERIODIC CELL CENTER   0 0 0
Info: WRAPPING WATERS AROUND PERIODIC BOUNDARIES ON OUTPUT.
Info: WRAPPING ALL CLUSTERS AROUND PERIODIC BOUNDARIES ON OUTPUT.
Info: FIRST LDB TIMESTEP     50
Info: LAST LDB TIMESTEP     -1
Info: HOM BACKGROUND SCALING 1
Info: PME BACKGROUND SCALING 1
Info: MIN ATOMS PER PATCH    40
Info: EMPTY PATCH LOAD       40 ATOMS
Info: VELOCITY FILE          mobley_5123639_equil.vel
Info: CENTER OF MASS MOVING INITIALLY? NO
Info: DIELECTRIC             1
Info: EXCLUDE                SCALED ONE-FOUR
Info: 1-4 ELECTROSTATICS SCALED BY 0.833333
Info: MODIFIED 1-4 VDW PARAMETERS WILL BE USED
Info: DCD FILENAME           mobley_5123639_prod.dcd
Info: DCD FREQUENCY          100000
Info: DCD FIRST STEP         100000
Info: DCD FILE WILL CONTAIN UNIT CELL DATA
Info: XST FILENAME           mobley_5123639_prod.xst
Info: XST FREQUENCY          100000
Info: NO VELOCITY DCD OUTPUT
Info: NO FORCE DCD OUTPUT
Info: OUTPUT FILENAME        mobley_5123639_prod
Info: BINARY OUTPUT FILES WILL BE USED
Info: RESTART FILENAME       mobley_5123639_prod.restart
Info: RESTART FREQUENCY      100000
Info: BINARY RESTART FILES WILL BE USED
Info: CUTOFF                 9
Info: PAIRLIST DISTANCE      11
Info: PAIRLIST SHRINK RATE   0.01
Info: PAIRLIST GROW RATE     0.01
Info: PAIRLIST TRIGGER       0.3
Info: PAIRLISTS PER CYCLE    2
Info: PAIRLISTS ENABLED
Info: MARGIN                 2
Info: HYDROGEN GROUP CUTOFF  2.5
Info: PATCH DIMENSION        15.5
Info: ENERGY OUTPUT STEPS    100000
Info: ENERGY EVALUATION STEPS    100000
Info: OUTPUT ENERGY PRECISION 4
Info: CROSSTERM ENERGY INCLUDED IN DIHEDRAL
Info: TIMING OUTPUT STEPS    1000000
Info: PRESSURE OUTPUT STEPS  100000
Info: ALCHEMICAL FEP ON
Info: FEP CURRENT LAMBDA VALUE     0
Info: FEP COMPARISON LAMBDA VALUE  0.05
Info: FEP INTRA-ALCHEMICAL NON-BONDED INTERACTIONS WILL BE RETAINED
Info: FEP INTRA-ALCHEMICAL BONDED INTERACTIONS WILL BE RETAINED
Info: FEP VDW SHIFTING COEFFICIENT 5
Info: FEP ELEC. ACTIVE FOR ANNIHILATED PARTICLES BETWEEN LAMBDA = 0 AND LAMBDA = 0.5
Info: FEP ELEC. ACTIVE FOR EXNIHILATED PARTICLES BETWEEN LAMBDA = 0.5 AND LAMBDA = 1
Info: FEP VDW ACTIVE FOR ANNIHILATED PARTICLES BETWEEN LAMBDA = 0 AND LAMBDA = 1
Info: FEP VDW ACTIVE FOR EXNIHILATED PARTICLES BETWEEN LAMBDA = 0 AND LAMBDA = 1
Info: FEP BOND ACTIVE FOR ANNIHILATED PARTICLES BETWEEN LAMBDA = 1 AND LAMBDA = 1
Info: FEP BOND ACTIVE FOR EXNIHILATED PARTICLES BETWEEN LAMBDA = 0 AND LAMBDA = 0
Info: LANGEVIN DYNAMICS ACTIVE
Info: LANGEVIN TEMPERATURE   300
Info: LANGEVIN USING BBK INTEGRATOR
Info: LANGEVIN DAMPING COEFFICIENT IS 1 INVERSE PS
Info: LANGEVIN DYNAMICS APPLIED TO HYDROGENS
Info: LANGEVIN PISTON PRESSURE CONTROL ACTIVE
Info:        TARGET PRESSURE IS 1.01325 BAR
Info:     OSCILLATION PERIOD IS 50 FS
Info:             DECAY TIME IS 25 FS
Info:     PISTON TEMPERATURE IS 300 K
Info:       PRESSURE CONTROL IS GROUP-BASED
Info:    INITIAL STRAIN RATE IS -2.86124e-06 -2.86124e-06 -2.86124e-06
Info:       CELL FLUCTUATION IS ISOTROPIC
Info: PARTICLE MESH EWALD (PME) ACTIVE
Info: PME TOLERANCE               1e-06
Info: PME EWALD COEFFICIENT       0.348832
Info: PME INTERPOLATION ORDER     4
Info: PME GRID DIMENSIONS         36 32 32
Info: PME MAXIMUM GRID SPACING    1
Info: PME CALCULATION WILL BE PERFORMED ON GPU
Info: FULL ELECTROSTATIC EVALUATION FREQUENCY      2
Info: USING VERLET I (r-RESPA) MTS SCHEME.
Info: C1 SPLITTING OF LONG RANGE ELECTROSTATICS
Info: PLACING ATOMS IN PATCHES BY HYDROGEN GROUPS
Info: RIGID BONDS TO HYDROGEN : ALL
Info:         ERROR TOLERANCE : 1e-08
Info:          MAX ITERATIONS : 100
Info: RIGID WATER USING SETTLE ALGORITHM
Info: RANDOM NUMBER SEED     1743867112
Info: USE HYDROGEN BONDS?    NO
Info: Using AMBER format force field!
Info: AMBER PARM FILE        mobley_5123639.prmtop
Info: COORDINATE PDB         mobley_5123639.pdb
Info: Exclusions will be read from PARM file!
Info: SCNB (VDW SCALING)     2
Info: USING ARITHMETIC MEAN TO COMBINE L-J SIGMA PARAMETERS
Info: BINARY COORDINATES     mobley_5123639_equil.coor
Info: SUMMARY OF PARAMETERS:
Info: 7 BONDS
Info: 7 ANGLES
Info:   7 HARMONIC
Info:   0 COSINE-BASED
Info: 9 DIHEDRAL
Info: 0 IMPROPER
Info: 0 CROSSTERM
Info: 0 VDW
Info: 21 VDW_PAIRS
Info: 0 NBTHOLE_PAIRS
Info: To read alchdata from file: mobley_5123639.pdb
Info: To read alchflag data from column: 5
Info: STRUCTURE SUMMARY:
Info: 2925 ATOMS
Info: 2924 BONDS
Info: 37 ANGLES
Info: 61 DIHEDRALS
Info: 0 IMPROPERS
Info: 0 CROSSTERMS
Info: 3009 EXCLUSIONS
Info: 2918 RIGID BONDS
Info: ALCH: 0 ATOMS TO DISAPPEAR IN FINAL STATE
Info: ALCH: 21 ATOMS TO APPEAR IN FINAL STATE
Info: 5857 DEGREES OF FREEDOM
Info: 975 HYDROGEN GROUPS
Info: 4 ATOMS IN LARGEST HYDROGEN GROUP
Info: 975 MIGRATION GROUPS
Info: 4 ATOMS IN LARGEST MIGRATION GROUP
Info: TOTAL MASS = 17541.7 amu
Info: TOTAL CHARGE = 0.000200022 e
Info: MASS DENSITY = 0.968164 g/cm^3
Info: ATOM DENSITY = 0.0972176 atoms/A^3
Info: ADDED 0 IMPLICIT EXCLUSIONS
Info: NONBONDED TABLE R-SQUARED SPACING: 0.0625
Info: NONBONDED TABLE SIZE: 705 POINTS
Info: REMOVING COM VELOCITY -0.0868765 -0.0341949 -0.12578
Info: Use 3D box decompostion in PME FFT.
Info: Updated CUDA force table with 4096 elements.
Info: Updated CUDA LJ table with 6 x 6 elements.
Info: Found 24 unique exclusion lists needing 68 bytes
TCL: Running for 1500000 steps
ETITLE: TS BOND ANGLE DIHED IMPRP ELECT VDW BOUNDARY MISC KINETIC TOTAL TEMP POTENTIAL TOTALAVG TEMPAVG PRESSURE GPRESSURE VOLUME PRESSAVG GPRESSAVG
ENERGY: 0 0.9199 10.0110 4.2289 0.0000 -10446.2483 1362.5036 0.0000 0.0000 1749.5161 -7319.0689 300.6305 -9068.5849 -7319.0689 300.6305 -383.9505 -294.1231 30087.1367 -383.9505 -294.1231
ENERGY: 300000 1.2996 14.4210 4.5435 0.0000 -10540.3059 1402.5776 0.0000 0.0000 1708.7049 -7408.7594 293.6177 -9117.4643 -7364.2451 298.1098 36.4228 68.7260 29623.5524 -28.8669 36.4102
ENERGY: 600000 3.0453 6.2525 4.2101 0.0000 -10534.8204 1404.6225 0.0000 0.0000 1765.9121 -7350.7779 303.4480 -9116.6900 -7344.2551 299.5198 -8.4786 7.4186 29826.9835 -224.9803 -177.3240
ENERGY: 900000 1.4991 8.8118 4.2646 0.0000 -10549.9057 1371.7261 0.0000 0.0000 1727.0515 -7436.5526 296.7703 -9163.6040 -7353.3057 300.6294 -383.1394 -341.6713 29800.2785 -271.1538 -218.2376
ENERGY: 1200000 0.3644 7.6737 3.6214 0.0000 -10486.3763 1329.8358 0.0000 0.0000 1741.1719 -7403.7090 299.1967 -9144.8809 -7351.0688 300.4541 -913.0536 -828.6428 30233.2407 -186.6534 -138.4134
ENERGY: 1500000 0.9488 9.1726 3.2566 0.0000 -10725.9156 1495.5384 0.0000 0.0000 1757.9715 -7459.0278 302.0835 -9216.9993 -7358.7724 300.8561 291.8758 337.9561 29976.6626 -167.8435 -121.5013
TCL: Running FEP window   2: Lambda1 0.05   Lambda2 0.1    [dLambda 0.05  ]
TCL: Setting parameter firsttimestep to 0
TCL: Setting parameter alchLambda to 0.05
Info: NONBONDED TABLE R-SQUARED SPACING: 0.0625
Info: NONBONDED TABLE SIZE: 705 POINTS
TCL: Setting parameter alchLambda2 to 0.1
Info: NONBONDED TABLE R-SQUARED SPACING: 0.0625
Info: NONBONDED TABLE SIZE: 705 POINTS
TCL: Running for 1500000 steps
ETITLE: TS BOND ANGLE DIHED IMPRP ELECT VDW BOUNDARY MISC KINETIC TOTAL TEMP POTENTIAL TOTALAVG TEMPAVG PRESSURE GPRESSURE VOLUME PRESSAVG GPRESSAVG
ENERGY: 0 0.9488 9.1726 3.2566 0.0000 -10725.9156 1498.1340 0.0000 0.0000 1757.0852 -7457.3184 301.9312 -9214.4036 -7457.3184 301.9312 261.3032 343.3430 29976.6626 261.3032 343.3430
ENERGY: 300000 1.0116 8.5864 3.6873 0.0000 -10614.2809 1422.2068 0.0000 0.0000 1768.2532 -7410.5357 303.8503 -9178.7889 -7437.6694 302.2896 -215.5761 -204.1800 30033.4561 -102.6864 -61.9677
ENERGY: 600000 3.1506 8.3513 5.5885 0.0000 -10614.3436 1431.4230 0.0000 0.0000 1751.5747 -7414.2556 300.9843 -9165.8303 -7414.3006 302.3857 -63.9351 -27.6667 30311.7815 113.9585 145.3228
ENERGY: 900000 1.4511 8.5369 5.2740 0.0000 -10435.5557 1321.2362 0.0000 0.0000 1772.9640 -7326.0934 304.6598 -9099.0575 -7412.9465 302.8877 -504.9908 -518.2012 29839.2239 -17.9256 25.1546
ENERGY: 1200000 0.5430 11.9544 5.3611 0.0000 -10633.2879 1437.6787 0.0000 0.0000 1779.4728 -7398.2779 305.7782 -9177.7507 -7399.1060 303.7278 218.4732 211.2398 29457.3809 -30.4234 11.6675
ENERGY: 1500000 1.2387 10.5499 4.1963 0.0000 -10609.6582 1402.7834 0.0000 0.0000 1786.4338 -7404.4561 306.9744 -9190.8899 -7400.7471 303.3762 -293.3057 -231.9269 29642.3238 -87.7388 -41.8548
TCL: Running FEP window   3: Lambda1 0.1    Lambda2 0.15000000000000002 [dLambda 0.05000000000000002]
TCL: Setting parameter firsttimestep to 0
TCL: Setting parameter alchLambda to 0.1
Info: NONBONDED TABLE R-SQUARED SPACING: 0.0625
Info: NONBONDED TABLE SIZE: 705 POINTS
TCL: Setting parameter alchLambda2 to 0.15000000000000002
Info: NONBONDED TABLE R-SQUARED SPACING: 0.0625
Info: NONBONDED TABLE SIZE: 705 POINTS
TCL: Running for 1500000 steps
ETITLE: TS BOND ANGLE DIHED IMPRP ELECT VDW BOUNDARY MISC KINETIC TOTAL TEMP POTENTIAL TOTALAVG TEMPAVG PRESSURE GPRESSURE VOLUME PRESSAVG GPRESSAVG
ENERGY: 0 1.2387 10.5499 4.1963 0.0000 -10609.6596 1405.4754 0.0000 0.0000 1785.5628 -7402.6365 306.8247 -9188.1993 -7402.6365 306.8247 -327.4514 -221.5266 29642.3238 -327.4514 -221.5266
ENERGY: 300000 2.9040 7.7216 5.7924 0.0000 -10653.0041 1460.3499 0.0000 0.0000 1764.0736 -7412.1626 303.1321 -9176.2362 -7394.7781 301.8226 160.5731 135.9315 29823.2107 -154.9251 -109.9286
ENERGY: 600000 1.4045 7.8492 5.7961 0.0000 -10582.3982 1441.4064 0.0000 0.0000 1743.6344 -7382.3076 299.6199 -9125.9420 -7395.2254 302.8274 258.1994 307.3926 29651.7524 -12.6930 37.0275
ENERGY: 900000 1.4157 12.9913 4.4651 0.0000 -10745.7887 1545.5834 0.0000 0.0000 1815.1011 -7366.2321 311.9004 -9181.3332 -7381.9039 304.0345 630.5934 741.2812 30031.3767 16.0111 77.5959
ENERGY: 1200000 0.9814 8.0913 7.0404 0.0000 -10477.2685 1375.0975 0.0000 0.0000 1753.7578 -7332.3001 301.3594 -9086.0579 -7385.7609 303.1484 -261.0654 -222.8790 30079.3064 -2.3608 56.2131
ENERGY: 1500000 0.8921 9.7641 3.8141 0.0000 -10654.9262 1461.7233 0.0000 0.0000 1766.5706 -7412.1621 303.5611 -9178.7327 -7388.2463 303.4992 381.3882 427.0601 29524.9769 15.3659 73.4510
TCL: Running FEP window   4: Lambda1 0.15000000000000002 Lambda2 0.2    [dLambda 0.04999999999999999]
TCL: Setting parameter firsttimestep to 0
TCL: Setting parameter alchLambda to 0.15000000000000002
Info: NONBONDED TABLE R-SQUARED SPACING: 0.0625
Info: NONBONDED TABLE SIZE: 705 POINTS
TCL: Setting parameter alchLambda2 to 0.2
Info: NONBONDED TABLE R-SQUARED SPACING: 0.0625
Info: NONBONDED TABLE SIZE: 705 POINTS
TCL: Running for 1500000 steps
ETITLE: TS BOND ANGLE DIHED IMPRP ELECT VDW BOUNDARY MISC KINETIC TOTAL TEMP POTENTIAL TOTALAVG TEMPAVG PRESSURE GPRESSURE VOLUME PRESSAVG GPRESSAVG
ENERGY: 0 0.8921 9.7641 3.8141 0.0000 -10654.9251 1462.4912 0.0000 0.0000 1765.7029 -7412.2608 303.4120 -9177.9636 -7412.2608 303.4120 353.5699 437.0172 29524.9769 353.5699 437.0172
ENERGY: 300000 1.7254 16.2831 6.5989 0.0000 -10475.5636 1336.7494 0.0000 0.0000 1709.5158 -7404.6910 293.7570 -9114.2068 -7376.8588 303.2517 -739.3260 -707.4025 29925.8603 289.0692 330.8249
ENERGY: 600000 4.9086 8.6387 5.1920 0.0000 -10576.8092 1379.4229 0.0000 0.0000 1739.3635 -7439.2835 298.8860 -9178.6471 -7393.2257 301.2765 -495.4752 -488.1477 30041.0770 94.1893 143.5380
ENERGY: 900000 0.6110 15.4693 4.6640 0.0000 -10582.5579 1394.0498 0.0000 0.0000 1770.7297 -7397.0341 304.2758 -9167.7638 -7397.4165 300.5605 -518.3939 -433.2793 30325.5539 41.6446 85.9981
ENERGY: 1200000 1.7127 13.5058 4.6724 0.0000 -10615.5516 1449.7267 0.0000 0.0000 1768.7870 -7377.1471 303.9420 -9145.9341 -7397.1671 300.9209 230.9909 240.6542 30090.0420 -27.6689 18.4108
ENERGY: 1500000 2.4726 10.4861 3.8502 0.0000 -10501.4794 1303.4017 0.0000 0.0000 1813.5976 -7367.6711 311.6421 -9181.2687 -7396.3399 301.4411 -1304.6912 -1324.8573 30670.7140 -166.6422 -116.9979
TCL: Running FEP window   5: Lambda1 0.2    Lambda2 0.25   [dLambda 0.04999999999999999]
TCL: Setting parameter firsttimestep to 0
TCL: Setting parameter alchLambda to 0.2
Info: NONBONDED TABLE R-SQUARED SPACING: 0.0625
Info: NONBONDED TABLE SIZE: 705 POINTS
TCL: Setting parameter alchLambda2 to 0.25
Info: NONBONDED TABLE R-SQUARED SPACING: 0.0625
Info: NONBONDED TABLE SIZE: 705 POINTS
TCL: Running for 1500000 steps
ETITLE: TS BOND ANGLE DIHED IMPRP ELECT VDW BOUNDARY MISC KINETIC TOTAL TEMP POTENTIAL TOTALAVG TEMPAVG PRESSURE GPRESSURE VOLUME PRESSAVG GPRESSAVG
ENERGY: 0 2.4726 10.4861 3.8502 0.0000 -10501.4810 1305.2546 0.0000 0.0000 1812.7361 -7366.6815 311.4940 -9179.4175 -7366.6815 311.4940 -1404.1894 -1314.6584 30670.7140 -1404.1894 -1314.6584
ENERGY: 300000 0.8374 7.0245 3.4836 0.0000 -10518.7297 1351.0657 0.0000 0.0000 1769.7196 -7386.5990 304.1022 -9156.3186 -7373.1066 305.7792 -570.3808 -563.8512 30022.7933 -572.6302 -521.7645
ENERGY: 600000 1.9966 9.8438 4.3727 0.0000 -10550.4818 1329.7494 0.0000 0.0000 1708.9925 -7495.5268 293.6671 -9204.5194 -7396.9901 302.2682 -1010.2389 -939.5710 30077.2153 -488.2439 -432.2387
ENERGY: 900000 2.8454 11.3300 3.6742 0.0000 -10788.4025 1492.5979 0.0000 0.0000 1766.4474 -7511.5077 303.5400 -9277.9551 -7415.5848 301.2500 460.9267 460.7495 29525.3449 -257.8522 -198.0323
ENERGY: 1200000 2.5298 8.5326 5.1862 0.0000 -10699.0972 1531.4015 0.0000 0.0000 1799.3618 -7352.0853 309.1959 -9151.4471 -7413.4414 301.8598 1081.4102 1199.0140 29297.7885 -64.7278 2.9859
ENERGY: 1500000 7.9034 7.6380 4.2740 0.0000 -10613.6011 1425.4687 0.0000 0.0000 1741.5316 -7426.7855 299.2585 -9168.3171 -7408.7122 301.7167 -419.5685 -410.2447 30215.1599 -76.7723 -10.8543
TCL: Running FEP window   6: Lambda1 0.25   Lambda2 0.3    [dLambda 0.04999999999999999]
TCL: Setting parameter firsttimestep to 0
TCL: Setting parameter alchLambda to 0.25
Info: NONBONDED TABLE R-SQUARED SPACING: 0.0625
Info: NONBONDED TABLE SIZE: 705 POINTS
TCL: Setting parameter alchLambda2 to 0.3
Info: NONBONDED TABLE R-SQUARED SPACING: 0.0625
Info: NONBONDED TABLE SIZE: 705 POINTS
TCL: Running for 1500000 steps
ETITLE: TS BOND ANGLE DIHED IMPRP ELECT VDW BOUNDARY MISC KINETIC TOTAL TEMP POTENTIAL TOTALAVG TEMPAVG PRESSURE GPRESSURE VOLUME PRESSAVG GPRESSAVG
ENERGY: 0 7.9034 7.6380 4.2740 0.0000 -10613.6002 1425.2823 0.0000 0.0000 1740.6932 -7427.8094 299.1144 -9168.5026 -7427.8094 299.1144 -478.3657 -407.7390 30215.1599 -478.3657 -407.7390
ENERGY: 300000 1.1747 6.8892 3.2458 0.0000 -10611.9803 1365.3968 0.0000 0.0000 1740.1086 -7495.1652 299.0140 -9235.2738 -7438.9774 302.1121 -881.2437 -766.2777 30225.5844 -636.0713 -571.5659
ENERGY: 600000 1.1133 9.8531 4.4988 0.0000 -10617.0397 1429.5165 0.0000 0.0000 1673.7649 -7498.2930 287.6137 -9172.0580 -7424.2315 300.2773 -72.5336 -73.7599 29785.5332 -474.8459 -432.9025
ENERGY: 900000 1.9007 12.9041 3.9961 0.0000 -10599.5034 1534.3240 0.0000 0.0000 1808.5905 -7237.7880 310.7817 -9046.3784 -7404.1738 301.1276 1063.0089 1102.2555 29910.6984 -195.3297 -149.0711
ENERGY: 1200000 2.5035 12.9858 4.5960 0.0000 -10449.4284 1354.2466 0.0000 0.0000 1782.3073 -7292.7892 306.2653 -9075.0965 -7395.3348 302.1720 -232.0209 -86.7090 29834.5412 -164.8996 -110.4648
ENERGY: 1500000 1.6353 13.7314 4.3402 0.0000 -10557.4082 1412.3748 0.0000 0.0000 1765.2665 -7360.0601 303.3370 -9125.3266 -7390.9876 302.3789 68.1882 91.7488 29971.0187 -99.3419 -46.6044
TCL: Running FEP window   7: Lambda1 0.3    Lambda2 0.35   [dLambda 0.04999999999999999]
TCL: Setting parameter firsttimestep to 0
TCL: Setting parameter alchLambda to 0.3
Info: NONBONDED TABLE R-SQUARED SPACING: 0.0625
Info: NONBONDED TABLE SIZE: 705 POINTS
TCL: Setting parameter alchLambda2 to 0.35
Info: NONBONDED TABLE R-SQUARED SPACING: 0.0625
Info: NONBONDED TABLE SIZE: 705 POINTS
TCL: Running for 1500000 steps
ETITLE: TS BOND ANGLE DIHED IMPRP ELECT VDW BOUNDARY MISC KINETIC TOTAL TEMP POTENTIAL TOTALAVG TEMPAVG PRESSURE GPRESSURE VOLUME PRESSAVG GPRESSAVG
ENERGY: 0 1.6353 13.7314 4.3402 0.0000 -10557.4061 1413.2192 0.0000 0.0000 1764.3900 -7360.0901 303.1864 -9124.4801 -7360.0901 303.1864 38.3544 104.0433 29971.0187 38.3544 104.0433
ENERGY: 300000 1.9969 16.0782 4.7963 0.0000 -10638.1790 1474.3338 0.0000 0.0000 1736.5761 -7404.3977 298.4070 -9140.9738 -7379.8064 301.4343 685.3396 706.5700 29601.3122 80.4143 127.1827
ENERGY: 600000 2.8693 9.7685 4.3949 0.0000 -10503.0085 1355.5135 0.0000 0.0000 1757.3754 -7373.0870 301.9811 -9130.4624 -7378.5861 301.5226 -242.4741 -152.0315 29741.1186 -4.2705 55.3568
ENERGY: 900000 2.1550 8.6038 4.0868 0.0000 -10588.6072 1433.1312 0.0000 0.0000 1736.2332 -7404.3972 298.3481 -9140.6304 -7373.1019 301.0727 -3.5000 70.7138 30272.1664 -81.8766 -23.4939
ENERGY: 1200000 1.1293 6.9661 3.6311 0.0000 -10574.7681 1426.1721 0.0000 0.0000 1731.1401 -7405.7293 297.4729 -9136.8694 -7371.0861 301.1615 156.2802 199.4586 29968.5716 -41.7684 15.0709
ENERGY: 1500000 2.3867 9.5946 5.1305 0.0000 -10489.9510 1422.8174 0.0000 0.0000 1763.0770 -7286.9448 302.9608 -9050.0217 -7370.0610 300.9996 -43.5305 -6.3283 30546.2445 -78.8689 -25.3038
TCL: Running FEP window   8: Lambda1 0.35   Lambda2 0.39999999999999997 [dLambda 0.04999999999999999]
TCL: Setting parameter firsttimestep to 0
TCL: Setting parameter alchLambda to 0.35
Info: NONBONDED TABLE R-SQUARED SPACING: 0.0625
Info: NONBONDED TABLE SIZE: 705 POINTS
TCL: Setting parameter alchLambda2 to 0.39999999999999997
Info: NONBONDED TABLE R-SQUARED SPACING: 0.0625
Info: NONBONDED TABLE SIZE: 705 POINTS
TCL: Running for 1500000 steps
ETITLE: TS BOND ANGLE DIHED IMPRP ELECT VDW BOUNDARY MISC KINETIC TOTAL TEMP POTENTIAL TOTALAVG TEMPAVG PRESSURE GPRESSURE VOLUME PRESSAVG GPRESSAVG
ENERGY: 0 2.3867 9.5946 5.1305 0.0000 -10489.9507 1422.8198 0.0000 0.0000 1762.1955 -7287.8236 302.8093 -9050.0191 -7287.8236 302.8093 -64.2587 0.6057 30546.2445 -64.2587 0.6057
ENERGY: 300000 0.8952 10.0896 6.2713 0.0000 -10642.0697 1378.4301 0.0000 0.0000 1741.4941 -7504.8895 299.2521 -9246.3836 -7337.1220 301.7966 -756.4686 -669.9359 29964.6012 -159.5466 -80.2080
ENERGY: 600000 1.0954 8.9063 5.0439 0.0000 -10635.7077 1385.8752 0.0000 0.0000 1783.0412 -7451.7458 306.3914 -9234.7870 -7378.3100 299.8940 -418.7920 -308.4384 29678.6920 -209.1536 -136.1721
ENERGY: 900000 1.5110 11.3051 4.1364 0.0000 -10683.4063 1513.6845 0.0000 0.0000 1674.2376 -7478.5316 287.6950 -9152.7692 -7405.3095 299.4834 721.1240 825.8800 29622.8636 -97.8468 -17.0741
ENERGY: 1200000 0.7720 11.9869 5.2643 0.0000 -10651.9690 1448.3765 0.0000 0.0000 1764.4878 -7421.0816 303.2032 -9185.5694 -7397.6851 299.9570 276.7833 363.2511 29744.8570 -115.9834 -37.0815
ENERGY: 1500000 3.0284 9.2638 3.9137 0.0000 -10708.0048 1465.5839 0.0000 0.0000 1734.8281 -7491.3869 298.1066 -9226.2150 -7415.0136 299.2530 118.7362 151.0268 29720.2410 -143.2404 -70.4114
TCL: Running FEP window   9: Lambda1 0.39999999999999997 Lambda2 0.44999999999999996 [dLambda 0.04999999999999999]
TCL: Setting parameter firsttimestep to 0
TCL: Setting parameter alchLambda to 0.39999999999999997
Info: NONBONDED TABLE R-SQUARED SPACING: 0.0625
Info: NONBONDED TABLE SIZE: 705 POINTS
TCL: Setting parameter alchLambda2 to 0.44999999999999996
Info: NONBONDED TABLE R-SQUARED SPACING: 0.0625
Info: NONBONDED TABLE SIZE: 705 POINTS
TCL: Running for 1500000 steps
ETITLE: TS BOND ANGLE DIHED IMPRP ELECT VDW BOUNDARY MISC KINETIC TOTAL TEMP POTENTIAL TOTALAVG TEMPAVG PRESSURE GPRESSURE VOLUME PRESSAVG GPRESSAVG
ENERGY: 0 3.0284 9.2638 3.9137 0.0000 -10708.0057 1465.7774 0.0000 0.0000 1733.9869 -7492.0355 297.9621 -9226.0224 -7492.0355 297.9621 73.7883 155.1336 29720.2410 73.7883 155.1336
ENERGY: 300000 0.2625 9.0390 6.6407 0.0000 -10600.4499 1415.9929 0.0000 0.0000 1677.2201 -7491.2949 288.2075 -9168.5149 -7423.0840 298.7335 109.3204 152.6797 29484.1985 -60.0832 -8.6547
ENERGY: 600000 0.6967 9.4864 5.5232 0.0000 -10455.1115 1345.2832 0.0000 0.0000 1771.2488 -7322.8733 304.3650 -9094.1221 -7422.1269 298.9380 -517.1047 -435.2608 30042.1820 -389.0895 -337.8440
ENERGY: 900000 3.6250 13.4319 5.0987 0.0000 -10609.2658 1466.8000 0.0000 0.0000 1798.9393 -7321.3709 309.1232 -9120.3101 -7395.3038 300.6598 255.4828 323.7766 29916.4703 -255.7039 -196.4586
ENERGY: 1200000 1.4320 11.1793 7.2326 0.0000 -10612.6659 1490.2374 0.0000 0.0000 1713.3783 -7389.2062 294.4208 -9102.5845 -7384.2018 300.8117 360.8655 400.1126 30561.2373 -184.9718 -128.2405
ENERGY: 1500000 1.0531 7.8792 3.5352 0.0000 -10479.4278 1374.5884 0.0000 0.0000 1729.5262 -7362.8458 297.1955 -9092.3719 -7392.7138 299.8506 -167.1792 -173.9754 29688.2740 -170.3538 -116.1258
TCL: Running FEP window  10: Lambda1 0.44999999999999996 Lambda2 0.49999999999999994 [dLambda 0.04999999999999999]
TCL: Setting parameter firsttimestep to 0
TCL: Setting parameter alchLambda to 0.44999999999999996
Info: NONBONDED TABLE R-SQUARED SPACING: 0.0625
Info: NONBONDED TABLE SIZE: 705 POINTS
TCL: Setting parameter alchLambda2 to 0.49999999999999994
Info: NONBONDED TABLE R-SQUARED SPACING: 0.0625
Info: NONBONDED TABLE SIZE: 705 POINTS
TCL: Running for 1500000 steps
ETITLE: TS BOND ANGLE DIHED IMPRP ELECT VDW BOUNDARY MISC KINETIC TOTAL TEMP POTENTIAL TOTALAVG TEMPAVG PRESSURE GPRESSURE VOLUME PRESSAVG GPRESSAVG
ENERGY: 0 1.0531 7.8792 3.5352 0.0000 -10479.4282 1375.5794 0.0000 0.0000 1728.6287 -7362.7526 297.0413 -9091.3814 -7362.7526 297.0413 -236.4021 -158.6375 29688.2740 -236.4021 -158.6375
ENERGY: 300000 1.3865 6.7169 4.6938 0.0000 -10579.3840 1396.0737 0.0000 0.0000 1731.4373 -7439.0759 297.5239 -9170.5131 -7395.7207 298.2322 -254.0760 -238.3374 30173.4086 -60.0015 -23.7077
ENERGY: 600000 0.9651 9.4684 4.0808 0.0000 -10626.4045 1416.8050 0.0000 0.0000 1827.9644 -7367.1209 314.1108 -9195.0853 -7396.4141 301.4329 12.5178 176.6801 29433.7095 -28.5548 41.3418
ENERGY: 900000 0.3756 10.7207 4.2070 0.0000 -10549.6432 1406.5877 0.0000 0.0000 1748.2862 -7379.4661 300.4192 -9127.7522 -7395.8625 301.6425 74.0912 121.7103 29809.4315 -17.9683 46.7525
ENERGY: 1200000 2.7093 9.7993 5.3981 0.0000 -10527.2450 1433.3695 0.0000 0.0000 1716.5047 -7359.4639 294.9580 -9075.9687 -7393.6943 301.1881 98.1291 174.9698 30152.5561 -33.7062 36.4361
ENERGY: 1500000 0.3584 8.7999 4.1525 0.0000 -10562.6671 1457.4819 0.0000 0.0000 1792.6114 -7299.2630 308.0359 -9091.8744 -7393.9733 300.9434 265.6460 330.7198 30253.1291 -2.9610 61.4359
TCL: Running FEP window  11: Lambda1 0.49999999999999994 Lambda2 0.5499999999999999 [dLambda 0.04999999999999999]
TCL: Setting parameter firsttimestep to 0
TCL: Setting parameter alchLambda to 0.49999999999999994
Info: NONBONDED TABLE R-SQUARED SPACING: 0.0625
Info: NONBONDED TABLE SIZE: 705 POINTS
TCL: Setting parameter alchLambda2 to 0.5499999999999999
Info: NONBONDED TABLE R-SQUARED SPACING: 0.0625
Info: NONBONDED TABLE SIZE: 705 POINTS
TCL: Running for 1500000 steps
ETITLE: TS BOND ANGLE DIHED IMPRP ELECT VDW BOUNDARY MISC KINETIC TOTAL TEMP POTENTIAL TOTALAVG TEMPAVG PRESSURE GPRESSURE VOLUME PRESSAVG GPRESSAVG
ENERGY: 0 0.3584 8.7999 4.1525 0.0000 -10562.6673 1457.6968 0.0000 0.0000 1791.7697 -7299.8900 307.8913 -9091.6597 -7299.8900 307.8913 258.1870 339.2971 30253.1291 258.1870 339.2971
ENERGY: 300000 0.7781 7.5885 5.7861 0.0000 -10545.6610 1367.9368 0.0000 0.0000 1733.0916 -7430.4799 297.8082 -9163.5715 -7389.3892 303.6191 -557.5051 -529.9927 30251.7100 127.7720 196.1277
ENERGY: 600000 1.4292 9.4837 6.0637 0.0000 -10464.8851 1358.9635 0.0000 0.0000 1806.6371 -7282.3078 310.4460 -9088.9450 -7397.2812 301.5379 -290.7848 -228.9535 29964.6772 -105.0668 -44.6705
ENERGY: 900000 0.8359 11.4405 6.3601 0.0000 -10650.9932 1459.4726 0.0000 0.0000 1730.2992 -7442.5849 297.3284 -9172.8841 -7395.4584 301.3065 369.3501 461.9351 29706.5204 -28.0543 30.6576
ENERGY: 1200000 2.3009 9.0912 3.9751 0.0000 -10626.2431 1492.6200 0.0000 0.0000 1781.9495 -7336.3064 306.2038 -9118.2559 -7389.5569 301.2344 476.5912 497.2304 30194.1056 14.2325 65.9670
ENERGY: 1500000 4.6296 9.5640 5.7875 0.0000 -10595.4130 1388.6341 0.0000 0.0000 1738.0190 -7448.7788 298.6549 -9186.7979 -7388.0905 300.3188 -701.2542 -615.5557 30140.0109 -28.9159 22.3358
TCL: Running FEP window  12: Lambda1 0.5499999999999999 Lambda2 0.6    [dLambda 0.050000000000000044]
TCL: Setting parameter firsttimestep to 0
TCL: Setting parameter alchLambda to 0.5499999999999999
Info: NONBONDED TABLE R-SQUARED SPACING: 0.0625
Info: NONBONDED TABLE SIZE: 705 POINTS
TCL: Setting parameter alchLambda2 to 0.6
Info: NONBONDED TABLE R-SQUARED SPACING: 0.0625
Info: NONBONDED TABLE SIZE: 705 POINTS
TCL: Running for 1500000 steps
ETITLE: TS BOND ANGLE DIHED IMPRP ELECT VDW BOUNDARY MISC KINETIC TOTAL TEMP POTENTIAL TOTALAVG TEMPAVG PRESSURE GPRESSURE VOLUME PRESSAVG GPRESSAVG
ENERGY: 0 4.6296 9.5640 5.7875 0.0000 -10595.6734 1387.9963 0.0000 0.0000 1737.1473 -7450.5488 298.5051 -9187.6961 -7450.5488 298.5051 -686.7242 -617.0056 30140.0109 -686.7242 -617.0056
ENERGY: 300000 2.2625 8.8308 5.0171 0.0000 -10575.0300 1410.9945 0.0000 0.0000 1787.2807 -7360.6444 307.1199 -9147.9251 -7401.4924 300.3290 -125.3295 -119.3885 30159.5040 -354.8096 -306.1352
ENERGY: 600000 0.6298 8.6028 6.8077 0.0000 -10493.3403 1336.8444 0.0000 0.0000 1782.5882 -7357.8674 306.3135 -9140.4556 -7390.4716 301.6332 -893.0858 -799.9552 30279.2997 -331.5609 -274.8108
ENERGY: 900000 1.0059 11.7179 5.3437 0.0000 -10526.6854 1392.4386 0.0000 0.0000 1732.8884 -7383.2909 297.7733 -9116.1793 -7391.7557 301.2911 31.3914 66.1835 29586.0208 -257.6707 -199.5587
ENERGY: 1200000 2.2616 9.4688 4.0297 0.0000 -10542.6089 1311.0752 0.0000 0.0000 1761.4446 -7454.3290 302.6803 -9215.7736 -7397.5166 301.1544 -1227.1300 -1117.1469 30083.9156 -386.5229 -321.8948
ENERGY: 1500000 1.8093 12.2452 5.8018 0.0000 -10558.7734 1366.1951 0.0000 0.0000 1723.4134 -7449.3087 296.1451 -9172.7220 -7403.5057 300.2785 -428.4680 -334.7640 29634.7436 -298.1160 -236.9160
TCL: Running FEP window  13: Lambda1 0.6    Lambda2 0.65   [dLambda 0.050000000000000044]
TCL: Setting parameter firsttimestep to 0
TCL: Setting parameter alchLambda to 0.6
Info: NONBONDED TABLE R-SQUARED SPACING: 0.0625
Info: NONBONDED TABLE SIZE: 705 POINTS
TCL: Setting parameter alchLambda2 to 0.65
Info: NONBONDED TABLE R-SQUARED SPACING: 0.0625
Info: NONBONDED TABLE SIZE: 705 POINTS
TCL: Running for 1500000 steps
ETITLE: TS BOND ANGLE DIHED IMPRP ELECT VDW BOUNDARY MISC KINETIC TOTAL TEMP POTENTIAL TOTALAVG TEMPAVG PRESSURE GPRESSURE VOLUME PRESSAVG GPRESSAVG
ENERGY: 0 1.8093 12.2452 5.8018 0.0000 -10559.6084 1367.1113 0.0000 0.0000 1722.4928 -7450.1481 295.9870 -9172.6409 -7450.1481 295.9870 -414.0807 -318.4334 29634.7436 -414.0807 -318.4334
ENERGY: 300000 0.8289 9.1166 5.5787 0.0000 -10567.9146 1472.5125 0.0000 0.0000 1744.9736 -7334.9043 299.8500 -9079.8779 -7392.3887 297.9590 640.8621 661.0333 29937.3778 52.6833 99.9160
ENERGY: 600000 1.1003 7.1708 5.0723 0.0000 -10686.2274 1472.7990 0.0000 0.0000 1748.1224 -7451.9626 300.3911 -9200.0850 -7414.8066 298.2719 263.6356 246.3982 29767.1643 61.7825 95.2827
ENERGY: 900000 5.9753 7.1238 3.9668 0.0000 -10493.2625 1390.9518 0.0000 0.0000 1738.7891 -7346.4557 298.7873 -9085.2448 -7390.7531 298.2847 -488.0613 -355.6890 30379.3566 -76.7590 -35.0035
ENERGY: 1200000 2.4385 13.3660 4.4134 0.0000 -10479.4613 1338.0887 0.0000 0.0000 1723.0731 -7398.0816 296.0867 -9121.1547 -7380.7005 299.2783 -871.7533 -721.5521 30192.6097 -49.0005 7.4492
ENERGY: 1500000 4.3042 15.8765 3.8648 0.0000 -10534.5546 1440.0661 0.0000 0.0000 1778.3798 -7292.0631 305.5904 -9070.4430 -7375.8172 299.4669 55.9284 130.1059 30435.5951 -81.0545 -21.4134
TCL: Running FEP window  14: Lambda1 0.65   Lambda2 0.7000000000000001 [dLambda 0.050000000000000044]
TCL: Setting parameter firsttimestep to 0
TCL: Setting parameter alchLambda to 0.65
Info: NONBONDED TABLE R-SQUARED SPACING: 0.0625
Info: NONBONDED TABLE SIZE: 705 POINTS
TCL: Setting parameter alchLambda2 to 0.7000000000000001
Info: NONBONDED TABLE R-SQUARED SPACING: 0.0625
Info: NONBONDED TABLE SIZE: 705 POINTS
TCL: Running for 1500000 steps
ETITLE: TS BOND ANGLE DIHED IMPRP ELECT VDW BOUNDARY MISC KINETIC TOTAL TEMP POTENTIAL TOTALAVG TEMPAVG PRESSURE GPRESSURE VOLUME PRESSAVG GPRESSAVG
ENERGY: 0 4.3042 15.8765 3.8648 0.0000 -10535.0417 1441.2128 0.0000 0.0000 1777.4853 -7292.2981 305.4367 -9069.7834 -7292.2981 305.4367 61.1104 141.9062 30435.5951 61.1104 141.9062
ENERGY: 300000 1.2187 7.4484 4.7014 0.0000 -10658.7754 1494.3979 0.0000 0.0000 1763.6551 -7387.3538 303.0601 -9151.0089 -7381.2349 303.1916 667.5315 780.6158 29735.8349 158.4222 258.9548
ENERGY: 600000 0.9439 5.6717 4.0062 0.0000 -10492.5366 1376.0997 0.0000 0.0000 1760.8431 -7344.9720 302.5769 -9105.8151 -7363.3165 304.3952 -105.9868 -98.8381 30064.2245 -94.9032 -12.7635
ENERGY: 900000 1.7053 7.7524 7.1409 0.0000 -10569.6743 1440.1713 0.0000 0.0000 1730.8109 -7382.0935 297.4163 -9112.9045 -7359.8684 304.2925 346.6768 374.6016 29861.6217 -19.0843 51.0025
ENERGY: 1200000 2.4207 14.7078 3.7872 0.0000 -10655.3732 1471.2483 0.0000 0.0000 1746.4044 -7416.8048 300.0958 -9163.2092 -7381.0875 302.6258 346.2966 373.9662 29829.9241 -37.7964 31.9250
ENERGY: 1500000 3.0775 12.4586 4.6816 0.0000 -10559.5109 1370.8339 0.0000 0.0000 1725.5022 -7442.9571 296.5041 -9168.4594 -7389.7125 301.9323 -501.6968 -401.6475 29951.4638 -93.1377 -27.5172
TCL: Running FEP window  15: Lambda1 0.7000000000000001 Lambda2 0.7500000000000001 [dLambda 0.050000000000000044]
TCL: Setting parameter firsttimestep to 0
TCL: Setting parameter alchLambda to 0.7000000000000001
Info: NONBONDED TABLE R-SQUARED SPACING: 0.0625
Info: NONBONDED TABLE SIZE: 705 POINTS
TCL: Setting parameter alchLambda2 to 0.7500000000000001
Info: NONBONDED TABLE R-SQUARED SPACING: 0.0625
Info: NONBONDED TABLE SIZE: 705 POINTS
TCL: Running for 1500000 steps
ETITLE: TS BOND ANGLE DIHED IMPRP ELECT VDW BOUNDARY MISC KINETIC TOTAL TEMP POTENTIAL TOTALAVG TEMPAVG PRESSURE GPRESSURE VOLUME PRESSAVG GPRESSAVG
ENERGY: 0 3.0775 12.4586 4.6816 0.0000 -10561.6412 1372.3256 0.0000 0.0000 1724.6259 -7444.4721 296.3535 -9169.0979 -7444.4721 296.3535 -470.0386 -382.6214 29951.4638 -470.0386 -382.6214
ENERGY: 300000 4.7212 9.9790 3.6886 0.0000 -10668.6958 1560.6273 0.0000 0.0000 1792.5661 -7297.1136 308.0281 -9089.6797 -7401.0078 300.5007 990.0960 1030.6068 30261.2390 120.4302 153.6236
ENERGY: 600000 1.8392 8.1379 4.8699 0.0000 -10509.6352 1401.5935 0.0000 0.0000 1725.5974 -7367.5972 296.5204 -9093.1946 -7423.3514 298.9284 150.0398 195.3942 29855.0239 299.2943 343.9473
ENERGY: 900000 1.2020 9.7807 4.1384 0.0000 -10562.5684 1456.7843 0.0000 0.0000 1728.3468 -7362.3162 296.9929 -9090.6630 -7402.5284 299.4451 111.3834 138.3306 30656.7702 137.9145 172.5628
ENERGY: 1200000 2.1038 11.4642 5.7667 0.0000 -10718.0270 1507.7092 0.0000 0.0000 1756.2686 -7434.7144 301.7909 -9190.9830 -7400.1500 300.1473 442.2739 545.3548 29950.2575 254.6760 296.1222
ENERGY: 1500000 1.7230 11.3263 3.4663 0.0000 -10499.5336 1375.3820 0.0000 0.0000 1742.9438 -7364.6921 299.5012 -9107.6358 -7397.3131 299.9129 -304.7785 -300.7088 30134.6693 192.2006 237.6066
TCL: Running FEP window  16: Lambda1 0.7500000000000001 Lambda2 0.8000000000000002 [dLambda 0.050000000000000044]
TCL: Setting parameter firsttimestep to 0
TCL: Setting parameter alchLambda to 0.7500000000000001
Info: NONBONDED TABLE R-SQUARED SPACING: 0.0625
Info: NONBONDED TABLE SIZE: 705 POINTS
TCL: Setting parameter alchLambda2 to 0.8000000000000002
Info: NONBONDED TABLE R-SQUARED SPACING: 0.0625
Info: NONBONDED TABLE SIZE: 705 POINTS
TCL: Running for 1500000 steps
ETITLE: TS BOND ANGLE DIHED IMPRP ELECT VDW BOUNDARY MISC KINETIC TOTAL TEMP POTENTIAL TOTALAVG TEMPAVG PRESSURE GPRESSURE VOLUME PRESSAVG GPRESSAVG
ENERGY: 0 1.7230 11.3263 3.4663 0.0000 -10500.4698 1375.5241 0.0000 0.0000 1742.0974 -7366.3327 299.3557 -9108.4301 -7366.3327 299.3557 -376.3224 -292.2252 30134.6693 -376.3224 -292.2252
ENERGY: 300000 1.3660 10.6970 3.5208 0.0000 -10401.0918 1356.9585 0.0000 0.0000 1752.8137 -7275.7359 301.1972 -9028.5496 -7377.5574 299.2610 -336.1656 -272.7778 30344.4900 28.7938 105.5355
ENERGY: 600000 1.1528 8.5796 5.3416 0.0000 -10561.1846 1404.3430 0.0000 0.0000 1724.3803 -7417.3873 296.3113 -9141.7675 -7359.6881 299.5664 -218.2006 -127.6516 30097.0330 -140.7808 -63.5753
ENERGY: 900000 0.2236 8.5346 5.0229 0.0000 -10481.7117 1306.6511 0.0000 0.0000 1731.1029 -7430.1766 297.4665 -9161.2795 -7377.4848 301.3054 -855.2948 -764.7398 30074.0502 -177.8078 -102.2655
ENERGY: 1200000 1.6575 8.8526 4.3812 0.0000 -10633.1614 1502.4499 0.0000 0.0000 1734.1895 -7381.6306 297.9969 -9115.8202 -7392.0433 299.9720 750.4954 829.3098 29947.4145 -109.7488 -35.3248
ENERGY: 1500000 4.3651 7.6117 5.1317 0.0000 -10464.5584 1346.3862 0.0000 0.0000 1783.2478 -7317.8159 306.4269 -9101.0637 -7385.0222 301.1807 -688.3420 -658.3383 30319.3011 -184.5227 -113.5692
TCL: Running FEP window  17: Lambda1 0.8000000000000002 Lambda2 0.8500000000000002 [dLambda 0.050000000000000044]
TCL: Setting parameter firsttimestep to 0
TCL: Setting parameter alchLambda to 0.8000000000000002
Info: NONBONDED TABLE R-SQUARED SPACING: 0.0625
Info: NONBONDED TABLE SIZE: 705 POINTS
TCL: Setting parameter alchLambda2 to 0.8500000000000002
Info: NONBONDED TABLE R-SQUARED SPACING: 0.0625
Info: NONBONDED TABLE SIZE: 705 POINTS
TCL: Running for 1500000 steps
ETITLE: TS BOND ANGLE DIHED IMPRP ELECT VDW BOUNDARY MISC KINETIC TOTAL TEMP POTENTIAL TOTALAVG TEMPAVG PRESSURE GPRESSURE VOLUME PRESSAVG GPRESSAVG
ENERGY: 0 4.3651 7.6117 5.1317 0.0000 -10466.4110 1348.5831 0.0000 0.0000 1782.3681 -7318.3513 306.2757 -9100.7194 -7318.3513 306.2757 -709.6127 -631.6376 30319.3011 -709.6127 -631.6376
ENERGY: 300000 1.3059 12.7843 4.8766 0.0000 -10517.6543 1385.1816 0.0000 0.0000 1731.6949 -7381.8111 297.5682 -9113.5060 -7420.1259 299.8261 -402.1816 -254.8683 30494.7390 -209.5130 -138.5282
ENERGY: 600000 2.2478 10.1451 4.7019 0.0000 -10467.2288 1402.2789 0.0000 0.0000 1732.8138 -7315.0414 297.7605 -9047.8552 -7419.1083 298.6855 60.5900 121.1479 30400.5239 -56.7474 8.8190
ENERGY: 900000 5.9837 10.8886 4.7954 0.0000 -10582.4208 1369.4631 0.0000 0.0000 1778.7618 -7412.5282 305.6560 -9191.2900 -7395.0136 301.3115 -842.1118 -747.8841 30328.3008 -159.2517 -95.4684
ENERGY: 1200000 1.6436 12.1369 3.6845 0.0000 -10593.2714 1463.1129 0.0000 0.0000 1735.2267 -7377.4668 298.1751 -9112.6934 -7407.9964 299.9092 434.2467 438.3780 30000.4457 -135.5541 -87.0084
ENERGY: 1500000 2.4057 16.9892 6.2544 0.0000 -10601.7048 1483.4671 0.0000 0.0000 1760.3325 -7332.2559 302.4892 -9092.5884 -7391.4510 301.2330 725.2261 776.6857 30025.3571 -104.3635 -51.8884
TCL: Running FEP window  18: Lambda1 0.8500000000000002 Lambda2 0.9000000000000002 [dLambda 0.050000000000000044]
TCL: Setting parameter firsttimestep to 0
TCL: Setting parameter alchLambda to 0.8500000000000002
Info: NONBONDED TABLE R-SQUARED SPACING: 0.0625
Info: NONBONDED TABLE SIZE: 705 POINTS
TCL: Setting parameter alchLambda2 to 0.9000000000000002
Info: NONBONDED TABLE R-SQUARED SPACING: 0.0625
Info: NONBONDED TABLE SIZE: 705 POINTS
TCL: Running for 1500000 steps
ETITLE: TS BOND ANGLE DIHED IMPRP ELECT VDW BOUNDARY MISC KINETIC TOTAL TEMP POTENTIAL TOTALAVG TEMPAVG PRESSURE GPRESSURE VOLUME PRESSAVG GPRESSAVG
ENERGY: 0 2.4057 16.9892 6.2544 0.0000 -10602.5856 1484.5014 0.0000 0.0000 1759.4520 -7332.9829 302.3379 -9092.4349 -7332.9829 302.3379 728.8231 796.6636 30025.3571 728.8231 796.6636
ENERGY: 300000 2.5917 14.8760 5.4762 0.0000 -10527.3027 1427.0020 0.0000 0.0000 1740.5488 -7336.8081 299.0896 -9077.3568 -7390.3248 301.2616 -354.5710 -261.9762 30832.4826 143.6190 220.1884
ENERGY: 600000 2.3279 9.7364 5.4538 0.0000 -10569.4891 1391.8831 0.0000 0.0000 1745.1585 -7414.9293 299.8818 -9160.0879 -7385.3422 300.6282 -216.8127 -107.8927 29886.6054 161.4478 255.1753
ENERGY: 900000 2.1193 14.1314 3.6048 0.0000 -10507.3264 1384.1599 0.0000 0.0000 1726.4458 -7376.8652 296.6662 -9103.3110 -7396.0226 300.1717 -218.8751 -156.4935 30048.5547 -5.0198 76.6348
ENERGY: 1200000 4.4724 9.0054 5.3988 0.0000 -10554.8967 1385.6556 0.0000 0.0000 1764.4030 -7385.9615 303.1887 -9150.3645 -7387.7167 300.7986 -319.4362 -280.2928 30093.1760 -131.4492 -57.1820
ENERGY: 1500000 3.2504 15.4756 4.6680 0.0000 -10544.4451 1384.0570 0.0000 0.0000 1769.4031 -7367.5911 304.0479 -9136.9942 -7394.7110 299.9774 14.8270 62.9172 29972.6205 5.2982 79.8159
TCL: Running FEP window  19: Lambda1 0.9000000000000002 Lambda2 0.9500000000000003 [dLambda 0.050000000000000044]
TCL: Setting parameter firsttimestep to 0
TCL: Setting parameter alchLambda to 0.9000000000000002
Info: NONBONDED TABLE R-SQUARED SPACING: 0.0625
Info: NONBONDED TABLE SIZE: 705 POINTS
TCL: Setting parameter alchLambda2 to 0.9500000000000003
Info: NONBONDED TABLE R-SQUARED SPACING: 0.0625
Info: NONBONDED TABLE SIZE: 705 POINTS
TCL: Running for 1500000 steps
ETITLE: TS BOND ANGLE DIHED IMPRP ELECT VDW BOUNDARY MISC KINETIC TOTAL TEMP POTENTIAL TOTALAVG TEMPAVG PRESSURE GPRESSURE VOLUME PRESSAVG GPRESSAVG
ENERGY: 0 3.2504 15.4756 4.6680 0.0000 -10545.5626 1385.0098 0.0000 0.0000 1768.5042 -7368.6546 303.8934 -9137.1588 -7368.6546 303.8934 13.0391 87.0515 29972.6205 13.0391 87.0515
ENERGY: 300000 1.6088 10.7065 4.8448 0.0000 -10519.4040 1401.6429 0.0000 0.0000 1775.0552 -7325.5457 305.0191 -9100.6009 -7352.9086 304.3540 -103.2137 -52.5784 30487.5708 -300.6100 -245.6712
ENERGY: 600000 1.6299 10.1462 4.1452 0.0000 -10508.4345 1384.9275 0.0000 0.0000 1797.9741 -7309.6115 308.9574 -9107.5856 -7348.8688 305.6359 -118.9279 -33.9839 30125.9975 -149.0892 -96.6480
ENERGY: 900000 0.0933 7.3571 5.7544 0.0000 -10598.0257 1432.3918 0.0000 0.0000 1722.3711 -7430.0579 295.9660 -9152.4289 -7372.5561 303.6980 271.2883 288.8202 29874.5263 -84.6682 -35.2109
ENERGY: 1200000 0.7693 12.2614 4.8046 0.0000 -10625.8533 1439.8844 0.0000 0.0000 1720.9475 -7447.1860 295.7214 -9168.1336 -7378.1130 302.1130 -21.1040 32.4652 30373.8028 -24.8387 27.5088
ENERGY: 1500000 3.1192 13.8410 4.3118 0.0000 -10563.3061 1387.2662 0.0000 0.0000 1738.2286 -7416.5393 298.6909 -9154.7679 -7381.6848 301.9749 -192.0585 -81.5474 29875.2355 -118.2565 -59.8327
TCL: Running FEP window  20: Lambda1 0.9500000000000003 Lambda2 1.0    [dLambda 0.04999999999999971]
TCL: Setting parameter firsttimestep to 0
TCL: Setting parameter alchLambda to 0.9500000000000003
Info: NONBONDED TABLE R-SQUARED SPACING: 0.0625
Info: NONBONDED TABLE SIZE: 705 POINTS
TCL: Setting parameter alchLambda2 to 1.0
Info: NONBONDED TABLE R-SQUARED SPACING: 0.0625
Info: NONBONDED TABLE SIZE: 705 POINTS
TCL: Running for 1500000 steps
ETITLE: TS BOND ANGLE DIHED IMPRP ELECT VDW BOUNDARY MISC KINETIC TOTAL TEMP POTENTIAL TOTALAVG TEMPAVG PRESSURE GPRESSURE VOLUME PRESSAVG GPRESSAVG
ENERGY: 0 3.1192 13.8410 4.3118 0.0000 -10564.7715 1388.1886 0.0000 0.0000 1737.3864 -7417.9244 298.5462 -9155.3108 -7417.9244 298.5462 -150.7337 -58.9652 29875.2355 -150.7337 -58.9652
ENERGY: 300000 2.3072 6.4488 4.3959 0.0000 -10569.4054 1403.1192 0.0000 0.0000 1724.8472 -7428.2872 296.3915 -9153.1343 -7401.6042 298.8297 -374.8447 -307.5469 30489.3867 -197.2836 -106.6443
ENERGY: 600000 2.4702 10.8984 3.6144 0.0000 -10569.9011 1366.0491 0.0000 0.0000 1696.3222 -7490.5467 291.4899 -9186.8690 -7422.0482 297.8766 -376.9050 -365.4729 29972.6600 -302.6740 -229.0564
ENERGY: 900000 1.8427 8.7139 4.2959 0.0000 -10640.9718 1409.6411 0.0000 0.0000 1766.1427 -7450.3355 303.4876 -9216.4782 -7424.3615 299.2877 -79.5529 22.6873 29695.5104 -143.8758 -62.1164
ENERGY: 1200000 3.4154 9.6887 4.2967 0.0000 -10591.1389 1384.8307 0.0000 0.0000 1769.8920 -7419.0154 304.1319 -9188.9074 -7425.1864 299.7383 -305.3772 -280.7090 30153.9386 -109.7210 -35.4939
ENERGY: 1500000 1.4952 6.4137 5.1362 0.0000 -10629.8338 1439.0886 0.0000 0.0000 1754.7309 -7422.9692 301.5266 -9177.7001 -7428.9096 298.7508 -46.0018 87.4099 30322.1260 -108.6830 -37.5399
TCL: Exiting due to exit command.
