Info: SIMULATION PARAMETERS:
Info: TIMESTEP               2
Info: NUMBER OF STEPS        0
Info: STEPS PER CYCLE        10
Info: PERIODIC CELL BASIS 1  32.3651 0 0
Info: PERIODIC CELL BASIS 2  0 30.3025 0
Info: PERIODIC CELL BASIS 3  0 0 31.5266
Info: PERIODIC CELL CENTER   0 0 0
Info: WRAPPING WATERS AROUND PERIODIC BOUNDARIES ON OUTPUT.
Info: WRAPPING ALL CLUSTERS AROUND PERIODIC BOUNDARIES ON OUTPUT.
Info: FIRST LDB TIMESTEP     50
Info: LAST LDB TIMESTEP     -1
Info: HOM BACKGROUND SCALING 1
Info: PME BACKGROUND SCALING 1
Info: MIN ATOMS PER PATCH    40
Info: EMPTY PATCH LOAD       40 ATOMS
Info: VELOCITY FILE          mobley_8668219_equil.vel
Info: CENTER OF MASS MOVING INITIALLY? NO
Info: DIELECTRIC             1
Info: EXCLUDE                SCALED ONE-FOUR
Info: 1-4 ELECTROSTATICS SCALED BY 0.833333
Info: MODIFIED 1-4 VDW PARAMETERS WILL BE USED
Info: DCD FILENAME           mobley_8668219_prod.dcd
Info: DCD FREQUENCY          100000
Info: DCD FIRST STEP         100000
Info: DCD FILE WILL CONTAIN UNIT CELL DATA
Info: XST FILENAME           mobley_8668219_prod.xst
Info: XST FREQUENCY          100000
Info: NO VELOCITY DCD OUTPUT
Info: NO FORCE DCD OUTPUT
Info: OUTPUT FILENAME        mobley_8668219_prod
Info: BINARY OUTPUT FILES WILL BE USED
Info: RESTART FILENAME       mobley_8668219_prod.restart
Info: RESTART FREQUENCY      100000
Info: BINARY RESTART FILES WILL BE USED
Info: CUTOFF                 9
Info: PAIRLIST DISTANCE      11
Info: PAIRLIST SHRINK RATE   0.01
Info: PAIRLIST GROW RATE     0.01
Info: PAIRLIST TRIGGER       0.3
Info: PAIRLISTS PER CYCLE    2
Info: PAIRLISTS ENABLED
Info: MARGIN                 2
Info: HYDROGEN GROUP CUTOFF  2.5
Info: PATCH DIMENSION        15.5
Info: ENERGY OUTPUT STEPS    100000
Info: ENERGY EVALUATION STEPS    100000
Info: OUTPUT ENERGY PRECISION 4
Info: CROSSTERM ENERGY INCLUDED IN DIHEDRAL
Info: TIMING OUTPUT STEPS    1000000
Info: PRESSURE OUTPUT STEPS  100000
Info: ALCHEMICAL FEP ON
Info: FEP CURRENT LAMBDA VALUE     0
Info: FEP COMPARISON LAMBDA VALUE  0.05
Info: FEP INTRA-ALCHEMICAL NON-BONDED INTERACTIONS WILL BE RETAINED
Info: FEP INTRA-ALCHEMICAL BONDED INTERACTIONS WILL BE RETAINED
Info: FEP VDW SHIFTING COEFFICIENT 5
Info: FEP ELEC. ACTIVE FOR ANNIHILATED PARTICLES BETWEEN LAMBDA = 0 AND LAMBDA = 0.5
Info: FEP ELEC. ACTIVE FOR EXNIHILATED PARTICLES BETWEEN LAMBDA = 0.5 AND LAMBDA = 1
Info: FEP VDW ACTIVE FOR ANNIHILATED PARTICLES BETWEEN LAMBDA = 0 AND LAMBDA = 1
Info: FEP VDW ACTIVE FOR EXNIHILATED PARTICLES BETWEEN LAMBDA = 0 AND LAMBDA = 1
Info: FEP BOND ACTIVE FOR ANNIHILATED PARTICLES BETWEEN LAMBDA = 1 AND LAMBDA = 1
Info: FEP BOND ACTIVE FOR EXNIHILATED PARTICLES BETWEEN LAMBDA = 0 AND LAMBDA = 0
Info: LANGEVIN DYNAMICS ACTIVE
Info: LANGEVIN TEMPERATURE   300
Info: LANGEVIN USING BBK INTEGRATOR
Info: LANGEVIN DAMPING COEFFICIENT IS 1 INVERSE PS
Info: LANGEVIN DYNAMICS APPLIED TO HYDROGENS
Info: LANGEVIN PISTON PRESSURE CONTROL ACTIVE
Info:        TARGET PRESSURE IS 1.01325 BAR
Info:     OSCILLATION PERIOD IS 50 FS
Info:             DECAY TIME IS 25 FS
Info:     PISTON TEMPERATURE IS 300 K
Info:       PRESSURE CONTROL IS GROUP-BASED
Info:    INITIAL STRAIN RATE IS 4.21991e-05 4.21991e-05 4.21991e-05
Info:       CELL FLUCTUATION IS ISOTROPIC
Info: PARTICLE MESH EWALD (PME) ACTIVE
Info: PME TOLERANCE               1e-06
Info: PME EWALD COEFFICIENT       0.348832
Info: PME INTERPOLATION ORDER     4
Info: PME GRID DIMENSIONS         36 32 32
Info: PME MAXIMUM GRID SPACING    1
Info: PME CALCULATION WILL BE PERFORMED ON GPU
Info: FULL ELECTROSTATIC EVALUATION FREQUENCY      2
Info: USING VERLET I (r-RESPA) MTS SCHEME.
Info: C1 SPLITTING OF LONG RANGE ELECTROSTATICS
Info: PLACING ATOMS IN PATCHES BY HYDROGEN GROUPS
Info: RIGID BONDS TO HYDROGEN : ALL
Info:         ERROR TOLERANCE : 1e-08
Info:          MAX ITERATIONS : 100
Info: RIGID WATER USING SETTLE ALGORITHM
Info: RANDOM NUMBER SEED     1743884926
Info: USE HYDROGEN BONDS?    NO
Info: Using AMBER format force field!
Info: AMBER PARM FILE        mobley_8668219.prmtop
Info: COORDINATE PDB         mobley_8668219.pdb
Info: Exclusions will be read from PARM file!
Info: SCNB (VDW SCALING)     2
Info: USING ARITHMETIC MEAN TO COMBINE L-J SIGMA PARAMETERS
Info: BINARY COORDINATES     mobley_8668219_equil.coor
Info: SUMMARY OF PARAMETERS:
Info: 4 BONDS
Info: 3 ANGLES
Info:   3 HARMONIC
Info:   0 COSINE-BASED
Info: 5 DIHEDRAL
Info: 0 IMPROPER
Info: 0 CROSSTERM
Info: 0 VDW
Info: 10 VDW_PAIRS
Info: 0 NBTHOLE_PAIRS
Info: To read alchdata from file: mobley_8668219.pdb
Info: To read alchflag data from column: 5
Info: STRUCTURE SUMMARY:
Info: 2981 ATOMS
Info: 2980 BONDS
Info: 42 ANGLES
Info: 66 DIHEDRALS
Info: 0 IMPROPERS
Info: 0 CROSSTERMS
Info: 3076 EXCLUSIONS
Info: 2974 RIGID BONDS
Info: ALCH: 0 ATOMS TO DISAPPEAR IN FINAL STATE
Info: ALCH: 23 ATOMS TO APPEAR IN FINAL STATE
Info: 5969 DEGREES OF FREEDOM
Info: 993 HYDROGEN GROUPS
Info: 4 ATOMS IN LARGEST HYDROGEN GROUP
Info: 993 MIGRATION GROUPS
Info: 4 ATOMS IN LARGEST MIGRATION GROUP
Info: TOTAL MASS = 17864 amu
Info: TOTAL CHARGE = 0.000299972 e
Info: MASS DENSITY = 0.959409 g/cm^3
Info: ATOM DENSITY = 0.0964114 atoms/A^3
Info: ADDED 0 IMPLICIT EXCLUSIONS
Info: NONBONDED TABLE R-SQUARED SPACING: 0.0625
Info: NONBONDED TABLE SIZE: 705 POINTS
Info: REMOVING COM VELOCITY -0.27315 0.236462 0.0541478
Info: Use 3D box decompostion in PME FFT.
Info: Updated CUDA force table with 4096 elements.
Info: Updated CUDA LJ table with 4 x 4 elements.
Info: Found 26 unique exclusion lists needing 76 bytes
TCL: Running for 1500000 steps
ETITLE: TS BOND ANGLE DIHED IMPRP ELECT VDW BOUNDARY MISC KINETIC TOTAL TEMP POTENTIAL TOTALAVG TEMPAVG PRESSURE GPRESSURE VOLUME PRESSAVG GPRESSAVG
ENERGY: 0 4.2364 9.3590 3.5975 0.0000 -10841.6997 1506.0703 0.0000 0.0000 1703.2141 -7615.2225 287.1825 -9318.4365 -7615.2225 287.1825 -129.5292 -41.2689 30919.5709 -129.5292 -41.2689
ENERGY: 300000 2.6581 12.1400 8.3119 0.0000 -10745.4690 1404.8769 0.0000 0.0000 1825.0966 -7492.3855 307.7334 -9317.4821 -7533.6361 299.1832 -521.0852 -379.6714 30333.0746 -172.4348 -76.9418
ENERGY: 600000 2.3254 10.5383 5.8756 0.0000 -10764.3202 1498.8665 0.0000 0.0000 1794.6188 -7452.0957 302.5945 -9246.7144 -7517.0785 300.0052 485.7085 595.3922 30363.8379 10.9256 85.4708
ENERGY: 900000 2.9176 9.3849 7.6815 0.0000 -10769.5065 1453.1786 0.0000 0.0000 1731.0657 -7565.2782 291.8787 -9296.3438 -7518.5681 299.8984 31.8601 126.7501 30334.0230 -174.0643 -103.1537
ENERGY: 1200000 1.9195 10.3886 5.4236 0.0000 -11002.0666 1578.5281 0.0000 0.0000 1786.0134 -7619.7934 301.1435 -9405.8068 -7521.1859 300.1393 982.2902 1019.1031 29933.0565 -47.1081 18.5754
ENERGY: 1500000 2.5842 13.8678 6.1126 0.0000 -10636.3981 1352.4176 0.0000 0.0000 1832.9601 -7428.4559 309.0593 -9261.4160 -7514.9721 301.0160 -846.3069 -816.5261 30784.6839 -75.5274 -16.9765
TCL: Running FEP window   2: Lambda1 0.05   Lambda2 0.1    [dLambda 0.05  ]
TCL: Setting parameter firsttimestep to 0
TCL: Setting parameter alchLambda to 0.05
Info: NONBONDED TABLE R-SQUARED SPACING: 0.0625
Info: NONBONDED TABLE SIZE: 705 POINTS
TCL: Setting parameter alchLambda2 to 0.1
Info: NONBONDED TABLE R-SQUARED SPACING: 0.0625
Info: NONBONDED TABLE SIZE: 705 POINTS
TCL: Running for 1500000 steps
ETITLE: TS BOND ANGLE DIHED IMPRP ELECT VDW BOUNDARY MISC KINETIC TOTAL TEMP POTENTIAL TOTALAVG TEMPAVG PRESSURE GPRESSURE VOLUME PRESSAVG GPRESSAVG
ENERGY: 0 2.5842 13.8678 6.1126 0.0000 -10636.3991 1355.5905 0.0000 0.0000 1832.0729 -7426.1711 308.9097 -9258.2440 -7426.1711 308.9097 -907.4017 -811.6540 30784.6839 -907.4017 -811.6540
ENERGY: 300000 4.6545 7.8808 3.3500 0.0000 -10718.3587 1445.6630 0.0000 0.0000 1775.5157 -7481.2947 299.3735 -9256.8104 -7470.6666 305.5891 -153.7105 -49.6568 30577.1394 -265.8079 -205.0751
ENERGY: 600000 3.1490 18.6611 5.3643 0.0000 -10758.1170 1410.1945 0.0000 0.0000 1768.8295 -7551.9186 298.2461 -9320.7481 -7491.6893 302.8818 -425.7711 -282.6948 30128.1955 -74.0677 4.0531
ENERGY: 900000 3.8036 8.3625 3.1009 0.0000 -10832.0996 1521.9179 0.0000 0.0000 1792.9582 -7501.9565 302.3145 -9294.9147 -7498.8442 301.9082 436.8332 496.3608 30730.1992 -70.6714 -2.0638
ENERGY: 1200000 1.0021 14.9557 4.9509 0.0000 -10632.6653 1428.4464 0.0000 0.0000 1778.3167 -7404.9935 299.8458 -9183.3101 -7504.5950 300.5129 76.7924 133.3939 30712.8113 -102.4779 -33.9138
ENERGY: 1500000 4.2971 16.4316 4.8232 0.0000 -10829.0276 1465.4622 0.0000 0.0000 1787.0139 -7550.9996 301.3122 -9338.0135 -7508.2457 301.1572 -136.0293 -39.5159 30419.5093 -136.7292 -66.7879
TCL: Running FEP window   3: Lambda1 0.1    Lambda2 0.15000000000000002 [dLambda 0.05000000000000002]
TCL: Setting parameter firsttimestep to 0
TCL: Setting parameter alchLambda to 0.1
Info: NONBONDED TABLE R-SQUARED SPACING: 0.0625
Info: NONBONDED TABLE SIZE: 705 POINTS
TCL: Setting parameter alchLambda2 to 0.15000000000000002
Info: NONBONDED TABLE R-SQUARED SPACING: 0.0625
Info: NONBONDED TABLE SIZE: 705 POINTS
TCL: Running for 1500000 steps
ETITLE: TS BOND ANGLE DIHED IMPRP ELECT VDW BOUNDARY MISC KINETIC TOTAL TEMP POTENTIAL TOTALAVG TEMPAVG PRESSURE GPRESSURE VOLUME PRESSAVG GPRESSAVG
ENERGY: 0 4.2971 16.4316 4.8232 0.0000 -10829.0279 1469.3460 0.0000 0.0000 1786.1740 -7547.9559 301.1706 -9334.1300 -7547.9559 301.1706 -96.0229 -28.4590 30419.5093 -96.0229 -28.4590
ENERGY: 300000 2.1814 10.8849 3.5351 0.0000 -10753.9564 1395.0355 0.0000 0.0000 1782.4222 -7559.8972 300.5380 -9342.3194 -7558.9381 299.0502 -619.3525 -552.4153 30429.1305 -462.1249 -400.5099
ENERGY: 600000 3.0630 9.8416 4.1180 0.0000 -10823.0924 1392.2126 0.0000 0.0000 1787.0663 -7626.7909 301.3210 -9413.8572 -7550.0942 298.9530 -915.0870 -863.8829 30703.1300 -182.0157 -120.6422
ENERGY: 900000 1.7698 8.8393 4.8332 0.0000 -10887.3692 1511.9309 0.0000 0.0000 1811.0696 -7548.9265 305.3683 -9359.9961 -7555.3396 298.9302 364.5964 368.5117 30514.5110 -126.0853 -72.3042
ENERGY: 1200000 4.4212 12.2519 5.2353 0.0000 -10799.8930 1466.5261 0.0000 0.0000 1759.9463 -7551.5123 296.7483 -9311.4586 -7547.7361 298.6608 -7.3825 32.3793 30409.6744 -183.5304 -131.6365
ENERGY: 1500000 4.1307 13.2346 6.1107 0.0000 -10812.7535 1517.7808 0.0000 0.0000 1765.9705 -7505.5261 297.7640 -9271.4966 -7537.1488 298.6623 617.8918 652.2428 30178.4757 -107.1993 -50.5513
TCL: Running FEP window   4: Lambda1 0.15000000000000002 Lambda2 0.2    [dLambda 0.04999999999999999]
TCL: Setting parameter firsttimestep to 0
TCL: Setting parameter alchLambda to 0.15000000000000002
Info: NONBONDED TABLE R-SQUARED SPACING: 0.0625
Info: NONBONDED TABLE SIZE: 705 POINTS
TCL: Setting parameter alchLambda2 to 0.2
Info: NONBONDED TABLE R-SQUARED SPACING: 0.0625
Info: NONBONDED TABLE SIZE: 705 POINTS
TCL: Running for 1500000 steps
ETITLE: TS BOND ANGLE DIHED IMPRP ELECT VDW BOUNDARY MISC KINETIC TOTAL TEMP POTENTIAL TOTALAVG TEMPAVG PRESSURE GPRESSURE VOLUME PRESSAVG GPRESSAVG
ENERGY: 0 4.1307 13.2346 6.1107 0.0000 -10812.7553 1518.0779 0.0000 0.0000 1765.0671 -7506.1342 297.6117 -9271.2013 -7506.1342 297.6117 577.8705 654.4238 30178.4757 577.8705 654.4238
ENERGY: 300000 3.5706 9.0135 5.2379 0.0000 -10796.5724 1495.7134 0.0000 0.0000 1793.9313 -7489.1057 302.4786 -9283.0370 -7501.5503 299.0838 103.4262 141.0972 31072.5391 -238.8178 -199.1252
ENERGY: 600000 2.3561 19.8617 5.9545 0.0000 -10881.7661 1487.2301 0.0000 0.0000 1777.6273 -7588.7363 299.7295 -9366.3636 -7526.2360 298.8328 153.9197 189.2954 30349.3856 -68.2650 -20.3337
ENERGY: 900000 1.3813 14.5140 5.1304 0.0000 -10725.9519 1405.9032 0.0000 0.0000 1801.0998 -7497.9232 303.6873 -9299.0230 -7521.4662 300.3253 -364.8644 -320.7493 30783.1347 -244.8416 -207.9352
ENERGY: 1200000 3.2611 14.4323 4.7768 0.0000 -10805.6850 1456.3362 0.0000 0.0000 1741.5471 -7585.3315 293.6460 -9326.8787 -7528.9451 299.5268 -25.1919 40.9037 30015.9059 -235.6919 -197.2181
ENERGY: 1500000 2.0313 12.0603 3.9966 0.0000 -10890.6483 1477.3497 0.0000 0.0000 1794.2897 -7600.9207 302.5390 -9395.2104 -7538.0863 299.3543 -123.7690 -32.4572 30419.4829 -152.1133 -105.3487
TCL: Running FEP window   5: Lambda1 0.2    Lambda2 0.25   [dLambda 0.04999999999999999]
TCL: Setting parameter firsttimestep to 0
TCL: Setting parameter alchLambda to 0.2
Info: NONBONDED TABLE R-SQUARED SPACING: 0.0625
Info: NONBONDED TABLE SIZE: 705 POINTS
TCL: Setting parameter alchLambda2 to 0.25
Info: NONBONDED TABLE R-SQUARED SPACING: 0.0625
Info: NONBONDED TABLE SIZE: 705 POINTS
TCL: Running for 1500000 steps
ETITLE: TS BOND ANGLE DIHED IMPRP ELECT VDW BOUNDARY MISC KINETIC TOTAL TEMP POTENTIAL TOTALAVG TEMPAVG PRESSURE GPRESSURE VOLUME PRESSAVG GPRESSAVG
ENERGY: 0 2.0313 12.0603 3.9966 0.0000 -10890.6486 1477.1746 0.0000 0.0000 1793.3690 -7602.0169 302.3838 -9395.3858 -7602.0169 302.3838 -115.5200 -30.6382 30419.4829 -115.5200 -30.6382
ENERGY: 300000 3.0884 13.6066 7.0174 0.0000 -10815.1527 1485.4412 0.0000 0.0000 1809.0470 -7496.9521 305.0273 -9305.9991 -7527.1084 300.0179 110.2109 239.0252 30421.5630 -124.0823 -37.1693
ENERGY: 600000 2.0799 11.2176 3.4662 0.0000 -10552.0354 1292.5499 0.0000 0.0000 1793.3666 -7449.3552 302.3834 -9242.7218 -7529.6264 300.4069 -1348.3434 -1307.9386 31337.4680 -311.6546 -231.3901
ENERGY: 900000 3.1080 11.5672 6.7304 0.0000 -10724.4509 1405.9700 0.0000 0.0000 1814.3493 -7482.7259 305.9213 -9297.0752 -7522.9479 301.9671 -360.6238 -305.9663 30632.4053 -335.0417 -269.9269
ENERGY: 1200000 1.9036 13.7411 5.1088 0.0000 -10856.7322 1454.4940 0.0000 0.0000 1761.4722 -7620.0126 297.0056 -9381.4848 -7521.7571 301.5656 -173.7520 -161.8297 30459.0514 -315.4913 -261.3011
ENERGY: 1500000 3.6755 16.9123 4.2771 0.0000 -10666.1532 1410.5597 0.0000 0.0000 1791.3539 -7439.3747 302.0440 -9230.7286 -7511.8573 301.6051 -161.6945 -126.4686 30687.0734 -291.5441 -241.2507
TCL: Running FEP window   6: Lambda1 0.25   Lambda2 0.3    [dLambda 0.04999999999999999]
TCL: Setting parameter firsttimestep to 0
TCL: Setting parameter alchLambda to 0.25
Info: NONBONDED TABLE R-SQUARED SPACING: 0.0625
Info: NONBONDED TABLE SIZE: 705 POINTS
TCL: Setting parameter alchLambda2 to 0.3
Info: NONBONDED TABLE R-SQUARED SPACING: 0.0625
Info: NONBONDED TABLE SIZE: 705 POINTS
TCL: Running for 1500000 steps
ETITLE: TS BOND ANGLE DIHED IMPRP ELECT VDW BOUNDARY MISC KINETIC TOTAL TEMP POTENTIAL TOTALAVG TEMPAVG PRESSURE GPRESSURE VOLUME PRESSAVG GPRESSAVG
ENERGY: 0 3.6755 16.9123 4.2771 0.0000 -10666.1524 1411.2444 0.0000 0.0000 1790.5196 -7439.5235 301.9033 -9230.0431 -7439.5235 301.9033 -208.7102 -117.0263 30687.0734 -208.7102 -117.0263
ENERGY: 300000 0.7311 14.5723 5.4446 0.0000 -10782.0520 1483.7461 0.0000 0.0000 1780.5748 -7496.9832 300.2265 -9277.5580 -7460.7707 301.0317 348.9537 374.2940 30533.0814 298.5218 348.7924
ENERGY: 600000 5.4393 11.5911 3.4954 0.0000 -10803.8250 1409.6868 0.0000 0.0000 1789.6527 -7583.9598 301.7571 -9373.6125 -7481.0056 300.8055 -685.5816 -604.9744 30566.5372 54.1859 117.4523
ENERGY: 900000 1.1758 11.6788 5.7672 0.0000 -10738.1326 1470.4627 0.0000 0.0000 1813.5278 -7435.5203 305.7828 -9249.0481 -7479.6360 300.6459 130.5418 156.7317 30682.0938 95.2652 156.5455
ENERGY: 1200000 1.2577 7.5202 4.5620 0.0000 -10782.2241 1416.5102 0.0000 0.0000 1757.7448 -7594.6293 296.3771 -9352.3741 -7504.3231 298.7624 -143.6511 -117.0117 30112.8642 52.5522 113.0070
ENERGY: 1500000 1.1074 13.2731 5.3690 0.0000 -10735.6238 1441.0588 0.0000 0.0000 1790.5396 -7484.2759 301.9067 -9274.8155 -7500.0509 299.8496 -331.7226 -249.6822 31080.6029 38.3811 100.0617
TCL: Running FEP window   7: Lambda1 0.3    Lambda2 0.35   [dLambda 0.04999999999999999]
TCL: Setting parameter firsttimestep to 0
TCL: Setting parameter alchLambda to 0.3
Info: NONBONDED TABLE R-SQUARED SPACING: 0.0625
Info: NONBONDED TABLE SIZE: 705 POINTS
TCL: Setting parameter alchLambda2 to 0.35
Info: NONBONDED TABLE R-SQUARED SPACING: 0.0625
Info: NONBONDED TABLE SIZE: 705 POINTS
TCL: Running for 1500000 steps
ETITLE: TS BOND ANGLE DIHED IMPRP ELECT VDW BOUNDARY MISC KINETIC TOTAL TEMP POTENTIAL TOTALAVG TEMPAVG PRESSURE GPRESSURE VOLUME PRESSAVG GPRESSAVG
ENERGY: 0 1.1074 13.2731 5.3690 0.0000 -10735.6228 1442.0308 0.0000 0.0000 1789.6387 -7484.2038 301.7548 -9273.8425 -7484.2038 301.7548 -326.5130 -239.3087 31080.6029 -326.5130 -239.3087
ENERGY: 300000 1.5306 12.6647 4.4225 0.0000 -10668.0303 1390.6535 0.0000 0.0000 1756.2196 -7502.5394 296.1199 -9258.7589 -7525.9824 300.1116 -335.9502 -279.6098 30867.9094 -225.0798 -167.2365
ENERGY: 600000 2.8244 10.5720 5.8090 0.0000 -10680.9343 1395.2930 0.0000 0.0000 1775.7367 -7490.6993 299.4107 -9266.4359 -7515.7226 300.3428 -213.2389 -156.2038 30223.1777 -60.7119 -14.7208
ENERGY: 900000 4.0185 14.8066 4.6487 0.0000 -10727.5467 1403.5447 0.0000 0.0000 1775.6541 -7524.8740 299.3968 -9300.5281 -7525.2450 299.9276 -709.3938 -560.8465 30823.4805 -92.8782 -29.7497
ENERGY: 1200000 2.0262 13.4852 5.0377 0.0000 -10730.3517 1400.8018 0.0000 0.0000 1768.3962 -7540.6046 298.1730 -9309.0008 -7537.1744 298.3166 -251.0141 -156.4315 30240.8382 -79.4203 -6.9197
ENERGY: 1500000 4.8151 11.8106 6.6991 0.0000 -10660.5112 1354.8540 0.0000 0.0000 1739.4218 -7542.9106 293.2876 -9282.3324 -7541.1950 298.1299 -1076.2851 -1035.9198 31335.6033 -133.9958 -69.2946
TCL: Running FEP window   8: Lambda1 0.35   Lambda2 0.39999999999999997 [dLambda 0.04999999999999999]
TCL: Setting parameter firsttimestep to 0
TCL: Setting parameter alchLambda to 0.35
Info: NONBONDED TABLE R-SQUARED SPACING: 0.0625
Info: NONBONDED TABLE SIZE: 705 POINTS
TCL: Setting parameter alchLambda2 to 0.39999999999999997
Info: NONBONDED TABLE R-SQUARED SPACING: 0.0625
Info: NONBONDED TABLE SIZE: 705 POINTS
TCL: Running for 1500000 steps
ETITLE: TS BOND ANGLE DIHED IMPRP ELECT VDW BOUNDARY MISC KINETIC TOTAL TEMP POTENTIAL TOTALAVG TEMPAVG PRESSURE GPRESSURE VOLUME PRESSAVG GPRESSAVG
ENERGY: 0 4.8151 11.8106 6.6991 0.0000 -10660.5124 1355.0666 0.0000 0.0000 1738.5026 -7543.6183 293.1326 -9282.1209 -7543.6183 293.1326 -1115.4954 -1029.4531 31335.6033 -1115.4954 -1029.4531
ENERGY: 300000 1.2974 9.8177 5.1709 0.0000 -10811.7325 1463.4196 0.0000 0.0000 1789.7415 -7542.2854 301.7721 -9332.0269 -7518.6638 300.5123 -109.8822 -69.3016 30736.4236 -280.7198 -226.2485
ENERGY: 600000 1.4755 7.2141 4.4402 0.0000 -10776.5457 1472.9640 0.0000 0.0000 1736.7149 -7553.7370 292.8312 -9290.4519 -7523.9645 299.1178 218.2128 288.7838 30796.6489 -148.7287 -88.2079
ENERGY: 900000 1.0843 11.6018 6.0749 0.0000 -10749.9056 1442.3032 0.0000 0.0000 1819.7723 -7469.0690 306.8357 -9288.8413 -7527.2551 299.5588 8.8656 50.0499 30867.0205 -96.9369 -35.2159
ENERGY: 1200000 2.7369 10.7940 3.5204 0.0000 -10758.2787 1469.9896 0.0000 0.0000 1792.8824 -7478.3555 302.3017 -9271.2378 -7527.3977 299.3070 63.1520 174.2484 30709.3568 -7.2434 57.1385
ENERGY: 1500000 4.3199 14.6327 5.2161 0.0000 -10778.4309 1443.4525 0.0000 0.0000 1832.2252 -7478.5845 308.9354 -9310.8097 -7514.5375 299.5139 -251.2142 -186.8221 30694.9250 17.8079 85.1691
TCL: Running FEP window   9: Lambda1 0.39999999999999997 Lambda2 0.44999999999999996 [dLambda 0.04999999999999999]
TCL: Setting parameter firsttimestep to 0
TCL: Setting parameter alchLambda to 0.39999999999999997
Info: NONBONDED TABLE R-SQUARED SPACING: 0.0625
Info: NONBONDED TABLE SIZE: 705 POINTS
TCL: Setting parameter alchLambda2 to 0.44999999999999996
Info: NONBONDED TABLE R-SQUARED SPACING: 0.0625
Info: NONBONDED TABLE SIZE: 705 POINTS
TCL: Running for 1500000 steps
ETITLE: TS BOND ANGLE DIHED IMPRP ELECT VDW BOUNDARY MISC KINETIC TOTAL TEMP POTENTIAL TOTALAVG TEMPAVG PRESSURE GPRESSURE VOLUME PRESSAVG GPRESSAVG
ENERGY: 0 4.3199 14.6327 5.2161 0.0000 -10778.4312 1443.6576 0.0000 0.0000 1831.3535 -7479.2513 308.7884 -9310.6048 -7479.2513 308.7884 -257.0071 -175.8641 30694.9250 -257.0071 -175.8641
ENERGY: 300000 1.1288 10.7430 4.7190 0.0000 -10755.0637 1431.4083 0.0000 0.0000 1784.3641 -7522.7003 300.8654 -9307.0645 -7504.6200 302.9252 -75.3838 -46.8245 30446.0311 -125.6493 -71.0621
ENERGY: 600000 0.9008 12.2278 5.0617 0.0000 -10710.8169 1429.3471 0.0000 0.0000 1815.5927 -7447.6867 306.1310 -9263.2794 -7511.2297 301.5595 47.7613 92.1990 30390.3739 64.5788 112.1788
ENERGY: 900000 1.5094 17.4261 4.6874 0.0000 -10835.0565 1454.0897 0.0000 0.0000 1823.5811 -7533.7628 307.4779 -9357.3439 -7521.2186 303.3838 -442.3955 -333.9114 31080.8541 131.7378 186.4986
ENERGY: 1200000 3.6621 9.3432 5.4167 0.0000 -10893.9327 1525.0773 0.0000 0.0000 1797.9841 -7552.4492 303.1619 -9350.4333 -7528.4334 302.3879 454.0309 561.0897 30337.9095 159.9944 223.1590
ENERGY: 1500000 3.2605 9.9099 4.1424 0.0000 -10647.0667 1370.6329 0.0000 0.0000 1788.9587 -7470.1623 301.6401 -9259.1210 -7532.2029 301.5771 -335.2967 -234.0861 29877.3363 157.4121 228.2776
TCL: Running FEP window  10: Lambda1 0.44999999999999996 Lambda2 0.49999999999999994 [dLambda 0.04999999999999999]
TCL: Setting parameter firsttimestep to 0
TCL: Setting parameter alchLambda to 0.44999999999999996
Info: NONBONDED TABLE R-SQUARED SPACING: 0.0625
Info: NONBONDED TABLE SIZE: 705 POINTS
TCL: Setting parameter alchLambda2 to 0.49999999999999994
Info: NONBONDED TABLE R-SQUARED SPACING: 0.0625
Info: NONBONDED TABLE SIZE: 705 POINTS
TCL: Running for 1500000 steps
ETITLE: TS BOND ANGLE DIHED IMPRP ELECT VDW BOUNDARY MISC KINETIC TOTAL TEMP POTENTIAL TOTALAVG TEMPAVG PRESSURE GPRESSURE VOLUME PRESSAVG GPRESSAVG
ENERGY: 0 3.2605 9.9099 4.1424 0.0000 -10647.0674 1370.6892 0.0000 0.0000 1788.1000 -7470.9655 301.4953 -9259.0655 -7470.9655 301.4953 -325.5599 -228.4622 29877.3363 -325.5599 -228.4622
ENERGY: 300000 2.8682 11.8310 4.0819 0.0000 -10759.8201 1430.0676 0.0000 0.0000 1800.7090 -7510.2624 303.6214 -9310.9714 -7493.7357 303.6601 -549.5712 -423.9372 30975.6956 -299.2077 -214.4837
ENERGY: 600000 2.8591 13.2732 3.4215 0.0000 -10648.7532 1412.7090 0.0000 0.0000 1777.4590 -7439.0314 299.7011 -9216.4903 -7493.3645 301.7942 -8.5268 44.9533 30769.6412 -150.4328 -77.2881
ENERGY: 900000 2.6222 18.9420 4.3318 0.0000 -10791.0192 1419.7840 0.0000 0.0000 1771.2303 -7574.1088 298.6509 -9345.3391 -7502.5548 300.8150 -485.9828 -416.4263 30727.0430 -158.9663 -88.9030
ENERGY: 1200000 2.9427 9.4168 6.4142 0.0000 -10662.4287 1367.7161 0.0000 0.0000 1827.8350 -7448.1039 308.1952 -9275.9389 -7503.5224 300.7671 -598.9087 -608.4386 30733.5776 -175.8335 -115.8071
ENERGY: 1500000 1.0846 11.7752 4.5605 0.0000 -10873.1890 1535.8649 0.0000 0.0000 1851.1969 -7468.7069 312.1342 -9319.9038 -7508.0769 301.3035 874.0343 921.6263 30282.7181 -135.1397 -76.9509
TCL: Running FEP window  11: Lambda1 0.49999999999999994 Lambda2 0.5499999999999999 [dLambda 0.04999999999999999]
TCL: Setting parameter firsttimestep to 0
TCL: Setting parameter alchLambda to 0.49999999999999994
Info: NONBONDED TABLE R-SQUARED SPACING: 0.0625
Info: NONBONDED TABLE SIZE: 705 POINTS
TCL: Setting parameter alchLambda2 to 0.5499999999999999
Info: NONBONDED TABLE R-SQUARED SPACING: 0.0625
Info: NONBONDED TABLE SIZE: 705 POINTS
TCL: Running for 1500000 steps
ETITLE: TS BOND ANGLE DIHED IMPRP ELECT VDW BOUNDARY MISC KINETIC TOTAL TEMP POTENTIAL TOTALAVG TEMPAVG PRESSURE GPRESSURE VOLUME PRESSAVG GPRESSAVG
ENERGY: 0 1.0846 11.7752 4.5605 0.0000 -10873.1881 1535.2198 0.0000 0.0000 1850.3295 -7470.2186 311.9880 -9320.5481 -7470.2186 311.9880 834.2881 919.6463 30282.7181 834.2881 919.6463
ENERGY: 300000 1.9258 11.2113 5.0185 0.0000 -10771.1577 1440.6319 0.0000 0.0000 1839.9360 -7472.4342 310.2355 -9312.3702 -7477.0869 308.2971 -148.5841 -77.7624 30547.1893 6.3377 76.4092
ENERGY: 600000 1.1808 11.5872 6.4366 0.0000 -10823.4319 1479.3610 0.0000 0.0000 1869.7864 -7455.0798 315.2687 -9324.8662 -7485.7456 307.9603 162.6279 227.0450 30853.5250 118.4171 171.2822
ENERGY: 900000 0.6141 14.1524 6.0949 0.0000 -10893.4304 1505.6800 0.0000 0.0000 1807.1745 -7559.7146 304.7115 -9366.8890 -7494.1983 305.9293 117.8079 221.1194 30659.9948 81.0099 138.9142
ENERGY: 1200000 0.8690 9.1617 4.6802 0.0000 -10846.1361 1490.0219 0.0000 0.0000 1799.5930 -7541.8104 303.4332 -9341.4034 -7500.9154 304.9760 315.0334 372.1087 30476.2987 160.8706 223.9196
ENERGY: 1500000 3.5306 10.5879 3.6526 0.0000 -10608.0387 1385.3253 0.0000 0.0000 1796.5445 -7408.3979 302.9192 -9204.9424 -7492.1682 304.6248 -411.8982 -393.3557 30863.1582 132.6555 197.7802
TCL: Running FEP window  12: Lambda1 0.5499999999999999 Lambda2 0.6    [dLambda 0.050000000000000044]
TCL: Setting parameter firsttimestep to 0
TCL: Setting parameter alchLambda to 0.5499999999999999
Info: NONBONDED TABLE R-SQUARED SPACING: 0.0625
Info: NONBONDED TABLE SIZE: 705 POINTS
TCL: Setting parameter alchLambda2 to 0.6
Info: NONBONDED TABLE R-SQUARED SPACING: 0.0625
Info: NONBONDED TABLE SIZE: 705 POINTS
TCL: Running for 1500000 steps
ETITLE: TS BOND ANGLE DIHED IMPRP ELECT VDW BOUNDARY MISC KINETIC TOTAL TEMP POTENTIAL TOTALAVG TEMPAVG PRESSURE GPRESSURE VOLUME PRESSAVG GPRESSAVG
ENERGY: 0 3.5306 10.5879 3.6526 0.0000 -10608.0684 1385.3539 0.0000 0.0000 1795.6190 -7409.3244 302.7631 -9204.9434 -7409.3244 302.7631 -473.5905 -383.6547 30863.1582 -473.5905 -383.6547
ENERGY: 300000 0.7938 11.7311 3.6678 0.0000 -10748.0868 1468.5109 0.0000 0.0000 1786.7347 -7476.6486 301.2651 -9263.3832 -7483.5201 300.3925 370.9800 438.5238 30288.4512 -141.3476 -71.3115
ENERGY: 600000 1.7398 10.7721 5.0463 0.0000 -10814.7707 1443.3260 0.0000 0.0000 1757.2221 -7596.6644 296.2890 -9353.8865 -7523.4692 298.1514 -439.6516 -351.6356 30833.3243 -62.0699 2.2032
ENERGY: 900000 1.6835 11.8601 4.1090 0.0000 -10685.8796 1365.6290 0.0000 0.0000 1735.3779 -7567.2201 292.6058 -9302.5980 -7524.6484 298.7747 -305.2586 -287.6960 29990.6310 -117.2625 -55.8044
ENERGY: 1200000 2.2688 9.4310 4.7499 0.0000 -10721.6803 1353.3878 0.0000 0.0000 1738.2189 -7613.6240 293.0848 -9351.8429 -7543.2038 297.3112 -951.8765 -908.7483 30669.5734 -208.0671 -144.0300
ENERGY: 1500000 2.4916 9.0096 4.4462 0.0000 -10683.2900 1420.6210 0.0000 0.0000 1766.4164 -7480.3053 297.8392 -9246.7217 -7534.5689 297.0572 -290.7027 -210.3379 30931.5545 -233.5437 -168.5093
TCL: Running FEP window  13: Lambda1 0.6    Lambda2 0.65   [dLambda 0.050000000000000044]
TCL: Setting parameter firsttimestep to 0
TCL: Setting parameter alchLambda to 0.6
Info: NONBONDED TABLE R-SQUARED SPACING: 0.0625
Info: NONBONDED TABLE SIZE: 705 POINTS
TCL: Setting parameter alchLambda2 to 0.65
Info: NONBONDED TABLE R-SQUARED SPACING: 0.0625
Info: NONBONDED TABLE SIZE: 705 POINTS
TCL: Running for 1500000 steps
ETITLE: TS BOND ANGLE DIHED IMPRP ELECT VDW BOUNDARY MISC KINETIC TOTAL TEMP POTENTIAL TOTALAVG TEMPAVG PRESSURE GPRESSURE VOLUME PRESSAVG GPRESSAVG
ENERGY: 0 2.4916 9.0096 4.4462 0.0000 -10683.3046 1420.8048 0.0000 0.0000 1765.5706 -7480.9819 297.6966 -9246.5525 -7480.9819 297.6966 -281.1854 -198.9955 30931.5545 -281.1854 -198.9955
ENERGY: 300000 2.8605 8.1382 4.3344 0.0000 -10983.6613 1597.0646 0.0000 0.0000 1748.8030 -7622.4606 294.8694 -9371.2636 -7537.0541 297.3190 1125.6802 1177.9847 30010.1526 70.6043 134.4125
ENERGY: 600000 2.3482 10.7625 4.7311 0.0000 -10751.6167 1361.3844 0.0000 0.0000 1751.0660 -7621.3246 295.2510 -9372.3906 -7542.3542 298.8488 -1091.3585 -1000.3079 30661.1624 -142.8384 -72.9649
ENERGY: 900000 1.6564 11.2118 4.7468 0.0000 -10778.9091 1476.9789 0.0000 0.0000 1827.9769 -7456.3384 308.2191 -9284.3153 -7536.2296 299.3946 422.9959 455.9526 30458.7857 -8.6552 58.2214
ENERGY: 1200000 2.1582 9.8800 6.1800 0.0000 -10689.2606 1408.7360 0.0000 0.0000 1804.1035 -7458.2029 304.1937 -9262.3064 -7539.1663 298.5082 -227.3722 -194.7136 30934.1789 -7.7444 58.4945
ENERGY: 1500000 4.1269 8.1303 4.6023 0.0000 -10667.2258 1368.9098 0.0000 0.0000 1743.9369 -7537.5197 294.0489 -9281.4566 -7539.7821 298.5345 -873.4891 -788.6311 30890.0912 -63.8318 0.2227
TCL: Running FEP window  14: Lambda1 0.65   Lambda2 0.7000000000000001 [dLambda 0.050000000000000044]
TCL: Setting parameter firsttimestep to 0
TCL: Setting parameter alchLambda to 0.65
Info: NONBONDED TABLE R-SQUARED SPACING: 0.0625
Info: NONBONDED TABLE SIZE: 705 POINTS
TCL: Setting parameter alchLambda2 to 0.7000000000000001
Info: NONBONDED TABLE R-SQUARED SPACING: 0.0625
Info: NONBONDED TABLE SIZE: 705 POINTS
TCL: Running for 1500000 steps
ETITLE: TS BOND ANGLE DIHED IMPRP ELECT VDW BOUNDARY MISC KINETIC TOTAL TEMP POTENTIAL TOTALAVG TEMPAVG PRESSURE GPRESSURE VOLUME PRESSAVG GPRESSAVG
ENERGY: 0 4.1269 8.1303 4.6023 0.0000 -10667.2201 1368.8887 0.0000 0.0000 1743.0683 -7538.4037 293.9025 -9281.4720 -7538.4037 293.9025 -861.8944 -781.1691 30890.0912 -861.8944 -781.1691
ENERGY: 300000 1.6279 9.7602 5.0915 0.0000 -10762.3062 1422.3335 0.0000 0.0000 1811.8347 -7511.6584 305.4973 -9323.4931 -7527.5403 297.4362 -123.0053 -90.0269 30532.1708 -376.6177 -308.5767
ENERGY: 600000 1.9241 9.2326 4.2410 0.0000 -10632.2506 1372.2914 0.0000 0.0000 1817.6593 -7426.9022 306.4794 -9244.5615 -7499.1984 300.2372 -336.3074 -216.8444 30552.8183 -254.3425 -173.8056
ENERGY: 900000 2.0069 11.1150 4.0115 0.0000 -10913.7525 1505.1638 0.0000 0.0000 1783.9843 -7607.4710 300.8014 -9391.4553 -7524.6754 299.2381 128.8735 186.7670 30545.7368 -183.6541 -104.8188
ENERGY: 1200000 3.9103 11.7764 5.0188 0.0000 -10741.9029 1424.2663 0.0000 0.0000 1768.4211 -7528.5100 298.1772 -9296.9311 -7517.3872 298.8705 -362.7166 -345.8634 30705.7729 -111.2406 -34.7053
ENERGY: 1500000 6.0965 14.8400 5.3497 0.0000 -10705.4374 1449.7692 0.0000 0.0000 1796.0236 -7433.3585 302.8314 -9229.3821 -7513.9709 298.6826 174.3110 226.9796 30721.6686 -53.1438 13.8478
TCL: Running FEP window  15: Lambda1 0.7000000000000001 Lambda2 0.7500000000000001 [dLambda 0.050000000000000044]
TCL: Setting parameter firsttimestep to 0
TCL: Setting parameter alchLambda to 0.7000000000000001
Info: NONBONDED TABLE R-SQUARED SPACING: 0.0625
Info: NONBONDED TABLE SIZE: 705 POINTS
TCL: Setting parameter alchLambda2 to 0.7500000000000001
Info: NONBONDED TABLE R-SQUARED SPACING: 0.0625
Info: NONBONDED TABLE SIZE: 705 POINTS
TCL: Running for 1500000 steps
ETITLE: TS BOND ANGLE DIHED IMPRP ELECT VDW BOUNDARY MISC KINETIC TOTAL TEMP POTENTIAL TOTALAVG TEMPAVG PRESSURE GPRESSURE VOLUME PRESSAVG GPRESSAVG
ENERGY: 0 6.0965 14.8399 5.3497 0.0000 -10705.4630 1450.4261 0.0000 0.0000 1795.1749 -7433.5760 302.6883 -9228.7508 -7433.5760 302.6883 174.6994 247.0625 30721.6686 174.6994 247.0625
ENERGY: 300000 1.5447 13.9172 5.7749 0.0000 -10707.3564 1464.1778 0.0000 0.0000 1831.4510 -7390.4909 308.8048 -9221.9419 -7455.3637 305.7050 135.5464 225.9906 31015.6780 11.7730 109.4626
ENERGY: 600000 3.8442 7.8515 3.7931 0.0000 -10802.3718 1489.2849 0.0000 0.0000 1747.5509 -7550.0472 294.6583 -9297.5982 -7481.0497 303.9732 272.1027 298.3760 30627.6705 158.2651 233.8843
ENERGY: 900000 4.7184 11.1061 6.4172 0.0000 -10746.6439 1455.5360 0.0000 0.0000 1735.0041 -7533.8621 292.5427 -9268.8662 -7504.5502 302.0235 -49.3283 66.3579 30694.6714 32.6708 103.4976
ENERGY: 1200000 6.2343 18.6668 4.0558 0.0000 -10907.5327 1560.4421 0.0000 0.0000 1715.1795 -7602.9542 289.2001 -9318.1337 -7516.4042 299.8136 833.8935 899.0900 30094.3428 -17.7938 49.8117
ENERGY: 1500000 0.8033 9.0473 3.7405 0.0000 -10608.5712 1316.4622 0.0000 0.0000 1815.4240 -7463.0938 306.1025 -9278.5178 -7517.3672 300.5083 -931.0646 -816.8507 30771.8872 -138.9029 -72.6549
TCL: Running FEP window  16: Lambda1 0.7500000000000001 Lambda2 0.8000000000000002 [dLambda 0.050000000000000044]
TCL: Setting parameter firsttimestep to 0
TCL: Setting parameter alchLambda to 0.7500000000000001
Info: NONBONDED TABLE R-SQUARED SPACING: 0.0625
Info: NONBONDED TABLE SIZE: 705 POINTS
TCL: Setting parameter alchLambda2 to 0.8000000000000002
Info: NONBONDED TABLE R-SQUARED SPACING: 0.0625
Info: NONBONDED TABLE SIZE: 705 POINTS
TCL: Running for 1500000 steps
ETITLE: TS BOND ANGLE DIHED IMPRP ELECT VDW BOUNDARY MISC KINETIC TOTAL TEMP POTENTIAL TOTALAVG TEMPAVG PRESSURE GPRESSURE VOLUME PRESSAVG GPRESSAVG
ENERGY: 0 0.8033 9.0473 3.7405 0.0000 -10608.5824 1316.6790 0.0000 0.0000 1814.5638 -7463.7484 305.9575 -9278.3122 -7463.7484 305.9575 -896.7533 -802.9205 30771.8872 -896.7533 -802.9205
ENERGY: 300000 1.8575 9.5507 6.1627 0.0000 -10789.1184 1479.5083 0.0000 0.0000 1876.4304 -7415.6087 316.3889 -9292.0391 -7510.2672 305.5870 546.8036 600.1841 30320.4298 -308.2533 -239.5769
ENERGY: 600000 1.1537 10.0866 3.9241 0.0000 -10738.9845 1411.6363 0.0000 0.0000 1839.8933 -7472.2906 310.2283 -9312.1839 -7498.5354 306.8795 -510.4164 -424.9729 31111.4687 -334.3850 -254.4910
ENERGY: 900000 3.0242 11.7189 3.7732 0.0000 -10769.9304 1449.3166 0.0000 0.0000 1869.4133 -7432.6841 315.2058 -9302.0974 -7507.8538 305.8258 -106.7554 -94.1519 30910.9956 -333.5864 -266.4092
ENERGY: 1200000 3.7565 10.3503 4.5159 0.0000 -10656.9290 1421.7130 0.0000 0.0000 1786.9310 -7429.6623 301.2982 -9216.5933 -7504.3882 303.9373 -311.4294 -267.5936 31313.0433 -294.5908 -221.9159
ENERGY: 1500000 3.6713 11.9262 3.5705 0.0000 -10716.0210 1388.8718 0.0000 0.0000 1777.7676 -7530.2137 299.7532 -9307.9813 -7491.5090 303.5220 -694.5370 -591.6697 31039.8814 -267.7440 -192.9455
TCL: Running FEP window  17: Lambda1 0.8000000000000002 Lambda2 0.8500000000000002 [dLambda 0.050000000000000044]
TCL: Setting parameter firsttimestep to 0
TCL: Setting parameter alchLambda to 0.8000000000000002
Info: NONBONDED TABLE R-SQUARED SPACING: 0.0625
Info: NONBONDED TABLE SIZE: 705 POINTS
TCL: Setting parameter alchLambda2 to 0.8500000000000002
Info: NONBONDED TABLE R-SQUARED SPACING: 0.0625
Info: NONBONDED TABLE SIZE: 705 POINTS
TCL: Running for 1500000 steps
ETITLE: TS BOND ANGLE DIHED IMPRP ELECT VDW BOUNDARY MISC KINETIC TOTAL TEMP POTENTIAL TOTALAVG TEMPAVG PRESSURE GPRESSURE VOLUME PRESSAVG GPRESSAVG
ENERGY: 0 3.6713 11.9262 3.5705 0.0000 -10716.0063 1389.3440 0.0000 0.0000 1776.8996 -7530.5948 299.6068 -9307.4943 -7530.5948 299.6068 -654.8427 -572.2156 31039.8814 -654.8427 -572.2156
ENERGY: 300000 2.3957 10.5449 5.4639 0.0000 -10681.5374 1387.5974 0.0000 0.0000 1808.8147 -7466.7208 304.9881 -9275.5355 -7499.1535 302.5525 -362.1553 -334.7515 30607.0764 -303.0499 -243.8812
ENERGY: 600000 0.9209 15.3049 5.4727 0.0000 -10729.8940 1410.3910 0.0000 0.0000 1755.1707 -7542.6339 295.9431 -9297.8046 -7500.3109 301.2824 -405.5629 -350.2968 30926.7531 -202.1949 -136.7783
ENERGY: 900000 3.6833 11.7876 6.1340 0.0000 -10745.9205 1443.1067 0.0000 0.0000 1717.6587 -7563.5503 289.6181 -9281.2089 -7522.6350 298.9136 92.1611 100.1606 30600.4074 -136.5018 -80.5353
ENERGY: 1200000 5.0987 7.3704 4.0018 0.0000 -10672.4466 1432.2501 0.0000 0.0000 1725.2974 -7498.4282 290.9061 -9223.7255 -7522.0400 299.0130 77.2577 156.9372 30628.4445 -94.6192 -35.9554
ENERGY: 1500000 0.5552 10.0623 6.1351 0.0000 -10849.5962 1476.5625 0.0000 0.0000 1754.9068 -7601.3743 295.8986 -9356.2811 -7524.0359 300.0120 91.8342 157.4008 30598.4374 -115.8347 -56.3880
TCL: Running FEP window  18: Lambda1 0.8500000000000002 Lambda2 0.9000000000000002 [dLambda 0.050000000000000044]
TCL: Setting parameter firsttimestep to 0
TCL: Setting parameter alchLambda to 0.8500000000000002
Info: NONBONDED TABLE R-SQUARED SPACING: 0.0625
Info: NONBONDED TABLE SIZE: 705 POINTS
TCL: Setting parameter alchLambda2 to 0.9000000000000002
Info: NONBONDED TABLE R-SQUARED SPACING: 0.0625
Info: NONBONDED TABLE SIZE: 705 POINTS
TCL: Running for 1500000 steps
ETITLE: TS BOND ANGLE DIHED IMPRP ELECT VDW BOUNDARY MISC KINETIC TOTAL TEMP POTENTIAL TOTALAVG TEMPAVG PRESSURE GPRESSURE VOLUME PRESSAVG GPRESSAVG
ENERGY: 0 0.5552 10.0623 6.1351 0.0000 -10849.5801 1476.4634 0.0000 0.0000 1754.0139 -7602.3503 295.7480 -9356.3642 -7602.3503 295.7480 112.8800 169.4429 30598.4374 112.8800 169.4429
ENERGY: 300000 1.1418 11.3151 4.7537 0.0000 -10838.5611 1501.7686 0.0000 0.0000 1829.8543 -7489.7276 308.5356 -9319.5819 -7541.2024 298.6850 368.2694 508.0759 30678.6854 296.7236 381.5690
ENERGY: 600000 2.4012 11.2333 3.6371 0.0000 -10830.6611 1479.9100 0.0000 0.0000 1711.9455 -7621.5341 288.6548 -9333.4796 -7532.5088 298.0955 198.2251 203.5052 30435.1334 206.9050 268.3910
ENERGY: 900000 2.7840 12.9995 6.3530 0.0000 -10837.2941 1515.0439 0.0000 0.0000 1732.3317 -7567.7820 292.0921 -9300.1137 -7544.9072 296.7455 279.7008 330.8758 30820.9358 176.5648 237.1154
ENERGY: 1200000 1.8682 20.3580 3.7304 0.0000 -10710.8218 1443.3016 0.0000 0.0000 1804.4664 -7437.0971 304.2549 -9241.5636 -7528.4643 297.9264 146.8007 211.6913 30770.2657 215.8265 271.2481
ENERGY: 1500000 2.0809 12.9348 3.8290 0.0000 -10842.1767 1459.2223 0.0000 0.0000 1728.2366 -7635.8733 291.4016 -9364.1099 -7534.3719 297.9788 -102.3279 -12.1313 30357.6614 172.9830 230.7497
TCL: Running FEP window  19: Lambda1 0.9000000000000002 Lambda2 0.9500000000000003 [dLambda 0.050000000000000044]
TCL: Setting parameter firsttimestep to 0
TCL: Setting parameter alchLambda to 0.9000000000000002
Info: NONBONDED TABLE R-SQUARED SPACING: 0.0625
Info: NONBONDED TABLE SIZE: 705 POINTS
TCL: Setting parameter alchLambda2 to 0.9500000000000003
Info: NONBONDED TABLE R-SQUARED SPACING: 0.0625
Info: NONBONDED TABLE SIZE: 705 POINTS
TCL: Running for 1500000 steps
ETITLE: TS BOND ANGLE DIHED IMPRP ELECT VDW BOUNDARY MISC KINETIC TOTAL TEMP POTENTIAL TOTALAVG TEMPAVG PRESSURE GPRESSURE VOLUME PRESSAVG GPRESSAVG
ENERGY: 0 2.0809 12.9348 3.8290 0.0000 -10842.2003 1460.0939 0.0000 0.0000 1727.3573 -7635.9044 291.2534 -9363.2617 -7635.9044 291.2534 -82.2462 9.8091 30357.6614 -82.2462 9.8091
ENERGY: 300000 2.0554 11.4263 3.9285 0.0000 -10749.8974 1404.8133 0.0000 0.0000 1768.2723 -7559.4017 298.1521 -9327.6740 -7562.5107 297.0917 -356.6277 -280.3555 30588.1432 -328.1598 -243.1187
ENERGY: 600000 0.2634 13.1230 3.8210 0.0000 -10651.2639 1326.3380 0.0000 0.0000 1716.4491 -7591.2694 289.4141 -9307.7185 -7554.3214 296.9052 -1003.4986 -930.1440 30536.1685 -386.7726 -314.6772
ENERGY: 900000 1.3165 9.5697 5.6188 0.0000 -10790.0660 1488.7990 0.0000 0.0000 1819.5969 -7465.1651 306.8061 -9284.7620 -7547.8356 297.2321 520.5711 613.4519 30526.4977 -123.7171 -55.7491
ENERGY: 1200000 2.2774 12.6227 6.5797 0.0000 -10753.9334 1399.9275 0.0000 0.0000 1780.0735 -7552.4525 300.1420 -9332.5261 -7550.8565 297.9280 -532.2397 -496.5551 30680.3869 -161.4867 -91.7600
ENERGY: 1500000 2.3942 9.5024 4.9209 0.0000 -10635.5169 1339.7306 0.0000 0.0000 1794.5770 -7484.3918 302.5874 -9278.9688 -7542.0749 297.9921 -882.4396 -786.8484 31142.2391 -184.4753 -113.9538
TCL: Running FEP window  20: Lambda1 0.9500000000000003 Lambda2 1.0    [dLambda 0.04999999999999971]
TCL: Setting parameter firsttimestep to 0
TCL: Setting parameter alchLambda to 0.9500000000000003
Info: NONBONDED TABLE R-SQUARED SPACING: 0.0625
Info: NONBONDED TABLE SIZE: 705 POINTS
TCL: Setting parameter alchLambda2 to 1.0
Info: NONBONDED TABLE R-SQUARED SPACING: 0.0625
Info: NONBONDED TABLE SIZE: 705 POINTS
TCL: Running for 1500000 steps
ETITLE: TS BOND ANGLE DIHED IMPRP ELECT VDW BOUNDARY MISC KINETIC TOTAL TEMP POTENTIAL TOTALAVG TEMPAVG PRESSURE GPRESSURE VOLUME PRESSAVG GPRESSAVG
ENERGY: 0 2.3942 9.5024 4.9209 0.0000 -10635.5089 1339.4866 0.0000 0.0000 1793.6879 -7485.5167 302.4375 -9279.2047 -7485.5167 302.4375 -865.3816 -777.5557 31142.2391 -865.3816 -777.5557
ENERGY: 300000 2.7082 11.8038 6.4355 0.0000 -10910.9660 1551.7739 0.0000 0.0000 1721.6520 -7616.5927 290.2914 -9338.2447 -7550.6143 297.6763 517.4250 585.9095 30523.0591 -153.1040 -76.0422
ENERGY: 600000 3.0233 11.1414 4.4633 0.0000 -10651.0025 1380.3725 0.0000 0.0000 1792.2061 -7459.7959 302.1877 -9252.0020 -7543.4099 297.8591 -174.5356 -117.0476 30319.7605 -193.3371 -124.0359
ENERGY: 900000 2.2653 8.4837 5.5349 0.0000 -10880.4919 1560.9704 0.0000 0.0000 1766.3929 -7536.8448 297.8353 -9303.2377 -7546.4543 298.2081 676.4376 811.9767 30666.0338 -37.3792 35.3505
ENERGY: 1200000 1.8934 11.3528 6.5919 0.0000 -10737.6384 1414.0593 0.0000 0.0000 1776.2175 -7527.5235 299.4918 -9303.7410 -7541.7468 298.6016 -411.3149 -319.7786 30886.0232 -57.3749 10.6043
ENERGY: 1500000 2.3693 10.0952 4.8921 0.0000 -10767.4356 1440.5948 0.0000 0.0000 1754.6590 -7554.8253 295.8568 -9309.4843 -7532.0564 299.2436 -191.8717 -123.1366 30882.8870 -39.4891 24.9973
TCL: Exiting due to exit command.
