Info: SIMULATION PARAMETERS:
Info: TIMESTEP               2
Info: NUMBER OF STEPS        0
Info: STEPS PER CYCLE        10
Info: PERIODIC CELL BASIS 1  30.1303 0 0
Info: PERIODIC CELL BASIS 2  0 31.515 0
Info: PERIODIC CELL BASIS 3  0 0 31.4657
Info: PERIODIC CELL CENTER   0 0 0
Info: WRAPPING WATERS AROUND PERIODIC BOUNDARIES ON OUTPUT.
Info: WRAPPING ALL CLUSTERS AROUND PERIODIC BOUNDARIES ON OUTPUT.
Info: FIRST LDB TIMESTEP     50
Info: LAST LDB TIMESTEP     -1
Info: HOM BACKGROUND SCALING 1
Info: PME BACKGROUND SCALING 1
Info: MIN ATOMS PER PATCH    40
Info: EMPTY PATCH LOAD       40 ATOMS
Info: VELOCITY FILE          mobley_9112978_equil.vel
Info: CENTER OF MASS MOVING INITIALLY? NO
Info: DIELECTRIC             1
Info: EXCLUDE                SCALED ONE-FOUR
Info: 1-4 ELECTROSTATICS SCALED BY 0.833333
Info: MODIFIED 1-4 VDW PARAMETERS WILL BE USED
Info: DCD FILENAME           mobley_9112978_prod.dcd
Info: DCD FREQUENCY          100000
Info: DCD FIRST STEP         100000
Info: DCD FILE WILL CONTAIN UNIT CELL DATA
Info: XST FILENAME           mobley_9112978_prod.xst
Info: XST FREQUENCY          100000
Info: NO VELOCITY DCD OUTPUT
Info: NO FORCE DCD OUTPUT
Info: OUTPUT FILENAME        mobley_9112978_prod
Info: BINARY OUTPUT FILES WILL BE USED
Info: RESTART FILENAME       mobley_9112978_prod.restart
Info: RESTART FREQUENCY      100000
Info: BINARY RESTART FILES WILL BE USED
Info: CUTOFF                 9
Info: PAIRLIST DISTANCE      11
Info: PAIRLIST SHRINK RATE   0.01
Info: PAIRLIST GROW RATE     0.01
Info: PAIRLIST TRIGGER       0.3
Info: PAIRLISTS PER CYCLE    2
Info: PAIRLISTS ENABLED
Info: MARGIN                 2
Info: HYDROGEN GROUP CUTOFF  2.5
Info: PATCH DIMENSION        15.5
Info: ENERGY OUTPUT STEPS    100000
Info: ENERGY EVALUATION STEPS    100000
Info: OUTPUT ENERGY PRECISION 4
Info: CROSSTERM ENERGY INCLUDED IN DIHEDRAL
Info: TIMING OUTPUT STEPS    1000000
Info: PRESSURE OUTPUT STEPS  100000
Info: ALCHEMICAL FEP ON
Info: FEP CURRENT LAMBDA VALUE     1
Info: FEP COMPARISON LAMBDA VALUE  0.95
Info: FEP INTRA-ALCHEMICAL NON-BONDED INTERACTIONS WILL BE RETAINED
Info: FEP INTRA-ALCHEMICAL BONDED INTERACTIONS WILL BE RETAINED
Info: FEP VDW SHIFTING COEFFICIENT 5
Info: FEP ELEC. ACTIVE FOR ANNIHILATED PARTICLES BETWEEN LAMBDA = 0 AND LAMBDA = 0.5
Info: FEP ELEC. ACTIVE FOR EXNIHILATED PARTICLES BETWEEN LAMBDA = 0.5 AND LAMBDA = 1
Info: FEP VDW ACTIVE FOR ANNIHILATED PARTICLES BETWEEN LAMBDA = 0 AND LAMBDA = 1
Info: FEP VDW ACTIVE FOR EXNIHILATED PARTICLES BETWEEN LAMBDA = 0 AND LAMBDA = 1
Info: FEP BOND ACTIVE FOR ANNIHILATED PARTICLES BETWEEN LAMBDA = 1 AND LAMBDA = 1
Info: FEP BOND ACTIVE FOR EXNIHILATED PARTICLES BETWEEN LAMBDA = 0 AND LAMBDA = 0
Info: LANGEVIN DYNAMICS ACTIVE
Info: LANGEVIN TEMPERATURE   300
Info: LANGEVIN USING BBK INTEGRATOR
Info: LANGEVIN DAMPING COEFFICIENT IS 1 INVERSE PS
Info: LANGEVIN DYNAMICS APPLIED TO HYDROGENS
Info: LANGEVIN PISTON PRESSURE CONTROL ACTIVE
Info:        TARGET PRESSURE IS 1.01325 BAR
Info:     OSCILLATION PERIOD IS 50 FS
Info:             DECAY TIME IS 25 FS
Info:     PISTON TEMPERATURE IS 300 K
Info:       PRESSURE CONTROL IS GROUP-BASED
Info:    INITIAL STRAIN RATE IS -0.00028945 -0.00028945 -0.00028945
Info:       CELL FLUCTUATION IS ISOTROPIC
Info: PARTICLE MESH EWALD (PME) ACTIVE
Info: PME TOLERANCE               1e-06
Info: PME EWALD COEFFICIENT       0.348832
Info: PME INTERPOLATION ORDER     4
Info: PME GRID DIMENSIONS         32 32 32
Info: PME MAXIMUM GRID SPACING    1
Info: PME CALCULATION WILL BE PERFORMED ON GPU
Info: FULL ELECTROSTATIC EVALUATION FREQUENCY      2
Info: USING VERLET I (r-RESPA) MTS SCHEME.
Info: C1 SPLITTING OF LONG RANGE ELECTROSTATICS
Info: PLACING ATOMS IN PATCHES BY HYDROGEN GROUPS
Info: RIGID BONDS TO HYDROGEN : ALL
Info:         ERROR TOLERANCE : 1e-08
Info:          MAX ITERATIONS : 100
Info: RIGID WATER USING SETTLE ALGORITHM
Info: RANDOM NUMBER SEED     1743752554
Info: USE HYDROGEN BONDS?    NO
Info: Using AMBER format force field!
Info: AMBER PARM FILE        mobley_9112978.prmtop
Info: COORDINATE PDB         mobley_9112978.pdb
Info: Exclusions will be read from PARM file!
Info: SCNB (VDW SCALING)     2
Info: USING ARITHMETIC MEAN TO COMBINE L-J SIGMA PARAMETERS
Info: BINARY COORDINATES     mobley_9112978_equil.coor
Info: SUMMARY OF PARAMETERS:
Info: 7 BONDS
Info: 7 ANGLES
Info:   7 HARMONIC
Info:   0 COSINE-BASED
Info: 8 DIHEDRAL
Info: 0 IMPROPER
Info: 0 CROSSTERM
Info: 0 VDW
Info: 21 VDW_PAIRS
Info: 0 NBTHOLE_PAIRS
Info: To read alchdata from file: mobley_9112978.pdb
Info: To read alchflag data from column: 5
Info: STRUCTURE SUMMARY:
Info: 2931 ATOMS
Info: 2930 BONDS
Info: 24 ANGLES
Info: 38 DIHEDRALS
Info: 0 IMPROPERS
Info: 0 CROSSTERMS
Info: 2979 EXCLUSIONS
Info: 2926 RIGID BONDS
Info: ALCH: 0 ATOMS TO DISAPPEAR IN FINAL STATE
Info: ALCH: 15 ATOMS TO APPEAR IN FINAL STATE
Info: 5867 DEGREES OF FREEDOM
Info: 977 HYDROGEN GROUPS
Info: 4 ATOMS IN LARGEST HYDROGEN GROUP
Info: 977 MIGRATION GROUPS
Info: 4 ATOMS IN LARGEST MIGRATION GROUP
Info: TOTAL MASS = 17581.7 amu
Info: TOTAL CHARGE = 0.000100017 e
Info: MASS DENSITY = 0.977151 g/cm^3
Info: ATOM DENSITY = 0.0980974 atoms/A^3
Info: ADDED 0 IMPLICIT EXCLUSIONS
Info: NONBONDED TABLE R-SQUARED SPACING: 0.0625
Info: NONBONDED TABLE SIZE: 705 POINTS
Info: REMOVING COM VELOCITY -0.135975 0.0624406 0.290759
Info: Use 3D box decompostion in PME FFT.
Info: Updated CUDA force table with 4096 elements.
Info: Updated CUDA LJ table with 6 x 6 elements.
Info: Found 17 unique exclusion lists needing 36 bytes
TCL: Running for 1500000 steps
ETITLE: TS BOND ANGLE DIHED IMPRP ELECT VDW BOUNDARY MISC KINETIC TOTAL TEMP POTENTIAL TOTALAVG TEMPAVG PRESSURE GPRESSURE VOLUME PRESSAVG GPRESSAVG
ENERGY: 0 0.5229 4.3407 8.7534 0.0000 -10742.3271 1481.9205 0.0000 0.0000 1758.7311 -7488.0586 301.6989 -9246.7897 -7488.0586 301.6989 335.5858 419.8516 29878.4558 335.5858 419.8516
ENERGY: 300000 1.7247 6.2359 7.7355 0.0000 -10525.5860 1319.3275 0.0000 0.0000 1735.4358 -7455.1266 297.7027 -9190.5624 -7427.5202 301.1704 -1262.7644 -1267.6630 31104.0280 -580.4961 -535.4505
ENERGY: 600000 0.2602 5.1903 8.5424 0.0000 -10576.5192 1465.7945 0.0000 0.0000 1770.2403 -7326.4915 303.6732 -9096.7318 -7420.3065 300.4072 765.0819 813.7458 29792.9507 -165.0750 -101.8731
ENERGY: 900000 1.7618 7.9900 7.9484 0.0000 -10668.6628 1453.6414 0.0000 0.0000 1768.6555 -7428.6657 303.4014 -9197.3213 -7417.8887 300.6249 193.6201 223.5502 30243.9851 -35.5769 20.6413
ENERGY: 1200000 0.7326 3.9232 9.8142 0.0000 -10494.1927 1362.3276 0.0000 0.0000 1685.2922 -7432.1029 289.1009 -9117.3950 -7420.8045 299.3759 -134.5426 -80.1541 30017.7850 -31.1689 25.0779
ENERGY: 1500000 0.5689 5.5203 8.3411 0.0000 -10553.9634 1368.8107 0.0000 0.0000 1716.5294 -7454.1930 294.4595 -9170.7224 -7406.9076 299.9556 -207.1882 -190.0114 30197.4616 1.0351 56.3583
TCL: Running FEP window   2: Lambda1 0.95   Lambda2 0.8999999999999999 [dLambda -0.050000000000000044]
TCL: Setting parameter firsttimestep to 0
TCL: Setting parameter alchLambda to 0.95
Info: NONBONDED TABLE R-SQUARED SPACING: 0.0625
Info: NONBONDED TABLE SIZE: 705 POINTS
TCL: Setting parameter alchLambda2 to 0.8999999999999999
Info: NONBONDED TABLE R-SQUARED SPACING: 0.0625
Info: NONBONDED TABLE SIZE: 705 POINTS
TCL: Running for 1500000 steps
ETITLE: TS BOND ANGLE DIHED IMPRP ELECT VDW BOUNDARY MISC KINETIC TOTAL TEMP POTENTIAL TOTALAVG TEMPAVG PRESSURE GPRESSURE VOLUME PRESSAVG GPRESSAVG
ENERGY: 0 0.5689 5.5203 8.3411 0.0000 -10553.6635 1368.6685 0.0000 0.0000 1715.6830 -7454.8817 294.3143 -9170.5647 -7454.8817 294.3143 -278.8465 -201.6555 30197.4616 -278.8465 -201.6555
ENERGY: 300000 0.9493 4.3833 7.2288 0.0000 -10736.6554 1514.7407 0.0000 0.0000 1737.6496 -7471.7038 298.0825 -9209.3533 -7429.0696 302.8728 733.3650 853.0551 29689.3691 158.0303 261.5175
ENERGY: 600000 1.5351 6.2129 7.8848 0.0000 -10627.5178 1450.0235 0.0000 0.0000 1729.1053 -7432.7562 296.6168 -9161.8615 -7430.3493 299.9865 84.1980 137.4078 30379.7120 19.3455 94.1443
ENERGY: 900000 2.9020 4.5445 7.9975 0.0000 -10497.5040 1352.6306 0.0000 0.0000 1704.5198 -7424.9096 292.3993 -9129.4294 -7439.6046 298.8622 -753.1081 -648.5417 30573.0300 -111.7638 -34.7161
ENERGY: 1200000 0.7616 5.0907 7.0164 0.0000 -10603.9221 1402.9998 0.0000 0.0000 1748.3817 -7439.6719 299.9235 -9188.0535 -7441.1052 297.9044 -153.9615 -193.1628 30347.1164 -144.3226 -90.1838
ENERGY: 1500000 0.2780 5.9737 8.8668 0.0000 -10666.3345 1444.5912 0.0000 0.0000 1769.0159 -7437.6089 303.4632 -9206.6249 -7443.9108 297.7130 291.7609 292.7380 30076.0473 -98.8921 -47.9662
TCL: Running FEP window   3: Lambda1 0.8999999999999999 Lambda2 0.8499999999999999 [dLambda -0.050000000000000044]
TCL: Setting parameter firsttimestep to 0
TCL: Setting parameter alchLambda to 0.8999999999999999
Info: NONBONDED TABLE R-SQUARED SPACING: 0.0625
Info: NONBONDED TABLE SIZE: 705 POINTS
TCL: Setting parameter alchLambda2 to 0.8499999999999999
Info: NONBONDED TABLE R-SQUARED SPACING: 0.0625
Info: NONBONDED TABLE SIZE: 705 POINTS
TCL: Running for 1500000 steps
ETITLE: TS BOND ANGLE DIHED IMPRP ELECT VDW BOUNDARY MISC KINETIC TOTAL TEMP POTENTIAL TOTALAVG TEMPAVG PRESSURE GPRESSURE VOLUME PRESSAVG GPRESSAVG
ENERGY: 0 0.2780 5.9737 8.8668 0.0000 -10666.1561 1444.4064 0.0000 0.0000 1768.1523 -7438.4789 303.3151 -9206.6312 -7438.4789 303.3151 193.3043 283.7653 30076.0473 193.3043 283.7653
ENERGY: 300000 1.8243 9.6587 7.8644 0.0000 -10654.0344 1439.1081 0.0000 0.0000 1771.1177 -7424.4613 303.8237 -9195.5789 -7407.5963 303.5855 126.3349 166.2057 30221.5562 315.0270 376.0329
ENERGY: 600000 2.1278 6.4428 8.3777 0.0000 -10678.9518 1489.1266 0.0000 0.0000 1659.6577 -7513.2191 284.7035 -9172.8768 -7418.6189 300.8352 393.7145 436.7984 30141.1284 251.9250 311.3355
ENERGY: 900000 0.2819 4.7817 9.0542 0.0000 -10603.7901 1338.5502 0.0000 0.0000 1681.1808 -7569.9412 288.3957 -9251.1220 -7435.7827 300.1242 -929.1499 -866.9026 30123.3164 58.8583 127.9870
ENERGY: 1200000 0.1440 6.7647 8.0867 0.0000 -10592.7725 1376.4248 0.0000 0.0000 1711.9695 -7489.3828 293.6773 -9201.3524 -7440.8621 300.1907 -413.0025 -318.0152 29987.7767 -27.8331 40.2082
ENERGY: 1500000 1.3319 5.9231 9.1287 0.0000 -10618.4595 1409.2464 0.0000 0.0000 1755.8547 -7436.9746 301.2055 -9192.8293 -7437.0676 299.7264 -393.0025 -320.2972 30261.0017 65.6775 131.6672
TCL: Running FEP window   4: Lambda1 0.8499999999999999 Lambda2 0.7999999999999998 [dLambda -0.050000000000000044]
TCL: Setting parameter firsttimestep to 0
TCL: Setting parameter alchLambda to 0.8499999999999999
Info: NONBONDED TABLE R-SQUARED SPACING: 0.0625
Info: NONBONDED TABLE SIZE: 705 POINTS
TCL: Setting parameter alchLambda2 to 0.7999999999999998
Info: NONBONDED TABLE R-SQUARED SPACING: 0.0625
Info: NONBONDED TABLE SIZE: 705 POINTS
TCL: Running for 1500000 steps
ETITLE: TS BOND ANGLE DIHED IMPRP ELECT VDW BOUNDARY MISC KINETIC TOTAL TEMP POTENTIAL TOTALAVG TEMPAVG PRESSURE GPRESSURE VOLUME PRESSAVG GPRESSAVG
ENERGY: 0 1.3319 5.9231 9.1287 0.0000 -10618.3997 1409.1373 0.0000 0.0000 1755.0107 -7437.8679 301.0607 -9192.8786 -7437.8679 301.0607 -406.9863 -327.6503 30261.0017 -406.9863 -327.6503
ENERGY: 300000 0.9258 6.1599 10.8610 0.0000 -10630.9410 1427.9682 0.0000 0.0000 1786.9406 -7398.0854 306.5381 -9185.0260 -7390.3161 305.0410 45.8917 15.7155 30467.8940 -47.9529 9.9809
ENERGY: 600000 0.4395 8.0295 8.9955 0.0000 -10674.9150 1441.1351 0.0000 0.0000 1782.2248 -7434.0907 305.7291 -9216.3154 -7416.7625 302.6237 -9.3508 27.7798 30020.6865 -50.2524 7.7619
ENERGY: 900000 3.2051 11.4746 7.9101 0.0000 -10619.7616 1361.5749 0.0000 0.0000 1764.9310 -7470.6659 302.7625 -9235.5969 -7413.7070 302.2689 -832.0257 -756.2297 30110.6797 -193.3216 -142.3308
ENERGY: 1200000 0.4318 5.7129 7.4823 0.0000 -10693.5226 1517.8565 0.0000 0.0000 1799.1340 -7362.9051 308.6298 -9162.0391 -7420.7661 302.0579 880.7377 1002.7509 29952.1711 -149.1744 -91.8528
ENERGY: 1500000 3.3151 8.9233 8.1953 0.0000 -10419.4349 1253.4120 0.0000 0.0000 1780.3077 -7365.2813 305.4002 -9145.5891 -7416.3812 301.6988 -1307.2808 -1232.7938 30170.6572 -184.2994 -128.4318
TCL: Running FEP window   5: Lambda1 0.7999999999999998 Lambda2 0.7499999999999998 [dLambda -0.050000000000000044]
TCL: Setting parameter firsttimestep to 0
TCL: Setting parameter alchLambda to 0.7999999999999998
Info: NONBONDED TABLE R-SQUARED SPACING: 0.0625
Info: NONBONDED TABLE SIZE: 705 POINTS
TCL: Setting parameter alchLambda2 to 0.7499999999999998
Info: NONBONDED TABLE R-SQUARED SPACING: 0.0625
Info: NONBONDED TABLE SIZE: 705 POINTS
TCL: Running for 1500000 steps
ETITLE: TS BOND ANGLE DIHED IMPRP ELECT VDW BOUNDARY MISC KINETIC TOTAL TEMP POTENTIAL TOTALAVG TEMPAVG PRESSURE GPRESSURE VOLUME PRESSAVG GPRESSAVG
ENERGY: 0 3.3151 8.9233 8.1953 0.0000 -10419.1208 1253.0696 0.0000 0.0000 1779.4551 -7366.1622 305.2540 -9145.6173 -7366.1622 305.2540 -1338.1326 -1245.0992 30170.6572 -1338.1326 -1245.0992
ENERGY: 300000 1.5124 5.6179 7.3825 0.0000 -10578.7955 1421.9989 0.0000 0.0000 1740.2458 -7402.0380 298.5279 -9142.2838 -7411.9208 302.0036 -97.7929 -95.1054 30526.7728 -500.3879 -450.3180
ENERGY: 600000 1.6466 4.1091 11.3878 0.0000 -10714.5116 1488.5162 0.0000 0.0000 1768.2396 -7440.6123 303.3300 -9208.8520 -7400.3605 302.3168 301.2659 330.4806 30414.7649 -318.1939 -266.1309
ENERGY: 900000 2.8601 8.7272 7.9054 0.0000 -10787.4974 1576.3503 0.0000 0.0000 1753.6268 -7438.0277 300.8233 -9191.6545 -7417.1605 300.6773 1156.3789 1261.8931 30034.3211 -78.9492 -12.9984
ENERGY: 1200000 1.8573 6.7994 8.5686 0.0000 -10613.8124 1432.4483 0.0000 0.0000 1676.7199 -7487.4188 287.6304 -9164.1387 -7422.5426 300.0780 145.7190 187.4612 29994.1325 -90.7884 -23.9975
ENERGY: 1500000 0.7804 9.6884 6.9213 0.0000 -10610.6483 1430.2629 0.0000 0.0000 1691.7855 -7471.2098 290.2148 -9162.9953 -7426.0205 299.1918 -79.7943 -9.4749 30234.3237 -59.9486 13.4732
TCL: Running FEP window   6: Lambda1 0.7499999999999998 Lambda2 0.6999999999999997 [dLambda -0.050000000000000044]
TCL: Setting parameter firsttimestep to 0
TCL: Setting parameter alchLambda to 0.7499999999999998
Info: NONBONDED TABLE R-SQUARED SPACING: 0.0625
Info: NONBONDED TABLE SIZE: 705 POINTS
TCL: Setting parameter alchLambda2 to 0.6999999999999997
Info: NONBONDED TABLE R-SQUARED SPACING: 0.0625
Info: NONBONDED TABLE SIZE: 705 POINTS
TCL: Running for 1500000 steps
ETITLE: TS BOND ANGLE DIHED IMPRP ELECT VDW BOUNDARY MISC KINETIC TOTAL TEMP POTENTIAL TOTALAVG TEMPAVG PRESSURE GPRESSURE VOLUME PRESSAVG GPRESSAVG
ENERGY: 0 0.7804 9.6884 6.9213 0.0000 -10610.6139 1430.6153 0.0000 0.0000 1690.9414 -7471.6671 290.0700 -9162.6085 -7471.6671 290.0700 -110.4838 -12.7001 30234.3237 -110.4838 -12.7001
ENERGY: 300000 0.4910 3.2963 6.8218 0.0000 -10713.7362 1483.9990 0.0000 0.0000 1798.9408 -7420.1874 308.5966 -9219.1282 -7413.0059 301.9832 665.8170 645.4189 29940.0145 198.5603 261.2414
ENERGY: 600000 2.0485 8.9266 7.8994 0.0000 -10650.3364 1445.1354 0.0000 0.0000 1680.6485 -7505.6780 288.3043 -9186.3265 -7430.7227 299.0376 188.7812 286.4279 29962.5360 -18.2970 51.1303
ENERGY: 900000 0.9609 9.4285 6.5972 0.0000 -10523.7498 1336.5023 0.0000 0.0000 1739.5759 -7430.6849 298.4130 -9170.2608 -7427.5851 299.7395 -732.5565 -674.2460 30350.2840 -210.9830 -139.6524
ENERGY: 1200000 1.0990 8.4284 7.0142 0.0000 -10739.5439 1466.9109 0.0000 0.0000 1757.6236 -7498.4679 301.5089 -9256.0915 -7435.9506 300.0462 389.2965 396.3675 29789.1119 -76.8214 -19.9661
ENERGY: 1500000 1.0135 4.0294 9.3442 0.0000 -10535.6516 1343.5643 0.0000 0.0000 1742.1313 -7435.5688 298.8513 -9177.7001 -7435.5507 300.1421 -603.5250 -561.5703 30123.3763 -78.2129 -26.7722
TCL: Running FEP window   7: Lambda1 0.6999999999999997 Lambda2 0.6499999999999997 [dLambda -0.050000000000000044]
TCL: Setting parameter firsttimestep to 0
TCL: Setting parameter alchLambda to 0.6999999999999997
Info: NONBONDED TABLE R-SQUARED SPACING: 0.0625
Info: NONBONDED TABLE SIZE: 705 POINTS
TCL: Setting parameter alchLambda2 to 0.6499999999999997
Info: NONBONDED TABLE R-SQUARED SPACING: 0.0625
Info: NONBONDED TABLE SIZE: 705 POINTS
TCL: Running for 1500000 steps
ETITLE: TS BOND ANGLE DIHED IMPRP ELECT VDW BOUNDARY MISC KINETIC TOTAL TEMP POTENTIAL TOTALAVG TEMPAVG PRESSURE GPRESSURE VOLUME PRESSAVG GPRESSAVG
ENERGY: 0 1.0135 4.0294 9.3442 0.0000 -10535.6044 1343.4429 0.0000 0.0000 1741.2527 -7436.5215 298.7006 -9177.7743 -7436.5215 298.7006 -656.4406 -570.3621 30123.3763 -656.4406 -570.3621
ENERGY: 300000 3.5759 4.6951 8.7046 0.0000 -10524.1803 1366.3289 0.0000 0.0000 1742.9781 -7397.8976 298.9966 -9140.8757 -7469.3951 297.4660 -485.9537 -493.5100 30407.3403 -368.2020 -321.5524
ENERGY: 600000 0.2312 4.5755 7.5375 0.0000 -10585.5338 1343.9952 0.0000 0.0000 1782.5382 -7446.6562 305.7829 -9229.1944 -7457.6414 298.0843 -744.1597 -749.5872 30336.1564 -463.2795 -420.8639
ENERGY: 900000 2.3966 11.5153 7.1009 0.0000 -10659.2989 1459.5421 0.0000 0.0000 1750.0005 -7428.7436 300.2012 -9178.7440 -7435.6575 298.7385 -88.0366 -12.2136 30499.1615 -256.9542 -197.4831
ENERGY: 1200000 2.4274 5.5729 8.2547 0.0000 -10576.9264 1402.1569 0.0000 0.0000 1773.7971 -7384.7173 304.2834 -9158.5145 -7425.3854 299.8746 -92.2256 -47.8709 29796.6054 -173.5855 -109.4506
ENERGY: 1500000 2.7370 3.8469 9.4882 0.0000 -10625.1696 1397.2897 0.0000 0.0000 1700.9538 -7510.8541 291.7876 -9211.8078 -7430.8065 299.2436 -479.9628 -429.1303 30023.6925 -208.4873 -142.8757
TCL: Running FEP window   8: Lambda1 0.6499999999999997 Lambda2 0.5999999999999996 [dLambda -0.050000000000000044]
TCL: Setting parameter firsttimestep to 0
TCL: Setting parameter alchLambda to 0.6499999999999997
Info: NONBONDED TABLE R-SQUARED SPACING: 0.0625
Info: NONBONDED TABLE SIZE: 705 POINTS
TCL: Setting parameter alchLambda2 to 0.5999999999999996
Info: NONBONDED TABLE R-SQUARED SPACING: 0.0625
Info: NONBONDED TABLE SIZE: 705 POINTS
TCL: Running for 1500000 steps
ETITLE: TS BOND ANGLE DIHED IMPRP ELECT VDW BOUNDARY MISC KINETIC TOTAL TEMP POTENTIAL TOTALAVG TEMPAVG PRESSURE GPRESSURE VOLUME PRESSAVG GPRESSAVG
ENERGY: 0 2.7370 3.8469 9.4882 0.0000 -10625.0021 1397.3874 0.0000 0.0000 1700.0505 -7511.4922 291.6326 -9211.5427 -7511.4922 291.6326 -523.7590 -434.2041 30023.6925 -523.7590 -434.2041
ENERGY: 300000 1.0192 5.1360 8.4398 0.0000 -10654.2164 1481.1566 0.0000 0.0000 1760.9335 -7397.5312 302.0767 -9158.4647 -7418.3980 304.3813 442.7542 549.6613 29895.4141 130.4119 226.9199
ENERGY: 600000 0.3227 3.3369 10.3804 0.0000 -10628.1955 1483.7462 0.0000 0.0000 1785.3150 -7345.0944 306.2592 -9130.4093 -7412.9022 303.0308 440.7809 553.0924 30320.7085 244.9640 327.8011
ENERGY: 900000 2.4719 7.1848 8.7340 0.0000 -10722.7324 1472.9934 0.0000 0.0000 1805.6242 -7425.7241 309.7431 -9231.3482 -7414.7627 303.2053 65.9062 121.9933 30472.9189 107.5606 191.1014
ENERGY: 1200000 2.3008 6.7519 8.8650 0.0000 -10690.9602 1477.1016 0.0000 0.0000 1742.4140 -7453.5270 298.8998 -9195.9410 -7423.7161 302.6613 49.6398 143.6104 30399.7824 66.2442 143.9245
ENERGY: 1500000 0.8158 6.2009 6.7929 0.0000 -10671.7832 1393.0250 0.0000 0.0000 1755.6285 -7509.3203 301.1667 -9264.9488 -7435.8455 301.8613 -188.6381 -136.8369 29412.8615 84.8361 160.2063
TCL: Running FEP window   9: Lambda1 0.5999999999999996 Lambda2 0.5499999999999996 [dLambda -0.050000000000000044]
TCL: Setting parameter firsttimestep to 0
TCL: Setting parameter alchLambda to 0.5999999999999996
Info: NONBONDED TABLE R-SQUARED SPACING: 0.0625
Info: NONBONDED TABLE SIZE: 705 POINTS
TCL: Setting parameter alchLambda2 to 0.5499999999999996
Info: NONBONDED TABLE R-SQUARED SPACING: 0.0625
Info: NONBONDED TABLE SIZE: 705 POINTS
TCL: Running for 1500000 steps
ETITLE: TS BOND ANGLE DIHED IMPRP ELECT VDW BOUNDARY MISC KINETIC TOTAL TEMP POTENTIAL TOTALAVG TEMPAVG PRESSURE GPRESSURE VOLUME PRESSAVG GPRESSAVG
ENERGY: 0 0.8158 6.2009 6.7929 0.0000 -10671.7200 1392.4974 0.0000 0.0000 1754.7542 -7510.6589 301.0167 -9265.4131 -7510.6589 301.0167 -240.5782 -150.0016 29412.8615 -240.5782 -150.0016
ENERGY: 300000 1.3851 7.9358 7.8964 0.0000 -10593.4966 1433.1590 0.0000 0.0000 1710.7596 -7432.3607 293.4697 -9143.1203 -7479.2958 299.7470 108.7241 208.7791 30158.5772 95.9709 174.0872
ENERGY: 600000 3.4329 6.2589 7.4391 0.0000 -10444.1402 1339.5443 0.0000 0.0000 1804.1581 -7283.3069 309.4916 -9087.4649 -7436.0523 300.9368 -742.0263 -673.9059 30708.9775 -52.2737 2.8951
ENERGY: 900000 0.3807 7.8304 10.9111 0.0000 -10604.5041 1418.5840 0.0000 0.0000 1715.4130 -7451.3850 294.2680 -9166.7980 -7439.7890 300.0759 35.9692 125.5469 30046.3222 -86.7302 -27.8123
ENERGY: 1200000 0.5597 11.2292 8.9469 0.0000 -10565.2342 1383.4465 0.0000 0.0000 1728.4337 -7432.6183 296.5016 -9161.0519 -7440.1336 300.0912 -204.0222 -159.0026 30064.3017 -50.7573 10.1070
ENERGY: 1500000 1.2319 7.0903 9.0095 0.0000 -10733.9699 1516.3624 0.0000 0.0000 1752.6320 -7447.6439 300.6526 -9200.2758 -7438.3865 299.6257 632.4264 670.0183 29857.0958 38.9584 101.3617
TCL: Running FEP window  10: Lambda1 0.5499999999999996 Lambda2 0.4999999999999996 [dLambda -0.04999999999999999]
TCL: Setting parameter firsttimestep to 0
TCL: Setting parameter alchLambda to 0.5499999999999996
Info: NONBONDED TABLE R-SQUARED SPACING: 0.0625
Info: NONBONDED TABLE SIZE: 705 POINTS
TCL: Setting parameter alchLambda2 to 0.4999999999999996
Info: NONBONDED TABLE R-SQUARED SPACING: 0.0625
Info: NONBONDED TABLE SIZE: 705 POINTS
TCL: Running for 1500000 steps
ETITLE: TS BOND ANGLE DIHED IMPRP ELECT VDW BOUNDARY MISC KINETIC TOTAL TEMP POTENTIAL TOTALAVG TEMPAVG PRESSURE GPRESSURE VOLUME PRESSAVG GPRESSAVG
ENERGY: 0 1.2319 7.0903 9.0095 0.0000 -10733.6369 1515.3762 0.0000 0.0000 1751.7298 -7449.1993 300.4979 -9200.9291 -7449.1993 300.4979 566.0429 654.0595 29857.0958 566.0429 654.0595
ENERGY: 300000 0.5353 3.6983 6.9732 0.0000 -10665.9091 1488.7931 0.0000 0.0000 1724.0507 -7441.8584 295.7497 -9165.9092 -7472.5940 294.7297 462.2936 488.0431 30360.4142 62.5506 136.1670
ENERGY: 600000 2.8288 8.6784 10.4774 0.0000 -10718.6823 1513.4858 0.0000 0.0000 1715.7661 -7467.4459 294.3285 -9183.2119 -7448.2412 297.6960 492.5968 591.0907 30041.6563 -19.9495 45.8086
ENERGY: 900000 0.2743 7.2409 8.8763 0.0000 -10731.4246 1521.5602 0.0000 0.0000 1772.7699 -7420.7030 304.1072 -9193.4729 -7443.4695 298.8414 785.1155 817.2381 29946.1809 -21.6978 43.6785
ENERGY: 1200000 1.3067 5.2654 8.7355 0.0000 -10447.3576 1310.1755 0.0000 0.0000 1726.8995 -7394.9750 296.2384 -9121.8745 -7432.7102 299.1819 -965.5361 -948.1985 30404.6592 -107.3758 -42.1076
ENERGY: 1500000 2.6307 4.6823 7.4354 0.0000 -10615.1265 1406.7006 0.0000 0.0000 1702.2410 -7491.4366 292.0084 -9193.6776 -7429.1897 298.9406 -362.1885 -319.1140 30291.4005 -177.9631 -113.8932
TCL: Running FEP window  11: Lambda1 0.4999999999999996 Lambda2 0.4499999999999996 [dLambda -0.04999999999999999]
TCL: Setting parameter firsttimestep to 0
TCL: Setting parameter alchLambda to 0.4999999999999996
Info: NONBONDED TABLE R-SQUARED SPACING: 0.0625
Info: NONBONDED TABLE SIZE: 705 POINTS
TCL: Setting parameter alchLambda2 to 0.4499999999999996
Info: NONBONDED TABLE R-SQUARED SPACING: 0.0625
Info: NONBONDED TABLE SIZE: 705 POINTS
TCL: Running for 1500000 steps
ETITLE: TS BOND ANGLE DIHED IMPRP ELECT VDW BOUNDARY MISC KINETIC TOTAL TEMP POTENTIAL TOTALAVG TEMPAVG PRESSURE GPRESSURE VOLUME PRESSAVG GPRESSAVG
ENERGY: 0 2.6307 4.6823 7.4353 0.0000 -10615.2563 1406.8918 0.0000 0.0000 1701.3471 -7492.2691 291.8551 -9193.6162 -7492.2691 291.8551 -409.6457 -325.3169 30291.4005 -409.6457 -325.3169
ENERGY: 300000 2.4090 3.5474 8.3950 0.0000 -10749.7327 1473.0266 0.0000 0.0000 1718.1904 -7544.1642 294.7444 -9262.3546 -7493.5265 294.6951 175.8477 247.3336 29734.6357 -288.0554 -202.9493
ENERGY: 600000 1.1611 9.3757 8.1177 0.0000 -10544.3076 1393.7764 0.0000 0.0000 1806.5333 -7325.3434 309.8991 -9131.8768 -7432.8774 300.0339 -241.4062 -148.0835 30169.5617 -262.6903 -185.0778
ENERGY: 900000 3.2276 3.5160 7.4495 0.0000 -10540.1285 1443.7726 0.0000 0.0000 1743.8349 -7338.3277 299.1436 -9082.1627 -7423.3161 300.8295 384.1272 507.2459 30129.4667 -106.8355 -30.1033
ENERGY: 1200000 1.3900 9.5935 8.7742 0.0000 -10559.5521 1356.4067 0.0000 0.0000 1790.1127 -7393.2750 307.0822 -9183.3877 -7403.4036 302.4511 -269.9295 -227.0963 29641.9121 -173.4963 -101.6703
ENERGY: 1500000 0.4476 7.9488 9.4969 0.0000 -10703.8299 1489.3771 0.0000 0.0000 1826.0860 -7370.4735 313.2532 -9196.5595 -7402.9314 303.1342 307.8532 370.4812 30251.4909 -106.6284 -33.6631
TCL: Running FEP window  12: Lambda1 0.4499999999999996 Lambda2 0.39999999999999963 [dLambda -0.04999999999999999]
TCL: Setting parameter firsttimestep to 0
TCL: Setting parameter alchLambda to 0.4499999999999996
Info: NONBONDED TABLE R-SQUARED SPACING: 0.0625
Info: NONBONDED TABLE SIZE: 705 POINTS
TCL: Setting parameter alchLambda2 to 0.39999999999999963
Info: NONBONDED TABLE R-SQUARED SPACING: 0.0625
Info: NONBONDED TABLE SIZE: 705 POINTS
TCL: Running for 1500000 steps
ETITLE: TS BOND ANGLE DIHED IMPRP ELECT VDW BOUNDARY MISC KINETIC TOTAL TEMP POTENTIAL TOTALAVG TEMPAVG PRESSURE GPRESSURE VOLUME PRESSAVG GPRESSAVG
ENERGY: 0 0.4476 7.9488 9.4969 0.0000 -10703.8323 1488.5433 0.0000 0.0000 1825.2124 -7372.1832 313.1034 -9197.3956 -7372.1832 313.1034 273.8839 356.9460 30251.4909 273.8839 356.9460
ENERGY: 300000 0.9105 7.4167 8.8080 0.0000 -10574.6258 1380.7236 0.0000 0.0000 1700.2853 -7476.4816 291.6729 -9176.7669 -7409.8768 300.3278 -467.8042 -422.9309 30052.3722 -30.6067 37.2283
ENERGY: 600000 0.2650 5.1440 7.7749 0.0000 -10631.5484 1442.0087 0.0000 0.0000 1787.5956 -7388.7603 306.6504 -9176.3559 -7425.1234 302.6245 147.6592 209.6887 30030.5624 -13.5190 52.4857
ENERGY: 900000 0.6583 8.3054 7.9386 0.0000 -10712.7495 1480.3494 0.0000 0.0000 1711.6486 -7503.8492 293.6222 -9215.4978 -7427.0734 301.5284 354.2199 444.0690 29713.3489 -18.0352 52.9450
ENERGY: 1200000 1.0481 6.2549 7.1571 0.0000 -10650.5957 1377.7419 0.0000 0.0000 1737.0049 -7521.3888 297.9719 -9258.3937 -7427.3109 301.1661 -569.3284 -463.1437 29877.9788 -66.0190 4.9509
ENERGY: 1500000 1.2714 3.7054 7.4723 0.0000 -10717.4686 1487.8764 0.0000 0.0000 1784.7972 -7432.3460 306.1704 -9217.1432 -7425.4440 301.6561 388.7137 457.7673 30034.7324 -24.8471 51.7522
TCL: Running FEP window  13: Lambda1 0.39999999999999963 Lambda2 0.34999999999999964 [dLambda -0.04999999999999999]
TCL: Setting parameter firsttimestep to 0
TCL: Setting parameter alchLambda to 0.39999999999999963
Info: NONBONDED TABLE R-SQUARED SPACING: 0.0625
Info: NONBONDED TABLE SIZE: 705 POINTS
TCL: Setting parameter alchLambda2 to 0.34999999999999964
Info: NONBONDED TABLE R-SQUARED SPACING: 0.0625
Info: NONBONDED TABLE SIZE: 705 POINTS
TCL: Running for 1500000 steps
ETITLE: TS BOND ANGLE DIHED IMPRP ELECT VDW BOUNDARY MISC KINETIC TOTAL TEMP POTENTIAL TOTALAVG TEMPAVG PRESSURE GPRESSURE VOLUME PRESSAVG GPRESSAVG
ENERGY: 0 1.2714 3.7054 7.4723 0.0000 -10717.4680 1487.9883 0.0000 0.0000 1783.9179 -7433.1129 306.0195 -9217.0307 -7433.1129 306.0195 364.8202 454.3911 30034.7324 364.8202 454.3911
ENERGY: 300000 2.8628 7.6819 7.1354 0.0000 -10509.1593 1388.0354 0.0000 0.0000 1768.3880 -7335.0558 303.3555 -9103.4439 -7409.1340 303.1699 -284.6946 -260.8018 30397.5095 106.0208 158.5265
ENERGY: 600000 1.5138 6.3142 7.7304 0.0000 -10661.2239 1442.0168 0.0000 0.0000 1734.5604 -7469.0883 297.5526 -9203.6486 -7435.0290 300.2592 56.6136 89.4515 29921.6929 100.5252 140.2291
ENERGY: 900000 2.9989 9.7528 7.6717 0.0000 -10629.6191 1434.3689 0.0000 0.0000 1776.2559 -7398.5708 304.7052 -9174.8268 -7427.4226 301.7395 107.5110 175.8792 29766.3218 118.8883 152.8470
ENERGY: 1200000 2.0498 5.6874 8.9791 0.0000 -10718.9399 1510.3677 0.0000 0.0000 1717.2048 -7474.6511 294.5753 -9191.8559 -7435.0897 299.9161 395.6164 460.3176 30133.3116 184.1607 213.3864
ENERGY: 1500000 1.9761 7.0861 9.6803 0.0000 -10528.4596 1367.5554 0.0000 0.0000 1734.5554 -7407.6063 297.5517 -9142.1617 -7438.3837 299.0015 -693.8159 -541.8908 30731.0360 133.9311 175.6832
TCL: Running FEP window  14: Lambda1 0.34999999999999964 Lambda2 0.29999999999999966 [dLambda -0.04999999999999999]
TCL: Setting parameter firsttimestep to 0
TCL: Setting parameter alchLambda to 0.34999999999999964
Info: NONBONDED TABLE R-SQUARED SPACING: 0.0625
Info: NONBONDED TABLE SIZE: 705 POINTS
TCL: Setting parameter alchLambda2 to 0.29999999999999966
Info: NONBONDED TABLE R-SQUARED SPACING: 0.0625
Info: NONBONDED TABLE SIZE: 705 POINTS
TCL: Running for 1500000 steps
ETITLE: TS BOND ANGLE DIHED IMPRP ELECT VDW BOUNDARY MISC KINETIC TOTAL TEMP POTENTIAL TOTALAVG TEMPAVG PRESSURE GPRESSURE VOLUME PRESSAVG GPRESSAVG
ENERGY: 0 1.9761 7.0861 9.6803 0.0000 -10528.4601 1367.9964 0.0000 0.0000 1733.7052 -7408.0160 297.4059 -9141.7212 -7408.0160 297.4059 -617.5755 -543.7685 30731.0360 -617.5755 -543.7685
ENERGY: 300000 1.0515 11.3115 9.1343 0.0000 -10473.2277 1349.6897 0.0000 0.0000 1726.2196 -7375.8210 296.1218 -9102.0407 -7440.1520 294.5866 -420.6743 -418.2625 30290.9797 -393.0296 -330.0654
ENERGY: 600000 1.0101 6.4934 9.4720 0.0000 -10522.3885 1368.4336 0.0000 0.0000 1736.9674 -7400.0121 297.9655 -9136.9795 -7410.7537 299.1060 -175.1211 -144.8280 29745.7282 -450.0228 -383.1711
ENERGY: 900000 2.1869 4.4470 8.1071 0.0000 -10468.4182 1362.6949 0.0000 0.0000 1736.5964 -7354.3859 297.9018 -9090.9822 -7397.9552 299.6032 -228.0366 -193.4870 30448.3224 -306.9359 -232.2452
ENERGY: 1200000 0.5003 4.3414 9.7149 0.0000 -10684.8047 1507.4161 0.0000 0.0000 1656.4769 -7506.3550 284.1579 -9162.8320 -7411.4204 298.5304 416.9662 510.2378 30100.6111 -196.0185 -118.1088
ENERGY: 1500000 1.2601 10.9277 7.7426 0.0000 -10556.1970 1378.9373 0.0000 0.0000 1743.5953 -7413.7341 299.1025 -9157.3294 -7409.5120 298.5988 -364.0644 -246.3790 29895.3313 -194.4941 -119.8234
TCL: Running FEP window  15: Lambda1 0.29999999999999966 Lambda2 0.24999999999999967 [dLambda -0.04999999999999999]
TCL: Setting parameter firsttimestep to 0
TCL: Setting parameter alchLambda to 0.29999999999999966
Info: NONBONDED TABLE R-SQUARED SPACING: 0.0625
Info: NONBONDED TABLE SIZE: 705 POINTS
TCL: Setting parameter alchLambda2 to 0.24999999999999967
Info: NONBONDED TABLE R-SQUARED SPACING: 0.0625
Info: NONBONDED TABLE SIZE: 705 POINTS
TCL: Running for 1500000 steps
ETITLE: TS BOND ANGLE DIHED IMPRP ELECT VDW BOUNDARY MISC KINETIC TOTAL TEMP POTENTIAL TOTALAVG TEMPAVG PRESSURE GPRESSURE VOLUME PRESSAVG GPRESSAVG
ENERGY: 0 1.2601 10.9277 7.7426 0.0000 -10556.1969 1378.3248 0.0000 0.0000 1742.7151 -7415.2266 298.9515 -9157.9417 -7415.2266 298.9515 -341.0346 -252.6893 29895.3313 -341.0346 -252.6893
ENERGY: 300000 0.8806 8.0188 7.5680 0.0000 -10625.5465 1488.3629 0.0000 0.0000 1789.0102 -7331.7059 306.8931 -9120.7161 -7377.0355 299.0005 532.3701 585.5310 30324.1997 162.3213 245.2779
ENERGY: 600000 0.5283 3.5693 8.0918 0.0000 -10646.2898 1452.9499 0.0000 0.0000 1770.7426 -7410.4079 303.7594 -9181.1504 -7403.7049 299.8101 159.2311 133.7354 30333.3281 54.3606 104.3816
ENERGY: 900000 2.2295 4.8819 7.2774 0.0000 -10682.9238 1462.5794 0.0000 0.0000 1790.6426 -7415.3130 307.1731 -9205.9556 -7415.5851 299.6759 145.6917 241.7161 29850.2850 136.5592 192.8595
ENERGY: 1200000 2.2186 6.6458 7.2808 0.0000 -10622.0855 1427.8930 0.0000 0.0000 1748.8189 -7429.2284 299.9985 -9178.0472 -7411.3403 299.1240 -224.3304 -231.0619 30590.3183 110.2156 160.9722
ENERGY: 1500000 1.2526 6.4748 8.8565 0.0000 -10667.6661 1467.9665 0.0000 0.0000 1706.0930 -7477.0227 292.6692 -9183.1157 -7421.7033 298.3100 271.4622 322.0897 29923.0264 155.0275 207.3972
TCL: Running FEP window  16: Lambda1 0.24999999999999967 Lambda2 0.19999999999999968 [dLambda -0.04999999999999999]
TCL: Setting parameter firsttimestep to 0
TCL: Setting parameter alchLambda to 0.24999999999999967
Info: NONBONDED TABLE R-SQUARED SPACING: 0.0625
Info: NONBONDED TABLE SIZE: 705 POINTS
TCL: Setting parameter alchLambda2 to 0.19999999999999968
Info: NONBONDED TABLE R-SQUARED SPACING: 0.0625
Info: NONBONDED TABLE SIZE: 705 POINTS
TCL: Running for 1500000 steps
ETITLE: TS BOND ANGLE DIHED IMPRP ELECT VDW BOUNDARY MISC KINETIC TOTAL TEMP POTENTIAL TOTALAVG TEMPAVG PRESSURE GPRESSURE VOLUME PRESSAVG GPRESSAVG
ENERGY: 0 1.2526 6.4748 8.8565 0.0000 -10667.6673 1468.2482 0.0000 0.0000 1705.2482 -7477.5869 292.5243 -9182.8351 -7477.5869 292.5243 231.4349 318.8613 29923.0264 231.4349 318.8613
ENERGY: 300000 1.2155 4.3446 8.0224 0.0000 -10630.6680 1454.5755 0.0000 0.0000 1765.7337 -7396.7765 302.9002 -9162.5101 -7456.7943 293.9703 184.2582 235.9691 30113.6290 -97.7430 -52.1092
ENERGY: 600000 2.2598 6.1245 8.4874 0.0000 -10515.2691 1377.3681 0.0000 0.0000 1759.0873 -7361.9419 301.7600 -9121.0293 -7421.4154 297.3455 -138.1687 -126.4296 29926.5148 -145.4424 -98.9804
ENERGY: 900000 2.1657 4.2940 7.2945 0.0000 -10541.2414 1395.9520 0.0000 0.0000 1725.6975 -7405.8379 296.0322 -9131.5353 -7414.1893 298.7767 -415.1788 -352.0378 30570.9492 -97.4114 -42.9647
ENERGY: 1200000 0.8711 11.0116 10.7854 0.0000 -10630.2058 1443.8749 0.0000 0.0000 1761.6058 -7402.0570 302.1921 -9163.6628 -7417.0989 299.0928 -146.5013 -43.4514 30427.5906 -56.6014 -2.0446
ENERGY: 1500000 1.7276 7.8068 8.2421 0.0000 -10633.9156 1407.7235 0.0000 0.0000 1750.9747 -7457.4408 300.3683 -9208.4155 -7415.5828 299.6866 -245.4548 -177.8279 30062.2075 -62.8716 -10.4612
TCL: Running FEP window  17: Lambda1 0.19999999999999968 Lambda2 0.1499999999999997 [dLambda -0.04999999999999999]
TCL: Setting parameter firsttimestep to 0
TCL: Setting parameter alchLambda to 0.19999999999999968
Info: NONBONDED TABLE R-SQUARED SPACING: 0.0625
Info: NONBONDED TABLE SIZE: 705 POINTS
TCL: Setting parameter alchLambda2 to 0.1499999999999997
Info: NONBONDED TABLE R-SQUARED SPACING: 0.0625
Info: NONBONDED TABLE SIZE: 705 POINTS
TCL: Running for 1500000 steps
ETITLE: TS BOND ANGLE DIHED IMPRP ELECT VDW BOUNDARY MISC KINETIC TOTAL TEMP POTENTIAL TOTALAVG TEMPAVG PRESSURE GPRESSURE VOLUME PRESSAVG GPRESSAVG
ENERGY: 0 1.7276 7.8068 8.2421 0.0000 -10633.9162 1408.0253 0.0000 0.0000 1750.1159 -7457.9985 300.2210 -9208.1144 -7457.9985 300.2210 -288.4456 -178.7696 30062.2075 -288.4456 -178.7696
ENERGY: 300000 2.9902 11.0131 7.5623 0.0000 -10763.9508 1531.8968 0.0000 0.0000 1777.9532 -7432.5351 304.9963 -9210.4882 -7471.0607 299.7442 611.2857 713.4677 29740.7459 -215.7418 -125.9698
ENERGY: 600000 1.1641 6.5199 8.0499 0.0000 -10681.8026 1524.6731 0.0000 0.0000 1767.7881 -7373.6075 303.2526 -9141.3956 -7449.1055 300.8520 824.0528 924.7507 29738.9364 24.6149 98.4693
ENERGY: 900000 0.8165 6.0603 9.0406 0.0000 -10643.7902 1493.2641 0.0000 0.0000 1787.5194 -7347.0894 306.6373 -9134.6087 -7428.0006 302.4396 805.5114 880.9119 29635.3110 90.0943 155.8745
ENERGY: 1200000 2.4488 10.5145 7.9249 0.0000 -10545.4856 1387.2829 0.0000 0.0000 1765.2588 -7372.0557 302.8187 -9137.3145 -7416.1669 303.0226 -156.7123 -142.9766 30141.4771 51.2056 107.9303
ENERGY: 1500000 0.6526 4.7671 9.1159 0.0000 -10504.6473 1369.2753 0.0000 0.0000 1696.7290 -7424.1073 291.0629 -9120.8364 -7411.1108 301.9143 -246.9634 -152.3507 29768.8975 10.4613 72.9440
TCL: Running FEP window  18: Lambda1 0.1499999999999997 Lambda2 0.09999999999999969 [dLambda -0.05 ]
TCL: Setting parameter firsttimestep to 0
TCL: Setting parameter alchLambda to 0.1499999999999997
Info: NONBONDED TABLE R-SQUARED SPACING: 0.0625
Info: NONBONDED TABLE SIZE: 705 POINTS
TCL: Setting parameter alchLambda2 to 0.09999999999999969
Info: NONBONDED TABLE R-SQUARED SPACING: 0.0625
Info: NONBONDED TABLE SIZE: 705 POINTS
TCL: Running for 1500000 steps
ETITLE: TS BOND ANGLE DIHED IMPRP ELECT VDW BOUNDARY MISC KINETIC TOTAL TEMP POTENTIAL TOTALAVG TEMPAVG PRESSURE GPRESSURE VOLUME PRESSAVG GPRESSAVG
ENERGY: 0 0.6526 4.7671 9.1159 0.0000 -10504.6461 1369.3261 0.0000 0.0000 1695.8801 -7424.9043 290.9172 -9120.7844 -7424.9043 290.9172 -226.4424 -154.9717 29768.8975 -226.4424 -154.9717
ENERGY: 300000 4.6170 11.2260 8.2920 0.0000 -10634.8040 1465.7181 0.0000 0.0000 1758.5321 -7386.4187 301.6648 -9144.9508 -7403.8504 298.9504 361.7160 449.0378 29670.1084 -151.5748 -82.9056
ENERGY: 600000 0.6004 6.7823 7.2474 0.0000 -10648.8547 1455.9965 0.0000 0.0000 1728.3684 -7449.8598 296.4904 -9178.2282 -7410.2471 297.4982 196.3970 273.9054 29952.7117 -104.3117 -34.1234
ENERGY: 900000 1.3798 3.7788 7.5556 0.0000 -10598.9532 1427.9583 0.0000 0.0000 1814.0083 -7344.2724 311.1814 -9158.2807 -7414.7849 297.9251 -301.6896 -248.9445 30472.8480 -116.4070 -40.8730
ENERGY: 1200000 1.6848 9.6616 7.6584 0.0000 -10671.3224 1478.3495 0.0000 0.0000 1739.1642 -7434.8039 298.3423 -9173.9681 -7399.4361 299.4994 592.9336 616.1189 29919.6775 -98.6823 -27.8323
ENERGY: 1500000 1.8224 4.9470 7.7762 0.0000 -10687.7972 1470.4638 0.0000 0.0000 1745.9587 -7456.8290 299.5079 -9202.7877 -7402.2057 299.6108 -63.6818 66.7741 30073.5038 -75.0022 -1.6860
TCL: Running FEP window  19: Lambda1 0.09999999999999969 Lambda2 0.049999999999999684 [dLambda -0.05 ]
TCL: Setting parameter firsttimestep to 0
TCL: Setting parameter alchLambda to 0.09999999999999969
Info: NONBONDED TABLE R-SQUARED SPACING: 0.0625
Info: NONBONDED TABLE SIZE: 705 POINTS
TCL: Setting parameter alchLambda2 to 0.049999999999999684
Info: NONBONDED TABLE R-SQUARED SPACING: 0.0625
Info: NONBONDED TABLE SIZE: 705 POINTS
TCL: Running for 1500000 steps
ETITLE: TS BOND ANGLE DIHED IMPRP ELECT VDW BOUNDARY MISC KINETIC TOTAL TEMP POTENTIAL TOTALAVG TEMPAVG PRESSURE GPRESSURE VOLUME PRESSAVG GPRESSAVG
ENERGY: 0 1.8224 4.9470 7.7762 0.0000 -10687.7977 1469.8869 0.0000 0.0000 1745.0526 -7458.3125 299.3525 -9203.3652 -7458.3125 299.3525 -26.9818 61.9242 30073.5038 -26.9818 61.9242
ENERGY: 300000 2.8779 5.6056 8.2418 0.0000 -10679.1013 1445.2493 0.0000 0.0000 1716.6163 -7500.5104 294.4744 -9217.1267 -7438.5596 298.9841 -332.6259 -228.4633 30068.9345 -107.6808 -20.2210
ENERGY: 600000 3.6677 11.4899 7.1753 0.0000 -10570.4920 1408.3164 0.0000 0.0000 1732.5494 -7407.2933 297.2076 -9139.8427 -7453.2133 296.7031 -204.0472 -178.3433 30396.7030 -88.6522 -21.6012
ENERGY: 900000 1.6439 4.5448 11.2413 0.0000 -10493.7791 1382.5938 0.0000 0.0000 1780.6543 -7313.1010 305.4597 -9093.7552 -7432.5674 297.3846 0.0387 119.2601 29711.7929 -80.3824 -8.2698
ENERGY: 1200000 4.2733 10.0596 7.9922 0.0000 -10626.4467 1406.7659 0.0000 0.0000 1672.0541 -7525.3016 286.8300 -9197.3557 -7431.6210 297.5248 -456.8403 -373.6446 30152.7783 -58.9491 12.1949
ENERGY: 1500000 2.6823 6.3886 8.2718 0.0000 -10575.0436 1388.3312 0.0000 0.0000 1767.2666 -7402.1030 303.1631 -9169.3697 -7432.8451 299.0202 -321.8317 -306.8246 30120.3666 -0.1670 62.6076
TCL: Running FEP window  20: Lambda1 0.049999999999999684 Lambda2 0.0    [dLambda -0.049999999999999684]
TCL: Setting parameter firsttimestep to 0
TCL: Setting parameter alchLambda to 0.049999999999999684
Info: NONBONDED TABLE R-SQUARED SPACING: 0.0625
Info: NONBONDED TABLE SIZE: 705 POINTS
TCL: Setting parameter alchLambda2 to 0.0
Info: NONBONDED TABLE R-SQUARED SPACING: 0.0625
Info: NONBONDED TABLE SIZE: 705 POINTS
TCL: Running for 1500000 steps
ETITLE: TS BOND ANGLE DIHED IMPRP ELECT VDW BOUNDARY MISC KINETIC TOTAL TEMP POTENTIAL TOTALAVG TEMPAVG PRESSURE GPRESSURE VOLUME PRESSAVG GPRESSAVG
ENERGY: 0 2.6823 6.3886 8.2718 0.0000 -10575.0429 1388.3814 0.0000 0.0000 1766.3905 -7402.9283 303.0128 -9169.3189 -7402.9283 303.0128 -387.4824 -309.9580 30120.3666 -387.4824 -309.9580
ENERGY: 300000 1.0606 5.7773 7.8234 0.0000 -10707.8793 1521.5233 0.0000 0.0000 1754.6399 -7417.0548 300.9971 -9171.6947 -7371.7084 300.6183 729.0470 790.4669 29782.8252 499.2063 577.6076
ENERGY: 600000 1.5692 7.2232 8.0245 0.0000 -10731.0259 1567.4923 0.0000 0.0000 1730.9002 -7415.8166 296.9247 -9146.7168 -7388.9362 300.4617 1008.7358 1077.5049 30155.5657 295.8698 359.9509
ENERGY: 900000 0.4464 7.2629 8.1606 0.0000 -10561.7638 1390.9108 0.0000 0.0000 1752.7660 -7402.2170 300.6756 -9154.9830 -7392.7727 300.4888 -297.0691 -204.7548 30169.6178 119.5714 187.1277
ENERGY: 1200000 0.8320 6.2416 7.5916 0.0000 -10533.8945 1380.4966 0.0000 0.0000 1781.1744 -7357.5583 305.5489 -9138.7326 -7397.1153 301.0211 -560.8798 -496.4757 30555.9491 -15.1889 46.6165
ENERGY: 1500000 2.1218 4.7518 7.6144 0.0000 -10556.8014 1389.3692 0.0000 0.0000 1769.5459 -7383.3983 303.5541 -9152.9442 -7399.7329 300.9408 -554.1788 -495.6222 30678.4102 -65.5789 -1.2470
TCL: Exiting due to exit command.
