Info: SIMULATION PARAMETERS:
Info: TIMESTEP               2
Info: NUMBER OF STEPS        0
Info: STEPS PER CYCLE        10
Info: PERIODIC CELL BASIS 1  30.6943 0 0
Info: PERIODIC CELL BASIS 2  0 31.39 0
Info: PERIODIC CELL BASIS 3  0 0 31.2716
Info: PERIODIC CELL CENTER   0 0 0
Info: WRAPPING WATERS AROUND PERIODIC BOUNDARIES ON OUTPUT.
Info: WRAPPING ALL CLUSTERS AROUND PERIODIC BOUNDARIES ON OUTPUT.
Info: FIRST LDB TIMESTEP     50
Info: LAST LDB TIMESTEP     -1
Info: HOM BACKGROUND SCALING 1
Info: PME BACKGROUND SCALING 1
Info: MIN ATOMS PER PATCH    40
Info: EMPTY PATCH LOAD       40 ATOMS
Info: VELOCITY FILE          mobley_5760563_equil.vel
Info: CENTER OF MASS MOVING INITIALLY? NO
Info: DIELECTRIC             1
Info: EXCLUDE                SCALED ONE-FOUR
Info: 1-4 ELECTROSTATICS SCALED BY 0.833333
Info: MODIFIED 1-4 VDW PARAMETERS WILL BE USED
Info: DCD FILENAME           mobley_5760563_prod.dcd
Info: DCD FREQUENCY          100000
Info: DCD FIRST STEP         100000
Info: DCD FILE WILL CONTAIN UNIT CELL DATA
Info: XST FILENAME           mobley_5760563_prod.xst
Info: XST FREQUENCY          100000
Info: NO VELOCITY DCD OUTPUT
Info: NO FORCE DCD OUTPUT
Info: OUTPUT FILENAME        mobley_5760563_prod
Info: BINARY OUTPUT FILES WILL BE USED
Info: RESTART FILENAME       mobley_5760563_prod.restart
Info: RESTART FREQUENCY      100000
Info: BINARY RESTART FILES WILL BE USED
Info: CUTOFF                 9
Info: PAIRLIST DISTANCE      11
Info: PAIRLIST SHRINK RATE   0.01
Info: PAIRLIST GROW RATE     0.01
Info: PAIRLIST TRIGGER       0.3
Info: PAIRLISTS PER CYCLE    2
Info: PAIRLISTS ENABLED
Info: MARGIN                 2
Info: HYDROGEN GROUP CUTOFF  2.5
Info: PATCH DIMENSION        15.5
Info: ENERGY OUTPUT STEPS    100000
Info: ENERGY EVALUATION STEPS    100000
Info: OUTPUT ENERGY PRECISION 4
Info: CROSSTERM ENERGY INCLUDED IN DIHEDRAL
Info: TIMING OUTPUT STEPS    1000000
Info: PRESSURE OUTPUT STEPS  100000
Info: ALCHEMICAL FEP ON
Info: FEP CURRENT LAMBDA VALUE     0
Info: FEP COMPARISON LAMBDA VALUE  0.05
Info: FEP INTRA-ALCHEMICAL NON-BONDED INTERACTIONS WILL BE RETAINED
Info: FEP INTRA-ALCHEMICAL BONDED INTERACTIONS WILL BE RETAINED
Info: FEP VDW SHIFTING COEFFICIENT 5
Info: FEP ELEC. ACTIVE FOR ANNIHILATED PARTICLES BETWEEN LAMBDA = 0 AND LAMBDA = 0.5
Info: FEP ELEC. ACTIVE FOR EXNIHILATED PARTICLES BETWEEN LAMBDA = 0.5 AND LAMBDA = 1
Info: FEP VDW ACTIVE FOR ANNIHILATED PARTICLES BETWEEN LAMBDA = 0 AND LAMBDA = 1
Info: FEP VDW ACTIVE FOR EXNIHILATED PARTICLES BETWEEN LAMBDA = 0 AND LAMBDA = 1
Info: FEP BOND ACTIVE FOR ANNIHILATED PARTICLES BETWEEN LAMBDA = 1 AND LAMBDA = 1
Info: FEP BOND ACTIVE FOR EXNIHILATED PARTICLES BETWEEN LAMBDA = 0 AND LAMBDA = 0
Info: LANGEVIN DYNAMICS ACTIVE
Info: LANGEVIN TEMPERATURE   300
Info: LANGEVIN USING BBK INTEGRATOR
Info: LANGEVIN DAMPING COEFFICIENT IS 1 INVERSE PS
Info: LANGEVIN DYNAMICS APPLIED TO HYDROGENS
Info: LANGEVIN PISTON PRESSURE CONTROL ACTIVE
Info:        TARGET PRESSURE IS 1.01325 BAR
Info:     OSCILLATION PERIOD IS 50 FS
Info:             DECAY TIME IS 25 FS
Info:     PISTON TEMPERATURE IS 300 K
Info:       PRESSURE CONTROL IS GROUP-BASED
Info:    INITIAL STRAIN RATE IS -0.000530462 -0.000530462 -0.000530462
Info:       CELL FLUCTUATION IS ISOTROPIC
Info: PARTICLE MESH EWALD (PME) ACTIVE
Info: PME TOLERANCE               1e-06
Info: PME EWALD COEFFICIENT       0.348832
Info: PME INTERPOLATION ORDER     4
Info: PME GRID DIMENSIONS         32 32 32
Info: PME MAXIMUM GRID SPACING    1
Info: PME CALCULATION WILL BE PERFORMED ON GPU
Info: FULL ELECTROSTATIC EVALUATION FREQUENCY      2
Info: USING VERLET I (r-RESPA) MTS SCHEME.
Info: C1 SPLITTING OF LONG RANGE ELECTROSTATICS
Info: PLACING ATOMS IN PATCHES BY HYDROGEN GROUPS
Info: RIGID BONDS TO HYDROGEN : ALL
Info:         ERROR TOLERANCE : 1e-08
Info:          MAX ITERATIONS : 100
Info: RIGID WATER USING SETTLE ALGORITHM
Info: RANDOM NUMBER SEED     1743824391
Info: USE HYDROGEN BONDS?    NO
Info: Using AMBER format force field!
Info: AMBER PARM FILE        mobley_5760563.prmtop
Info: COORDINATE PDB         mobley_5760563.pdb
Info: Exclusions will be read from PARM file!
Info: SCNB (VDW SCALING)     2
Info: USING ARITHMETIC MEAN TO COMBINE L-J SIGMA PARAMETERS
Info: BINARY COORDINATES     mobley_5760563_equil.coor
Info: SUMMARY OF PARAMETERS:
Info: 6 BONDS
Info: 6 ANGLES
Info:   6 HARMONIC
Info:   0 COSINE-BASED
Info: 2 DIHEDRAL
Info: 0 IMPROPER
Info: 0 CROSSTERM
Info: 0 VDW
Info: 28 VDW_PAIRS
Info: 0 NBTHOLE_PAIRS
Info: To read alchdata from file: mobley_5760563.pdb
Info: To read alchflag data from column: 5
Info: STRUCTURE SUMMARY:
Info: 2929 ATOMS
Info: 2928 BONDS
Info: 20 ANGLES
Info: 12 DIHEDRALS
Info: 0 IMPROPERS
Info: 0 CROSSTERMS
Info: 2960 EXCLUSIONS
Info: 2922 RIGID BONDS
Info: ALCH: 0 ATOMS TO DISAPPEAR IN FINAL STATE
Info: ALCH: 13 ATOMS TO APPEAR IN FINAL STATE
Info: 5865 DEGREES OF FREEDOM
Info: 979 HYDROGEN GROUPS
Info: 4 ATOMS IN LARGEST HYDROGEN GROUP
Info: 979 MIGRATION GROUPS
Info: 4 ATOMS IN LARGEST MIGRATION GROUP
Info: TOTAL MASS = 17637.7 amu
Info: TOTAL CHARGE = 0.000100158 e
Info: MASS DENSITY = 0.972081 g/cm^3
Info: ATOM DENSITY = 0.0972123 atoms/A^3
Info: ADDED 0 IMPLICIT EXCLUSIONS
Info: NONBONDED TABLE R-SQUARED SPACING: 0.0625
Info: NONBONDED TABLE SIZE: 705 POINTS
Info: REMOVING COM VELOCITY -0.172102 0.11399 0.0685298
Info: Use 3D box decompostion in PME FFT.
Info: Updated CUDA force table with 4096 elements.
Info: Updated CUDA LJ table with 7 x 7 elements.
Info: Found 16 unique exclusion lists needing 24 bytes
TCL: Running for 1500000 steps
ETITLE: TS BOND ANGLE DIHED IMPRP ELECT VDW BOUNDARY MISC KINETIC TOTAL TEMP POTENTIAL TOTALAVG TEMPAVG PRESSURE GPRESSURE VOLUME PRESSAVG GPRESSAVG
ENERGY: 0 1.2352 7.2108 6.7090 0.0000 -10628.3951 1455.7608 0.0000 0.0000 1735.6743 -7421.8050 297.8452 -9157.4792 -7421.8050 297.8452 291.5524 376.6740 30129.9470 291.5524 376.6740
ENERGY: 300000 0.4362 6.0586 7.5525 0.0000 -10614.5911 1398.4104 0.0000 0.0000 1713.4982 -7488.6352 294.0397 -9202.1334 -7451.7480 297.3789 -498.6438 -417.0871 30289.6522 34.9142 129.1549
ENERGY: 600000 2.1658 6.8619 8.0176 0.0000 -10869.4988 1567.7611 0.0000 0.0000 1707.0435 -7577.6490 292.9321 -9284.6924 -7482.1840 297.0135 1129.4720 1191.1822 29494.7481 58.3307 140.8037
ENERGY: 900000 0.8804 4.9994 7.6432 0.0000 -10579.4387 1330.9009 0.0000 0.0000 1717.2958 -7517.7190 294.6914 -9235.0148 -7476.5674 297.6936 -732.2377 -616.8128 29715.5378 -49.7821 30.5732
ENERGY: 1200000 1.2914 5.4676 7.4751 0.0000 -10629.0185 1434.6186 0.0000 0.0000 1799.6076 -7380.5582 308.8163 -9180.1658 -7459.5584 298.9226 210.5940 288.8573 30054.6193 -29.1501 43.0983
ENERGY: 1500000 1.4704 5.8819 7.2447 0.0000 -10746.6808 1475.2139 0.0000 0.0000 1752.2958 -7504.5740 300.6975 -9256.8698 -7463.3043 299.3340 283.1616 331.5283 29784.4093 35.5662 104.8425
TCL: Running FEP window   2: Lambda1 0.05   Lambda2 0.1    [dLambda 0.05  ]
TCL: Setting parameter firsttimestep to 0
TCL: Setting parameter alchLambda to 0.05
Info: NONBONDED TABLE R-SQUARED SPACING: 0.0625
Info: NONBONDED TABLE SIZE: 705 POINTS
TCL: Setting parameter alchLambda2 to 0.1
Info: NONBONDED TABLE R-SQUARED SPACING: 0.0625
Info: NONBONDED TABLE SIZE: 705 POINTS
TCL: Running for 1500000 steps
ETITLE: TS BOND ANGLE DIHED IMPRP ELECT VDW BOUNDARY MISC KINETIC TOTAL TEMP POTENTIAL TOTALAVG TEMPAVG PRESSURE GPRESSURE VOLUME PRESSAVG GPRESSAVG
ENERGY: 0 1.4704 5.8819 7.2447 0.0000 -10746.6802 1477.2042 0.0000 0.0000 1751.4027 -7503.4763 300.5442 -9254.8790 -7503.4763 300.5442 249.6535 333.1705 29784.4093 249.6535 333.1705
ENERGY: 300000 1.7572 7.4553 8.3008 0.0000 -10816.1105 1492.4899 0.0000 0.0000 1789.8836 -7516.2237 307.1476 -9306.1073 -7478.7373 303.4034 491.0825 541.1062 29379.8315 349.1832 421.3808
ENERGY: 600000 2.8857 2.9144 6.9431 0.0000 -10723.0540 1497.8994 0.0000 0.0000 1794.6158 -7417.7956 307.9597 -9212.4114 -7442.8146 302.9548 608.1005 569.6569 29937.6288 281.1747 331.4720
ENERGY: 900000 1.0009 7.4743 6.7773 0.0000 -10610.4815 1399.4968 0.0000 0.0000 1795.4918 -7400.2405 308.1100 -9195.7322 -7440.4439 303.5115 -285.9810 -297.0050 30177.9099 158.6813 202.4799
ENERGY: 1200000 1.3353 7.0047 6.6755 0.0000 -10669.4407 1447.5391 0.0000 0.0000 1703.4290 -7503.4571 292.3118 -9206.8861 -7453.1263 301.8209 95.7674 72.1675 30062.5709 143.0074 183.7680
ENERGY: 1500000 0.7605 7.1674 6.2176 0.0000 -10621.4208 1428.4759 0.0000 0.0000 1708.1203 -7470.6790 293.1169 -9178.7993 -7455.9301 301.4654 383.9834 496.0598 29412.4247 196.4377 242.5240
TCL: Running FEP window   3: Lambda1 0.1    Lambda2 0.15000000000000002 [dLambda 0.05000000000000002]
TCL: Setting parameter firsttimestep to 0
TCL: Setting parameter alchLambda to 0.1
Info: NONBONDED TABLE R-SQUARED SPACING: 0.0625
Info: NONBONDED TABLE SIZE: 705 POINTS
TCL: Setting parameter alchLambda2 to 0.15000000000000002
Info: NONBONDED TABLE R-SQUARED SPACING: 0.0625
Info: NONBONDED TABLE SIZE: 705 POINTS
TCL: Running for 1500000 steps
ETITLE: TS BOND ANGLE DIHED IMPRP ELECT VDW BOUNDARY MISC KINETIC TOTAL TEMP POTENTIAL TOTALAVG TEMPAVG PRESSURE GPRESSURE VOLUME PRESSAVG GPRESSAVG
ENERGY: 0 0.7605 7.1674 6.2176 0.0000 -10621.4207 1429.1120 0.0000 0.0000 1707.2555 -7470.9076 292.9685 -9178.1631 -7470.9076 292.9685 417.5811 502.0564 29412.4247 417.5811 502.0564
ENERGY: 300000 3.8347 6.0071 6.4052 0.0000 -10608.4413 1440.2785 0.0000 0.0000 1707.8409 -7444.0749 293.0689 -9151.9158 -7457.6693 296.5861 -46.5169 -18.2947 30554.1607 -57.2661 -5.2847
ENERGY: 600000 2.9580 6.8844 7.2546 0.0000 -10841.0525 1514.7273 0.0000 0.0000 1731.8923 -7577.3358 297.1962 -9309.2280 -7471.7949 298.8788 127.6299 281.6524 30199.1891 125.4508 199.3555
ENERGY: 900000 0.8310 4.8742 7.3897 0.0000 -10637.9474 1409.3769 0.0000 0.0000 1729.8902 -7485.5854 296.8526 -9215.4756 -7467.0342 300.4793 -259.3610 -216.5978 30229.4744 90.4909 161.3301
ENERGY: 1200000 0.2723 6.1484 9.0017 0.0000 -10603.6980 1374.8210 0.0000 0.0000 1736.4873 -7476.9674 297.9847 -9213.4547 -7472.9420 301.0551 -509.6964 -436.8357 30046.6433 -26.9788 43.2698
ENERGY: 1500000 3.5805 3.0527 7.8746 0.0000 -10710.1492 1467.7691 0.0000 0.0000 1735.4707 -7492.4017 297.8103 -9227.8724 -7479.4835 300.5587 415.4103 465.3683 29599.3473 12.8797 82.7223
TCL: Running FEP window   4: Lambda1 0.15000000000000002 Lambda2 0.2    [dLambda 0.04999999999999999]
TCL: Setting parameter firsttimestep to 0
TCL: Setting parameter alchLambda to 0.15000000000000002
Info: NONBONDED TABLE R-SQUARED SPACING: 0.0625
Info: NONBONDED TABLE SIZE: 705 POINTS
TCL: Setting parameter alchLambda2 to 0.2
Info: NONBONDED TABLE R-SQUARED SPACING: 0.0625
Info: NONBONDED TABLE SIZE: 705 POINTS
TCL: Running for 1500000 steps
ETITLE: TS BOND ANGLE DIHED IMPRP ELECT VDW BOUNDARY MISC KINETIC TOTAL TEMP POTENTIAL TOTALAVG TEMPAVG PRESSURE GPRESSURE VOLUME PRESSAVG GPRESSAVG
ENERGY: 0 3.5805 3.0527 7.8746 0.0000 -10710.1497 1468.6943 0.0000 0.0000 1734.6023 -7492.3454 297.6612 -9226.9476 -7492.3454 297.6612 400.3040 473.4812 29599.3473 400.3040 473.4812
ENERGY: 300000 2.0616 10.3194 6.9229 0.0000 -10708.1354 1503.5731 0.0000 0.0000 1740.7318 -7444.5265 298.7131 -9185.2583 -7462.1804 297.9623 709.5590 734.9990 30084.1894 105.0124 156.2387
ENERGY: 600000 1.8668 2.1516 6.9208 0.0000 -10692.8792 1465.5766 0.0000 0.0000 1696.3568 -7520.0065 291.0982 -9216.3634 -7450.9579 297.4449 13.6029 101.5588 30119.1765 145.2834 191.5099
ENERGY: 900000 3.6461 4.0724 7.8354 0.0000 -10664.2550 1393.7314 0.0000 0.0000 1734.4314 -7520.5383 297.6319 -9254.9697 -7463.2224 297.7736 -560.9849 -574.5035 30594.8544 28.2227 67.6999
ENERGY: 1200000 1.8023 4.3560 7.1093 0.0000 -10694.5739 1384.4899 0.0000 0.0000 1728.3252 -7568.4911 296.5841 -9296.8163 -7480.9309 297.8900 -706.3990 -559.3903 29910.4093 -77.8285 -33.6097
ENERGY: 1500000 1.4559 5.2323 7.7070 0.0000 -10578.7695 1362.4273 0.0000 0.0000 1681.7299 -7520.2170 288.5882 -9201.9469 -7486.5968 297.1799 -791.9201 -732.4968 30625.1649 -111.4477 -68.6608
TCL: Running FEP window   5: Lambda1 0.2    Lambda2 0.25   [dLambda 0.04999999999999999]
TCL: Setting parameter firsttimestep to 0
TCL: Setting parameter alchLambda to 0.2
Info: NONBONDED TABLE R-SQUARED SPACING: 0.0625
Info: NONBONDED TABLE SIZE: 705 POINTS
TCL: Setting parameter alchLambda2 to 0.25
Info: NONBONDED TABLE R-SQUARED SPACING: 0.0625
Info: NONBONDED TABLE SIZE: 705 POINTS
TCL: Running for 1500000 steps
ETITLE: TS BOND ANGLE DIHED IMPRP ELECT VDW BOUNDARY MISC KINETIC TOTAL TEMP POTENTIAL TOTALAVG TEMPAVG PRESSURE GPRESSURE VOLUME PRESSAVG GPRESSAVG
ENERGY: 0 1.4559 5.2323 7.7070 0.0000 -10578.7692 1363.5348 0.0000 0.0000 1680.8737 -7519.9655 288.4413 -9200.8392 -7519.9655 288.4413 -815.9834 -725.2322 30625.1649 -815.9834 -725.2322
ENERGY: 300000 0.5057 8.5603 7.2832 0.0000 -10672.1117 1457.8300 0.0000 0.0000 1758.9193 -7439.0133 301.8341 -9197.9325 -7480.0623 297.6326 245.5402 316.0936 30132.8960 -140.6603 -88.5850
ENERGY: 600000 2.8126 3.7649 8.0547 0.0000 -10579.9780 1358.9413 0.0000 0.0000 1749.0370 -7457.3675 300.1383 -9206.4046 -7477.2579 297.9168 -517.8902 -436.4587 29930.9246 -239.5333 -185.0404
ENERGY: 900000 0.9604 6.0258 9.4978 0.0000 -10581.8405 1368.8263 0.0000 0.0000 1778.7183 -7417.8120 305.2316 -9196.5303 -7459.9480 300.2017 -421.2868 -332.9855 30066.4470 -241.0275 -174.1059
ENERGY: 1200000 2.7490 5.6484 7.3096 0.0000 -10598.0207 1373.5524 0.0000 0.0000 1704.1508 -7504.6105 292.4357 -9208.7613 -7463.5639 300.0382 -215.0131 -180.8543 29825.1336 -270.8527 -207.8952
ENERGY: 1500000 1.0345 6.5410 8.3276 0.0000 -10595.9002 1397.2552 0.0000 0.0000 1724.9658 -7457.7762 296.0076 -9182.7420 -7465.5940 299.2510 -364.0265 -255.3405 30048.0355 -157.4516 -96.7758
TCL: Running FEP window   6: Lambda1 0.25   Lambda2 0.3    [dLambda 0.04999999999999999]
TCL: Setting parameter firsttimestep to 0
TCL: Setting parameter alchLambda to 0.25
Info: NONBONDED TABLE R-SQUARED SPACING: 0.0625
Info: NONBONDED TABLE SIZE: 705 POINTS
TCL: Setting parameter alchLambda2 to 0.3
Info: NONBONDED TABLE R-SQUARED SPACING: 0.0625
Info: NONBONDED TABLE SIZE: 705 POINTS
TCL: Running for 1500000 steps
ETITLE: TS BOND ANGLE DIHED IMPRP ELECT VDW BOUNDARY MISC KINETIC TOTAL TEMP POTENTIAL TOTALAVG TEMPAVG PRESSURE GPRESSURE VOLUME PRESSAVG GPRESSAVG
ENERGY: 0 1.0345 6.5410 8.3276 0.0000 -10595.9008 1397.3430 0.0000 0.0000 1724.0682 -7458.5866 295.8536 -9182.6548 -7458.5866 295.8536 -335.6573 -252.7659 30048.0355 -335.6573 -252.7659
ENERGY: 300000 2.7611 5.9610 7.0121 0.0000 -10658.7674 1435.5881 0.0000 0.0000 1809.3981 -7398.0470 310.4963 -9207.4451 -7426.7916 300.6842 -50.7836 16.7749 30059.3511 -150.3094 -76.5351
ENERGY: 600000 0.8989 2.6659 8.8593 0.0000 -10805.0449 1477.0548 0.0000 0.0000 1754.2193 -7561.3467 301.0276 -9315.5660 -7466.5049 300.3745 292.1403 285.7057 29799.1573 74.4552 137.7593
ENERGY: 900000 3.1624 4.0263 6.5883 0.0000 -10589.3806 1416.4256 0.0000 0.0000 1724.7346 -7434.4434 295.9679 -9159.1780 -7454.0946 300.2332 188.9334 243.3647 29940.5473 224.2272 291.5910
ENERGY: 1200000 1.6590 2.8127 6.6558 0.0000 -10479.8249 1351.7179 0.0000 0.0000 1751.2041 -7365.7754 300.5101 -9116.9795 -7458.1381 299.9292 -415.9581 -402.7305 30290.5074 90.5086 149.3079
ENERGY: 1500000 2.4743 4.0786 6.9386 0.0000 -10589.5229 1421.3188 0.0000 0.0000 1694.6402 -7460.0724 290.8037 -9154.7127 -7468.2090 298.7759 -56.9270 -4.2748 30367.8581 97.2886 153.3395
TCL: Running FEP window   7: Lambda1 0.3    Lambda2 0.35   [dLambda 0.04999999999999999]
TCL: Setting parameter firsttimestep to 0
TCL: Setting parameter alchLambda to 0.3
Info: NONBONDED TABLE R-SQUARED SPACING: 0.0625
Info: NONBONDED TABLE SIZE: 705 POINTS
TCL: Setting parameter alchLambda2 to 0.35
Info: NONBONDED TABLE R-SQUARED SPACING: 0.0625
Info: NONBONDED TABLE SIZE: 705 POINTS
TCL: Running for 1500000 steps
ETITLE: TS BOND ANGLE DIHED IMPRP ELECT VDW BOUNDARY MISC KINETIC TOTAL TEMP POTENTIAL TOTALAVG TEMPAVG PRESSURE GPRESSURE VOLUME PRESSAVG GPRESSAVG
ENERGY: 0 2.4743 4.0786 6.9386 0.0000 -10589.5218 1421.5214 0.0000 0.0000 1693.7637 -7460.7453 290.6532 -9154.5090 -7460.7453 290.6532 -92.8171 -0.1630 30367.8581 -92.8171 -0.1630
ENERGY: 300000 0.6903 5.5952 7.5763 0.0000 -10542.8278 1369.7730 0.0000 0.0000 1760.7234 -7398.4695 302.1437 -9159.1930 -7472.9606 298.1712 -517.0947 -454.5655 30726.1284 -254.3442 -207.5392
ENERGY: 600000 0.4935 5.6315 6.7288 0.0000 -10618.1941 1360.0141 0.0000 0.0000 1789.8605 -7455.4657 307.1437 -9245.3261 -7476.3106 298.7236 -403.2418 -332.4811 29894.7301 -181.6081 -129.5447
ENERGY: 900000 5.0836 6.7571 7.6728 0.0000 -10621.5465 1396.4250 0.0000 0.0000 1738.5812 -7467.0269 298.3440 -9205.6081 -7469.5749 299.9226 -486.3025 -394.2002 30408.1409 -222.9165 -170.5343
ENERGY: 1200000 1.3303 4.6195 6.9441 0.0000 -10666.0039 1501.9193 0.0000 0.0000 1795.1282 -7356.0624 308.0476 -9151.1907 -7457.9460 300.7918 874.6640 874.4634 30046.2341 -59.5753 -10.3034
ENERGY: 1500000 2.0105 4.7044 6.3794 0.0000 -10679.2806 1517.3956 0.0000 0.0000 1804.6949 -7344.0959 309.6893 -9148.7908 -7452.2374 301.7179 972.4295 1008.4759 30076.2508 83.9655 136.4927
TCL: Running FEP window   8: Lambda1 0.35   Lambda2 0.39999999999999997 [dLambda 0.04999999999999999]
TCL: Setting parameter firsttimestep to 0
TCL: Setting parameter alchLambda to 0.35
Info: NONBONDED TABLE R-SQUARED SPACING: 0.0625
Info: NONBONDED TABLE SIZE: 705 POINTS
TCL: Setting parameter alchLambda2 to 0.39999999999999997
Info: NONBONDED TABLE R-SQUARED SPACING: 0.0625
Info: NONBONDED TABLE SIZE: 705 POINTS
TCL: Running for 1500000 steps
ETITLE: TS BOND ANGLE DIHED IMPRP ELECT VDW BOUNDARY MISC KINETIC TOTAL TEMP POTENTIAL TOTALAVG TEMPAVG PRESSURE GPRESSURE VOLUME PRESSAVG GPRESSAVG
ENERGY: 0 2.0105 4.7044 6.3794 0.0000 -10679.2785 1518.3192 0.0000 0.0000 1803.8290 -7344.0361 309.5407 -9147.8650 -7344.0361 309.5407 936.9487 1018.9580 30076.2508 936.9487 1018.9580
ENERGY: 300000 2.0934 3.9490 7.8911 0.0000 -10636.7760 1481.1959 0.0000 0.0000 1693.7904 -7447.8562 290.6578 -9141.6466 -7408.9478 301.4678 327.1523 416.3320 30288.5886 394.7479 458.5749
ENERGY: 600000 4.5860 5.8120 6.8117 0.0000 -10736.9710 1490.2514 0.0000 0.0000 1787.0744 -7442.4354 306.6656 -9229.5097 -7433.1036 301.7584 292.8047 395.8101 30102.5072 211.0743 282.3241
ENERGY: 900000 1.1124 3.0480 7.2995 0.0000 -10743.3211 1480.4491 0.0000 0.0000 1706.4250 -7544.9871 292.8260 -9251.4121 -7440.3426 300.9322 430.3776 512.8076 29682.3049 134.5682 205.7529
ENERGY: 1200000 0.4785 3.7250 6.9484 0.0000 -10555.6104 1421.8208 0.0000 0.0000 1731.6086 -7391.0291 297.1475 -9122.6377 -7440.5517 300.6980 -172.8359 -35.1427 30583.8227 154.5562 231.1415
ENERGY: 1500000 1.7563 4.0904 7.3350 0.0000 -10683.1760 1424.9756 0.0000 0.0000 1732.3807 -7512.6380 297.2800 -9245.0188 -7449.0340 300.2741 -126.1733 -102.2740 30175.2667 137.6521 210.1687
TCL: Running FEP window   9: Lambda1 0.39999999999999997 Lambda2 0.44999999999999996 [dLambda 0.04999999999999999]
TCL: Setting parameter firsttimestep to 0
TCL: Setting parameter alchLambda to 0.39999999999999997
Info: NONBONDED TABLE R-SQUARED SPACING: 0.0625
Info: NONBONDED TABLE SIZE: 705 POINTS
TCL: Setting parameter alchLambda2 to 0.44999999999999996
Info: NONBONDED TABLE R-SQUARED SPACING: 0.0625
Info: NONBONDED TABLE SIZE: 705 POINTS
TCL: Running for 1500000 steps
ETITLE: TS BOND ANGLE DIHED IMPRP ELECT VDW BOUNDARY MISC KINETIC TOTAL TEMP POTENTIAL TOTALAVG TEMPAVG PRESSURE GPRESSURE VOLUME PRESSAVG GPRESSAVG
ENERGY: 0 1.7563 4.0904 7.3350 0.0000 -10683.1765 1424.5985 0.0000 0.0000 1731.5408 -7513.8556 297.1359 -9245.3964 -7513.8556 297.1359 -179.1187 -98.4966 30175.2667 -179.1187 -98.4966
ENERGY: 300000 1.6000 3.7062 7.5696 0.0000 -10601.8959 1373.2062 0.0000 0.0000 1793.3765 -7422.4374 307.7470 -9215.8139 -7454.7879 300.8715 -458.9683 -413.6968 30614.1173 -254.4311 -203.8524
ENERGY: 600000 1.3374 4.9323 6.8878 0.0000 -10508.9906 1323.0667 0.0000 0.0000 1781.2826 -7391.4838 305.6717 -9172.7664 -7440.7475 301.6589 -869.6214 -847.8804 30435.2201 -306.7215 -265.7269
ENERGY: 900000 2.0350 7.5608 7.8590 0.0000 -10640.7670 1437.9531 0.0000 0.0000 1692.2685 -7493.0905 290.3967 -9185.3591 -7447.1085 300.6431 -78.3141 -51.7877 30459.3979 -254.6142 -207.4200
ENERGY: 1200000 0.5283 7.5132 7.0378 0.0000 -10630.5661 1356.9053 0.0000 0.0000 1738.4275 -7520.1539 298.3177 -9258.5814 -7455.4490 300.4965 -624.0419 -558.9183 29911.4526 -162.8541 -114.7306
ENERGY: 1500000 0.9297 5.7318 7.9028 0.0000 -10803.2246 1489.3876 0.0000 0.0000 1783.1958 -7516.0769 306.0000 -9299.2727 -7444.4995 301.6663 525.9804 526.7106 29532.2853 -56.3252 -12.6126
TCL: Running FEP window  10: Lambda1 0.44999999999999996 Lambda2 0.49999999999999994 [dLambda 0.04999999999999999]
TCL: Setting parameter firsttimestep to 0
TCL: Setting parameter alchLambda to 0.44999999999999996
Info: NONBONDED TABLE R-SQUARED SPACING: 0.0625
Info: NONBONDED TABLE SIZE: 705 POINTS
TCL: Setting parameter alchLambda2 to 0.49999999999999994
Info: NONBONDED TABLE R-SQUARED SPACING: 0.0625
Info: NONBONDED TABLE SIZE: 705 POINTS
TCL: Running for 1500000 steps
ETITLE: TS BOND ANGLE DIHED IMPRP ELECT VDW BOUNDARY MISC KINETIC TOTAL TEMP POTENTIAL TOTALAVG TEMPAVG PRESSURE GPRESSURE VOLUME PRESSAVG GPRESSAVG
ENERGY: 0 0.9297 5.7318 7.9028 0.0000 -10803.2255 1489.1701 0.0000 0.0000 1782.2996 -7517.1914 305.8462 -9299.4910 -7517.1914 305.8462 432.5670 530.6394 29532.2853 432.5670 530.6394
ENERGY: 300000 1.7334 3.9203 7.0471 0.0000 -10578.6683 1324.7620 0.0000 0.0000 1708.7561 -7532.4494 293.2260 -9241.2055 -7519.4582 296.3988 -1088.6230 -1043.3785 30405.2995 -397.8910 -333.1111
ENERGY: 600000 6.0133 3.9195 6.5472 0.0000 -10585.4739 1370.8932 0.0000 0.0000 1721.5996 -7476.5011 295.4299 -9198.1007 -7507.1404 296.3895 -380.8325 -322.3368 30096.1698 -233.2696 -177.2346
ENERGY: 900000 1.6483 5.0206 7.1637 0.0000 -10622.3845 1368.5776 0.0000 0.0000 1721.4506 -7518.5238 295.4044 -9239.9743 -7505.6230 296.9516 -651.7597 -638.8100 29974.5184 -235.9747 -190.1491
ENERGY: 1200000 2.9605 6.7708 8.2245 0.0000 -10827.6962 1530.1564 0.0000 0.0000 1790.6386 -7488.9455 307.2772 -9279.5840 -7494.5404 298.6702 898.3308 909.1279 29573.8415 -117.2275 -72.3077
ENERGY: 1500000 3.2078 3.7577 7.6049 0.0000 -10763.4536 1495.5094 0.0000 0.0000 1700.4852 -7552.8887 291.8067 -9253.3738 -7503.5058 297.5052 142.0522 256.5279 30027.5444 -30.5498 19.7999
TCL: Running FEP window  11: Lambda1 0.49999999999999994 Lambda2 0.5499999999999999 [dLambda 0.04999999999999999]
TCL: Setting parameter firsttimestep to 0
TCL: Setting parameter alchLambda to 0.49999999999999994
Info: NONBONDED TABLE R-SQUARED SPACING: 0.0625
Info: NONBONDED TABLE SIZE: 705 POINTS
TCL: Setting parameter alchLambda2 to 0.5499999999999999
Info: NONBONDED TABLE R-SQUARED SPACING: 0.0625
Info: NONBONDED TABLE SIZE: 705 POINTS
TCL: Running for 1500000 steps
ETITLE: TS BOND ANGLE DIHED IMPRP ELECT VDW BOUNDARY MISC KINETIC TOTAL TEMP POTENTIAL TOTALAVG TEMPAVG PRESSURE GPRESSURE VOLUME PRESSAVG GPRESSAVG
ENERGY: 0 3.2078 3.7577 7.6049 0.0000 -10763.4528 1497.1059 0.0000 0.0000 1699.6240 -7552.1526 291.6589 -9251.7766 -7552.1526 291.6589 197.5230 276.5101 30027.5444 197.5230 276.5101
ENERGY: 300000 2.9983 8.0462 7.5506 0.0000 -10739.0928 1497.8570 0.0000 0.0000 1737.2775 -7485.3632 298.1203 -9222.6407 -7459.5153 298.5594 593.6832 666.9560 29747.5058 21.5438 92.7535
ENERGY: 600000 1.1901 5.5531 7.3214 0.0000 -10682.5895 1439.4525 0.0000 0.0000 1754.0541 -7475.0183 300.9992 -9229.0724 -7440.0121 300.2212 -61.5259 10.3019 30186.1125 17.2866 78.0493
ENERGY: 900000 0.6275 2.0837 7.1969 0.0000 -10584.2137 1385.2123 0.0000 0.0000 1753.0533 -7436.0400 300.8275 -9189.0933 -7456.7248 299.8704 -161.0512 -121.4588 29993.1298 56.2534 124.6409
ENERGY: 1200000 0.4615 5.8010 7.7930 0.0000 -10694.9125 1479.0852 0.0000 0.0000 1686.1662 -7515.6055 289.3495 -9201.7717 -7451.5481 299.4227 246.6132 355.0319 30065.9602 -2.2050 70.1166
ENERGY: 1500000 3.2573 5.5465 7.2687 0.0000 -10521.9147 1353.9454 0.0000 0.0000 1785.3979 -7366.4990 306.3779 -9151.8969 -7444.7620 299.7193 -378.5237 -401.9006 30383.6379 -15.5230 51.5880
TCL: Running FEP window  12: Lambda1 0.5499999999999999 Lambda2 0.6    [dLambda 0.050000000000000044]
TCL: Setting parameter firsttimestep to 0
TCL: Setting parameter alchLambda to 0.5499999999999999
Info: NONBONDED TABLE R-SQUARED SPACING: 0.0625
Info: NONBONDED TABLE SIZE: 705 POINTS
TCL: Setting parameter alchLambda2 to 0.6
Info: NONBONDED TABLE R-SQUARED SPACING: 0.0625
Info: NONBONDED TABLE SIZE: 705 POINTS
TCL: Running for 1500000 steps
ETITLE: TS BOND ANGLE DIHED IMPRP ELECT VDW BOUNDARY MISC KINETIC TOTAL TEMP POTENTIAL TOTALAVG TEMPAVG PRESSURE GPRESSURE VOLUME PRESSAVG GPRESSAVG
ENERGY: 0 3.2573 5.5465 7.2687 0.0000 -10522.1608 1354.3321 0.0000 0.0000 1784.5618 -7367.1945 306.2344 -9151.7563 -7367.1945 306.2344 -462.4151 -394.1239 30383.6379 -462.4151 -394.1239
ENERGY: 300000 1.4835 6.4655 6.9550 0.0000 -10690.6307 1458.6431 0.0000 0.0000 1723.6809 -7493.4027 295.7871 -9217.0836 -7461.7765 299.5199 395.2785 459.7101 29884.2866 -346.3173 -289.6765
ENERGY: 600000 1.8270 7.4379 7.7271 0.0000 -10659.9456 1438.3646 0.0000 0.0000 1735.8884 -7468.7006 297.8819 -9204.5890 -7483.3721 298.4654 -38.8589 -20.1765 30306.7211 -122.3110 -62.1106
ENERGY: 900000 4.0728 5.3127 8.0040 0.0000 -10712.2481 1441.9516 0.0000 0.0000 1743.9095 -7508.9976 299.2584 -9252.9071 -7492.6083 297.9224 -400.3509 -394.6368 30775.8411 -174.9851 -127.6973
ENERGY: 1200000 1.7705 4.5783 6.9724 0.0000 -10796.1571 1512.4832 0.0000 0.0000 1777.0210 -7493.3318 304.9404 -9270.3527 -7478.3219 298.8651 660.0067 688.6167 29977.3218 -101.1598 -53.8900
ENERGY: 1500000 0.8988 4.2152 7.4146 0.0000 -10649.5173 1463.5937 0.0000 0.0000 1685.5954 -7487.7995 289.2516 -9173.3950 -7474.3750 297.7348 694.0518 706.0534 29782.6459 34.0101 82.5660
TCL: Running FEP window  13: Lambda1 0.6    Lambda2 0.65   [dLambda 0.050000000000000044]
TCL: Setting parameter firsttimestep to 0
TCL: Setting parameter alchLambda to 0.6
Info: NONBONDED TABLE R-SQUARED SPACING: 0.0625
Info: NONBONDED TABLE SIZE: 705 POINTS
TCL: Setting parameter alchLambda2 to 0.65
Info: NONBONDED TABLE R-SQUARED SPACING: 0.0625
Info: NONBONDED TABLE SIZE: 705 POINTS
TCL: Running for 1500000 steps
ETITLE: TS BOND ANGLE DIHED IMPRP ELECT VDW BOUNDARY MISC KINETIC TOTAL TEMP POTENTIAL TOTALAVG TEMPAVG PRESSURE GPRESSURE VOLUME PRESSAVG GPRESSAVG
ENERGY: 0 0.8988 4.2152 7.4147 0.0000 -10649.5557 1464.0933 0.0000 0.0000 1684.6907 -7488.2431 289.0963 -9172.9338 -7488.2431 289.0963 648.6515 716.3029 29782.6459 648.6515 716.3029
ENERGY: 300000 1.4415 7.2216 6.5831 0.0000 -10673.8107 1459.6168 0.0000 0.0000 1737.8594 -7461.0883 298.2202 -9198.9477 -7492.5387 293.1518 299.0959 355.9266 29971.1367 114.9951 160.7243
ENERGY: 600000 2.2154 4.8233 6.2936 0.0000 -10637.4891 1406.1018 0.0000 0.0000 1757.5902 -7460.4647 301.6060 -9218.0549 -7461.0854 296.9298 -411.4009 -381.0432 30601.2046 46.3660 89.0476
ENERGY: 900000 0.5143 7.0189 7.7585 0.0000 -10601.6705 1361.7140 0.0000 0.0000 1735.3018 -7489.3630 297.7813 -9224.6648 -7463.3581 297.6314 -590.1670 -473.9064 30220.6098 -18.5148 33.0531
ENERGY: 1200000 0.9808 4.1216 6.5646 0.0000 -10675.9410 1426.8942 0.0000 0.0000 1780.3361 -7457.0437 305.5092 -9237.3798 -7465.0420 298.4400 -203.1499 -166.8454 30142.4087 -146.7300 -93.6779
ENERGY: 1500000 3.0882 4.2560 6.5583 0.0000 -10705.7310 1472.0633 0.0000 0.0000 1720.5243 -7499.2409 295.2454 -9219.7652 -7467.3052 298.8222 290.8300 428.2426 30209.1659 -110.0028 -56.5995
TCL: Running FEP window  14: Lambda1 0.65   Lambda2 0.7000000000000001 [dLambda 0.050000000000000044]
TCL: Setting parameter firsttimestep to 0
TCL: Setting parameter alchLambda to 0.65
Info: NONBONDED TABLE R-SQUARED SPACING: 0.0625
Info: NONBONDED TABLE SIZE: 705 POINTS
TCL: Setting parameter alchLambda2 to 0.7000000000000001
Info: NONBONDED TABLE R-SQUARED SPACING: 0.0625
Info: NONBONDED TABLE SIZE: 705 POINTS
TCL: Running for 1500000 steps
ETITLE: TS BOND ANGLE DIHED IMPRP ELECT VDW BOUNDARY MISC KINETIC TOTAL TEMP POTENTIAL TOTALAVG TEMPAVG PRESSURE GPRESSURE VOLUME PRESSAVG GPRESSAVG
ENERGY: 0 3.0882 4.2560 6.5583 0.0000 -10706.9915 1472.1989 0.0000 0.0000 1719.6322 -7501.2579 295.0923 -9220.8901 -7501.2579 295.0923 347.9899 435.6244 30209.1659 347.9899 435.6244
ENERGY: 300000 0.9182 6.3450 7.1046 0.0000 -10727.2601 1450.2743 0.0000 0.0000 1725.4288 -7537.1892 296.0871 -9262.6180 -7527.2014 297.9266 220.9389 280.8666 29833.8306 -186.1067 -134.8299
ENERGY: 600000 1.7168 3.2862 7.8833 0.0000 -10551.7173 1317.7172 0.0000 0.0000 1757.6179 -7463.4960 301.6108 -9221.1139 -7493.3489 298.5472 -799.7965 -714.9729 29977.7336 -304.3572 -249.6377
ENERGY: 900000 2.8317 4.8329 6.8277 0.0000 -10469.5158 1353.1532 0.0000 0.0000 1770.6333 -7331.2370 303.8442 -9101.8703 -7465.9349 299.1263 -147.6861 -141.2297 30318.5996 -236.2750 -175.9090
ENERGY: 1200000 1.0636 6.3774 7.6851 0.0000 -10694.6835 1405.3832 0.0000 0.0000 1746.7604 -7527.4139 299.7476 -9274.1743 -7474.8573 299.0839 -527.2826 -440.6704 30235.7806 -248.0510 -185.2504
ENERGY: 1500000 1.4586 8.6061 8.6833 0.0000 -10583.5579 1351.9193 0.0000 0.0000 1796.6894 -7416.2012 308.3155 -9212.8906 -7466.9221 300.3951 -333.9087 -236.9357 29749.7980 -249.5932 -190.3591
TCL: Running FEP window  15: Lambda1 0.7000000000000001 Lambda2 0.7500000000000001 [dLambda 0.050000000000000044]
TCL: Setting parameter firsttimestep to 0
TCL: Setting parameter alchLambda to 0.7000000000000001
Info: NONBONDED TABLE R-SQUARED SPACING: 0.0625
Info: NONBONDED TABLE SIZE: 705 POINTS
TCL: Setting parameter alchLambda2 to 0.7500000000000001
Info: NONBONDED TABLE R-SQUARED SPACING: 0.0625
Info: NONBONDED TABLE SIZE: 705 POINTS
TCL: Running for 1500000 steps
ETITLE: TS BOND ANGLE DIHED IMPRP ELECT VDW BOUNDARY MISC KINETIC TOTAL TEMP POTENTIAL TOTALAVG TEMPAVG PRESSURE GPRESSURE VOLUME PRESSAVG GPRESSAVG
ENERGY: 0 1.4586 8.6061 8.6833 0.0000 -10584.6273 1352.3757 0.0000 0.0000 1795.7883 -7417.7153 308.1609 -9213.5036 -7417.7153 308.1609 -295.0580 -223.9373 29749.7980 -295.0580 -223.9373
ENERGY: 300000 2.2891 11.5280 7.4100 0.0000 -10745.0637 1431.2137 0.0000 0.0000 1719.8256 -7572.7973 295.1255 -9292.6229 -7516.4552 300.8766 -14.0845 26.9739 29680.9376 -14.7698 22.4125
ENERGY: 600000 1.1771 4.5991 7.3532 0.0000 -10567.5730 1422.9366 0.0000 0.0000 1758.5028 -7373.0043 301.7626 -9131.5071 -7497.9694 300.4572 241.7450 346.6416 29845.8210 -60.1473 -7.5375
ENERGY: 900000 1.9291 7.6828 7.8661 0.0000 -10643.7527 1413.8645 0.0000 0.0000 1784.8947 -7427.5155 306.2915 -9212.4102 -7481.4621 299.2841 -76.2388 42.3797 29997.1585 -85.6410 -27.5801
ENERGY: 1200000 1.0801 3.7976 7.0926 0.0000 -10703.3584 1463.7671 0.0000 0.0000 1760.7668 -7466.8543 302.1511 -9227.6211 -7464.1687 300.3381 209.7109 296.8235 30334.1783 -53.8200 3.9883
ENERGY: 1500000 0.9383 5.9456 8.2752 0.0000 -10630.2393 1417.8395 0.0000 0.0000 1751.0227 -7446.2181 300.4790 -9197.2408 -7464.4695 299.5879 189.3284 205.3878 29945.6220 -98.1907 -39.1748
TCL: Running FEP window  16: Lambda1 0.7500000000000001 Lambda2 0.8000000000000002 [dLambda 0.050000000000000044]
TCL: Setting parameter firsttimestep to 0
TCL: Setting parameter alchLambda to 0.7500000000000001
Info: NONBONDED TABLE R-SQUARED SPACING: 0.0625
Info: NONBONDED TABLE SIZE: 705 POINTS
TCL: Setting parameter alchLambda2 to 0.8000000000000002
Info: NONBONDED TABLE R-SQUARED SPACING: 0.0625
Info: NONBONDED TABLE SIZE: 705 POINTS
TCL: Running for 1500000 steps
ETITLE: TS BOND ANGLE DIHED IMPRP ELECT VDW BOUNDARY MISC KINETIC TOTAL TEMP POTENTIAL TOTALAVG TEMPAVG PRESSURE GPRESSURE VOLUME PRESSAVG GPRESSAVG
ENERGY: 0 0.9383 5.9456 8.2752 0.0000 -10631.5206 1419.2040 0.0000 0.0000 1750.1641 -7446.9935 300.3317 -9197.1576 -7446.9935 300.3317 134.9860 228.8108 29945.6220 134.9860 228.8108
ENERGY: 300000 2.5014 4.7335 6.6860 0.0000 -10765.4753 1498.4085 0.0000 0.0000 1772.7433 -7480.4026 304.2063 -9253.1459 -7465.6603 300.6812 559.5268 593.5492 30093.6192 -106.5695 -60.7909
ENERGY: 600000 1.6163 6.0420 7.7745 0.0000 -10611.9298 1360.8337 0.0000 0.0000 1818.8188 -7416.8445 312.1130 -9235.6633 -7454.9692 300.4412 -740.6486 -665.2835 30394.7836 -294.7053 -252.7629
ENERGY: 900000 1.1239 4.5799 7.3448 0.0000 -10797.8553 1480.8920 0.0000 0.0000 1740.0029 -7563.9119 298.5880 -9303.9147 -7472.6288 299.6999 49.5038 167.0374 30080.8327 -249.9573 -197.1214
ENERGY: 1200000 2.6866 5.3015 7.3012 0.0000 -10841.6071 1515.4230 0.0000 0.0000 1730.0758 -7580.8189 296.8845 -9310.8947 -7494.8921 298.4558 297.8360 380.4466 30104.7991 -133.1604 -82.7562
ENERGY: 1500000 3.6794 9.0524 7.0896 0.0000 -10733.5629 1456.6796 0.0000 0.0000 1791.2382 -7465.8238 307.3801 -9257.0620 -7490.1905 299.4949 467.0854 474.9287 29730.9277 -117.4162 -68.9217
TCL: Running FEP window  17: Lambda1 0.8000000000000002 Lambda2 0.8500000000000002 [dLambda 0.050000000000000044]
TCL: Setting parameter firsttimestep to 0
TCL: Setting parameter alchLambda to 0.8000000000000002
Info: NONBONDED TABLE R-SQUARED SPACING: 0.0625
Info: NONBONDED TABLE SIZE: 705 POINTS
TCL: Setting parameter alchLambda2 to 0.8500000000000002
Info: NONBONDED TABLE R-SQUARED SPACING: 0.0625
Info: NONBONDED TABLE SIZE: 705 POINTS
TCL: Running for 1500000 steps
ETITLE: TS BOND ANGLE DIHED IMPRP ELECT VDW BOUNDARY MISC KINETIC TOTAL TEMP POTENTIAL TOTALAVG TEMPAVG PRESSURE GPRESSURE VOLUME PRESSAVG GPRESSAVG
ENERGY: 0 3.6794 9.0524 7.0896 0.0000 -10735.2465 1458.1566 0.0000 0.0000 1790.3789 -7466.8897 307.2326 -9257.2686 -7466.8897 307.2326 421.9472 497.2608 29730.9277 421.9472 497.2608
ENERGY: 300000 1.0318 6.4645 8.1081 0.0000 -10785.3761 1512.2295 0.0000 0.0000 1713.6159 -7543.9264 294.0599 -9257.5423 -7486.1595 302.2534 533.0121 541.0362 30203.9106 162.8402 203.1796
ENERGY: 600000 0.6796 3.9582 7.5530 0.0000 -10582.9095 1374.7433 0.0000 0.0000 1744.8993 -7451.0763 299.4282 -9195.9755 -7459.8525 302.6120 -662.4604 -612.3893 30971.1030 -222.5686 -177.2829
ENERGY: 900000 1.0988 4.4081 6.6272 0.0000 -10584.5981 1360.0852 0.0000 0.0000 1743.5867 -7468.7921 299.2030 -9212.3788 -7463.4318 301.3570 -494.0866 -448.0603 30275.9397 -360.8243 -307.8739
ENERGY: 1200000 2.8341 4.1190 7.2038 0.0000 -10721.0363 1503.7474 0.0000 0.0000 1741.7445 -7461.3874 298.8869 -9203.1319 -7473.3019 300.1101 1060.3869 1132.1571 29656.1064 -123.7220 -72.4113
ENERGY: 1500000 2.8735 8.6336 6.6956 0.0000 -10754.7694 1448.3191 0.0000 0.0000 1782.5257 -7505.7220 305.8850 -9288.2476 -7474.4809 300.2725 -315.1198 -239.2588 30427.8296 -161.1420 -100.7352
TCL: Running FEP window  18: Lambda1 0.8500000000000002 Lambda2 0.9000000000000002 [dLambda 0.050000000000000044]
TCL: Setting parameter firsttimestep to 0
TCL: Setting parameter alchLambda to 0.8500000000000002
Info: NONBONDED TABLE R-SQUARED SPACING: 0.0625
Info: NONBONDED TABLE SIZE: 705 POINTS
TCL: Setting parameter alchLambda2 to 0.9000000000000002
Info: NONBONDED TABLE R-SQUARED SPACING: 0.0625
Info: NONBONDED TABLE SIZE: 705 POINTS
TCL: Running for 1500000 steps
ETITLE: TS BOND ANGLE DIHED IMPRP ELECT VDW BOUNDARY MISC KINETIC TOTAL TEMP POTENTIAL TOTALAVG TEMPAVG PRESSURE GPRESSURE VOLUME PRESSAVG GPRESSAVG
ENERGY: 0 2.8735 8.6336 6.6956 0.0000 -10756.5681 1448.8100 0.0000 0.0000 1781.6852 -7507.8703 305.7408 -9289.5555 -7507.8703 305.7408 -303.9782 -226.2425 30427.8296 -303.9782 -226.2425
ENERGY: 300000 0.5199 7.1690 7.2190 0.0000 -10601.5799 1378.3652 0.0000 0.0000 1713.4601 -7494.8466 294.0332 -9208.3067 -7489.8659 301.1486 -331.5935 -333.6190 30217.6539 -227.7850 -190.6350
ENERGY: 600000 1.2285 3.7850 6.6856 0.0000 -10649.2233 1450.8924 0.0000 0.0000 1723.1951 -7463.4368 295.7037 -9186.6319 -7477.2596 300.2701 158.0727 265.2719 30439.2977 65.7520 121.1104
ENERGY: 900000 0.4183 4.1544 7.6280 0.0000 -10526.1749 1333.9905 0.0000 0.0000 1724.9746 -7455.0091 296.0091 -9179.9837 -7477.8599 299.0532 -854.8466 -698.6367 30479.7015 32.9140 99.2185
ENERGY: 1200000 1.8208 4.2007 8.2528 0.0000 -10710.0447 1473.9357 0.0000 0.0000 1708.5141 -7513.3206 293.1845 -9221.8347 -7480.9609 298.3607 254.5066 322.5226 30264.7406 54.7046 122.7595
ENERGY: 1500000 1.3068 4.8388 6.7072 0.0000 -10678.4464 1510.4329 0.0000 0.0000 1775.6584 -7379.5024 304.7065 -9155.1608 -7474.9663 298.9828 964.0507 1024.1129 30041.8565 46.4342 112.3701
TCL: Running FEP window  19: Lambda1 0.9000000000000002 Lambda2 0.9500000000000003 [dLambda 0.050000000000000044]
TCL: Setting parameter firsttimestep to 0
TCL: Setting parameter alchLambda to 0.9000000000000002
Info: NONBONDED TABLE R-SQUARED SPACING: 0.0625
Info: NONBONDED TABLE SIZE: 705 POINTS
TCL: Setting parameter alchLambda2 to 0.9500000000000003
Info: NONBONDED TABLE R-SQUARED SPACING: 0.0625
Info: NONBONDED TABLE SIZE: 705 POINTS
TCL: Running for 1500000 steps
ETITLE: TS BOND ANGLE DIHED IMPRP ELECT VDW BOUNDARY MISC KINETIC TOTAL TEMP POTENTIAL TOTALAVG TEMPAVG PRESSURE GPRESSURE VOLUME PRESSAVG GPRESSAVG
ENERGY: 0 1.3068 4.8388 6.7072 0.0000 -10680.2311 1512.8049 0.0000 0.0000 1774.7495 -7379.8240 304.5506 -9154.5735 -7379.8240 304.5506 985.3537 1060.4025 30041.8565 985.3537 1060.4025
ENERGY: 300000 2.6038 3.6429 7.2315 0.0000 -10681.8836 1415.3150 0.0000 0.0000 1806.0316 -7447.0589 309.9186 -9253.0905 -7413.9164 304.5579 -372.7765 -309.6338 30422.7659 102.7712 175.6666
ENERGY: 600000 1.1087 6.6692 7.1785 0.0000 -10743.0048 1453.8287 0.0000 0.0000 1790.0017 -7484.2179 307.1679 -9274.2196 -7438.3849 301.9114 305.6201 337.2136 29947.9730 137.0388 205.0237
ENERGY: 900000 1.1911 2.8875 6.8502 0.0000 -10615.0121 1463.0669 0.0000 0.0000 1723.4769 -7417.5395 295.7521 -9141.0165 -7455.4918 300.1863 343.5724 391.8154 30780.0446 109.9853 180.8459
ENERGY: 1200000 1.1619 3.3774 8.7533 0.0000 -10724.4537 1443.0598 0.0000 0.0000 1668.4283 -7599.6731 286.3057 -9268.1014 -7477.4059 299.0961 -115.6265 -43.5455 30019.9438 97.3402 165.8817
ENERGY: 1500000 2.5454 6.8411 7.1781 0.0000 -10675.2682 1342.3042 0.0000 0.0000 1746.8144 -7569.5849 299.7569 -9316.3994 -7481.1337 298.4416 -783.2987 -692.4764 29827.4061 2.7269 70.9800
TCL: Running FEP window  20: Lambda1 0.9500000000000003 Lambda2 1.0    [dLambda 0.04999999999999971]
TCL: Setting parameter firsttimestep to 0
TCL: Setting parameter alchLambda to 0.9500000000000003
Info: NONBONDED TABLE R-SQUARED SPACING: 0.0625
Info: NONBONDED TABLE SIZE: 705 POINTS
TCL: Setting parameter alchLambda2 to 1.0
Info: NONBONDED TABLE R-SQUARED SPACING: 0.0625
Info: NONBONDED TABLE SIZE: 705 POINTS
TCL: Running for 1500000 steps
ETITLE: TS BOND ANGLE DIHED IMPRP ELECT VDW BOUNDARY MISC KINETIC TOTAL TEMP POTENTIAL TOTALAVG TEMPAVG PRESSURE GPRESSURE VOLUME PRESSAVG GPRESSAVG
ENERGY: 0 2.5454 6.8411 7.1781 0.0000 -10677.6278 1343.4707 0.0000 0.0000 1745.9643 -7571.6282 299.6110 -9317.5925 -7571.6282 299.6110 -752.3376 -670.5391 29827.4061 -752.3376 -670.5391
ENERGY: 300000 2.8691 3.5435 7.5370 0.0000 -10718.5622 1455.7473 0.0000 0.0000 1752.3613 -7496.5040 300.7087 -9248.8653 -7529.6407 300.5286 193.6624 209.9141 30049.4681 -142.7272 -100.4441
ENERGY: 600000 3.6452 5.5327 6.6104 0.0000 -10691.9904 1457.5211 0.0000 0.0000 1775.3103 -7443.3707 304.6468 -9218.6811 -7491.3297 299.7282 386.8403 445.2820 29911.9748 -152.9828 -95.1000
ENERGY: 900000 2.6173 6.1491 7.2510 0.0000 -10769.9447 1488.5952 0.0000 0.0000 1791.7908 -7473.5413 307.4749 -9265.3321 -7477.5161 300.5444 355.4412 451.7951 30494.9266 -139.6564 -75.9077
ENERGY: 1200000 4.9052 7.6112 7.4419 0.0000 -10709.5253 1424.0617 0.0000 0.0000 1715.2087 -7550.2965 294.3333 -9265.5052 -7493.6714 299.0703 -242.1736 -248.9444 30274.9857 -133.7602 -77.8111
ENERGY: 1500000 1.0498 5.4076 7.2639 0.0000 -10726.1623 1448.3251 0.0000 0.0000 1727.4779 -7536.6381 296.4387 -9264.1160 -7495.1836 298.8759 164.2061 207.9303 29966.0214 -134.8079 -74.4507
TCL: Exiting due to exit command.
