Info: SIMULATION PARAMETERS:
Info: TIMESTEP               2
Info: NUMBER OF STEPS        0
Info: STEPS PER CYCLE        10
Info: PERIODIC CELL BASIS 1  30.9918 0 0
Info: PERIODIC CELL BASIS 2  0 31.3468 0
Info: PERIODIC CELL BASIS 3  0 0 31.623
Info: PERIODIC CELL CENTER   0 0 0
Info: WRAPPING WATERS AROUND PERIODIC BOUNDARIES ON OUTPUT.
Info: WRAPPING ALL CLUSTERS AROUND PERIODIC BOUNDARIES ON OUTPUT.
Info: FIRST LDB TIMESTEP     50
Info: LAST LDB TIMESTEP     -1
Info: HOM BACKGROUND SCALING 1
Info: PME BACKGROUND SCALING 1
Info: MIN ATOMS PER PATCH    40
Info: EMPTY PATCH LOAD       40 ATOMS
Info: VELOCITY FILE          mobley_900088_equil.vel
Info: CENTER OF MASS MOVING INITIALLY? NO
Info: DIELECTRIC             1
Info: EXCLUDE                SCALED ONE-FOUR
Info: 1-4 ELECTROSTATICS SCALED BY 0.833333
Info: MODIFIED 1-4 VDW PARAMETERS WILL BE USED
Info: DCD FILENAME           mobley_900088_prod.dcd
Info: DCD FREQUENCY          100000
Info: DCD FIRST STEP         100000
Info: DCD FILE WILL CONTAIN UNIT CELL DATA
Info: XST FILENAME           mobley_900088_prod.xst
Info: XST FREQUENCY          100000
Info: NO VELOCITY DCD OUTPUT
Info: NO FORCE DCD OUTPUT
Info: OUTPUT FILENAME        mobley_900088_prod
Info: BINARY OUTPUT FILES WILL BE USED
Info: RESTART FILENAME       mobley_900088_prod.restart
Info: RESTART FREQUENCY      100000
Info: BINARY RESTART FILES WILL BE USED
Info: CUTOFF                 9
Info: PAIRLIST DISTANCE      11
Info: PAIRLIST SHRINK RATE   0.01
Info: PAIRLIST GROW RATE     0.01
Info: PAIRLIST TRIGGER       0.3
Info: PAIRLISTS PER CYCLE    2
Info: PAIRLISTS ENABLED
Info: MARGIN                 2
Info: HYDROGEN GROUP CUTOFF  2.5
Info: PATCH DIMENSION        15.5
Info: ENERGY OUTPUT STEPS    100000
Info: ENERGY EVALUATION STEPS    100000
Info: OUTPUT ENERGY PRECISION 4
Info: CROSSTERM ENERGY INCLUDED IN DIHEDRAL
Info: TIMING OUTPUT STEPS    1000000
Info: PRESSURE OUTPUT STEPS  100000
Info: ALCHEMICAL FEP ON
Info: FEP CURRENT LAMBDA VALUE     1
Info: FEP COMPARISON LAMBDA VALUE  0.95
Info: FEP INTRA-ALCHEMICAL NON-BONDED INTERACTIONS WILL BE RETAINED
Info: FEP INTRA-ALCHEMICAL BONDED INTERACTIONS WILL BE RETAINED
Info: FEP VDW SHIFTING COEFFICIENT 5
Info: FEP ELEC. ACTIVE FOR ANNIHILATED PARTICLES BETWEEN LAMBDA = 0 AND LAMBDA = 0.5
Info: FEP ELEC. ACTIVE FOR EXNIHILATED PARTICLES BETWEEN LAMBDA = 0.5 AND LAMBDA = 1
Info: FEP VDW ACTIVE FOR ANNIHILATED PARTICLES BETWEEN LAMBDA = 0 AND LAMBDA = 1
Info: FEP VDW ACTIVE FOR EXNIHILATED PARTICLES BETWEEN LAMBDA = 0 AND LAMBDA = 1
Info: FEP BOND ACTIVE FOR ANNIHILATED PARTICLES BETWEEN LAMBDA = 1 AND LAMBDA = 1
Info: FEP BOND ACTIVE FOR EXNIHILATED PARTICLES BETWEEN LAMBDA = 0 AND LAMBDA = 0
Info: LANGEVIN DYNAMICS ACTIVE
Info: LANGEVIN TEMPERATURE   300
Info: LANGEVIN USING BBK INTEGRATOR
Info: LANGEVIN DAMPING COEFFICIENT IS 1 INVERSE PS
Info: LANGEVIN DYNAMICS APPLIED TO HYDROGENS
Info: LANGEVIN PISTON PRESSURE CONTROL ACTIVE
Info:        TARGET PRESSURE IS 1.01325 BAR
Info:     OSCILLATION PERIOD IS 50 FS
Info:             DECAY TIME IS 25 FS
Info:     PISTON TEMPERATURE IS 300 K
Info:       PRESSURE CONTROL IS GROUP-BASED
Info:    INITIAL STRAIN RATE IS 0.000156736 0.000156736 0.000156736
Info:       CELL FLUCTUATION IS ISOTROPIC
Info: PARTICLE MESH EWALD (PME) ACTIVE
Info: PME TOLERANCE               1e-06
Info: PME EWALD COEFFICIENT       0.348832
Info: PME INTERPOLATION ORDER     4
Info: PME GRID DIMENSIONS         32 32 32
Info: PME MAXIMUM GRID SPACING    1
Info: PME CALCULATION WILL BE PERFORMED ON GPU
Info: FULL ELECTROSTATIC EVALUATION FREQUENCY      2
Info: USING VERLET I (r-RESPA) MTS SCHEME.
Info: C1 SPLITTING OF LONG RANGE ELECTROSTATICS
Info: PLACING ATOMS IN PATCHES BY HYDROGEN GROUPS
Info: RIGID BONDS TO HYDROGEN : ALL
Info:         ERROR TOLERANCE : 1e-08
Info:          MAX ITERATIONS : 100
Info: RIGID WATER USING SETTLE ALGORITHM
Info: RANDOM NUMBER SEED     1743787538
Info: USE HYDROGEN BONDS?    NO
Info: Using AMBER format force field!
Info: AMBER PARM FILE        mobley_900088.prmtop
Info: COORDINATE PDB         mobley_900088.pdb
Info: Exclusions will be read from PARM file!
Info: SCNB (VDW SCALING)     2
Info: USING ARITHMETIC MEAN TO COMBINE L-J SIGMA PARAMETERS
Info: BINARY COORDINATES     mobley_900088_equil.coor
Info: SUMMARY OF PARAMETERS:
Info: 7 BONDS
Info: 7 ANGLES
Info:   7 HARMONIC
Info:   0 COSINE-BASED
Info: 5 DIHEDRAL
Info: 0 IMPROPER
Info: 0 CROSSTERM
Info: 0 VDW
Info: 21 VDW_PAIRS
Info: 0 NBTHOLE_PAIRS
Info: To read alchdata from file: mobley_900088.pdb
Info: To read alchflag data from column: 5
Info: STRUCTURE SUMMARY:
Info: 2998 ATOMS
Info: 2997 BONDS
Info: 24 ANGLES
Info: 40 DIHEDRALS
Info: 0 IMPROPERS
Info: 0 CROSSTERMS
Info: 3045 EXCLUSIONS
Info: 2992 RIGID BONDS
Info: ALCH: 0 ATOMS TO DISAPPEAR IN FINAL STATE
Info: ALCH: 16 ATOMS TO APPEAR IN FINAL STATE
Info: 6002 DEGREES OF FREEDOM
Info: 1000 HYDROGEN GROUPS
Info: 4 ATOMS IN LARGEST HYDROGEN GROUP
Info: 1000 MIGRATION GROUPS
Info: 4 ATOMS IN LARGEST MIGRATION GROUP
Info: TOTAL MASS = 17990 amu
Info: TOTAL CHARGE = 0.000199988 e
Info: MASS DENSITY = 0.972411 g/cm^3
Info: ATOM DENSITY = 0.0975865 atoms/A^3
Info: ADDED 0 IMPLICIT EXCLUSIONS
Info: NONBONDED TABLE R-SQUARED SPACING: 0.0625
Info: NONBONDED TABLE SIZE: 705 POINTS
Info: REMOVING COM VELOCITY -0.00686696 -0.0168003 0.0177378
Info: Use 3D box decompostion in PME FFT.
Info: Updated CUDA force table with 4096 elements.
Info: Updated CUDA LJ table with 6 x 6 elements.
Info: Found 17 unique exclusion lists needing 36 bytes
TCL: Running for 1500000 steps
ETITLE: TS BOND ANGLE DIHED IMPRP ELECT VDW BOUNDARY MISC KINETIC TOTAL TEMP POTENTIAL TOTALAVG TEMPAVG PRESSURE GPRESSURE VOLUME PRESSAVG GPRESSAVG
ENERGY: 0 1.7939 8.0670 21.0584 0.0000 -10860.0771 1488.3781 0.0000 0.0000 1753.5455 -7587.2343 294.0434 -9340.7798 -7587.2343 294.0434 589.1240 672.4669 30721.4537 589.1240 672.4669
ENERGY: 300000 1.1508 13.1354 23.5396 0.0000 -10966.2671 1557.6076 0.0000 0.0000 1725.6568 -7645.1770 289.3669 -9370.8338 -7588.9627 298.9655 613.8424 683.9294 30893.2123 201.9707 280.1389
ENERGY: 600000 1.9510 4.0304 23.6935 0.0000 -10929.8043 1475.9397 0.0000 0.0000 1788.3841 -7635.8056 299.8853 -9424.1897 -7601.3237 299.3665 -160.8703 -77.9489 30850.3485 72.2742 159.3899
ENERGY: 900000 2.7975 9.4847 20.3512 0.0000 -10830.7343 1406.8409 0.0000 0.0000 1798.9749 -7592.2851 301.6612 -9391.2599 -7589.5744 299.7567 -373.5846 -300.2727 30895.0423 -5.3430 80.0842
ENERGY: 1200000 1.1017 6.5481 19.5731 0.0000 -10785.8367 1421.2311 0.0000 0.0000 1790.1314 -7547.2513 300.1783 -9337.3827 -7582.6496 299.9127 -290.8874 -266.8273 31272.5750 -117.0697 -36.2781
ENERGY: 1500000 1.6302 3.9268 24.0716 0.0000 -10819.4994 1418.3023 0.0000 0.0000 1756.7077 -7614.8607 294.5737 -9371.5684 -7588.5306 299.7686 -426.5896 -393.2094 30980.5836 -155.7745 -79.1596
TCL: Running FEP window   2: Lambda1 0.95   Lambda2 0.8999999999999999 [dLambda -0.050000000000000044]
TCL: Setting parameter firsttimestep to 0
TCL: Setting parameter alchLambda to 0.95
Info: NONBONDED TABLE R-SQUARED SPACING: 0.0625
Info: NONBONDED TABLE SIZE: 705 POINTS
TCL: Setting parameter alchLambda2 to 0.8999999999999999
Info: NONBONDED TABLE R-SQUARED SPACING: 0.0625
Info: NONBONDED TABLE SIZE: 705 POINTS
TCL: Running for 1500000 steps
ETITLE: TS BOND ANGLE DIHED IMPRP ELECT VDW BOUNDARY MISC KINETIC TOTAL TEMP POTENTIAL TOTALAVG TEMPAVG PRESSURE GPRESSURE VOLUME PRESSAVG GPRESSAVG
ENERGY: 0 1.6302 3.9268 24.0716 0.0000 -10819.5976 1418.3133 0.0000 0.0000 1755.8045 -7615.8511 294.4222 -9371.6556 -7615.8511 294.4222 -491.3742 -403.1045 30980.5836 -491.3742 -403.1045
ENERGY: 300000 2.2038 9.6911 26.2075 0.0000 -10682.9200 1379.4907 0.0000 0.0000 1792.5625 -7472.7643 300.5860 -9265.3268 -7578.7764 298.9606 -448.3684 -392.8717 31402.3776 -287.5672 -238.2994
ENERGY: 600000 1.6942 5.1806 19.8887 0.0000 -10709.7249 1375.0388 0.0000 0.0000 1796.4373 -7511.4852 301.2357 -9307.9225 -7562.7663 301.4119 -741.2693 -668.1830 31599.4318 -292.7211 -241.7805
ENERGY: 900000 2.0799 8.3372 21.9140 0.0000 -10940.9834 1462.9697 0.0000 0.0000 1806.7995 -7638.8831 302.9733 -9445.6826 -7560.0565 301.6094 -258.0429 -158.0135 30789.1694 -181.2147 -124.2928
ENERGY: 1200000 1.0078 5.0578 20.2565 0.0000 -10938.0577 1495.9521 0.0000 0.0000 1830.6541 -7585.1294 306.9734 -9415.7835 -7557.7440 301.9322 162.9697 194.7839 30788.7082 -133.5988 -79.3837
ENERGY: 1500000 1.6216 3.2865 23.7187 0.0000 -10909.5601 1519.1159 0.0000 0.0000 1766.7438 -7595.0735 296.2566 -9361.8173 -7563.7870 301.2197 692.4764 756.3435 30534.3593 -92.3566 -40.3293
TCL: Running FEP window   3: Lambda1 0.8999999999999999 Lambda2 0.8499999999999999 [dLambda -0.050000000000000044]
TCL: Setting parameter firsttimestep to 0
TCL: Setting parameter alchLambda to 0.8999999999999999
Info: NONBONDED TABLE R-SQUARED SPACING: 0.0625
Info: NONBONDED TABLE SIZE: 705 POINTS
TCL: Setting parameter alchLambda2 to 0.8499999999999999
Info: NONBONDED TABLE R-SQUARED SPACING: 0.0625
Info: NONBONDED TABLE SIZE: 705 POINTS
TCL: Running for 1500000 steps
ETITLE: TS BOND ANGLE DIHED IMPRP ELECT VDW BOUNDARY MISC KINETIC TOTAL TEMP POTENTIAL TOTALAVG TEMPAVG PRESSURE GPRESSURE VOLUME PRESSAVG GPRESSAVG
ENERGY: 0 1.6216 3.2865 23.7187 0.0000 -10909.1927 1519.3657 0.0000 0.0000 1765.8539 -7595.3463 296.1073 -9361.2002 -7595.3463 296.1073 680.1375 749.2076 30534.3593 680.1375 749.2076
ENERGY: 300000 1.4158 7.1075 18.8426 0.0000 -10823.4071 1409.2626 0.0000 0.0000 1785.2896 -7601.4889 299.3664 -9386.7785 -7599.4548 298.5584 -334.1696 -312.2166 30871.2124 290.7906 356.2654
ENERGY: 600000 1.7805 7.4175 20.8432 0.0000 -10791.8315 1433.1264 0.0000 0.0000 1767.6563 -7561.0077 296.4096 -9328.6640 -7568.9282 299.5281 -138.7938 -33.5703 30725.5452 150.0912 213.5281
ENERGY: 900000 0.6907 6.0957 22.9839 0.0000 -10758.5639 1372.9086 0.0000 0.0000 1793.4950 -7562.3900 300.7423 -9355.8850 -7579.5946 298.7475 -522.2725 -503.4935 30827.7297 43.1083 92.5940
ENERGY: 1200000 2.4400 5.6480 23.1930 0.0000 -10927.9875 1473.7876 0.0000 0.0000 1792.3102 -7630.6086 300.5437 -9422.9188 -7579.2902 298.2027 -191.4828 -73.7033 31059.9375 81.3165 139.0216
ENERGY: 1500000 2.7389 2.4670 25.2870 0.0000 -10811.3516 1432.8647 0.0000 0.0000 1762.0234 -7585.9706 295.4650 -9347.9940 -7588.1983 297.6986 96.6070 171.3837 30321.6147 71.4779 133.7686
TCL: Running FEP window   4: Lambda1 0.8499999999999999 Lambda2 0.7999999999999998 [dLambda -0.050000000000000044]
TCL: Setting parameter firsttimestep to 0
TCL: Setting parameter alchLambda to 0.8499999999999999
Info: NONBONDED TABLE R-SQUARED SPACING: 0.0625
Info: NONBONDED TABLE SIZE: 705 POINTS
TCL: Setting parameter alchLambda2 to 0.7999999999999998
Info: NONBONDED TABLE R-SQUARED SPACING: 0.0625
Info: NONBONDED TABLE SIZE: 705 POINTS
TCL: Running for 1500000 steps
ETITLE: TS BOND ANGLE DIHED IMPRP ELECT VDW BOUNDARY MISC KINETIC TOTAL TEMP POTENTIAL TOTALAVG TEMPAVG PRESSURE GPRESSURE VOLUME PRESSAVG GPRESSAVG
ENERGY: 0 2.7389 2.4670 25.2870 0.0000 -10811.2467 1432.7980 0.0000 0.0000 1761.1483 -7586.8075 295.3183 -9347.9558 -7586.8075 295.3183 65.7992 155.8734 30321.6147 65.7992 155.8734
ENERGY: 300000 1.7943 5.3822 20.0870 0.0000 -10959.7811 1474.8146 0.0000 0.0000 1864.8098 -7592.8933 312.7008 -9457.7031 -7596.6072 300.4073 -181.5211 -142.4417 31077.5753 -17.1789 59.8254
ENERGY: 600000 2.4728 7.1805 20.3866 0.0000 -11141.0812 1702.3096 0.0000 0.0000 1829.0972 -7579.6346 306.7123 -9408.7317 -7588.7838 300.4787 1711.3048 1719.0839 30831.5909 6.6530 82.3876
ENERGY: 900000 0.7155 5.3061 21.5491 0.0000 -10677.7241 1364.2023 0.0000 0.0000 1777.0665 -7508.8847 297.9875 -9285.9512 -7574.8089 299.6495 -513.3710 -496.2448 31195.7908 -25.6326 38.1709
ENERGY: 1200000 2.2531 5.5743 18.7684 0.0000 -10835.1414 1400.1598 0.0000 0.0000 1747.9773 -7660.4084 293.1097 -9408.3857 -7578.1123 299.3708 -385.4566 -312.7351 30402.2274 -27.2387 39.5935
ENERGY: 1500000 2.2698 5.5191 21.9880 0.0000 -10935.9981 1547.9435 0.0000 0.0000 1810.7184 -7547.5593 303.6304 -9358.2777 -7565.1161 300.3118 725.1383 767.5213 30706.9445 16.8698 82.4818
TCL: Running FEP window   5: Lambda1 0.7999999999999998 Lambda2 0.7499999999999998 [dLambda -0.050000000000000044]
TCL: Setting parameter firsttimestep to 0
TCL: Setting parameter alchLambda to 0.7999999999999998
Info: NONBONDED TABLE R-SQUARED SPACING: 0.0625
Info: NONBONDED TABLE SIZE: 705 POINTS
TCL: Setting parameter alchLambda2 to 0.7499999999999998
Info: NONBONDED TABLE R-SQUARED SPACING: 0.0625
Info: NONBONDED TABLE SIZE: 705 POINTS
TCL: Running for 1500000 steps
ETITLE: TS BOND ANGLE DIHED IMPRP ELECT VDW BOUNDARY MISC KINETIC TOTAL TEMP POTENTIAL TOTALAVG TEMPAVG PRESSURE GPRESSURE VOLUME PRESSAVG GPRESSAVG
ENERGY: 0 2.2698 5.5191 21.9880 0.0000 -10935.7742 1548.5617 0.0000 0.0000 1809.8497 -7547.5858 303.4848 -9357.4355 -7547.5858 303.4848 690.1959 768.3397 30706.9445 690.1959 768.3397
ENERGY: 300000 1.0784 4.2217 22.8197 0.0000 -10811.0260 1394.3545 0.0000 0.0000 1828.9931 -7559.5586 306.6948 -9388.5517 -7587.4468 300.3926 -480.5446 -399.2153 30708.5427 -156.4716 -88.6475
ENERGY: 600000 1.2922 6.7244 25.5525 0.0000 -10900.9594 1468.2849 0.0000 0.0000 1832.1168 -7566.9886 307.2186 -9399.1054 -7575.7084 300.5817 -84.1906 14.6905 30790.3690 -27.0720 52.9013
ENERGY: 900000 1.0816 5.8070 22.7100 0.0000 -10884.7975 1466.0774 0.0000 0.0000 1761.4230 -7627.6986 295.3643 -9389.1216 -7577.8446 300.4580 -22.5492 49.5949 30993.2034 -29.0310 41.6347
ENERGY: 1200000 2.4264 6.5223 20.6884 0.0000 -10759.5987 1365.1620 0.0000 0.0000 1773.4859 -7591.3135 297.3871 -9364.7995 -7586.2767 299.7491 -913.2031 -830.6780 31161.2499 -28.8799 36.2204
ENERGY: 1500000 2.0197 10.2160 25.4756 0.0000 -10829.2991 1463.3685 0.0000 0.0000 1811.8706 -7516.3487 303.8236 -9328.2193 -7577.8521 300.3475 38.0134 187.5146 30953.7437 -66.2260 6.8575
TCL: Running FEP window   6: Lambda1 0.7499999999999998 Lambda2 0.6999999999999997 [dLambda -0.050000000000000044]
TCL: Setting parameter firsttimestep to 0
TCL: Setting parameter alchLambda to 0.7499999999999998
Info: NONBONDED TABLE R-SQUARED SPACING: 0.0625
Info: NONBONDED TABLE SIZE: 705 POINTS
TCL: Setting parameter alchLambda2 to 0.6999999999999997
Info: NONBONDED TABLE R-SQUARED SPACING: 0.0625
Info: NONBONDED TABLE SIZE: 705 POINTS
TCL: Running for 1500000 steps
ETITLE: TS BOND ANGLE DIHED IMPRP ELECT VDW BOUNDARY MISC KINETIC TOTAL TEMP POTENTIAL TOTALAVG TEMPAVG PRESSURE GPRESSURE VOLUME PRESSAVG GPRESSAVG
ENERGY: 0 2.0197 10.2160 25.4756 0.0000 -10829.1711 1462.9047 0.0000 0.0000 1810.9434 -7517.6117 303.6682 -9328.5551 -7517.6117 303.6682 92.8024 171.6640 30953.7437 92.8024 171.6640
ENERGY: 300000 1.0758 9.0293 21.1799 0.0000 -10860.8783 1466.3031 0.0000 0.0000 1793.4103 -7569.8799 300.7281 -9363.2903 -7558.4972 302.6338 46.4702 46.7629 30823.3720 -94.9683 -49.6797
ENERGY: 600000 2.6470 6.7769 23.5984 0.0000 -10797.5887 1446.4005 0.0000 0.0000 1794.1847 -7523.9810 300.8580 -9318.1657 -7553.4076 301.0545 -88.1141 -89.4094 31134.6126 -132.3495 -96.5132
ENERGY: 900000 1.1504 7.8630 22.6474 0.0000 -10816.4311 1520.2696 0.0000 0.0000 1733.6816 -7530.8191 290.7125 -9264.5007 -7557.0232 299.3575 341.3779 387.4039 31620.5938 -146.5317 -106.3573
ENERGY: 1200000 1.1252 4.9151 23.3590 0.0000 -10869.4024 1449.6690 0.0000 0.0000 1769.7238 -7620.6104 296.7563 -9390.3342 -7562.0372 300.1185 107.6296 105.1893 30666.3546 -221.9318 -186.9039
ENERGY: 1500000 0.5430 6.2834 21.2915 0.0000 -10903.7905 1432.6948 0.0000 0.0000 1786.9988 -7655.9791 299.6530 -9442.9779 -7575.5066 299.6989 -382.3944 -321.4360 30765.0821 -193.7628 -157.2848
TCL: Running FEP window   7: Lambda1 0.6999999999999997 Lambda2 0.6499999999999997 [dLambda -0.050000000000000044]
TCL: Setting parameter firsttimestep to 0
TCL: Setting parameter alchLambda to 0.6999999999999997
Info: NONBONDED TABLE R-SQUARED SPACING: 0.0625
Info: NONBONDED TABLE SIZE: 705 POINTS
TCL: Setting parameter alchLambda2 to 0.6499999999999997
Info: NONBONDED TABLE R-SQUARED SPACING: 0.0625
Info: NONBONDED TABLE SIZE: 705 POINTS
TCL: Running for 1500000 steps
ETITLE: TS BOND ANGLE DIHED IMPRP ELECT VDW BOUNDARY MISC KINETIC TOTAL TEMP POTENTIAL TOTALAVG TEMPAVG PRESSURE GPRESSURE VOLUME PRESSAVG GPRESSAVG
ENERGY: 0 0.5430 6.2833 21.2915 0.0000 -10903.4128 1432.4042 0.0000 0.0000 1786.0887 -7656.8021 299.5004 -9442.8908 -7656.8021 299.5004 -400.2712 -333.3441 30765.0821 -400.2712 -333.3441
ENERGY: 300000 0.8730 6.2892 23.0669 0.0000 -10774.2671 1444.9375 0.0000 0.0000 1713.9150 -7585.1856 287.3980 -9299.1006 -7562.8445 297.1302 -161.0528 -88.6724 31148.7655 -285.7642 -244.2254
ENERGY: 600000 0.2598 5.3439 21.7562 0.0000 -10967.8584 1545.6935 0.0000 0.0000 1769.2988 -7625.5062 296.6850 -9394.8050 -7584.5713 296.4890 724.5019 801.5423 30626.9149 86.1974 128.1740
ENERGY: 900000 1.4169 6.5784 21.4808 0.0000 -10969.8849 1533.5210 0.0000 0.0000 1825.3034 -7581.5843 306.0761 -9406.8878 -7574.4132 298.7219 748.8001 790.4972 30509.8599 61.9450 108.6235
ENERGY: 1200000 1.8927 7.8441 23.7506 0.0000 -10845.4123 1439.1273 0.0000 0.0000 1844.0551 -7528.7425 309.2205 -9372.7977 -7566.9748 300.3724 -285.7482 -229.2389 30959.1190 -27.0291 28.3066
ENERGY: 1500000 2.3564 7.4828 19.5384 0.0000 -10938.8000 1498.6879 0.0000 0.0000 1858.5588 -7552.1757 311.6526 -9410.7344 -7573.9736 300.5522 330.0959 430.1467 30650.4561 -68.0775 -10.8600
TCL: Running FEP window   8: Lambda1 0.6499999999999997 Lambda2 0.5999999999999996 [dLambda -0.050000000000000044]
TCL: Setting parameter firsttimestep to 0
TCL: Setting parameter alchLambda to 0.6499999999999997
Info: NONBONDED TABLE R-SQUARED SPACING: 0.0625
Info: NONBONDED TABLE SIZE: 705 POINTS
TCL: Setting parameter alchLambda2 to 0.5999999999999996
Info: NONBONDED TABLE R-SQUARED SPACING: 0.0625
Info: NONBONDED TABLE SIZE: 705 POINTS
TCL: Running for 1500000 steps
ETITLE: TS BOND ANGLE DIHED IMPRP ELECT VDW BOUNDARY MISC KINETIC TOTAL TEMP POTENTIAL TOTALAVG TEMPAVG PRESSURE GPRESSURE VOLUME PRESSAVG GPRESSAVG
ENERGY: 0 2.3564 7.4828 19.5384 0.0000 -10938.4978 1498.7682 0.0000 0.0000 1857.6777 -7552.6742 311.5048 -9410.3520 -7552.6742 311.5048 356.6625 424.0233 30650.4561 356.6625 424.0233
ENERGY: 300000 0.7600 5.8623 21.5706 0.0000 -10741.2050 1362.9077 0.0000 0.0000 1785.9989 -7564.1055 299.4853 -9350.1044 -7563.5531 305.2580 -542.9254 -500.4979 30734.8367 60.0604 120.6677
ENERGY: 600000 1.0217 6.4425 25.6543 0.0000 -10696.4948 1373.5804 0.0000 0.0000 1812.5935 -7477.2024 303.9449 -9289.7959 -7552.7942 302.8252 -661.9630 -488.2558 31140.0064 -56.7130 32.1231
ENERGY: 900000 1.0222 3.1165 23.7427 0.0000 -10893.6991 1453.1499 0.0000 0.0000 1776.4699 -7636.1979 297.8875 -9412.6678 -7569.0996 301.6166 -475.7401 -419.5640 31224.9992 -151.1664 -68.5308
ENERGY: 1200000 1.2632 4.6194 22.4200 0.0000 -10865.4807 1470.7422 0.0000 0.0000 1759.9029 -7606.5330 295.1094 -9366.4359 -7561.8734 302.1042 -37.8025 80.0864 30741.7359 -108.3061 -23.6564
ENERGY: 1500000 1.0809 4.9868 20.7565 0.0000 -10943.2992 1499.6781 0.0000 0.0000 1781.6526 -7635.1443 298.7565 -9416.7969 -7570.4695 301.2468 348.0001 399.3325 30741.4947 -94.9701 -12.5165
TCL: Running FEP window   9: Lambda1 0.5999999999999996 Lambda2 0.5499999999999996 [dLambda -0.050000000000000044]
TCL: Setting parameter firsttimestep to 0
TCL: Setting parameter alchLambda to 0.5999999999999996
Info: NONBONDED TABLE R-SQUARED SPACING: 0.0625
Info: NONBONDED TABLE SIZE: 705 POINTS
TCL: Setting parameter alchLambda2 to 0.5499999999999996
Info: NONBONDED TABLE R-SQUARED SPACING: 0.0625
Info: NONBONDED TABLE SIZE: 705 POINTS
TCL: Running for 1500000 steps
ETITLE: TS BOND ANGLE DIHED IMPRP ELECT VDW BOUNDARY MISC KINETIC TOTAL TEMP POTENTIAL TOTALAVG TEMPAVG PRESSURE GPRESSURE VOLUME PRESSAVG GPRESSAVG
ENERGY: 0 1.0809 4.9868 20.7565 0.0000 -10943.3539 1500.1111 0.0000 0.0000 1780.8029 -7635.6157 298.6141 -9416.4186 -7635.6157 298.6141 313.0081 398.0369 30741.4947 313.0081 398.0369
ENERGY: 300000 0.9468 6.7890 20.8106 0.0000 -10931.7509 1552.7724 0.0000 0.0000 1734.6333 -7615.7988 290.8721 -9350.4321 -7651.4718 295.5961 681.9330 765.2912 30883.0434 164.5541 217.8337
ENERGY: 600000 1.9732 7.9606 21.7376 0.0000 -10908.4251 1475.8559 0.0000 0.0000 1750.2046 -7650.6932 293.4832 -9400.8978 -7626.9084 297.1718 -174.7361 -77.3095 30925.4068 113.7616 178.2767
ENERGY: 900000 2.1164 5.2210 28.6731 0.0000 -10855.2713 1467.6410 0.0000 0.0000 1756.1049 -7595.5149 294.4726 -9351.6198 -7616.3248 298.7103 107.4798 151.2199 30719.8233 0.0232 58.9853
ENERGY: 1200000 2.4193 4.7292 25.7167 0.0000 -10803.5618 1458.5213 0.0000 0.0000 1810.6880 -7501.4874 303.6253 -9312.1754 -7596.2990 299.9710 -151.7484 -138.8656 31662.9584 -4.5528 49.5871
ENERGY: 1500000 0.5622 7.7487 21.3126 0.0000 -10767.2096 1401.4946 0.0000 0.0000 1807.6502 -7528.4413 303.1159 -9336.0915 -7586.5703 300.0548 -429.3623 -381.9502 31072.7876 -91.5516 -37.8574
TCL: Running FEP window  10: Lambda1 0.5499999999999996 Lambda2 0.4999999999999996 [dLambda -0.04999999999999999]
TCL: Setting parameter firsttimestep to 0
TCL: Setting parameter alchLambda to 0.5499999999999996
Info: NONBONDED TABLE R-SQUARED SPACING: 0.0625
Info: NONBONDED TABLE SIZE: 705 POINTS
TCL: Setting parameter alchLambda2 to 0.4999999999999996
Info: NONBONDED TABLE R-SQUARED SPACING: 0.0625
Info: NONBONDED TABLE SIZE: 705 POINTS
TCL: Running for 1500000 steps
ETITLE: TS BOND ANGLE DIHED IMPRP ELECT VDW BOUNDARY MISC KINETIC TOTAL TEMP POTENTIAL TOTALAVG TEMPAVG PRESSURE GPRESSURE VOLUME PRESSAVG GPRESSAVG
ENERGY: 0 0.5622 7.7487 21.3126 0.0000 -10767.4681 1401.3051 0.0000 0.0000 1806.7572 -7529.7823 302.9662 -9336.5395 -7529.7823 302.9662 -477.2586 -393.0716 31072.7876 -477.2586 -393.0716
ENERGY: 300000 2.6677 4.2542 21.7289 0.0000 -10969.3451 1467.0244 0.0000 0.0000 1780.1188 -7693.5511 298.4994 -9473.6699 -7610.1225 303.2249 -31.0523 -29.0729 30583.3672 -168.9043 -106.9575
ENERGY: 600000 0.6581 7.0536 20.7470 0.0000 -10763.0490 1379.3121 0.0000 0.0000 1750.3686 -7604.9096 293.5107 -9355.2782 -7599.3118 300.8321 -528.9749 -511.2842 31212.6141 -34.7532 28.8096
ENERGY: 900000 1.4629 7.4087 20.7146 0.0000 -10780.5861 1410.5007 0.0000 0.0000 1777.6353 -7562.8639 298.0829 -9340.4992 -7590.0351 300.5472 -394.9615 -256.9910 30766.9885 -81.5562 -17.6296
ENERGY: 1200000 0.7285 4.4400 25.2540 0.0000 -10791.7327 1418.2580 0.0000 0.0000 1845.8918 -7497.1603 309.5285 -9343.0521 -7584.3182 301.8591 -182.3638 -192.1851 30898.4316 -69.6587 -6.1428
ENERGY: 1500000 2.0922 5.0484 23.0578 0.0000 -10747.1598 1361.3233 0.0000 0.0000 1770.4922 -7585.1459 296.8851 -9355.6381 -7578.5250 302.1795 -938.9320 -887.7540 31138.5876 -93.3161 -32.1004
TCL: Running FEP window  11: Lambda1 0.4999999999999996 Lambda2 0.4499999999999996 [dLambda -0.04999999999999999]
TCL: Setting parameter firsttimestep to 0
TCL: Setting parameter alchLambda to 0.4999999999999996
Info: NONBONDED TABLE R-SQUARED SPACING: 0.0625
Info: NONBONDED TABLE SIZE: 705 POINTS
TCL: Setting parameter alchLambda2 to 0.4499999999999996
Info: NONBONDED TABLE R-SQUARED SPACING: 0.0625
Info: NONBONDED TABLE SIZE: 705 POINTS
TCL: Running for 1500000 steps
ETITLE: TS BOND ANGLE DIHED IMPRP ELECT VDW BOUNDARY MISC KINETIC TOTAL TEMP POTENTIAL TOTALAVG TEMPAVG PRESSURE GPRESSURE VOLUME PRESSAVG GPRESSAVG
ENERGY: 0 2.0922 5.0484 23.0578 0.0000 -10747.0273 1361.5562 0.0000 0.0000 1769.5585 -7585.7142 296.7285 -9355.2727 -7585.7142 296.7285 -964.4436 -891.1145 31138.5876 -964.4436 -891.1145
ENERGY: 300000 2.5119 10.1560 20.8923 0.0000 -10841.0654 1438.7311 0.0000 0.0000 1801.9826 -7566.7916 302.1656 -9368.7742 -7568.5312 298.1217 -565.6625 -446.3284 31114.2349 -523.7904 -456.4945
ENERGY: 600000 0.6134 4.1658 29.8227 0.0000 -10873.5426 1463.5111 0.0000 0.0000 1827.9537 -7547.4759 306.5205 -9375.4296 -7582.8971 300.0956 -99.4873 -85.2137 31139.6058 -365.9247 -323.8784
ENERGY: 900000 0.7801 6.8540 21.2730 0.0000 -10725.8905 1411.2140 0.0000 0.0000 1811.1525 -7474.6168 303.7032 -9285.7693 -7572.9652 299.0011 -297.1499 -255.2276 31222.8272 -240.3247 -197.7002
ENERGY: 1200000 1.0372 3.8503 23.5989 0.0000 -10831.4282 1435.7047 0.0000 0.0000 1810.9017 -7556.3355 303.6612 -9367.2372 -7566.6486 299.4695 -216.1884 -167.3915 31128.3368 -188.3133 -135.7462
ENERGY: 1500000 2.0639 5.2975 23.1996 0.0000 -10802.0852 1453.3485 0.0000 0.0000 1763.7820 -7554.3937 295.7599 -9318.1757 -7563.9742 299.0184 147.0664 166.0113 30516.8137 -199.6128 -145.6649
TCL: Running FEP window  12: Lambda1 0.4499999999999996 Lambda2 0.39999999999999963 [dLambda -0.04999999999999999]
TCL: Setting parameter firsttimestep to 0
TCL: Setting parameter alchLambda to 0.4499999999999996
Info: NONBONDED TABLE R-SQUARED SPACING: 0.0625
Info: NONBONDED TABLE SIZE: 705 POINTS
TCL: Setting parameter alchLambda2 to 0.39999999999999963
Info: NONBONDED TABLE R-SQUARED SPACING: 0.0625
Info: NONBONDED TABLE SIZE: 705 POINTS
TCL: Running for 1500000 steps
ETITLE: TS BOND ANGLE DIHED IMPRP ELECT VDW BOUNDARY MISC KINETIC TOTAL TEMP POTENTIAL TOTALAVG TEMPAVG PRESSURE GPRESSURE VOLUME PRESSAVG GPRESSAVG
ENERGY: 0 2.0639 5.2975 23.1996 0.0000 -10802.0871 1453.8309 0.0000 0.0000 1762.8829 -7554.8125 295.6091 -9317.6953 -7554.8125 295.6091 87.6986 166.9677 30516.8137 87.6986 166.9677
ENERGY: 300000 1.8677 8.5038 23.8592 0.0000 -10805.3065 1418.2113 0.0000 0.0000 1811.4469 -7541.4175 303.7526 -9352.8644 -7545.3594 303.2539 -269.0072 -214.9162 30585.3489 -508.5760 -441.0663
ENERGY: 600000 0.5127 9.9112 21.4134 0.0000 -10959.8671 1529.2852 0.0000 0.0000 1803.1238 -7595.6209 302.3569 -9398.7447 -7554.3895 301.7278 550.9048 602.6929 30468.6151 -12.3799 38.0598
ENERGY: 900000 0.7489 3.0107 23.6648 0.0000 -10869.0374 1447.9558 0.0000 0.0000 1716.0101 -7677.6471 287.7493 -9393.6572 -7573.8861 299.6273 -496.3032 -437.4689 31227.0220 -22.5417 28.8725
ENERGY: 1200000 1.9556 5.1121 26.8363 0.0000 -10751.4747 1311.7560 0.0000 0.0000 1811.6331 -7594.1816 303.7838 -9405.8147 -7584.5578 299.9676 -1244.8005 -1232.9406 30857.8827 -143.2477 -94.7142
ENERGY: 1500000 3.8095 3.1964 23.3681 0.0000 -10843.4305 1420.8528 0.0000 0.0000 1797.1039 -7595.0998 301.3475 -9392.2036 -7591.4825 300.2115 -305.4576 -264.4132 30679.1088 -73.0100 -21.6884
TCL: Running FEP window  13: Lambda1 0.39999999999999963 Lambda2 0.34999999999999964 [dLambda -0.04999999999999999]
TCL: Setting parameter firsttimestep to 0
TCL: Setting parameter alchLambda to 0.39999999999999963
Info: NONBONDED TABLE R-SQUARED SPACING: 0.0625
Info: NONBONDED TABLE SIZE: 705 POINTS
TCL: Setting parameter alchLambda2 to 0.34999999999999964
Info: NONBONDED TABLE R-SQUARED SPACING: 0.0625
Info: NONBONDED TABLE SIZE: 705 POINTS
TCL: Running for 1500000 steps
ETITLE: TS BOND ANGLE DIHED IMPRP ELECT VDW BOUNDARY MISC KINETIC TOTAL TEMP POTENTIAL TOTALAVG TEMPAVG PRESSURE GPRESSURE VOLUME PRESSAVG GPRESSAVG
ENERGY: 0 3.8095 3.1964 23.3681 0.0000 -10843.4312 1421.2616 0.0000 0.0000 1796.2000 -7595.5956 301.1959 -9391.7956 -7595.5956 301.1959 -355.5358 -266.5304 30679.1088 -355.5358 -266.5304
ENERGY: 300000 7.0425 7.0461 19.5402 0.0000 -10856.0708 1436.8476 0.0000 0.0000 1857.0760 -7528.5184 311.4039 -9385.5944 -7578.3422 302.2018 -330.5917 -313.5202 31158.7401 -366.6006 -299.3384
ENERGY: 600000 5.0179 7.2984 23.0103 0.0000 -10951.4931 1521.2063 0.0000 0.0000 1796.9657 -7597.9945 301.3243 -9394.9602 -7573.9211 303.1085 467.6998 445.0989 30686.7831 -277.2814 -238.5414
ENERGY: 900000 1.9801 5.7115 20.0231 0.0000 -10941.3517 1521.3206 0.0000 0.0000 1825.8647 -7566.4518 306.1702 -9392.3165 -7577.0530 302.2647 523.2074 559.3553 30573.6304 -83.9118 -45.0846
ENERGY: 1200000 2.5605 4.5540 22.2565 0.0000 -10722.2871 1433.9491 0.0000 0.0000 1839.4729 -7419.4941 308.4521 -9258.9669 -7556.4934 302.5150 -6.0547 10.0319 31179.8985 -70.4877 -23.9600
ENERGY: 1500000 1.7905 6.7124 19.7666 0.0000 -10866.6427 1491.1562 0.0000 0.0000 1799.3777 -7547.8394 301.7288 -9347.2171 -7563.5814 301.6820 478.3556 591.1988 30309.6093 19.8570 71.2690
TCL: Running FEP window  14: Lambda1 0.34999999999999964 Lambda2 0.29999999999999966 [dLambda -0.04999999999999999]
TCL: Setting parameter firsttimestep to 0
TCL: Setting parameter alchLambda to 0.34999999999999964
Info: NONBONDED TABLE R-SQUARED SPACING: 0.0625
Info: NONBONDED TABLE SIZE: 705 POINTS
TCL: Setting parameter alchLambda2 to 0.29999999999999966
Info: NONBONDED TABLE R-SQUARED SPACING: 0.0625
Info: NONBONDED TABLE SIZE: 705 POINTS
TCL: Running for 1500000 steps
ETITLE: TS BOND ANGLE DIHED IMPRP ELECT VDW BOUNDARY MISC KINETIC TOTAL TEMP POTENTIAL TOTALAVG TEMPAVG PRESSURE GPRESSURE VOLUME PRESSAVG GPRESSAVG
ENERGY: 0 1.7905 6.7124 19.7666 0.0000 -10866.6411 1490.5066 0.0000 0.0000 1798.4990 -7549.3661 301.5814 -9347.8651 -7549.3661 301.5814 491.4399 579.8202 30309.6093 491.4399 579.8202
ENERGY: 300000 2.4758 3.6907 20.8118 0.0000 -10940.2901 1489.6070 0.0000 0.0000 1742.8759 -7680.8289 292.2543 -9423.7048 -7607.4902 298.0103 50.7636 78.2000 30751.5335 135.9334 194.2706
ENERGY: 600000 0.5443 8.0476 22.4468 0.0000 -10796.4815 1413.7147 0.0000 0.0000 1707.8126 -7643.9155 286.3747 -9351.7281 -7608.7885 298.0077 -377.7377 -308.6197 30854.8499 81.9846 144.4678
ENERGY: 900000 3.5804 3.1198 23.5538 0.0000 -11009.3144 1553.9501 0.0000 0.0000 1800.5678 -7624.5425 301.9283 -9425.1103 -7600.9313 299.4477 457.9267 532.5504 30867.7770 75.1958 142.6637
ENERGY: 1200000 3.5026 8.1058 24.4781 0.0000 -10836.5352 1465.0605 0.0000 0.0000 1757.8141 -7577.5741 294.7592 -9335.3882 -7604.7306 298.3635 310.2205 358.5366 30692.4552 103.2251 169.1885
ENERGY: 1500000 2.0632 8.7292 24.5227 0.0000 -10963.3105 1505.4845 0.0000 0.0000 1819.9414 -7602.5696 305.1770 -9422.5110 -7601.8236 299.3656 131.0261 178.8693 30631.4853 117.9711 180.7994
TCL: Running FEP window  15: Lambda1 0.29999999999999966 Lambda2 0.24999999999999967 [dLambda -0.04999999999999999]
TCL: Setting parameter firsttimestep to 0
TCL: Setting parameter alchLambda to 0.29999999999999966
Info: NONBONDED TABLE R-SQUARED SPACING: 0.0625
Info: NONBONDED TABLE SIZE: 705 POINTS
TCL: Setting parameter alchLambda2 to 0.24999999999999967
Info: NONBONDED TABLE R-SQUARED SPACING: 0.0625
Info: NONBONDED TABLE SIZE: 705 POINTS
TCL: Running for 1500000 steps
ETITLE: TS BOND ANGLE DIHED IMPRP ELECT VDW BOUNDARY MISC KINETIC TOTAL TEMP POTENTIAL TOTALAVG TEMPAVG PRESSURE GPRESSURE VOLUME PRESSAVG GPRESSAVG
ENERGY: 0 2.0632 8.7292 24.5227 0.0000 -10963.3117 1505.0737 0.0000 0.0000 1819.0355 -7603.8874 305.0251 -9422.9229 -7603.8874 305.0251 84.8071 173.2363 30631.4853 84.8071 173.2363
ENERGY: 300000 1.6078 7.2263 20.7758 0.0000 -10781.1205 1390.3566 0.0000 0.0000 1764.1034 -7597.0507 295.8138 -9361.1540 -7586.7435 300.6373 -760.8311 -720.8351 31161.5487 -201.0048 -136.5892
ENERGY: 600000 1.9711 5.4467 22.5576 0.0000 -10738.4665 1418.6883 0.0000 0.0000 1781.6538 -7508.1488 298.7567 -9289.8027 -7557.4726 300.8488 -236.0580 -104.2269 30896.9278 -203.6420 -126.7186
ENERGY: 900000 1.2307 5.6466 26.0421 0.0000 -10856.1923 1484.4169 0.0000 0.0000 1829.3340 -7509.5221 306.7520 -9338.8561 -7570.3126 300.4703 71.8527 174.0892 31002.5354 -170.8337 -93.1033
ENERGY: 1200000 1.2653 7.4104 23.6635 0.0000 -10751.0872 1342.4797 0.0000 0.0000 1763.8323 -7612.4359 295.7683 -9376.2682 -7572.0099 299.9723 -1192.6983 -1131.3823 31212.2248 -159.1269 -84.2491
ENERGY: 1500000 0.5246 6.5690 21.6799 0.0000 -10694.4192 1418.3457 0.0000 0.0000 1814.9428 -7432.3572 304.3388 -9247.3000 -7553.5952 300.7543 -90.8997 -37.9269 31091.6980 -120.7736 -53.7565
TCL: Running FEP window  16: Lambda1 0.24999999999999967 Lambda2 0.19999999999999968 [dLambda -0.04999999999999999]
TCL: Setting parameter firsttimestep to 0
TCL: Setting parameter alchLambda to 0.24999999999999967
Info: NONBONDED TABLE R-SQUARED SPACING: 0.0625
Info: NONBONDED TABLE SIZE: 705 POINTS
TCL: Setting parameter alchLambda2 to 0.19999999999999968
Info: NONBONDED TABLE R-SQUARED SPACING: 0.0625
Info: NONBONDED TABLE SIZE: 705 POINTS
TCL: Running for 1500000 steps
ETITLE: TS BOND ANGLE DIHED IMPRP ELECT VDW BOUNDARY MISC KINETIC TOTAL TEMP POTENTIAL TOTALAVG TEMPAVG PRESSURE GPRESSURE VOLUME PRESSAVG GPRESSAVG
ENERGY: 0 0.5246 6.5690 21.6799 0.0000 -10694.4199 1418.0450 0.0000 0.0000 1814.0466 -7433.5547 304.1885 -9247.6013 -7433.5547 304.1885 -129.2708 -45.7338 31091.6980 -129.2708 -45.7338
ENERGY: 300000 3.2888 2.7488 20.6503 0.0000 -10727.1865 1336.3055 0.0000 0.0000 1771.7315 -7592.4616 297.0929 -9364.1931 -7524.4641 303.4199 -1001.6606 -918.6399 30906.5348 -354.0064 -290.5751
ENERGY: 600000 1.2146 5.5174 25.9676 0.0000 -10991.3493 1496.1531 0.0000 0.0000 1783.1865 -7679.3101 299.0138 -9462.4966 -7557.3079 300.3179 -30.4659 9.7069 30821.8916 -373.0140 -318.1804
ENERGY: 900000 2.5778 6.4805 20.0709 0.0000 -10722.0719 1403.5278 0.0000 0.0000 1797.7043 -7491.7106 301.4482 -9289.4149 -7552.6327 299.5740 -335.4483 -299.1582 30845.0432 -357.7277 -306.1275
ENERGY: 1200000 1.7563 2.4642 19.2025 0.0000 -10846.7333 1466.8651 0.0000 0.0000 1762.5876 -7593.8577 295.5596 -9356.4452 -7556.3284 299.8914 23.9572 67.3966 30897.9090 -233.3245 -172.8175
ENERGY: 1500000 0.5601 9.3048 22.4919 0.0000 -10869.6902 1513.6828 0.0000 0.0000 1805.2288 -7518.4218 302.7099 -9323.6505 -7568.6621 299.7056 736.1446 810.7566 30397.5585 -124.1575 -64.8959
TCL: Running FEP window  17: Lambda1 0.19999999999999968 Lambda2 0.1499999999999997 [dLambda -0.04999999999999999]
TCL: Setting parameter firsttimestep to 0
TCL: Setting parameter alchLambda to 0.19999999999999968
Info: NONBONDED TABLE R-SQUARED SPACING: 0.0625
Info: NONBONDED TABLE SIZE: 705 POINTS
TCL: Setting parameter alchLambda2 to 0.1499999999999997
Info: NONBONDED TABLE R-SQUARED SPACING: 0.0625
Info: NONBONDED TABLE SIZE: 705 POINTS
TCL: Running for 1500000 steps
ETITLE: TS BOND ANGLE DIHED IMPRP ELECT VDW BOUNDARY MISC KINETIC TOTAL TEMP POTENTIAL TOTALAVG TEMPAVG PRESSURE GPRESSURE VOLUME PRESSAVG GPRESSAVG
ENERGY: 0 0.5601 9.3048 22.4919 0.0000 -10869.6901 1513.8231 0.0000 0.0000 1804.3505 -7519.1597 302.5626 -9323.5102 -7519.1597 302.5626 734.0033 810.9723 30397.5585 734.0033 810.9723
ENERGY: 300000 0.7038 4.9204 24.6044 0.0000 -10946.2016 1514.8234 0.0000 0.0000 1809.7675 -7591.3820 303.4710 -9401.1496 -7572.9945 300.4520 506.6056 560.2188 30351.5337 443.3353 500.8834
ENERGY: 600000 0.8878 4.2085 21.4318 0.0000 -10909.7755 1438.2091 0.0000 0.0000 1768.2284 -7676.8099 296.5055 -9445.0383 -7594.2823 300.7088 -433.5540 -369.3452 30701.5438 210.0045 256.2592
ENERGY: 900000 1.4808 2.3660 25.0283 0.0000 -10824.9962 1466.9224 0.0000 0.0000 1788.8459 -7540.3527 299.9627 -9329.1987 -7594.1973 300.7077 118.0252 207.8782 30853.3241 24.9465 83.9287
ENERGY: 1200000 2.1563 5.4789 24.0559 0.0000 -10871.2218 1512.0427 0.0000 0.0000 1794.4710 -7533.0171 300.9060 -9327.4880 -7593.5231 300.2639 568.0797 665.0862 30555.9882 32.2912 99.7640
ENERGY: 1500000 0.9601 4.0421 23.9267 0.0000 -10826.7752 1444.9087 0.0000 0.0000 1811.5312 -7541.4064 303.7667 -9352.9375 -7587.4953 300.5783 161.9942 131.3289 30333.7218 30.3963 92.3220
TCL: Running FEP window  18: Lambda1 0.1499999999999997 Lambda2 0.09999999999999969 [dLambda -0.05 ]
TCL: Setting parameter firsttimestep to 0
TCL: Setting parameter alchLambda to 0.1499999999999997
Info: NONBONDED TABLE R-SQUARED SPACING: 0.0625
Info: NONBONDED TABLE SIZE: 705 POINTS
TCL: Setting parameter alchLambda2 to 0.09999999999999969
Info: NONBONDED TABLE R-SQUARED SPACING: 0.0625
Info: NONBONDED TABLE SIZE: 705 POINTS
TCL: Running for 1500000 steps
ETITLE: TS BOND ANGLE DIHED IMPRP ELECT VDW BOUNDARY MISC KINETIC TOTAL TEMP POTENTIAL TOTALAVG TEMPAVG PRESSURE GPRESSURE VOLUME PRESSAVG GPRESSAVG
ENERGY: 0 0.9601 4.0421 23.9267 0.0000 -10826.7748 1445.3280 0.0000 0.0000 1810.6433 -7541.8745 303.6178 -9352.5178 -7541.8745 303.6178 35.8938 130.1976 30333.7218 35.8938 130.1976
ENERGY: 300000 2.4807 7.9755 23.1435 0.0000 -10884.5235 1461.1263 0.0000 0.0000 1839.8906 -7549.9068 308.5222 -9389.7974 -7566.7933 304.8735 -182.4435 -65.8231 30734.0710 -153.3824 -54.6900
ENERGY: 600000 1.6737 6.8048 22.2740 0.0000 -10731.0637 1437.8332 0.0000 0.0000 1793.8012 -7468.6768 300.7937 -9262.4780 -7548.0775 304.8836 -45.3897 -27.9961 31279.7189 -112.2982 -43.2511
ENERGY: 900000 1.7043 5.0272 21.6132 0.0000 -10844.5380 1425.6139 0.0000 0.0000 1805.1778 -7585.4016 302.7014 -9390.5793 -7550.1634 303.6584 -437.7547 -368.9884 30877.4591 -87.6503 -15.0835
ENERGY: 1200000 5.5828 3.9901 19.7606 0.0000 -10705.0729 1372.8127 0.0000 0.0000 1809.6782 -7493.2485 303.4560 -9302.9268 -7550.7263 302.1444 -821.6963 -762.1582 31298.7268 -141.5466 -71.5902
ENERGY: 1500000 3.2157 9.3731 24.1431 0.0000 -10856.8545 1429.1839 0.0000 0.0000 1752.5331 -7638.4057 293.8736 -9390.9388 -7555.1567 301.5516 150.2769 141.8933 29955.0052 -177.8287 -117.8379
TCL: Running FEP window  19: Lambda1 0.09999999999999969 Lambda2 0.049999999999999684 [dLambda -0.05 ]
TCL: Setting parameter firsttimestep to 0
TCL: Setting parameter alchLambda to 0.09999999999999969
Info: NONBONDED TABLE R-SQUARED SPACING: 0.0625
Info: NONBONDED TABLE SIZE: 705 POINTS
TCL: Setting parameter alchLambda2 to 0.049999999999999684
Info: NONBONDED TABLE R-SQUARED SPACING: 0.0625
Info: NONBONDED TABLE SIZE: 705 POINTS
TCL: Running for 1500000 steps
ETITLE: TS BOND ANGLE DIHED IMPRP ELECT VDW BOUNDARY MISC KINETIC TOTAL TEMP POTENTIAL TOTALAVG TEMPAVG PRESSURE GPRESSURE VOLUME PRESSAVG GPRESSAVG
ENERGY: 0 3.2157 9.3731 24.1431 0.0000 -10856.8538 1428.9869 0.0000 0.0000 1751.6064 -7639.5286 293.7182 -9391.1350 -7639.5286 293.7182 66.1378 139.0155 29955.0052 66.1378 139.0155
ENERGY: 300000 2.1886 8.4573 26.0790 0.0000 -10902.6110 1459.7995 0.0000 0.0000 1793.3675 -7612.7191 300.7209 -9406.0866 -7588.6587 300.0824 -389.9561 -241.6154 30804.7819 -113.7317 -1.8533
ENERGY: 600000 2.6158 5.5210 21.7478 0.0000 -10809.6642 1448.7816 0.0000 0.0000 1737.6729 -7593.3251 291.3818 -9330.9980 -7586.9091 297.8941 -277.0114 -236.9366 31229.0023 -211.3197 -115.0027
ENERGY: 900000 3.5757 9.3334 21.9991 0.0000 -10911.4455 1495.1831 0.0000 0.0000 1848.6205 -7532.7337 309.9861 -9381.3543 -7594.0046 298.9254 419.1500 471.5234 30394.6000 -162.9505 -85.8220
ENERGY: 1200000 1.4632 5.5817 18.9547 0.0000 -11045.4728 1515.1290 0.0000 0.0000 1747.1017 -7757.2426 292.9629 -9504.3443 -7597.0267 299.1035 179.7345 203.7848 30412.2519 -91.6936 -18.5326
ENERGY: 1500000 2.5952 4.0005 20.9165 0.0000 -10923.4179 1488.4441 0.0000 0.0000 1794.7653 -7612.6964 300.9553 -9407.4616 -7589.3393 298.9648 33.2307 177.1106 30668.8205 -114.9049 -38.7301
TCL: Running FEP window  20: Lambda1 0.049999999999999684 Lambda2 0.0    [dLambda -0.049999999999999684]
TCL: Setting parameter firsttimestep to 0
TCL: Setting parameter alchLambda to 0.049999999999999684
Info: NONBONDED TABLE R-SQUARED SPACING: 0.0625
Info: NONBONDED TABLE SIZE: 705 POINTS
TCL: Setting parameter alchLambda2 to 0.0
Info: NONBONDED TABLE R-SQUARED SPACING: 0.0625
Info: NONBONDED TABLE SIZE: 705 POINTS
TCL: Running for 1500000 steps
ETITLE: TS BOND ANGLE DIHED IMPRP ELECT VDW BOUNDARY MISC KINETIC TOTAL TEMP POTENTIAL TOTALAVG TEMPAVG PRESSURE GPRESSURE VOLUME PRESSAVG GPRESSAVG
ENERGY: 0 2.5952 4.0005 20.9165 0.0000 -10923.4173 1487.8723 0.0000 0.0000 1793.8697 -7614.1632 300.8052 -9408.0328 -7614.1632 300.8052 86.2845 169.7735 30668.8205 86.2845 169.7735
ENERGY: 300000 0.6960 7.8045 22.7995 0.0000 -10774.9447 1393.9830 0.0000 0.0000 1853.3786 -7496.2830 310.7839 -9349.6616 -7562.9887 299.8597 -381.3168 -283.6513 30704.5757 -160.4241 -93.9510
ENERGY: 600000 3.0017 3.6965 23.7011 0.0000 -10850.1401 1424.7927 0.0000 0.0000 1817.2298 -7577.7184 304.7223 -9394.9482 -7597.1219 298.9523 -395.8317 -319.9089 30808.5412 -268.4694 -193.0546
ENERGY: 900000 0.7237 6.2571 23.0725 0.0000 -10878.7447 1476.9977 0.0000 0.0000 1830.9289 -7540.7648 307.0194 -9371.6937 -7596.8531 299.2133 -45.9117 18.2675 30946.1822 -236.4086 -169.8844
ENERGY: 1200000 1.5994 4.0948 26.5684 0.0000 -10909.6418 1522.8428 0.0000 0.0000 1794.3894 -7560.1470 300.8923 -9354.5364 -7595.3543 298.2372 858.2182 869.7533 30094.6858 -141.4654 -78.4815
ENERGY: 1500000 0.5922 5.8148 22.5427 0.0000 -10931.1784 1457.9665 0.0000 0.0000 1777.6621 -7666.6000 298.0874 -9444.2621 -7598.5883 298.7137 -127.0274 -71.1003 30549.7425 -72.1915 -15.4408
TCL: Exiting due to exit command.
