Info: SIMULATION PARAMETERS:
Info: TIMESTEP               2
Info: NUMBER OF STEPS        0
Info: STEPS PER CYCLE        10
Info: PERIODIC CELL BASIS 1  32.1836 0 0
Info: PERIODIC CELL BASIS 2  0 30.7776 0
Info: PERIODIC CELL BASIS 3  0 0 31.6886
Info: PERIODIC CELL CENTER   0 0 0
Info: WRAPPING WATERS AROUND PERIODIC BOUNDARIES ON OUTPUT.
Info: WRAPPING ALL CLUSTERS AROUND PERIODIC BOUNDARIES ON OUTPUT.
Info: FIRST LDB TIMESTEP     50
Info: LAST LDB TIMESTEP     -1
Info: HOM BACKGROUND SCALING 1
Info: PME BACKGROUND SCALING 1
Info: MIN ATOMS PER PATCH    40
Info: EMPTY PATCH LOAD       40 ATOMS
Info: VELOCITY FILE          mobley_1899443_equil.vel
Info: CENTER OF MASS MOVING INITIALLY? NO
Info: DIELECTRIC             1
Info: EXCLUDE                SCALED ONE-FOUR
Info: 1-4 ELECTROSTATICS SCALED BY 0.833333
Info: MODIFIED 1-4 VDW PARAMETERS WILL BE USED
Info: DCD FILENAME           mobley_1899443_prod.dcd
Info: DCD FREQUENCY          100000
Info: DCD FIRST STEP         100000
Info: DCD FILE WILL CONTAIN UNIT CELL DATA
Info: XST FILENAME           mobley_1899443_prod.xst
Info: XST FREQUENCY          100000
Info: NO VELOCITY DCD OUTPUT
Info: NO FORCE DCD OUTPUT
Info: OUTPUT FILENAME        mobley_1899443_prod
Info: BINARY OUTPUT FILES WILL BE USED
Info: RESTART FILENAME       mobley_1899443_prod.restart
Info: RESTART FREQUENCY      100000
Info: BINARY RESTART FILES WILL BE USED
Info: CUTOFF                 9
Info: PAIRLIST DISTANCE      11
Info: PAIRLIST SHRINK RATE   0.01
Info: PAIRLIST GROW RATE     0.01
Info: PAIRLIST TRIGGER       0.3
Info: PAIRLISTS PER CYCLE    2
Info: PAIRLISTS ENABLED
Info: MARGIN                 2
Info: HYDROGEN GROUP CUTOFF  2.5
Info: PATCH DIMENSION        15.5
Info: ENERGY OUTPUT STEPS    100000
Info: ENERGY EVALUATION STEPS    100000
Info: OUTPUT ENERGY PRECISION 4
Info: CROSSTERM ENERGY INCLUDED IN DIHEDRAL
Info: TIMING OUTPUT STEPS    1000000
Info: PRESSURE OUTPUT STEPS  100000
Info: ALCHEMICAL FEP ON
Info: FEP CURRENT LAMBDA VALUE     0
Info: FEP COMPARISON LAMBDA VALUE  0.05
Info: FEP INTRA-ALCHEMICAL NON-BONDED INTERACTIONS WILL BE RETAINED
Info: FEP INTRA-ALCHEMICAL BONDED INTERACTIONS WILL BE RETAINED
Info: FEP VDW SHIFTING COEFFICIENT 5
Info: FEP ELEC. ACTIVE FOR ANNIHILATED PARTICLES BETWEEN LAMBDA = 0 AND LAMBDA = 0.5
Info: FEP ELEC. ACTIVE FOR EXNIHILATED PARTICLES BETWEEN LAMBDA = 0.5 AND LAMBDA = 1
Info: FEP VDW ACTIVE FOR ANNIHILATED PARTICLES BETWEEN LAMBDA = 0 AND LAMBDA = 1
Info: FEP VDW ACTIVE FOR EXNIHILATED PARTICLES BETWEEN LAMBDA = 0 AND LAMBDA = 1
Info: FEP BOND ACTIVE FOR ANNIHILATED PARTICLES BETWEEN LAMBDA = 1 AND LAMBDA = 1
Info: FEP BOND ACTIVE FOR EXNIHILATED PARTICLES BETWEEN LAMBDA = 0 AND LAMBDA = 0
Info: LANGEVIN DYNAMICS ACTIVE
Info: LANGEVIN TEMPERATURE   300
Info: LANGEVIN USING BBK INTEGRATOR
Info: LANGEVIN DAMPING COEFFICIENT IS 1 INVERSE PS
Info: LANGEVIN DYNAMICS APPLIED TO HYDROGENS
Info: LANGEVIN PISTON PRESSURE CONTROL ACTIVE
Info:        TARGET PRESSURE IS 1.01325 BAR
Info:     OSCILLATION PERIOD IS 50 FS
Info:             DECAY TIME IS 25 FS
Info:     PISTON TEMPERATURE IS 300 K
Info:       PRESSURE CONTROL IS GROUP-BASED
Info:    INITIAL STRAIN RATE IS -0.000276833 -0.000276833 -0.000276833
Info:       CELL FLUCTUATION IS ISOTROPIC
Info: PARTICLE MESH EWALD (PME) ACTIVE
Info: PME TOLERANCE               1e-06
Info: PME EWALD COEFFICIENT       0.348832
Info: PME INTERPOLATION ORDER     4
Info: PME GRID DIMENSIONS         36 32 32
Info: PME MAXIMUM GRID SPACING    1
Info: PME CALCULATION WILL BE PERFORMED ON GPU
Info: FULL ELECTROSTATIC EVALUATION FREQUENCY      2
Info: USING VERLET I (r-RESPA) MTS SCHEME.
Info: C1 SPLITTING OF LONG RANGE ELECTROSTATICS
Info: PLACING ATOMS IN PATCHES BY HYDROGEN GROUPS
Info: RIGID BONDS TO HYDROGEN : ALL
Info:         ERROR TOLERANCE : 1e-08
Info:          MAX ITERATIONS : 100
Info: RIGID WATER USING SETTLE ALGORITHM
Info: RANDOM NUMBER SEED     1743850915
Info: USE HYDROGEN BONDS?    NO
Info: Using AMBER format force field!
Info: AMBER PARM FILE        mobley_1899443.prmtop
Info: COORDINATE PDB         mobley_1899443.pdb
Info: Exclusions will be read from PARM file!
Info: SCNB (VDW SCALING)     2
Info: USING ARITHMETIC MEAN TO COMBINE L-J SIGMA PARAMETERS
Info: BINARY COORDINATES     mobley_1899443_equil.coor
Info: SUMMARY OF PARAMETERS:
Info: 7 BONDS
Info: 9 ANGLES
Info:   9 HARMONIC
Info:   0 COSINE-BASED
Info: 8 DIHEDRAL
Info: 0 IMPROPER
Info: 0 CROSSTERM
Info: 0 VDW
Info: 21 VDW_PAIRS
Info: 0 NBTHOLE_PAIRS
Info: To read alchdata from file: mobley_1899443.pdb
Info: To read alchflag data from column: 5
Info: STRUCTURE SUMMARY:
Info: 3000 ATOMS
Info: 2999 BONDS
Info: 30 ANGLES
Info: 46 DIHEDRALS
Info: 0 IMPROPERS
Info: 0 CROSSTERMS
Info: 3063 EXCLUSIONS
Info: 2994 RIGID BONDS
Info: ALCH: 0 ATOMS TO DISAPPEAR IN FINAL STATE
Info: ALCH: 18 ATOMS TO APPEAR IN FINAL STATE
Info: 6006 DEGREES OF FREEDOM
Info: 1000 HYDROGEN GROUPS
Info: 4 ATOMS IN LARGEST HYDROGEN GROUP
Info: 1000 MIGRATION GROUPS
Info: 4 ATOMS IN LARGEST MIGRATION GROUP
Info: TOTAL MASS = 17992.1 amu
Info: TOTAL CHARGE = -0.000100013 e
Info: MASS DENSITY = 0.951849 g/cm^3
Info: ATOM DENSITY = 0.0955761 atoms/A^3
Info: ADDED 0 IMPLICIT EXCLUSIONS
Info: NONBONDED TABLE R-SQUARED SPACING: 0.0625
Info: NONBONDED TABLE SIZE: 705 POINTS
Info: REMOVING COM VELOCITY 0.0989887 0.016206 0.207065
Info: Use 3D box decompostion in PME FFT.
Info: Updated CUDA force table with 4096 elements.
Info: Updated CUDA LJ table with 6 x 6 elements.
Info: Found 21 unique exclusion lists needing 52 bytes
TCL: Running for 1500000 steps
ETITLE: TS BOND ANGLE DIHED IMPRP ELECT VDW BOUNDARY MISC KINETIC TOTAL TEMP POTENTIAL TOTALAVG TEMPAVG PRESSURE GPRESSURE VOLUME PRESSAVG GPRESSAVG
ENERGY: 0 0.6481 9.4066 7.8032 0.0000 -10852.3623 1506.7259 0.0000 0.0000 1798.5199 -7529.2586 301.3841 -9327.7785 -7529.2586 301.3841 115.1572 185.3642 31388.5950 115.1572 185.3642
ENERGY: 300000 3.1746 6.1198 7.8239 0.0000 -10997.0876 1575.2823 0.0000 0.0000 1808.3278 -7596.3592 303.0276 -9404.6870 -7560.2176 301.7582 848.5408 893.7464 30738.3233 202.6957 248.2696
ENERGY: 600000 0.9418 11.1696 6.0627 0.0000 -10592.9925 1364.4061 0.0000 0.0000 1784.8062 -7425.6062 299.0860 -9210.4124 -7557.8488 300.9491 -772.3212 -648.5012 31745.7964 -16.1413 57.4032
ENERGY: 900000 1.4950 7.8591 7.5810 0.0000 -10937.8188 1458.3738 0.0000 0.0000 1795.5309 -7666.9790 300.8832 -9462.5099 -7569.0165 301.5483 -38.8094 -14.9849 30257.6959 174.4572 229.6621
ENERGY: 1200000 2.6917 8.3100 7.9014 0.0000 -10852.3902 1510.0606 0.0000 0.0000 1802.1280 -7521.2984 301.9887 -9323.4264 -7576.4362 300.3544 353.0749 498.8050 30911.5353 132.0484 200.5218
ENERGY: 1500000 0.5708 7.6007 8.4159 0.0000 -10655.9932 1335.4760 0.0000 0.0000 1791.5060 -7512.4237 300.2087 -9303.9298 -7579.5559 299.2086 -777.8960 -744.9194 30789.4336 77.1372 147.3630
TCL: Running FEP window   2: Lambda1 0.05   Lambda2 0.1    [dLambda 0.05  ]
TCL: Setting parameter firsttimestep to 0
TCL: Setting parameter alchLambda to 0.05
Info: NONBONDED TABLE R-SQUARED SPACING: 0.0625
Info: NONBONDED TABLE SIZE: 705 POINTS
TCL: Setting parameter alchLambda2 to 0.1
Info: NONBONDED TABLE R-SQUARED SPACING: 0.0625
Info: NONBONDED TABLE SIZE: 705 POINTS
TCL: Running for 1500000 steps
ETITLE: TS BOND ANGLE DIHED IMPRP ELECT VDW BOUNDARY MISC KINETIC TOTAL TEMP POTENTIAL TOTALAVG TEMPAVG PRESSURE GPRESSURE VOLUME PRESSAVG GPRESSAVG
ENERGY: 0 0.5708 7.6007 8.4159 0.0000 -10655.9932 1339.1903 0.0000 0.0000 1790.5539 -7509.6616 300.0492 -9300.2154 -7509.6616 300.0492 -808.7075 -736.0000 30789.4336 -808.7075 -736.0000
ENERGY: 300000 1.5452 6.3214 9.9888 0.0000 -10970.6951 1508.5654 0.0000 0.0000 1750.0209 -7694.2534 293.2569 -9444.2743 -7633.7171 296.9959 280.9530 320.0627 30669.0235 -214.9438 -194.5164
ENERGY: 600000 0.3870 6.3180 9.5190 0.0000 -10982.9910 1542.1368 0.0000 0.0000 1880.9957 -7543.6344 315.2048 -9424.6301 -7576.0739 301.9359 772.1521 763.6050 30602.1135 -74.4474 -49.8852
ENERGY: 900000 1.1021 5.6344 8.0650 0.0000 -10814.6792 1401.7609 0.0000 0.0000 1757.6978 -7640.4190 294.5434 -9398.1168 -7595.5925 300.1759 -721.0805 -662.7215 30949.2607 -198.2622 -163.7469
ENERGY: 1200000 2.9529 8.3516 8.8534 0.0000 -10911.6709 1468.2110 0.0000 0.0000 1807.7868 -7615.5153 302.9370 -9423.3021 -7601.9929 299.8808 -125.5938 -5.9743 30661.6879 -224.1348 -174.3885
ENERGY: 1500000 1.3116 4.4024 7.6797 0.0000 -10812.8822 1394.8062 0.0000 0.0000 1852.5528 -7552.1295 310.4386 -9404.6823 -7594.9414 300.1018 -580.8598 -498.3664 30649.0442 -256.0095 -209.0063
TCL: Running FEP window   3: Lambda1 0.1    Lambda2 0.15000000000000002 [dLambda 0.05000000000000002]
TCL: Setting parameter firsttimestep to 0
TCL: Setting parameter alchLambda to 0.1
Info: NONBONDED TABLE R-SQUARED SPACING: 0.0625
Info: NONBONDED TABLE SIZE: 705 POINTS
TCL: Setting parameter alchLambda2 to 0.15000000000000002
Info: NONBONDED TABLE R-SQUARED SPACING: 0.0625
Info: NONBONDED TABLE SIZE: 705 POINTS
TCL: Running for 1500000 steps
ETITLE: TS BOND ANGLE DIHED IMPRP ELECT VDW BOUNDARY MISC KINETIC TOTAL TEMP POTENTIAL TOTALAVG TEMPAVG PRESSURE GPRESSURE VOLUME PRESSAVG GPRESSAVG
ENERGY: 0 1.3116 4.4024 7.6797 0.0000 -10812.8815 1396.8079 0.0000 0.0000 1851.6610 -7551.0189 310.2891 -9402.6800 -7551.0189 310.2891 -570.8747 -489.8320 30649.0442 -570.8747 -489.8320
ENERGY: 300000 1.4609 7.4027 7.1410 0.0000 -10898.7612 1540.4506 0.0000 0.0000 1763.2123 -7579.0937 295.4675 -9342.3060 -7582.0872 300.8870 651.4693 666.3052 30807.6015 1.6217 46.5437
ENERGY: 600000 0.8616 4.3331 10.2700 0.0000 -10717.7249 1380.0692 0.0000 0.0000 1822.9554 -7499.2356 305.4788 -9322.1910 -7573.0260 302.0334 -484.0405 -431.4497 30587.1463 -31.4047 14.1598
ENERGY: 900000 1.3740 6.7841 9.1674 0.0000 -10777.7713 1352.6126 0.0000 0.0000 1773.6412 -7634.1921 297.2151 -9407.8334 -7594.4724 300.4249 -895.0237 -838.9622 30542.2698 -125.4168 -76.9795
ENERGY: 1200000 3.7081 12.1976 7.5843 0.0000 -10879.3269 1492.7537 0.0000 0.0000 1760.6870 -7602.3962 295.0443 -9363.0832 -7601.0094 299.3893 142.5058 219.7136 31015.8549 -129.7439 -77.5463
ENERGY: 1500000 1.6102 7.4244 8.0718 0.0000 -10875.9504 1547.0665 0.0000 0.0000 1773.9814 -7537.7960 297.2721 -9311.7774 -7593.4018 299.7569 787.6178 930.2055 30322.6802 -115.6387 -56.5431
TCL: Running FEP window   4: Lambda1 0.15000000000000002 Lambda2 0.2    [dLambda 0.04999999999999999]
TCL: Setting parameter firsttimestep to 0
TCL: Setting parameter alchLambda to 0.15000000000000002
Info: NONBONDED TABLE R-SQUARED SPACING: 0.0625
Info: NONBONDED TABLE SIZE: 705 POINTS
TCL: Setting parameter alchLambda2 to 0.2
Info: NONBONDED TABLE R-SQUARED SPACING: 0.0625
Info: NONBONDED TABLE SIZE: 705 POINTS
TCL: Running for 1500000 steps
ETITLE: TS BOND ANGLE DIHED IMPRP ELECT VDW BOUNDARY MISC KINETIC TOTAL TEMP POTENTIAL TOTALAVG TEMPAVG PRESSURE GPRESSURE VOLUME PRESSAVG GPRESSAVG
ENERGY: 0 1.6102 7.4244 8.0718 0.0000 -10875.9494 1548.1417 0.0000 0.0000 1773.0926 -7537.6086 297.1231 -9310.7012 -7537.6086 297.1231 849.8426 937.8819 30322.6802 849.8426 937.8819
ENERGY: 300000 1.1325 4.3532 8.5906 0.0000 -10715.3764 1338.6241 0.0000 0.0000 1713.2518 -7649.4242 287.0954 -9362.6760 -7563.3346 297.8224 -1070.0816 -987.8675 30841.7818 -148.0142 -60.8529
ENERGY: 600000 1.0749 6.6850 7.0933 0.0000 -10830.1938 1463.0303 0.0000 0.0000 1797.4444 -7554.8658 301.2039 -9352.3102 -7591.1597 298.3361 237.3093 302.7163 30412.9188 -123.6220 -49.2518
ENERGY: 900000 1.1246 9.0504 8.2490 0.0000 -10841.9142 1432.8726 0.0000 0.0000 1760.8987 -7629.7188 295.0798 -9390.6175 -7581.1550 298.7539 -493.4909 -407.5960 31039.8471 -191.5235 -116.6079
ENERGY: 1200000 0.9535 6.9146 8.9829 0.0000 -10900.5079 1499.0107 0.0000 0.0000 1764.0366 -7620.6097 295.6056 -9384.6463 -7578.6801 298.8065 261.8702 324.3427 30602.5278 -106.9555 -37.0853
ENERGY: 1500000 1.4084 6.5532 7.2226 0.0000 -10887.5683 1499.1342 0.0000 0.0000 1769.9779 -7603.2721 296.6012 -9373.2499 -7581.8959 298.4730 106.6931 118.6147 31098.2580 -92.7442 -31.6588
TCL: Running FEP window   5: Lambda1 0.2    Lambda2 0.25   [dLambda 0.04999999999999999]
TCL: Setting parameter firsttimestep to 0
TCL: Setting parameter alchLambda to 0.2
Info: NONBONDED TABLE R-SQUARED SPACING: 0.0625
Info: NONBONDED TABLE SIZE: 705 POINTS
TCL: Setting parameter alchLambda2 to 0.25
Info: NONBONDED TABLE R-SQUARED SPACING: 0.0625
Info: NONBONDED TABLE SIZE: 705 POINTS
TCL: Running for 1500000 steps
ETITLE: TS BOND ANGLE DIHED IMPRP ELECT VDW BOUNDARY MISC KINETIC TOTAL TEMP POTENTIAL TOTALAVG TEMPAVG PRESSURE GPRESSURE VOLUME PRESSAVG GPRESSAVG
ENERGY: 0 1.4084 6.5532 7.2226 0.0000 -10887.5690 1499.7705 0.0000 0.0000 1769.0992 -7603.5149 296.4540 -9372.6142 -7603.5149 296.4540 45.4495 121.6818 31098.2580 45.4495 121.6818
ENERGY: 300000 1.9904 4.7422 8.4354 0.0000 -10945.9219 1460.6383 0.0000 0.0000 1764.5207 -7705.5950 295.6867 -9470.1156 -7662.9856 294.1971 -45.3082 22.4271 30382.6262 -12.4597 91.0222
ENERGY: 600000 3.6664 7.0731 9.9090 0.0000 -10899.3242 1464.0668 0.0000 0.0000 1812.4224 -7602.1866 303.7138 -9414.6089 -7635.3666 297.9522 134.2988 169.1440 30472.1539 13.2557 98.6696
ENERGY: 900000 0.7873 4.9847 6.9977 0.0000 -10829.6984 1424.9779 0.0000 0.0000 1774.0886 -7617.8623 297.2900 -9391.9509 -7616.7318 299.7881 -479.6932 -366.0744 31047.6449 147.3530 230.7586
ENERGY: 1200000 0.3777 9.6058 7.4654 0.0000 -10855.0199 1429.0648 0.0000 0.0000 1745.1280 -7663.3781 292.4370 -9408.5061 -7609.5482 299.9453 -449.4840 -375.0461 31123.6077 148.8414 228.4377
ENERGY: 1500000 1.5428 5.9884 7.4363 0.0000 -10755.1931 1405.1929 0.0000 0.0000 1747.4647 -7587.5679 292.8286 -9335.0327 -7606.5115 299.3337 -369.3857 -272.6125 30784.2945 150.0891 231.9010
TCL: Running FEP window   6: Lambda1 0.25   Lambda2 0.3    [dLambda 0.04999999999999999]
TCL: Setting parameter firsttimestep to 0
TCL: Setting parameter alchLambda to 0.25
Info: NONBONDED TABLE R-SQUARED SPACING: 0.0625
Info: NONBONDED TABLE SIZE: 705 POINTS
TCL: Setting parameter alchLambda2 to 0.3
Info: NONBONDED TABLE R-SQUARED SPACING: 0.0625
Info: NONBONDED TABLE SIZE: 705 POINTS
TCL: Running for 1500000 steps
ETITLE: TS BOND ANGLE DIHED IMPRP ELECT VDW BOUNDARY MISC KINETIC TOTAL TEMP POTENTIAL TOTALAVG TEMPAVG PRESSURE GPRESSURE VOLUME PRESSAVG GPRESSAVG
ENERGY: 0 1.5428 5.9884 7.4363 0.0000 -10755.1934 1405.1033 0.0000 0.0000 1746.5303 -7588.5923 292.6720 -9335.1226 -7588.5923 292.6720 -359.0727 -270.5698 30784.2945 -359.0727 -270.5698
ENERGY: 300000 1.0529 5.1695 8.4201 0.0000 -10825.0650 1444.7509 0.0000 0.0000 1781.3143 -7584.3573 298.5009 -9365.6717 -7583.0845 298.2799 -124.1939 -115.0195 30865.1114 -17.8893 29.9120
ENERGY: 600000 2.5214 5.7718 9.3414 0.0000 -10831.6532 1468.0609 0.0000 0.0000 1792.2557 -7553.7020 300.3344 -9345.9576 -7585.1817 299.1106 59.4174 131.6843 30993.8563 -164.8601 -97.6922
ENERGY: 900000 0.2810 5.0527 5.4986 0.0000 -10678.7824 1366.8104 0.0000 0.0000 1753.3077 -7547.8319 293.8077 -9301.1397 -7581.5281 298.1634 -849.8159 -766.4204 31403.8145 -282.8229 -211.7905
ENERGY: 1200000 2.6168 9.7874 7.5796 0.0000 -10869.5785 1462.7784 0.0000 0.0000 1788.5623 -7598.2539 299.7154 -9386.8162 -7582.0023 298.5214 -76.3381 -9.5618 30608.7690 -289.4208 -218.1433
ENERGY: 1500000 0.5988 8.7857 9.6317 0.0000 -10838.2701 1433.2074 0.0000 0.0000 1804.0953 -7581.9511 302.3184 -9386.0465 -7585.4649 298.3764 -167.3823 -163.9033 30867.2279 -300.4255 -234.7216
TCL: Running FEP window   7: Lambda1 0.3    Lambda2 0.35   [dLambda 0.04999999999999999]
TCL: Setting parameter firsttimestep to 0
TCL: Setting parameter alchLambda to 0.3
Info: NONBONDED TABLE R-SQUARED SPACING: 0.0625
Info: NONBONDED TABLE SIZE: 705 POINTS
TCL: Setting parameter alchLambda2 to 0.35
Info: NONBONDED TABLE R-SQUARED SPACING: 0.0625
Info: NONBONDED TABLE SIZE: 705 POINTS
TCL: Running for 1500000 steps
ETITLE: TS BOND ANGLE DIHED IMPRP ELECT VDW BOUNDARY MISC KINETIC TOTAL TEMP POTENTIAL TOTALAVG TEMPAVG PRESSURE GPRESSURE VOLUME PRESSAVG GPRESSAVG
ENERGY: 0 0.5988 8.7857 9.6317 0.0000 -10838.2707 1433.3213 0.0000 0.0000 1803.1758 -7582.7573 302.1643 -9385.9331 -7582.7573 302.1643 -236.8284 -157.6538 30867.2279 -236.8284 -157.6538
ENERGY: 300000 0.8126 7.6359 9.4261 0.0000 -11077.8831 1595.1193 0.0000 0.0000 1805.4999 -7659.3894 302.5537 -9464.8893 -7613.1664 302.4941 908.9523 945.0163 30648.8535 -66.5410 -3.2855
ENERGY: 600000 0.3337 7.2231 8.7764 0.0000 -10954.6826 1478.4953 0.0000 0.0000 1791.2346 -7668.6195 300.1633 -9459.8541 -7628.4815 303.0224 217.2071 276.5017 30289.7503 30.4954 85.4286
ENERGY: 900000 1.6586 7.2934 10.7561 0.0000 -10760.0974 1401.8874 0.0000 0.0000 1804.9680 -7533.5339 302.4646 -9338.5019 -7595.0704 303.3579 -447.5241 -403.3439 30816.8448 -93.7131 -45.8304
ENERGY: 1200000 2.0767 9.5634 7.3973 0.0000 -10872.6706 1521.6247 0.0000 0.0000 1770.3787 -7561.6298 296.6684 -9332.0085 -7595.8543 302.2593 624.7900 649.4394 30946.3785 -113.3585 -72.1484
ENERGY: 1500000 0.7950 4.4766 6.9430 0.0000 -10792.0273 1416.1410 0.0000 0.0000 1831.4134 -7532.2583 306.8962 -9363.6717 -7594.6124 302.3867 -371.4908 -279.9172 31037.5406 -198.2831 -152.1905
TCL: Running FEP window   8: Lambda1 0.35   Lambda2 0.39999999999999997 [dLambda 0.04999999999999999]
TCL: Setting parameter firsttimestep to 0
TCL: Setting parameter alchLambda to 0.35
Info: NONBONDED TABLE R-SQUARED SPACING: 0.0625
Info: NONBONDED TABLE SIZE: 705 POINTS
TCL: Setting parameter alchLambda2 to 0.39999999999999997
Info: NONBONDED TABLE R-SQUARED SPACING: 0.0625
Info: NONBONDED TABLE SIZE: 705 POINTS
TCL: Running for 1500000 steps
ETITLE: TS BOND ANGLE DIHED IMPRP ELECT VDW BOUNDARY MISC KINETIC TOTAL TEMP POTENTIAL TOTALAVG TEMPAVG PRESSURE GPRESSURE VOLUME PRESSAVG GPRESSAVG
ENERGY: 0 0.7950 4.4766 6.9430 0.0000 -10792.0278 1416.2675 0.0000 0.0000 1830.5145 -7533.0312 306.7455 -9363.5457 -7533.0312 306.7455 -363.8078 -273.4641 31037.5406 -363.8078 -273.4641
ENERGY: 300000 0.6470 8.2770 7.0197 0.0000 -10890.9165 1505.6842 0.0000 0.0000 1781.2273 -7588.0614 298.4863 -9369.2886 -7610.1849 299.0355 362.3533 359.2658 30621.6567 -128.6614 -74.6757
ENERGY: 600000 0.6130 8.4136 11.1982 0.0000 -10904.5534 1485.1354 0.0000 0.0000 1777.8737 -7621.3196 297.9243 -9399.1932 -7609.4818 299.1111 105.1145 154.3155 30568.7653 -16.5193 16.2904
ENERGY: 900000 0.6339 10.0505 6.1636 0.0000 -10869.4559 1528.9055 0.0000 0.0000 1829.6239 -7494.0784 306.5963 -9323.7024 -7596.3666 301.4596 718.0497 763.4925 30819.3854 66.8316 108.2210
ENERGY: 1200000 2.3459 6.5884 11.6618 0.0000 -10827.0907 1442.4638 0.0000 0.0000 1785.0037 -7579.0270 299.1191 -9364.0308 -7591.9813 300.9381 -217.8230 -81.1904 30616.7537 19.3385 74.9752
ENERGY: 1500000 0.8591 10.1212 8.0353 0.0000 -10834.0346 1417.2284 0.0000 0.0000 1765.3902 -7632.4004 295.8324 -9397.7906 -7587.6671 301.3587 -354.1631 -292.8347 30702.8351 21.5669 83.7569
TCL: Running FEP window   9: Lambda1 0.39999999999999997 Lambda2 0.44999999999999996 [dLambda 0.04999999999999999]
TCL: Setting parameter firsttimestep to 0
TCL: Setting parameter alchLambda to 0.39999999999999997
Info: NONBONDED TABLE R-SQUARED SPACING: 0.0625
Info: NONBONDED TABLE SIZE: 705 POINTS
TCL: Setting parameter alchLambda2 to 0.44999999999999996
Info: NONBONDED TABLE R-SQUARED SPACING: 0.0625
Info: NONBONDED TABLE SIZE: 705 POINTS
TCL: Running for 1500000 steps
ETITLE: TS BOND ANGLE DIHED IMPRP ELECT VDW BOUNDARY MISC KINETIC TOTAL TEMP POTENTIAL TOTALAVG TEMPAVG PRESSURE GPRESSURE VOLUME PRESSAVG GPRESSAVG
ENERGY: 0 0.8591 10.1212 8.0353 0.0000 -10834.0356 1417.2395 0.0000 0.0000 1764.5175 -7633.2630 295.6862 -9397.7805 -7633.2630 295.6862 -368.5451 -285.3952 30702.8351 -368.5451 -285.3952
ENERGY: 300000 1.5839 6.4116 7.3026 0.0000 -10909.6038 1503.8230 0.0000 0.0000 1781.7708 -7608.7120 298.5774 -9390.4828 -7642.3041 295.4144 377.6479 401.9846 30707.2749 -249.4264 -208.6767
ENERGY: 600000 2.1569 9.4934 8.2546 0.0000 -10693.2393 1353.0168 0.0000 0.0000 1784.3338 -7535.9838 299.0069 -9320.3176 -7619.9921 299.1208 -940.0507 -840.5785 31342.6655 -109.1587 -51.6533
ENERGY: 900000 0.9750 10.7137 8.8438 0.0000 -10976.0594 1521.8847 0.0000 0.0000 1807.7529 -7625.8893 302.9313 -9433.6422 -7604.6398 300.0039 362.1925 449.1658 30449.4078 -83.3884 -32.1494
ENERGY: 1200000 1.1816 3.8849 9.6051 0.0000 -10851.0517 1442.6015 0.0000 0.0000 1760.2926 -7633.4859 294.9782 -9393.7785 -7617.4618 299.2618 -101.0017 15.2474 30598.7627 -30.0563 31.2758
ENERGY: 1500000 1.9068 5.3741 6.5325 0.0000 -10973.7035 1510.0447 0.0000 0.0000 1848.1426 -7601.7028 309.6995 -9449.8455 -7607.8756 300.1761 -49.0224 63.1092 31124.2076 62.1895 122.2221
TCL: Running FEP window  10: Lambda1 0.44999999999999996 Lambda2 0.49999999999999994 [dLambda 0.04999999999999999]
TCL: Setting parameter firsttimestep to 0
TCL: Setting parameter alchLambda to 0.44999999999999996
Info: NONBONDED TABLE R-SQUARED SPACING: 0.0625
Info: NONBONDED TABLE SIZE: 705 POINTS
TCL: Setting parameter alchLambda2 to 0.49999999999999994
Info: NONBONDED TABLE R-SQUARED SPACING: 0.0625
Info: NONBONDED TABLE SIZE: 705 POINTS
TCL: Running for 1500000 steps
ETITLE: TS BOND ANGLE DIHED IMPRP ELECT VDW BOUNDARY MISC KINETIC TOTAL TEMP POTENTIAL TOTALAVG TEMPAVG PRESSURE GPRESSURE VOLUME PRESSAVG GPRESSAVG
ENERGY: 0 1.9068 5.3741 6.5325 0.0000 -10973.7035 1510.8560 0.0000 0.0000 1847.2367 -7601.7974 309.5477 -9449.0342 -7601.7974 309.5477 -8.4164 77.1710 31124.2076 -8.4164 77.1710
ENERGY: 300000 0.7791 10.6952 11.1817 0.0000 -10764.0982 1385.4569 0.0000 0.0000 1847.7530 -7508.2322 309.6342 -9355.9852 -7583.4655 305.3098 -439.6685 -410.9387 30792.6058 -263.8464 -221.1414
ENERGY: 600000 0.9282 4.8825 8.0048 0.0000 -10857.2420 1445.8293 0.0000 0.0000 1882.4571 -7515.1400 315.4497 -9397.5971 -7569.5414 305.7009 -54.2490 -27.8761 30782.3652 -338.4833 -284.9992
ENERGY: 900000 2.3469 9.1088 7.8900 0.0000 -10763.9309 1459.0804 0.0000 0.0000 1813.4046 -7472.1001 303.8784 -9285.5047 -7555.4574 305.2437 -75.9340 20.3359 31020.0642 -281.6460 -219.8241
ENERGY: 1200000 2.4216 9.8973 8.6478 0.0000 -10816.1390 1410.0385 0.0000 0.0000 1828.8451 -7556.2887 306.4658 -9385.1338 -7558.4039 304.2511 -496.6544 -483.9708 30958.4196 -200.8059 -147.6703
ENERGY: 1500000 1.5348 8.7425 7.6643 0.0000 -10850.5054 1434.5661 0.0000 0.0000 1743.3487 -7654.6490 292.1388 -9397.9977 -7575.8439 302.0088 -309.5382 -248.8527 30907.3151 -233.6505 -180.4092
TCL: Running FEP window  11: Lambda1 0.49999999999999994 Lambda2 0.5499999999999999 [dLambda 0.04999999999999999]
TCL: Setting parameter firsttimestep to 0
TCL: Setting parameter alchLambda to 0.49999999999999994
Info: NONBONDED TABLE R-SQUARED SPACING: 0.0625
Info: NONBONDED TABLE SIZE: 705 POINTS
TCL: Setting parameter alchLambda2 to 0.5499999999999999
Info: NONBONDED TABLE R-SQUARED SPACING: 0.0625
Info: NONBONDED TABLE SIZE: 705 POINTS
TCL: Running for 1500000 steps
ETITLE: TS BOND ANGLE DIHED IMPRP ELECT VDW BOUNDARY MISC KINETIC TOTAL TEMP POTENTIAL TOTALAVG TEMPAVG PRESSURE GPRESSURE VOLUME PRESSAVG GPRESSAVG
ENERGY: 0 1.5348 8.7425 7.6643 0.0000 -10850.5047 1434.7237 0.0000 0.0000 1742.5190 -7655.3204 291.9998 -9397.8394 -7655.3204 291.9998 -323.5755 -242.9104 30907.3151 -323.5755 -242.9104
ENERGY: 300000 0.8322 6.3313 6.1564 0.0000 -10788.5418 1421.7211 0.0000 0.0000 1860.8731 -7492.6278 311.8328 -9353.5009 -7557.9141 302.1741 -86.1121 -102.0140 30751.0258 -183.6005 -99.1701
ENERGY: 600000 1.6099 5.3124 7.4871 0.0000 -10673.9601 1309.1852 0.0000 0.0000 1781.5827 -7568.7828 298.5459 -9350.3655 -7575.5424 299.8499 -1330.3055 -1258.7984 30974.1680 -357.1162 -292.7876
ENERGY: 900000 0.7925 8.6265 6.5322 0.0000 -10783.4003 1390.3504 0.0000 0.0000 1833.6033 -7543.4954 307.2631 -9377.0987 -7576.0407 300.5277 -518.0969 -443.1165 30615.7354 -298.0971 -231.7953
ENERGY: 1200000 0.8922 9.8085 8.1562 0.0000 -10849.8803 1497.0707 0.0000 0.0000 1810.7802 -7523.1725 303.4386 -9333.9526 -7578.1512 299.9612 490.4360 529.6834 30664.4577 -257.1109 -194.4272
ENERGY: 1500000 1.2110 4.3937 10.9364 0.0000 -10772.1530 1392.5993 0.0000 0.0000 1794.0371 -7568.9755 300.6329 -9363.0126 -7579.7409 299.6087 -282.4366 -295.8139 30666.5603 -304.1053 -248.8934
TCL: Running FEP window  12: Lambda1 0.5499999999999999 Lambda2 0.6    [dLambda 0.050000000000000044]
TCL: Setting parameter firsttimestep to 0
TCL: Setting parameter alchLambda to 0.5499999999999999
Info: NONBONDED TABLE R-SQUARED SPACING: 0.0625
Info: NONBONDED TABLE SIZE: 705 POINTS
TCL: Setting parameter alchLambda2 to 0.6
Info: NONBONDED TABLE R-SQUARED SPACING: 0.0625
Info: NONBONDED TABLE SIZE: 705 POINTS
TCL: Running for 1500000 steps
ETITLE: TS BOND ANGLE DIHED IMPRP ELECT VDW BOUNDARY MISC KINETIC TOTAL TEMP POTENTIAL TOTALAVG TEMPAVG PRESSURE GPRESSURE VOLUME PRESSAVG GPRESSAVG
ENERGY: 0 1.2110 4.3937 10.9364 0.0000 -10771.9505 1393.2069 0.0000 0.0000 1793.1523 -7569.0502 300.4846 -9362.2024 -7569.0502 300.4846 -366.9524 -285.3890 30666.5603 -366.9524 -285.3890
ENERGY: 300000 0.6175 9.9561 9.9359 0.0000 -10936.8149 1503.6056 0.0000 0.0000 1775.5227 -7637.1771 297.5304 -9412.6998 -7593.8073 299.1519 112.2006 239.4131 30846.6995 -317.1366 -270.7468
ENERGY: 600000 3.3418 5.8490 5.8510 0.0000 -10784.0543 1407.5605 0.0000 0.0000 1752.2141 -7609.2380 293.6245 -9361.4521 -7600.4701 296.1036 -481.6359 -429.0296 30881.5561 -250.4804 -214.1946
ENERGY: 900000 1.5346 9.0793 7.8882 0.0000 -10891.3576 1484.0235 0.0000 0.0000 1777.7409 -7611.0912 297.9021 -9388.8320 -7594.5591 296.6302 -259.0709 -218.4887 31407.8675 -154.4517 -117.9572
ENERGY: 1200000 0.4361 4.6726 8.2355 0.0000 -10769.2777 1393.0493 0.0000 0.0000 1748.3891 -7614.4951 292.9835 -9362.8842 -7600.4259 296.5254 -584.7749 -524.9916 31190.8276 -284.7742 -239.0676
ENERGY: 1500000 2.4081 7.7431 7.1972 0.0000 -10792.4218 1401.7625 0.0000 0.0000 1800.7609 -7572.5501 301.7596 -9373.3110 -7605.0413 296.4335 -523.9398 -457.8501 31110.0739 -299.6415 -249.7383
TCL: Running FEP window  13: Lambda1 0.6    Lambda2 0.65   [dLambda 0.050000000000000044]
TCL: Setting parameter firsttimestep to 0
TCL: Setting parameter alchLambda to 0.6
Info: NONBONDED TABLE R-SQUARED SPACING: 0.0625
Info: NONBONDED TABLE SIZE: 705 POINTS
TCL: Setting parameter alchLambda2 to 0.65
Info: NONBONDED TABLE R-SQUARED SPACING: 0.0625
Info: NONBONDED TABLE SIZE: 705 POINTS
TCL: Running for 1500000 steps
ETITLE: TS BOND ANGLE DIHED IMPRP ELECT VDW BOUNDARY MISC KINETIC TOTAL TEMP POTENTIAL TOTALAVG TEMPAVG PRESSURE GPRESSURE VOLUME PRESSAVG GPRESSAVG
ENERGY: 0 2.4081 7.7431 7.1972 0.0000 -10792.5348 1401.6701 0.0000 0.0000 1799.8998 -7573.6164 301.6153 -9373.5163 -7573.6164 301.6153 -554.4716 -453.1030 31110.0739 -554.4716 -453.1030
ENERGY: 300000 1.9493 8.1512 7.9511 0.0000 -11027.3578 1530.2891 0.0000 0.0000 1775.2130 -7703.8042 297.4785 -9479.0172 -7622.3279 298.7845 554.2778 585.3797 30108.5323 55.6176 93.3040
ENERGY: 600000 0.4310 7.2239 7.8638 0.0000 -10859.1176 1413.0786 0.0000 0.0000 1777.1069 -7653.4134 297.7958 -9430.5203 -7619.9803 298.2937 -379.1009 -358.8405 30453.7396 -184.0972 -149.3426
ENERGY: 900000 0.7427 9.6580 8.0666 0.0000 -10906.8762 1460.4387 0.0000 0.0000 1770.1028 -7657.8673 296.6221 -9427.9701 -7617.6987 299.0747 231.0843 261.4090 30297.8799 -83.1938 -40.3664
ENERGY: 1200000 0.7543 7.0358 7.1559 0.0000 -10941.2135 1502.6177 0.0000 0.0000 1755.7621 -7667.8878 294.2190 -9423.6499 -7617.4922 298.1747 488.1176 470.1520 30428.3030 -132.5921 -90.8409
ENERGY: 1500000 1.1655 5.5649 10.2925 0.0000 -10800.2498 1437.9347 0.0000 0.0000 1775.3665 -7569.9256 297.5042 -9345.2921 -7615.7591 297.3857 -41.3366 -4.1447 30814.0456 -171.5409 -131.0404
TCL: Running FEP window  14: Lambda1 0.65   Lambda2 0.7000000000000001 [dLambda 0.050000000000000044]
TCL: Setting parameter firsttimestep to 0
TCL: Setting parameter alchLambda to 0.65
Info: NONBONDED TABLE R-SQUARED SPACING: 0.0625
Info: NONBONDED TABLE SIZE: 705 POINTS
TCL: Setting parameter alchLambda2 to 0.7000000000000001
Info: NONBONDED TABLE R-SQUARED SPACING: 0.0625
Info: NONBONDED TABLE SIZE: 705 POINTS
TCL: Running for 1500000 steps
ETITLE: TS BOND ANGLE DIHED IMPRP ELECT VDW BOUNDARY MISC KINETIC TOTAL TEMP POTENTIAL TOTALAVG TEMPAVG PRESSURE GPRESSURE VOLUME PRESSAVG GPRESSAVG
ENERGY: 0 1.1655 5.5649 10.2925 0.0000 -10800.1884 1438.6495 0.0000 0.0000 1774.4826 -7570.0334 297.3561 -9344.5160 -7570.0334 297.3561 -67.4082 12.8944 30814.0456 -67.4082 12.8944
ENERGY: 300000 2.3778 8.9947 7.4188 0.0000 -10870.9594 1472.3193 0.0000 0.0000 1760.2134 -7619.6355 294.9649 -9379.8489 -7580.5574 298.6542 -17.3152 132.7606 30905.6021 48.7863 126.8680
ENERGY: 600000 2.1536 9.8131 6.7393 0.0000 -10910.2446 1481.6650 0.0000 0.0000 1830.4829 -7579.3906 306.7402 -9409.8735 -7598.7932 297.7349 -223.9070 -98.6713 31152.7139 -99.4530 -15.3827
ENERGY: 900000 1.1633 7.3412 7.1609 0.0000 -10924.6665 1534.2119 0.0000 0.0000 1774.7635 -7600.0258 297.4031 -9374.7893 -7594.8302 298.9659 644.1583 665.9893 30462.1100 103.1513 175.2715
ENERGY: 1200000 0.3422 7.2939 8.5389 0.0000 -10758.7041 1384.3918 0.0000 0.0000 1768.8773 -7589.2600 296.4168 -9358.1373 -7597.0374 299.1917 -523.7216 -455.3978 30828.8735 54.9270 120.5862
ENERGY: 1500000 0.7530 4.3941 8.0330 0.0000 -10898.9110 1485.4240 0.0000 0.0000 1760.9892 -7639.3177 295.0949 -9400.3069 -7601.8412 298.1418 210.5613 288.4528 30665.5776 38.5476 105.8754
TCL: Running FEP window  15: Lambda1 0.7000000000000001 Lambda2 0.7500000000000001 [dLambda 0.050000000000000044]
TCL: Setting parameter firsttimestep to 0
TCL: Setting parameter alchLambda to 0.7000000000000001
Info: NONBONDED TABLE R-SQUARED SPACING: 0.0625
Info: NONBONDED TABLE SIZE: 705 POINTS
TCL: Setting parameter alchLambda2 to 0.7500000000000001
Info: NONBONDED TABLE R-SQUARED SPACING: 0.0625
Info: NONBONDED TABLE SIZE: 705 POINTS
TCL: Running for 1500000 steps
ETITLE: TS BOND ANGLE DIHED IMPRP ELECT VDW BOUNDARY MISC KINETIC TOTAL TEMP POTENTIAL TOTALAVG TEMPAVG PRESSURE GPRESSURE VOLUME PRESSAVG GPRESSAVG
ENERGY: 0 0.7530 4.3941 8.0330 0.0000 -10898.8400 1485.1494 0.0000 0.0000 1760.0666 -7640.4439 294.9403 -9400.5105 -7640.4439 294.9403 212.3595 294.7879 30665.5776 212.3595 294.7879
ENERGY: 300000 1.1750 9.6107 7.7880 0.0000 -10917.5669 1486.2437 0.0000 0.0000 1766.2191 -7646.5304 295.9713 -9412.7495 -7615.2359 301.1186 -136.7612 -149.4735 31049.1642 121.9101 171.3877
ENERGY: 600000 3.4679 10.4836 8.3015 0.0000 -10881.6689 1432.3583 0.0000 0.0000 1747.8109 -7679.2467 292.8866 -9427.0576 -7615.5707 300.5635 -499.1661 -422.8551 30727.0540 3.7032 58.5117
ENERGY: 900000 0.4966 11.2382 4.8525 0.0000 -10858.5368 1485.2032 0.0000 0.0000 1780.0527 -7576.6936 298.2895 -9356.7463 -7603.6724 299.9706 352.1757 425.9276 30673.4419 170.8660 231.0985
ENERGY: 1200000 0.9035 4.9485 5.0222 0.0000 -10742.2362 1393.5422 0.0000 0.0000 1847.0459 -7490.7739 309.5158 -9337.8198 -7596.9888 300.4439 -475.4117 -403.6724 31309.1846 49.9113 108.3504
ENERGY: 1500000 1.3903 8.1911 7.2184 0.0000 -10520.7354 1338.1691 0.0000 0.0000 1794.9337 -7370.8328 300.7831 -9165.7666 -7588.9330 300.1116 -578.1531 -545.9315 31633.5159 -25.4076 31.2144
TCL: Running FEP window  16: Lambda1 0.7500000000000001 Lambda2 0.8000000000000002 [dLambda 0.050000000000000044]
TCL: Setting parameter firsttimestep to 0
TCL: Setting parameter alchLambda to 0.7500000000000001
Info: NONBONDED TABLE R-SQUARED SPACING: 0.0625
Info: NONBONDED TABLE SIZE: 705 POINTS
TCL: Setting parameter alchLambda2 to 0.8000000000000002
Info: NONBONDED TABLE R-SQUARED SPACING: 0.0625
Info: NONBONDED TABLE SIZE: 705 POINTS
TCL: Running for 1500000 steps
ETITLE: TS BOND ANGLE DIHED IMPRP ELECT VDW BOUNDARY MISC KINETIC TOTAL TEMP POTENTIAL TOTALAVG TEMPAVG PRESSURE GPRESSURE VOLUME PRESSAVG GPRESSAVG
ENERGY: 0 1.3903 8.1911 7.2184 0.0000 -10520.8285 1339.5028 0.0000 0.0000 1794.0542 -7370.4717 300.6358 -9164.5260 -7370.4717 300.6358 -604.1194 -522.3048 31633.5159 -604.1194 -522.3048
ENERGY: 300000 2.1559 6.9182 8.2440 0.0000 -10777.2929 1418.6746 0.0000 0.0000 1812.9755 -7528.3245 303.8065 -9341.3000 -7525.4044 298.1603 -206.1514 -126.5866 30906.3227 45.9803 98.5012
ENERGY: 600000 2.7190 7.8008 9.0028 0.0000 -10910.6560 1476.9607 0.0000 0.0000 1781.8771 -7632.2957 298.5952 -9414.1727 -7555.2034 298.7998 167.4827 185.9160 30515.9565 93.2630 141.6580
ENERGY: 900000 1.0476 6.5425 8.4678 0.0000 -10764.4369 1446.1402 0.0000 0.0000 1783.4217 -7518.8172 298.8540 -9302.2389 -7555.1871 298.4041 -16.2514 67.1494 31054.8195 76.4875 133.3031
ENERGY: 1200000 1.2880 7.6476 7.8941 0.0000 -10985.1014 1510.6876 0.0000 0.0000 1750.1372 -7707.4468 293.2764 -9457.5840 -7575.1274 297.7114 284.9170 320.5383 30404.3529 56.6321 120.2171
ENERGY: 1500000 2.2700 5.7278 8.6656 0.0000 -10942.9180 1496.5920 0.0000 0.0000 1799.0657 -7630.5969 301.4755 -9429.6626 -7570.1886 298.8694 123.8086 190.8892 31030.4157 90.5361 154.5399
TCL: Running FEP window  17: Lambda1 0.8000000000000002 Lambda2 0.8500000000000002 [dLambda 0.050000000000000044]
TCL: Setting parameter firsttimestep to 0
TCL: Setting parameter alchLambda to 0.8000000000000002
Info: NONBONDED TABLE R-SQUARED SPACING: 0.0625
Info: NONBONDED TABLE SIZE: 705 POINTS
TCL: Setting parameter alchLambda2 to 0.8500000000000002
Info: NONBONDED TABLE R-SQUARED SPACING: 0.0625
Info: NONBONDED TABLE SIZE: 705 POINTS
TCL: Running for 1500000 steps
ETITLE: TS BOND ANGLE DIHED IMPRP ELECT VDW BOUNDARY MISC KINETIC TOTAL TEMP POTENTIAL TOTALAVG TEMPAVG PRESSURE GPRESSURE VOLUME PRESSAVG GPRESSAVG
ENERGY: 0 2.2700 5.7278 8.6656 0.0000 -10942.9945 1497.0028 0.0000 0.0000 1798.1768 -7631.1515 301.3266 -9429.3283 -7631.1515 301.3266 116.6373 205.9429 31030.4157 116.6373 205.9429
ENERGY: 300000 1.7215 9.3214 10.4167 0.0000 -10876.0538 1425.9007 0.0000 0.0000 1800.0568 -7628.6367 301.6416 -9428.6935 -7586.6123 302.4142 -410.7348 -419.4243 30962.7947 150.2458 184.7660
ENERGY: 600000 2.3837 6.5857 7.5057 0.0000 -10779.4333 1462.8399 0.0000 0.0000 1763.5518 -7536.5665 295.5244 -9300.1183 -7585.4288 301.2323 130.9231 150.9518 31131.2178 108.2144 147.8439
ENERGY: 900000 1.8182 3.8846 7.9945 0.0000 -10959.5223 1506.9045 0.0000 0.0000 1775.1939 -7663.7266 297.4753 -9438.9205 -7590.2312 301.0763 162.4345 201.9538 30770.1588 268.7968 314.6659
ENERGY: 1200000 0.2288 8.0483 10.4232 0.0000 -10755.4800 1352.2994 0.0000 0.0000 1782.0317 -7602.4486 298.6211 -9384.4803 -7585.3556 301.0068 -879.1054 -823.5581 31215.8356 -15.3518 33.5983
ENERGY: 1500000 0.6260 4.3999 8.8058 0.0000 -10791.2055 1432.6601 0.0000 0.0000 1736.5140 -7608.1995 290.9935 -9344.7136 -7595.1647 300.0357 -99.3889 -82.0773 31027.3351 35.3708 90.0930
TCL: Running FEP window  18: Lambda1 0.8500000000000002 Lambda2 0.9000000000000002 [dLambda 0.050000000000000044]
TCL: Setting parameter firsttimestep to 0
TCL: Setting parameter alchLambda to 0.8500000000000002
Info: NONBONDED TABLE R-SQUARED SPACING: 0.0625
Info: NONBONDED TABLE SIZE: 705 POINTS
TCL: Setting parameter alchLambda2 to 0.9000000000000002
Info: NONBONDED TABLE R-SQUARED SPACING: 0.0625
Info: NONBONDED TABLE SIZE: 705 POINTS
TCL: Running for 1500000 steps
ETITLE: TS BOND ANGLE DIHED IMPRP ELECT VDW BOUNDARY MISC KINETIC TOTAL TEMP POTENTIAL TOTALAVG TEMPAVG PRESSURE GPRESSURE VOLUME PRESSAVG GPRESSAVG
ENERGY: 0 0.6260 4.3999 8.8058 0.0000 -10791.3333 1433.1839 0.0000 0.0000 1735.6189 -7608.6988 290.8435 -9344.3176 -7608.6988 290.8435 -135.4319 -68.0788 31027.3351 -135.4319 -68.0788
ENERGY: 300000 0.8637 8.8007 7.7502 0.0000 -10737.1552 1352.9630 0.0000 0.0000 1807.0682 -7559.7094 302.8166 -9366.7776 -7618.4309 298.1755 -877.8137 -801.4429 31054.1424 -291.6696 -227.4960
ENERGY: 600000 2.1236 9.3553 10.3087 0.0000 -10755.7294 1377.3937 0.0000 0.0000 1770.8258 -7585.7224 296.7433 -9356.5482 -7613.3932 298.9463 -652.6185 -612.0898 31094.6293 -322.8149 -247.1028
ENERGY: 900000 1.3463 8.9357 8.3681 0.0000 -10865.2728 1410.5442 0.0000 0.0000 1779.9924 -7656.0862 298.2794 -9436.0786 -7610.1986 299.3251 -504.4420 -418.0910 30883.3052 -243.7751 -171.1167
ENERGY: 1200000 0.7713 8.1740 7.1321 0.0000 -10810.1824 1419.2991 0.0000 0.0000 1760.0164 -7614.7894 294.9319 -9374.8059 -7604.2322 299.1541 -428.2486 -309.5005 31034.3663 -160.3002 -80.3329
ENERGY: 1500000 2.4781 8.6023 7.3772 0.0000 -10787.6874 1394.0488 0.0000 0.0000 1799.8540 -7575.3270 301.6076 -9375.1810 -7598.3422 299.4299 -648.9272 -569.0852 30897.4420 -145.7337 -68.1327
TCL: Running FEP window  19: Lambda1 0.9000000000000002 Lambda2 0.9500000000000003 [dLambda 0.050000000000000044]
TCL: Setting parameter firsttimestep to 0
TCL: Setting parameter alchLambda to 0.9000000000000002
Info: NONBONDED TABLE R-SQUARED SPACING: 0.0625
Info: NONBONDED TABLE SIZE: 705 POINTS
TCL: Setting parameter alchLambda2 to 0.9500000000000003
Info: NONBONDED TABLE R-SQUARED SPACING: 0.0625
Info: NONBONDED TABLE SIZE: 705 POINTS
TCL: Running for 1500000 steps
ETITLE: TS BOND ANGLE DIHED IMPRP ELECT VDW BOUNDARY MISC KINETIC TOTAL TEMP POTENTIAL TOTALAVG TEMPAVG PRESSURE GPRESSURE VOLUME PRESSAVG GPRESSAVG
ENERGY: 0 2.4781 8.6023 7.3772 0.0000 -10787.6843 1394.4889 0.0000 0.0000 1798.9492 -7575.7886 301.4560 -9374.7379 -7575.7886 301.4560 -630.6309 -551.4103 30897.4420 -630.6309 -551.4103
ENERGY: 300000 2.2341 6.6099 7.8499 0.0000 -10937.8367 1437.4862 0.0000 0.0000 1841.6924 -7641.9641 308.6186 -9483.6565 -7561.6482 302.9531 -377.7307 -295.9997 30966.7692 -546.5560 -451.9902
ENERGY: 600000 0.6136 14.1083 8.1004 0.0000 -10730.1017 1355.9514 0.0000 0.0000 1796.7873 -7554.5406 301.0937 -9351.3279 -7575.2581 301.6853 -373.9653 -314.6693 30569.9092 -480.3341 -399.8146
ENERGY: 900000 1.0110 5.6601 9.1072 0.0000 -10856.0422 1488.5417 0.0000 0.0000 1790.2167 -7561.5056 299.9927 -9351.7223 -7569.3058 301.8388 397.2969 392.8995 30994.0605 -403.6390 -333.8378
ENERGY: 1200000 0.7821 4.7910 9.4588 0.0000 -10918.2352 1505.8369 0.0000 0.0000 1791.5636 -7605.8029 300.2184 -9397.3664 -7566.6991 300.8511 463.1159 543.9263 30842.4348 -327.9002 -258.2885
ENERGY: 1500000 1.5168 10.1972 9.1619 0.0000 -10796.6560 1420.2122 0.0000 0.0000 1773.0064 -7582.5615 297.1087 -9355.5679 -7578.3841 300.0180 -306.1721 -192.5365 31045.3856 -238.4794 -164.6193
TCL: Running FEP window  20: Lambda1 0.9500000000000003 Lambda2 1.0    [dLambda 0.04999999999999971]
TCL: Setting parameter firsttimestep to 0
TCL: Setting parameter alchLambda to 0.9500000000000003
Info: NONBONDED TABLE R-SQUARED SPACING: 0.0625
Info: NONBONDED TABLE SIZE: 705 POINTS
TCL: Setting parameter alchLambda2 to 1.0
Info: NONBONDED TABLE R-SQUARED SPACING: 0.0625
Info: NONBONDED TABLE SIZE: 705 POINTS
TCL: Running for 1500000 steps
ETITLE: TS BOND ANGLE DIHED IMPRP ELECT VDW BOUNDARY MISC KINETIC TOTAL TEMP POTENTIAL TOTALAVG TEMPAVG PRESSURE GPRESSURE VOLUME PRESSAVG GPRESSAVG
ENERGY: 0 1.5168 10.1972 9.1619 0.0000 -10796.5719 1420.5510 0.0000 0.0000 1772.1335 -7583.0115 296.9624 -9355.1450 -7583.0115 296.9624 -276.5750 -177.3585 31045.3856 -276.5750 -177.3585
ENERGY: 300000 0.6813 9.3858 8.2772 0.0000 -10694.2280 1346.9785 0.0000 0.0000 1818.1486 -7510.7565 304.6733 -9328.9051 -7558.0524 299.2973 -474.6292 -405.4846 30583.0902 -13.0583 72.6060
ENERGY: 600000 0.5360 7.4004 11.0126 0.0000 -10895.2160 1509.3757 0.0000 0.0000 1903.1584 -7463.7329 318.9187 -9366.8913 -7552.9080 302.6905 435.6066 496.2489 30960.3158 199.9494 278.2721
ENERGY: 900000 2.3550 6.5419 7.0067 0.0000 -10978.0357 1472.3429 0.0000 0.0000 1813.5501 -7676.2390 303.9027 -9489.7891 -7571.2434 302.3800 -3.4284 49.0187 30542.2062 156.0188 226.7183
ENERGY: 1200000 2.2458 6.2103 8.2105 0.0000 -10872.3557 1506.2908 0.0000 0.0000 1862.7526 -7486.6458 312.1478 -9349.3983 -7565.0783 303.6599 432.7344 498.3900 30930.5968 56.0725 124.9710
ENERGY: 1500000 1.9563 8.4018 9.1759 0.0000 -10868.3310 1449.8628 0.0000 0.0000 1829.8759 -7569.0583 306.6385 -9398.9342 -7573.8675 303.5627 -152.0784 -67.2648 30664.8073 23.6101 92.5093
TCL: Exiting due to exit command.
