Info: SIMULATION PARAMETERS:
Info: TIMESTEP               2
Info: NUMBER OF STEPS        0
Info: STEPS PER CYCLE        10
Info: PERIODIC CELL BASIS 1  33.5789 0 0
Info: PERIODIC CELL BASIS 2  0 29.6646 0
Info: PERIODIC CELL BASIS 3  0 0 30.671
Info: PERIODIC CELL CENTER   0 0 0
Info: WRAPPING WATERS AROUND PERIODIC BOUNDARIES ON OUTPUT.
Info: WRAPPING ALL CLUSTERS AROUND PERIODIC BOUNDARIES ON OUTPUT.
Info: FIRST LDB TIMESTEP     50
Info: LAST LDB TIMESTEP     -1
Info: HOM BACKGROUND SCALING 1
Info: PME BACKGROUND SCALING 1
Info: MIN ATOMS PER PATCH    40
Info: EMPTY PATCH LOAD       40 ATOMS
Info: VELOCITY FILE          mobley_5006685_equil.vel
Info: CENTER OF MASS MOVING INITIALLY? NO
Info: DIELECTRIC             1
Info: EXCLUDE                SCALED ONE-FOUR
Info: 1-4 ELECTROSTATICS SCALED BY 0.833333
Info: MODIFIED 1-4 VDW PARAMETERS WILL BE USED
Info: DCD FILENAME           mobley_5006685_prod.dcd
Info: DCD FREQUENCY          100000
Info: DCD FIRST STEP         100000
Info: DCD FILE WILL CONTAIN UNIT CELL DATA
Info: XST FILENAME           mobley_5006685_prod.xst
Info: XST FREQUENCY          100000
Info: NO VELOCITY DCD OUTPUT
Info: NO FORCE DCD OUTPUT
Info: OUTPUT FILENAME        mobley_5006685_prod
Info: BINARY OUTPUT FILES WILL BE USED
Info: RESTART FILENAME       mobley_5006685_prod.restart
Info: RESTART FREQUENCY      100000
Info: BINARY RESTART FILES WILL BE USED
Info: CUTOFF                 9
Info: PAIRLIST DISTANCE      11
Info: PAIRLIST SHRINK RATE   0.01
Info: PAIRLIST GROW RATE     0.01
Info: PAIRLIST TRIGGER       0.3
Info: PAIRLISTS PER CYCLE    2
Info: PAIRLISTS ENABLED
Info: MARGIN                 2
Info: HYDROGEN GROUP CUTOFF  2.5
Info: PATCH DIMENSION        15.5
Info: ENERGY OUTPUT STEPS    100000
Info: ENERGY EVALUATION STEPS    100000
Info: OUTPUT ENERGY PRECISION 4
Info: CROSSTERM ENERGY INCLUDED IN DIHEDRAL
Info: TIMING OUTPUT STEPS    1000000
Info: PRESSURE OUTPUT STEPS  100000
Info: ALCHEMICAL FEP ON
Info: FEP CURRENT LAMBDA VALUE     0
Info: FEP COMPARISON LAMBDA VALUE  0.05
Info: FEP INTRA-ALCHEMICAL NON-BONDED INTERACTIONS WILL BE RETAINED
Info: FEP INTRA-ALCHEMICAL BONDED INTERACTIONS WILL BE RETAINED
Info: FEP VDW SHIFTING COEFFICIENT 5
Info: FEP ELEC. ACTIVE FOR ANNIHILATED PARTICLES BETWEEN LAMBDA = 0 AND LAMBDA = 0.5
Info: FEP ELEC. ACTIVE FOR EXNIHILATED PARTICLES BETWEEN LAMBDA = 0.5 AND LAMBDA = 1
Info: FEP VDW ACTIVE FOR ANNIHILATED PARTICLES BETWEEN LAMBDA = 0 AND LAMBDA = 1
Info: FEP VDW ACTIVE FOR EXNIHILATED PARTICLES BETWEEN LAMBDA = 0 AND LAMBDA = 1
Info: FEP BOND ACTIVE FOR ANNIHILATED PARTICLES BETWEEN LAMBDA = 1 AND LAMBDA = 1
Info: FEP BOND ACTIVE FOR EXNIHILATED PARTICLES BETWEEN LAMBDA = 0 AND LAMBDA = 0
Info: LANGEVIN DYNAMICS ACTIVE
Info: LANGEVIN TEMPERATURE   300
Info: LANGEVIN USING BBK INTEGRATOR
Info: LANGEVIN DAMPING COEFFICIENT IS 1 INVERSE PS
Info: LANGEVIN DYNAMICS APPLIED TO HYDROGENS
Info: LANGEVIN PISTON PRESSURE CONTROL ACTIVE
Info:        TARGET PRESSURE IS 1.01325 BAR
Info:     OSCILLATION PERIOD IS 50 FS
Info:             DECAY TIME IS 25 FS
Info:     PISTON TEMPERATURE IS 300 K
Info:       PRESSURE CONTROL IS GROUP-BASED
Info:    INITIAL STRAIN RATE IS 4.02107e-05 4.02107e-05 4.02107e-05
Info:       CELL FLUCTUATION IS ISOTROPIC
Info: PARTICLE MESH EWALD (PME) ACTIVE
Info: PME TOLERANCE               1e-06
Info: PME EWALD COEFFICIENT       0.348832
Info: PME INTERPOLATION ORDER     4
Info: PME GRID DIMENSIONS         36 32 32
Info: PME MAXIMUM GRID SPACING    1
Info: PME CALCULATION WILL BE PERFORMED ON GPU
Info: FULL ELECTROSTATIC EVALUATION FREQUENCY      2
Info: USING VERLET I (r-RESPA) MTS SCHEME.
Info: C1 SPLITTING OF LONG RANGE ELECTROSTATICS
Info: PLACING ATOMS IN PATCHES BY HYDROGEN GROUPS
Info: RIGID BONDS TO HYDROGEN : ALL
Info:         ERROR TOLERANCE : 1e-08
Info:          MAX ITERATIONS : 100
Info: RIGID WATER USING SETTLE ALGORITHM
Info: RANDOM NUMBER SEED     1743887646
Info: USE HYDROGEN BONDS?    NO
Info: Using AMBER format force field!
Info: AMBER PARM FILE        mobley_5006685.prmtop
Info: COORDINATE PDB         mobley_5006685.pdb
Info: Exclusions will be read from PARM file!
Info: SCNB (VDW SCALING)     2
Info: USING ARITHMETIC MEAN TO COMBINE L-J SIGMA PARAMETERS
Info: BINARY COORDINATES     mobley_5006685_equil.coor
Info: SUMMARY OF PARAMETERS:
Info: 12 BONDS
Info: 20 ANGLES
Info:   20 HARMONIC
Info:   0 COSINE-BASED
Info: 14 DIHEDRAL
Info: 0 IMPROPER
Info: 0 CROSSTERM
Info: 0 VDW
Info: 36 VDW_PAIRS
Info: 0 NBTHOLE_PAIRS
Info: To read alchdata from file: mobley_5006685.pdb
Info: To read alchflag data from column: 5
Info: STRUCTURE SUMMARY:
Info: 2980 ATOMS
Info: 2980 BONDS
Info: 45 ANGLES
Info: 82 DIHEDRALS
Info: 0 IMPROPERS
Info: 0 CROSSTERMS
Info: 3085 EXCLUSIONS
Info: 2969 RIGID BONDS
Info: ALCH: 0 ATOMS TO DISAPPEAR IN FINAL STATE
Info: ALCH: 25 ATOMS TO APPEAR IN FINAL STATE
Info: 5971 DEGREES OF FREEDOM
Info: 996 HYDROGEN GROUPS
Info: 4 ATOMS IN LARGEST HYDROGEN GROUP
Info: 996 MIGRATION GROUPS
Info: 4 ATOMS IN LARGEST MIGRATION GROUP
Info: TOTAL MASS = 17896 amu
Info: TOTAL CHARGE = 6.51926e-09 e
Info: MASS DENSITY = 0.972707 g/cm^3
Info: ATOM DENSITY = 0.0975402 atoms/A^3
Info: ADDED 0 IMPLICIT EXCLUSIONS
Info: NONBONDED TABLE R-SQUARED SPACING: 0.0625
Info: NONBONDED TABLE SIZE: 705 POINTS
Info: REMOVING COM VELOCITY 0.0134651 -0.0877186 -0.128279
Info: Use 3D box decompostion in PME FFT.
Info: Updated CUDA force table with 4096 elements.
Info: Updated CUDA LJ table with 8 x 8 elements.
Info: Found 28 unique exclusion lists needing 100 bytes
TCL: Running for 1500000 steps
ETITLE: TS BOND ANGLE DIHED IMPRP ELECT VDW BOUNDARY MISC KINETIC TOTAL TEMP POTENTIAL TOTALAVG TEMPAVG PRESSURE GPRESSURE VOLUME PRESSAVG GPRESSAVG
ENERGY: 0 3.6540 11.7943 14.8189 0.0000 -10635.3282 1377.3918 0.0000 0.0000 1805.3089 -7422.3602 304.2950 -9227.6692 -7422.3602 304.2950 -455.6026 -367.4852 30551.5024 -455.6026 -367.4852
ENERGY: 300000 5.5938 10.8376 14.3512 0.0000 -10796.3718 1474.7603 0.0000 0.0000 1726.5381 -7564.2907 291.0178 -9290.8288 -7518.9208 300.5860 65.3187 88.1768 30189.3919 -162.2076 -109.4733
ENERGY: 600000 3.4647 13.0040 14.4120 0.0000 -10860.0805 1512.5966 0.0000 0.0000 1757.2296 -7559.3737 296.1910 -9316.6033 -7505.9318 301.4763 436.7515 497.3388 30177.0461 7.8223 72.2039
ENERGY: 900000 4.9073 11.4961 15.4783 0.0000 -10747.0791 1407.3063 0.0000 0.0000 1764.0159 -7543.8752 297.3348 -9307.8911 -7512.6360 300.4027 -389.4512 -338.2977 30342.3988 -11.4674 37.6209
ENERGY: 1200000 7.5547 11.0400 17.2018 0.0000 -10819.4902 1499.2498 0.0000 0.0000 1795.9961 -7488.4479 302.7253 -9284.4439 -7503.9899 300.4833 278.4355 221.6755 30644.8066 1.2336 45.6512
ENERGY: 1500000 2.1242 14.1986 13.6236 0.0000 -10863.9146 1479.1830 0.0000 0.0000 1791.7357 -7563.0497 302.0072 -9354.7854 -7511.7036 300.7443 257.8794 374.4676 29857.3240 -19.2467 28.2326
TCL: Running FEP window   2: Lambda1 0.05   Lambda2 0.1    [dLambda 0.05  ]
TCL: Setting parameter firsttimestep to 0
TCL: Setting parameter alchLambda to 0.05
Info: NONBONDED TABLE R-SQUARED SPACING: 0.0625
Info: NONBONDED TABLE SIZE: 705 POINTS
TCL: Setting parameter alchLambda2 to 0.1
Info: NONBONDED TABLE R-SQUARED SPACING: 0.0625
Info: NONBONDED TABLE SIZE: 705 POINTS
TCL: Running for 1500000 steps
ETITLE: TS BOND ANGLE DIHED IMPRP ELECT VDW BOUNDARY MISC KINETIC TOTAL TEMP POTENTIAL TOTALAVG TEMPAVG PRESSURE GPRESSURE VOLUME PRESSAVG GPRESSAVG
ENERGY: 0 2.1242 14.1986 13.6236 0.0000 -10863.9140 1481.5307 0.0000 0.0000 1790.8357 -7561.6012 301.8555 -9352.4369 -7561.6012 301.8555 279.2584 380.3895 29857.3240 279.2584 380.3895
ENERGY: 300000 3.7576 6.3552 14.7042 0.0000 -10765.2385 1393.1783 0.0000 0.0000 1816.6176 -7530.6257 306.2012 -9347.2433 -7523.5240 301.0770 -573.9016 -566.8529 30691.9281 -312.3224 -264.0097
ENERGY: 600000 3.6869 9.5428 14.2521 0.0000 -10732.1934 1409.0093 0.0000 0.0000 1765.0265 -7530.6758 297.5052 -9295.7023 -7510.7477 301.2105 -627.3808 -449.3025 30739.5545 -341.4810 -273.3995
ENERGY: 900000 3.3146 13.3928 15.5104 0.0000 -10622.3916 1368.7953 0.0000 0.0000 1760.4457 -7460.9329 296.7331 -9221.3786 -7525.4467 299.6715 -412.8894 -427.1394 30151.2783 -251.9871 -175.6773
ENERGY: 1200000 7.0688 10.0451 13.3984 0.0000 -10729.6191 1415.3360 0.0000 0.0000 1765.7363 -7518.0346 297.6248 -9283.7709 -7524.4132 298.2771 -299.5701 -270.1099 30300.7468 -247.5267 -175.0544
ENERGY: 1500000 4.8282 7.3619 17.0690 0.0000 -10687.0804 1396.1363 0.0000 0.0000 1767.0742 -7494.6108 297.8503 -9261.6850 -7523.6543 298.6210 -489.3590 -414.7715 30582.8959 -234.9904 -162.2398
TCL: Running FEP window   3: Lambda1 0.1    Lambda2 0.15000000000000002 [dLambda 0.05000000000000002]
TCL: Setting parameter firsttimestep to 0
TCL: Setting parameter alchLambda to 0.1
Info: NONBONDED TABLE R-SQUARED SPACING: 0.0625
Info: NONBONDED TABLE SIZE: 705 POINTS
TCL: Setting parameter alchLambda2 to 0.15000000000000002
Info: NONBONDED TABLE R-SQUARED SPACING: 0.0625
Info: NONBONDED TABLE SIZE: 705 POINTS
TCL: Running for 1500000 steps
ETITLE: TS BOND ANGLE DIHED IMPRP ELECT VDW BOUNDARY MISC KINETIC TOTAL TEMP POTENTIAL TOTALAVG TEMPAVG PRESSURE GPRESSURE VOLUME PRESSAVG GPRESSAVG
ENERGY: 0 4.8282 7.3619 17.0690 0.0000 -10687.0809 1397.7456 0.0000 0.0000 1766.1881 -7493.8881 297.7010 -9260.0762 -7493.8881 297.7010 -493.7025 -410.1715 30582.8959 -493.7025 -410.1715
ENERGY: 300000 4.1529 9.4951 14.9880 0.0000 -10664.9154 1356.8356 0.0000 0.0000 1814.9865 -7464.4574 305.9262 -9279.4439 -7470.2551 305.2334 -821.4831 -777.4973 30569.0323 -385.0964 -335.6708
ENERGY: 600000 4.2686 10.0452 14.8894 0.0000 -10753.4392 1478.3706 0.0000 0.0000 1784.8479 -7461.0175 300.8462 -9245.8654 -7468.4712 303.9252 87.6315 175.3148 30624.8294 -172.2369 -131.6415
ENERGY: 900000 4.5268 8.6631 16.2724 0.0000 -10690.3114 1315.4611 0.0000 0.0000 1800.5177 -7544.8702 303.4874 -9345.3880 -7471.2474 304.7416 -1428.4420 -1377.4861 30442.2068 -185.1711 -127.7955
ENERGY: 1200000 9.6498 9.6877 14.6100 0.0000 -10754.1867 1461.0251 0.0000 0.0000 1754.5309 -7504.6832 295.7361 -9259.2141 -7467.9578 303.7372 361.1643 355.5755 30421.0685 -197.0553 -151.1862
ENERGY: 1500000 3.5114 8.7488 12.4480 0.0000 -10756.0674 1473.6579 0.0000 0.0000 1748.9335 -7508.7677 294.7926 -9257.7013 -7475.5297 302.4425 134.6996 229.1636 30441.8081 -194.4094 -141.5414
TCL: Running FEP window   4: Lambda1 0.15000000000000002 Lambda2 0.2    [dLambda 0.04999999999999999]
TCL: Setting parameter firsttimestep to 0
TCL: Setting parameter alchLambda to 0.15000000000000002
Info: NONBONDED TABLE R-SQUARED SPACING: 0.0625
Info: NONBONDED TABLE SIZE: 705 POINTS
TCL: Setting parameter alchLambda2 to 0.2
Info: NONBONDED TABLE R-SQUARED SPACING: 0.0625
Info: NONBONDED TABLE SIZE: 705 POINTS
TCL: Running for 1500000 steps
ETITLE: TS BOND ANGLE DIHED IMPRP ELECT VDW BOUNDARY MISC KINETIC TOTAL TEMP POTENTIAL TOTALAVG TEMPAVG PRESSURE GPRESSURE VOLUME PRESSAVG GPRESSAVG
ENERGY: 0 3.5114 8.7488 12.4480 0.0000 -10756.0662 1476.6376 0.0000 0.0000 1748.0648 -7506.6556 294.6462 -9254.7204 -7506.6556 294.6462 156.9636 242.8727 30441.8081 156.9636 242.8727
ENERGY: 300000 3.4516 16.7869 17.7571 0.0000 -10886.8841 1558.0296 0.0000 0.0000 1843.3283 -7447.5306 310.7034 -9290.8589 -7492.5023 299.7157 758.9584 808.3503 30399.4488 364.2736 434.7607
ENERGY: 600000 4.0112 7.7277 16.9293 0.0000 -10757.6938 1488.2732 0.0000 0.0000 1804.7910 -7435.9614 304.2077 -9240.7524 -7486.4547 300.0912 352.5040 353.5247 30371.1474 317.7159 368.4546
ENERGY: 900000 2.0255 10.4273 14.1276 0.0000 -10870.9238 1548.6908 0.0000 0.0000 1729.2705 -7566.3821 291.4783 -9295.6525 -7512.3380 298.4099 697.9103 711.5106 30394.3013 282.5355 333.2014
ENERGY: 1200000 3.4013 10.1853 13.7249 0.0000 -10683.3686 1351.8217 0.0000 0.0000 1760.4373 -7543.7982 296.7316 -9304.2354 -7502.3820 298.6924 -801.5676 -831.7064 30630.7078 107.6053 153.2651
ENERGY: 1500000 2.5029 8.1257 15.4767 0.0000 -10760.7492 1488.7957 0.0000 0.0000 1749.8071 -7496.0411 294.9399 -9245.8482 -7495.4071 298.5271 389.8550 529.3604 30649.4468 87.3726 137.4210
TCL: Running FEP window   5: Lambda1 0.2    Lambda2 0.25   [dLambda 0.04999999999999999]
TCL: Setting parameter firsttimestep to 0
TCL: Setting parameter alchLambda to 0.2
Info: NONBONDED TABLE R-SQUARED SPACING: 0.0625
Info: NONBONDED TABLE SIZE: 705 POINTS
TCL: Setting parameter alchLambda2 to 0.25
Info: NONBONDED TABLE R-SQUARED SPACING: 0.0625
Info: NONBONDED TABLE SIZE: 705 POINTS
TCL: Running for 1500000 steps
ETITLE: TS BOND ANGLE DIHED IMPRP ELECT VDW BOUNDARY MISC KINETIC TOTAL TEMP POTENTIAL TOTALAVG TEMPAVG PRESSURE GPRESSURE VOLUME PRESSAVG GPRESSAVG
ENERGY: 0 2.5029 8.1257 15.4767 0.0000 -10760.7483 1489.6580 0.0000 0.0000 1748.9283 -7496.0566 294.7917 -9244.9849 -7496.0566 294.7917 457.2517 538.6730 30649.4468 457.2517 538.6730
ENERGY: 300000 2.1755 9.3690 13.8009 0.0000 -10738.0625 1416.3561 0.0000 0.0000 1762.5033 -7533.8575 297.0799 -9296.3609 -7468.3628 299.4066 -253.4062 -207.5799 30305.2996 -61.6203 -2.1358
ENERGY: 600000 6.3025 11.7570 13.9282 0.0000 -10983.8990 1575.1824 0.0000 0.0000 1799.9464 -7576.7825 303.3911 -9376.7289 -7503.4361 298.6919 548.3950 655.3790 30381.2350 236.9699 304.5108
ENERGY: 900000 4.6382 8.3511 13.2492 0.0000 -10710.5945 1413.7419 0.0000 0.0000 1767.9622 -7502.6518 298.0000 -9270.6141 -7508.5815 297.8662 -275.0468 -177.4842 30799.6683 67.7512 140.5596
ENERGY: 1200000 5.0123 9.8802 14.6115 0.0000 -10885.4023 1523.4188 0.0000 0.0000 1767.0927 -7565.3869 297.8535 -9332.4796 -7510.3560 298.6908 204.2681 271.4969 30394.3816 65.7117 139.6918
ENERGY: 1500000 3.4344 11.1990 13.5297 0.0000 -10654.5846 1372.7430 0.0000 0.0000 1722.5866 -7531.0920 290.3517 -9253.6786 -7504.1219 298.8792 -766.9787 -715.9247 30740.6484 6.8441 81.0478
TCL: Running FEP window   6: Lambda1 0.25   Lambda2 0.3    [dLambda 0.04999999999999999]
TCL: Setting parameter firsttimestep to 0
TCL: Setting parameter alchLambda to 0.25
Info: NONBONDED TABLE R-SQUARED SPACING: 0.0625
Info: NONBONDED TABLE SIZE: 705 POINTS
TCL: Setting parameter alchLambda2 to 0.3
Info: NONBONDED TABLE R-SQUARED SPACING: 0.0625
Info: NONBONDED TABLE SIZE: 705 POINTS
TCL: Running for 1500000 steps
ETITLE: TS BOND ANGLE DIHED IMPRP ELECT VDW BOUNDARY MISC KINETIC TOTAL TEMP POTENTIAL TOTALAVG TEMPAVG PRESSURE GPRESSURE VOLUME PRESSAVG GPRESSAVG
ENERGY: 0 3.4344 11.1990 13.5297 0.0000 -10654.5837 1372.8735 0.0000 0.0000 1721.6936 -7531.8537 290.2012 -9253.5472 -7531.8537 290.2012 -801.0559 -707.3982 30740.6484 -801.0559 -707.3982
ENERGY: 300000 3.4130 10.8468 15.5872 0.0000 -10695.2974 1401.7027 0.0000 0.0000 1765.2888 -7498.4589 297.5494 -9263.7477 -7499.4847 299.4002 -318.3061 -227.5990 30322.0298 -236.4676 -168.7854
ENERGY: 600000 3.5462 7.5085 13.9939 0.0000 -10803.0732 1442.1425 0.0000 0.0000 1811.0046 -7524.8774 305.2551 -9335.8820 -7507.5667 300.5708 282.2188 322.9142 29753.3369 -172.1977 -112.7683
ENERGY: 900000 5.1946 6.6629 14.3473 0.0000 -10784.4348 1453.1305 0.0000 0.0000 1737.0809 -7568.0187 292.7948 -9305.0996 -7507.3717 300.6703 -365.8734 -278.5774 30670.3663 -232.2911 -163.1267
ENERGY: 1200000 7.1249 10.3416 17.7668 0.0000 -10673.6411 1414.9911 0.0000 0.0000 1748.3636 -7475.0531 294.6966 -9223.4167 -7503.1162 300.1289 -354.4684 -283.6198 30641.4572 -306.6290 -238.5364
ENERGY: 1500000 6.2623 15.0398 14.2178 0.0000 -10700.4051 1408.3042 0.0000 0.0000 1746.8397 -7509.7414 294.4397 -9256.5811 -7514.6544 299.0087 -352.3865 -293.3938 30435.5372 -279.3992 -212.7478
TCL: Running FEP window   7: Lambda1 0.3    Lambda2 0.35   [dLambda 0.04999999999999999]
TCL: Setting parameter firsttimestep to 0
TCL: Setting parameter alchLambda to 0.3
Info: NONBONDED TABLE R-SQUARED SPACING: 0.0625
Info: NONBONDED TABLE SIZE: 705 POINTS
TCL: Setting parameter alchLambda2 to 0.35
Info: NONBONDED TABLE R-SQUARED SPACING: 0.0625
Info: NONBONDED TABLE SIZE: 705 POINTS
TCL: Running for 1500000 steps
ETITLE: TS BOND ANGLE DIHED IMPRP ELECT VDW BOUNDARY MISC KINETIC TOTAL TEMP POTENTIAL TOTALAVG TEMPAVG PRESSURE GPRESSURE VOLUME PRESSAVG GPRESSAVG
ENERGY: 0 6.2623 15.0398 14.2178 0.0000 -10700.4044 1409.5475 0.0000 0.0000 1745.9395 -7509.3977 294.2880 -9255.3371 -7509.3977 294.2880 -352.7793 -280.3578 30435.5372 -352.7793 -280.3578
ENERGY: 300000 2.8972 13.3639 14.7263 0.0000 -10740.9436 1433.1617 0.0000 0.0000 1832.9909 -7443.8035 308.9610 -9276.7944 -7464.2638 303.2978 19.4996 56.2286 30110.1906 91.2911 142.2009
ENERGY: 600000 1.5328 9.8922 16.8607 0.0000 -10744.8810 1402.6917 0.0000 0.0000 1800.3027 -7513.6008 303.4512 -9313.9036 -7480.6590 303.3289 -246.4644 -108.1550 30118.7888 61.5135 130.5451
ENERGY: 900000 0.9372 8.8239 13.5178 0.0000 -10637.9705 1396.4283 0.0000 0.0000 1770.6264 -7447.6368 298.4491 -9218.2632 -7504.2964 301.0276 -521.9545 -463.6885 31048.2548 81.7103 143.3413
ENERGY: 1200000 4.6732 6.7230 15.5674 0.0000 -10753.3481 1461.7338 0.0000 0.0000 1750.3861 -7514.2646 295.0375 -9264.6506 -7498.2094 299.6725 16.5220 39.5790 30502.5734 137.2727 189.5441
ENERGY: 1500000 2.2076 9.4020 13.3451 0.0000 -10697.8606 1391.7885 0.0000 0.0000 1824.1892 -7456.9282 307.4774 -9281.1174 -7495.7250 300.5694 -572.3812 -534.7157 30849.1550 132.3023 186.2067
TCL: Running FEP window   8: Lambda1 0.35   Lambda2 0.39999999999999997 [dLambda 0.04999999999999999]
TCL: Setting parameter firsttimestep to 0
TCL: Setting parameter alchLambda to 0.35
Info: NONBONDED TABLE R-SQUARED SPACING: 0.0625
Info: NONBONDED TABLE SIZE: 705 POINTS
TCL: Setting parameter alchLambda2 to 0.39999999999999997
Info: NONBONDED TABLE R-SQUARED SPACING: 0.0625
Info: NONBONDED TABLE SIZE: 705 POINTS
TCL: Running for 1500000 steps
ETITLE: TS BOND ANGLE DIHED IMPRP ELECT VDW BOUNDARY MISC KINETIC TOTAL TEMP POTENTIAL TOTALAVG TEMPAVG PRESSURE GPRESSURE VOLUME PRESSAVG GPRESSAVG
ENERGY: 0 2.2076 9.4020 13.3451 0.0000 -10697.8593 1391.7539 0.0000 0.0000 1823.3146 -7457.8362 307.3300 -9281.1508 -7457.8362 307.3300 -608.3885 -529.1067 30849.1550 -608.3885 -529.1067
ENERGY: 300000 6.9058 6.8692 16.1109 0.0000 -10636.3658 1398.9112 0.0000 0.0000 1807.0639 -7400.5049 304.5908 -9207.5688 -7495.0568 304.7001 -232.9351 -193.9829 30749.6042 -343.6542 -302.7185
ENERGY: 600000 4.4700 13.3534 13.6625 0.0000 -10632.4222 1323.6144 0.0000 0.0000 1808.4310 -7468.8908 304.8213 -9277.3218 -7492.5904 302.5900 -1251.5430 -1194.5059 31050.9589 -467.0703 -409.1862
ENERGY: 900000 3.4803 11.7072 15.3567 0.0000 -10675.4970 1403.7719 0.0000 0.0000 1758.2817 -7482.8991 296.3683 -9241.1808 -7498.5110 301.3193 -447.6044 -333.5691 30939.5419 -439.3073 -373.8041
ENERGY: 1200000 4.5998 10.1456 13.7317 0.0000 -10745.6286 1444.5859 0.0000 0.0000 1703.4605 -7569.1052 287.1279 -9272.5657 -7503.4952 300.3712 -288.2047 -181.6467 30466.5040 -388.6876 -323.1908
ENERGY: 1500000 3.6712 15.0425 15.5914 0.0000 -10636.5733 1444.3588 0.0000 0.0000 1798.4176 -7359.4917 303.1334 -9157.9093 -7496.3659 300.0749 106.9535 190.3575 30761.9368 -362.3580 -297.4916
TCL: Running FEP window   9: Lambda1 0.39999999999999997 Lambda2 0.44999999999999996 [dLambda 0.04999999999999999]
TCL: Setting parameter firsttimestep to 0
TCL: Setting parameter alchLambda to 0.39999999999999997
Info: NONBONDED TABLE R-SQUARED SPACING: 0.0625
Info: NONBONDED TABLE SIZE: 705 POINTS
TCL: Setting parameter alchLambda2 to 0.44999999999999996
Info: NONBONDED TABLE R-SQUARED SPACING: 0.0625
Info: NONBONDED TABLE SIZE: 705 POINTS
TCL: Running for 1500000 steps
ETITLE: TS BOND ANGLE DIHED IMPRP ELECT VDW BOUNDARY MISC KINETIC TOTAL TEMP POTENTIAL TOTALAVG TEMPAVG PRESSURE GPRESSURE VOLUME PRESSAVG GPRESSAVG
ENERGY: 0 3.6712 15.0425 15.5914 0.0000 -10636.5727 1444.6400 0.0000 0.0000 1797.5049 -7360.1227 302.9796 -9157.6275 -7360.1227 302.9796 112.7982 198.9315 30761.9368 112.7982 198.9315
ENERGY: 300000 5.4565 7.4472 19.6381 0.0000 -10619.0351 1361.5818 0.0000 0.0000 1741.8745 -7483.0371 293.6028 -9224.9116 -7503.6667 295.0098 -714.6207 -652.3060 30808.4556 -94.2371 -37.2223
ENERGY: 600000 2.8973 9.4134 16.6873 0.0000 -10627.4963 1336.9285 0.0000 0.0000 1699.5717 -7561.9981 286.4724 -9261.5698 -7512.7452 295.8207 -1396.9615 -1313.4489 31448.6918 -295.0434 -228.3161
ENERGY: 900000 2.3108 5.6724 15.4060 0.0000 -10776.1869 1452.9845 0.0000 0.0000 1726.1953 -7573.6181 290.9600 -9299.8133 -7513.2465 297.6200 -78.2006 -37.3813 30729.6262 -229.0793 -163.6169
ENERGY: 1200000 1.9640 9.7768 12.8345 0.0000 -10670.1217 1404.8537 0.0000 0.0000 1727.2680 -7513.4247 291.1408 -9240.6927 -7501.1135 297.9804 -254.1918 -137.1656 30435.6440 -244.9242 -166.6243
ENERGY: 1500000 2.8985 12.1800 15.2443 0.0000 -10811.4698 1541.2475 0.0000 0.0000 1813.5072 -7426.3925 305.6769 -9239.8997 -7495.4869 298.6719 510.4437 624.5381 31038.9680 -209.5657 -129.3654
TCL: Running FEP window  10: Lambda1 0.44999999999999996 Lambda2 0.49999999999999994 [dLambda 0.04999999999999999]
TCL: Setting parameter firsttimestep to 0
TCL: Setting parameter alchLambda to 0.44999999999999996
Info: NONBONDED TABLE R-SQUARED SPACING: 0.0625
Info: NONBONDED TABLE SIZE: 705 POINTS
TCL: Setting parameter alchLambda2 to 0.49999999999999994
Info: NONBONDED TABLE R-SQUARED SPACING: 0.0625
Info: NONBONDED TABLE SIZE: 705 POINTS
TCL: Running for 1500000 steps
ETITLE: TS BOND ANGLE DIHED IMPRP ELECT VDW BOUNDARY MISC KINETIC TOTAL TEMP POTENTIAL TOTALAVG TEMPAVG PRESSURE GPRESSURE VOLUME PRESSAVG GPRESSAVG
ENERGY: 0 2.8985 12.1800 15.2443 0.0000 -10811.4692 1541.0951 0.0000 0.0000 1812.5737 -7427.4777 305.5195 -9240.0515 -7427.4777 305.5195 553.4840 632.1426 31038.9680 553.4840 632.1426
ENERGY: 300000 3.4475 10.3390 15.2522 0.0000 -10650.0133 1361.7384 0.0000 0.0000 1763.3132 -7495.9230 297.2164 -9259.2362 -7481.2218 299.9822 -722.2438 -614.7270 30737.1803 220.9528 319.9037
ENERGY: 600000 3.2704 6.3111 14.1510 0.0000 -10705.4280 1404.6433 0.0000 0.0000 1788.1729 -7488.8794 301.4066 -9277.0523 -7492.8650 300.2944 -445.2871 -335.4784 30697.3401 106.2245 189.0545
ENERGY: 900000 7.1384 10.2036 16.2271 0.0000 -10879.3715 1545.9852 0.0000 0.0000 1790.2779 -7509.5392 301.7615 -9299.8172 -7476.1090 301.2883 787.3989 844.1185 30320.7364 200.2432 269.1572
ENERGY: 1200000 3.7678 9.7687 12.3219 0.0000 -10803.9205 1483.3452 0.0000 0.0000 1781.0157 -7513.7011 300.2003 -9294.7168 -7485.0351 300.3610 217.1403 265.2931 30430.2136 180.1722 246.9729
ENERGY: 1500000 2.1122 11.6529 13.8748 0.0000 -10795.9845 1450.8272 0.0000 0.0000 1802.5620 -7514.9554 303.8320 -9317.5174 -7495.5458 299.9169 35.7212 81.7121 30468.6788 155.2995 216.6281
TCL: Running FEP window  11: Lambda1 0.49999999999999994 Lambda2 0.5499999999999999 [dLambda 0.04999999999999999]
TCL: Setting parameter firsttimestep to 0
TCL: Setting parameter alchLambda to 0.49999999999999994
Info: NONBONDED TABLE R-SQUARED SPACING: 0.0625
Info: NONBONDED TABLE SIZE: 705 POINTS
TCL: Setting parameter alchLambda2 to 0.5499999999999999
Info: NONBONDED TABLE R-SQUARED SPACING: 0.0625
Info: NONBONDED TABLE SIZE: 705 POINTS
TCL: Running for 1500000 steps
ETITLE: TS BOND ANGLE DIHED IMPRP ELECT VDW BOUNDARY MISC KINETIC TOTAL TEMP POTENTIAL TOTALAVG TEMPAVG PRESSURE GPRESSURE VOLUME PRESSAVG GPRESSAVG
ENERGY: 0 2.1122 11.6529 13.8748 0.0000 -10795.9848 1451.7480 0.0000 0.0000 1801.6659 -7514.9310 303.6810 -9316.5968 -7514.9310 303.6810 4.4149 97.5487 30468.6788 4.4149 97.5487
ENERGY: 300000 2.3709 9.8853 14.4899 0.0000 -10755.5685 1480.4975 0.0000 0.0000 1763.4151 -7484.9097 297.2336 -9248.3249 -7490.1013 298.2027 228.9787 300.5621 30940.1807 39.2965 100.4611
ENERGY: 600000 5.4414 9.3512 14.1277 0.0000 -10731.9680 1436.3198 0.0000 0.0000 1772.5641 -7494.1638 298.7757 -9266.7279 -7511.1380 297.9483 251.8218 343.1085 30107.2277 247.7549 308.6479
ENERGY: 900000 3.3170 7.9710 14.2161 0.0000 -10918.8804 1564.7596 0.0000 0.0000 1795.5217 -7533.0950 302.6453 -9328.6167 -7506.4914 298.5012 930.0370 980.1023 30450.6048 359.7843 436.7328
ENERGY: 1200000 6.3310 9.0546 12.5056 0.0000 -10592.8025 1291.5242 0.0000 0.0000 1733.7406 -7539.6466 292.2318 -9273.3872 -7508.5319 298.3673 -1217.7844 -1202.7368 30862.8827 205.3390 266.3025
ENERGY: 1500000 4.8982 8.4423 13.8031 0.0000 -10706.1666 1408.7526 0.0000 0.0000 1788.9779 -7481.2925 301.5423 -9270.2704 -7499.1470 298.7636 -650.7256 -562.7326 31160.1415 71.3216 129.4618
TCL: Running FEP window  12: Lambda1 0.5499999999999999 Lambda2 0.6    [dLambda 0.050000000000000044]
TCL: Setting parameter firsttimestep to 0
TCL: Setting parameter alchLambda to 0.5499999999999999
Info: NONBONDED TABLE R-SQUARED SPACING: 0.0625
Info: NONBONDED TABLE SIZE: 705 POINTS
TCL: Setting parameter alchLambda2 to 0.6
Info: NONBONDED TABLE R-SQUARED SPACING: 0.0625
Info: NONBONDED TABLE SIZE: 705 POINTS
TCL: Running for 1500000 steps
ETITLE: TS BOND ANGLE DIHED IMPRP ELECT VDW BOUNDARY MISC KINETIC TOTAL TEMP POTENTIAL TOTALAVG TEMPAVG PRESSURE GPRESSURE VOLUME PRESSAVG GPRESSAVG
ENERGY: 0 4.8982 8.4423 13.8031 0.0000 -10706.4938 1408.7334 0.0000 0.0000 1788.0569 -7482.5599 301.3871 -9270.6168 -7482.5599 301.3871 -639.4647 -553.2509 31160.1415 -639.4647 -553.2509
ENERGY: 300000 4.2627 8.4379 19.3403 0.0000 -10676.3624 1401.1834 0.0000 0.0000 1816.0317 -7427.1063 306.1024 -9243.1380 -7487.8904 301.6843 -256.2558 -183.9460 30585.3973 -34.5851 29.4783
ENERGY: 600000 4.1067 15.6663 15.6276 0.0000 -10774.3963 1516.6432 0.0000 0.0000 1773.1858 -7449.1667 298.8805 -9222.3525 -7487.1582 300.5145 530.4347 628.3162 30564.5707 -5.8989 54.3243
ENERGY: 900000 2.5389 7.2853 12.9600 0.0000 -10778.5157 1469.6210 0.0000 0.0000 1769.7275 -7516.3829 298.2976 -9286.1105 -7489.1810 300.6246 130.5247 225.7659 30628.4913 8.5052 64.8552
ENERGY: 1200000 0.6273 9.1403 14.5982 0.0000 -10825.2112 1522.1269 0.0000 0.0000 1788.1627 -7490.5559 301.4049 -9278.7185 -7493.6344 300.6174 776.0711 810.5654 30399.2759 48.7973 102.7196
ENERGY: 1500000 2.4980 8.8750 12.3698 0.0000 -10724.5274 1412.2980 0.0000 0.0000 1812.4117 -7476.0749 305.4922 -9288.4866 -7498.0211 300.8983 -456.4156 -377.8103 31056.9821 83.3780 137.0552
TCL: Running FEP window  13: Lambda1 0.6    Lambda2 0.65   [dLambda 0.050000000000000044]
TCL: Setting parameter firsttimestep to 0
TCL: Setting parameter alchLambda to 0.6
Info: NONBONDED TABLE R-SQUARED SPACING: 0.0625
Info: NONBONDED TABLE SIZE: 705 POINTS
TCL: Setting parameter alchLambda2 to 0.65
Info: NONBONDED TABLE R-SQUARED SPACING: 0.0625
Info: NONBONDED TABLE SIZE: 705 POINTS
TCL: Running for 1500000 steps
ETITLE: TS BOND ANGLE DIHED IMPRP ELECT VDW BOUNDARY MISC KINETIC TOTAL TEMP POTENTIAL TOTALAVG TEMPAVG PRESSURE GPRESSURE VOLUME PRESSAVG GPRESSAVG
ENERGY: 0 2.4980 8.8750 12.3698 0.0000 -10724.9970 1412.9259 0.0000 0.0000 1811.4957 -7476.8326 305.3378 -9288.3283 -7476.8326 305.3378 -463.8588 -362.9422 31056.9821 -463.8588 -362.9422
ENERGY: 300000 1.7931 10.3289 19.8711 0.0000 -10960.1128 1572.7023 0.0000 0.0000 1790.0001 -7565.4172 301.7146 -9355.4173 -7487.3848 301.4160 751.1230 926.4933 30185.9763 200.5556 281.5528
ENERGY: 600000 3.7480 10.6455 13.8413 0.0000 -10745.4858 1486.1935 0.0000 0.0000 1842.1216 -7388.9359 310.5000 -9231.0575 -7469.8020 302.3865 475.9390 510.2749 30496.2805 33.3654 113.4302
ENERGY: 900000 4.1009 6.5764 13.2698 0.0000 -10788.7807 1500.9286 0.0000 0.0000 1767.3472 -7496.5579 297.8964 -9263.9051 -7480.3339 301.7460 440.3522 512.9354 30686.7718 51.4774 123.5929
ENERGY: 1200000 2.1782 8.3846 13.5028 0.0000 -10625.4993 1364.3190 0.0000 0.0000 1758.6986 -7478.4162 296.4386 -9237.1148 -7481.8841 300.4994 -506.8771 -429.1243 30643.1729 -6.1476 62.2514
ENERGY: 1500000 2.2079 8.3181 14.3759 0.0000 -11033.5820 1636.1314 0.0000 0.0000 1775.9118 -7596.6369 299.3400 -9372.5487 -7498.4736 300.4668 779.2292 916.6810 30955.4830 94.8665 164.7432
TCL: Running FEP window  14: Lambda1 0.65   Lambda2 0.7000000000000001 [dLambda 0.050000000000000044]
TCL: Setting parameter firsttimestep to 0
TCL: Setting parameter alchLambda to 0.65
Info: NONBONDED TABLE R-SQUARED SPACING: 0.0625
Info: NONBONDED TABLE SIZE: 705 POINTS
TCL: Setting parameter alchLambda2 to 0.7000000000000001
Info: NONBONDED TABLE R-SQUARED SPACING: 0.0625
Info: NONBONDED TABLE SIZE: 705 POINTS
TCL: Running for 1500000 steps
ETITLE: TS BOND ANGLE DIHED IMPRP ELECT VDW BOUNDARY MISC KINETIC TOTAL TEMP POTENTIAL TOTALAVG TEMPAVG PRESSURE GPRESSURE VOLUME PRESSAVG GPRESSAVG
ENERGY: 0 2.2079 8.3181 14.3759 0.0000 -11034.6941 1635.5964 0.0000 0.0000 1774.9949 -7599.2009 299.1854 -9374.1958 -7599.2009 299.1854 822.3725 918.1003 30955.4830 822.3725 918.1003
ENERGY: 300000 5.2032 7.5753 13.4478 0.0000 -10859.6852 1464.6710 0.0000 0.0000 1781.1707 -7587.6172 300.2264 -9368.7879 -7541.8142 303.6965 21.8592 25.6825 30377.8489 356.6542 422.3126
ENERGY: 600000 4.6014 11.0862 18.1693 0.0000 -10784.8329 1454.2869 0.0000 0.0000 1815.5957 -7481.0935 306.0289 -9296.6891 -7530.2474 301.9112 -123.0785 -37.5258 30691.5392 192.7290 258.2822
ENERGY: 900000 1.9353 9.1975 14.0557 0.0000 -10856.7284 1503.9772 0.0000 0.0000 1761.6250 -7565.9377 296.9318 -9327.5627 -7523.9323 300.3837 408.7255 463.2050 30030.4878 128.7353 199.8326
ENERGY: 1200000 3.2393 16.1100 14.0582 0.0000 -10656.1373 1391.7632 0.0000 0.0000 1727.8104 -7503.1563 291.2322 -9230.9667 -7512.6039 300.2454 -314.9472 -203.9606 30679.7488 62.1345 134.0463
ENERGY: 1500000 3.1584 10.4310 13.3548 0.0000 -10663.4835 1446.6627 0.0000 0.0000 1774.9318 -7414.9448 299.1748 -9189.8766 -7508.9011 300.5155 93.4322 143.7830 30951.1357 23.5914 85.9745
TCL: Running FEP window  15: Lambda1 0.7000000000000001 Lambda2 0.7500000000000001 [dLambda 0.050000000000000044]
TCL: Setting parameter firsttimestep to 0
TCL: Setting parameter alchLambda to 0.7000000000000001
Info: NONBONDED TABLE R-SQUARED SPACING: 0.0625
Info: NONBONDED TABLE SIZE: 705 POINTS
TCL: Setting parameter alchLambda2 to 0.7500000000000001
Info: NONBONDED TABLE R-SQUARED SPACING: 0.0625
Info: NONBONDED TABLE SIZE: 705 POINTS
TCL: Running for 1500000 steps
ETITLE: TS BOND ANGLE DIHED IMPRP ELECT VDW BOUNDARY MISC KINETIC TOTAL TEMP POTENTIAL TOTALAVG TEMPAVG PRESSURE GPRESSURE VOLUME PRESSAVG GPRESSAVG
ENERGY: 0 3.1584 10.4310 13.3548 0.0000 -10664.4055 1447.3801 0.0000 0.0000 1774.0701 -7416.0111 299.0295 -9190.0812 -7416.0111 299.0295 83.4569 164.6231 30951.1357 83.4569 164.6231
ENERGY: 300000 6.4651 9.2126 12.9083 0.0000 -10818.2080 1514.3833 0.0000 0.0000 1767.1961 -7508.0426 297.8709 -9275.2387 -7499.8327 299.7887 309.9742 353.3916 30650.7361 146.5216 186.4068
ENERGY: 600000 4.7217 6.9598 13.3653 0.0000 -10707.5223 1323.0040 0.0000 0.0000 1809.3177 -7550.1538 304.9707 -9359.4715 -7511.6921 301.2836 -1386.4566 -1287.3331 30936.3090 -252.6719 -202.4836
ENERGY: 900000 6.6533 9.5520 13.6148 0.0000 -10791.9061 1452.4930 0.0000 0.0000 1754.9520 -7554.6410 295.8071 -9309.5930 -7512.9421 300.2724 -227.3518 -181.0170 30404.9642 -327.7061 -280.2395
ENERGY: 1200000 6.1336 14.4202 16.9956 0.0000 -10627.9262 1337.6698 0.0000 0.0000 1771.4418 -7481.2652 298.5865 -9252.7070 -7501.6524 300.7066 -901.5758 -805.6005 30895.1776 -300.3996 -242.8130
ENERGY: 1500000 4.6791 6.9017 15.1008 0.0000 -10751.4687 1436.8707 0.0000 0.0000 1812.4773 -7475.4391 305.5033 -9287.9164 -7509.0212 300.8697 20.7694 87.4535 30584.3147 -209.2202 -150.1678
TCL: Running FEP window  16: Lambda1 0.7500000000000001 Lambda2 0.8000000000000002 [dLambda 0.050000000000000044]
TCL: Setting parameter firsttimestep to 0
TCL: Setting parameter alchLambda to 0.7500000000000001
Info: NONBONDED TABLE R-SQUARED SPACING: 0.0625
Info: NONBONDED TABLE SIZE: 705 POINTS
TCL: Setting parameter alchLambda2 to 0.8000000000000002
Info: NONBONDED TABLE R-SQUARED SPACING: 0.0625
Info: NONBONDED TABLE SIZE: 705 POINTS
TCL: Running for 1500000 steps
ETITLE: TS BOND ANGLE DIHED IMPRP ELECT VDW BOUNDARY MISC KINETIC TOTAL TEMP POTENTIAL TOTALAVG TEMPAVG PRESSURE GPRESSURE VOLUME PRESSAVG GPRESSAVG
ENERGY: 0 4.6791 6.9017 15.1008 0.0000 -10751.7688 1437.4159 0.0000 0.0000 1811.5980 -7476.0732 305.3551 -9287.6712 -7476.0732 305.3551 27.5507 107.5384 30584.3147 27.5507 107.5384
ENERGY: 300000 5.4563 10.3740 15.1717 0.0000 -10746.4296 1460.1983 0.0000 0.0000 1802.9678 -7452.2615 303.9004 -9255.2293 -7505.7719 302.1816 -136.2982 -53.0658 30900.4357 -263.7604 -190.8029
ENERGY: 600000 1.3579 12.6781 16.8283 0.0000 -10655.9338 1353.9715 0.0000 0.0000 1760.6426 -7510.4554 296.7663 -9271.0980 -7496.9039 302.6681 -1086.3692 -1075.1352 31510.9989 -303.0294 -243.3426
ENERGY: 900000 5.4221 7.4568 13.7188 0.0000 -10624.8168 1349.4095 0.0000 0.0000 1763.5863 -7485.2233 297.2624 -9248.8096 -7477.4383 302.0066 -918.9374 -851.8714 30971.7325 -272.4715 -214.4637
ENERGY: 1200000 1.8986 7.4553 13.0709 0.0000 -10757.1164 1435.5745 0.0000 0.0000 1758.5877 -7540.5294 296.4199 -9299.1170 -7482.1786 301.5368 -257.3708 -180.8403 30985.4243 -255.2301 -195.1263
ENERGY: 1500000 3.0508 9.2594 13.0049 0.0000 -10739.3289 1499.2337 0.0000 0.0000 1748.9336 -7465.8465 294.7926 -9214.7801 -7485.1043 300.8102 648.1274 739.3648 30480.2447 -100.0521 -38.0818
TCL: Running FEP window  17: Lambda1 0.8000000000000002 Lambda2 0.8500000000000002 [dLambda 0.050000000000000044]
TCL: Setting parameter firsttimestep to 0
TCL: Setting parameter alchLambda to 0.8000000000000002
Info: NONBONDED TABLE R-SQUARED SPACING: 0.0625
Info: NONBONDED TABLE SIZE: 705 POINTS
TCL: Setting parameter alchLambda2 to 0.8500000000000002
Info: NONBONDED TABLE R-SQUARED SPACING: 0.0625
Info: NONBONDED TABLE SIZE: 705 POINTS
TCL: Running for 1500000 steps
ETITLE: TS BOND ANGLE DIHED IMPRP ELECT VDW BOUNDARY MISC KINETIC TOTAL TEMP POTENTIAL TOTALAVG TEMPAVG PRESSURE GPRESSURE VOLUME PRESSAVG GPRESSAVG
ENERGY: 0 3.0508 9.2594 13.0049 0.0000 -10741.0400 1499.2157 0.0000 0.0000 1748.0035 -7468.5057 294.6359 -9216.5092 -7468.5057 294.6359 653.0504 745.4337 30480.2447 653.0504 745.4337
ENERGY: 300000 5.2498 8.3783 13.5736 0.0000 -10830.6248 1495.7361 0.0000 0.0000 1820.5848 -7487.1022 306.8699 -9307.6871 -7513.7562 299.6260 449.2354 522.0351 30222.5341 522.0050 577.2843
ENERGY: 600000 3.7065 15.9579 17.9786 0.0000 -10731.4141 1422.4697 0.0000 0.0000 1805.0229 -7466.2784 304.2468 -9271.3013 -7496.9128 300.1679 -66.8358 72.7220 30692.0668 297.4800 373.1353
ENERGY: 900000 3.2491 9.7856 16.6484 0.0000 -10699.1401 1386.5269 0.0000 0.0000 1813.5489 -7469.3811 305.6839 -9282.9301 -7493.8075 300.3659 -365.0084 -302.9566 30778.3559 191.1830 258.9744
ENERGY: 1200000 3.3439 10.7965 14.1762 0.0000 -10674.2022 1399.0385 0.0000 0.0000 1798.4978 -7448.3494 303.1470 -9246.8471 -7503.8877 299.1325 -287.2138 -248.4050 30783.7345 101.4582 167.3600
ENERGY: 1500000 4.6741 8.3826 13.3139 0.0000 -10765.1432 1471.9078 0.0000 0.0000 1756.6723 -7510.1925 296.0970 -9266.8648 -7499.0366 299.3409 49.3038 165.3940 30633.2561 150.3457 217.6019
TCL: Running FEP window  18: Lambda1 0.8500000000000002 Lambda2 0.9000000000000002 [dLambda 0.050000000000000044]
TCL: Setting parameter firsttimestep to 0
TCL: Setting parameter alchLambda to 0.8500000000000002
Info: NONBONDED TABLE R-SQUARED SPACING: 0.0625
Info: NONBONDED TABLE SIZE: 705 POINTS
TCL: Setting parameter alchLambda2 to 0.9000000000000002
Info: NONBONDED TABLE R-SQUARED SPACING: 0.0625
Info: NONBONDED TABLE SIZE: 705 POINTS
TCL: Running for 1500000 steps
ETITLE: TS BOND ANGLE DIHED IMPRP ELECT VDW BOUNDARY MISC KINETIC TOTAL TEMP POTENTIAL TOTALAVG TEMPAVG PRESSURE GPRESSURE VOLUME PRESSAVG GPRESSAVG
ENERGY: 0 4.6741 8.3826 13.3139 0.0000 -10766.3735 1472.5871 0.0000 0.0000 1755.7766 -7511.6391 295.9461 -9267.4158 -7511.6391 295.9461 94.4023 183.1783 30633.2561 94.4023 183.1783
ENERGY: 300000 1.3398 13.4471 13.0042 0.0000 -10706.4483 1420.6534 0.0000 0.0000 1784.3563 -7473.6475 300.7633 -9258.0038 -7488.8954 301.9514 -38.7657 -23.5566 30756.1039 98.4579 150.5818
ENERGY: 600000 4.1691 10.6492 14.7495 0.0000 -10524.3098 1360.3124 0.0000 0.0000 1790.1275 -7344.3021 301.7361 -9134.4296 -7502.0804 301.2357 -510.7637 -436.1627 31181.8570 0.1184 55.8121
ENERGY: 900000 2.7260 11.6292 13.6595 0.0000 -10656.3442 1403.9718 0.0000 0.0000 1814.1703 -7410.1872 305.7887 -9224.3575 -7485.8731 301.3299 -28.4225 -17.1768 30574.4095 -152.6347 -101.3314
ENERGY: 1200000 5.0203 11.3342 13.5462 0.0000 -10620.0047 1426.8954 0.0000 0.0000 1810.9343 -7352.2742 305.2432 -9163.2086 -7488.4263 300.9229 -6.6924 55.8824 30904.3102 -96.6799 -40.6578
ENERGY: 1500000 1.8887 9.8048 15.8584 0.0000 -10764.2171 1443.7682 0.0000 0.0000 1770.0881 -7522.8088 298.3583 -9292.8968 -7491.1498 300.2256 -165.0635 -133.3149 30747.8356 -26.4726 30.6306
TCL: Running FEP window  19: Lambda1 0.9000000000000002 Lambda2 0.9500000000000003 [dLambda 0.050000000000000044]
TCL: Setting parameter firsttimestep to 0
TCL: Setting parameter alchLambda to 0.9000000000000002
Info: NONBONDED TABLE R-SQUARED SPACING: 0.0625
Info: NONBONDED TABLE SIZE: 705 POINTS
TCL: Setting parameter alchLambda2 to 0.9500000000000003
Info: NONBONDED TABLE R-SQUARED SPACING: 0.0625
Info: NONBONDED TABLE SIZE: 705 POINTS
TCL: Running for 1500000 steps
ETITLE: TS BOND ANGLE DIHED IMPRP ELECT VDW BOUNDARY MISC KINETIC TOTAL TEMP POTENTIAL TOTALAVG TEMPAVG PRESSURE GPRESSURE VOLUME PRESSAVG GPRESSAVG
ENERGY: 0 1.8887 9.8048 15.8584 0.0000 -10765.1664 1444.5734 0.0000 0.0000 1769.1914 -7523.8496 298.2072 -9293.0410 -7523.8496 298.2072 -187.4992 -108.7776 30747.8356 -187.4992 -108.7776
ENERGY: 300000 6.0172 8.4567 16.0587 0.0000 -10800.9739 1482.7748 0.0000 0.0000 1767.3166 -7520.3500 297.8912 -9287.6666 -7509.2879 296.0599 357.1862 416.0285 30572.6872 -334.1282 -271.0629
ENERGY: 600000 2.8634 10.6946 16.3482 0.0000 -10684.3435 1390.5319 0.0000 0.0000 1752.7875 -7511.1179 295.4422 -9263.9054 -7507.4214 296.7030 -443.6448 -367.4620 30482.0869 -203.8413 -149.2786
ENERGY: 900000 5.6205 11.6357 17.3233 0.0000 -10870.7808 1545.3051 0.0000 0.0000 1807.5150 -7483.3812 304.6669 -9290.8963 -7505.9808 296.8430 1092.4527 1103.7872 30212.0700 78.7224 129.9317
ENERGY: 1200000 3.6649 8.9265 14.2980 0.0000 -10704.5536 1424.5493 0.0000 0.0000 1786.0665 -7467.0484 301.0516 -9253.1149 -7502.5943 297.7106 -101.9804 0.3624 30658.9691 -37.6164 22.0745
ENERGY: 1500000 2.3952 7.9578 16.2231 0.0000 -10634.1560 1393.9775 0.0000 0.0000 1812.9469 -7400.6555 305.5824 -9213.6024 -7496.3496 297.8956 -60.0356 14.4373 30302.8934 14.4503 73.7670
TCL: Running FEP window  20: Lambda1 0.9500000000000003 Lambda2 1.0    [dLambda 0.04999999999999971]
TCL: Setting parameter firsttimestep to 0
TCL: Setting parameter alchLambda to 0.9500000000000003
Info: NONBONDED TABLE R-SQUARED SPACING: 0.0625
Info: NONBONDED TABLE SIZE: 705 POINTS
TCL: Setting parameter alchLambda2 to 1.0
Info: NONBONDED TABLE R-SQUARED SPACING: 0.0625
Info: NONBONDED TABLE SIZE: 705 POINTS
TCL: Running for 1500000 steps
ETITLE: TS BOND ANGLE DIHED IMPRP ELECT VDW BOUNDARY MISC KINETIC TOTAL TEMP POTENTIAL TOTALAVG TEMPAVG PRESSURE GPRESSURE VOLUME PRESSAVG GPRESSAVG
ENERGY: 0 2.3952 7.9578 16.2231 0.0000 -10635.8655 1393.8113 0.0000 0.0000 1812.0266 -7403.4515 305.4273 -9215.4781 -7403.4515 305.4273 -52.7704 25.5591 30302.8934 -52.7704 25.5591
ENERGY: 300000 4.8951 9.5997 14.9156 0.0000 -10711.5859 1430.9758 0.0000 0.0000 1805.2421 -7445.9576 304.2838 -9251.1997 -7469.1080 302.2089 -54.2596 -2.5859 30549.8430 -117.2663 -54.7027
ENERGY: 600000 7.3099 10.4334 14.2187 0.0000 -10793.5745 1474.7737 0.0000 0.0000 1725.9293 -7560.9095 290.9151 -9286.8388 -7521.0004 297.5309 250.4589 278.0110 30404.1250 16.5760 67.7396
ENERGY: 900000 3.9756 7.8242 13.3446 0.0000 -10698.3398 1396.1226 0.0000 0.0000 1793.4496 -7483.6233 302.2961 -9277.0728 -7510.0711 299.7397 -309.6613 -253.1302 30406.0987 37.7498 81.8272
ENERGY: 1200000 3.4189 13.3207 14.5733 0.0000 -10728.9412 1463.9371 0.0000 0.0000 1797.4378 -7436.2535 302.9683 -9233.6912 -7504.9653 299.7343 212.8426 314.7362 30799.0821 98.0952 140.9048
ENERGY: 1500000 3.8409 8.4962 14.0678 0.0000 -10752.7331 1414.5702 0.0000 0.0000 1724.8592 -7586.8987 290.7348 -9311.7579 -7507.0210 300.2156 -339.1447 -272.1530 30808.1311 98.2090 151.6678
TCL: Exiting due to exit command.
