Info: SIMULATION PARAMETERS:
Info: TIMESTEP               2
Info: NUMBER OF STEPS        0
Info: STEPS PER CYCLE        10
Info: PERIODIC CELL BASIS 1  31.3224 0 0
Info: PERIODIC CELL BASIS 2  0 31.9516 0
Info: PERIODIC CELL BASIS 3  0 0 30.2664
Info: PERIODIC CELL CENTER   0 0 0
Info: WRAPPING WATERS AROUND PERIODIC BOUNDARIES ON OUTPUT.
Info: WRAPPING ALL CLUSTERS AROUND PERIODIC BOUNDARIES ON OUTPUT.
Info: FIRST LDB TIMESTEP     50
Info: LAST LDB TIMESTEP     -1
Info: HOM BACKGROUND SCALING 1
Info: PME BACKGROUND SCALING 1
Info: MIN ATOMS PER PATCH    40
Info: EMPTY PATCH LOAD       40 ATOMS
Info: VELOCITY FILE          mobley_8739734_equil.vel
Info: CENTER OF MASS MOVING INITIALLY? NO
Info: DIELECTRIC             1
Info: EXCLUDE                SCALED ONE-FOUR
Info: 1-4 ELECTROSTATICS SCALED BY 0.833333
Info: MODIFIED 1-4 VDW PARAMETERS WILL BE USED
Info: DCD FILENAME           mobley_8739734_prod.dcd
Info: DCD FREQUENCY          100000
Info: DCD FIRST STEP         100000
Info: DCD FILE WILL CONTAIN UNIT CELL DATA
Info: XST FILENAME           mobley_8739734_prod.xst
Info: XST FREQUENCY          100000
Info: NO VELOCITY DCD OUTPUT
Info: NO FORCE DCD OUTPUT
Info: OUTPUT FILENAME        mobley_8739734_prod
Info: BINARY OUTPUT FILES WILL BE USED
Info: RESTART FILENAME       mobley_8739734_prod.restart
Info: RESTART FREQUENCY      100000
Info: BINARY RESTART FILES WILL BE USED
Info: CUTOFF                 9
Info: PAIRLIST DISTANCE      11
Info: PAIRLIST SHRINK RATE   0.01
Info: PAIRLIST GROW RATE     0.01
Info: PAIRLIST TRIGGER       0.3
Info: PAIRLISTS PER CYCLE    2
Info: PAIRLISTS ENABLED
Info: MARGIN                 2
Info: HYDROGEN GROUP CUTOFF  2.5
Info: PATCH DIMENSION        15.5
Info: ENERGY OUTPUT STEPS    100000
Info: ENERGY EVALUATION STEPS    100000
Info: OUTPUT ENERGY PRECISION 4
Info: CROSSTERM ENERGY INCLUDED IN DIHEDRAL
Info: TIMING OUTPUT STEPS    1000000
Info: PRESSURE OUTPUT STEPS  100000
Info: ALCHEMICAL FEP ON
Info: FEP CURRENT LAMBDA VALUE     1
Info: FEP COMPARISON LAMBDA VALUE  0.95
Info: FEP INTRA-ALCHEMICAL NON-BONDED INTERACTIONS WILL BE RETAINED
Info: FEP INTRA-ALCHEMICAL BONDED INTERACTIONS WILL BE RETAINED
Info: FEP VDW SHIFTING COEFFICIENT 5
Info: FEP ELEC. ACTIVE FOR ANNIHILATED PARTICLES BETWEEN LAMBDA = 0 AND LAMBDA = 0.5
Info: FEP ELEC. ACTIVE FOR EXNIHILATED PARTICLES BETWEEN LAMBDA = 0.5 AND LAMBDA = 1
Info: FEP VDW ACTIVE FOR ANNIHILATED PARTICLES BETWEEN LAMBDA = 0 AND LAMBDA = 1
Info: FEP VDW ACTIVE FOR EXNIHILATED PARTICLES BETWEEN LAMBDA = 0 AND LAMBDA = 1
Info: FEP BOND ACTIVE FOR ANNIHILATED PARTICLES BETWEEN LAMBDA = 1 AND LAMBDA = 1
Info: FEP BOND ACTIVE FOR EXNIHILATED PARTICLES BETWEEN LAMBDA = 0 AND LAMBDA = 0
Info: LANGEVIN DYNAMICS ACTIVE
Info: LANGEVIN TEMPERATURE   300
Info: LANGEVIN USING BBK INTEGRATOR
Info: LANGEVIN DAMPING COEFFICIENT IS 1 INVERSE PS
Info: LANGEVIN DYNAMICS APPLIED TO HYDROGENS
Info: LANGEVIN PISTON PRESSURE CONTROL ACTIVE
Info:        TARGET PRESSURE IS 1.01325 BAR
Info:     OSCILLATION PERIOD IS 50 FS
Info:             DECAY TIME IS 25 FS
Info:     PISTON TEMPERATURE IS 300 K
Info:       PRESSURE CONTROL IS GROUP-BASED
Info:    INITIAL STRAIN RATE IS -0.000287374 -0.000287374 -0.000287374
Info:       CELL FLUCTUATION IS ISOTROPIC
Info: PARTICLE MESH EWALD (PME) ACTIVE
Info: PME TOLERANCE               1e-06
Info: PME EWALD COEFFICIENT       0.348832
Info: PME INTERPOLATION ORDER     4
Info: PME GRID DIMENSIONS         32 32 32
Info: PME MAXIMUM GRID SPACING    1
Info: PME CALCULATION WILL BE PERFORMED ON GPU
Info: FULL ELECTROSTATIC EVALUATION FREQUENCY      2
Info: USING VERLET I (r-RESPA) MTS SCHEME.
Info: C1 SPLITTING OF LONG RANGE ELECTROSTATICS
Info: PLACING ATOMS IN PATCHES BY HYDROGEN GROUPS
Info: RIGID BONDS TO HYDROGEN : ALL
Info:         ERROR TOLERANCE : 1e-08
Info:          MAX ITERATIONS : 100
Info: RIGID WATER USING SETTLE ALGORITHM
Info: RANDOM NUMBER SEED     1743770029
Info: USE HYDROGEN BONDS?    NO
Info: Using AMBER format force field!
Info: AMBER PARM FILE        mobley_8739734.prmtop
Info: COORDINATE PDB         mobley_8739734.pdb
Info: Exclusions will be read from PARM file!
Info: SCNB (VDW SCALING)     2
Info: USING ARITHMETIC MEAN TO COMBINE L-J SIGMA PARAMETERS
Info: BINARY COORDINATES     mobley_8739734_equil.coor
Info: SUMMARY OF PARAMETERS:
Info: 6 BONDS
Info: 7 ANGLES
Info:   7 HARMONIC
Info:   0 COSINE-BASED
Info: 8 DIHEDRAL
Info: 0 IMPROPER
Info: 0 CROSSTERM
Info: 0 VDW
Info: 21 VDW_PAIRS
Info: 0 NBTHOLE_PAIRS
Info: To read alchdata from file: mobley_8739734.pdb
Info: To read alchflag data from column: 5
Info: STRUCTURE SUMMARY:
Info: 2923 ATOMS
Info: 2922 BONDS
Info: 27 ANGLES
Info: 39 DIHEDRALS
Info: 0 IMPROPERS
Info: 0 CROSSTERMS
Info: 2979 EXCLUSIONS
Info: 2917 RIGID BONDS
Info: ALCH: 0 ATOMS TO DISAPPEAR IN FINAL STATE
Info: ALCH: 16 ATOMS TO APPEAR IN FINAL STATE
Info: 5852 DEGREES OF FREEDOM
Info: 975 HYDROGEN GROUPS
Info: 4 ATOMS IN LARGEST HYDROGEN GROUP
Info: 975 MIGRATION GROUPS
Info: 4 ATOMS IN LARGEST MIGRATION GROUP
Info: TOTAL MASS = 17543.6 amu
Info: TOTAL CHARGE = -0.000200074 e
Info: MASS DENSITY = 0.961767 g/cm^3
Info: ATOM DENSITY = 0.0964983 atoms/A^3
Info: ADDED 0 IMPLICIT EXCLUSIONS
Info: NONBONDED TABLE R-SQUARED SPACING: 0.0625
Info: NONBONDED TABLE SIZE: 705 POINTS
Info: REDUCING NUMBER OF PATCHES TO IMPROVE LOAD BALANCE
Info: REMOVING COM VELOCITY 0.272827 0.0156201 0.111002
Info: Use 3D box decompostion in PME FFT.
Info: Updated CUDA force table with 4096 elements.
Info: Updated CUDA LJ table with 6 x 6 elements.
Info: Found 19 unique exclusion lists needing 44 bytes
TCL: Running for 1500000 steps
ETITLE: TS BOND ANGLE DIHED IMPRP ELECT VDW BOUNDARY MISC KINETIC TOTAL TEMP POTENTIAL TOTALAVG TEMPAVG PRESSURE GPRESSURE VOLUME PRESSAVG GPRESSAVG
ENERGY: 0 1.1780 4.4732 2.8471 0.0000 -10570.5894 1408.2932 0.0000 0.0000 1763.9351 -7389.8630 303.3672 -9153.7981 -7389.8630 303.3672 -130.5040 -49.0451 30290.6771 -130.5040 -49.0451
ENERGY: 300000 1.0272 6.7108 6.2238 0.0000 -10537.7917 1363.5968 0.0000 0.0000 1762.1211 -7398.1120 303.0552 -9160.2330 -7370.3830 305.0498 -630.7722 -581.1778 30649.5093 -104.8278 -47.3829
ENERGY: 600000 1.3386 7.6290 3.6068 0.0000 -10560.4832 1452.1060 0.0000 0.0000 1732.8639 -7362.9388 298.0235 -9095.8027 -7402.6720 300.5930 640.9455 693.2540 29644.3123 107.1242 174.6201
ENERGY: 900000 1.8725 6.8187 3.3706 0.0000 -10616.6602 1418.4719 0.0000 0.0000 1737.2253 -7448.9013 298.7736 -9186.1266 -7412.3125 300.1256 93.1944 134.2294 30042.1408 43.4967 113.8493
ENERGY: 1200000 1.9709 8.2179 3.5641 0.0000 -10650.0601 1436.8461 0.0000 0.0000 1684.4714 -7514.9897 289.7008 -9199.4611 -7427.4770 298.4911 -136.6050 -52.2951 30225.7180 -19.8975 49.7906
ENERGY: 1500000 1.1895 5.4360 3.2038 0.0000 -10635.1430 1424.0135 0.0000 0.0000 1654.7566 -7546.5436 284.5904 -9201.3002 -7432.8613 297.3413 -42.8269 -15.8037 30215.5388 -40.9456 18.6508
TCL: Running FEP window   2: Lambda1 0.95   Lambda2 0.8999999999999999 [dLambda -0.050000000000000044]
TCL: Setting parameter firsttimestep to 0
TCL: Setting parameter alchLambda to 0.95
Info: NONBONDED TABLE R-SQUARED SPACING: 0.0625
Info: NONBONDED TABLE SIZE: 705 POINTS
TCL: Setting parameter alchLambda2 to 0.8999999999999999
Info: NONBONDED TABLE R-SQUARED SPACING: 0.0625
Info: NONBONDED TABLE SIZE: 705 POINTS
TCL: Running for 1500000 steps
ETITLE: TS BOND ANGLE DIHED IMPRP ELECT VDW BOUNDARY MISC KINETIC TOTAL TEMP POTENTIAL TOTALAVG TEMPAVG PRESSURE GPRESSURE VOLUME PRESSAVG GPRESSAVG
ENERGY: 0 1.1895 5.4360 3.2038 0.0000 -10634.0753 1423.7494 0.0000 0.0000 1653.9246 -7546.5720 284.4473 -9200.4965 -7546.5720 284.4473 -128.5456 -30.7532 30215.5388 -128.5456 -30.7532
ENERGY: 300000 1.4535 7.7800 3.8177 0.0000 -10589.5873 1423.4139 0.0000 0.0000 1649.9957 -7503.1266 283.7716 -9153.1223 -7487.7825 289.6845 25.4067 48.5333 30036.6292 -230.7273 -165.6277
ENERGY: 600000 0.6571 9.8713 3.6606 0.0000 -10501.2194 1346.2856 0.0000 0.0000 1680.3322 -7460.4127 288.9889 -9140.7449 -7465.7056 292.6017 -520.9797 -500.4804 30126.5448 -239.7105 -182.6188
ENERGY: 900000 2.1552 3.8739 2.8432 0.0000 -10391.2198 1283.5463 0.0000 0.0000 1756.8536 -7341.9475 302.1493 -9098.8012 -7435.5956 294.3325 -1264.2931 -1191.5779 30804.3244 -277.2424 -212.3977
ENERGY: 1200000 1.1854 4.3984 3.7498 0.0000 -10529.9990 1359.2859 0.0000 0.0000 1727.6814 -7433.6981 297.1322 -9161.3795 -7430.5173 296.0612 -557.6635 -539.2400 30292.8462 -304.0530 -249.4391
ENERGY: 1500000 1.0297 8.5123 3.5857 0.0000 -10566.8426 1370.3165 0.0000 0.0000 1761.5651 -7421.8333 302.9596 -9183.3984 -7441.5459 295.6010 -313.9771 -239.9718 30154.4438 -333.7818 -278.2383
TCL: Running FEP window   3: Lambda1 0.8999999999999999 Lambda2 0.8499999999999999 [dLambda -0.050000000000000044]
TCL: Setting parameter firsttimestep to 0
TCL: Setting parameter alchLambda to 0.8999999999999999
Info: NONBONDED TABLE R-SQUARED SPACING: 0.0625
Info: NONBONDED TABLE SIZE: 705 POINTS
TCL: Setting parameter alchLambda2 to 0.8499999999999999
Info: NONBONDED TABLE R-SQUARED SPACING: 0.0625
Info: NONBONDED TABLE SIZE: 705 POINTS
TCL: Running for 1500000 steps
ETITLE: TS BOND ANGLE DIHED IMPRP ELECT VDW BOUNDARY MISC KINETIC TOTAL TEMP POTENTIAL TOTALAVG TEMPAVG PRESSURE GPRESSURE VOLUME PRESSAVG GPRESSAVG
ENERGY: 0 1.0297 8.5123 3.5857 0.0000 -10565.8982 1370.5421 0.0000 0.0000 1760.6877 -7421.5407 302.8087 -9182.2284 -7421.5407 302.8087 -327.4126 -247.0224 30154.4438 -327.4126 -247.0224
ENERGY: 300000 1.5564 7.0675 3.1078 0.0000 -10702.3418 1454.6256 0.0000 0.0000 1756.5880 -7479.3966 302.1037 -9235.9846 -7395.4659 302.4610 -126.4554 -18.6664 30009.2103 -432.5985 -364.9718
ENERGY: 600000 2.8008 4.0323 2.7456 0.0000 -10660.5205 1498.4732 0.0000 0.0000 1784.7648 -7367.7038 306.9496 -9152.4686 -7428.8661 302.8597 600.0663 699.5676 29910.3988 -292.5063 -219.4304
ENERGY: 900000 2.2737 5.2223 3.1282 0.0000 -10686.8654 1474.2446 0.0000 0.0000 1711.7210 -7490.2756 294.3873 -9201.9966 -7431.5346 301.1039 215.0675 323.5276 29888.3442 -194.7071 -118.7538
ENERGY: 1200000 2.1538 6.5782 3.7849 0.0000 -10598.8371 1417.5146 0.0000 0.0000 1740.2876 -7428.5180 299.3003 -9168.8056 -7430.3406 300.6939 50.6667 111.4794 30074.1827 -253.0084 -175.9911
ENERGY: 1500000 2.6973 7.4945 3.0145 0.0000 -10681.7461 1420.8717 0.0000 0.0000 1698.6945 -7548.9737 292.1469 -9247.6682 -7428.6750 300.3277 -458.2966 -360.7122 30038.5255 -330.0896 -255.7267
TCL: Running FEP window   4: Lambda1 0.8499999999999999 Lambda2 0.7999999999999998 [dLambda -0.050000000000000044]
TCL: Setting parameter firsttimestep to 0
TCL: Setting parameter alchLambda to 0.8499999999999999
Info: NONBONDED TABLE R-SQUARED SPACING: 0.0625
Info: NONBONDED TABLE SIZE: 705 POINTS
TCL: Setting parameter alchLambda2 to 0.7999999999999998
Info: NONBONDED TABLE R-SQUARED SPACING: 0.0625
Info: NONBONDED TABLE SIZE: 705 POINTS
TCL: Running for 1500000 steps
ETITLE: TS BOND ANGLE DIHED IMPRP ELECT VDW BOUNDARY MISC KINETIC TOTAL TEMP POTENTIAL TOTALAVG TEMPAVG PRESSURE GPRESSURE VOLUME PRESSAVG GPRESSAVG
ENERGY: 0 2.6973 7.4945 3.0145 0.0000 -10680.6832 1420.5455 0.0000 0.0000 1697.8644 -7549.0670 292.0042 -9246.9314 -7549.0670 292.0042 -460.5762 -374.0553 30038.5255 -460.5762 -374.0553
ENERGY: 300000 0.7767 6.8929 4.8266 0.0000 -10634.8571 1409.1076 0.0000 0.0000 1730.2385 -7483.0149 297.5720 -9213.2534 -7461.5420 296.5849 -319.6009 -264.9941 30252.3682 75.0264 137.2745
ENERGY: 600000 0.6743 8.4096 3.8649 0.0000 -10729.1723 1499.3733 0.0000 0.0000 1756.1106 -7460.7396 302.0216 -9216.8502 -7437.6063 298.7091 795.6830 825.0389 29465.8859 206.8173 269.0080
ENERGY: 900000 1.6283 5.9526 3.4806 0.0000 -10581.0196 1418.9646 0.0000 0.0000 1751.5646 -7399.4288 301.2397 -9150.9935 -7425.0004 299.5054 45.4687 142.3026 29937.6477 161.9093 229.8118
ENERGY: 1200000 1.2130 10.6217 4.0199 0.0000 -10647.7971 1403.1095 0.0000 0.0000 1753.9560 -7474.8770 301.6510 -9228.8330 -7428.5522 299.3770 -270.0485 -123.5304 29893.9418 239.5007 315.7025
ENERGY: 1500000 1.9243 5.9115 4.2137 0.0000 -10636.4915 1452.3858 0.0000 0.0000 1770.8066 -7401.2496 304.5490 -9172.0562 -7430.7375 299.9768 237.2879 250.7037 29951.5855 305.0540 375.1862
TCL: Running FEP window   5: Lambda1 0.7999999999999998 Lambda2 0.7499999999999998 [dLambda -0.050000000000000044]
TCL: Setting parameter firsttimestep to 0
TCL: Setting parameter alchLambda to 0.7999999999999998
Info: NONBONDED TABLE R-SQUARED SPACING: 0.0625
Info: NONBONDED TABLE SIZE: 705 POINTS
TCL: Setting parameter alchLambda2 to 0.7499999999999998
Info: NONBONDED TABLE R-SQUARED SPACING: 0.0625
Info: NONBONDED TABLE SIZE: 705 POINTS
TCL: Running for 1500000 steps
ETITLE: TS BOND ANGLE DIHED IMPRP ELECT VDW BOUNDARY MISC KINETIC TOTAL TEMP POTENTIAL TOTALAVG TEMPAVG PRESSURE GPRESSURE VOLUME PRESSAVG GPRESSAVG
ENERGY: 0 1.9243 5.9115 4.2137 0.0000 -10635.5813 1452.9962 0.0000 0.0000 1769.9253 -7400.6103 304.3975 -9170.5357 -7400.6103 304.3975 157.9696 252.0664 29951.5855 157.9696 252.0664
ENERGY: 300000 0.7571 12.5700 3.4795 0.0000 -10743.5245 1483.9417 0.0000 0.0000 1790.9390 -7451.8372 308.0114 -9242.7761 -7420.5696 304.5796 432.7212 560.1948 29740.2066 102.4325 218.7156
ENERGY: 600000 0.7801 10.1661 2.9862 0.0000 -10569.9874 1425.2876 0.0000 0.0000 1735.8513 -7394.9161 298.5373 -9130.7674 -7419.3654 303.1049 250.0481 277.9888 29712.5260 84.8647 159.1278
ENERGY: 900000 1.6583 3.3529 3.2462 0.0000 -10668.4081 1375.9033 0.0000 0.0000 1741.6556 -7542.5919 299.5355 -9284.2474 -7434.3668 301.6262 -744.8293 -703.8674 30032.0558 -26.9218 40.6477
ENERGY: 1200000 3.5834 8.2746 3.1377 0.0000 -10654.2405 1532.4635 0.0000 0.0000 1721.3616 -7385.4197 296.0453 -9106.7813 -7416.5664 300.8371 924.9839 1020.5999 29939.0380 12.0866 73.9435
ENERGY: 1500000 5.0928 4.5493 3.5975 0.0000 -10715.5946 1504.8804 0.0000 0.0000 1799.3734 -7398.1011 309.4620 -9197.4745 -7417.8102 300.5859 670.3058 759.3251 30032.9005 1.1224 63.1233
TCL: Running FEP window   6: Lambda1 0.7499999999999998 Lambda2 0.6999999999999997 [dLambda -0.050000000000000044]
TCL: Setting parameter firsttimestep to 0
TCL: Setting parameter alchLambda to 0.7499999999999998
Info: NONBONDED TABLE R-SQUARED SPACING: 0.0625
Info: NONBONDED TABLE SIZE: 705 POINTS
TCL: Setting parameter alchLambda2 to 0.6999999999999997
Info: NONBONDED TABLE R-SQUARED SPACING: 0.0625
Info: NONBONDED TABLE SIZE: 705 POINTS
TCL: Running for 1500000 steps
ETITLE: TS BOND ANGLE DIHED IMPRP ELECT VDW BOUNDARY MISC KINETIC TOTAL TEMP POTENTIAL TOTALAVG TEMPAVG PRESSURE GPRESSURE VOLUME PRESSAVG GPRESSAVG
ENERGY: 0 5.0928 4.5493 3.5975 0.0000 -10714.7675 1505.1279 0.0000 0.0000 1798.5025 -7397.8974 309.3122 -9196.3999 -7397.8974 309.3122 683.9357 751.7204 30032.9005 683.9357 751.7204
ENERGY: 300000 2.2098 9.2389 2.7614 0.0000 -10632.8491 1366.3698 0.0000 0.0000 1735.9439 -7516.3253 298.5532 -9252.2691 -7428.2585 302.1921 -680.2768 -653.1266 29822.8755 -253.4325 -162.2068
ENERGY: 600000 1.0282 5.9420 3.8579 0.0000 -10513.4642 1391.0226 0.0000 0.0000 1683.3716 -7428.2420 289.5117 -9111.6135 -7405.4416 300.8640 -194.1689 -117.5869 30388.0378 -185.9604 -101.8447
ENERGY: 900000 3.0473 6.7805 4.2589 0.0000 -10590.7628 1382.1696 0.0000 0.0000 1698.3004 -7496.2062 292.0792 -9194.5065 -7406.3153 300.5318 -795.9778 -700.3751 30120.9151 -239.1730 -161.8691
ENERGY: 1200000 1.6825 3.1983 3.2827 0.0000 -10439.4177 1353.4911 0.0000 0.0000 1749.2484 -7328.5145 300.8414 -9077.7629 -7401.4987 299.5718 -384.5752 -341.9508 30374.9107 -217.7132 -142.3985
ENERGY: 1500000 0.8249 7.6653 2.9488 0.0000 -10655.2715 1522.2787 0.0000 0.0000 1808.3750 -7313.1789 311.0101 -9121.5539 -7403.5070 300.8157 1234.6591 1297.2434 29830.0564 -151.9094 -81.4757
TCL: Running FEP window   7: Lambda1 0.6999999999999997 Lambda2 0.6499999999999997 [dLambda -0.050000000000000044]
TCL: Setting parameter firsttimestep to 0
TCL: Setting parameter alchLambda to 0.6999999999999997
Info: NONBONDED TABLE R-SQUARED SPACING: 0.0625
Info: NONBONDED TABLE SIZE: 705 POINTS
TCL: Setting parameter alchLambda2 to 0.6499999999999997
Info: NONBONDED TABLE R-SQUARED SPACING: 0.0625
Info: NONBONDED TABLE SIZE: 705 POINTS
TCL: Running for 1500000 steps
ETITLE: TS BOND ANGLE DIHED IMPRP ELECT VDW BOUNDARY MISC KINETIC TOTAL TEMP POTENTIAL TOTALAVG TEMPAVG PRESSURE GPRESSURE VOLUME PRESSAVG GPRESSAVG
ENERGY: 0 0.8249 7.6653 2.9488 0.0000 -10654.6620 1522.7942 0.0000 0.0000 1807.4958 -7312.9331 310.8589 -9120.4289 -7312.9331 310.8589 1238.8303 1299.6045 29830.0564 1238.8303 1299.6045
ENERGY: 300000 1.9408 4.0151 3.0555 0.0000 -10733.8204 1505.0328 0.0000 0.0000 1735.4993 -7484.2769 298.4767 -9219.7762 -7395.9153 306.4982 572.1431 627.0026 29675.8619 14.6350 59.6415
ENERGY: 600000 2.5954 6.8359 3.2052 0.0000 -10523.7049 1422.6386 0.0000 0.0000 1799.7577 -7288.6722 309.5281 -9088.4298 -7379.4673 306.8608 186.5378 181.8205 30370.0386 -60.1922 -14.4691
ENERGY: 900000 3.5600 8.9907 3.4218 0.0000 -10591.0932 1402.5682 0.0000 0.0000 1748.1815 -7424.3710 300.6579 -9172.5525 -7384.1610 305.3991 -236.6203 -229.4109 30127.3033 -122.3787 -81.0264
ENERGY: 1200000 1.6973 7.1470 3.1155 0.0000 -10470.1889 1330.9696 0.0000 0.0000 1764.0176 -7363.2419 303.3814 -9127.2595 -7386.0276 305.6504 -931.5226 -900.7586 30778.1944 -152.9558 -106.6813
ENERGY: 1500000 1.6120 10.1753 2.9074 0.0000 -10590.4912 1419.0724 0.0000 0.0000 1697.0499 -7459.6743 291.8641 -9156.7242 -7394.6583 304.6549 -402.2466 -295.7480 30579.5148 -139.2244 -81.6602
TCL: Running FEP window   8: Lambda1 0.6499999999999997 Lambda2 0.5999999999999996 [dLambda -0.050000000000000044]
TCL: Setting parameter firsttimestep to 0
TCL: Setting parameter alchLambda to 0.6499999999999997
Info: NONBONDED TABLE R-SQUARED SPACING: 0.0625
Info: NONBONDED TABLE SIZE: 705 POINTS
TCL: Setting parameter alchLambda2 to 0.5999999999999996
Info: NONBONDED TABLE R-SQUARED SPACING: 0.0625
Info: NONBONDED TABLE SIZE: 705 POINTS
TCL: Running for 1500000 steps
ETITLE: TS BOND ANGLE DIHED IMPRP ELECT VDW BOUNDARY MISC KINETIC TOTAL TEMP POTENTIAL TOTALAVG TEMPAVG PRESSURE GPRESSURE VOLUME PRESSAVG GPRESSAVG
ENERGY: 0 1.6120 10.1753 2.9074 0.0000 -10589.2483 1418.9481 0.0000 0.0000 1696.1430 -7459.4625 291.7081 -9155.6056 -7459.4625 291.7081 -392.7269 -305.3022 30579.5148 -392.7269 -305.3022
ENERGY: 300000 1.4875 8.8457 3.4732 0.0000 -10605.5134 1423.7638 0.0000 0.0000 1756.4201 -7411.5231 302.0748 -9167.9432 -7397.7397 302.6549 -227.1923 -197.5296 30407.0213 -293.9403 -233.6224
ENERGY: 600000 4.2588 7.6368 3.3403 0.0000 -10782.3121 1491.4127 0.0000 0.0000 1714.5064 -7561.1571 294.8663 -9275.6636 -7411.9020 301.8197 93.0861 226.1733 29872.5588 -153.8563 -74.3219
ENERGY: 900000 0.7581 8.6730 4.0626 0.0000 -10682.5148 1464.3130 0.0000 0.0000 1723.9910 -7480.7172 296.4975 -9204.7081 -7415.4437 302.4801 125.5537 150.8594 30095.3190 -19.7769 42.3057
ENERGY: 1200000 0.6485 8.4776 3.9161 0.0000 -10494.9165 1384.7791 0.0000 0.0000 1772.0710 -7325.0243 304.7665 -9097.0953 -7419.8404 301.9082 59.6624 119.5794 29963.8510 -58.2498 7.2792
ENERGY: 1500000 1.2236 5.1656 4.2674 0.0000 -10677.5499 1436.8589 0.0000 0.0000 1691.9451 -7538.0893 290.9862 -9230.0344 -7423.0196 300.7952 31.3458 131.0789 29807.2802 -22.3406 48.8512
TCL: Running FEP window   9: Lambda1 0.5999999999999996 Lambda2 0.5499999999999996 [dLambda -0.050000000000000044]
TCL: Setting parameter firsttimestep to 0
TCL: Setting parameter alchLambda to 0.5999999999999996
Info: NONBONDED TABLE R-SQUARED SPACING: 0.0625
Info: NONBONDED TABLE SIZE: 705 POINTS
TCL: Setting parameter alchLambda2 to 0.5499999999999996
Info: NONBONDED TABLE R-SQUARED SPACING: 0.0625
Info: NONBONDED TABLE SIZE: 705 POINTS
TCL: Running for 1500000 steps
ETITLE: TS BOND ANGLE DIHED IMPRP ELECT VDW BOUNDARY MISC KINETIC TOTAL TEMP POTENTIAL TOTALAVG TEMPAVG PRESSURE GPRESSURE VOLUME PRESSAVG GPRESSAVG
ENERGY: 0 1.2236 5.1656 4.2674 0.0000 -10677.8594 1436.7066 0.0000 0.0000 1691.0298 -7539.4664 290.8287 -9230.4962 -7539.4664 290.8287 18.4098 118.9626 29807.2802 18.4098 118.9626
ENERGY: 300000 0.7575 6.2454 3.7074 0.0000 -10532.0844 1428.5542 0.0000 0.0000 1773.9088 -7318.9110 305.0825 -9092.8198 -7450.6198 296.0218 293.5228 331.7828 29969.5326 263.3660 305.1117
ENERGY: 600000 1.7124 3.9800 5.0101 0.0000 -10574.5711 1393.6893 0.0000 0.0000 1764.1210 -7406.0584 303.3992 -9170.1793 -7411.5633 299.3857 -182.2963 -125.9589 29972.8316 159.5485 216.6120
ENERGY: 900000 0.4972 5.5797 3.7758 0.0000 -10456.8074 1342.5685 0.0000 0.0000 1770.5386 -7333.8476 304.5029 -9104.3862 -7392.0204 300.8978 -399.7188 -391.4654 29989.8569 81.2266 136.1663
ENERGY: 1200000 1.2692 6.3486 3.1492 0.0000 -10638.9468 1475.6767 0.0000 0.0000 1786.6970 -7365.8060 307.2819 -9152.5030 -7403.0661 300.7345 606.6319 690.9304 29583.2237 113.6407 169.5060
ENERGY: 1500000 1.0508 8.0628 3.3542 0.0000 -10501.2887 1414.0251 0.0000 0.0000 1670.8182 -7403.9775 287.3527 -9074.7957 -7394.7895 299.6326 -104.8298 -86.0420 30587.3755 93.0227 146.9801
TCL: Running FEP window  10: Lambda1 0.5499999999999996 Lambda2 0.4999999999999996 [dLambda -0.04999999999999999]
TCL: Setting parameter firsttimestep to 0
TCL: Setting parameter alchLambda to 0.5499999999999996
Info: NONBONDED TABLE R-SQUARED SPACING: 0.0625
Info: NONBONDED TABLE SIZE: 705 POINTS
TCL: Setting parameter alchLambda2 to 0.4999999999999996
Info: NONBONDED TABLE R-SQUARED SPACING: 0.0625
Info: NONBONDED TABLE SIZE: 705 POINTS
TCL: Running for 1500000 steps
ETITLE: TS BOND ANGLE DIHED IMPRP ELECT VDW BOUNDARY MISC KINETIC TOTAL TEMP POTENTIAL TOTALAVG TEMPAVG PRESSURE GPRESSURE VOLUME PRESSAVG GPRESSAVG
ENERGY: 0 1.0508 8.0628 3.3542 0.0000 -10500.7711 1414.5056 0.0000 0.0000 1669.9515 -7403.8462 287.2036 -9073.7977 -7403.8462 287.2036 -154.3067 -88.4544 30587.3755 -154.3067 -88.4544
ENERGY: 300000 0.4243 5.3646 3.5026 0.0000 -10512.6442 1366.7473 0.0000 0.0000 1774.1524 -7362.4529 305.1244 -9136.6053 -7378.9754 299.0666 -535.7117 -475.7734 30421.6974 -275.3790 -218.0537
ENERGY: 600000 1.9437 9.2052 3.4373 0.0000 -10511.8087 1401.9315 0.0000 0.0000 1753.7283 -7341.5626 301.6118 -9095.2909 -7399.5203 298.8699 -196.7638 -177.5994 30494.9856 -4.4512 49.0800
ENERGY: 900000 0.9361 7.5839 3.3723 0.0000 -10655.6366 1470.5049 0.0000 0.0000 1743.2649 -7429.9745 299.8123 -9173.2394 -7408.6534 299.8177 303.5386 425.6787 30074.4522 28.6264 91.4967
ENERGY: 1200000 2.6167 3.6264 3.0028 0.0000 -10550.8187 1387.0261 0.0000 0.0000 1795.7791 -7358.7676 308.8439 -9154.5467 -7416.7641 299.8184 -533.9024 -421.8958 30404.9938 18.3159 90.7695
ENERGY: 1500000 3.1193 6.3367 3.0287 0.0000 -10490.7397 1403.9818 0.0000 0.0000 1753.6159 -7320.6572 301.5925 -9074.2731 -7416.5759 299.3647 -104.2096 -54.2244 30224.4413 110.7573 182.4525
TCL: Running FEP window  11: Lambda1 0.4999999999999996 Lambda2 0.4499999999999996 [dLambda -0.04999999999999999]
TCL: Setting parameter firsttimestep to 0
TCL: Setting parameter alchLambda to 0.4999999999999996
Info: NONBONDED TABLE R-SQUARED SPACING: 0.0625
Info: NONBONDED TABLE SIZE: 705 POINTS
TCL: Setting parameter alchLambda2 to 0.4499999999999996
Info: NONBONDED TABLE R-SQUARED SPACING: 0.0625
Info: NONBONDED TABLE SIZE: 705 POINTS
TCL: Running for 1500000 steps
ETITLE: TS BOND ANGLE DIHED IMPRP ELECT VDW BOUNDARY MISC KINETIC TOTAL TEMP POTENTIAL TOTALAVG TEMPAVG PRESSURE GPRESSURE VOLUME PRESSAVG GPRESSAVG
ENERGY: 0 3.1193 6.3367 3.0287 0.0000 -10490.3579 1403.8614 0.0000 0.0000 1752.7418 -7321.2700 301.4422 -9074.0118 -7321.2700 301.4422 -129.2113 -57.8651 30224.4413 -129.2113 -57.8651
ENERGY: 300000 1.9968 7.9370 3.3840 0.0000 -10620.9774 1418.3297 0.0000 0.0000 1772.8498 -7416.4801 304.9004 -9189.3299 -7427.3401 299.8191 44.4016 24.4055 30086.2603 16.8576 90.7397
ENERGY: 600000 1.8320 6.8083 3.9044 0.0000 -10587.7255 1368.5897 0.0000 0.0000 1707.2779 -7499.3132 293.6231 -9206.5911 -7444.4232 300.2392 -589.1402 -566.4071 29815.9078 -72.9219 -1.1319
ENERGY: 900000 2.0712 5.6637 3.5014 0.0000 -10742.4217 1512.5187 0.0000 0.0000 1779.0988 -7439.5679 305.9751 -9218.6667 -7429.2721 300.3380 576.0173 613.2663 29816.9169 -3.8388 63.0895
ENERGY: 1200000 1.4640 7.3164 3.9722 0.0000 -10542.6464 1416.6902 0.0000 0.0000 1712.3297 -7400.8740 294.4920 -9113.2037 -7421.5694 299.9802 274.8467 319.8720 29679.6171 37.3425 106.2741
ENERGY: 1500000 2.2934 8.4225 3.2308 0.0000 -10344.2128 1271.9020 0.0000 0.0000 1734.8558 -7323.5083 298.3661 -9058.3640 -7421.4166 300.0520 -1230.7794 -1151.9614 30738.9309 -85.0474 -23.1279
TCL: Running FEP window  12: Lambda1 0.4499999999999996 Lambda2 0.39999999999999963 [dLambda -0.04999999999999999]
TCL: Setting parameter firsttimestep to 0
TCL: Setting parameter alchLambda to 0.4499999999999996
Info: NONBONDED TABLE R-SQUARED SPACING: 0.0625
Info: NONBONDED TABLE SIZE: 705 POINTS
TCL: Setting parameter alchLambda2 to 0.39999999999999963
Info: NONBONDED TABLE R-SQUARED SPACING: 0.0625
Info: NONBONDED TABLE SIZE: 705 POINTS
TCL: Running for 1500000 steps
ETITLE: TS BOND ANGLE DIHED IMPRP ELECT VDW BOUNDARY MISC KINETIC TOTAL TEMP POTENTIAL TOTALAVG TEMPAVG PRESSURE GPRESSURE VOLUME PRESSAVG GPRESSAVG
ENERGY: 0 2.2934 8.4225 3.2308 0.0000 -10344.2128 1272.4406 0.0000 0.0000 1733.9618 -7323.8636 298.2123 -9057.8254 -7323.8636 298.2123 -1234.0767 -1150.2592 30738.9309 -1234.0767 -1150.2592
ENERGY: 300000 2.7692 11.9501 4.2593 0.0000 -10539.3771 1435.0348 0.0000 0.0000 1741.6592 -7343.7044 299.5361 -9085.3636 -7379.0528 299.6487 342.5648 313.0165 30085.9500 -245.1937 -195.8693
ENERGY: 600000 2.8215 9.2911 3.5330 0.0000 -10640.6029 1470.5511 0.0000 0.0000 1723.6686 -7430.7375 296.4421 -9154.4061 -7383.3384 300.1000 50.9084 117.9118 30289.4692 -224.9320 -166.7107
ENERGY: 900000 1.5496 6.5603 3.7873 0.0000 -10653.0479 1447.3114 0.0000 0.0000 1748.7558 -7445.0836 300.7566 -9193.8393 -7398.6804 300.2607 169.0399 226.4343 29819.1750 -103.3867 -43.4653
ENERGY: 1200000 1.5994 4.4295 2.8359 0.0000 -10484.0981 1340.4920 0.0000 0.0000 1742.1458 -7392.5954 299.6198 -9134.7412 -7410.6547 299.4201 -852.8823 -820.0505 30536.7923 -153.6137 -98.2886
ENERGY: 1500000 2.3696 6.0453 3.4239 0.0000 -10576.1492 1397.2370 0.0000 0.0000 1751.1451 -7415.9282 301.1676 -9167.0733 -7399.7726 299.9321 -433.6756 -418.8257 30194.7739 -235.3589 -187.4459
TCL: Running FEP window  13: Lambda1 0.39999999999999963 Lambda2 0.34999999999999964 [dLambda -0.04999999999999999]
TCL: Setting parameter firsttimestep to 0
TCL: Setting parameter alchLambda to 0.39999999999999963
Info: NONBONDED TABLE R-SQUARED SPACING: 0.0625
Info: NONBONDED TABLE SIZE: 705 POINTS
TCL: Setting parameter alchLambda2 to 0.34999999999999964
Info: NONBONDED TABLE R-SQUARED SPACING: 0.0625
Info: NONBONDED TABLE SIZE: 705 POINTS
TCL: Running for 1500000 steps
ETITLE: TS BOND ANGLE DIHED IMPRP ELECT VDW BOUNDARY MISC KINETIC TOTAL TEMP POTENTIAL TOTALAVG TEMPAVG PRESSURE GPRESSURE VOLUME PRESSAVG GPRESSAVG
ENERGY: 0 2.3696 6.0453 3.4239 0.0000 -10576.1478 1397.7364 0.0000 0.0000 1750.2913 -7416.2812 301.0207 -9166.5725 -7416.2812 301.0207 -495.3087 -417.9814 30194.7739 -495.3087 -417.9814
ENERGY: 300000 1.7330 7.4854 3.1324 0.0000 -10624.8042 1417.0236 0.0000 0.0000 1744.6517 -7450.7780 300.0508 -9195.4297 -7405.0583 302.3629 194.0611 243.0001 29542.9027 65.9585 124.6782
ENERGY: 600000 1.8641 4.8452 2.7635 0.0000 -10397.7201 1342.6240 0.0000 0.0000 1728.3995 -7317.2240 297.2557 -9045.6234 -7395.1129 300.4040 -394.4814 -277.9753 30297.1572 -55.7605 12.7547
ENERGY: 900000 2.3686 5.9593 3.8088 0.0000 -10644.4419 1487.7605 0.0000 0.0000 1760.9816 -7383.5631 302.8593 -9144.5447 -7400.7574 300.5274 527.0480 592.3186 29831.7041 -0.4095 63.4618
ENERGY: 1200000 1.1372 3.7693 3.0525 0.0000 -10448.4148 1327.9963 0.0000 0.0000 1739.0106 -7373.4490 299.0806 -9112.4596 -7401.1114 299.9564 -1057.2483 -951.2287 30563.6484 -94.6562 -24.2329
ENERGY: 1500000 0.9868 10.2405 3.3301 0.0000 -10588.8895 1404.7573 0.0000 0.0000 1784.0657 -7385.5090 306.8294 -9169.5747 -7397.2409 300.0342 -382.3892 -286.2459 30162.0647 -106.6871 -33.6615
TCL: Running FEP window  14: Lambda1 0.34999999999999964 Lambda2 0.29999999999999966 [dLambda -0.04999999999999999]
TCL: Setting parameter firsttimestep to 0
TCL: Setting parameter alchLambda to 0.34999999999999964
Info: NONBONDED TABLE R-SQUARED SPACING: 0.0625
Info: NONBONDED TABLE SIZE: 705 POINTS
TCL: Setting parameter alchLambda2 to 0.29999999999999966
Info: NONBONDED TABLE R-SQUARED SPACING: 0.0625
Info: NONBONDED TABLE SIZE: 705 POINTS
TCL: Running for 1500000 steps
ETITLE: TS BOND ANGLE DIHED IMPRP ELECT VDW BOUNDARY MISC KINETIC TOTAL TEMP POTENTIAL TOTALAVG TEMPAVG PRESSURE GPRESSURE VOLUME PRESSAVG GPRESSAVG
ENERGY: 0 0.9868 10.2406 3.3301 0.0000 -10588.8891 1404.6369 0.0000 0.0000 1783.2100 -7386.4847 306.6822 -9169.6947 -7386.4847 306.6822 -394.8042 -290.4172 30162.0647 -394.8042 -290.4172
ENERGY: 300000 0.6857 10.2019 4.7701 0.0000 -10552.7519 1402.9860 0.0000 0.0000 1742.7898 -7391.3185 299.7306 -9134.1082 -7414.1277 299.9575 -95.3182 -31.1773 30102.6086 -53.7959 33.1340
ENERGY: 600000 1.8249 8.0159 3.3516 0.0000 -10641.4175 1471.2276 0.0000 0.0000 1740.0630 -7416.9344 299.2616 -9156.9974 -7391.8158 300.2124 271.8284 319.3705 30159.4237 -213.9679 -144.9966
ENERGY: 900000 2.1372 6.7759 2.7688 0.0000 -10516.6548 1372.6579 0.0000 0.0000 1695.2194 -7437.0957 291.5493 -9132.3151 -7401.2991 299.9833 -372.4534 -275.1036 30089.8193 -161.1542 -89.0333
ENERGY: 1200000 0.4915 4.7388 2.7691 0.0000 -10573.1021 1440.1194 0.0000 0.0000 1728.4631 -7396.5202 297.2666 -9124.9833 -7408.2655 299.8525 -7.1591 68.7528 30299.4600 -169.1474 -95.1454
ENERGY: 1500000 4.0279 10.5478 3.0712 0.0000 -10646.4486 1406.5754 0.0000 0.0000 1783.2714 -7438.9549 306.6928 -9222.2263 -7404.3276 300.7011 -224.0908 -210.6675 29905.6483 -93.8878 -25.0268
TCL: Running FEP window  15: Lambda1 0.29999999999999966 Lambda2 0.24999999999999967 [dLambda -0.04999999999999999]
TCL: Setting parameter firsttimestep to 0
TCL: Setting parameter alchLambda to 0.29999999999999966
Info: NONBONDED TABLE R-SQUARED SPACING: 0.0625
Info: NONBONDED TABLE SIZE: 705 POINTS
TCL: Setting parameter alchLambda2 to 0.24999999999999967
Info: NONBONDED TABLE R-SQUARED SPACING: 0.0625
Info: NONBONDED TABLE SIZE: 705 POINTS
TCL: Running for 1500000 steps
ETITLE: TS BOND ANGLE DIHED IMPRP ELECT VDW BOUNDARY MISC KINETIC TOTAL TEMP POTENTIAL TOTALAVG TEMPAVG PRESSURE GPRESSURE VOLUME PRESSAVG GPRESSAVG
ENERGY: 0 4.0279 10.5478 3.0712 0.0000 -10646.4487 1406.4252 0.0000 0.0000 1782.3852 -7439.9914 306.5403 -9222.3765 -7439.9914 306.5403 -287.0789 -215.7805 29905.6483 -287.0789 -215.7805
ENERGY: 300000 1.7608 7.4271 2.7287 0.0000 -10552.4751 1379.1799 0.0000 0.0000 1730.8432 -7430.5355 297.6760 -9161.3786 -7419.3917 301.9221 -270.7618 -232.5880 29761.9865 90.9315 156.3547
ENERGY: 600000 0.8166 7.6952 3.2609 0.0000 -10658.2676 1468.9356 0.0000 0.0000 1704.9873 -7472.5721 293.2292 -9177.5594 -7409.9435 301.0007 170.9380 241.4066 30178.3594 108.3466 166.4178
ENERGY: 900000 0.5486 6.2310 3.4921 0.0000 -10540.3326 1400.0689 0.0000 0.0000 1756.0808 -7373.9113 302.0164 -9129.9920 -7406.1042 300.9271 -138.8316 -53.8102 29921.3936 77.7044 136.6213
ENERGY: 1200000 0.4569 3.0308 3.1703 0.0000 -10418.5012 1417.3322 0.0000 0.0000 1744.7934 -7249.7175 300.0752 -8994.5110 -7397.2347 300.4330 181.0777 295.2149 30410.9118 1.3839 57.9585
ENERGY: 1500000 1.3036 7.9217 3.8489 0.0000 -10600.8596 1429.8577 0.0000 0.0000 1799.4875 -7358.4402 309.4817 -9157.9278 -7396.9629 300.8156 135.8719 209.5420 29783.3593 9.6153 71.5246
TCL: Running FEP window  16: Lambda1 0.24999999999999967 Lambda2 0.19999999999999968 [dLambda -0.04999999999999999]
TCL: Setting parameter firsttimestep to 0
TCL: Setting parameter alchLambda to 0.24999999999999967
Info: NONBONDED TABLE R-SQUARED SPACING: 0.0625
Info: NONBONDED TABLE SIZE: 705 POINTS
TCL: Setting parameter alchLambda2 to 0.19999999999999968
Info: NONBONDED TABLE R-SQUARED SPACING: 0.0625
Info: NONBONDED TABLE SIZE: 705 POINTS
TCL: Running for 1500000 steps
ETITLE: TS BOND ANGLE DIHED IMPRP ELECT VDW BOUNDARY MISC KINETIC TOTAL TEMP POTENTIAL TOTALAVG TEMPAVG PRESSURE GPRESSURE VOLUME PRESSAVG GPRESSAVG
ENERGY: 0 1.3036 7.9217 3.8489 0.0000 -10600.8592 1429.6384 0.0000 0.0000 1798.6204 -7359.5263 309.3325 -9158.1466 -7359.5263 309.3325 115.9758 203.4376 29783.3593 115.9758 203.4376
ENERGY: 300000 3.1839 9.8387 3.5095 0.0000 -10577.4532 1434.3821 0.0000 0.0000 1743.0271 -7383.5120 299.7714 -9126.5390 -7360.1281 304.5101 110.7839 191.6696 30166.0911 22.8995 110.0704
ENERGY: 600000 1.4066 5.1885 3.0602 0.0000 -10559.4980 1356.9697 0.0000 0.0000 1776.2807 -7416.5923 305.4905 -9192.8730 -7366.3483 304.4564 -642.8759 -630.0242 30082.0162 -91.1631 -14.9494
ENERGY: 900000 0.4001 6.8360 3.1856 0.0000 -10756.0052 1518.5652 0.0000 0.0000 1716.5276 -7510.4906 295.2139 -9227.0182 -7387.3635 302.5510 521.9269 633.1574 29626.8869 21.9820 92.2450
ENERGY: 1200000 2.2203 7.1859 3.9363 0.0000 -10527.4574 1449.0423 0.0000 0.0000 1712.9125 -7352.1601 294.5922 -9065.0725 -7381.4516 302.8040 220.3952 258.1933 30252.4578 115.2240 181.9933
ENERGY: 1500000 1.6287 7.4989 2.9698 0.0000 -10585.2184 1426.6178 0.0000 0.0000 1747.6483 -7398.8549 300.5662 -9146.5032 -7395.1379 302.0769 -115.0360 -8.7817 30090.9996 141.6726 214.7124
TCL: Running FEP window  17: Lambda1 0.19999999999999968 Lambda2 0.1499999999999997 [dLambda -0.04999999999999999]
TCL: Setting parameter firsttimestep to 0
TCL: Setting parameter alchLambda to 0.19999999999999968
Info: NONBONDED TABLE R-SQUARED SPACING: 0.0625
Info: NONBONDED TABLE SIZE: 705 POINTS
TCL: Setting parameter alchLambda2 to 0.1499999999999997
Info: NONBONDED TABLE R-SQUARED SPACING: 0.0625
Info: NONBONDED TABLE SIZE: 705 POINTS
TCL: Running for 1500000 steps
ETITLE: TS BOND ANGLE DIHED IMPRP ELECT VDW BOUNDARY MISC KINETIC TOTAL TEMP POTENTIAL TOTALAVG TEMPAVG PRESSURE GPRESSURE VOLUME PRESSAVG GPRESSAVG
ENERGY: 0 1.6287 7.4989 2.9698 0.0000 -10585.2183 1426.7034 0.0000 0.0000 1746.7852 -7399.6322 300.4177 -9146.4175 -7399.6322 300.4177 -94.8349 -12.1606 30090.9996 -94.8349 -12.1606
ENERGY: 300000 3.0875 5.1423 3.1612 0.0000 -10581.9844 1423.3259 0.0000 0.0000 1736.7227 -7410.5448 298.6872 -9147.2675 -7419.5646 299.1476 -97.0997 26.1108 29897.7023 51.9709 105.0451
ENERGY: 600000 1.2565 7.7671 5.3228 0.0000 -10715.4496 1510.1155 0.0000 0.0000 1720.2836 -7470.7042 295.8599 -9190.9878 -7430.5352 298.1734 522.7553 600.4535 29965.7824 146.6000 201.7862
ENERGY: 900000 0.6096 6.4962 3.3902 0.0000 -10496.9660 1349.5689 0.0000 0.0000 1728.5814 -7408.3196 297.2870 -9136.9010 -7430.1072 297.9307 -695.8047 -594.7714 29904.1061 40.0124 92.6155
ENERGY: 1200000 0.7469 6.6265 3.8006 0.0000 -10466.4368 1340.5932 0.0000 0.0000 1708.1292 -7406.5404 293.7696 -9114.6697 -7421.9814 298.5772 -700.3758 -645.3841 30224.0891 5.3814 59.7229
ENERGY: 1500000 2.1708 8.9812 3.5431 0.0000 -10625.8577 1419.3116 0.0000 0.0000 1736.8980 -7454.9530 298.7173 -9191.8510 -7426.0702 298.7692 -277.8401 -259.8782 30060.0775 25.1574 79.1779
TCL: Running FEP window  18: Lambda1 0.1499999999999997 Lambda2 0.09999999999999969 [dLambda -0.05 ]
TCL: Setting parameter firsttimestep to 0
TCL: Setting parameter alchLambda to 0.1499999999999997
Info: NONBONDED TABLE R-SQUARED SPACING: 0.0625
Info: NONBONDED TABLE SIZE: 705 POINTS
TCL: Setting parameter alchLambda2 to 0.09999999999999969
Info: NONBONDED TABLE R-SQUARED SPACING: 0.0625
Info: NONBONDED TABLE SIZE: 705 POINTS
TCL: Running for 1500000 steps
ETITLE: TS BOND ANGLE DIHED IMPRP ELECT VDW BOUNDARY MISC KINETIC TOTAL TEMP POTENTIAL TOTALAVG TEMPAVG PRESSURE GPRESSURE VOLUME PRESSAVG GPRESSAVG
ENERGY: 0 2.1708 8.9812 3.5431 0.0000 -10625.8581 1419.2104 0.0000 0.0000 1736.0015 -7455.9510 298.5631 -9191.9526 -7455.9510 298.5631 -338.9291 -264.8871 30060.0775 -338.9291 -264.8871
ENERGY: 300000 0.9981 8.6792 5.5418 0.0000 -10530.5805 1370.0231 0.0000 0.0000 1706.7209 -7438.6174 293.5273 -9145.3383 -7443.4793 295.8758 -528.6196 -483.7618 30192.5106 -256.0818 -194.7368
ENERGY: 600000 1.4716 8.1748 4.1938 0.0000 -10475.1088 1369.6062 0.0000 0.0000 1755.9256 -7335.7368 301.9897 -9091.6624 -7404.8661 299.0067 -376.2862 -286.5875 30485.8007 -97.1094 -31.7784
ENERGY: 900000 1.8664 4.9764 2.8653 0.0000 -10459.7375 1353.0818 0.0000 0.0000 1782.0546 -7314.8930 306.4835 -9096.9476 -7396.6143 300.0890 -378.1269 -319.2045 30019.2146 -90.0236 -31.3995
ENERGY: 1200000 0.4535 6.6806 3.2489 0.0000 -10473.5935 1331.0432 0.0000 0.0000 1771.2969 -7360.8704 304.6333 -9132.1673 -7390.4300 300.6709 -779.3600 -735.4791 30219.6089 -99.9044 -49.4674
ENERGY: 1500000 2.7602 9.7550 3.6957 0.0000 -10556.1176 1389.9023 0.0000 0.0000 1754.9554 -7395.0490 301.8229 -9150.0044 -7386.5083 301.0569 -374.3427 -250.6998 29828.4218 -37.4242 12.8926
TCL: Running FEP window  19: Lambda1 0.09999999999999969 Lambda2 0.049999999999999684 [dLambda -0.05 ]
TCL: Setting parameter firsttimestep to 0
TCL: Setting parameter alchLambda to 0.09999999999999969
Info: NONBONDED TABLE R-SQUARED SPACING: 0.0625
Info: NONBONDED TABLE SIZE: 705 POINTS
TCL: Setting parameter alchLambda2 to 0.049999999999999684
Info: NONBONDED TABLE R-SQUARED SPACING: 0.0625
Info: NONBONDED TABLE SIZE: 705 POINTS
TCL: Running for 1500000 steps
ETITLE: TS BOND ANGLE DIHED IMPRP ELECT VDW BOUNDARY MISC KINETIC TOTAL TEMP POTENTIAL TOTALAVG TEMPAVG PRESSURE GPRESSURE VOLUME PRESSAVG GPRESSAVG
ENERGY: 0 2.7602 9.7550 3.6957 0.0000 -10556.1160 1389.9526 0.0000 0.0000 1754.1086 -7395.8439 301.6772 -9149.9525 -7395.8439 301.6772 -326.1520 -251.2462 29828.4218 -326.1520 -251.2462
ENERGY: 300000 2.5973 6.0016 3.4455 0.0000 -10636.3092 1425.5427 0.0000 0.0000 1743.6518 -7455.0703 299.8789 -9198.7221 -7452.2998 298.0532 -26.9758 -37.9603 29678.6450 -167.9366 -119.5550
ENERGY: 600000 1.1608 8.8045 3.2867 0.0000 -10596.5114 1499.4381 0.0000 0.0000 1723.0707 -7360.7506 296.3392 -9083.8213 -7420.8760 298.9812 593.1978 629.4550 30039.7929 -11.9802 48.9805
ENERGY: 900000 0.3284 6.4364 3.5339 0.0000 -10766.7450 1531.5691 0.0000 0.0000 1757.5708 -7467.3065 302.2727 -9224.8773 -7429.8383 299.5103 879.4624 886.8156 29671.7753 96.5912 154.1567
ENERGY: 1200000 1.1374 7.4865 3.8644 0.0000 -10480.7541 1376.7019 0.0000 0.0000 1666.5309 -7425.0331 286.6153 -9091.5639 -7417.6970 298.8508 -496.1723 -405.4612 30630.1074 64.9926 127.9241
ENERGY: 1500000 0.8230 6.1892 3.2018 0.0000 -10599.6240 1487.4359 0.0000 0.0000 1773.1649 -7328.8091 304.9546 -9101.9740 -7415.5623 299.3601 461.7489 544.9564 29982.7702 57.9597 115.3916
TCL: Running FEP window  20: Lambda1 0.049999999999999684 Lambda2 0.0    [dLambda -0.049999999999999684]
TCL: Setting parameter firsttimestep to 0
TCL: Setting parameter alchLambda to 0.049999999999999684
Info: NONBONDED TABLE R-SQUARED SPACING: 0.0625
Info: NONBONDED TABLE SIZE: 705 POINTS
TCL: Setting parameter alchLambda2 to 0.0
Info: NONBONDED TABLE R-SQUARED SPACING: 0.0625
Info: NONBONDED TABLE SIZE: 705 POINTS
TCL: Running for 1500000 steps
ETITLE: TS BOND ANGLE DIHED IMPRP ELECT VDW BOUNDARY MISC KINETIC TOTAL TEMP POTENTIAL TOTALAVG TEMPAVG PRESSURE GPRESSURE VOLUME PRESSAVG GPRESSAVG
ENERGY: 0 0.8230 6.1892 3.2018 0.0000 -10599.6251 1486.6898 0.0000 0.0000 1772.3040 -7330.4173 304.8065 -9102.7213 -7330.4173 304.8065 474.6472 538.6914 29982.7702 474.6472 538.6914
ENERGY: 300000 1.4969 6.5504 2.8950 0.0000 -10780.2501 1549.7735 0.0000 0.0000 1715.4613 -7504.0731 295.0305 -9219.5344 -7428.0056 297.4456 860.8293 927.5296 29729.3520 74.0599 125.4547
ENERGY: 600000 1.4800 10.4375 2.9088 0.0000 -10602.5307 1444.3262 0.0000 0.0000 1741.4543 -7401.9238 299.5009 -9143.3781 -7409.4421 299.8984 -7.0111 -8.1944 30313.2897 166.8351 212.9031
ENERGY: 900000 1.5322 4.2871 3.0745 0.0000 -10681.4822 1441.4161 0.0000 0.0000 1732.6761 -7498.4962 297.9912 -9231.1723 -7423.0476 298.7944 -220.2358 -204.1304 30047.6241 122.8219 164.3033
ENERGY: 1200000 1.1916 11.3409 3.1007 0.0000 -10627.8905 1415.2987 0.0000 0.0000 1731.3413 -7465.6172 297.7617 -9196.9585 -7421.0239 299.2190 -332.8379 -273.9876 29999.7994 46.1340 92.3527
ENERGY: 1500000 2.4517 6.1078 3.1974 0.0000 -10653.2196 1445.0992 0.0000 0.0000 1749.0100 -7447.3535 300.8004 -9196.3635 -7417.3534 300.1461 -75.2480 -20.0698 29948.8654 55.5383 103.8696
TCL: Exiting due to exit command.
