Info: SIMULATION PARAMETERS:
Info: TIMESTEP               2
Info: NUMBER OF STEPS        0
Info: STEPS PER CYCLE        10
Info: PERIODIC CELL BASIS 1  29.3431 0 0
Info: PERIODIC CELL BASIS 2  0 31.53 0
Info: PERIODIC CELL BASIS 3  0 0 33.1184
Info: PERIODIC CELL CENTER   0 0 0
Info: WRAPPING WATERS AROUND PERIODIC BOUNDARIES ON OUTPUT.
Info: WRAPPING ALL CLUSTERS AROUND PERIODIC BOUNDARIES ON OUTPUT.
Info: FIRST LDB TIMESTEP     50
Info: LAST LDB TIMESTEP     -1
Info: HOM BACKGROUND SCALING 1
Info: PME BACKGROUND SCALING 1
Info: MIN ATOMS PER PATCH    40
Info: EMPTY PATCH LOAD       40 ATOMS
Info: VELOCITY FILE          mobley_4893032_equil.vel
Info: CENTER OF MASS MOVING INITIALLY? NO
Info: DIELECTRIC             1
Info: EXCLUDE                SCALED ONE-FOUR
Info: 1-4 ELECTROSTATICS SCALED BY 0.833333
Info: MODIFIED 1-4 VDW PARAMETERS WILL BE USED
Info: DCD FILENAME           mobley_4893032_prod.dcd
Info: DCD FREQUENCY          100000
Info: DCD FIRST STEP         100000
Info: DCD FILE WILL CONTAIN UNIT CELL DATA
Info: XST FILENAME           mobley_4893032_prod.xst
Info: XST FREQUENCY          100000
Info: NO VELOCITY DCD OUTPUT
Info: NO FORCE DCD OUTPUT
Info: OUTPUT FILENAME        mobley_4893032_prod
Info: BINARY OUTPUT FILES WILL BE USED
Info: RESTART FILENAME       mobley_4893032_prod.restart
Info: RESTART FREQUENCY      100000
Info: BINARY RESTART FILES WILL BE USED
Info: CUTOFF                 9
Info: PAIRLIST DISTANCE      11
Info: PAIRLIST SHRINK RATE   0.01
Info: PAIRLIST GROW RATE     0.01
Info: PAIRLIST TRIGGER       0.3
Info: PAIRLISTS PER CYCLE    2
Info: PAIRLISTS ENABLED
Info: MARGIN                 2
Info: HYDROGEN GROUP CUTOFF  2.5
Info: PATCH DIMENSION        15.5
Info: ENERGY OUTPUT STEPS    100000
Info: ENERGY EVALUATION STEPS    100000
Info: OUTPUT ENERGY PRECISION 4
Info: CROSSTERM ENERGY INCLUDED IN DIHEDRAL
Info: TIMING OUTPUT STEPS    1000000
Info: PRESSURE OUTPUT STEPS  100000
Info: ALCHEMICAL FEP ON
Info: FEP CURRENT LAMBDA VALUE     0
Info: FEP COMPARISON LAMBDA VALUE  0.05
Info: FEP INTRA-ALCHEMICAL NON-BONDED INTERACTIONS WILL BE RETAINED
Info: FEP INTRA-ALCHEMICAL BONDED INTERACTIONS WILL BE RETAINED
Info: FEP VDW SHIFTING COEFFICIENT 5
Info: FEP ELEC. ACTIVE FOR ANNIHILATED PARTICLES BETWEEN LAMBDA = 0 AND LAMBDA = 0.5
Info: FEP ELEC. ACTIVE FOR EXNIHILATED PARTICLES BETWEEN LAMBDA = 0.5 AND LAMBDA = 1
Info: FEP VDW ACTIVE FOR ANNIHILATED PARTICLES BETWEEN LAMBDA = 0 AND LAMBDA = 1
Info: FEP VDW ACTIVE FOR EXNIHILATED PARTICLES BETWEEN LAMBDA = 0 AND LAMBDA = 1
Info: FEP BOND ACTIVE FOR ANNIHILATED PARTICLES BETWEEN LAMBDA = 1 AND LAMBDA = 1
Info: FEP BOND ACTIVE FOR EXNIHILATED PARTICLES BETWEEN LAMBDA = 0 AND LAMBDA = 0
Info: LANGEVIN DYNAMICS ACTIVE
Info: LANGEVIN TEMPERATURE   300
Info: LANGEVIN USING BBK INTEGRATOR
Info: LANGEVIN DAMPING COEFFICIENT IS 1 INVERSE PS
Info: LANGEVIN DYNAMICS APPLIED TO HYDROGENS
Info: LANGEVIN PISTON PRESSURE CONTROL ACTIVE
Info:        TARGET PRESSURE IS 1.01325 BAR
Info:     OSCILLATION PERIOD IS 50 FS
Info:             DECAY TIME IS 25 FS
Info:     PISTON TEMPERATURE IS 300 K
Info:       PRESSURE CONTROL IS GROUP-BASED
Info:    INITIAL STRAIN RATE IS 0.00035064 0.00035064 0.00035064
Info:       CELL FLUCTUATION IS ISOTROPIC
Info: PARTICLE MESH EWALD (PME) ACTIVE
Info: PME TOLERANCE               1e-06
Info: PME EWALD COEFFICIENT       0.348832
Info: PME INTERPOLATION ORDER     4
Info: PME GRID DIMENSIONS         32 32 36
Info: PME MAXIMUM GRID SPACING    1
Info: PME CALCULATION WILL BE PERFORMED ON GPU
Info: FULL ELECTROSTATIC EVALUATION FREQUENCY      2
Info: USING VERLET I (r-RESPA) MTS SCHEME.
Info: C1 SPLITTING OF LONG RANGE ELECTROSTATICS
Info: PLACING ATOMS IN PATCHES BY HYDROGEN GROUPS
Info: RIGID BONDS TO HYDROGEN : ALL
Info:         ERROR TOLERANCE : 1e-08
Info:          MAX ITERATIONS : 100
Info: RIGID WATER USING SETTLE ALGORITHM
Info: RANDOM NUMBER SEED     1743843381
Info: USE HYDROGEN BONDS?    NO
Info: Using AMBER format force field!
Info: AMBER PARM FILE        mobley_4893032.prmtop
Info: COORDINATE PDB         mobley_4893032.pdb
Info: Exclusions will be read from PARM file!
Info: SCNB (VDW SCALING)     2
Info: USING ARITHMETIC MEAN TO COMBINE L-J SIGMA PARAMETERS
Info: BINARY COORDINATES     mobley_4893032_equil.coor
Info: SUMMARY OF PARAMETERS:
Info: 6 BONDS
Info: 6 ANGLES
Info:   6 HARMONIC
Info:   0 COSINE-BASED
Info: 7 DIHEDRAL
Info: 0 IMPROPER
Info: 0 CROSSTERM
Info: 0 VDW
Info: 21 VDW_PAIRS
Info: 0 NBTHOLE_PAIRS
Info: To read alchdata from file: mobley_4893032.pdb
Info: To read alchflag data from column: 5
Info: STRUCTURE SUMMARY:
Info: 2979 ATOMS
Info: 2978 BONDS
Info: 25 ANGLES
Info: 32 DIHEDRALS
Info: 0 IMPROPERS
Info: 0 CROSSTERMS
Info: 3033 EXCLUSIONS
Info: 2973 RIGID BONDS
Info: ALCH: 0 ATOMS TO DISAPPEAR IN FINAL STATE
Info: ALCH: 15 ATOMS TO APPEAR IN FINAL STATE
Info: 5964 DEGREES OF FREEDOM
Info: 994 HYDROGEN GROUPS
Info: 4 ATOMS IN LARGEST HYDROGEN GROUP
Info: 994 MIGRATION GROUPS
Info: 4 ATOMS IN LARGEST MIGRATION GROUP
Info: TOTAL MASS = 17882.9 amu
Info: TOTAL CHARGE = -0.000300003 e
Info: MASS DENSITY = 0.969165 g/cm^3
Info: ATOM DENSITY = 0.0972233 atoms/A^3
Info: ADDED 0 IMPLICIT EXCLUSIONS
Info: NONBONDED TABLE R-SQUARED SPACING: 0.0625
Info: NONBONDED TABLE SIZE: 705 POINTS
Info: REMOVING COM VELOCITY -0.0964321 -0.0375282 -0.0302691
Info: Use 3D box decompostion in PME FFT.
Info: Updated CUDA force table with 4096 elements.
Info: Updated CUDA LJ table with 6 x 6 elements.
Info: Found 17 unique exclusion lists needing 40 bytes
TCL: Running for 1500000 steps
ETITLE: TS BOND ANGLE DIHED IMPRP ELECT VDW BOUNDARY MISC KINETIC TOTAL TEMP POTENTIAL TOTALAVG TEMPAVG PRESSURE GPRESSURE VOLUME PRESSAVG GPRESSAVG
ENERGY: 0 1.4936 8.3789 0.6434 0.0000 -10679.9437 1377.8460 0.0000 0.0000 1771.8151 -7519.7666 299.0000 -9291.5817 -7519.7666 299.0000 -514.9171 -429.6771 30640.8117 -514.9171 -429.6771
ENERGY: 300000 2.0736 8.6996 3.6673 0.0000 -10804.0144 1448.7086 0.0000 0.0000 1771.6135 -7569.2518 298.9659 -9340.8652 -7565.2765 296.6022 -67.5601 -0.9588 30556.1585 -6.5368 61.9253
ENERGY: 600000 1.5065 5.3244 1.6672 0.0000 -10765.7291 1440.3725 0.0000 0.0000 1795.7036 -7521.1549 303.0312 -9316.8585 -7555.1485 296.6858 115.6453 197.2949 30406.1569 52.6606 118.7503
ENERGY: 900000 1.6658 11.1681 0.6681 0.0000 -10878.5152 1554.7190 0.0000 0.0000 1824.9245 -7485.3697 307.9624 -9310.2942 -7563.6059 296.5597 803.2367 849.8255 30737.9140 98.5644 156.5317
ENERGY: 1200000 3.7751 7.6308 0.9902 0.0000 -10821.0397 1506.8621 0.0000 0.0000 1772.9089 -7528.8725 299.1846 -9301.7815 -7567.0438 297.0629 682.5013 787.7174 30209.4996 77.0469 144.0445
ENERGY: 1500000 3.7879 6.8282 1.2025 0.0000 -10760.8011 1420.1572 0.0000 0.0000 1766.5533 -7562.2720 298.1120 -9328.8253 -7560.2835 297.6223 -438.9796 -350.9692 30591.9694 23.1470 94.6766
TCL: Running FEP window   2: Lambda1 0.05   Lambda2 0.1    [dLambda 0.05  ]
TCL: Setting parameter firsttimestep to 0
TCL: Setting parameter alchLambda to 0.05
Info: NONBONDED TABLE R-SQUARED SPACING: 0.0625
Info: NONBONDED TABLE SIZE: 705 POINTS
TCL: Setting parameter alchLambda2 to 0.1
Info: NONBONDED TABLE R-SQUARED SPACING: 0.0625
Info: NONBONDED TABLE SIZE: 705 POINTS
TCL: Running for 1500000 steps
ETITLE: TS BOND ANGLE DIHED IMPRP ELECT VDW BOUNDARY MISC KINETIC TOTAL TEMP POTENTIAL TOTALAVG TEMPAVG PRESSURE GPRESSURE VOLUME PRESSAVG GPRESSAVG
ENERGY: 0 3.7879 6.8282 1.2025 0.0000 -10760.8014 1422.8608 0.0000 0.0000 1765.7334 -7560.3885 297.9737 -9326.1219 -7560.3885 297.9737 -435.8884 -344.8832 30591.9694 -435.8884 -344.8832
ENERGY: 300000 2.8830 6.7250 1.9307 0.0000 -10840.6341 1546.9818 0.0000 0.0000 1789.0314 -7493.0823 301.9053 -9282.1137 -7520.3256 300.8054 983.3651 1036.2765 30419.7165 -28.9494 26.9508
ENERGY: 600000 3.3747 4.7204 1.1652 0.0000 -10865.4281 1477.9485 0.0000 0.0000 1770.7850 -7607.4341 298.8261 -9378.2192 -7532.2403 300.4613 24.7263 126.4809 30354.2768 -42.4514 23.8582
ENERGY: 900000 0.9196 9.6491 1.9713 0.0000 -10966.7013 1553.9865 0.0000 0.0000 1764.9482 -7635.2265 297.8412 -9400.1747 -7534.5906 300.8621 693.7716 828.4856 30171.1511 2.1664 80.5801
ENERGY: 1200000 2.1415 4.7937 1.2294 0.0000 -10784.9221 1447.2706 0.0000 0.0000 1806.3178 -7523.1690 304.8224 -9329.4869 -7541.1725 299.8881 -229.4916 -141.8645 30367.6216 -98.6783 -14.9221
ENERGY: 1500000 0.9550 7.1826 0.6260 0.0000 -10741.1466 1457.5504 0.0000 0.0000 1796.5813 -7478.2513 303.1794 -9274.8326 -7536.6142 300.5582 213.8550 289.2137 30662.0214 -61.7049 21.1694
TCL: Running FEP window   3: Lambda1 0.1    Lambda2 0.15000000000000002 [dLambda 0.05000000000000002]
TCL: Setting parameter firsttimestep to 0
TCL: Setting parameter alchLambda to 0.1
Info: NONBONDED TABLE R-SQUARED SPACING: 0.0625
Info: NONBONDED TABLE SIZE: 705 POINTS
TCL: Setting parameter alchLambda2 to 0.15000000000000002
Info: NONBONDED TABLE R-SQUARED SPACING: 0.0625
Info: NONBONDED TABLE SIZE: 705 POINTS
TCL: Running for 1500000 steps
ETITLE: TS BOND ANGLE DIHED IMPRP ELECT VDW BOUNDARY MISC KINETIC TOTAL TEMP POTENTIAL TOTALAVG TEMPAVG PRESSURE GPRESSURE VOLUME PRESSAVG GPRESSAVG
ENERGY: 0 0.9550 7.1826 0.6260 0.0000 -10741.1468 1458.7242 0.0000 0.0000 1795.6391 -7478.0199 303.0204 -9273.6591 -7478.0199 303.0204 218.4648 295.9050 30662.0214 218.4648 295.9050
ENERGY: 300000 1.1334 5.7361 0.6246 0.0000 -10769.9641 1413.4593 0.0000 0.0000 1826.9584 -7522.0524 308.3056 -9349.0107 -7508.4447 303.6765 -473.9886 -408.8171 30889.6162 -132.7054 -60.0915
ENERGY: 600000 0.0960 3.9445 0.6822 0.0000 -10811.3980 1417.0884 0.0000 0.0000 1807.8172 -7581.7696 305.0755 -9389.5868 -7562.3767 300.9089 -290.3105 -239.9692 30254.8634 -118.0615 -62.1660
ENERGY: 900000 1.9085 5.5103 0.9869 0.0000 -10927.4496 1561.0757 0.0000 0.0000 1831.6534 -7526.3149 309.0979 -9357.9683 -7553.5110 302.9453 811.9546 925.7523 30384.9347 -0.4577 62.5331
ENERGY: 1200000 0.8256 5.2488 0.7337 0.0000 -10611.3499 1355.5568 0.0000 0.0000 1771.6279 -7477.3571 298.9684 -9248.9850 -7548.4661 302.5354 -670.2279 -623.0807 31054.3370 22.3844 80.9479
ENERGY: 1500000 3.8086 5.6955 1.8359 0.0000 -10915.1006 1509.7669 0.0000 0.0000 1762.1568 -7631.8368 297.3701 -9393.9936 -7539.8602 302.1324 85.7900 164.3023 30585.5240 -83.3897 -22.5057
TCL: Running FEP window   4: Lambda1 0.15000000000000002 Lambda2 0.2    [dLambda 0.04999999999999999]
TCL: Setting parameter firsttimestep to 0
TCL: Setting parameter alchLambda to 0.15000000000000002
Info: NONBONDED TABLE R-SQUARED SPACING: 0.0625
Info: NONBONDED TABLE SIZE: 705 POINTS
TCL: Setting parameter alchLambda2 to 0.2
Info: NONBONDED TABLE R-SQUARED SPACING: 0.0625
Info: NONBONDED TABLE SIZE: 705 POINTS
TCL: Running for 1500000 steps
ETITLE: TS BOND ANGLE DIHED IMPRP ELECT VDW BOUNDARY MISC KINETIC TOTAL TEMP POTENTIAL TOTALAVG TEMPAVG PRESSURE GPRESSURE VOLUME PRESSAVG GPRESSAVG
ENERGY: 0 3.8086 5.6955 1.8359 0.0000 -10915.1022 1509.4994 0.0000 0.0000 1761.2827 -7632.9800 297.2226 -9394.2627 -7632.9800 297.2226 89.1125 167.3142 30585.5240 89.1125 167.3142
ENERGY: 300000 3.5975 4.3353 2.7993 0.0000 -10860.6538 1509.4358 0.0000 0.0000 1778.4065 -7562.0794 300.1123 -9340.4859 -7553.7238 302.3596 568.3680 658.6208 29970.4194 295.6340 378.6297
ENERGY: 600000 2.5668 4.0114 1.3402 0.0000 -10797.9240 1465.7176 0.0000 0.0000 1778.0093 -7546.2786 300.0453 -9324.2879 -7546.0633 300.6076 200.5955 284.5851 30259.2381 256.0529 323.2832
ENERGY: 900000 1.8718 4.5176 1.4524 0.0000 -10893.2987 1499.3044 0.0000 0.0000 1756.6238 -7629.5288 296.4364 -9386.1526 -7551.8767 300.6582 168.0794 220.3948 30775.7788 173.8026 241.4539
ENERGY: 1200000 0.9203 6.8456 1.5923 0.0000 -10591.9960 1306.5153 0.0000 0.0000 1738.7181 -7537.4043 293.4147 -9276.1224 -7547.5919 300.6386 -1059.5229 -999.9974 30945.0639 155.2192 222.2971
ENERGY: 1500000 0.5829 9.4050 1.5032 0.0000 -10690.0486 1434.4274 0.0000 0.0000 1762.6317 -7481.4984 297.4502 -9244.1301 -7542.4769 300.6370 -118.7769 -96.5586 30804.1291 134.8533 194.2064
TCL: Running FEP window   5: Lambda1 0.2    Lambda2 0.25   [dLambda 0.04999999999999999]
TCL: Setting parameter firsttimestep to 0
TCL: Setting parameter alchLambda to 0.2
Info: NONBONDED TABLE R-SQUARED SPACING: 0.0625
Info: NONBONDED TABLE SIZE: 705 POINTS
TCL: Setting parameter alchLambda2 to 0.25
Info: NONBONDED TABLE R-SQUARED SPACING: 0.0625
Info: NONBONDED TABLE SIZE: 705 POINTS
TCL: Running for 1500000 steps
ETITLE: TS BOND ANGLE DIHED IMPRP ELECT VDW BOUNDARY MISC KINETIC TOTAL TEMP POTENTIAL TOTALAVG TEMPAVG PRESSURE GPRESSURE VOLUME PRESSAVG GPRESSAVG
ENERGY: 0 0.5829 9.4050 1.5032 0.0000 -10690.0507 1435.9623 0.0000 0.0000 1761.7237 -7480.8736 297.2970 -9242.5973 -7480.8736 297.2970 -173.2222 -87.5347 30804.1291 -173.2222 -87.5347
ENERGY: 300000 1.6098 4.8400 0.8835 0.0000 -10814.5142 1479.1092 0.0000 0.0000 1773.2925 -7554.7791 299.2493 -9328.0717 -7541.2044 300.0126 100.5474 130.4977 30714.4207 -24.4734 50.8666
ENERGY: 600000 1.5127 7.5483 1.4101 0.0000 -10751.1450 1450.7317 0.0000 0.0000 1851.9532 -7437.9889 312.5236 -9289.9421 -7531.1702 301.0863 -12.0742 66.6629 31104.8200 134.8097 195.9120
ENERGY: 900000 3.5216 2.9155 0.9158 0.0000 -10687.1684 1352.8593 0.0000 0.0000 1839.2047 -7487.7516 310.3722 -9326.9563 -7527.3544 301.6182 -1053.7317 -934.0434 31080.4695 90.5302 164.9825
ENERGY: 1200000 5.1759 6.3252 0.6964 0.0000 -10811.0249 1513.0665 0.0000 0.0000 1731.6554 -7554.1054 292.2229 -9285.7608 -7542.3676 299.7074 327.0415 425.2093 30924.8726 54.6034 125.0092
ENERGY: 1500000 0.1655 4.1056 1.9972 0.0000 -10772.5945 1468.8107 0.0000 0.0000 1767.3404 -7530.1751 298.2448 -9297.5155 -7545.2581 299.8441 211.4671 267.9467 30585.6347 105.0402 170.1340
TCL: Running FEP window   6: Lambda1 0.25   Lambda2 0.3    [dLambda 0.04999999999999999]
TCL: Setting parameter firsttimestep to 0
TCL: Setting parameter alchLambda to 0.25
Info: NONBONDED TABLE R-SQUARED SPACING: 0.0625
Info: NONBONDED TABLE SIZE: 705 POINTS
TCL: Setting parameter alchLambda2 to 0.3
Info: NONBONDED TABLE R-SQUARED SPACING: 0.0625
Info: NONBONDED TABLE SIZE: 705 POINTS
TCL: Running for 1500000 steps
ETITLE: TS BOND ANGLE DIHED IMPRP ELECT VDW BOUNDARY MISC KINETIC TOTAL TEMP POTENTIAL TOTALAVG TEMPAVG PRESSURE GPRESSURE VOLUME PRESSAVG GPRESSAVG
ENERGY: 0 0.1655 4.1056 1.9972 0.0000 -10772.5955 1468.5647 0.0000 0.0000 1766.4666 -7531.2959 298.0974 -9297.7624 -7531.2959 298.0974 196.8090 270.7572 30585.6347 196.8090 270.7572
ENERGY: 300000 2.0460 9.0923 0.9983 0.0000 -10850.1429 1467.7699 0.0000 0.0000 1739.0720 -7631.1644 293.4745 -9370.2364 -7617.0227 296.2472 -124.5355 -23.3564 30531.6883 89.3036 148.4375
ENERGY: 600000 0.5904 6.6737 1.4147 0.0000 -10868.7511 1469.1627 0.0000 0.0000 1776.0008 -7614.9087 299.7063 -9390.9095 -7603.2530 297.6951 136.0995 215.3175 30074.7219 100.6055 173.7168
ENERGY: 900000 2.8167 6.6046 1.0128 0.0000 -10690.2730 1408.8637 0.0000 0.0000 1805.5328 -7465.4423 304.6900 -9270.9751 -7584.7930 298.3134 -230.3110 -232.2286 30710.8158 60.4655 117.2509
ENERGY: 1200000 4.1526 8.5163 1.6763 0.0000 -10752.4070 1413.6602 0.0000 0.0000 1708.8171 -7615.5845 288.3688 -9324.4016 -7583.4376 297.6223 -421.8253 -386.5875 30432.3323 -18.8686 33.0469
ENERGY: 1500000 1.5002 4.0780 1.8252 0.0000 -10838.3189 1481.5590 0.0000 0.0000 1785.2110 -7564.1454 301.2606 -9349.3565 -7575.3541 298.1348 145.8580 192.1650 30520.7666 -4.7462 54.8259
TCL: Running FEP window   7: Lambda1 0.3    Lambda2 0.35   [dLambda 0.04999999999999999]
TCL: Setting parameter firsttimestep to 0
TCL: Setting parameter alchLambda to 0.3
Info: NONBONDED TABLE R-SQUARED SPACING: 0.0625
Info: NONBONDED TABLE SIZE: 705 POINTS
TCL: Setting parameter alchLambda2 to 0.35
Info: NONBONDED TABLE R-SQUARED SPACING: 0.0625
Info: NONBONDED TABLE SIZE: 705 POINTS
TCL: Running for 1500000 steps
ETITLE: TS BOND ANGLE DIHED IMPRP ELECT VDW BOUNDARY MISC KINETIC TOTAL TEMP POTENTIAL TOTALAVG TEMPAVG PRESSURE GPRESSURE VOLUME PRESSAVG GPRESSAVG
ENERGY: 0 1.5002 4.0780 1.8252 0.0000 -10838.3199 1481.4568 0.0000 0.0000 1784.3563 -7565.1033 301.1164 -9349.4596 -7565.1033 301.1164 109.1051 196.5822 30520.7666 109.1051 196.5822
ENERGY: 300000 1.8644 6.9898 2.4678 0.0000 -10739.0801 1466.2794 0.0000 0.0000 1748.9988 -7512.4798 295.1497 -9261.4787 -7541.8195 303.4350 75.0692 140.0685 30772.8588 -93.4103 -12.9812
ENERGY: 600000 3.0163 7.8075 0.8193 0.0000 -10651.8601 1426.1456 0.0000 0.0000 1839.9412 -7374.1302 310.4965 -9214.0714 -7515.3549 302.8560 80.5197 141.6523 30862.8735 -116.8911 -43.1572
ENERGY: 900000 0.9687 4.4543 0.5068 0.0000 -10870.2718 1491.4648 0.0000 0.0000 1760.2034 -7612.6739 297.0405 -9372.8772 -7540.0300 301.0900 92.6992 104.0673 30627.0940 -134.4660 -59.2339
ENERGY: 1200000 2.0366 5.2993 0.8518 0.0000 -10716.7350 1381.1434 0.0000 0.0000 1828.7558 -7498.6481 308.6089 -9327.4039 -7542.6639 301.4489 -614.1938 -484.4645 30862.7432 -171.7651 -94.7863
ENERGY: 1500000 2.7326 5.6254 1.0401 0.0000 -10886.9919 1480.9254 0.0000 0.0000 1777.1499 -7619.5185 299.9002 -9396.6684 -7552.2205 300.4902 70.7984 114.0242 30223.9465 -136.0128 -63.4927
TCL: Running FEP window   8: Lambda1 0.35   Lambda2 0.39999999999999997 [dLambda 0.04999999999999999]
TCL: Setting parameter firsttimestep to 0
TCL: Setting parameter alchLambda to 0.35
Info: NONBONDED TABLE R-SQUARED SPACING: 0.0625
Info: NONBONDED TABLE SIZE: 705 POINTS
TCL: Setting parameter alchLambda2 to 0.39999999999999997
Info: NONBONDED TABLE R-SQUARED SPACING: 0.0625
Info: NONBONDED TABLE SIZE: 705 POINTS
TCL: Running for 1500000 steps
ETITLE: TS BOND ANGLE DIHED IMPRP ELECT VDW BOUNDARY MISC KINETIC TOTAL TEMP POTENTIAL TOTALAVG TEMPAVG PRESSURE GPRESSURE VOLUME PRESSAVG GPRESSAVG
ENERGY: 0 2.7326 5.6254 1.0401 0.0000 -10886.9903 1481.0405 0.0000 0.0000 1776.2475 -7620.3042 299.7480 -9396.5517 -7620.3042 299.7480 46.5241 118.8196 30223.9465 46.5241 118.8196
ENERGY: 300000 2.1749 5.9172 1.9179 0.0000 -10671.3225 1364.1392 0.0000 0.0000 1817.5465 -7479.6266 306.7173 -9297.1731 -7520.0953 302.3021 -603.7972 -544.6433 30932.9423 -228.0331 -171.3065
ENERGY: 600000 2.1430 7.1448 2.0993 0.0000 -10835.3311 1444.3064 0.0000 0.0000 1777.4021 -7602.2355 299.9428 -9379.6375 -7555.6438 302.9674 -342.6870 -269.0908 31046.6224 -217.6293 -154.5081
ENERGY: 900000 0.8548 5.2590 3.0107 0.0000 -10764.5221 1466.7560 0.0000 0.0000 1778.7367 -7509.9048 300.1680 -9288.6415 -7555.7644 302.5315 383.8765 482.3035 30219.7805 -164.1501 -85.8607
ENERGY: 1200000 1.6976 7.2075 0.9095 0.0000 -10687.6346 1347.3775 0.0000 0.0000 1853.2534 -7477.1891 312.7430 -9330.4426 -7548.2636 302.9100 -640.4878 -667.3123 30916.5305 -247.4725 -176.0008
ENERGY: 1500000 1.6257 6.3926 1.7087 0.0000 -10833.7927 1442.1559 0.0000 0.0000 1788.8590 -7593.0508 301.8762 -9381.9098 -7554.6294 301.9226 -245.1098 -202.6683 30744.2836 -223.3166 -156.5769
TCL: Running FEP window   9: Lambda1 0.39999999999999997 Lambda2 0.44999999999999996 [dLambda 0.04999999999999999]
TCL: Setting parameter firsttimestep to 0
TCL: Setting parameter alchLambda to 0.39999999999999997
Info: NONBONDED TABLE R-SQUARED SPACING: 0.0625
Info: NONBONDED TABLE SIZE: 705 POINTS
TCL: Setting parameter alchLambda2 to 0.44999999999999996
Info: NONBONDED TABLE R-SQUARED SPACING: 0.0625
Info: NONBONDED TABLE SIZE: 705 POINTS
TCL: Running for 1500000 steps
ETITLE: TS BOND ANGLE DIHED IMPRP ELECT VDW BOUNDARY MISC KINETIC TOTAL TEMP POTENTIAL TOTALAVG TEMPAVG PRESSURE GPRESSURE VOLUME PRESSAVG GPRESSAVG
ENERGY: 0 1.6257 6.3926 1.7087 0.0000 -10833.7922 1441.8857 0.0000 0.0000 1787.9835 -7594.1959 301.7285 -9382.1794 -7594.1959 301.7285 -285.0545 -200.2917 30744.2836 -285.0545 -200.2917
ENERGY: 300000 2.2156 7.8521 1.5545 0.0000 -10844.4662 1507.3126 0.0000 0.0000 1794.4597 -7531.0718 302.8213 -9325.5314 -7531.2417 300.1195 288.6494 371.5314 30709.4388 98.5693 167.1216
ENERGY: 600000 1.7725 8.1867 1.7363 0.0000 -10791.9111 1452.6162 0.0000 0.0000 1756.3445 -7571.2548 296.3893 -9327.5993 -7541.5919 298.5751 -8.7282 66.3178 30762.7799 19.0608 78.2891
ENERGY: 900000 1.2757 5.9181 1.7247 0.0000 -10859.6687 1518.6219 0.0000 0.0000 1781.6645 -7550.4640 300.6621 -9332.1284 -7544.9991 299.0019 332.1410 377.0189 30753.1735 -26.2411 34.9123
ENERGY: 1200000 2.5337 3.0973 1.1349 0.0000 -10819.6027 1526.8488 0.0000 0.0000 1756.2019 -7529.7860 296.3652 -9285.9879 -7542.9696 299.8504 546.7400 603.1834 30873.3393 89.0472 149.7286
ENERGY: 1500000 2.5289 6.7275 2.2082 0.0000 -10908.5130 1583.1929 0.0000 0.0000 1797.7188 -7516.1367 303.3713 -9313.8555 -7539.7667 300.3999 1056.1023 1091.0495 30605.9002 101.4224 160.9290
TCL: Running FEP window  10: Lambda1 0.44999999999999996 Lambda2 0.49999999999999994 [dLambda 0.04999999999999999]
TCL: Setting parameter firsttimestep to 0
TCL: Setting parameter alchLambda to 0.44999999999999996
Info: NONBONDED TABLE R-SQUARED SPACING: 0.0625
Info: NONBONDED TABLE SIZE: 705 POINTS
TCL: Setting parameter alchLambda2 to 0.49999999999999994
Info: NONBONDED TABLE R-SQUARED SPACING: 0.0625
Info: NONBONDED TABLE SIZE: 705 POINTS
TCL: Running for 1500000 steps
ETITLE: TS BOND ANGLE DIHED IMPRP ELECT VDW BOUNDARY MISC KINETIC TOTAL TEMP POTENTIAL TOTALAVG TEMPAVG PRESSURE GPRESSURE VOLUME PRESSAVG GPRESSAVG
ENERGY: 0 2.5290 6.7275 2.2082 0.0000 -10908.5139 1583.0871 0.0000 0.0000 1796.8334 -7517.1287 303.2219 -9313.9621 -7517.1287 303.2219 1010.6425 1098.6721 30605.9002 1010.6425 1098.6721
ENERGY: 300000 0.7622 8.7369 0.6654 0.0000 -10730.8472 1393.2696 0.0000 0.0000 1826.2751 -7501.1380 308.1903 -9327.4132 -7572.1511 301.7437 -393.8082 -389.1703 30962.3611 300.7688 336.8562
ENERGY: 600000 0.7293 4.4010 1.7421 0.0000 -10858.8371 1460.8422 0.0000 0.0000 1778.8594 -7612.2631 300.1887 -9391.1225 -7578.2473 299.5338 -101.1751 -4.8380 30411.4525 83.0818 137.0158
ENERGY: 900000 0.3011 6.1600 0.7594 0.0000 -10875.2060 1541.9770 0.0000 0.0000 1752.4527 -7573.5558 295.7325 -9326.0086 -7572.6689 299.4879 526.2885 593.9421 30677.5706 126.9066 191.3896
ENERGY: 1200000 1.8418 4.4118 0.8000 0.0000 -10859.0292 1481.5872 0.0000 0.0000 1777.6566 -7592.7318 299.9858 -9370.3884 -7578.6622 300.1660 106.6467 166.5570 30282.7595 30.7021 91.5804
ENERGY: 1500000 0.2113 6.1626 1.7292 0.0000 -10778.7348 1413.7278 0.0000 0.0000 1862.2416 -7494.6622 314.2598 -9356.9038 -7567.6218 301.8447 -91.3418 -28.1344 30239.7347 -4.9268 57.3477
TCL: Running FEP window  11: Lambda1 0.49999999999999994 Lambda2 0.5499999999999999 [dLambda 0.04999999999999999]
TCL: Setting parameter firsttimestep to 0
TCL: Setting parameter alchLambda to 0.49999999999999994
Info: NONBONDED TABLE R-SQUARED SPACING: 0.0625
Info: NONBONDED TABLE SIZE: 705 POINTS
TCL: Setting parameter alchLambda2 to 0.5499999999999999
Info: NONBONDED TABLE R-SQUARED SPACING: 0.0625
Info: NONBONDED TABLE SIZE: 705 POINTS
TCL: Running for 1500000 steps
ETITLE: TS BOND ANGLE DIHED IMPRP ELECT VDW BOUNDARY MISC KINETIC TOTAL TEMP POTENTIAL TOTALAVG TEMPAVG PRESSURE GPRESSURE VOLUME PRESSAVG GPRESSAVG
ENERGY: 0 0.2113 6.1626 1.7292 0.0000 -10778.7338 1413.9967 0.0000 0.0000 1861.3765 -7495.2574 314.1138 -9356.6339 -7495.2574 314.1138 -106.0748 -20.2866 30239.7347 -106.0748 -20.2866
ENERGY: 300000 0.5082 7.1254 2.5071 0.0000 -10767.4961 1418.7790 0.0000 0.0000 1728.3619 -7610.2145 291.6671 -9338.5764 -7544.5708 304.2923 -141.0935 -48.6131 30434.2870 -71.4653 -12.6633
ENERGY: 600000 3.3730 3.6583 0.9889 0.0000 -10860.6200 1489.0412 0.0000 0.0000 1782.9964 -7580.5622 300.8869 -9363.5586 -7553.7973 302.3537 68.5571 111.6000 30545.6598 83.2384 125.1050
ENERGY: 900000 1.4970 3.8181 1.3950 0.0000 -10712.7823 1441.1110 0.0000 0.0000 1784.0063 -7480.9548 301.0573 -9264.9611 -7566.3543 299.9369 116.9186 155.7972 30550.8969 69.7877 117.8888
ENERGY: 1200000 0.5528 4.0272 1.1110 0.0000 -10756.0756 1398.6497 0.0000 0.0000 1769.3359 -7582.3990 298.5816 -9351.7349 -7562.1080 299.4264 -600.3363 -559.9599 31049.9083 22.0015 72.9438
ENERGY: 1500000 0.8291 5.3512 1.4825 0.0000 -10689.4821 1362.3324 0.0000 0.0000 1768.0532 -7551.4336 298.3651 -9319.4867 -7560.3321 299.9211 -894.6431 -838.1409 31118.9948 -32.0507 25.6189
TCL: Running FEP window  12: Lambda1 0.5499999999999999 Lambda2 0.6    [dLambda 0.050000000000000044]
TCL: Setting parameter firsttimestep to 0
TCL: Setting parameter alchLambda to 0.5499999999999999
Info: NONBONDED TABLE R-SQUARED SPACING: 0.0625
Info: NONBONDED TABLE SIZE: 705 POINTS
TCL: Setting parameter alchLambda2 to 0.6
Info: NONBONDED TABLE R-SQUARED SPACING: 0.0625
Info: NONBONDED TABLE SIZE: 705 POINTS
TCL: Running for 1500000 steps
ETITLE: TS BOND ANGLE DIHED IMPRP ELECT VDW BOUNDARY MISC KINETIC TOTAL TEMP POTENTIAL TOTALAVG TEMPAVG PRESSURE GPRESSURE VOLUME PRESSAVG GPRESSAVG
ENERGY: 0 0.8291 5.3512 1.4825 0.0000 -10689.2744 1362.5372 0.0000 0.0000 1767.1836 -7551.8907 298.2184 -9319.0744 -7551.8907 298.2184 -904.2435 -829.5152 31118.9948 -904.2435 -829.5152
ENERGY: 300000 4.2687 3.8689 1.1605 0.0000 -10879.4335 1480.2758 0.0000 0.0000 1826.7680 -7563.0916 308.2735 -9389.8596 -7542.7266 303.5141 69.7861 123.7874 30146.9433 -534.6673 -455.9408
ENERGY: 600000 1.7128 6.4398 1.0438 0.0000 -10865.7879 1465.5895 0.0000 0.0000 1731.0180 -7659.9840 292.1153 -9391.0020 -7561.1177 300.9861 -69.7792 4.8873 30439.2498 -196.6028 -140.2885
ENERGY: 900000 1.5488 8.6119 0.7130 0.0000 -10641.7859 1391.9186 0.0000 0.0000 1743.8996 -7495.0940 294.2891 -9238.9936 -7549.8430 299.9668 -401.0901 -342.6550 30918.0712 -253.8346 -192.1552
ENERGY: 1200000 2.2503 6.4679 1.2301 0.0000 -10752.0613 1430.6232 0.0000 0.0000 1801.0158 -7510.4740 303.9277 -9311.4897 -7542.0673 300.4740 -192.8657 -147.4881 30944.1526 -175.9941 -113.3251
ENERGY: 1500000 1.1402 10.2660 0.6858 0.0000 -10637.9867 1351.5332 0.0000 0.0000 1821.2915 -7453.0701 307.3493 -9274.3616 -7544.9688 300.3524 -603.7692 -577.1407 31125.4594 -204.9831 -142.8009
TCL: Running FEP window  13: Lambda1 0.6    Lambda2 0.65   [dLambda 0.050000000000000044]
TCL: Setting parameter firsttimestep to 0
TCL: Setting parameter alchLambda to 0.6
Info: NONBONDED TABLE R-SQUARED SPACING: 0.0625
Info: NONBONDED TABLE SIZE: 705 POINTS
TCL: Setting parameter alchLambda2 to 0.65
Info: NONBONDED TABLE R-SQUARED SPACING: 0.0625
Info: NONBONDED TABLE SIZE: 705 POINTS
TCL: Running for 1500000 steps
ETITLE: TS BOND ANGLE DIHED IMPRP ELECT VDW BOUNDARY MISC KINETIC TOTAL TEMP POTENTIAL TOTALAVG TEMPAVG PRESSURE GPRESSURE VOLUME PRESSAVG GPRESSAVG
ENERGY: 0 1.1402 10.2660 0.6858 0.0000 -10638.1517 1350.8532 0.0000 0.0000 1820.4096 -7454.7969 307.2005 -9275.2065 -7454.7969 307.2005 -643.2568 -574.1233 31125.4594 -643.2568 -574.1233
ENERGY: 300000 3.7481 5.6561 0.8398 0.0000 -10590.8005 1360.9870 0.0000 0.0000 1843.4490 -7376.1205 311.0884 -9219.5695 -7511.9685 302.8886 -599.7526 -544.7403 31276.0651 -390.9209 -336.0374
ENERGY: 600000 1.0633 5.5928 1.0780 0.0000 -10876.8236 1549.6990 0.0000 0.0000 1772.1896 -7547.2009 299.0632 -9319.3905 -7517.0470 301.4590 402.5034 480.5554 31335.8043 -147.9540 -96.0642
ENERGY: 900000 1.3303 6.2681 0.8271 0.0000 -10757.2768 1397.4524 0.0000 0.0000 1848.7987 -7502.6001 311.9912 -9351.3988 -7526.9158 302.1210 -219.8917 -167.9080 30526.5472 -156.1763 -102.3453
ENERGY: 1200000 1.3243 6.7413 1.4597 0.0000 -10836.0018 1511.6199 0.0000 0.0000 1739.6952 -7575.1614 293.5796 -9314.8566 -7537.0189 300.6679 426.0487 540.2568 30563.0709 -108.0649 -43.9663
ENERGY: 1500000 2.2017 7.2545 0.9416 0.0000 -10798.1945 1459.2512 0.0000 0.0000 1740.3248 -7588.2207 293.6859 -9328.5456 -7547.6476 299.5549 -204.6370 -125.7943 30803.7094 -124.7416 -52.9843
TCL: Running FEP window  14: Lambda1 0.65   Lambda2 0.7000000000000001 [dLambda 0.050000000000000044]
TCL: Setting parameter firsttimestep to 0
TCL: Setting parameter alchLambda to 0.65
Info: NONBONDED TABLE R-SQUARED SPACING: 0.0625
Info: NONBONDED TABLE SIZE: 705 POINTS
TCL: Setting parameter alchLambda2 to 0.7000000000000001
Info: NONBONDED TABLE R-SQUARED SPACING: 0.0625
Info: NONBONDED TABLE SIZE: 705 POINTS
TCL: Running for 1500000 steps
ETITLE: TS BOND ANGLE DIHED IMPRP ELECT VDW BOUNDARY MISC KINETIC TOTAL TEMP POTENTIAL TOTALAVG TEMPAVG PRESSURE GPRESSURE VOLUME PRESSAVG GPRESSAVG
ENERGY: 0 2.2017 7.2545 0.9416 0.0000 -10798.7556 1458.6803 0.0000 0.0000 1739.4612 -7590.2164 293.5401 -9329.6776 -7590.2164 293.5401 -208.1002 -126.4412 30803.7094 -208.1002 -126.4412
ENERGY: 300000 0.7674 5.7550 0.7546 0.0000 -10872.6770 1489.4234 0.0000 0.0000 1768.4066 -7607.5700 298.4248 -9375.9766 -7584.5741 295.1678 387.6776 427.8308 30314.5224 -92.8699 -23.8290
ENERGY: 600000 0.4803 5.7346 2.5053 0.0000 -10817.8371 1492.8415 0.0000 0.0000 1828.1501 -7488.1254 308.5067 -9316.2754 -7553.9792 299.7439 248.8175 301.9524 30917.6970 -75.6544 -4.0818
ENERGY: 900000 1.7622 6.9248 0.9654 0.0000 -10796.5715 1436.1401 0.0000 0.0000 1822.9439 -7527.8350 307.6281 -9350.7789 -7561.3809 299.2026 -297.5217 -229.5940 30785.4785 -169.4410 -99.7434
ENERGY: 1200000 1.4852 5.1723 0.5624 0.0000 -10903.7998 1529.4784 0.0000 0.0000 1745.9265 -7621.1750 294.6312 -9367.1015 -7565.5373 298.7784 337.1484 469.3201 30658.4418 -76.2756 -5.1072
ENERGY: 1500000 1.2160 6.8498 1.2246 0.0000 -10773.4629 1468.5335 0.0000 0.0000 1786.9509 -7508.6882 301.5542 -9295.6391 -7562.9676 299.3365 78.1435 208.5827 30904.8689 -75.0932 -0.1016
TCL: Running FEP window  15: Lambda1 0.7000000000000001 Lambda2 0.7500000000000001 [dLambda 0.050000000000000044]
TCL: Setting parameter firsttimestep to 0
TCL: Setting parameter alchLambda to 0.7000000000000001
Info: NONBONDED TABLE R-SQUARED SPACING: 0.0625
Info: NONBONDED TABLE SIZE: 705 POINTS
TCL: Setting parameter alchLambda2 to 0.7500000000000001
Info: NONBONDED TABLE R-SQUARED SPACING: 0.0625
Info: NONBONDED TABLE SIZE: 705 POINTS
TCL: Running for 1500000 steps
ETITLE: TS BOND ANGLE DIHED IMPRP ELECT VDW BOUNDARY MISC KINETIC TOTAL TEMP POTENTIAL TOTALAVG TEMPAVG PRESSURE GPRESSURE VOLUME PRESSAVG GPRESSAVG
ENERGY: 0 1.2160 6.8498 1.2246 0.0000 -10773.5204 1469.0756 0.0000 0.0000 1786.0437 -7509.1108 301.4011 -9295.1545 -7509.1108 301.4011 128.1549 222.8802 30904.8689 128.1549 222.8802
ENERGY: 300000 3.9739 6.4008 0.8861 0.0000 -10827.8254 1440.4410 0.0000 0.0000 1797.9749 -7578.1487 303.4145 -9376.1237 -7514.1184 306.6881 -205.4200 -95.6986 30432.9552 -38.4264 53.1795
ENERGY: 600000 1.2646 9.2628 1.9229 0.0000 -10783.8532 1405.8788 0.0000 0.0000 1774.8547 -7590.6693 299.5129 -9365.5240 -7549.3528 302.7336 -424.9384 -389.0080 30657.2231 47.5967 122.4287
ENERGY: 900000 1.6067 6.2773 1.6787 0.0000 -10818.5826 1467.2815 0.0000 0.0000 1730.1389 -7611.5994 291.9670 -9341.7383 -7565.9042 301.2215 159.8852 210.9167 30899.9590 64.7328 128.7736
ENERGY: 1200000 1.1396 7.3242 1.9047 0.0000 -10768.2750 1439.2985 0.0000 0.0000 1736.0039 -7582.6042 292.9567 -9318.6081 -7567.9529 300.6053 -129.6612 -48.2503 30658.7953 -10.4999 53.9330
ENERGY: 1500000 0.5435 7.4696 0.6447 0.0000 -10690.0321 1398.7478 0.0000 0.0000 1803.3112 -7479.3153 304.3150 -9282.6265 -7559.8575 300.9276 -128.3726 -58.1719 30390.6708 -18.6892 50.7079
TCL: Running FEP window  16: Lambda1 0.7500000000000001 Lambda2 0.8000000000000002 [dLambda 0.050000000000000044]
TCL: Setting parameter firsttimestep to 0
TCL: Setting parameter alchLambda to 0.7500000000000001
Info: NONBONDED TABLE R-SQUARED SPACING: 0.0625
Info: NONBONDED TABLE SIZE: 705 POINTS
TCL: Setting parameter alchLambda2 to 0.8000000000000002
Info: NONBONDED TABLE R-SQUARED SPACING: 0.0625
Info: NONBONDED TABLE SIZE: 705 POINTS
TCL: Running for 1500000 steps
ETITLE: TS BOND ANGLE DIHED IMPRP ELECT VDW BOUNDARY MISC KINETIC TOTAL TEMP POTENTIAL TOTALAVG TEMPAVG PRESSURE GPRESSURE VOLUME PRESSAVG GPRESSAVG
ENERGY: 0 0.5435 7.4696 0.6447 0.0000 -10690.1682 1398.2769 0.0000 0.0000 1802.4470 -7480.7864 304.1692 -9283.2334 -7480.7864 304.1692 -145.7329 -53.4912 30390.6708 -145.7329 -53.4912
ENERGY: 300000 1.4898 5.5375 1.1520 0.0000 -10883.5247 1481.3115 0.0000 0.0000 1790.5446 -7603.4894 302.1606 -9394.0340 -7543.2950 301.5260 129.1307 187.5133 30477.5927 -238.3249 -178.0947
ENERGY: 600000 1.1619 4.2459 1.2162 0.0000 -10705.6366 1496.7187 0.0000 0.0000 1737.0227 -7465.2712 293.1286 -9202.2939 -7550.4634 298.5722 657.1843 712.2454 30723.8555 -53.7734 7.5770
ENERGY: 900000 0.5546 7.0650 1.6515 0.0000 -10715.2820 1333.1718 0.0000 0.0000 1798.6225 -7574.2166 303.5238 -9372.8390 -7557.7930 298.2509 -962.4232 -957.4504 30848.0578 -82.8150 -31.4481
ENERGY: 1200000 1.5653 5.3570 1.0082 0.0000 -10774.1048 1448.6962 0.0000 0.0000 1798.9845 -7518.4937 303.5849 -9317.4782 -7541.0023 299.4290 -154.5465 -90.8451 30882.4219 -111.2234 -55.0510
ENERGY: 1500000 1.6390 9.8505 1.3135 0.0000 -10659.9308 1384.4522 0.0000 0.0000 1738.4653 -7524.2103 293.3721 -9262.6756 -7538.4656 298.5265 -446.7654 -314.0092 30495.5912 -91.3506 -27.9648
TCL: Running FEP window  17: Lambda1 0.8000000000000002 Lambda2 0.8500000000000002 [dLambda 0.050000000000000044]
TCL: Setting parameter firsttimestep to 0
TCL: Setting parameter alchLambda to 0.8000000000000002
Info: NONBONDED TABLE R-SQUARED SPACING: 0.0625
Info: NONBONDED TABLE SIZE: 705 POINTS
TCL: Setting parameter alchLambda2 to 0.8500000000000002
Info: NONBONDED TABLE R-SQUARED SPACING: 0.0625
Info: NONBONDED TABLE SIZE: 705 POINTS
TCL: Running for 1500000 steps
ETITLE: TS BOND ANGLE DIHED IMPRP ELECT VDW BOUNDARY MISC KINETIC TOTAL TEMP POTENTIAL TOTALAVG TEMPAVG PRESSURE GPRESSURE VOLUME PRESSAVG GPRESSAVG
ENERGY: 0 1.6390 9.8505 1.3135 0.0000 -10660.2451 1385.5807 0.0000 0.0000 1737.5573 -7524.3041 293.2188 -9261.8613 -7524.3041 293.2188 -368.0788 -289.1956 30495.5912 -368.0788 -289.1956
ENERGY: 300000 1.9205 4.0205 0.9288 0.0000 -10811.9086 1474.0449 0.0000 0.0000 1792.8467 -7538.1471 302.5491 -9330.9938 -7530.4857 299.4479 285.5307 354.3616 30614.0202 -107.3400 -44.1649
ENERGY: 600000 1.0145 5.6021 1.0554 0.0000 -10831.1087 1453.7123 0.0000 0.0000 1747.1419 -7622.5825 294.8363 -9369.7245 -7568.2507 296.2643 -16.6986 14.7439 30675.1736 -63.7182 -4.8076
ENERGY: 900000 0.9268 7.8145 1.1389 0.0000 -10866.6603 1536.3105 0.0000 0.0000 1728.3286 -7592.1410 291.6615 -9320.4697 -7571.3997 296.4672 444.0491 475.3888 31075.1817 -57.2928 -6.4348
ENERGY: 1200000 0.3942 5.6720 2.5512 0.0000 -10837.1765 1432.5053 0.0000 0.0000 1809.6767 -7586.3771 305.3893 -9396.0538 -7564.0720 298.2752 -178.5024 -116.2483 30331.3400 -17.0273 37.6705
ENERGY: 1500000 1.2502 8.3789 0.8625 0.0000 -10652.0931 1392.2925 0.0000 0.0000 1771.1473 -7478.1616 298.8873 -9249.3089 -7557.5015 298.0944 -92.3322 -41.4159 30628.7143 -113.5716 -54.9363
TCL: Running FEP window  18: Lambda1 0.8500000000000002 Lambda2 0.9000000000000002 [dLambda 0.050000000000000044]
TCL: Setting parameter firsttimestep to 0
TCL: Setting parameter alchLambda to 0.8500000000000002
Info: NONBONDED TABLE R-SQUARED SPACING: 0.0625
Info: NONBONDED TABLE SIZE: 705 POINTS
TCL: Setting parameter alchLambda2 to 0.9000000000000002
Info: NONBONDED TABLE R-SQUARED SPACING: 0.0625
Info: NONBONDED TABLE SIZE: 705 POINTS
TCL: Running for 1500000 steps
ETITLE: TS BOND ANGLE DIHED IMPRP ELECT VDW BOUNDARY MISC KINETIC TOTAL TEMP POTENTIAL TOTALAVG TEMPAVG PRESSURE GPRESSURE VOLUME PRESSAVG GPRESSAVG
ENERGY: 0 1.2502 8.3789 0.8625 0.0000 -10652.8466 1392.2774 0.0000 0.0000 1770.2488 -7479.8287 298.7357 -9250.0775 -7479.8287 298.7357 -119.9955 -33.4411 30628.7143 -119.9955 -33.4411
ENERGY: 300000 1.2410 3.7845 2.6985 0.0000 -10801.5773 1419.2986 0.0000 0.0000 1767.5344 -7607.0202 298.2776 -9374.5547 -7564.9824 297.3665 -449.0088 -372.4505 30742.8808 -103.6604 -17.8824
ENERGY: 600000 4.1578 6.3013 2.2604 0.0000 -10691.3839 1383.6233 0.0000 0.0000 1789.1552 -7505.8860 301.9262 -9295.0412 -7553.8349 297.3596 -410.3201 -379.6942 30849.2499 -62.9326 10.0776
ENERGY: 900000 0.5325 8.6401 1.1852 0.0000 -10799.1249 1517.8719 0.0000 0.0000 1782.0061 -7488.8891 300.7197 -9270.8952 -7539.0576 299.1067 673.7226 730.2203 30832.7938 34.2796 101.0282
ENERGY: 1200000 1.0852 9.4550 0.6584 0.0000 -10796.7824 1437.6029 0.0000 0.0000 1818.9234 -7529.0574 306.9497 -9347.9808 -7534.5204 299.1664 -264.4489 -198.0300 31077.7574 32.1394 93.5329
ENERGY: 1500000 0.7706 8.7801 0.9008 0.0000 -10846.2272 1513.2917 0.0000 0.0000 1847.3615 -7475.1224 311.7487 -9322.4840 -7537.2885 299.5241 394.1059 531.8686 30782.4591 -22.5943 43.9557
TCL: Running FEP window  19: Lambda1 0.9000000000000002 Lambda2 0.9500000000000003 [dLambda 0.050000000000000044]
TCL: Setting parameter firsttimestep to 0
TCL: Setting parameter alchLambda to 0.9000000000000002
Info: NONBONDED TABLE R-SQUARED SPACING: 0.0625
Info: NONBONDED TABLE SIZE: 705 POINTS
TCL: Setting parameter alchLambda2 to 0.9500000000000003
Info: NONBONDED TABLE R-SQUARED SPACING: 0.0625
Info: NONBONDED TABLE SIZE: 705 POINTS
TCL: Running for 1500000 steps
ETITLE: TS BOND ANGLE DIHED IMPRP ELECT VDW BOUNDARY MISC KINETIC TOTAL TEMP POTENTIAL TOTALAVG TEMPAVG PRESSURE GPRESSURE VOLUME PRESSAVG GPRESSAVG
ENERGY: 0 0.7706 8.7801 0.9008 0.0000 -10846.8148 1513.7990 0.0000 0.0000 1846.5018 -7476.0625 311.6036 -9322.5643 -7476.0625 311.6036 451.6996 547.5002 30782.4591 451.6996 547.5002
ENERGY: 300000 3.3653 6.5093 1.0712 0.0000 -10693.3759 1376.9121 0.0000 0.0000 1772.2604 -7533.2576 299.0751 -9305.5180 -7525.3281 301.3243 -804.4174 -774.6784 31205.7609 4.8211 63.1057
ENERGY: 600000 3.2890 6.1604 0.9041 0.0000 -10725.7341 1369.0512 0.0000 0.0000 1761.5075 -7584.8218 297.2605 -9346.3294 -7544.7622 300.4553 -697.6197 -630.0788 30621.9836 -83.9285 -15.5579
ENERGY: 900000 0.1860 10.0493 1.6245 0.0000 -10788.3111 1476.7084 0.0000 0.0000 1804.5554 -7495.1874 304.5250 -9299.7429 -7544.8525 300.7181 83.2440 177.8963 30897.0008 -24.4447 44.1219
ENERGY: 1200000 1.2124 8.3595 2.4635 0.0000 -10969.7664 1557.0154 0.0000 0.0000 1746.1340 -7654.5816 294.6662 -9400.7155 -7543.4415 301.0990 994.0045 1030.7621 30126.8269 85.6278 152.1743
ENERGY: 1500000 2.0230 6.4500 1.1132 0.0000 -10810.4200 1436.5495 0.0000 0.0000 1813.0650 -7551.2193 305.9610 -9364.2843 -7537.9840 302.1888 -274.4605 -232.8728 30873.9851 42.1791 107.4029
TCL: Running FEP window  20: Lambda1 0.9500000000000003 Lambda2 1.0    [dLambda 0.04999999999999971]
TCL: Setting parameter firsttimestep to 0
TCL: Setting parameter alchLambda to 0.9500000000000003
Info: NONBONDED TABLE R-SQUARED SPACING: 0.0625
Info: NONBONDED TABLE SIZE: 705 POINTS
TCL: Setting parameter alchLambda2 to 1.0
Info: NONBONDED TABLE R-SQUARED SPACING: 0.0625
Info: NONBONDED TABLE SIZE: 705 POINTS
TCL: Running for 1500000 steps
ETITLE: TS BOND ANGLE DIHED IMPRP ELECT VDW BOUNDARY MISC KINETIC TOTAL TEMP POTENTIAL TOTALAVG TEMPAVG PRESSURE GPRESSURE VOLUME PRESSAVG GPRESSAVG
ENERGY: 0 2.0230 6.4500 1.1132 0.0000 -10811.1823 1436.3325 0.0000 0.0000 1812.1803 -7553.0834 305.8117 -9365.2637 -7553.0834 305.8117 -314.5410 -226.1202 30873.9851 -314.5410 -226.1202
ENERGY: 300000 1.3595 12.5657 1.9460 0.0000 -10920.2914 1511.5746 0.0000 0.0000 1789.8054 -7603.0402 302.0359 -9392.8456 -7542.6097 301.4269 333.4284 462.5596 30413.8684 118.5016 200.9939
ENERGY: 600000 1.1949 5.2202 1.4183 0.0000 -10898.4754 1475.5089 0.0000 0.0000 1799.0321 -7616.1010 303.5929 -9415.1331 -7572.6744 302.4444 24.5580 111.0130 30359.7062 105.1288 185.1689
ENERGY: 900000 3.5799 5.4741 1.9151 0.0000 -10722.8761 1430.7391 0.0000 0.0000 1827.8311 -7453.3368 308.4529 -9281.1679 -7546.2344 304.0888 -286.8692 -226.2457 31006.6668 71.4020 147.1024
ENERGY: 1200000 0.7709 9.0452 0.7324 0.0000 -10806.0760 1504.3339 0.0000 0.0000 1771.9575 -7519.2361 299.0240 -9291.1936 -7544.0638 303.1498 379.8294 506.1540 30779.8297 19.9296 106.0933
ENERGY: 1500000 3.9135 6.6691 1.5714 0.0000 -10793.7451 1460.7346 0.0000 0.0000 1770.2596 -7550.5970 298.7375 -9320.8565 -7539.9911 302.7543 81.9248 121.6406 30743.6534 -22.7002 62.1609
TCL: Exiting due to exit command.
