Info: SIMULATION PARAMETERS:
Info: TIMESTEP               2
Info: NUMBER OF STEPS        0
Info: STEPS PER CYCLE        10
Info: PERIODIC CELL BASIS 1  30.8219 0 0
Info: PERIODIC CELL BASIS 2  0 28.0019 0
Info: PERIODIC CELL BASIS 3  0 0 34.5969
Info: PERIODIC CELL CENTER   0 0 0
Info: WRAPPING WATERS AROUND PERIODIC BOUNDARIES ON OUTPUT.
Info: WRAPPING ALL CLUSTERS AROUND PERIODIC BOUNDARIES ON OUTPUT.
Info: FIRST LDB TIMESTEP     50
Info: LAST LDB TIMESTEP     -1
Info: HOM BACKGROUND SCALING 1
Info: PME BACKGROUND SCALING 1
Info: MIN ATOMS PER PATCH    40
Info: EMPTY PATCH LOAD       40 ATOMS
Info: VELOCITY FILE          mobley_4609460_equil.vel
Info: CENTER OF MASS MOVING INITIALLY? NO
Info: DIELECTRIC             1
Info: EXCLUDE                SCALED ONE-FOUR
Info: 1-4 ELECTROSTATICS SCALED BY 0.833333
Info: MODIFIED 1-4 VDW PARAMETERS WILL BE USED
Info: DCD FILENAME           mobley_4609460_prod.dcd
Info: DCD FREQUENCY          100000
Info: DCD FIRST STEP         100000
Info: DCD FILE WILL CONTAIN UNIT CELL DATA
Info: XST FILENAME           mobley_4609460_prod.xst
Info: XST FREQUENCY          100000
Info: NO VELOCITY DCD OUTPUT
Info: NO FORCE DCD OUTPUT
Info: OUTPUT FILENAME        mobley_4609460_prod
Info: BINARY OUTPUT FILES WILL BE USED
Info: RESTART FILENAME       mobley_4609460_prod.restart
Info: RESTART FREQUENCY      100000
Info: BINARY RESTART FILES WILL BE USED
Info: CUTOFF                 9
Info: PAIRLIST DISTANCE      11
Info: PAIRLIST SHRINK RATE   0.01
Info: PAIRLIST GROW RATE     0.01
Info: PAIRLIST TRIGGER       0.3
Info: PAIRLISTS PER CYCLE    2
Info: PAIRLISTS ENABLED
Info: MARGIN                 2
Info: HYDROGEN GROUP CUTOFF  2.5
Info: PATCH DIMENSION        15.5
Info: ENERGY OUTPUT STEPS    100000
Info: ENERGY EVALUATION STEPS    100000
Info: OUTPUT ENERGY PRECISION 4
Info: CROSSTERM ENERGY INCLUDED IN DIHEDRAL
Info: TIMING OUTPUT STEPS    1000000
Info: PRESSURE OUTPUT STEPS  100000
Info: ALCHEMICAL FEP ON
Info: FEP CURRENT LAMBDA VALUE     1
Info: FEP COMPARISON LAMBDA VALUE  0.95
Info: FEP INTRA-ALCHEMICAL NON-BONDED INTERACTIONS WILL BE RETAINED
Info: FEP INTRA-ALCHEMICAL BONDED INTERACTIONS WILL BE RETAINED
Info: FEP VDW SHIFTING COEFFICIENT 5
Info: FEP ELEC. ACTIVE FOR ANNIHILATED PARTICLES BETWEEN LAMBDA = 0 AND LAMBDA = 0.5
Info: FEP ELEC. ACTIVE FOR EXNIHILATED PARTICLES BETWEEN LAMBDA = 0.5 AND LAMBDA = 1
Info: FEP VDW ACTIVE FOR ANNIHILATED PARTICLES BETWEEN LAMBDA = 0 AND LAMBDA = 1
Info: FEP VDW ACTIVE FOR EXNIHILATED PARTICLES BETWEEN LAMBDA = 0 AND LAMBDA = 1
Info: FEP BOND ACTIVE FOR ANNIHILATED PARTICLES BETWEEN LAMBDA = 1 AND LAMBDA = 1
Info: FEP BOND ACTIVE FOR EXNIHILATED PARTICLES BETWEEN LAMBDA = 0 AND LAMBDA = 0
Info: LANGEVIN DYNAMICS ACTIVE
Info: LANGEVIN TEMPERATURE   300
Info: LANGEVIN USING BBK INTEGRATOR
Info: LANGEVIN DAMPING COEFFICIENT IS 1 INVERSE PS
Info: LANGEVIN DYNAMICS APPLIED TO HYDROGENS
Info: LANGEVIN PISTON PRESSURE CONTROL ACTIVE
Info:        TARGET PRESSURE IS 1.01325 BAR
Info:     OSCILLATION PERIOD IS 50 FS
Info:             DECAY TIME IS 25 FS
Info:     PISTON TEMPERATURE IS 300 K
Info:       PRESSURE CONTROL IS GROUP-BASED
Info:    INITIAL STRAIN RATE IS 7.8049e-05 7.8049e-05 7.8049e-05
Info:       CELL FLUCTUATION IS ISOTROPIC
Info: PARTICLE MESH EWALD (PME) ACTIVE
Info: PME TOLERANCE               1e-06
Info: PME EWALD COEFFICIENT       0.348832
Info: PME INTERPOLATION ORDER     4
Info: PME GRID DIMENSIONS         32 32 36
Info: PME MAXIMUM GRID SPACING    1
Info: PME CALCULATION WILL BE PERFORMED ON GPU
Info: FULL ELECTROSTATIC EVALUATION FREQUENCY      2
Info: USING VERLET I (r-RESPA) MTS SCHEME.
Info: C1 SPLITTING OF LONG RANGE ELECTROSTATICS
Info: PLACING ATOMS IN PATCHES BY HYDROGEN GROUPS
Info: RIGID BONDS TO HYDROGEN : ALL
Info:         ERROR TOLERANCE : 1e-08
Info:          MAX ITERATIONS : 100
Info: RIGID WATER USING SETTLE ALGORITHM
Info: RANDOM NUMBER SEED     1743875497
Info: USE HYDROGEN BONDS?    NO
Info: Using AMBER format force field!
Info: AMBER PARM FILE        mobley_4609460.prmtop
Info: COORDINATE PDB         mobley_4609460.pdb
Info: Exclusions will be read from PARM file!
Info: SCNB (VDW SCALING)     2
Info: USING ARITHMETIC MEAN TO COMBINE L-J SIGMA PARAMETERS
Info: BINARY COORDINATES     mobley_4609460_equil.coor
Info: SUMMARY OF PARAMETERS:
Info: 13 BONDS
Info: 15 ANGLES
Info:   15 HARMONIC
Info:   0 COSINE-BASED
Info: 12 DIHEDRAL
Info: 0 IMPROPER
Info: 0 CROSSTERM
Info: 0 VDW
Info: 55 VDW_PAIRS
Info: 0 NBTHOLE_PAIRS
Info: To read alchdata from file: mobley_4609460.pdb
Info: To read alchflag data from column: 5
Info: STRUCTURE SUMMARY:
Info: 2929 ATOMS
Info: 2929 BONDS
Info: 35 ANGLES
Info: 56 DIHEDRALS
Info: 0 IMPROPERS
Info: 0 CROSSTERMS
Info: 3005 EXCLUSIONS
Info: 2917 RIGID BONDS
Info: ALCH: 0 ATOMS TO DISAPPEAR IN FINAL STATE
Info: ALCH: 22 ATOMS TO APPEAR IN FINAL STATE
Info: 5870 DEGREES OF FREEDOM
Info: 981 HYDROGEN GROUPS
Info: 4 ATOMS IN LARGEST HYDROGEN GROUP
Info: 981 MIGRATION GROUPS
Info: 4 ATOMS IN LARGEST MIGRATION GROUP
Info: TOTAL MASS = 17623.7 amu
Info: TOTAL CHARGE = 5.96046e-08 e
Info: MASS DENSITY = 0.980106 g/cm^3
Info: ATOM DENSITY = 0.0980927 atoms/A^3
Info: ADDED 0 IMPLICIT EXCLUSIONS
Info: NONBONDED TABLE R-SQUARED SPACING: 0.0625
Info: NONBONDED TABLE SIZE: 705 POINTS
Info: REMOVING COM VELOCITY -0.304656 -0.217622 -0.109471
Info: Use 3D box decompostion in PME FFT.
Info: Updated CUDA force table with 4096 elements.
Info: Updated CUDA LJ table with 10 x 10 elements.
Info: Found 24 unique exclusion lists needing 72 bytes
TCL: Running for 1500000 steps
ETITLE: TS BOND ANGLE DIHED IMPRP ELECT VDW BOUNDARY MISC KINETIC TOTAL TEMP POTENTIAL TOTALAVG TEMPAVG PRESSURE GPRESSURE VOLUME PRESSAVG GPRESSAVG
ENERGY: 0 2.6020 6.6934 8.2031 0.0000 -10648.3913 1419.1184 0.0000 0.0000 1755.8489 -7455.9255 301.0505 -9211.7744 -7455.9255 301.0505 138.1227 224.9084 29859.5051 138.1227 224.9084
ENERGY: 300000 3.0304 7.4277 8.4921 0.0000 -10553.4990 1389.1122 0.0000 0.0000 1806.2120 -7339.2246 309.6856 -9145.4366 -7425.1257 300.8597 -194.1092 -51.5320 30511.3004 393.9517 483.3964
ENERGY: 600000 4.1359 5.5026 7.0708 0.0000 -10626.3093 1464.8927 0.0000 0.0000 1748.3830 -7396.3243 299.7705 -9144.7073 -7411.5025 302.3366 405.1705 451.9861 30313.3058 314.7746 388.3502
ENERGY: 900000 10.2979 6.2320 6.6647 0.0000 -10602.6325 1424.0346 0.0000 0.0000 1735.7156 -7419.6876 297.5986 -9155.4032 -7421.4639 300.2862 -55.0959 -30.7384 30222.7875 258.2106 329.6654
ENERGY: 1200000 3.5770 3.0631 7.4822 0.0000 -10649.1006 1384.8486 0.0000 0.0000 1692.9390 -7557.1907 290.2643 -9250.1297 -7444.0006 298.3566 -678.2383 -573.3774 30106.6860 108.3294 190.0275
ENERGY: 1500000 3.6488 8.0272 4.4929 0.0000 -10748.6895 1492.4245 0.0000 0.0000 1752.3226 -7487.7736 300.4459 -9240.0962 -7443.7832 298.2266 512.3412 569.1667 30140.0236 143.1852 224.0432
TCL: Running FEP window   2: Lambda1 0.95   Lambda2 0.8999999999999999 [dLambda -0.050000000000000044]
TCL: Setting parameter firsttimestep to 0
TCL: Setting parameter alchLambda to 0.95
Info: NONBONDED TABLE R-SQUARED SPACING: 0.0625
Info: NONBONDED TABLE SIZE: 705 POINTS
TCL: Setting parameter alchLambda2 to 0.8999999999999999
Info: NONBONDED TABLE R-SQUARED SPACING: 0.0625
Info: NONBONDED TABLE SIZE: 705 POINTS
TCL: Running for 1500000 steps
ETITLE: TS BOND ANGLE DIHED IMPRP ELECT VDW BOUNDARY MISC KINETIC TOTAL TEMP POTENTIAL TOTALAVG TEMPAVG PRESSURE GPRESSURE VOLUME PRESSAVG GPRESSAVG
ENERGY: 0 3.6488 8.0272 4.4929 0.0000 -10745.9583 1492.5567 0.0000 0.0000 1751.4846 -7485.7482 300.3023 -9237.2327 -7485.7482 300.3023 481.4063 563.4089 30140.0236 481.4063 563.4089
ENERGY: 300000 6.0945 8.5122 7.5121 0.0000 -10550.1062 1427.4678 0.0000 0.0000 1761.1357 -7339.3840 301.9570 -9100.5197 -7406.5315 303.3748 92.1417 222.1974 30436.5504 94.5654 200.3510
ENERGY: 600000 4.6458 4.8292 5.1008 0.0000 -10534.8475 1359.8903 0.0000 0.0000 1728.0162 -7432.3653 296.2785 -9160.3815 -7424.6157 301.4101 -720.2413 -673.0601 30658.1604 -13.4343 69.8794
ENERGY: 900000 3.4034 5.1239 7.3538 0.0000 -10708.7551 1430.5806 0.0000 0.0000 1727.2401 -7535.0533 296.1454 -9262.2934 -7445.2903 300.5352 -91.0274 -39.9308 29931.8415 -54.8466 19.1846
ENERGY: 1200000 2.2601 10.6767 6.5608 0.0000 -10742.9255 1455.4680 0.0000 0.0000 1737.8200 -7530.1400 297.9594 -9267.9600 -7452.9429 300.1188 131.3157 196.5896 29895.4481 -10.2412 62.2904
ENERGY: 1500000 3.8573 5.4851 5.5457 0.0000 -10634.5968 1446.0803 0.0000 0.0000 1704.9428 -7468.6856 292.3224 -9173.6285 -7453.5595 299.5303 225.4429 276.4985 30353.2830 -14.6099 58.6276
TCL: Running FEP window   3: Lambda1 0.8999999999999999 Lambda2 0.8499999999999999 [dLambda -0.050000000000000044]
TCL: Setting parameter firsttimestep to 0
TCL: Setting parameter alchLambda to 0.8999999999999999
Info: NONBONDED TABLE R-SQUARED SPACING: 0.0625
Info: NONBONDED TABLE SIZE: 705 POINTS
TCL: Setting parameter alchLambda2 to 0.8499999999999999
Info: NONBONDED TABLE R-SQUARED SPACING: 0.0625
Info: NONBONDED TABLE SIZE: 705 POINTS
TCL: Running for 1500000 steps
ETITLE: TS BOND ANGLE DIHED IMPRP ELECT VDW BOUNDARY MISC KINETIC TOTAL TEMP POTENTIAL TOTALAVG TEMPAVG PRESSURE GPRESSURE VOLUME PRESSAVG GPRESSAVG
ENERGY: 0 3.8573 5.4851 5.5457 0.0000 -10632.6030 1445.6450 0.0000 0.0000 1704.0593 -7468.0107 292.1709 -9172.0700 -7468.0107 292.1709 186.1455 262.0247 30353.2830 186.1455 262.0247
ENERGY: 300000 3.7404 5.9641 8.9834 0.0000 -10642.1269 1439.9817 0.0000 0.0000 1788.4512 -7395.0062 306.6404 -9183.4574 -7439.5117 298.3287 221.5552 271.1444 30145.7359 437.5830 504.6051
ENERGY: 600000 4.9493 4.5944 8.1585 0.0000 -10643.7581 1424.0844 0.0000 0.0000 1747.5362 -7454.4354 299.6253 -9201.9716 -7448.2403 297.1275 -130.7441 -127.4435 29920.6895 184.4681 249.0023
ENERGY: 900000 2.2652 7.0050 8.9702 0.0000 -10732.1823 1515.6183 0.0000 0.0000 1804.2036 -7394.1199 309.3413 -9198.3235 -7447.0686 298.5445 949.7384 1006.1548 30077.0956 246.3340 303.5852
ENERGY: 1200000 2.8044 10.9951 5.3852 0.0000 -10607.6175 1459.3300 0.0000 0.0000 1768.4530 -7360.6498 303.2116 -9129.1028 -7426.9882 299.5411 402.0487 451.1119 30408.9533 228.5625 281.4100
ENERGY: 1500000 3.7785 6.7961 9.9144 0.0000 -10728.9688 1481.3588 0.0000 0.0000 1762.5774 -7464.5436 302.2042 -9227.1210 -7434.7049 299.3757 440.0995 520.7990 29874.3858 233.5770 289.1853
TCL: Running FEP window   4: Lambda1 0.8499999999999999 Lambda2 0.7999999999999998 [dLambda -0.050000000000000044]
TCL: Setting parameter firsttimestep to 0
TCL: Setting parameter alchLambda to 0.8499999999999999
Info: NONBONDED TABLE R-SQUARED SPACING: 0.0625
Info: NONBONDED TABLE SIZE: 705 POINTS
TCL: Setting parameter alchLambda2 to 0.7999999999999998
Info: NONBONDED TABLE R-SQUARED SPACING: 0.0625
Info: NONBONDED TABLE SIZE: 705 POINTS
TCL: Running for 1500000 steps
ETITLE: TS BOND ANGLE DIHED IMPRP ELECT VDW BOUNDARY MISC KINETIC TOTAL TEMP POTENTIAL TOTALAVG TEMPAVG PRESSURE GPRESSURE VOLUME PRESSAVG GPRESSAVG
ENERGY: 0 3.7785 6.7961 9.9144 0.0000 -10726.3963 1480.8762 0.0000 0.0000 1761.6822 -7463.3489 302.0507 -9225.0311 -7463.3489 302.0507 407.2632 503.5025 29874.3858 407.2632 503.5025
ENERGY: 300000 6.0661 9.1057 10.0795 0.0000 -10454.5867 1270.1707 0.0000 0.0000 1769.1793 -7389.9853 303.3361 -9159.1646 -7423.1308 299.3159 -1161.4058 -1137.2178 30221.7104 -156.6925 -112.8370
ENERGY: 600000 4.7531 8.6566 10.3118 0.0000 -10669.9199 1510.8432 0.0000 0.0000 1741.0723 -7394.2828 298.5170 -9135.3552 -7454.7910 298.3537 588.2679 650.1885 30228.5457 -52.8816 4.9344
ENERGY: 900000 5.3143 8.3411 9.5517 0.0000 -10515.9751 1339.4866 0.0000 0.0000 1724.3880 -7428.8934 295.6564 -9153.2814 -7451.1362 299.7767 -917.1193 -877.9565 31043.1773 -162.5254 -99.1264
ENERGY: 1200000 5.3722 8.3243 9.5525 0.0000 -10607.9857 1471.1976 0.0000 0.0000 1759.5658 -7353.9732 301.6878 -9113.5390 -7445.4498 300.4190 522.0677 581.4424 29859.7895 -104.0556 -39.8900
ENERGY: 1500000 5.5659 8.2137 7.1749 0.0000 -10697.3858 1468.9612 0.0000 0.0000 1773.1574 -7434.3127 304.0182 -9207.4701 -7451.2831 299.7615 185.4942 206.4922 30129.2977 -77.2925 -14.8956
TCL: Running FEP window   5: Lambda1 0.7999999999999998 Lambda2 0.7499999999999998 [dLambda -0.050000000000000044]
TCL: Setting parameter firsttimestep to 0
TCL: Setting parameter alchLambda to 0.7999999999999998
Info: NONBONDED TABLE R-SQUARED SPACING: 0.0625
Info: NONBONDED TABLE SIZE: 705 POINTS
TCL: Setting parameter alchLambda2 to 0.7499999999999998
Info: NONBONDED TABLE R-SQUARED SPACING: 0.0625
Info: NONBONDED TABLE SIZE: 705 POINTS
TCL: Running for 1500000 steps
ETITLE: TS BOND ANGLE DIHED IMPRP ELECT VDW BOUNDARY MISC KINETIC TOTAL TEMP POTENTIAL TOTALAVG TEMPAVG PRESSURE GPRESSURE VOLUME PRESSAVG GPRESSAVG
ENERGY: 0 5.5659 8.2137 7.1749 0.0000 -10695.5125 1468.2541 0.0000 0.0000 1772.2747 -7434.0292 303.8669 -9206.3040 -7434.0292 303.8669 124.2969 192.5730 30129.2977 124.2969 192.5730
ENERGY: 300000 1.7021 5.9613 7.4913 0.0000 -10698.4401 1479.1379 0.0000 0.0000 1757.6398 -7446.5077 301.3576 -9204.1475 -7442.1225 301.0679 395.5445 434.5211 30024.6328 23.1757 72.5622
ENERGY: 600000 4.9993 8.2809 6.2742 0.0000 -10552.2681 1403.1690 0.0000 0.0000 1778.2016 -7351.3431 304.8830 -9129.5447 -7428.6122 299.4803 -93.3466 24.6586 30127.2961 20.5166 76.1643
ENERGY: 900000 4.0389 7.5662 6.1983 0.0000 -10717.7428 1425.4841 0.0000 0.0000 1766.3941 -7508.0612 302.8586 -9274.4553 -7446.7839 300.1423 -109.7189 36.3517 30117.9400 143.1817 204.5946
ENERGY: 1200000 6.1987 9.7680 11.3817 0.0000 -10569.8967 1410.8411 0.0000 0.0000 1731.3687 -7400.3385 296.8533 -9131.7072 -7441.1859 298.6299 -253.6533 -175.9700 30395.4917 56.1816 125.2304
ENERGY: 1500000 2.1414 5.4843 4.1999 0.0000 -10668.0121 1416.8390 0.0000 0.0000 1758.2638 -7481.0835 301.4646 -9239.3474 -7445.3060 299.4807 185.8159 201.7000 29868.1292 121.7721 179.2969
TCL: Running FEP window   6: Lambda1 0.7499999999999998 Lambda2 0.6999999999999997 [dLambda -0.050000000000000044]
TCL: Setting parameter firsttimestep to 0
TCL: Setting parameter alchLambda to 0.7499999999999998
Info: NONBONDED TABLE R-SQUARED SPACING: 0.0625
Info: NONBONDED TABLE SIZE: 705 POINTS
TCL: Setting parameter alchLambda2 to 0.6999999999999997
Info: NONBONDED TABLE R-SQUARED SPACING: 0.0625
Info: NONBONDED TABLE SIZE: 705 POINTS
TCL: Running for 1500000 steps
ETITLE: TS BOND ANGLE DIHED IMPRP ELECT VDW BOUNDARY MISC KINETIC TOTAL TEMP POTENTIAL TOTALAVG TEMPAVG PRESSURE GPRESSURE VOLUME PRESSAVG GPRESSAVG
ENERGY: 0 2.1414 5.4843 4.1999 0.0000 -10666.9140 1417.2586 0.0000 0.0000 1757.3825 -7480.4472 301.3135 -9237.8298 -7480.4472 301.3135 104.8696 189.2010 29868.1292 104.8696 189.2010
ENERGY: 300000 5.7705 5.3561 7.0834 0.0000 -10597.4188 1421.1730 0.0000 0.0000 1795.3360 -7362.6999 307.8208 -9158.0359 -7401.1168 304.9520 -239.4396 -151.5818 30509.5976 76.8220 145.0987
ENERGY: 600000 6.3948 7.4995 4.9037 0.0000 -10678.2860 1476.1890 0.0000 0.0000 1765.3519 -7417.9471 302.6799 -9183.2990 -7398.4478 303.9609 398.5706 444.7975 30220.1946 67.6881 124.0263
ENERGY: 900000 5.2052 6.1412 4.6211 0.0000 -10497.2609 1287.1609 0.0000 0.0000 1753.8192 -7440.3132 300.7025 -9194.1325 -7416.8049 302.0236 -1354.8294 -1260.6118 30556.2416 -0.3542 67.8871
ENERGY: 1200000 10.8559 6.8955 4.4096 0.0000 -10711.8384 1409.6418 0.0000 0.0000 1715.4264 -7564.6093 294.1199 -9280.0356 -7435.9742 300.6852 -468.1143 -426.0087 29957.6415 17.8870 84.5890
ENERGY: 1500000 3.8855 4.7772 7.6627 0.0000 -10549.5354 1390.9435 0.0000 0.0000 1743.1323 -7399.1342 298.8702 -9142.2665 -7438.2363 300.1604 -310.6688 -293.2036 30206.9879 54.2235 118.0275
TCL: Running FEP window   7: Lambda1 0.6999999999999997 Lambda2 0.6499999999999997 [dLambda -0.050000000000000044]
TCL: Setting parameter firsttimestep to 0
TCL: Setting parameter alchLambda to 0.6999999999999997
Info: NONBONDED TABLE R-SQUARED SPACING: 0.0625
Info: NONBONDED TABLE SIZE: 705 POINTS
TCL: Setting parameter alchLambda2 to 0.6499999999999997
Info: NONBONDED TABLE R-SQUARED SPACING: 0.0625
Info: NONBONDED TABLE SIZE: 705 POINTS
TCL: Running for 1500000 steps
ETITLE: TS BOND ANGLE DIHED IMPRP ELECT VDW BOUNDARY MISC KINETIC TOTAL TEMP POTENTIAL TOTALAVG TEMPAVG PRESSURE GPRESSURE VOLUME PRESSAVG GPRESSAVG
ENERGY: 0 3.8855 4.7772 7.6627 0.0000 -10548.4525 1391.5268 0.0000 0.0000 1742.2614 -7398.3389 298.7209 -9140.6002 -7398.3389 298.7209 -372.6798 -294.6420 30206.9879 -372.6798 -294.6420
ENERGY: 300000 5.3761 7.9622 3.8485 0.0000 -10667.6343 1429.4332 0.0000 0.0000 1776.4082 -7444.6060 304.5756 -9221.0143 -7394.5163 300.0479 -39.0449 89.3330 29878.2024 124.5527 195.4301
ENERGY: 600000 7.6659 11.0971 6.2954 0.0000 -10671.3713 1480.9675 0.0000 0.0000 1779.1651 -7386.1801 305.0483 -9165.3452 -7394.9193 300.9214 443.4865 468.1091 29838.8028 266.6588 323.9626
ENERGY: 900000 6.3995 4.4747 6.2846 0.0000 -10446.1801 1324.8311 0.0000 0.0000 1765.9171 -7338.2730 302.7768 -9104.1901 -7390.4335 300.7192 -703.5463 -654.8283 30457.7374 45.4762 89.2292
ENERGY: 1200000 2.5204 7.6355 6.3118 0.0000 -10586.8187 1423.4637 0.0000 0.0000 1787.5386 -7359.3487 306.4839 -9146.8872 -7391.7279 300.5995 99.4992 181.6098 30240.3329 8.3726 58.6381
ENERGY: 1500000 3.2228 4.2744 5.1014 0.0000 -10646.6004 1421.4267 0.0000 0.0000 1795.8337 -7416.7414 307.9062 -9212.5751 -7388.8090 300.9665 21.5060 35.6450 29928.2972 38.1635 91.2845
TCL: Running FEP window   8: Lambda1 0.6499999999999997 Lambda2 0.5999999999999996 [dLambda -0.050000000000000044]
TCL: Setting parameter firsttimestep to 0
TCL: Setting parameter alchLambda to 0.6499999999999997
Info: NONBONDED TABLE R-SQUARED SPACING: 0.0625
Info: NONBONDED TABLE SIZE: 705 POINTS
TCL: Setting parameter alchLambda2 to 0.5999999999999996
Info: NONBONDED TABLE R-SQUARED SPACING: 0.0625
Info: NONBONDED TABLE SIZE: 705 POINTS
TCL: Running for 1500000 steps
ETITLE: TS BOND ANGLE DIHED IMPRP ELECT VDW BOUNDARY MISC KINETIC TOTAL TEMP POTENTIAL TOTALAVG TEMPAVG PRESSURE GPRESSURE VOLUME PRESSAVG GPRESSAVG
ENERGY: 0 3.2228 4.2744 5.1014 0.0000 -10645.4487 1422.2502 0.0000 0.0000 1794.9739 -7415.6260 307.7588 -9210.5999 -7415.6260 307.7588 -45.1172 33.8573 29928.2972 -45.1172 33.8573
ENERGY: 300000 2.8349 6.3166 5.4145 0.0000 -10644.2136 1435.8698 0.0000 0.0000 1701.5853 -7492.1926 291.7467 -9193.7779 -7423.0037 299.9808 195.4664 179.6710 30032.8109 -27.2903 29.0678
ENERGY: 600000 5.0816 3.9917 6.6159 0.0000 -10540.3753 1369.7761 0.0000 0.0000 1722.1431 -7432.7669 295.2715 -9154.9100 -7433.6951 297.6412 -515.2019 -448.7876 30332.4710 -151.3579 -74.2255
ENERGY: 900000 4.8878 6.5507 5.1852 0.0000 -10766.7105 1478.6136 0.0000 0.0000 1764.2377 -7507.2355 302.4889 -9271.4732 -7433.4257 299.4193 124.4134 157.7757 29966.2446 -103.1491 -37.3861
ENERGY: 1200000 2.6787 5.5918 4.9969 0.0000 -10721.4874 1447.5101 0.0000 0.0000 1724.8359 -7535.8739 295.7332 -9260.7098 -7439.0595 299.0964 -163.1455 -116.1400 30015.7767 -88.7190 -21.9440
ENERGY: 1500000 2.4927 5.4694 7.2900 0.0000 -10504.2954 1377.4065 0.0000 0.0000 1717.8602 -7393.7767 294.5372 -9111.6369 -7444.7669 298.0980 -313.7261 -246.8507 30396.2799 -127.8645 -61.7233
TCL: Running FEP window   9: Lambda1 0.5999999999999996 Lambda2 0.5499999999999996 [dLambda -0.050000000000000044]
TCL: Setting parameter firsttimestep to 0
TCL: Setting parameter alchLambda to 0.5999999999999996
Info: NONBONDED TABLE R-SQUARED SPACING: 0.0625
Info: NONBONDED TABLE SIZE: 705 POINTS
TCL: Setting parameter alchLambda2 to 0.5499999999999996
Info: NONBONDED TABLE R-SQUARED SPACING: 0.0625
Info: NONBONDED TABLE SIZE: 705 POINTS
TCL: Running for 1500000 steps
ETITLE: TS BOND ANGLE DIHED IMPRP ELECT VDW BOUNDARY MISC KINETIC TOTAL TEMP POTENTIAL TOTALAVG TEMPAVG PRESSURE GPRESSURE VOLUME PRESSAVG GPRESSAVG
ENERGY: 0 2.4927 5.4694 7.2900 0.0000 -10503.5080 1377.4515 0.0000 0.0000 1716.9971 -7393.8075 294.3892 -9110.8045 -7393.8075 294.3892 -335.0415 -252.6979 30396.2799 -335.0415 -252.6979
ENERGY: 300000 2.0124 10.5666 8.9543 0.0000 -10496.9743 1418.5467 0.0000 0.0000 1722.9582 -7333.9362 295.4112 -9056.8943 -7363.1174 297.7773 252.7659 260.0294 30312.2831 71.4405 117.0273
ENERGY: 600000 5.1127 4.8410 7.1446 0.0000 -10597.8942 1410.9714 0.0000 0.0000 1790.1905 -7379.6340 306.9386 -9169.8244 -7381.5289 298.0846 -69.6607 -59.2984 30087.8707 -14.2907 41.1264
ENERGY: 900000 1.7640 8.8111 5.7134 0.0000 -10534.2402 1360.3756 0.0000 0.0000 1735.2308 -7422.3453 297.5155 -9157.5761 -7389.5313 297.9739 -710.9194 -620.7402 30752.7288 -152.7936 -79.5671
ENERGY: 1200000 3.4538 8.2050 11.0831 0.0000 -10628.5819 1441.8215 0.0000 0.0000 1756.8388 -7407.1798 301.2203 -9164.0186 -7390.9909 298.6670 305.9505 329.5312 29725.0870 53.7981 116.8322
ENERGY: 1500000 4.5981 6.3927 7.0005 0.0000 -10705.3074 1481.5959 0.0000 0.0000 1784.9059 -7420.8144 306.0325 -9205.7203 -7399.4839 299.1349 216.0994 282.7997 30245.2701 56.0337 117.5987
TCL: Running FEP window  10: Lambda1 0.5499999999999996 Lambda2 0.4999999999999996 [dLambda -0.04999999999999999]
TCL: Setting parameter firsttimestep to 0
TCL: Setting parameter alchLambda to 0.5499999999999996
Info: NONBONDED TABLE R-SQUARED SPACING: 0.0625
Info: NONBONDED TABLE SIZE: 705 POINTS
TCL: Setting parameter alchLambda2 to 0.4999999999999996
Info: NONBONDED TABLE R-SQUARED SPACING: 0.0625
Info: NONBONDED TABLE SIZE: 705 POINTS
TCL: Running for 1500000 steps
ETITLE: TS BOND ANGLE DIHED IMPRP ELECT VDW BOUNDARY MISC KINETIC TOTAL TEMP POTENTIAL TOTALAVG TEMPAVG PRESSURE GPRESSURE VOLUME PRESSAVG GPRESSAVG
ENERGY: 0 4.5981 6.3926 7.0005 0.0000 -10703.5902 1481.9051 0.0000 0.0000 1784.0286 -7419.6653 305.8821 -9203.6939 -7419.6653 305.8821 201.1348 276.2397 30245.2701 201.1348 276.2397
ENERGY: 300000 3.6013 6.8376 6.0217 0.0000 -10716.3415 1568.1767 0.0000 0.0000 1775.5772 -7356.1270 304.4331 -9131.7042 -7407.9144 301.8912 1393.3365 1435.4271 29930.0179 177.7530 235.7009
ENERGY: 600000 3.0241 6.2055 7.2127 0.0000 -10758.0564 1465.7221 0.0000 0.0000 1759.8704 -7516.0215 301.7401 -9275.8920 -7439.0034 300.4508 98.7665 142.2977 30035.2705 55.4674 104.9115
ENERGY: 900000 4.7086 6.8380 6.7156 0.0000 -10539.4870 1380.5953 0.0000 0.0000 1783.5535 -7357.0760 305.8007 -9140.6295 -7429.4242 300.9776 -294.3107 -250.3410 30049.3916 123.7077 173.6156
ENERGY: 1200000 4.7711 10.4827 5.4972 0.0000 -10647.8550 1439.6101 0.0000 0.0000 1742.5779 -7444.9159 298.7752 -9187.4938 -7437.8873 300.8794 6.8810 106.8839 30221.3226 13.6728 67.5356
ENERGY: 1500000 4.5114 7.2976 7.2154 0.0000 -10591.0020 1407.0309 0.0000 0.0000 1732.9835 -7431.9632 297.1301 -9164.9467 -7435.1822 301.7234 -186.0914 -117.2122 29933.8438 36.2296 86.2905
TCL: Running FEP window  11: Lambda1 0.4999999999999996 Lambda2 0.4499999999999996 [dLambda -0.04999999999999999]
TCL: Setting parameter firsttimestep to 0
TCL: Setting parameter alchLambda to 0.4999999999999996
Info: NONBONDED TABLE R-SQUARED SPACING: 0.0625
Info: NONBONDED TABLE SIZE: 705 POINTS
TCL: Setting parameter alchLambda2 to 0.4499999999999996
Info: NONBONDED TABLE R-SQUARED SPACING: 0.0625
Info: NONBONDED TABLE SIZE: 705 POINTS
TCL: Running for 1500000 steps
ETITLE: TS BOND ANGLE DIHED IMPRP ELECT VDW BOUNDARY MISC KINETIC TOTAL TEMP POTENTIAL TOTALAVG TEMPAVG PRESSURE GPRESSURE VOLUME PRESSAVG GPRESSAVG
ENERGY: 0 4.5114 7.2976 7.2154 0.0000 -10591.4935 1407.1109 0.0000 0.0000 1732.1623 -7433.1958 296.9893 -9165.3582 -7433.1958 296.9893 -225.0793 -129.0940 29933.8438 -225.0793 -129.0940
ENERGY: 300000 5.1539 12.6552 5.9436 0.0000 -10665.3056 1421.9238 0.0000 0.0000 1761.7211 -7457.9080 302.0574 -9219.6291 -7402.1521 302.2981 -132.2272 -110.6142 30110.9904 68.8633 119.7792
ENERGY: 600000 1.9399 3.7475 4.5851 0.0000 -10655.9170 1391.2097 0.0000 0.0000 1762.7265 -7491.7082 302.2297 -9254.4347 -7429.5518 299.5130 -374.1923 -340.0764 30029.8892 -303.9277 -253.3046
ENERGY: 900000 4.3257 7.9227 5.4389 0.0000 -10495.5669 1367.4147 0.0000 0.0000 1743.8776 -7366.5873 298.9980 -9110.4650 -7427.6975 299.0453 -730.2810 -604.8781 30677.7599 -269.5204 -206.4185
ENERGY: 1200000 2.7568 9.8342 6.7565 0.0000 -10507.6726 1392.8427 0.0000 0.0000 1748.2858 -7347.1965 299.7538 -9095.4823 -7406.4915 300.3873 -76.3942 -56.1478 30379.1236 -174.3591 -122.4961
ENERGY: 1500000 5.0071 5.3755 10.0867 0.0000 -10748.9174 1497.6507 0.0000 0.0000 1748.7739 -7482.0236 299.8375 -9230.7975 -7412.3189 300.6132 514.5529 596.2677 29775.6774 -56.9651 -4.2571
TCL: Running FEP window  12: Lambda1 0.4499999999999996 Lambda2 0.39999999999999963 [dLambda -0.04999999999999999]
TCL: Setting parameter firsttimestep to 0
TCL: Setting parameter alchLambda to 0.4499999999999996
Info: NONBONDED TABLE R-SQUARED SPACING: 0.0625
Info: NONBONDED TABLE SIZE: 705 POINTS
TCL: Setting parameter alchLambda2 to 0.39999999999999963
Info: NONBONDED TABLE R-SQUARED SPACING: 0.0625
Info: NONBONDED TABLE SIZE: 705 POINTS
TCL: Running for 1500000 steps
ETITLE: TS BOND ANGLE DIHED IMPRP ELECT VDW BOUNDARY MISC KINETIC TOTAL TEMP POTENTIAL TOTALAVG TEMPAVG PRESSURE GPRESSURE VOLUME PRESSAVG GPRESSAVG
ENERGY: 0 5.0071 5.3755 10.0867 0.0000 -10748.9181 1498.2249 0.0000 0.0000 1747.9133 -7482.3106 299.6900 -9230.2240 -7482.3106 299.6900 495.1477 593.7380 29775.6774 495.1477 593.7380
ENERGY: 300000 7.3404 7.8415 6.0496 0.0000 -10572.7399 1397.1619 0.0000 0.0000 1744.7539 -7409.5926 299.1482 -9154.3465 -7434.0763 301.3116 -605.0345 -548.0977 30201.1391 -31.0525 27.7588
ENERGY: 600000 3.6540 4.7583 5.8221 0.0000 -10694.3977 1473.4285 0.0000 0.0000 1740.3048 -7466.4300 298.3854 -9206.7348 -7453.6478 299.8073 -86.3988 -23.7905 30908.4803 -59.4101 -2.0357
ENERGY: 900000 3.5847 4.0613 7.1599 0.0000 -10484.0754 1363.0729 0.0000 0.0000 1739.0634 -7367.1330 298.1726 -9106.1965 -7421.7505 300.9608 -164.4721 -148.8454 29788.5522 120.2426 168.1562
ENERGY: 1200000 4.3229 8.5609 9.2067 0.0000 -10636.7774 1421.6984 0.0000 0.0000 1726.2139 -7466.7745 295.9695 -9192.9884 -7424.7293 301.2653 -280.3312 -229.0740 30030.9072 36.1091 84.7971
ENERGY: 1500000 1.0305 6.6270 6.8172 0.0000 -10731.9046 1493.9863 0.0000 0.0000 1763.3557 -7460.0880 302.3376 -9223.4437 -7428.3585 301.0228 440.9742 531.4664 29992.3496 -0.6394 52.5144
TCL: Running FEP window  13: Lambda1 0.39999999999999963 Lambda2 0.34999999999999964 [dLambda -0.04999999999999999]
TCL: Setting parameter firsttimestep to 0
TCL: Setting parameter alchLambda to 0.39999999999999963
Info: NONBONDED TABLE R-SQUARED SPACING: 0.0625
Info: NONBONDED TABLE SIZE: 705 POINTS
TCL: Setting parameter alchLambda2 to 0.34999999999999964
Info: NONBONDED TABLE R-SQUARED SPACING: 0.0625
Info: NONBONDED TABLE SIZE: 705 POINTS
TCL: Running for 1500000 steps
ETITLE: TS BOND ANGLE DIHED IMPRP ELECT VDW BOUNDARY MISC KINETIC TOTAL TEMP POTENTIAL TOTALAVG TEMPAVG PRESSURE GPRESSURE VOLUME PRESSAVG GPRESSAVG
ENERGY: 0 1.0305 6.6270 6.8172 0.0000 -10731.9027 1494.3870 0.0000 0.0000 1762.4841 -7460.5569 302.1882 -9223.0410 -7460.5569 302.1882 444.8771 525.8298 29992.3496 444.8771 525.8298
ENERGY: 300000 2.3475 5.3060 6.2009 0.0000 -10540.1052 1443.4613 0.0000 0.0000 1797.6678 -7285.1217 308.2206 -9082.7895 -7409.3866 300.7196 133.0516 166.9181 30653.2743 233.3037 293.0646
ENERGY: 600000 2.5818 5.9977 5.3693 0.0000 -10538.1758 1403.8296 0.0000 0.0000 1739.5132 -7380.8842 298.2497 -9120.3974 -7398.9850 300.2268 -189.3576 -127.0799 30368.7685 -12.8381 43.9126
ENERGY: 900000 3.4799 5.4268 4.1713 0.0000 -10530.2683 1373.7630 0.0000 0.0000 1736.2902 -7407.1371 297.6971 -9143.4273 -7405.2266 300.1443 -289.6525 -161.3179 30015.2932 -38.4347 30.9070
ENERGY: 1200000 2.4840 3.7263 7.8869 0.0000 -10651.7618 1507.1311 0.0000 0.0000 1763.6217 -7366.9118 302.3832 -9130.5335 -7400.1958 299.1930 1074.9299 1164.8731 29525.6380 4.6030 82.2693
ENERGY: 1500000 2.9153 6.8987 8.9470 0.0000 -10642.5392 1407.4454 0.0000 0.0000 1816.3276 -7400.0053 311.4200 -9216.3329 -7404.7090 299.9519 -174.4084 -175.3731 29664.0665 16.6433 88.7988
TCL: Running FEP window  14: Lambda1 0.34999999999999964 Lambda2 0.29999999999999966 [dLambda -0.04999999999999999]
TCL: Setting parameter firsttimestep to 0
TCL: Setting parameter alchLambda to 0.34999999999999964
Info: NONBONDED TABLE R-SQUARED SPACING: 0.0625
Info: NONBONDED TABLE SIZE: 705 POINTS
TCL: Setting parameter alchLambda2 to 0.29999999999999966
Info: NONBONDED TABLE R-SQUARED SPACING: 0.0625
Info: NONBONDED TABLE SIZE: 705 POINTS
TCL: Running for 1500000 steps
ETITLE: TS BOND ANGLE DIHED IMPRP ELECT VDW BOUNDARY MISC KINETIC TOTAL TEMP POTENTIAL TOTALAVG TEMPAVG PRESSURE GPRESSURE VOLUME PRESSAVG GPRESSAVG
ENERGY: 0 2.9153 6.8987 8.9470 0.0000 -10642.5383 1408.1586 0.0000 0.0000 1815.4763 -7400.1425 311.2740 -9215.6188 -7400.1425 311.2740 -259.9877 -175.3698 29664.0665 -259.9877 -175.3698
ENERGY: 300000 4.4301 6.4745 6.3565 0.0000 -10635.7630 1420.0309 0.0000 0.0000 1757.7582 -7440.7128 301.3779 -9198.4709 -7399.1544 303.1634 -264.1264 -189.5119 30177.8782 -321.0949 -228.8217
ENERGY: 600000 3.2485 9.7058 6.8556 0.0000 -10521.3974 1411.0848 0.0000 0.0000 1721.9040 -7368.5986 295.2305 -9090.5026 -7383.0610 301.3164 45.1303 64.0804 30238.5492 -228.7529 -158.8185
ENERGY: 900000 3.6314 12.1428 8.7671 0.0000 -10824.0781 1520.1426 0.0000 0.0000 1791.0291 -7488.3650 307.0824 -9279.3941 -7399.2749 301.8080 530.3489 566.8823 29667.8420 -93.4682 -32.2027
ENERGY: 1200000 2.8082 9.0647 8.0373 0.0000 -10560.1423 1423.9916 0.0000 0.0000 1783.2456 -7332.9949 305.7479 -9116.2405 -7391.8608 302.1411 -51.8092 -5.9019 30800.7643 -142.5700 -86.7551
ENERGY: 1500000 2.7256 9.6618 9.2084 0.0000 -10527.1682 1407.4014 0.0000 0.0000 1762.4015 -7335.7695 302.1740 -9098.1710 -7390.7461 301.2421 80.4360 199.7619 30022.9103 -135.7378 -75.2780
TCL: Running FEP window  15: Lambda1 0.29999999999999966 Lambda2 0.24999999999999967 [dLambda -0.04999999999999999]
TCL: Setting parameter firsttimestep to 0
TCL: Setting parameter alchLambda to 0.29999999999999966
Info: NONBONDED TABLE R-SQUARED SPACING: 0.0625
Info: NONBONDED TABLE SIZE: 705 POINTS
TCL: Setting parameter alchLambda2 to 0.24999999999999967
Info: NONBONDED TABLE R-SQUARED SPACING: 0.0625
Info: NONBONDED TABLE SIZE: 705 POINTS
TCL: Running for 1500000 steps
ETITLE: TS BOND ANGLE DIHED IMPRP ELECT VDW BOUNDARY MISC KINETIC TOTAL TEMP POTENTIAL TOTALAVG TEMPAVG PRESSURE GPRESSURE VOLUME PRESSAVG GPRESSAVG
ENERGY: 0 2.7256 9.6618 9.2084 0.0000 -10527.1688 1407.6675 0.0000 0.0000 1761.4930 -7336.4125 302.0183 -9097.9055 -7336.4125 302.0183 111.3179 200.8804 30022.9103 111.3179 200.8804
ENERGY: 300000 3.5432 5.8399 9.5075 0.0000 -10633.6268 1420.5041 0.0000 0.0000 1732.6246 -7461.6076 297.0686 -9194.2322 -7444.4470 298.7497 -3.3479 17.3854 29913.0142 -71.4731 -14.0560
ENERGY: 600000 2.6032 5.9261 6.1100 0.0000 -10653.6372 1415.5021 0.0000 0.0000 1785.0465 -7438.4493 306.0567 -9223.4959 -7418.1353 298.9205 -38.7783 -21.1741 30078.9991 -24.7428 25.5629
ENERGY: 900000 3.2032 11.5312 4.8625 0.0000 -10606.7013 1380.0917 0.0000 0.0000 1755.5906 -7451.4220 301.0063 -9207.0127 -7417.3102 299.0900 -697.3232 -667.4864 30406.2461 -25.4042 24.6763
ENERGY: 1200000 2.8012 10.5214 6.7814 0.0000 -10602.2029 1374.6572 0.0000 0.0000 1778.6540 -7428.7877 304.9606 -9207.4417 -7421.8736 299.8182 -592.0362 -525.4450 30026.8522 -78.6870 -29.6221
ENERGY: 1500000 4.1258 7.5221 6.5136 0.0000 -10758.4509 1568.2454 0.0000 0.0000 1753.7976 -7418.2464 300.6988 -9172.0440 -7413.2775 299.6854 1086.8125 1146.5269 29883.2699 24.6055 72.4000
TCL: Running FEP window  16: Lambda1 0.24999999999999967 Lambda2 0.19999999999999968 [dLambda -0.04999999999999999]
TCL: Setting parameter firsttimestep to 0
TCL: Setting parameter alchLambda to 0.24999999999999967
Info: NONBONDED TABLE R-SQUARED SPACING: 0.0625
Info: NONBONDED TABLE SIZE: 705 POINTS
TCL: Setting parameter alchLambda2 to 0.19999999999999968
Info: NONBONDED TABLE R-SQUARED SPACING: 0.0625
Info: NONBONDED TABLE SIZE: 705 POINTS
TCL: Running for 1500000 steps
ETITLE: TS BOND ANGLE DIHED IMPRP ELECT VDW BOUNDARY MISC KINETIC TOTAL TEMP POTENTIAL TOTALAVG TEMPAVG PRESSURE GPRESSURE VOLUME PRESSAVG GPRESSAVG
ENERGY: 0 4.1258 7.5221 6.5136 0.0000 -10758.4522 1567.9650 0.0000 0.0000 1752.8957 -7419.4299 300.5442 -9172.3257 -7419.4299 300.5442 1057.3429 1137.8035 29883.2699 1057.3429 1137.8035
ENERGY: 300000 4.5227 7.7117 6.9192 0.0000 -10499.1133 1360.5237 0.0000 0.0000 1713.4457 -7405.9904 293.7803 -9119.4361 -7377.8730 299.5664 -441.7954 -449.9777 29996.8424 -122.4984 -82.5850
ENERGY: 600000 3.9335 5.6549 7.8454 0.0000 -10639.6654 1433.8111 0.0000 0.0000 1726.3889 -7462.0316 295.9995 -9188.4205 -7397.1607 299.7500 -275.7492 -245.0915 30543.7139 -88.0031 -45.0520
ENERGY: 900000 5.2657 7.8058 8.4948 0.0000 -10691.8287 1490.2228 0.0000 0.0000 1784.1527 -7395.8870 305.9034 -9180.0397 -7407.9647 299.7588 222.5680 293.3984 30214.3932 26.4754 78.5960
ENERGY: 1200000 5.4362 4.2645 5.8800 0.0000 -10593.3889 1416.5506 0.0000 0.0000 1676.3627 -7484.8949 287.4222 -9161.2576 -7408.6723 299.1405 -87.8812 -25.9517 29849.9261 8.6401 59.5983
ENERGY: 1500000 6.6264 8.5004 6.3690 0.0000 -10601.3831 1366.7614 0.0000 0.0000 1791.0556 -7422.0704 307.0869 -9213.1260 -7417.6564 299.1029 -844.7448 -778.2689 30073.7124 -94.7930 -38.4856
TCL: Running FEP window  17: Lambda1 0.19999999999999968 Lambda2 0.1499999999999997 [dLambda -0.04999999999999999]
TCL: Setting parameter firsttimestep to 0
TCL: Setting parameter alchLambda to 0.19999999999999968
Info: NONBONDED TABLE R-SQUARED SPACING: 0.0625
Info: NONBONDED TABLE SIZE: 705 POINTS
TCL: Setting parameter alchLambda2 to 0.1499999999999997
Info: NONBONDED TABLE R-SQUARED SPACING: 0.0625
Info: NONBONDED TABLE SIZE: 705 POINTS
TCL: Running for 1500000 steps
ETITLE: TS BOND ANGLE DIHED IMPRP ELECT VDW BOUNDARY MISC KINETIC TOTAL TEMP POTENTIAL TOTALAVG TEMPAVG PRESSURE GPRESSURE VOLUME PRESSAVG GPRESSAVG
ENERGY: 0 6.6264 8.5004 6.3690 0.0000 -10601.3840 1367.1654 0.0000 0.0000 1790.1996 -7422.5232 306.9402 -9212.7228 -7422.5232 306.9402 -868.1483 -780.0525 30073.7124 -868.1483 -780.0525
ENERGY: 300000 5.2200 6.9631 4.5927 0.0000 -10582.9716 1413.4873 0.0000 0.0000 1729.9516 -7422.7569 296.6103 -9152.7085 -7424.7353 302.3770 124.9557 189.3617 29661.7183 -195.4383 -140.9929
ENERGY: 600000 3.6819 13.5721 5.8556 0.0000 -10506.2254 1315.7798 0.0000 0.0000 1707.8340 -7459.5020 292.8181 -9167.3360 -7444.7171 300.1344 -1199.6949 -1117.0016 30416.7103 -205.5786 -156.2725
ENERGY: 900000 5.1891 11.0965 6.0121 0.0000 -10568.3423 1413.5685 0.0000 0.0000 1739.1864 -7393.2897 298.1937 -9132.4761 -7436.7942 300.8016 -323.3234 -170.8228 30227.8091 -209.4226 -151.3982
ENERGY: 1200000 5.0078 7.1712 4.3013 0.0000 -10566.3179 1394.6502 0.0000 0.0000 1746.4663 -7408.7211 299.4419 -9155.1874 -7433.0468 299.7464 -172.7201 -153.1614 29868.9892 -185.5302 -129.1632
ENERGY: 1500000 4.9790 7.8979 6.1200 0.0000 -10566.3402 1385.0193 0.0000 0.0000 1805.6620 -7356.6620 309.5913 -9162.3240 -7420.5190 300.8003 -8.9933 48.9301 29648.8799 -212.0101 -155.6893
TCL: Running FEP window  18: Lambda1 0.1499999999999997 Lambda2 0.09999999999999969 [dLambda -0.05 ]
TCL: Setting parameter firsttimestep to 0
TCL: Setting parameter alchLambda to 0.1499999999999997
Info: NONBONDED TABLE R-SQUARED SPACING: 0.0625
Info: NONBONDED TABLE SIZE: 705 POINTS
TCL: Setting parameter alchLambda2 to 0.09999999999999969
Info: NONBONDED TABLE R-SQUARED SPACING: 0.0625
Info: NONBONDED TABLE SIZE: 705 POINTS
TCL: Running for 1500000 steps
ETITLE: TS BOND ANGLE DIHED IMPRP ELECT VDW BOUNDARY MISC KINETIC TOTAL TEMP POTENTIAL TOTALAVG TEMPAVG PRESSURE GPRESSURE VOLUME PRESSAVG GPRESSAVG
ENERGY: 0 4.9790 7.8979 6.1200 0.0000 -10566.3417 1385.0362 0.0000 0.0000 1804.8248 -7357.4839 309.4477 -9162.3086 -7357.4839 309.4477 -36.7167 45.2830 29648.8799 -36.7167 45.2830
ENERGY: 300000 3.8728 6.8044 7.5894 0.0000 -10515.7044 1334.5158 0.0000 0.0000 1734.3281 -7428.5939 297.3607 -9162.9221 -7427.8663 296.3627 -1016.1443 -927.7473 30234.6905 -372.5309 -270.2371
ENERGY: 600000 4.4087 9.3846 4.6849 0.0000 -10590.8340 1428.3191 0.0000 0.0000 1746.1800 -7397.8567 299.3928 -9144.0367 -7422.5326 297.5247 350.2508 378.6694 29762.0006 -52.5957 28.0221
ENERGY: 900000 5.5068 10.4937 10.4166 0.0000 -10731.1539 1490.6932 0.0000 0.0000 1767.2670 -7446.7765 303.0083 -9214.0436 -7423.8257 299.3176 390.4633 401.5061 29745.8297 43.3438 105.2771
ENERGY: 1200000 3.0831 11.4812 8.2848 0.0000 -10628.1655 1448.8674 0.0000 0.0000 1762.7568 -7393.6922 302.2350 -9156.4490 -7425.8912 298.9716 246.9771 229.5859 30043.1413 147.6028 205.6644
ENERGY: 1500000 4.5673 6.5381 6.8730 0.0000 -10646.5572 1417.5781 0.0000 0.0000 1794.0871 -7416.9136 307.6067 -9211.0007 -7428.9306 298.9695 -605.7123 -477.7346 30274.1018 92.2930 154.5964
TCL: Running FEP window  19: Lambda1 0.09999999999999969 Lambda2 0.049999999999999684 [dLambda -0.05 ]
TCL: Setting parameter firsttimestep to 0
TCL: Setting parameter alchLambda to 0.09999999999999969
Info: NONBONDED TABLE R-SQUARED SPACING: 0.0625
Info: NONBONDED TABLE SIZE: 705 POINTS
TCL: Setting parameter alchLambda2 to 0.049999999999999684
Info: NONBONDED TABLE R-SQUARED SPACING: 0.0625
Info: NONBONDED TABLE SIZE: 705 POINTS
TCL: Running for 1500000 steps
ETITLE: TS BOND ANGLE DIHED IMPRP ELECT VDW BOUNDARY MISC KINETIC TOTAL TEMP POTENTIAL TOTALAVG TEMPAVG PRESSURE GPRESSURE VOLUME PRESSAVG GPRESSAVG
ENERGY: 0 4.5673 6.5381 6.8730 0.0000 -10646.5565 1416.5905 0.0000 0.0000 1793.2449 -7418.7428 307.4623 -9211.9876 -7418.7428 307.4623 -573.1009 -487.4970 30274.1018 -573.1009 -487.4970
ENERGY: 300000 5.0548 3.9502 9.4941 0.0000 -10740.7158 1511.8374 0.0000 0.0000 1735.7889 -7474.5904 297.6111 -9210.3793 -7409.1152 301.8852 530.2244 596.2074 29752.2522 -51.0431 23.6184
ENERGY: 600000 4.4804 8.8136 5.1322 0.0000 -10696.7118 1486.4739 0.0000 0.0000 1727.6143 -7464.1973 296.2096 -9191.8116 -7418.6409 299.9709 417.5064 414.0920 29955.2374 89.8957 146.6286
ENERGY: 900000 4.1096 5.7111 7.3651 0.0000 -10496.9100 1355.8789 0.0000 0.0000 1819.5674 -7304.2779 311.9755 -9123.8453 -7408.0909 301.7488 -505.1126 -462.9030 30318.7925 27.5010 86.1353
ENERGY: 1200000 4.2475 7.0504 4.0642 0.0000 -10662.3283 1468.4266 0.0000 0.0000 1784.2886 -7394.2510 305.9267 -9178.5396 -7405.9359 301.4947 334.7906 301.7442 30289.9317 24.4504 68.3411
ENERGY: 1500000 5.2050 6.1910 5.3675 0.0000 -10624.4264 1423.3237 0.0000 0.0000 1751.2004 -7433.1387 300.2535 -9184.3391 -7406.8520 300.6434 94.5012 178.7996 29879.6110 20.4531 68.9336
TCL: Running FEP window  20: Lambda1 0.049999999999999684 Lambda2 0.0    [dLambda -0.049999999999999684]
TCL: Setting parameter firsttimestep to 0
TCL: Setting parameter alchLambda to 0.049999999999999684
Info: NONBONDED TABLE R-SQUARED SPACING: 0.0625
Info: NONBONDED TABLE SIZE: 705 POINTS
TCL: Setting parameter alchLambda2 to 0.0
Info: NONBONDED TABLE R-SQUARED SPACING: 0.0625
Info: NONBONDED TABLE SIZE: 705 POINTS
TCL: Running for 1500000 steps
ETITLE: TS BOND ANGLE DIHED IMPRP ELECT VDW BOUNDARY MISC KINETIC TOTAL TEMP POTENTIAL TOTALAVG TEMPAVG PRESSURE GPRESSURE VOLUME PRESSAVG GPRESSAVG
ENERGY: 0 5.2050 6.1910 5.3675 0.0000 -10624.4276 1423.2745 0.0000 0.0000 1750.3525 -7434.0371 300.1082 -9184.3896 -7434.0371 300.1082 71.7454 170.2170 29879.6110 71.7454 170.2170
ENERGY: 300000 3.6760 6.6181 6.4678 0.0000 -10521.1887 1364.6116 0.0000 0.0000 1761.0518 -7378.7633 301.9426 -9139.8151 -7400.8749 301.8148 -329.0743 -254.7670 29658.4976 -266.2010 -199.3416
ENERGY: 600000 5.0621 5.9797 7.7483 0.0000 -10739.0229 1544.9876 0.0000 0.0000 1737.1971 -7438.0481 297.8526 -9175.2452 -7417.6601 299.9368 831.5418 844.1633 29824.9619 -36.4229 12.7009
ENERGY: 900000 4.1781 10.7687 5.6787 0.0000 -10688.6177 1484.7725 0.0000 0.0000 1709.4517 -7473.7680 293.0955 -9183.2197 -7410.8165 298.4133 167.7861 319.5240 29803.1567 -34.8338 24.8361
ENERGY: 1200000 2.6350 5.2346 5.7887 0.0000 -10510.0032 1400.1442 0.0000 0.0000 1754.4530 -7341.7477 300.8112 -9096.2007 -7398.6978 299.3435 -186.1629 -162.0456 30117.8894 -128.5908 -72.5999
ENERGY: 1500000 10.2205 8.8140 8.0051 0.0000 -10591.2253 1407.0972 0.0000 0.0000 1779.3598 -7377.7287 305.0816 -9157.0885 -7404.7931 298.9525 -799.4348 -778.9258 30841.3610 -140.9708 -95.4430
TCL: Exiting due to exit command.
