Info: SIMULATION PARAMETERS:
Info: TIMESTEP               2
Info: NUMBER OF STEPS        0
Info: STEPS PER CYCLE        10
Info: PERIODIC CELL BASIS 1  31.0849 0 0
Info: PERIODIC CELL BASIS 2  0 30.419 0
Info: PERIODIC CELL BASIS 3  0 0 32.1406
Info: PERIODIC CELL CENTER   0 0 0
Info: WRAPPING WATERS AROUND PERIODIC BOUNDARIES ON OUTPUT.
Info: WRAPPING ALL CLUSTERS AROUND PERIODIC BOUNDARIES ON OUTPUT.
Info: FIRST LDB TIMESTEP     50
Info: LAST LDB TIMESTEP     -1
Info: HOM BACKGROUND SCALING 1
Info: PME BACKGROUND SCALING 1
Info: MIN ATOMS PER PATCH    40
Info: EMPTY PATCH LOAD       40 ATOMS
Info: VELOCITY FILE          mobley_2422586_equil.vel
Info: CENTER OF MASS MOVING INITIALLY? NO
Info: DIELECTRIC             1
Info: EXCLUDE                SCALED ONE-FOUR
Info: 1-4 ELECTROSTATICS SCALED BY 0.833333
Info: MODIFIED 1-4 VDW PARAMETERS WILL BE USED
Info: DCD FILENAME           mobley_2422586_prod.dcd
Info: DCD FREQUENCY          100000
Info: DCD FIRST STEP         100000
Info: DCD FILE WILL CONTAIN UNIT CELL DATA
Info: XST FILENAME           mobley_2422586_prod.xst
Info: XST FREQUENCY          100000
Info: NO VELOCITY DCD OUTPUT
Info: NO FORCE DCD OUTPUT
Info: OUTPUT FILENAME        mobley_2422586_prod
Info: BINARY OUTPUT FILES WILL BE USED
Info: RESTART FILENAME       mobley_2422586_prod.restart
Info: RESTART FREQUENCY      100000
Info: BINARY RESTART FILES WILL BE USED
Info: CUTOFF                 9
Info: PAIRLIST DISTANCE      11
Info: PAIRLIST SHRINK RATE   0.01
Info: PAIRLIST GROW RATE     0.01
Info: PAIRLIST TRIGGER       0.3
Info: PAIRLISTS PER CYCLE    2
Info: PAIRLISTS ENABLED
Info: MARGIN                 2
Info: HYDROGEN GROUP CUTOFF  2.5
Info: PATCH DIMENSION        15.5
Info: ENERGY OUTPUT STEPS    100000
Info: ENERGY EVALUATION STEPS    100000
Info: OUTPUT ENERGY PRECISION 4
Info: CROSSTERM ENERGY INCLUDED IN DIHEDRAL
Info: TIMING OUTPUT STEPS    1000000
Info: PRESSURE OUTPUT STEPS  100000
Info: ALCHEMICAL FEP ON
Info: FEP CURRENT LAMBDA VALUE     1
Info: FEP COMPARISON LAMBDA VALUE  0.95
Info: FEP INTRA-ALCHEMICAL NON-BONDED INTERACTIONS WILL BE RETAINED
Info: FEP INTRA-ALCHEMICAL BONDED INTERACTIONS WILL BE RETAINED
Info: FEP VDW SHIFTING COEFFICIENT 5
Info: FEP ELEC. ACTIVE FOR ANNIHILATED PARTICLES BETWEEN LAMBDA = 0 AND LAMBDA = 0.5
Info: FEP ELEC. ACTIVE FOR EXNIHILATED PARTICLES BETWEEN LAMBDA = 0.5 AND LAMBDA = 1
Info: FEP VDW ACTIVE FOR ANNIHILATED PARTICLES BETWEEN LAMBDA = 0 AND LAMBDA = 1
Info: FEP VDW ACTIVE FOR EXNIHILATED PARTICLES BETWEEN LAMBDA = 0 AND LAMBDA = 1
Info: FEP BOND ACTIVE FOR ANNIHILATED PARTICLES BETWEEN LAMBDA = 1 AND LAMBDA = 1
Info: FEP BOND ACTIVE FOR EXNIHILATED PARTICLES BETWEEN LAMBDA = 0 AND LAMBDA = 0
Info: LANGEVIN DYNAMICS ACTIVE
Info: LANGEVIN TEMPERATURE   300
Info: LANGEVIN USING BBK INTEGRATOR
Info: LANGEVIN DAMPING COEFFICIENT IS 1 INVERSE PS
Info: LANGEVIN DYNAMICS APPLIED TO HYDROGENS
Info: LANGEVIN PISTON PRESSURE CONTROL ACTIVE
Info:        TARGET PRESSURE IS 1.01325 BAR
Info:     OSCILLATION PERIOD IS 50 FS
Info:             DECAY TIME IS 25 FS
Info:     PISTON TEMPERATURE IS 300 K
Info:       PRESSURE CONTROL IS GROUP-BASED
Info:    INITIAL STRAIN RATE IS -0.00041515 -0.00041515 -0.00041515
Info:       CELL FLUCTUATION IS ISOTROPIC
Info: PARTICLE MESH EWALD (PME) ACTIVE
Info: PME TOLERANCE               1e-06
Info: PME EWALD COEFFICIENT       0.348832
Info: PME INTERPOLATION ORDER     4
Info: PME GRID DIMENSIONS         32 32 36
Info: PME MAXIMUM GRID SPACING    1
Info: PME CALCULATION WILL BE PERFORMED ON GPU
Info: FULL ELECTROSTATIC EVALUATION FREQUENCY      2
Info: USING VERLET I (r-RESPA) MTS SCHEME.
Info: C1 SPLITTING OF LONG RANGE ELECTROSTATICS
Info: PLACING ATOMS IN PATCHES BY HYDROGEN GROUPS
Info: RIGID BONDS TO HYDROGEN : ALL
Info:         ERROR TOLERANCE : 1e-08
Info:          MAX ITERATIONS : 100
Info: RIGID WATER USING SETTLE ALGORITHM
Info: RANDOM NUMBER SEED     1743839837
Info: USE HYDROGEN BONDS?    NO
Info: Using AMBER format force field!
Info: AMBER PARM FILE        mobley_2422586.prmtop
Info: COORDINATE PDB         mobley_2422586.pdb
Info: Exclusions will be read from PARM file!
Info: SCNB (VDW SCALING)     2
Info: USING ARITHMETIC MEAN TO COMBINE L-J SIGMA PARAMETERS
Info: BINARY COORDINATES     mobley_2422586_equil.coor
Info: SUMMARY OF PARAMETERS:
Info: 6 BONDS
Info: 8 ANGLES
Info:   8 HARMONIC
Info:   0 COSINE-BASED
Info: 8 DIHEDRAL
Info: 0 IMPROPER
Info: 0 CROSSTERM
Info: 0 VDW
Info: 21 VDW_PAIRS
Info: 0 NBTHOLE_PAIRS
Info: To read alchdata from file: mobley_2422586.pdb
Info: To read alchflag data from column: 5
Info: STRUCTURE SUMMARY:
Info: 2973 ATOMS
Info: 2972 BONDS
Info: 25 ANGLES
Info: 27 DIHEDRALS
Info: 0 IMPROPERS
Info: 0 CROSSTERMS
Info: 3021 EXCLUSIONS
Info: 2968 RIGID BONDS
Info: ALCH: 0 ATOMS TO DISAPPEAR IN FINAL STATE
Info: ALCH: 15 ATOMS TO APPEAR IN FINAL STATE
Info: 5951 DEGREES OF FREEDOM
Info: 991 HYDROGEN GROUPS
Info: 4 ATOMS IN LARGEST HYDROGEN GROUP
Info: 991 MIGRATION GROUPS
Info: 4 ATOMS IN LARGEST MIGRATION GROUP
Info: TOTAL MASS = 17837.9 amu
Info: TOTAL CHARGE = 7.45058e-09 e
Info: MASS DENSITY = 0.974663 g/cm^3
Info: ATOM DENSITY = 0.0978242 atoms/A^3
Info: ADDED 0 IMPLICIT EXCLUSIONS
Info: NONBONDED TABLE R-SQUARED SPACING: 0.0625
Info: NONBONDED TABLE SIZE: 705 POINTS
Info: REMOVING COM VELOCITY 0.0246648 0.0746558 0.00451518
Info: Use 3D box decompostion in PME FFT.
Info: Updated CUDA force table with 4096 elements.
Info: Updated CUDA LJ table with 6 x 6 elements.
Info: Found 18 unique exclusion lists needing 40 bytes
TCL: Running for 1500000 steps
ETITLE: TS BOND ANGLE DIHED IMPRP ELECT VDW BOUNDARY MISC KINETIC TOTAL TEMP POTENTIAL TOTALAVG TEMPAVG PRESSURE GPRESSURE VOLUME PRESSAVG GPRESSAVG
ENERGY: 0 1.5468 6.0851 1.5458 0.0000 -10823.7880 1482.0413 0.0000 0.0000 1804.6108 -7527.9583 305.1996 -9332.5691 -7527.9583 305.1996 257.3162 333.0591 30391.2431 257.3162 333.0591
ENERGY: 300000 0.2845 6.3100 1.6667 0.0000 -10694.9336 1413.6380 0.0000 0.0000 1777.7584 -7495.2760 300.6583 -9273.0343 -7505.6705 302.8394 -213.1862 -86.1820 31130.2284 124.3086 199.9035
ENERGY: 600000 0.7232 6.4408 4.6197 0.0000 -10597.5211 1397.0858 0.0000 0.0000 1762.4336 -7426.2180 298.0665 -9188.6516 -7506.1264 301.3365 -187.6035 -164.1012 31403.6069 0.7290 62.4836
ENERGY: 900000 0.0954 7.6727 1.3924 0.0000 -10773.7289 1431.7361 0.0000 0.0000 1765.3635 -7567.4686 298.5620 -9332.8322 -7522.8140 301.3950 96.3034 163.4175 30438.6713 51.4974 113.8137
ENERGY: 1200000 2.4993 5.7383 0.6239 0.0000 -10875.7693 1456.3508 0.0000 0.0000 1778.2262 -7632.3309 300.7374 -9410.5571 -7525.1363 301.8669 -229.1432 -173.5390 30328.0248 -36.3994 33.9271
ENERGY: 1500000 0.0622 5.7750 0.7478 0.0000 -10824.9212 1442.8484 0.0000 0.0000 1771.4074 -7604.0805 299.5842 -9375.4879 -7537.7642 301.7378 -118.8900 -64.9646 30472.2763 -126.7754 -59.7550
TCL: Running FEP window   2: Lambda1 0.95   Lambda2 0.8999999999999999 [dLambda -0.050000000000000044]
TCL: Setting parameter firsttimestep to 0
TCL: Setting parameter alchLambda to 0.95
Info: NONBONDED TABLE R-SQUARED SPACING: 0.0625
Info: NONBONDED TABLE SIZE: 705 POINTS
TCL: Setting parameter alchLambda2 to 0.8999999999999999
Info: NONBONDED TABLE R-SQUARED SPACING: 0.0625
Info: NONBONDED TABLE SIZE: 705 POINTS
TCL: Running for 1500000 steps
ETITLE: TS BOND ANGLE DIHED IMPRP ELECT VDW BOUNDARY MISC KINETIC TOTAL TEMP POTENTIAL TOTALAVG TEMPAVG PRESSURE GPRESSURE VOLUME PRESSAVG GPRESSAVG
ENERGY: 0 0.0622 5.7750 0.7478 0.0000 -10824.0311 1442.5351 0.0000 0.0000 1770.5049 -7604.4061 299.4316 -9374.9111 -7604.4061 299.4316 -167.5275 -76.1052 30472.2763 -167.5275 -76.1052
ENERGY: 300000 2.6944 5.3688 1.7698 0.0000 -10931.6493 1554.2645 0.0000 0.0000 1769.8258 -7597.7260 299.3167 -9367.5518 -7549.4049 300.2481 823.9668 851.6873 30314.8096 229.6721 285.0508
ENERGY: 600000 1.6374 4.2723 1.2478 0.0000 -10731.4722 1399.6859 0.0000 0.0000 1807.1873 -7517.4416 305.6354 -9324.6288 -7538.3811 301.3443 -346.3998 -352.4919 30544.0497 85.4316 141.5345
ENERGY: 900000 2.5220 5.2160 2.0114 0.0000 -10665.2422 1349.0660 0.0000 0.0000 1836.9688 -7469.4580 310.6721 -9306.4268 -7537.0868 301.3217 -856.0697 -748.2374 30812.1395 -66.4772 0.7286
ENERGY: 1200000 0.3769 5.9419 1.3400 0.0000 -10687.9242 1429.2353 0.0000 0.0000 1753.7574 -7497.2727 296.5992 -9251.0301 -7539.4250 300.5389 44.0125 83.0588 30765.4966 -130.6153 -69.6314
ENERGY: 1500000 0.9448 7.1692 1.8023 0.0000 -10973.1528 1624.1834 0.0000 0.0000 1713.6974 -7625.3556 289.8242 -9339.0531 -7545.0369 300.0304 1366.1523 1390.3158 30238.4348 -26.0165 36.4411
TCL: Running FEP window   3: Lambda1 0.8999999999999999 Lambda2 0.8499999999999999 [dLambda -0.050000000000000044]
TCL: Setting parameter firsttimestep to 0
TCL: Setting parameter alchLambda to 0.8999999999999999
Info: NONBONDED TABLE R-SQUARED SPACING: 0.0625
Info: NONBONDED TABLE SIZE: 705 POINTS
TCL: Setting parameter alchLambda2 to 0.8499999999999999
Info: NONBONDED TABLE R-SQUARED SPACING: 0.0625
Info: NONBONDED TABLE SIZE: 705 POINTS
TCL: Running for 1500000 steps
ETITLE: TS BOND ANGLE DIHED IMPRP ELECT VDW BOUNDARY MISC KINETIC TOTAL TEMP POTENTIAL TOTALAVG TEMPAVG PRESSURE GPRESSURE VOLUME PRESSAVG GPRESSAVG
ENERGY: 0 0.9448 7.1692 1.8023 0.0000 -10972.0473 1624.2452 0.0000 0.0000 1712.8285 -7625.0572 289.6772 -9337.8857 -7625.0572 289.6772 1288.0781 1381.3124 30238.4348 1288.0781 1381.3124
ENERGY: 300000 3.5348 5.7497 1.3936 0.0000 -10757.8738 1462.2341 0.0000 0.0000 1780.2930 -7504.6686 301.0869 -9284.9617 -7565.2883 295.8380 222.7698 214.8552 30505.8125 300.3779 354.5286
ENERGY: 600000 0.9212 11.6354 4.6221 0.0000 -10591.9446 1363.3024 0.0000 0.0000 1785.8302 -7425.6333 302.0234 -9211.4635 -7519.6532 300.1443 -384.8696 -332.2992 30632.1580 14.4245 84.2896
ENERGY: 900000 2.7584 6.5608 2.6006 0.0000 -10910.8388 1581.0864 0.0000 0.0000 1783.6997 -7534.1329 301.6631 -9317.8326 -7522.8048 299.2101 1092.4781 1156.9983 30304.6566 26.1226 102.8219
ENERGY: 1200000 0.2437 10.5307 1.5789 0.0000 -10883.1714 1500.1357 0.0000 0.0000 1758.6892 -7611.9931 297.4333 -9370.6823 -7538.7011 298.8160 17.1633 153.7163 30779.5074 5.4771 83.6229
ENERGY: 1500000 1.7069 6.3836 0.5405 0.0000 -10806.9193 1435.7438 0.0000 0.0000 1783.2039 -7579.3405 301.5792 -9362.5444 -7541.0719 299.1225 -208.4271 -169.6927 30662.0074 -8.2060 64.6891
TCL: Running FEP window   4: Lambda1 0.8499999999999999 Lambda2 0.7999999999999998 [dLambda -0.050000000000000044]
TCL: Setting parameter firsttimestep to 0
TCL: Setting parameter alchLambda to 0.8499999999999999
Info: NONBONDED TABLE R-SQUARED SPACING: 0.0625
Info: NONBONDED TABLE SIZE: 705 POINTS
TCL: Setting parameter alchLambda2 to 0.7999999999999998
Info: NONBONDED TABLE R-SQUARED SPACING: 0.0625
Info: NONBONDED TABLE SIZE: 705 POINTS
TCL: Running for 1500000 steps
ETITLE: TS BOND ANGLE DIHED IMPRP ELECT VDW BOUNDARY MISC KINETIC TOTAL TEMP POTENTIAL TOTALAVG TEMPAVG PRESSURE GPRESSURE VOLUME PRESSAVG GPRESSAVG
ENERGY: 0 1.7069 6.3836 0.5405 0.0000 -10806.2774 1436.0217 0.0000 0.0000 1782.3100 -7579.3146 301.4281 -9361.6246 -7579.3146 301.4281 -257.2978 -173.4521 30662.0074 -257.2978 -173.4521
ENERGY: 300000 1.7511 10.5283 2.3032 0.0000 -10752.1602 1427.9358 0.0000 0.0000 1713.7399 -7595.9018 289.8313 -9309.6418 -7582.4142 297.0781 -170.1558 -122.1400 30684.0060 -135.4726 -87.1541
ENERGY: 600000 2.9050 8.3799 1.2350 0.0000 -10726.0350 1432.6479 0.0000 0.0000 1800.3284 -7480.5389 304.4754 -9280.8673 -7540.5715 301.9029 211.9275 230.9739 30466.4978 -147.6312 -97.9044
ENERGY: 900000 3.0296 5.4626 1.7140 0.0000 -10877.0776 1500.2349 0.0000 0.0000 1785.7872 -7580.8492 302.0161 -9366.6365 -7548.0644 300.2810 185.9790 163.7101 30758.6666 -49.6976 -14.1692
ENERGY: 1200000 0.7310 3.6859 1.3617 0.0000 -10813.0822 1452.4319 0.0000 0.0000 1796.5755 -7558.2963 303.8407 -9354.8718 -7545.2950 301.3351 3.4266 51.9065 30363.6918 -99.8455 -57.7982
ENERGY: 1500000 2.1031 2.8467 1.7430 0.0000 -10773.6263 1390.8542 0.0000 0.0000 1693.0903 -7682.9889 286.3390 -9376.0793 -7556.3813 300.3208 -580.4399 -469.3491 30345.8745 -154.5573 -101.7621
TCL: Running FEP window   5: Lambda1 0.7999999999999998 Lambda2 0.7499999999999998 [dLambda -0.050000000000000044]
TCL: Setting parameter firsttimestep to 0
TCL: Setting parameter alchLambda to 0.7999999999999998
Info: NONBONDED TABLE R-SQUARED SPACING: 0.0625
Info: NONBONDED TABLE SIZE: 705 POINTS
TCL: Setting parameter alchLambda2 to 0.7499999999999998
Info: NONBONDED TABLE R-SQUARED SPACING: 0.0625
Info: NONBONDED TABLE SIZE: 705 POINTS
TCL: Running for 1500000 steps
ETITLE: TS BOND ANGLE DIHED IMPRP ELECT VDW BOUNDARY MISC KINETIC TOTAL TEMP POTENTIAL TOTALAVG TEMPAVG PRESSURE GPRESSURE VOLUME PRESSAVG GPRESSAVG
ENERGY: 0 2.1031 2.8467 1.7430 0.0000 -10772.7616 1390.5601 0.0000 0.0000 1692.1985 -7683.3102 286.1882 -9375.5087 -7683.3102 286.1882 -560.7594 -481.0216 30345.8745 -560.7594 -481.0216
ENERGY: 300000 1.3550 6.6721 3.6803 0.0000 -10806.9132 1451.8986 0.0000 0.0000 1759.9013 -7583.4060 297.6383 -9343.3073 -7591.0240 296.0735 -88.9077 34.4561 30361.2855 -146.5194 -55.6973
ENERGY: 600000 0.5728 3.6877 1.1311 0.0000 -10766.9114 1431.3852 0.0000 0.0000 1749.6931 -7580.4415 295.9118 -9330.1346 -7606.8678 298.2146 -232.7196 -125.8432 30442.4258 128.1834 200.8311
ENERGY: 900000 0.1437 4.1621 2.2919 0.0000 -10683.9949 1380.5796 0.0000 0.0000 1739.6586 -7557.1591 294.2148 -9296.8177 -7597.9704 296.7051 -704.6135 -629.2868 31045.2076 -101.4617 -30.3237
ENERGY: 1200000 0.8712 3.2638 1.1962 0.0000 -10699.2857 1411.5960 0.0000 0.0000 1754.0582 -7528.3003 296.6501 -9282.3585 -7578.9360 298.1386 -318.7123 -230.2731 30755.4842 -132.3940 -59.4786
ENERGY: 1500000 1.2977 7.5608 3.3664 0.0000 -10710.2521 1468.3574 0.0000 0.0000 1751.8142 -7477.8556 296.2705 -9229.6697 -7564.5875 299.3806 111.9043 210.1163 31222.5815 -98.1821 -22.6960
TCL: Running FEP window   6: Lambda1 0.7499999999999998 Lambda2 0.6999999999999997 [dLambda -0.050000000000000044]
TCL: Setting parameter firsttimestep to 0
TCL: Setting parameter alchLambda to 0.7499999999999998
Info: NONBONDED TABLE R-SQUARED SPACING: 0.0625
Info: NONBONDED TABLE SIZE: 705 POINTS
TCL: Setting parameter alchLambda2 to 0.6999999999999997
Info: NONBONDED TABLE R-SQUARED SPACING: 0.0625
Info: NONBONDED TABLE SIZE: 705 POINTS
TCL: Running for 1500000 steps
ETITLE: TS BOND ANGLE DIHED IMPRP ELECT VDW BOUNDARY MISC KINETIC TOTAL TEMP POTENTIAL TOTALAVG TEMPAVG PRESSURE GPRESSURE VOLUME PRESSAVG GPRESSAVG
ENERGY: 0 1.2977 7.5608 3.3664 0.0000 -10710.0463 1468.5937 0.0000 0.0000 1750.9333 -7478.2945 296.1216 -9229.2278 -7478.2945 296.1216 126.6655 204.1071 31222.5815 126.6655 204.1071
ENERGY: 300000 2.0420 4.9944 2.1653 0.0000 -10696.5931 1424.6758 0.0000 0.0000 1765.7628 -7496.9527 298.6296 -9262.7155 -7510.7751 299.0468 -47.4853 40.2099 30729.7442 -221.2196 -116.9926
ENERGY: 600000 0.9521 7.8160 1.6535 0.0000 -10825.7687 1494.9545 0.0000 0.0000 1762.8568 -7557.5359 298.1381 -9320.3927 -7532.5808 298.0344 396.6470 462.4950 30381.9038 -75.9872 12.4190
ENERGY: 900000 0.6761 5.0797 1.1049 0.0000 -10768.4279 1419.5989 0.0000 0.0000 1778.0711 -7563.8973 300.7112 -9341.9683 -7537.8593 298.0783 -410.5645 -281.7623 30505.5775 -126.8854 -34.2866
ENERGY: 1200000 1.9189 3.9018 0.8997 0.0000 -10830.4134 1504.4711 0.0000 0.0000 1738.5370 -7580.6849 294.0251 -9319.2219 -7547.1507 298.4410 587.6624 680.2689 30530.4956 -121.7564 -38.4777
ENERGY: 1500000 4.2578 5.1626 1.1807 0.0000 -10893.7189 1536.4477 0.0000 0.0000 1759.8137 -7586.8563 297.6234 -9346.6701 -7544.7596 298.4729 479.8127 590.1215 30604.6874 -56.1783 30.7839
TCL: Running FEP window   7: Lambda1 0.6999999999999997 Lambda2 0.6499999999999997 [dLambda -0.050000000000000044]
TCL: Setting parameter firsttimestep to 0
TCL: Setting parameter alchLambda to 0.6999999999999997
Info: NONBONDED TABLE R-SQUARED SPACING: 0.0625
Info: NONBONDED TABLE SIZE: 705 POINTS
TCL: Setting parameter alchLambda2 to 0.6499999999999997
Info: NONBONDED TABLE R-SQUARED SPACING: 0.0625
Info: NONBONDED TABLE SIZE: 705 POINTS
TCL: Running for 1500000 steps
ETITLE: TS BOND ANGLE DIHED IMPRP ELECT VDW BOUNDARY MISC KINETIC TOTAL TEMP POTENTIAL TOTALAVG TEMPAVG PRESSURE GPRESSURE VOLUME PRESSAVG GPRESSAVG
ENERGY: 0 4.2578 5.1626 1.1807 0.0000 -10892.8282 1536.0637 0.0000 0.0000 1758.8968 -7587.2667 297.4684 -9346.1634 -7587.2667 297.4684 495.1545 582.4510 30604.6874 495.1545 582.4510
ENERGY: 300000 0.1717 8.5302 1.0655 0.0000 -10793.1132 1441.7411 0.0000 0.0000 1722.9295 -7618.6752 291.3855 -9341.6047 -7569.5326 296.9554 -268.1407 -202.9615 30715.8340 229.7868 309.1868
ENERGY: 600000 2.5849 11.6394 1.1149 0.0000 -10855.4169 1466.6656 0.0000 0.0000 1819.0539 -7554.3584 307.6423 -9373.4122 -7572.8070 298.9598 87.0022 178.4749 30434.5523 79.1511 153.9961
ENERGY: 900000 1.1453 6.0385 1.4248 0.0000 -10861.7638 1471.5919 0.0000 0.0000 1732.0670 -7649.4963 292.9309 -9381.5633 -7562.0671 298.0155 11.7240 106.9067 30146.7889 173.7276 246.1337
ENERGY: 1200000 1.3976 5.4216 3.3627 0.0000 -10720.7560 1489.9442 0.0000 0.0000 1821.7728 -7398.8572 308.1021 -9220.6300 -7545.5208 300.1054 531.0597 515.2482 31021.0784 259.0913 317.5233
ENERGY: 1500000 0.4153 4.6131 1.5034 0.0000 -10831.9369 1513.1830 0.0000 0.0000 1749.7789 -7562.4432 295.9263 -9312.2221 -7548.6009 300.0269 227.1117 316.1327 30921.1515 175.0794 235.0532
TCL: Running FEP window   8: Lambda1 0.6499999999999997 Lambda2 0.5999999999999996 [dLambda -0.050000000000000044]
TCL: Setting parameter firsttimestep to 0
TCL: Setting parameter alchLambda to 0.6499999999999997
Info: NONBONDED TABLE R-SQUARED SPACING: 0.0625
Info: NONBONDED TABLE SIZE: 705 POINTS
TCL: Setting parameter alchLambda2 to 0.5999999999999996
Info: NONBONDED TABLE R-SQUARED SPACING: 0.0625
Info: NONBONDED TABLE SIZE: 705 POINTS
TCL: Running for 1500000 steps
ETITLE: TS BOND ANGLE DIHED IMPRP ELECT VDW BOUNDARY MISC KINETIC TOTAL TEMP POTENTIAL TOTALAVG TEMPAVG PRESSURE GPRESSURE VOLUME PRESSAVG GPRESSAVG
ENERGY: 0 0.4153 4.6131 1.5034 0.0000 -10831.8829 1512.3804 0.0000 0.0000 1748.9030 -7564.0677 295.7782 -9312.9706 -7564.0677 295.7782 209.4119 301.7464 30921.1515 209.4119 301.7464
ENERGY: 300000 1.7930 5.8634 1.8572 0.0000 -10670.3319 1414.6878 0.0000 0.0000 1818.2884 -7427.8420 307.5128 -9246.1304 -7516.3327 301.7823 -57.0627 14.4113 30406.8281 -34.5585 36.0583
ENERGY: 600000 2.2673 9.5366 1.6875 0.0000 -10758.1803 1432.8645 0.0000 0.0000 1694.3938 -7617.4306 286.5595 -9311.8244 -7562.0843 300.1789 -289.6312 -226.6665 30782.3811 -91.6811 -29.1933
ENERGY: 900000 2.8663 8.4338 2.5101 0.0000 -10747.5223 1416.5251 0.0000 0.0000 1775.7217 -7541.4653 300.3138 -9317.1870 -7552.6087 300.6278 -96.9075 -85.2616 30526.7361 125.1876 172.9670
ENERGY: 1200000 2.7062 4.9777 0.9458 0.0000 -10802.4814 1525.4965 0.0000 0.0000 1826.7115 -7441.6437 308.9373 -9268.3552 -7532.2161 301.5121 576.9387 623.5452 30753.2145 82.0822 131.2822
ENERGY: 1500000 0.9966 6.0323 0.9779 0.0000 -10720.7123 1344.3633 0.0000 0.0000 1730.9703 -7637.3719 292.7454 -9368.3422 -7543.3811 301.0124 -926.0029 -857.0580 30522.7900 81.0614 132.5622
TCL: Running FEP window   9: Lambda1 0.5999999999999996 Lambda2 0.5499999999999996 [dLambda -0.050000000000000044]
TCL: Setting parameter firsttimestep to 0
TCL: Setting parameter alchLambda to 0.5999999999999996
Info: NONBONDED TABLE R-SQUARED SPACING: 0.0625
Info: NONBONDED TABLE SIZE: 705 POINTS
TCL: Setting parameter alchLambda2 to 0.5499999999999996
Info: NONBONDED TABLE R-SQUARED SPACING: 0.0625
Info: NONBONDED TABLE SIZE: 705 POINTS
TCL: Running for 1500000 steps
ETITLE: TS BOND ANGLE DIHED IMPRP ELECT VDW BOUNDARY MISC KINETIC TOTAL TEMP POTENTIAL TOTALAVG TEMPAVG PRESSURE GPRESSURE VOLUME PRESSAVG GPRESSAVG
ENERGY: 0 0.9966 6.0323 0.9779 0.0000 -10720.7650 1344.5936 0.0000 0.0000 1730.0800 -7638.0846 292.5948 -9368.1645 -7638.0846 292.5948 -945.2157 -864.1617 30522.7900 -945.2157 -864.1617
ENERGY: 300000 0.4011 6.4155 0.7654 0.0000 -10781.9457 1468.9314 0.0000 0.0000 1814.6604 -7490.7720 306.8992 -9305.4324 -7540.9252 301.9244 -225.4044 -124.0029 31345.1204 -358.8888 -286.8427
ENERGY: 600000 0.0987 6.2542 0.7467 0.0000 -10737.0843 1435.8793 0.0000 0.0000 1823.6765 -7470.4289 308.4241 -9294.1054 -7514.2471 303.5577 -73.6278 -65.1635 30692.7717 -302.7442 -230.4000
ENERGY: 900000 4.3512 5.3442 1.5332 0.0000 -10776.1484 1469.5015 0.0000 0.0000 1787.1604 -7508.2579 302.2484 -9295.4183 -7510.8937 302.3384 -21.9426 -8.2454 30687.6756 -240.1470 -177.8465
ENERGY: 1200000 1.9285 5.3399 3.2752 0.0000 -10639.8389 1419.4505 0.0000 0.0000 1796.3153 -7413.5295 303.7967 -9209.8448 -7508.2032 301.3658 38.5918 96.5191 30775.7266 -222.7838 -158.3011
ENERGY: 1500000 0.8019 5.2746 1.3357 0.0000 -10843.7126 1558.7175 0.0000 0.0000 1759.0076 -7518.5752 297.4871 -9277.5829 -7511.3517 301.0801 904.9674 954.3672 30395.8503 -119.2730 -53.3676
TCL: Running FEP window  10: Lambda1 0.5499999999999996 Lambda2 0.4999999999999996 [dLambda -0.04999999999999999]
TCL: Setting parameter firsttimestep to 0
TCL: Setting parameter alchLambda to 0.5499999999999996
Info: NONBONDED TABLE R-SQUARED SPACING: 0.0625
Info: NONBONDED TABLE SIZE: 705 POINTS
TCL: Setting parameter alchLambda2 to 0.4999999999999996
Info: NONBONDED TABLE R-SQUARED SPACING: 0.0625
Info: NONBONDED TABLE SIZE: 705 POINTS
TCL: Running for 1500000 steps
ETITLE: TS BOND ANGLE DIHED IMPRP ELECT VDW BOUNDARY MISC KINETIC TOTAL TEMP POTENTIAL TOTALAVG TEMPAVG PRESSURE GPRESSURE VOLUME PRESSAVG GPRESSAVG
ENERGY: 0 0.8019 5.2745 1.3357 0.0000 -10843.6513 1557.9786 0.0000 0.0000 1758.1168 -7520.1437 297.3365 -9278.2605 -7520.1437 297.3365 854.5446 943.9711 30395.8503 854.5446 943.9711
ENERGY: 300000 1.5855 5.7522 3.4256 0.0000 -10763.8612 1434.6676 0.0000 0.0000 1819.9175 -7498.5127 307.7883 -9318.4303 -7501.4333 300.8394 -26.0473 56.7846 30226.8358 -4.6036 52.6210
ENERGY: 600000 0.5699 7.6352 2.6246 0.0000 -10723.0210 1449.4450 0.0000 0.0000 1798.1225 -7464.6237 304.1023 -9262.7462 -7501.0554 300.0380 280.5034 320.2624 30286.0718 -62.4621 -1.8895
ENERGY: 900000 1.4159 8.2198 2.4841 0.0000 -10731.0587 1402.5697 0.0000 0.0000 1737.3333 -7579.0359 293.8215 -9316.3693 -7518.6546 298.6921 -444.1295 -330.1019 30487.2821 -83.7270 -12.8202
ENERGY: 1200000 2.6883 5.5147 2.6004 0.0000 -10809.6786 1455.5704 0.0000 0.0000 1805.1008 -7538.2040 305.2825 -9343.3048 -7517.2470 300.5734 27.8908 20.1572 30726.2155 0.9611 58.5546
ENERGY: 1500000 2.0307 6.3385 1.8984 0.0000 -10854.2915 1489.8071 0.0000 0.0000 1812.5138 -7541.7029 306.5362 -9354.2167 -7522.2686 300.5805 72.0502 119.5885 30924.0639 19.9128 76.9092
TCL: Running FEP window  11: Lambda1 0.4999999999999996 Lambda2 0.4499999999999996 [dLambda -0.04999999999999999]
TCL: Setting parameter firsttimestep to 0
TCL: Setting parameter alchLambda to 0.4999999999999996
Info: NONBONDED TABLE R-SQUARED SPACING: 0.0625
Info: NONBONDED TABLE SIZE: 705 POINTS
TCL: Setting parameter alchLambda2 to 0.4499999999999996
Info: NONBONDED TABLE R-SQUARED SPACING: 0.0625
Info: NONBONDED TABLE SIZE: 705 POINTS
TCL: Running for 1500000 steps
ETITLE: TS BOND ANGLE DIHED IMPRP ELECT VDW BOUNDARY MISC KINETIC TOTAL TEMP POTENTIAL TOTALAVG TEMPAVG PRESSURE GPRESSURE VOLUME PRESSAVG GPRESSAVG
ENERGY: 0 2.0307 6.3385 1.8984 0.0000 -10854.1683 1490.0458 0.0000 0.0000 1811.6315 -7542.2234 306.3870 -9353.8549 -7542.2234 306.3870 31.1511 115.1788 30924.0639 31.1511 115.1788
ENERGY: 300000 1.2145 4.6620 5.1139 0.0000 -10827.2131 1503.1699 0.0000 0.0000 1806.6841 -7506.3687 305.5503 -9313.0528 -7503.4479 305.9567 336.1557 386.7320 30710.9538 148.4227 220.0684
ENERGY: 600000 0.3829 5.6422 3.2671 0.0000 -10835.0207 1501.7006 0.0000 0.0000 1829.1417 -7494.8863 309.3483 -9324.0280 -7521.9036 303.9475 359.4558 456.4869 30573.8299 147.5114 215.8528
ENERGY: 900000 0.4238 5.4937 1.3540 0.0000 -10864.7737 1498.4686 0.0000 0.0000 1781.7681 -7577.2655 301.3364 -9359.0336 -7542.1608 303.5233 204.0687 264.0126 30561.6244 -2.1266 62.2653
ENERGY: 1200000 1.0613 7.8144 3.1217 0.0000 -10722.4299 1396.7826 0.0000 0.0000 1838.8425 -7474.8074 310.9890 -9313.6499 -7536.5396 303.4370 -532.7365 -430.3972 30650.2442 -54.7388 6.7486
ENERGY: 1500000 0.8345 8.5047 1.7827 0.0000 -10867.4574 1503.6052 0.0000 0.0000 1749.5192 -7603.2112 295.8824 -9352.7304 -7538.8109 302.7024 398.2299 452.4200 30292.7615 -40.3190 23.9063
TCL: Running FEP window  12: Lambda1 0.4499999999999996 Lambda2 0.39999999999999963 [dLambda -0.04999999999999999]
TCL: Setting parameter firsttimestep to 0
TCL: Setting parameter alchLambda to 0.4499999999999996
Info: NONBONDED TABLE R-SQUARED SPACING: 0.0625
Info: NONBONDED TABLE SIZE: 705 POINTS
TCL: Setting parameter alchLambda2 to 0.39999999999999963
Info: NONBONDED TABLE R-SQUARED SPACING: 0.0625
Info: NONBONDED TABLE SIZE: 705 POINTS
TCL: Running for 1500000 steps
ETITLE: TS BOND ANGLE DIHED IMPRP ELECT VDW BOUNDARY MISC KINETIC TOTAL TEMP POTENTIAL TOTALAVG TEMPAVG PRESSURE GPRESSURE VOLUME PRESSAVG GPRESSAVG
ENERGY: 0 0.8345 8.5047 1.7827 0.0000 -10867.4576 1504.0060 0.0000 0.0000 1748.6038 -7603.7259 295.7276 -9352.3297 -7603.7259 295.7276 358.6636 449.9425 30292.7615 358.6636 449.9425
ENERGY: 300000 1.4410 6.9953 1.0805 0.0000 -10762.3158 1461.5307 0.0000 0.0000 1766.6728 -7524.5955 298.7835 -9291.2683 -7536.8863 299.0214 194.0258 205.0735 30592.5164 -234.2746 -189.0371
ENERGY: 600000 0.4302 7.8044 0.8784 0.0000 -10699.4288 1351.1891 0.0000 0.0000 1843.4499 -7495.6769 311.7682 -9339.1267 -7520.4389 300.1957 -800.5374 -737.6740 30551.5749 -162.8695 -107.0711
ENERGY: 900000 0.3295 5.9337 1.8398 0.0000 -10836.4340 1474.4218 0.0000 0.0000 1783.6260 -7570.2832 301.6506 -9353.9092 -7529.2294 300.8583 93.6941 186.1737 30295.0367 -39.4563 19.7891
ENERGY: 1200000 1.1137 3.5366 1.6418 0.0000 -10881.7508 1471.2449 0.0000 0.0000 1767.0905 -7637.1233 298.8541 -9404.2138 -7527.2437 300.7021 -34.5520 -26.5366 30155.1838 -70.0395 -6.6259
ENERGY: 1500000 1.8385 6.7950 5.0109 0.0000 -10915.1933 1527.4984 0.0000 0.0000 1787.2788 -7586.7718 302.2684 -9374.0505 -7527.0801 301.0430 435.3283 480.9523 30318.0447 12.0970 83.0990
TCL: Running FEP window  13: Lambda1 0.39999999999999963 Lambda2 0.34999999999999964 [dLambda -0.04999999999999999]
TCL: Setting parameter firsttimestep to 0
TCL: Setting parameter alchLambda to 0.39999999999999963
Info: NONBONDED TABLE R-SQUARED SPACING: 0.0625
Info: NONBONDED TABLE SIZE: 705 POINTS
TCL: Setting parameter alchLambda2 to 0.34999999999999964
Info: NONBONDED TABLE R-SQUARED SPACING: 0.0625
Info: NONBONDED TABLE SIZE: 705 POINTS
TCL: Running for 1500000 steps
ETITLE: TS BOND ANGLE DIHED IMPRP ELECT VDW BOUNDARY MISC KINETIC TOTAL TEMP POTENTIAL TOTALAVG TEMPAVG PRESSURE GPRESSURE VOLUME PRESSAVG GPRESSAVG
ENERGY: 0 1.8385 6.7950 5.0109 0.0000 -10915.1934 1527.4737 0.0000 0.0000 1786.3686 -7587.7066 302.1145 -9374.0752 -7587.7066 302.1145 396.3873 476.1878 30318.0447 396.3873 476.1878
ENERGY: 300000 2.6812 8.8179 2.5588 0.0000 -10716.1325 1408.8420 0.0000 0.0000 1780.8813 -7512.3513 301.1864 -9293.2326 -7530.9316 300.5839 -409.5621 -365.5862 31033.5992 -176.9850 -138.5117
ENERGY: 600000 0.4918 3.5010 1.1751 0.0000 -10632.5885 1420.2505 0.0000 0.0000 1734.2261 -7472.9440 293.2960 -9207.1701 -7532.2718 298.1158 -268.1236 -168.3101 30871.1421 -163.8470 -118.3556
ENERGY: 900000 1.0623 3.5720 0.4533 0.0000 -10772.1058 1435.1345 0.0000 0.0000 1762.0721 -7569.8117 298.0054 -9331.8838 -7536.0176 298.1231 -211.5354 -135.8107 30484.1674 -30.9590 27.6928
ENERGY: 1200000 1.7617 7.1657 0.7971 0.0000 -10571.5275 1340.8673 0.0000 0.0000 1767.7542 -7453.1814 298.9664 -9220.9356 -7525.7171 298.8786 -678.1587 -629.5646 30787.3482 -66.8572 -7.4211
ENERGY: 1500000 1.2286 8.0937 2.6969 0.0000 -10880.5286 1537.9783 0.0000 0.0000 1717.0382 -7613.4929 290.3892 -9330.5311 -7524.8940 299.5193 366.1781 477.8810 30489.1076 -13.1329 52.7811
TCL: Running FEP window  14: Lambda1 0.34999999999999964 Lambda2 0.29999999999999966 [dLambda -0.04999999999999999]
TCL: Setting parameter firsttimestep to 0
TCL: Setting parameter alchLambda to 0.34999999999999964
Info: NONBONDED TABLE R-SQUARED SPACING: 0.0625
Info: NONBONDED TABLE SIZE: 705 POINTS
TCL: Setting parameter alchLambda2 to 0.29999999999999966
Info: NONBONDED TABLE R-SQUARED SPACING: 0.0625
Info: NONBONDED TABLE SIZE: 705 POINTS
TCL: Running for 1500000 steps
ETITLE: TS BOND ANGLE DIHED IMPRP ELECT VDW BOUNDARY MISC KINETIC TOTAL TEMP POTENTIAL TOTALAVG TEMPAVG PRESSURE GPRESSURE VOLUME PRESSAVG GPRESSAVG
ENERGY: 0 1.2286 8.0937 2.6969 0.0000 -10880.5292 1538.2157 0.0000 0.0000 1716.1775 -7614.1168 290.2436 -9330.2943 -7614.1168 290.2436 395.4428 478.7686 30489.1076 395.4428 478.7686
ENERGY: 300000 1.3544 5.8755 4.8124 0.0000 -10759.6631 1440.5606 0.0000 0.0000 1798.5463 -7508.5137 304.1740 -9307.0601 -7523.8341 299.2150 -400.2355 -318.0802 31084.3498 28.0970 83.4133
ENERGY: 600000 1.3109 5.9599 2.2247 0.0000 -10772.8653 1467.2330 0.0000 0.0000 1798.5891 -7497.5478 304.1812 -9296.1369 -7516.0611 301.4393 382.0987 420.3783 30217.0447 -27.2733 35.8351
ENERGY: 900000 0.0243 9.5974 2.1239 0.0000 -10797.4630 1448.1867 0.0000 0.0000 1749.1267 -7588.4039 295.8160 -9337.5306 -7527.1964 300.7248 -222.9484 -161.7718 30956.0510 24.7887 91.6597
ENERGY: 1200000 1.6176 4.9367 1.2896 0.0000 -10656.0559 1345.8863 0.0000 0.0000 1758.1186 -7544.2071 297.3368 -9302.3257 -7536.7644 300.2108 -835.8465 -806.6605 30514.3450 47.4056 116.2572
ENERGY: 1500000 0.2577 8.1578 1.3203 0.0000 -10753.5907 1460.5300 0.0000 0.0000 1798.1950 -7485.1298 304.1146 -9283.3248 -7540.9505 299.2930 369.4824 394.2402 30244.3972 127.7070 196.5845
TCL: Running FEP window  15: Lambda1 0.29999999999999966 Lambda2 0.24999999999999967 [dLambda -0.04999999999999999]
TCL: Setting parameter firsttimestep to 0
TCL: Setting parameter alchLambda to 0.29999999999999966
Info: NONBONDED TABLE R-SQUARED SPACING: 0.0625
Info: NONBONDED TABLE SIZE: 705 POINTS
TCL: Setting parameter alchLambda2 to 0.24999999999999967
Info: NONBONDED TABLE R-SQUARED SPACING: 0.0625
Info: NONBONDED TABLE SIZE: 705 POINTS
TCL: Running for 1500000 steps
ETITLE: TS BOND ANGLE DIHED IMPRP ELECT VDW BOUNDARY MISC KINETIC TOTAL TEMP POTENTIAL TOTALAVG TEMPAVG PRESSURE GPRESSURE VOLUME PRESSAVG GPRESSAVG
ENERGY: 0 0.2577 8.1578 1.3203 0.0000 -10753.5912 1460.5753 0.0000 0.0000 1797.3164 -7485.9636 303.9660 -9283.2801 -7485.9636 303.9660 308.6934 388.8896 30244.3972 308.6934 388.8896
ENERGY: 300000 0.7540 4.8390 3.2615 0.0000 -10687.4255 1405.6099 0.0000 0.0000 1766.6230 -7506.3380 298.7750 -9272.9611 -7514.0820 303.2370 -107.3499 -60.8442 30488.2643 -87.6421 1.7075
ENERGY: 600000 0.8285 10.3254 1.1497 0.0000 -10937.4521 1569.2074 0.0000 0.0000 1806.2119 -7549.7292 305.4704 -9355.9411 -7522.8250 302.3715 857.8540 972.5455 30068.0283 4.2161 91.2936
ENERGY: 900000 0.8122 7.7369 0.7319 0.0000 -10812.9950 1491.2589 0.0000 0.0000 1762.3593 -7550.0957 298.0540 -9312.4550 -7534.3933 300.3574 505.4706 535.3218 30233.1500 15.2684 95.6280
ENERGY: 1200000 0.9623 6.7169 2.9593 0.0000 -10818.4221 1507.5045 0.0000 0.0000 1852.2973 -7447.9818 313.2645 -9300.2791 -7533.4310 300.8143 324.4395 416.8868 30759.5917 18.1166 99.4085
ENERGY: 1500000 2.4192 6.5580 2.8418 0.0000 -10648.2967 1395.5801 0.0000 0.0000 1763.9583 -7476.9394 298.3244 -9240.8976 -7527.4442 301.1010 -248.9663 -204.6257 30742.0883 -15.3934 59.2668
TCL: Running FEP window  16: Lambda1 0.24999999999999967 Lambda2 0.19999999999999968 [dLambda -0.04999999999999999]
TCL: Setting parameter firsttimestep to 0
TCL: Setting parameter alchLambda to 0.24999999999999967
Info: NONBONDED TABLE R-SQUARED SPACING: 0.0625
Info: NONBONDED TABLE SIZE: 705 POINTS
TCL: Setting parameter alchLambda2 to 0.19999999999999968
Info: NONBONDED TABLE R-SQUARED SPACING: 0.0625
Info: NONBONDED TABLE SIZE: 705 POINTS
TCL: Running for 1500000 steps
ETITLE: TS BOND ANGLE DIHED IMPRP ELECT VDW BOUNDARY MISC KINETIC TOTAL TEMP POTENTIAL TOTALAVG TEMPAVG PRESSURE GPRESSURE VOLUME PRESSAVG GPRESSAVG
ENERGY: 0 2.4192 6.5580 2.8418 0.0000 -10648.2961 1395.3532 0.0000 0.0000 1763.1001 -7478.0239 298.1792 -9241.1239 -7478.0239 298.1792 -307.7802 -210.6264 30742.0883 -307.7802 -210.6264
ENERGY: 300000 0.4978 5.2539 1.5370 0.0000 -10738.1834 1380.8312 0.0000 0.0000 1735.7426 -7614.3209 293.5525 -9350.0635 -7545.0618 298.8877 -642.6257 -573.3009 30195.6840 -337.4399 -263.7091
ENERGY: 600000 1.8058 9.0044 1.0067 0.0000 -10665.0084 1362.2100 0.0000 0.0000 1755.2911 -7535.6903 296.8586 -9290.9814 -7543.1065 298.1112 -278.7005 -176.0077 29847.0625 -135.8207 -59.2388
ENERGY: 900000 0.4060 5.2575 1.8404 0.0000 -10814.9322 1432.6001 0.0000 0.0000 1779.6609 -7595.1674 300.9800 -9374.8283 -7544.9321 299.2414 -246.9701 -211.9401 30542.4261 -112.7729 -48.1625
ENERGY: 1200000 3.0991 6.0216 2.6045 0.0000 -10813.0969 1443.6374 0.0000 0.0000 1781.3108 -7576.4234 301.2591 -9357.7343 -7543.6378 299.2217 -164.1808 -26.7298 30184.4906 -83.3064 -14.6525
ENERGY: 1500000 0.7519 4.0001 0.6288 0.0000 -10692.8137 1463.0303 0.0000 0.0000 1770.4268 -7453.9758 299.4183 -9224.4026 -7534.4238 299.0038 3.0073 40.4428 31330.1596 -112.8315 -45.2494
TCL: Running FEP window  17: Lambda1 0.19999999999999968 Lambda2 0.1499999999999997 [dLambda -0.04999999999999999]
TCL: Setting parameter firsttimestep to 0
TCL: Setting parameter alchLambda to 0.19999999999999968
Info: NONBONDED TABLE R-SQUARED SPACING: 0.0625
Info: NONBONDED TABLE SIZE: 705 POINTS
TCL: Setting parameter alchLambda2 to 0.1499999999999997
Info: NONBONDED TABLE R-SQUARED SPACING: 0.0625
Info: NONBONDED TABLE SIZE: 705 POINTS
TCL: Running for 1500000 steps
ETITLE: TS BOND ANGLE DIHED IMPRP ELECT VDW BOUNDARY MISC KINETIC TOTAL TEMP POTENTIAL TOTALAVG TEMPAVG PRESSURE GPRESSURE VOLUME PRESSAVG GPRESSAVG
ENERGY: 0 0.7519 4.0001 0.6288 0.0000 -10692.8133 1462.9897 0.0000 0.0000 1769.5408 -7454.9021 299.2685 -9224.4429 -7454.9021 299.2685 -39.8946 35.1361 31330.1596 -39.8946 35.1361
ENERGY: 300000 0.2009 6.2532 0.8335 0.0000 -10606.0732 1370.4102 0.0000 0.0000 1752.9937 -7475.3818 296.4700 -9228.3755 -7505.7948 297.1485 -453.7805 -381.0678 30682.5462 -51.6001 35.3694
ENERGY: 600000 0.5935 3.7395 1.3856 0.0000 -10879.7181 1504.8150 0.0000 0.0000 1766.1988 -7602.9857 298.7033 -9369.1845 -7522.3305 298.4962 191.6257 258.9373 30664.1097 12.5467 74.7655
ENERGY: 900000 1.8475 5.2282 2.5740 0.0000 -10876.6139 1533.7553 0.0000 0.0000 1751.6693 -7581.5396 296.2460 -9333.2089 -7517.1489 298.3649 627.7824 658.2541 30491.3682 61.6540 126.1424
ENERGY: 1200000 0.7150 7.8549 2.6941 0.0000 -10780.8154 1389.2225 0.0000 0.0000 1744.3788 -7635.9501 295.0131 -9380.3289 -7537.1358 297.7421 -456.0801 -339.0949 29981.9207 -5.3187 62.8163
ENERGY: 1500000 3.1653 5.4369 1.5347 0.0000 -10879.4167 1539.1617 0.0000 0.0000 1807.2944 -7522.8237 305.6535 -9330.1182 -7547.8437 298.3817 932.4183 966.8584 30138.5462 -5.1893 58.8522
TCL: Running FEP window  18: Lambda1 0.1499999999999997 Lambda2 0.09999999999999969 [dLambda -0.05 ]
TCL: Setting parameter firsttimestep to 0
TCL: Setting parameter alchLambda to 0.1499999999999997
Info: NONBONDED TABLE R-SQUARED SPACING: 0.0625
Info: NONBONDED TABLE SIZE: 705 POINTS
TCL: Setting parameter alchLambda2 to 0.09999999999999969
Info: NONBONDED TABLE R-SQUARED SPACING: 0.0625
Info: NONBONDED TABLE SIZE: 705 POINTS
TCL: Running for 1500000 steps
ETITLE: TS BOND ANGLE DIHED IMPRP ELECT VDW BOUNDARY MISC KINETIC TOTAL TEMP POTENTIAL TOTALAVG TEMPAVG PRESSURE GPRESSURE VOLUME PRESSAVG GPRESSAVG
ENERGY: 0 3.1653 5.4369 1.5347 0.0000 -10879.4166 1539.6001 0.0000 0.0000 1806.4081 -7523.2715 305.5036 -9329.6796 -7523.2715 305.5036 889.2924 968.8591 30138.5462 889.2924 968.8591
ENERGY: 300000 0.4324 7.0795 1.4022 0.0000 -10717.9727 1434.4580 0.0000 0.0000 1724.4263 -7550.1743 291.6386 -9274.6006 -7555.7427 300.2295 19.8542 38.8085 30640.6495 16.7897 74.8937
ENERGY: 600000 1.6404 10.3810 0.8885 0.0000 -10840.4725 1446.6495 0.0000 0.0000 1813.1122 -7567.8009 306.6374 -9380.9132 -7559.2750 298.7568 -233.7313 -196.7757 30560.3883 -84.9711 -21.9522
ENERGY: 900000 0.5290 4.3728 1.6062 0.0000 -10898.3202 1552.7046 0.0000 0.0000 1806.4157 -7532.6918 305.5049 -9339.1075 -7555.1414 299.3988 639.9192 710.7621 30429.5053 53.4194 104.4366
ENERGY: 1200000 2.3805 10.9754 1.3742 0.0000 -10824.4476 1524.3325 0.0000 0.0000 1725.8048 -7559.5803 291.8718 -9285.3850 -7548.5298 298.6310 582.9794 575.6880 30707.5121 7.4420 64.5810
ENERGY: 1500000 1.8437 7.8299 0.8973 0.0000 -10756.7529 1480.6065 0.0000 0.0000 1783.5160 -7482.0594 301.6320 -9265.5754 -7549.1873 298.2138 129.3575 189.1729 30791.8280 -2.8503 52.6752
TCL: Running FEP window  19: Lambda1 0.09999999999999969 Lambda2 0.049999999999999684 [dLambda -0.05 ]
TCL: Setting parameter firsttimestep to 0
TCL: Setting parameter alchLambda to 0.09999999999999969
Info: NONBONDED TABLE R-SQUARED SPACING: 0.0625
Info: NONBONDED TABLE SIZE: 705 POINTS
TCL: Setting parameter alchLambda2 to 0.049999999999999684
Info: NONBONDED TABLE R-SQUARED SPACING: 0.0625
Info: NONBONDED TABLE SIZE: 705 POINTS
TCL: Running for 1500000 steps
ETITLE: TS BOND ANGLE DIHED IMPRP ELECT VDW BOUNDARY MISC KINETIC TOTAL TEMP POTENTIAL TOTALAVG TEMPAVG PRESSURE GPRESSURE VOLUME PRESSAVG GPRESSAVG
ENERGY: 0 1.8437 7.8299 0.8973 0.0000 -10756.7518 1478.7862 0.0000 0.0000 1782.6458 -7484.7488 301.4848 -9267.3946 -7484.7488 301.4848 102.6893 183.7206 30791.8280 102.6893 183.7206
ENERGY: 300000 0.3502 3.5539 2.0426 0.0000 -10794.4360 1527.2547 0.0000 0.0000 1739.1707 -7522.0639 294.1322 -9261.2346 -7540.5323 298.4090 665.0172 686.2025 30684.9167 219.4858 270.0060
ENERGY: 600000 1.0774 6.3309 1.9412 0.0000 -10761.9960 1399.8247 0.0000 0.0000 1827.5009 -7525.3209 309.0708 -9352.8218 -7556.0842 299.5713 -395.6500 -353.5332 30390.6492 29.5437 72.5335
ENERGY: 900000 1.4839 6.4553 1.6224 0.0000 -10785.2166 1446.1308 0.0000 0.0000 1744.1187 -7585.4055 294.9691 -9329.5242 -7562.9222 297.4692 -309.4750 -208.2237 30866.3352 -2.8818 43.8797
ENERGY: 1200000 1.3250 8.5933 1.3116 0.0000 -10675.6748 1439.3766 0.0000 0.0000 1746.7757 -7478.2926 295.4184 -9225.0683 -7558.6688 297.0229 233.0320 221.4422 30293.1989 -14.6382 35.7580
ENERGY: 1500000 0.6983 8.9590 3.4312 0.0000 -10772.5163 1429.1015 0.0000 0.0000 1696.4341 -7633.8922 286.9045 -9330.3263 -7568.8713 295.7406 -336.0668 -265.7365 30829.6675 -68.0129 -11.6314
TCL: Running FEP window  20: Lambda1 0.049999999999999684 Lambda2 0.0    [dLambda -0.049999999999999684]
TCL: Setting parameter firsttimestep to 0
TCL: Setting parameter alchLambda to 0.049999999999999684
Info: NONBONDED TABLE R-SQUARED SPACING: 0.0625
Info: NONBONDED TABLE SIZE: 705 POINTS
TCL: Setting parameter alchLambda2 to 0.0
Info: NONBONDED TABLE R-SQUARED SPACING: 0.0625
Info: NONBONDED TABLE SIZE: 705 POINTS
TCL: Running for 1500000 steps
ETITLE: TS BOND ANGLE DIHED IMPRP ELECT VDW BOUNDARY MISC KINETIC TOTAL TEMP POTENTIAL TOTALAVG TEMPAVG PRESSURE GPRESSURE VOLUME PRESSAVG GPRESSAVG
ENERGY: 0 0.6983 8.9590 3.4312 0.0000 -10772.5160 1429.2662 0.0000 0.0000 1695.5662 -7634.5950 286.7578 -9330.1613 -7634.5950 286.7578 -345.8261 -267.9482 30829.6675 -345.8261 -267.9482
ENERGY: 300000 0.3597 8.5503 2.9462 0.0000 -10703.5487 1370.0151 0.0000 0.0000 1769.0271 -7552.6503 299.1816 -9321.6774 -7549.2581 295.9115 -843.8775 -763.3123 30552.5134 -611.5514 -550.4641
ENERGY: 600000 1.6400 5.6332 1.1467 0.0000 -10702.1740 1383.9448 0.0000 0.0000 1849.6321 -7460.1772 312.8137 -9309.8093 -7543.2314 296.9491 -486.1860 -426.0256 30404.8823 -546.1024 -486.7153
ENERGY: 900000 0.9843 8.7764 4.3061 0.0000 -10797.4123 1467.2913 0.0000 0.0000 1772.7431 -7543.3112 299.8101 -9316.0542 -7532.7764 297.4547 109.4182 183.3642 30474.7892 -409.3756 -344.2152
ENERGY: 1200000 1.2946 8.7201 1.0225 0.0000 -10740.3310 1439.0475 0.0000 0.0000 1728.3528 -7561.8935 292.3027 -9290.2463 -7528.0737 297.6817 -141.0135 -141.4035 30610.3128 -355.8082 -295.2864
ENERGY: 1500000 4.4376 3.6652 0.8363 0.0000 -10784.0932 1480.8703 0.0000 0.0000 1753.7686 -7540.5153 296.6011 -9294.2839 -7531.5334 298.2292 315.2944 282.3779 30285.5728 -222.1489 -171.3418
TCL: Exiting due to exit command.
