Info: SIMULATION PARAMETERS:
Info: TIMESTEP               2
Info: NUMBER OF STEPS        0
Info: STEPS PER CYCLE        10
Info: PERIODIC CELL BASIS 1  28.6221 0 0
Info: PERIODIC CELL BASIS 2  0 30.3919 0
Info: PERIODIC CELL BASIS 3  0 0 34.7023
Info: PERIODIC CELL CENTER   0 0 0
Info: WRAPPING WATERS AROUND PERIODIC BOUNDARIES ON OUTPUT.
Info: WRAPPING ALL CLUSTERS AROUND PERIODIC BOUNDARIES ON OUTPUT.
Info: FIRST LDB TIMESTEP     50
Info: LAST LDB TIMESTEP     -1
Info: HOM BACKGROUND SCALING 1
Info: PME BACKGROUND SCALING 1
Info: MIN ATOMS PER PATCH    40
Info: EMPTY PATCH LOAD       40 ATOMS
Info: VELOCITY FILE          mobley_5538249_equil.vel
Info: CENTER OF MASS MOVING INITIALLY? NO
Info: DIELECTRIC             1
Info: EXCLUDE                SCALED ONE-FOUR
Info: 1-4 ELECTROSTATICS SCALED BY 0.833333
Info: MODIFIED 1-4 VDW PARAMETERS WILL BE USED
Info: DCD FILENAME           mobley_5538249_prod.dcd
Info: DCD FREQUENCY          100000
Info: DCD FIRST STEP         100000
Info: DCD FILE WILL CONTAIN UNIT CELL DATA
Info: XST FILENAME           mobley_5538249_prod.xst
Info: XST FREQUENCY          100000
Info: NO VELOCITY DCD OUTPUT
Info: NO FORCE DCD OUTPUT
Info: OUTPUT FILENAME        mobley_5538249_prod
Info: BINARY OUTPUT FILES WILL BE USED
Info: RESTART FILENAME       mobley_5538249_prod.restart
Info: RESTART FREQUENCY      100000
Info: BINARY RESTART FILES WILL BE USED
Info: CUTOFF                 9
Info: PAIRLIST DISTANCE      11
Info: PAIRLIST SHRINK RATE   0.01
Info: PAIRLIST GROW RATE     0.01
Info: PAIRLIST TRIGGER       0.3
Info: PAIRLISTS PER CYCLE    2
Info: PAIRLISTS ENABLED
Info: MARGIN                 2
Info: HYDROGEN GROUP CUTOFF  2.5
Info: PATCH DIMENSION        15.5
Info: ENERGY OUTPUT STEPS    100000
Info: ENERGY EVALUATION STEPS    100000
Info: OUTPUT ENERGY PRECISION 4
Info: CROSSTERM ENERGY INCLUDED IN DIHEDRAL
Info: TIMING OUTPUT STEPS    1000000
Info: PRESSURE OUTPUT STEPS  100000
Info: ALCHEMICAL FEP ON
Info: FEP CURRENT LAMBDA VALUE     1
Info: FEP COMPARISON LAMBDA VALUE  0.95
Info: FEP INTRA-ALCHEMICAL NON-BONDED INTERACTIONS WILL BE RETAINED
Info: FEP INTRA-ALCHEMICAL BONDED INTERACTIONS WILL BE RETAINED
Info: FEP VDW SHIFTING COEFFICIENT 5
Info: FEP ELEC. ACTIVE FOR ANNIHILATED PARTICLES BETWEEN LAMBDA = 0 AND LAMBDA = 0.5
Info: FEP ELEC. ACTIVE FOR EXNIHILATED PARTICLES BETWEEN LAMBDA = 0.5 AND LAMBDA = 1
Info: FEP VDW ACTIVE FOR ANNIHILATED PARTICLES BETWEEN LAMBDA = 0 AND LAMBDA = 1
Info: FEP VDW ACTIVE FOR EXNIHILATED PARTICLES BETWEEN LAMBDA = 0 AND LAMBDA = 1
Info: FEP BOND ACTIVE FOR ANNIHILATED PARTICLES BETWEEN LAMBDA = 1 AND LAMBDA = 1
Info: FEP BOND ACTIVE FOR EXNIHILATED PARTICLES BETWEEN LAMBDA = 0 AND LAMBDA = 0
Info: LANGEVIN DYNAMICS ACTIVE
Info: LANGEVIN TEMPERATURE   300
Info: LANGEVIN USING BBK INTEGRATOR
Info: LANGEVIN DAMPING COEFFICIENT IS 1 INVERSE PS
Info: LANGEVIN DYNAMICS APPLIED TO HYDROGENS
Info: LANGEVIN PISTON PRESSURE CONTROL ACTIVE
Info:        TARGET PRESSURE IS 1.01325 BAR
Info:     OSCILLATION PERIOD IS 50 FS
Info:             DECAY TIME IS 25 FS
Info:     PISTON TEMPERATURE IS 300 K
Info:       PRESSURE CONTROL IS GROUP-BASED
Info:    INITIAL STRAIN RATE IS 0.000207627 0.000207627 0.000207627
Info:       CELL FLUCTUATION IS ISOTROPIC
Info: PARTICLE MESH EWALD (PME) ACTIVE
Info: PME TOLERANCE               1e-06
Info: PME EWALD COEFFICIENT       0.348832
Info: PME INTERPOLATION ORDER     4
Info: PME GRID DIMENSIONS         32 32 36
Info: PME MAXIMUM GRID SPACING    1
Info: PME CALCULATION WILL BE PERFORMED ON GPU
Info: FULL ELECTROSTATIC EVALUATION FREQUENCY      2
Info: USING VERLET I (r-RESPA) MTS SCHEME.
Info: C1 SPLITTING OF LONG RANGE ELECTROSTATICS
Info: PLACING ATOMS IN PATCHES BY HYDROGEN GROUPS
Info: RIGID BONDS TO HYDROGEN : ALL
Info:         ERROR TOLERANCE : 1e-08
Info:          MAX ITERATIONS : 100
Info: RIGID WATER USING SETTLE ALGORITHM
Info: RANDOM NUMBER SEED     1743803646
Info: USE HYDROGEN BONDS?    NO
Info: Using AMBER format force field!
Info: AMBER PARM FILE        mobley_5538249.prmtop
Info: COORDINATE PDB         mobley_5538249.pdb
Info: Exclusions will be read from PARM file!
Info: SCNB (VDW SCALING)     2
Info: USING ARITHMETIC MEAN TO COMBINE L-J SIGMA PARAMETERS
Info: BINARY COORDINATES     mobley_5538249_equil.coor
Info: SUMMARY OF PARAMETERS:
Info: 7 BONDS
Info: 8 ANGLES
Info:   8 HARMONIC
Info:   0 COSINE-BASED
Info: 3 DIHEDRAL
Info: 0 IMPROPER
Info: 0 CROSSTERM
Info: 0 VDW
Info: 15 VDW_PAIRS
Info: 0 NBTHOLE_PAIRS
Info: To read alchdata from file: mobley_5538249.pdb
Info: To read alchflag data from column: 5
Info: STRUCTURE SUMMARY:
Info: 2914 ATOMS
Info: 2915 BONDS
Info: 36 ANGLES
Info: 64 DIHEDRALS
Info: 0 IMPROPERS
Info: 0 CROSSTERMS
Info: 2997 EXCLUSIONS
Info: 2899 RIGID BONDS
Info: ALCH: 0 ATOMS TO DISAPPEAR IN FINAL STATE
Info: ALCH: 22 ATOMS TO APPEAR IN FINAL STATE
Info: 5843 DEGREES OF FREEDOM
Info: 979 HYDROGEN GROUPS
Info: 3 ATOMS IN LARGEST HYDROGEN GROUP
Info: 979 MIGRATION GROUPS
Info: 3 ATOMS IN LARGEST MIGRATION GROUP
Info: TOTAL MASS = 17625 amu
Info: TOTAL CHARGE = 1.11759e-08 e
Info: MASS DENSITY = 0.969551 g/cm^3
Info: ATOM DENSITY = 0.0965324 atoms/A^3
Info: ADDED 0 IMPLICIT EXCLUSIONS
Info: NONBONDED TABLE R-SQUARED SPACING: 0.0625
Info: NONBONDED TABLE SIZE: 705 POINTS
Info: REMOVING COM VELOCITY -0.00614031 -0.217571 -0.166416
Info: Use 3D box decompostion in PME FFT.
Info: Updated CUDA force table with 4096 elements.
Info: Updated CUDA LJ table with 5 x 5 elements.
Info: Found 24 unique exclusion lists needing 72 bytes
TCL: Running for 1500000 steps
ETITLE: TS BOND ANGLE DIHED IMPRP ELECT VDW BOUNDARY MISC KINETIC TOTAL TEMP POTENTIAL TOTALAVG TEMPAVG PRESSURE GPRESSURE VOLUME PRESSAVG GPRESSAVG
ENERGY: 0 5.1853 9.2652 11.8619 0.0000 -10648.7250 1457.7549 0.0000 0.0000 1739.2394 -7425.4183 299.5807 -9164.6577 -7425.4183 299.5807 107.4780 187.4580 30186.7696 107.4780 187.4580
ENERGY: 300000 2.8638 8.0840 11.1881 0.0000 -10663.0480 1478.8457 0.0000 0.0000 1796.8760 -7365.1905 309.5085 -9162.0665 -7369.1632 304.2666 343.8016 359.7502 30340.5870 425.2895 473.4282
ENERGY: 600000 5.2535 4.6936 9.0587 0.0000 -10421.6250 1326.2718 0.0000 0.0000 1770.7256 -7305.6218 305.0042 -9076.3474 -7352.4040 302.9466 -739.2827 -606.1198 30249.3864 69.5176 136.6577
ENERGY: 900000 6.2496 6.3522 10.9906 0.0000 -10438.6499 1331.2635 0.0000 0.0000 1762.4775 -7321.3165 303.5834 -9083.7939 -7351.9255 301.7503 -876.7503 -798.5249 30543.1856 22.4950 79.2523
ENERGY: 1200000 5.4273 6.7080 10.7563 0.0000 -10567.5652 1434.1353 0.0000 0.0000 1700.6766 -7409.8616 292.9384 -9110.5383 -7354.3040 300.4978 -13.7363 41.7336 29970.4953 -39.2531 25.9313
ENERGY: 1500000 4.9839 2.7991 9.5782 0.0000 -10591.6494 1447.3009 0.0000 0.0000 1718.4028 -7408.5845 295.9917 -9126.9874 -7356.8007 300.4915 -22.7437 104.7542 30019.4731 -24.0221 49.7648
TCL: Running FEP window   2: Lambda1 0.95   Lambda2 0.8999999999999999 [dLambda -0.050000000000000044]
TCL: Setting parameter firsttimestep to 0
TCL: Setting parameter alchLambda to 0.95
Info: NONBONDED TABLE R-SQUARED SPACING: 0.0625
Info: NONBONDED TABLE SIZE: 705 POINTS
TCL: Setting parameter alchLambda2 to 0.8999999999999999
Info: NONBONDED TABLE R-SQUARED SPACING: 0.0625
Info: NONBONDED TABLE SIZE: 705 POINTS
TCL: Running for 1500000 steps
ETITLE: TS BOND ANGLE DIHED IMPRP ELECT VDW BOUNDARY MISC KINETIC TOTAL TEMP POTENTIAL TOTALAVG TEMPAVG PRESSURE GPRESSURE VOLUME PRESSAVG GPRESSAVG
ENERGY: 0 4.9839 2.7991 9.5782 0.0000 -10591.1385 1447.5080 0.0000 0.0000 1717.5714 -7408.6979 295.8484 -9126.2693 -7408.6979 295.8484 -0.6446 94.6409 30019.4731 -0.6446 94.6409
ENERGY: 300000 5.1203 2.6421 11.0514 0.0000 -10352.5926 1308.1229 0.0000 0.0000 1751.6769 -7273.9789 301.7230 -9025.6558 -7321.0823 301.7439 -854.1526 -754.8159 30464.7673 -377.8083 -304.5909
ENERGY: 600000 6.5062 11.3498 10.6581 0.0000 -10408.1167 1394.7021 0.0000 0.0000 1728.0748 -7256.8256 297.6576 -8984.9005 -7334.7610 299.7854 112.6044 181.2662 30553.9356 -116.5149 -41.5012
ENERGY: 900000 8.8923 5.6188 13.2480 0.0000 -10592.2897 1401.6358 0.0000 0.0000 1771.1606 -7391.7342 305.0791 -9162.8948 -7337.6072 301.7292 -196.4708 -129.5786 30233.9741 -139.2258 -69.6658
ENERGY: 1200000 2.4563 5.9349 9.7878 0.0000 -10445.5848 1325.2819 0.0000 0.0000 1762.0968 -7340.0272 303.5179 -9102.1239 -7328.7319 302.3400 -735.3331 -641.0967 30369.0335 -149.4833 -78.0588
ENERGY: 1500000 4.5626 5.0259 12.0968 0.0000 -10474.8389 1356.1808 0.0000 0.0000 1774.8913 -7322.0815 305.7217 -9096.9728 -7337.2836 301.8126 -539.1222 -460.4699 30445.3940 -142.4450 -69.8906
TCL: Running FEP window   3: Lambda1 0.8999999999999999 Lambda2 0.8499999999999999 [dLambda -0.050000000000000044]
TCL: Setting parameter firsttimestep to 0
TCL: Setting parameter alchLambda to 0.8999999999999999
Info: NONBONDED TABLE R-SQUARED SPACING: 0.0625
Info: NONBONDED TABLE SIZE: 705 POINTS
TCL: Setting parameter alchLambda2 to 0.8499999999999999
Info: NONBONDED TABLE R-SQUARED SPACING: 0.0625
Info: NONBONDED TABLE SIZE: 705 POINTS
TCL: Running for 1500000 steps
ETITLE: TS BOND ANGLE DIHED IMPRP ELECT VDW BOUNDARY MISC KINETIC TOTAL TEMP POTENTIAL TOTALAVG TEMPAVG PRESSURE GPRESSURE VOLUME PRESSAVG GPRESSAVG
ENERGY: 0 4.5626 5.0259 12.0968 0.0000 -10474.0520 1356.4938 0.0000 0.0000 1774.0168 -7321.8562 305.5711 -9095.8730 -7321.8562 305.5711 -555.4030 -476.1920 30445.3940 -555.4030 -476.1920
ENERGY: 300000 11.8937 6.2002 14.3016 0.0000 -10486.9987 1370.9239 0.0000 0.0000 1762.8657 -7320.8136 303.6503 -9083.6793 -7337.9437 302.3880 -648.1759 -603.0956 30161.9863 -80.4564 -28.6777
ENERGY: 600000 6.3219 5.6902 14.5433 0.0000 -10484.4982 1329.1300 0.0000 0.0000 1756.5016 -7372.3112 302.5541 -9128.8128 -7345.9105 302.7886 -893.4040 -746.9612 30018.1849 -124.9425 -60.2452
ENERGY: 900000 2.8961 4.1461 10.9375 0.0000 -10581.9780 1432.7675 0.0000 0.0000 1784.1339 -7347.0968 307.3137 -9131.2307 -7339.6372 303.3843 415.1884 502.4164 29623.4376 -124.3560 -56.0396
ENERGY: 1200000 6.3215 4.9840 10.5974 0.0000 -10499.0566 1387.3081 0.0000 0.0000 1740.0326 -7349.8130 299.7173 -9089.8456 -7339.0090 302.5624 -320.8908 -221.1964 30294.4652 -105.5356 -29.8915
ENERGY: 1500000 5.1520 5.6487 10.9082 0.0000 -10570.4413 1447.5223 0.0000 0.0000 1777.4097 -7323.8004 306.1555 -9101.2101 -7338.2995 302.6591 364.5472 385.6301 30273.9346 -49.4936 26.0943
TCL: Running FEP window   4: Lambda1 0.8499999999999999 Lambda2 0.7999999999999998 [dLambda -0.050000000000000044]
TCL: Setting parameter firsttimestep to 0
TCL: Setting parameter alchLambda to 0.8499999999999999
Info: NONBONDED TABLE R-SQUARED SPACING: 0.0625
Info: NONBONDED TABLE SIZE: 705 POINTS
TCL: Setting parameter alchLambda2 to 0.7999999999999998
Info: NONBONDED TABLE R-SQUARED SPACING: 0.0625
Info: NONBONDED TABLE SIZE: 705 POINTS
TCL: Running for 1500000 steps
ETITLE: TS BOND ANGLE DIHED IMPRP ELECT VDW BOUNDARY MISC KINETIC TOTAL TEMP POTENTIAL TOTALAVG TEMPAVG PRESSURE GPRESSURE VOLUME PRESSAVG GPRESSAVG
ENERGY: 0 5.1520 5.6487 10.9082 0.0000 -10570.2834 1447.6324 0.0000 0.0000 1776.5304 -7324.4117 306.0040 -9100.9421 -7324.4117 306.0040 306.1150 372.8328 30273.9346 306.1150 372.8328
ENERGY: 300000 3.0016 4.7013 12.7707 0.0000 -10555.2165 1413.9065 0.0000 0.0000 1744.9384 -7375.8981 300.5624 -9120.8364 -7316.3002 304.0448 -121.2598 -6.7025 29997.2679 -56.1234 26.1253
ENERGY: 600000 5.8886 3.9656 9.3257 0.0000 -10429.3701 1329.3669 0.0000 0.0000 1730.1536 -7350.6696 298.0157 -9080.8233 -7321.3423 303.3541 -497.8251 -455.0926 29931.2311 -78.0458 -13.3336
ENERGY: 900000 4.8715 7.7226 12.1247 0.0000 -10589.8516 1444.7485 0.0000 0.0000 1746.2982 -7374.0862 300.7966 -9120.3844 -7341.3072 301.7504 264.4532 280.0646 29989.0128 68.9776 116.1802
ENERGY: 1200000 8.1883 7.4619 14.2591 0.0000 -10461.8296 1436.0940 0.0000 0.0000 1800.9963 -7194.8300 310.2182 -8995.8263 -7329.9079 302.2440 284.4518 395.7249 30594.1471 104.9439 156.8115
ENERGY: 1500000 5.0857 7.0897 13.3593 0.0000 -10445.7846 1363.0657 0.0000 0.0000 1735.8657 -7321.3186 298.9996 -9057.1843 -7334.1194 301.5502 -149.4730 -16.4333 30033.4190 84.2245 150.5377
TCL: Running FEP window   5: Lambda1 0.7999999999999998 Lambda2 0.7499999999999998 [dLambda -0.050000000000000044]
TCL: Setting parameter firsttimestep to 0
TCL: Setting parameter alchLambda to 0.7999999999999998
Info: NONBONDED TABLE R-SQUARED SPACING: 0.0625
Info: NONBONDED TABLE SIZE: 705 POINTS
TCL: Setting parameter alchLambda2 to 0.7499999999999998
Info: NONBONDED TABLE R-SQUARED SPACING: 0.0625
Info: NONBONDED TABLE SIZE: 705 POINTS
TCL: Running for 1500000 steps
ETITLE: TS BOND ANGLE DIHED IMPRP ELECT VDW BOUNDARY MISC KINETIC TOTAL TEMP POTENTIAL TOTALAVG TEMPAVG PRESSURE GPRESSURE VOLUME PRESSAVG GPRESSAVG
ENERGY: 0 5.0857 7.0897 13.3592 0.0000 -10445.1678 1363.3519 0.0000 0.0000 1735.0244 -7321.2570 298.8547 -9056.2813 -7321.2570 298.8547 -121.2655 -30.1126 30033.4190 -121.2655 -30.1126
ENERGY: 300000 8.8697 10.3169 13.9630 0.0000 -10594.4100 1535.6515 0.0000 0.0000 1737.7113 -7287.8976 299.3175 -9025.6090 -7336.2231 297.0405 1240.7936 1261.9087 30241.0338 368.3553 443.8531
ENERGY: 600000 5.8212 5.2477 9.7921 0.0000 -10568.5077 1433.5070 0.0000 0.0000 1802.8486 -7311.2911 310.5373 -9114.1397 -7320.6935 300.5744 53.9466 126.9966 30430.2816 -3.3171 66.2641
ENERGY: 900000 3.4475 7.0098 11.7697 0.0000 -10563.1422 1416.4464 0.0000 0.0000 1764.1851 -7360.2837 303.8776 -9124.4688 -7322.4378 301.3645 111.9549 172.9996 30080.2375 41.0349 100.1310
ENERGY: 1200000 3.4181 6.9098 11.5843 0.0000 -10558.8190 1500.3633 0.0000 0.0000 1715.0132 -7321.5304 295.4078 -9036.5436 -7324.9501 301.1942 1001.4196 1075.8255 30049.8937 108.1067 172.2532
ENERGY: 1500000 2.8582 2.5693 11.1554 0.0000 -10589.1132 1456.5069 0.0000 0.0000 1783.4578 -7332.5656 307.1973 -9116.0233 -7324.7629 302.6428 674.0387 768.4529 29656.4791 136.2328 198.1630
TCL: Running FEP window   6: Lambda1 0.7499999999999998 Lambda2 0.6999999999999997 [dLambda -0.050000000000000044]
TCL: Setting parameter firsttimestep to 0
TCL: Setting parameter alchLambda to 0.7499999999999998
Info: NONBONDED TABLE R-SQUARED SPACING: 0.0625
Info: NONBONDED TABLE SIZE: 705 POINTS
TCL: Setting parameter alchLambda2 to 0.6999999999999997
Info: NONBONDED TABLE R-SQUARED SPACING: 0.0625
Info: NONBONDED TABLE SIZE: 705 POINTS
TCL: Running for 1500000 steps
ETITLE: TS BOND ANGLE DIHED IMPRP ELECT VDW BOUNDARY MISC KINETIC TOTAL TEMP POTENTIAL TOTALAVG TEMPAVG PRESSURE GPRESSURE VOLUME PRESSAVG GPRESSAVG
ENERGY: 0 2.8582 2.5693 11.1554 0.0000 -10588.6289 1456.8514 0.0000 0.0000 1782.5935 -7332.6011 307.0484 -9115.1946 -7332.6011 307.0484 688.0543 758.4326 29656.4791 688.0543 758.4326
ENERGY: 300000 4.7781 4.8981 13.2831 0.0000 -10546.3999 1422.3444 0.0000 0.0000 1685.1269 -7415.9694 290.2599 -9101.0962 -7361.0004 301.0173 288.0454 371.7709 30006.9756 -22.3222 40.2794
ENERGY: 600000 3.4431 7.5684 9.9663 0.0000 -10535.9699 1458.9255 0.0000 0.0000 1798.4384 -7257.6281 309.7776 -9056.0665 -7348.3363 302.3732 216.2080 316.4895 30453.6366 79.4668 137.9210
ENERGY: 900000 5.9670 10.7686 9.8463 0.0000 -10635.0842 1470.9692 0.0000 0.0000 1704.8303 -7432.7028 293.6538 -9137.5331 -7363.3296 300.6003 504.7862 545.7145 29752.4061 85.5173 138.1683
ENERGY: 1200000 6.1291 3.7899 10.9335 0.0000 -10376.0469 1319.3492 0.0000 0.0000 1742.2355 -7293.6098 300.0968 -9035.8452 -7340.8978 300.8741 -897.1269 -800.8569 30395.9043 -47.3944 13.8232
ENERGY: 1500000 7.8855 4.9423 11.0565 0.0000 -10640.0264 1463.3700 0.0000 0.0000 1774.7204 -7378.0518 305.6923 -9152.7722 -7338.5973 300.9050 115.7990 111.8556 30146.7330 -22.7582 36.8466
TCL: Running FEP window   7: Lambda1 0.6999999999999997 Lambda2 0.6499999999999997 [dLambda -0.050000000000000044]
TCL: Setting parameter firsttimestep to 0
TCL: Setting parameter alchLambda to 0.6999999999999997
Info: NONBONDED TABLE R-SQUARED SPACING: 0.0625
Info: NONBONDED TABLE SIZE: 705 POINTS
TCL: Setting parameter alchLambda2 to 0.6499999999999997
Info: NONBONDED TABLE R-SQUARED SPACING: 0.0625
Info: NONBONDED TABLE SIZE: 705 POINTS
TCL: Running for 1500000 steps
ETITLE: TS BOND ANGLE DIHED IMPRP ELECT VDW BOUNDARY MISC KINETIC TOTAL TEMP POTENTIAL TOTALAVG TEMPAVG PRESSURE GPRESSURE VOLUME PRESSAVG GPRESSAVG
ENERGY: 0 7.8855 4.9423 11.0565 0.0000 -10639.6803 1463.8537 0.0000 0.0000 1773.8756 -7378.0668 305.5467 -9151.9423 -7378.0668 305.5467 21.6701 101.4922 30146.7330 21.6701 101.4922
ENERGY: 300000 6.0745 6.9105 14.9599 0.0000 -10415.9599 1349.3754 0.0000 0.0000 1674.5740 -7364.0655 288.4422 -9038.6395 -7364.8367 296.0271 -483.7182 -410.5230 30414.0078 147.1418 217.9198
ENERGY: 600000 7.4925 7.5307 7.8579 0.0000 -10624.9129 1440.5225 0.0000 0.0000 1762.8352 -7398.6742 303.6450 -9161.5094 -7370.8490 299.0425 119.3336 203.6273 29908.4516 177.2851 252.9634
ENERGY: 900000 2.7812 6.3749 17.4618 0.0000 -10525.0405 1436.6815 0.0000 0.0000 1726.7150 -7335.0261 297.4234 -9061.7411 -7352.5539 300.2228 471.2134 571.8349 29492.9533 127.1371 197.3103
ENERGY: 1200000 6.5743 5.3604 13.3345 0.0000 -10503.8284 1371.5514 0.0000 0.0000 1753.2440 -7353.7639 301.9930 -9107.0078 -7352.9962 299.8977 -497.2948 -429.8773 29987.7625 45.7470 115.3873
ENERGY: 1500000 7.8768 5.4594 8.8323 0.0000 -10429.6762 1360.8073 0.0000 0.0000 1795.6460 -7251.0545 309.2966 -9046.7005 -7341.0818 300.1417 -271.0313 -290.1996 29954.9680 65.4180 134.5561
TCL: Running FEP window   8: Lambda1 0.6499999999999997 Lambda2 0.5999999999999996 [dLambda -0.050000000000000044]
TCL: Setting parameter firsttimestep to 0
TCL: Setting parameter alchLambda to 0.6499999999999997
Info: NONBONDED TABLE R-SQUARED SPACING: 0.0625
Info: NONBONDED TABLE SIZE: 705 POINTS
TCL: Setting parameter alchLambda2 to 0.5999999999999996
Info: NONBONDED TABLE R-SQUARED SPACING: 0.0625
Info: NONBONDED TABLE SIZE: 705 POINTS
TCL: Running for 1500000 steps
ETITLE: TS BOND ANGLE DIHED IMPRP ELECT VDW BOUNDARY MISC KINETIC TOTAL TEMP POTENTIAL TOTALAVG TEMPAVG PRESSURE GPRESSURE VOLUME PRESSAVG GPRESSAVG
ENERGY: 0 7.8768 5.4594 8.8323 0.0000 -10429.2920 1361.2854 0.0000 0.0000 1794.7785 -7251.0596 309.1472 -9045.8382 -7251.0596 309.1472 -368.4929 -301.2681 29954.9680 -368.4929 -301.2681
ENERGY: 300000 6.5387 6.0442 11.2847 0.0000 -10496.3237 1358.0688 0.0000 0.0000 1758.0018 -7356.3855 302.8125 -9114.3873 -7323.9300 303.9610 -406.1944 -340.4789 30061.2699 -287.5632 -227.7721
ENERGY: 600000 5.3371 3.7853 12.8267 0.0000 -10550.2955 1385.3067 0.0000 0.0000 1714.4279 -7428.6117 295.3070 -9143.0396 -7360.0895 299.6128 -373.6927 -305.3798 29639.6413 -219.0333 -160.0077
ENERGY: 900000 3.5851 7.5720 12.3891 0.0000 -10649.8018 1519.3792 0.0000 0.0000 1768.4284 -7338.4478 304.6085 -9106.8763 -7346.8172 299.9906 970.1379 994.1133 29592.1132 -221.8166 -162.3297
ENERGY: 1200000 3.5253 3.5799 13.5913 0.0000 -10584.6879 1362.5632 0.0000 0.0000 1696.6578 -7504.7704 292.2461 -9201.4282 -7350.3222 300.3230 -836.4349 -805.6061 30329.3579 -240.7598 -184.2453
ENERGY: 1500000 2.2212 3.8227 12.8807 0.0000 -10520.6605 1435.3284 0.0000 0.0000 1747.9530 -7318.4544 301.0816 -9066.4074 -7347.4433 299.7130 138.7895 226.0627 30426.6801 -205.0670 -149.4365
TCL: Running FEP window   9: Lambda1 0.5999999999999996 Lambda2 0.5499999999999996 [dLambda -0.050000000000000044]
TCL: Setting parameter firsttimestep to 0
TCL: Setting parameter alchLambda to 0.5999999999999996
Info: NONBONDED TABLE R-SQUARED SPACING: 0.0625
Info: NONBONDED TABLE SIZE: 705 POINTS
TCL: Setting parameter alchLambda2 to 0.5499999999999996
Info: NONBONDED TABLE R-SQUARED SPACING: 0.0625
Info: NONBONDED TABLE SIZE: 705 POINTS
TCL: Running for 1500000 steps
ETITLE: TS BOND ANGLE DIHED IMPRP ELECT VDW BOUNDARY MISC KINETIC TOTAL TEMP POTENTIAL TOTALAVG TEMPAVG PRESSURE GPRESSURE VOLUME PRESSAVG GPRESSAVG
ENERGY: 0 2.2212 3.8227 12.8807 0.0000 -10520.2505 1436.0636 0.0000 0.0000 1747.0952 -7318.1670 300.9339 -9065.2622 -7318.1670 300.9339 135.0858 223.0542 30426.6801 135.0858 223.0542
ENERGY: 300000 2.9420 8.2747 12.7581 0.0000 -10530.0445 1475.3638 0.0000 0.0000 1733.9345 -7296.7714 298.6670 -9030.7059 -7310.7260 300.6261 783.4365 834.3105 29722.3403 14.7178 44.7030
ENERGY: 600000 3.6002 6.3660 11.9605 0.0000 -10489.5524 1419.2570 0.0000 0.0000 1759.0365 -7289.3323 302.9907 -9048.3688 -7312.7106 299.9794 186.1734 212.6698 29947.0051 15.2341 65.5601
ENERGY: 900000 4.9361 5.9429 13.1101 0.0000 -10559.8728 1478.5587 0.0000 0.0000 1678.8877 -7378.4374 289.1852 -9057.3250 -7315.3549 299.0047 144.3059 242.7346 30190.5280 -60.5078 -6.0368
ENERGY: 1200000 8.1461 8.6681 9.7895 0.0000 -10601.0817 1440.5539 0.0000 0.0000 1716.8451 -7417.0791 295.7233 -9133.9241 -7325.7991 298.8018 129.7971 215.6030 29622.3674 -56.1644 -4.2100
ENERGY: 1500000 4.1268 8.7678 14.5359 0.0000 -10456.2442 1385.5891 0.0000 0.0000 1744.6623 -7298.5623 300.5148 -9043.2246 -7325.9153 299.4669 -74.7124 -52.3816 30112.0702 -23.9030 28.7950
TCL: Running FEP window  10: Lambda1 0.5499999999999996 Lambda2 0.4999999999999996 [dLambda -0.04999999999999999]
TCL: Setting parameter firsttimestep to 0
TCL: Setting parameter alchLambda to 0.5499999999999996
Info: NONBONDED TABLE R-SQUARED SPACING: 0.0625
Info: NONBONDED TABLE SIZE: 705 POINTS
TCL: Setting parameter alchLambda2 to 0.4999999999999996
Info: NONBONDED TABLE R-SQUARED SPACING: 0.0625
Info: NONBONDED TABLE SIZE: 705 POINTS
TCL: Running for 1500000 steps
ETITLE: TS BOND ANGLE DIHED IMPRP ELECT VDW BOUNDARY MISC KINETIC TOTAL TEMP POTENTIAL TOTALAVG TEMPAVG PRESSURE GPRESSURE VOLUME PRESSAVG GPRESSAVG
ENERGY: 0 4.1268 8.7678 14.5359 0.0000 -10455.5579 1386.2082 0.0000 0.0000 1743.8036 -7298.1155 300.3669 -9041.9191 -7298.1155 300.3669 -139.8680 -58.4267 30112.0702 -139.8680 -58.4267
ENERGY: 300000 8.0707 2.5148 11.4534 0.0000 -10511.5826 1423.7229 0.0000 0.0000 1779.6675 -7286.1535 306.5444 -9065.8209 -7323.3366 301.2312 -163.0279 -120.6558 30237.1974 -115.6681 -64.4328
ENERGY: 600000 3.1411 4.9329 14.9878 0.0000 -10451.1899 1408.5881 0.0000 0.0000 1700.8120 -7318.7279 292.9617 -9019.5399 -7309.8860 298.9838 -342.8914 -328.5918 30716.5715 -140.4520 -99.7987
ENERGY: 900000 2.9748 3.8372 13.2758 0.0000 -10613.2480 1477.2448 0.0000 0.0000 1745.3451 -7370.5704 300.6324 -9115.9155 -7322.5147 299.8391 499.7541 553.4858 29742.9435 -60.4141 -5.8523
ENERGY: 1200000 2.7187 5.9188 11.7477 0.0000 -10519.2361 1410.5943 0.0000 0.0000 1722.1207 -7366.1359 296.6321 -9088.2567 -7329.8894 299.4170 -67.5215 56.9668 29825.1788 17.9233 74.0692
ENERGY: 1500000 7.5622 7.3326 7.4383 0.0000 -10582.2348 1447.4920 0.0000 0.0000 1751.0168 -7361.3929 301.6094 -9112.4097 -7327.9637 299.3848 -51.2247 69.8965 30014.6869 29.6066 87.1330
TCL: Running FEP window  11: Lambda1 0.4999999999999996 Lambda2 0.4499999999999996 [dLambda -0.04999999999999999]
TCL: Setting parameter firsttimestep to 0
TCL: Setting parameter alchLambda to 0.4999999999999996
Info: NONBONDED TABLE R-SQUARED SPACING: 0.0625
Info: NONBONDED TABLE SIZE: 705 POINTS
TCL: Setting parameter alchLambda2 to 0.4499999999999996
Info: NONBONDED TABLE R-SQUARED SPACING: 0.0625
Info: NONBONDED TABLE SIZE: 705 POINTS
TCL: Running for 1500000 steps
ETITLE: TS BOND ANGLE DIHED IMPRP ELECT VDW BOUNDARY MISC KINETIC TOTAL TEMP POTENTIAL TOTALAVG TEMPAVG PRESSURE GPRESSURE VOLUME PRESSAVG GPRESSAVG
ENERGY: 0 7.5622 7.3326 7.4383 0.0000 -10582.0291 1447.7488 0.0000 0.0000 1750.1241 -7361.8232 301.4556 -9111.9473 -7361.8232 301.4556 -26.2539 61.7208 30014.6869 -26.2539 61.7208
ENERGY: 300000 9.2877 5.7205 12.5275 0.0000 -10528.4485 1386.1433 0.0000 0.0000 1709.0676 -7405.7019 294.3837 -9114.7696 -7404.7991 297.4900 48.6496 94.0862 29460.4071 -7.6285 88.6959
ENERGY: 600000 6.0256 6.0181 11.9153 0.0000 -10502.9738 1374.7091 0.0000 0.0000 1716.7830 -7387.5227 295.7127 -9104.3058 -7395.7761 298.1334 -762.0546 -707.2712 30479.7124 15.5913 97.6291
ENERGY: 900000 8.2788 6.5962 11.7682 0.0000 -10564.7626 1400.4600 0.0000 0.0000 1742.6980 -7394.9615 300.1765 -9137.6595 -7375.6572 298.5152 -101.7924 -37.5900 29872.8689 -146.1835 -69.0621
ENERGY: 1200000 3.7535 4.7780 11.0423 0.0000 -10416.5666 1330.6220 0.0000 0.0000 1741.6480 -7324.7228 299.9956 -9066.3708 -7371.9755 298.8514 -806.7288 -701.4867 30472.6295 -227.6275 -144.2749
ENERGY: 1500000 6.1425 9.6306 13.2882 0.0000 -10598.1726 1507.2699 0.0000 0.0000 1725.0599 -7336.7815 297.1383 -9061.8413 -7361.6114 299.2458 524.7098 624.0980 30065.5704 -201.6903 -119.5102
TCL: Running FEP window  12: Lambda1 0.4499999999999996 Lambda2 0.39999999999999963 [dLambda -0.04999999999999999]
TCL: Setting parameter firsttimestep to 0
TCL: Setting parameter alchLambda to 0.4499999999999996
Info: NONBONDED TABLE R-SQUARED SPACING: 0.0625
Info: NONBONDED TABLE SIZE: 705 POINTS
TCL: Setting parameter alchLambda2 to 0.39999999999999963
Info: NONBONDED TABLE R-SQUARED SPACING: 0.0625
Info: NONBONDED TABLE SIZE: 705 POINTS
TCL: Running for 1500000 steps
ETITLE: TS BOND ANGLE DIHED IMPRP ELECT VDW BOUNDARY MISC KINETIC TOTAL TEMP POTENTIAL TOTALAVG TEMPAVG PRESSURE GPRESSURE VOLUME PRESSAVG GPRESSAVG
ENERGY: 0 6.1426 9.6306 13.2882 0.0000 -10598.1710 1507.3938 0.0000 0.0000 1724.1581 -7337.5577 296.9830 -9061.7158 -7337.5577 296.9830 529.3181 614.7203 30065.5704 529.3181 614.7203
ENERGY: 300000 5.8891 5.5814 12.9509 0.0000 -10580.9606 1461.0581 0.0000 0.0000 1736.0314 -7359.4498 299.0281 -9095.4812 -7351.5847 299.7499 290.0855 346.5102 29705.5411 235.3335 310.1626
ENERGY: 600000 4.3819 10.4043 8.5006 0.0000 -10480.5442 1465.1837 0.0000 0.0000 1707.5698 -7284.5039 294.1257 -8992.0737 -7336.2668 299.8744 656.9380 700.9193 29887.5075 192.0463 275.1648
ENERGY: 900000 3.5233 4.5966 11.6748 0.0000 -10577.9384 1419.9366 0.0000 0.0000 1700.1489 -7438.0580 292.8475 -9138.2069 -7349.1397 298.6321 -216.2534 -170.3759 29998.5253 122.0239 195.1028
ENERGY: 1200000 9.5652 4.1190 10.8808 0.0000 -10568.2707 1415.1675 0.0000 0.0000 1669.8983 -7458.6400 287.6368 -9128.5383 -7358.7345 297.9965 -472.5529 -348.6950 29993.1409 91.4439 169.7332
ENERGY: 1500000 5.1487 4.1951 12.4314 0.0000 -10711.9899 1507.6703 0.0000 0.0000 1802.0387 -7380.5056 310.3978 -9182.5443 -7361.9813 298.8364 604.7790 648.2564 29997.9011 75.2520 149.6106
TCL: Running FEP window  13: Lambda1 0.39999999999999963 Lambda2 0.34999999999999964 [dLambda -0.04999999999999999]
TCL: Setting parameter firsttimestep to 0
TCL: Setting parameter alchLambda to 0.39999999999999963
Info: NONBONDED TABLE R-SQUARED SPACING: 0.0625
Info: NONBONDED TABLE SIZE: 705 POINTS
TCL: Setting parameter alchLambda2 to 0.34999999999999964
Info: NONBONDED TABLE R-SQUARED SPACING: 0.0625
Info: NONBONDED TABLE SIZE: 705 POINTS
TCL: Running for 1500000 steps
ETITLE: TS BOND ANGLE DIHED IMPRP ELECT VDW BOUNDARY MISC KINETIC TOTAL TEMP POTENTIAL TOTALAVG TEMPAVG PRESSURE GPRESSURE VOLUME PRESSAVG GPRESSAVG
ENERGY: 0 5.1487 4.1951 12.4314 0.0000 -10711.9895 1508.2045 0.0000 0.0000 1801.1834 -7380.8264 310.2505 -9182.0098 -7380.8264 310.2505 563.2245 646.4423 29997.9011 563.2245 646.4423
ENERGY: 300000 4.7447 6.1625 10.7724 0.0000 -10491.1008 1404.3184 0.0000 0.0000 1746.9271 -7318.1757 300.9049 -9065.1028 -7393.2355 300.3959 178.1679 237.8616 29711.2667 161.5211 210.6374
ENERGY: 600000 9.1134 4.8194 7.6540 0.0000 -10448.3531 1393.2730 0.0000 0.0000 1806.7615 -7226.7318 311.2113 -9033.4933 -7349.1794 301.5425 -8.2550 43.4239 30249.2598 193.2561 267.1715
ENERGY: 900000 5.8951 2.7830 12.1316 0.0000 -10504.7739 1364.0718 0.0000 0.0000 1751.3762 -7368.5161 301.6713 -9119.8923 -7341.2879 301.8655 -477.4084 -468.0790 29914.2178 133.3317 205.2936
ENERGY: 1200000 5.3457 4.7492 11.8555 0.0000 -10491.2609 1385.0361 0.0000 0.0000 1776.6878 -7307.5867 306.0311 -9084.2745 -7333.3523 302.4629 -241.1696 -216.4341 30179.6794 56.2672 118.2089
ENERGY: 1500000 4.3965 6.5838 11.1415 0.0000 -10480.7280 1410.7191 0.0000 0.0000 1665.9957 -7381.8914 286.9646 -9047.8871 -7338.1773 301.1482 144.2397 163.9779 30126.3379 112.4904 175.6928
TCL: Running FEP window  14: Lambda1 0.34999999999999964 Lambda2 0.29999999999999966 [dLambda -0.04999999999999999]
TCL: Setting parameter firsttimestep to 0
TCL: Setting parameter alchLambda to 0.34999999999999964
Info: NONBONDED TABLE R-SQUARED SPACING: 0.0625
Info: NONBONDED TABLE SIZE: 705 POINTS
TCL: Setting parameter alchLambda2 to 0.29999999999999966
Info: NONBONDED TABLE R-SQUARED SPACING: 0.0625
Info: NONBONDED TABLE SIZE: 705 POINTS
TCL: Running for 1500000 steps
ETITLE: TS BOND ANGLE DIHED IMPRP ELECT VDW BOUNDARY MISC KINETIC TOTAL TEMP POTENTIAL TOTALAVG TEMPAVG PRESSURE GPRESSURE VOLUME PRESSAVG GPRESSAVG
ENERGY: 0 4.3965 6.5838 11.1415 0.0000 -10480.7270 1410.6956 0.0000 0.0000 1665.1084 -7382.8011 286.8118 -9047.9095 -7382.8011 286.8118 64.8598 154.8518 30126.3379 64.8598 154.8518
ENERGY: 300000 8.2946 4.5134 8.9158 0.0000 -10549.8587 1399.6079 0.0000 0.0000 1728.7163 -7399.8108 297.7681 -9128.5271 -7372.4560 297.1505 -448.3389 -406.2277 29624.4373 24.5072 90.1526
ENERGY: 600000 4.2928 8.8118 9.3482 0.0000 -10592.7388 1432.3795 0.0000 0.0000 1753.4712 -7384.4353 302.0321 -9137.9065 -7364.9953 299.5931 50.2579 84.4810 29540.2907 38.5237 91.8530
ENERGY: 900000 4.4742 6.9097 12.1344 0.0000 -10422.0862 1376.5590 0.0000 0.0000 1780.8828 -7241.1261 306.7537 -9022.0089 -7341.4917 300.4880 -5.5699 21.0475 30165.8637 -44.9125 3.3976
ENERGY: 1200000 5.8834 5.5043 8.7076 0.0000 -10488.7112 1410.0559 0.0000 0.0000 1749.9905 -7308.5696 301.4326 -9058.5600 -7334.4195 301.4722 -170.2887 -66.7147 30481.7481 -10.5284 45.2076
ENERGY: 1500000 3.5008 6.4739 17.4449 0.0000 -10610.0760 1453.6791 0.0000 0.0000 1662.5668 -7466.4105 286.3740 -9128.9773 -7343.0753 299.8619 262.8908 271.4692 29311.6136 -24.6976 25.9128
TCL: Running FEP window  15: Lambda1 0.29999999999999966 Lambda2 0.24999999999999967 [dLambda -0.04999999999999999]
TCL: Setting parameter firsttimestep to 0
TCL: Setting parameter alchLambda to 0.29999999999999966
Info: NONBONDED TABLE R-SQUARED SPACING: 0.0625
Info: NONBONDED TABLE SIZE: 705 POINTS
TCL: Setting parameter alchLambda2 to 0.24999999999999967
Info: NONBONDED TABLE R-SQUARED SPACING: 0.0625
Info: NONBONDED TABLE SIZE: 705 POINTS
TCL: Running for 1500000 steps
ETITLE: TS BOND ANGLE DIHED IMPRP ELECT VDW BOUNDARY MISC KINETIC TOTAL TEMP POTENTIAL TOTALAVG TEMPAVG PRESSURE GPRESSURE VOLUME PRESSAVG GPRESSAVG
ENERGY: 0 3.5008 6.4739 17.4449 0.0000 -10610.0756 1454.0831 0.0000 0.0000 1661.6907 -7466.8822 286.2231 -9128.5729 -7466.8822 286.2231 193.4610 267.4981 29311.6136 193.4610 267.4981
ENERGY: 300000 2.9587 7.3557 10.6552 0.0000 -10693.0605 1498.3481 0.0000 0.0000 1703.9407 -7469.8021 293.5006 -9173.7428 -7423.9494 291.5674 503.3936 555.2923 29438.8092 168.1763 246.1646
ENERGY: 600000 3.3030 4.0081 13.2988 0.0000 -10317.1674 1279.5926 0.0000 0.0000 1728.1530 -7288.8118 297.6711 -9016.9648 -7399.0230 294.3506 -1098.8122 -1049.8567 30305.3845 -209.5563 -135.6255
ENERGY: 900000 7.4120 4.0557 16.1329 0.0000 -10506.3813 1417.7575 0.0000 0.0000 1714.5955 -7346.4278 295.3359 -9061.0233 -7391.8622 293.9957 -53.7379 45.1169 29912.1174 -94.9851 -25.3725
ENERGY: 1200000 5.4065 4.4585 17.5912 0.0000 -10482.6318 1407.5594 0.0000 0.0000 1722.8764 -7324.7399 296.7622 -9047.6163 -7380.7486 296.0281 -181.1055 -179.9241 30182.2778 -155.3509 -85.2840
ENERGY: 1500000 4.0460 5.8189 13.7069 0.0000 -10465.8391 1398.9963 0.0000 0.0000 1796.8527 -7246.4184 309.5045 -9043.2711 -7361.2611 297.5154 7.1851 75.2630 29792.3176 -210.9675 -144.2318
TCL: Running FEP window  16: Lambda1 0.24999999999999967 Lambda2 0.19999999999999968 [dLambda -0.04999999999999999]
TCL: Setting parameter firsttimestep to 0
TCL: Setting parameter alchLambda to 0.24999999999999967
Info: NONBONDED TABLE R-SQUARED SPACING: 0.0625
Info: NONBONDED TABLE SIZE: 705 POINTS
TCL: Setting parameter alchLambda2 to 0.19999999999999968
Info: NONBONDED TABLE R-SQUARED SPACING: 0.0625
Info: NONBONDED TABLE SIZE: 705 POINTS
TCL: Running for 1500000 steps
ETITLE: TS BOND ANGLE DIHED IMPRP ELECT VDW BOUNDARY MISC KINETIC TOTAL TEMP POTENTIAL TOTALAVG TEMPAVG PRESSURE GPRESSURE VOLUME PRESSAVG GPRESSAVG
ENERGY: 0 4.0460 5.8189 13.7069 0.0000 -10465.8413 1399.2836 0.0000 0.0000 1795.9349 -7247.0509 309.3464 -9042.9859 -7247.0509 309.3464 -27.0611 70.0557 29792.3176 -27.0611 70.0557
ENERGY: 300000 4.7088 6.0869 11.8169 0.0000 -10596.9138 1488.7183 0.0000 0.0000 1738.9184 -7346.6645 299.5254 -9085.5829 -7327.4587 302.1524 433.7340 496.6054 30057.5597 74.1898 127.9116
ENERGY: 600000 3.7997 4.6694 10.9792 0.0000 -10440.8910 1295.4859 0.0000 0.0000 1715.8123 -7410.1444 295.5455 -9125.9568 -7367.0479 302.5763 -1063.3735 -1028.1482 29919.8832 3.5464 47.4264
ENERGY: 900000 5.5370 5.5326 13.2014 0.0000 -10583.1193 1429.3638 0.0000 0.0000 1766.4175 -7363.0669 304.2621 -9129.4844 -7367.7290 300.9205 64.1395 105.0439 29585.1504 -92.5734 -34.0000
ENERGY: 1200000 5.1628 3.3221 17.4036 0.0000 -10489.7352 1402.2718 0.0000 0.0000 1734.6815 -7326.8934 298.7956 -9061.5749 -7362.6676 300.5817 75.3443 127.9232 29668.8806 -9.5414 51.3883
ENERGY: 1500000 6.5909 5.0640 9.5994 0.0000 -10503.2753 1355.8847 0.0000 0.0000 1714.1825 -7411.9538 295.2647 -9126.1363 -7369.8174 299.2244 -774.4952 -787.5590 30147.1692 -47.5892 9.0002
TCL: Running FEP window  17: Lambda1 0.19999999999999968 Lambda2 0.1499999999999997 [dLambda -0.04999999999999999]
TCL: Setting parameter firsttimestep to 0
TCL: Setting parameter alchLambda to 0.19999999999999968
Info: NONBONDED TABLE R-SQUARED SPACING: 0.0625
Info: NONBONDED TABLE SIZE: 705 POINTS
TCL: Setting parameter alchLambda2 to 0.1499999999999997
Info: NONBONDED TABLE R-SQUARED SPACING: 0.0625
Info: NONBONDED TABLE SIZE: 705 POINTS
TCL: Running for 1500000 steps
ETITLE: TS BOND ANGLE DIHED IMPRP ELECT VDW BOUNDARY MISC KINETIC TOTAL TEMP POTENTIAL TOTALAVG TEMPAVG PRESSURE GPRESSURE VOLUME PRESSAVG GPRESSAVG
ENERGY: 0 6.5909 5.0640 9.5994 0.0000 -10503.2758 1356.3234 0.0000 0.0000 1713.3090 -7412.3892 295.1143 -9125.6982 -7412.3892 295.1143 -864.7650 -790.5214 30147.1692 -864.7650 -790.5214
ENERGY: 300000 3.3515 3.5939 13.0547 0.0000 -10621.7290 1484.7240 0.0000 0.0000 1727.9637 -7389.0413 297.6385 -9117.0050 -7362.4628 298.3322 82.3149 196.6731 30298.6532 -172.1742 -79.5141
ENERGY: 600000 6.7655 6.4025 9.7773 0.0000 -10449.8381 1418.5106 0.0000 0.0000 1732.9645 -7275.4176 298.4999 -9008.3821 -7328.9699 301.0895 -142.4918 -31.0066 30149.1023 -242.4788 -157.2392
ENERGY: 900000 5.0373 5.0132 13.5677 0.0000 -10385.4855 1322.5911 0.0000 0.0000 1762.2740 -7277.0022 303.5484 -9039.2762 -7324.0892 300.6744 -600.4719 -543.6001 29874.1556 -253.6881 -174.9583
ENERGY: 1200000 8.7830 6.3546 14.2750 0.0000 -10464.6319 1451.9815 0.0000 0.0000 1774.4355 -7208.8024 305.6432 -8983.2378 -7313.6585 300.9033 474.2350 524.3892 30365.8276 -167.6224 -89.0689
ENERGY: 1500000 5.7733 5.8119 10.1022 0.0000 -10499.8001 1373.3344 0.0000 0.0000 1797.2404 -7307.5379 309.5713 -9104.7783 -7316.0661 301.6144 -171.1306 -114.0328 29680.8008 -223.0110 -145.6784
TCL: Running FEP window  18: Lambda1 0.1499999999999997 Lambda2 0.09999999999999969 [dLambda -0.05 ]
TCL: Setting parameter firsttimestep to 0
TCL: Setting parameter alchLambda to 0.1499999999999997
Info: NONBONDED TABLE R-SQUARED SPACING: 0.0625
Info: NONBONDED TABLE SIZE: 705 POINTS
TCL: Setting parameter alchLambda2 to 0.09999999999999969
Info: NONBONDED TABLE R-SQUARED SPACING: 0.0625
Info: NONBONDED TABLE SIZE: 705 POINTS
TCL: Running for 1500000 steps
ETITLE: TS BOND ANGLE DIHED IMPRP ELECT VDW BOUNDARY MISC KINETIC TOTAL TEMP POTENTIAL TOTALAVG TEMPAVG PRESSURE GPRESSURE VOLUME PRESSAVG GPRESSAVG
ENERGY: 0 5.7733 5.8119 10.1022 0.0000 -10499.8000 1374.0426 0.0000 0.0000 1796.3987 -7307.6713 309.4263 -9104.0700 -7307.6713 309.4263 -182.3604 -115.7979 29680.8008 -182.3604 -115.7979
ENERGY: 300000 4.6860 6.6164 8.3842 0.0000 -10396.0123 1353.5033 0.0000 0.0000 1736.2928 -7286.5296 299.0732 -9022.8224 -7319.4884 300.4274 -445.8326 -364.9718 30177.4108 -118.5263 -44.6831
ENERGY: 600000 4.4345 4.7463 11.1191 0.0000 -10479.6708 1342.1215 0.0000 0.0000 1761.8666 -7355.3828 303.4782 -9117.2494 -7316.8224 301.5000 -753.6850 -695.9040 29934.2243 -10.1667 69.0549
ENERGY: 900000 4.6777 5.5997 11.7212 0.0000 -10506.6552 1360.4675 0.0000 0.0000 1813.0046 -7311.1844 312.2866 -9124.1890 -7315.2237 302.3465 -462.6958 -369.7330 29637.4256 -17.8261 56.8532
ENERGY: 1200000 3.9862 3.4874 12.6097 0.0000 -10499.4820 1366.1501 0.0000 0.0000 1731.0479 -7382.2006 298.1697 -9113.2485 -7334.0143 301.0496 -161.3565 -115.0880 29772.9887 -33.1211 34.3812
ENERGY: 1500000 4.1034 4.7545 13.5894 0.0000 -10430.4021 1414.5824 0.0000 0.0000 1774.2054 -7219.1670 305.6036 -8993.3725 -7327.3914 301.9427 228.1554 272.8088 30222.3853 -59.1311 0.2216
TCL: Running FEP window  19: Lambda1 0.09999999999999969 Lambda2 0.049999999999999684 [dLambda -0.05 ]
TCL: Setting parameter firsttimestep to 0
TCL: Setting parameter alchLambda to 0.09999999999999969
Info: NONBONDED TABLE R-SQUARED SPACING: 0.0625
Info: NONBONDED TABLE SIZE: 705 POINTS
TCL: Setting parameter alchLambda2 to 0.049999999999999684
Info: NONBONDED TABLE R-SQUARED SPACING: 0.0625
Info: NONBONDED TABLE SIZE: 705 POINTS
TCL: Running for 1500000 steps
ETITLE: TS BOND ANGLE DIHED IMPRP ELECT VDW BOUNDARY MISC KINETIC TOTAL TEMP POTENTIAL TOTALAVG TEMPAVG PRESSURE GPRESSURE VOLUME PRESSAVG GPRESSAVG
ENERGY: 0 4.1034 4.7545 13.5894 0.0000 -10430.4024 1415.0396 0.0000 0.0000 1773.3622 -7219.5533 305.4583 -8992.9155 -7219.5533 305.4583 193.1844 271.0509 30222.3853 193.1844 271.0509
ENERGY: 300000 6.2729 4.1095 14.0280 0.0000 -10556.0583 1485.7845 0.0000 0.0000 1767.3649 -7278.4985 304.4253 -9045.8634 -7331.0936 300.4607 657.5156 677.0215 29825.5623 61.3944 114.2007
ENERGY: 600000 4.6731 7.0878 12.5919 0.0000 -10506.4728 1344.8085 0.0000 0.0000 1779.0696 -7358.2418 306.4414 -9137.3114 -7341.9544 300.7012 -633.6540 -561.2644 29905.6884 -294.0082 -220.7808
ENERGY: 900000 4.8114 2.7740 12.3692 0.0000 -10603.6906 1517.1609 0.0000 0.0000 1736.1039 -7330.4711 299.0406 -9066.5751 -7332.2225 299.9472 673.9378 805.7077 29804.3316 -100.0682 -29.5459
ENERGY: 1200000 4.3339 8.0174 12.0370 0.0000 -10645.9371 1487.0038 0.0000 0.0000 1741.9212 -7392.6240 300.0426 -9134.5451 -7328.4185 300.8781 228.7329 343.3586 29692.0745 -73.0476 -2.0615
ENERGY: 1500000 1.2466 7.1519 10.3514 0.0000 -10433.5115 1386.4028 0.0000 0.0000 1766.6097 -7261.7492 304.2952 -9028.3589 -7329.0293 300.3261 -99.0955 -73.8133 30181.5705 -145.6505 -81.4388
TCL: Running FEP window  20: Lambda1 0.049999999999999684 Lambda2 0.0    [dLambda -0.049999999999999684]
TCL: Setting parameter firsttimestep to 0
TCL: Setting parameter alchLambda to 0.049999999999999684
Info: NONBONDED TABLE R-SQUARED SPACING: 0.0625
Info: NONBONDED TABLE SIZE: 705 POINTS
TCL: Setting parameter alchLambda2 to 0.0
Info: NONBONDED TABLE R-SQUARED SPACING: 0.0625
Info: NONBONDED TABLE SIZE: 705 POINTS
TCL: Running for 1500000 steps
ETITLE: TS BOND ANGLE DIHED IMPRP ELECT VDW BOUNDARY MISC KINETIC TOTAL TEMP POTENTIAL TOTALAVG TEMPAVG PRESSURE GPRESSURE VOLUME PRESSAVG GPRESSAVG
ENERGY: 0 1.2466 7.1519 10.3514 0.0000 -10433.5117 1383.8794 0.0000 0.0000 1765.7434 -7265.1390 304.1460 -9030.8824 -7265.1390 304.1460 -168.4247 -84.9969 30181.5705 -168.4247 -84.9969
ENERGY: 300000 7.4643 8.6410 11.5002 0.0000 -10531.3770 1444.1439 0.0000 0.0000 1699.7377 -7359.8900 292.7766 -9059.6277 -7333.1222 298.9979 -152.0023 -83.7490 30047.1740 -158.2743 -96.4219
ENERGY: 600000 6.9668 3.0146 9.8806 0.0000 -10628.5406 1463.5031 0.0000 0.0000 1752.3928 -7392.7827 301.8464 -9145.1755 -7350.7798 297.3932 577.5355 702.2812 29367.2511 35.0153 108.3944
ENERGY: 900000 3.5134 5.5597 14.3906 0.0000 -10521.3410 1436.8114 0.0000 0.0000 1771.1410 -7289.9249 305.0757 -9061.0659 -7335.2240 299.5176 66.8583 130.0675 29736.3215 -20.3882 45.0908
ENERGY: 1200000 5.6888 8.5307 12.0618 0.0000 -10606.1352 1454.6230 0.0000 0.0000 1738.7522 -7386.4786 299.4968 -9125.2308 -7332.0930 299.9329 1.9269 57.4430 29901.9771 46.2071 113.6277
ENERGY: 1500000 2.7113 5.4145 13.9471 0.0000 -10424.8689 1413.2991 0.0000 0.0000 1727.9065 -7261.5905 297.6287 -8989.4970 -7328.2587 300.1396 -17.4010 -17.6217 30352.6620 48.9731 104.8115
TCL: Exiting due to exit command.
