Info: SIMULATION PARAMETERS:
Info: TIMESTEP               2
Info: NUMBER OF STEPS        0
Info: STEPS PER CYCLE        10
Info: PERIODIC CELL BASIS 1  31.4571 0 0
Info: PERIODIC CELL BASIS 2  0 29.7928 0
Info: PERIODIC CELL BASIS 3  0 0 31.6266
Info: PERIODIC CELL CENTER   0 0 0
Info: WRAPPING WATERS AROUND PERIODIC BOUNDARIES ON OUTPUT.
Info: WRAPPING ALL CLUSTERS AROUND PERIODIC BOUNDARIES ON OUTPUT.
Info: FIRST LDB TIMESTEP     50
Info: LAST LDB TIMESTEP     -1
Info: HOM BACKGROUND SCALING 1
Info: PME BACKGROUND SCALING 1
Info: MIN ATOMS PER PATCH    40
Info: EMPTY PATCH LOAD       40 ATOMS
Info: VELOCITY FILE          mobley_7869158_equil.vel
Info: CENTER OF MASS MOVING INITIALLY? NO
Info: DIELECTRIC             1
Info: EXCLUDE                SCALED ONE-FOUR
Info: 1-4 ELECTROSTATICS SCALED BY 0.833333
Info: MODIFIED 1-4 VDW PARAMETERS WILL BE USED
Info: DCD FILENAME           mobley_7869158_prod.dcd
Info: DCD FREQUENCY          100000
Info: DCD FIRST STEP         100000
Info: DCD FILE WILL CONTAIN UNIT CELL DATA
Info: XST FILENAME           mobley_7869158_prod.xst
Info: XST FREQUENCY          100000
Info: NO VELOCITY DCD OUTPUT
Info: NO FORCE DCD OUTPUT
Info: OUTPUT FILENAME        mobley_7869158_prod
Info: BINARY OUTPUT FILES WILL BE USED
Info: RESTART FILENAME       mobley_7869158_prod.restart
Info: RESTART FREQUENCY      100000
Info: BINARY RESTART FILES WILL BE USED
Info: CUTOFF                 9
Info: PAIRLIST DISTANCE      11
Info: PAIRLIST SHRINK RATE   0.01
Info: PAIRLIST GROW RATE     0.01
Info: PAIRLIST TRIGGER       0.3
Info: PAIRLISTS PER CYCLE    2
Info: PAIRLISTS ENABLED
Info: MARGIN                 2
Info: HYDROGEN GROUP CUTOFF  2.5
Info: PATCH DIMENSION        15.5
Info: ENERGY OUTPUT STEPS    100000
Info: ENERGY EVALUATION STEPS    100000
Info: OUTPUT ENERGY PRECISION 4
Info: CROSSTERM ENERGY INCLUDED IN DIHEDRAL
Info: TIMING OUTPUT STEPS    1000000
Info: PRESSURE OUTPUT STEPS  100000
Info: ALCHEMICAL FEP ON
Info: FEP CURRENT LAMBDA VALUE     0
Info: FEP COMPARISON LAMBDA VALUE  0.05
Info: FEP INTRA-ALCHEMICAL NON-BONDED INTERACTIONS WILL BE RETAINED
Info: FEP INTRA-ALCHEMICAL BONDED INTERACTIONS WILL BE RETAINED
Info: FEP VDW SHIFTING COEFFICIENT 5
Info: FEP ELEC. ACTIVE FOR ANNIHILATED PARTICLES BETWEEN LAMBDA = 0 AND LAMBDA = 0.5
Info: FEP ELEC. ACTIVE FOR EXNIHILATED PARTICLES BETWEEN LAMBDA = 0.5 AND LAMBDA = 1
Info: FEP VDW ACTIVE FOR ANNIHILATED PARTICLES BETWEEN LAMBDA = 0 AND LAMBDA = 1
Info: FEP VDW ACTIVE FOR EXNIHILATED PARTICLES BETWEEN LAMBDA = 0 AND LAMBDA = 1
Info: FEP BOND ACTIVE FOR ANNIHILATED PARTICLES BETWEEN LAMBDA = 1 AND LAMBDA = 1
Info: FEP BOND ACTIVE FOR EXNIHILATED PARTICLES BETWEEN LAMBDA = 0 AND LAMBDA = 0
Info: LANGEVIN DYNAMICS ACTIVE
Info: LANGEVIN TEMPERATURE   300
Info: LANGEVIN USING BBK INTEGRATOR
Info: LANGEVIN DAMPING COEFFICIENT IS 1 INVERSE PS
Info: LANGEVIN DYNAMICS APPLIED TO HYDROGENS
Info: LANGEVIN PISTON PRESSURE CONTROL ACTIVE
Info:        TARGET PRESSURE IS 1.01325 BAR
Info:     OSCILLATION PERIOD IS 50 FS
Info:             DECAY TIME IS 25 FS
Info:     PISTON TEMPERATURE IS 300 K
Info:       PRESSURE CONTROL IS GROUP-BASED
Info:    INITIAL STRAIN RATE IS -1.80217e-05 -1.80217e-05 -1.80217e-05
Info:       CELL FLUCTUATION IS ISOTROPIC
Info: PARTICLE MESH EWALD (PME) ACTIVE
Info: PME TOLERANCE               1e-06
Info: PME EWALD COEFFICIENT       0.348832
Info: PME INTERPOLATION ORDER     4
Info: PME GRID DIMENSIONS         32 32 32
Info: PME MAXIMUM GRID SPACING    1
Info: PME CALCULATION WILL BE PERFORMED ON GPU
Info: FULL ELECTROSTATIC EVALUATION FREQUENCY      2
Info: USING VERLET I (r-RESPA) MTS SCHEME.
Info: C1 SPLITTING OF LONG RANGE ELECTROSTATICS
Info: PLACING ATOMS IN PATCHES BY HYDROGEN GROUPS
Info: RIGID BONDS TO HYDROGEN : ALL
Info:         ERROR TOLERANCE : 1e-08
Info:          MAX ITERATIONS : 100
Info: RIGID WATER USING SETTLE ALGORITHM
Info: RANDOM NUMBER SEED     1743913794
Info: USE HYDROGEN BONDS?    NO
Info: Using AMBER format force field!
Info: AMBER PARM FILE        mobley_7869158.prmtop
Info: COORDINATE PDB         mobley_7869158.pdb
Info: Exclusions will be read from PARM file!
Info: SCNB (VDW SCALING)     2
Info: USING ARITHMETIC MEAN TO COMBINE L-J SIGMA PARAMETERS
Info: BINARY COORDINATES     mobley_7869158_equil.coor
Info: SUMMARY OF PARAMETERS:
Info: 8 BONDS
Info: 9 ANGLES
Info:   9 HARMONIC
Info:   0 COSINE-BASED
Info: 10 DIHEDRAL
Info: 0 IMPROPER
Info: 0 CROSSTERM
Info: 0 VDW
Info: 36 VDW_PAIRS
Info: 0 NBTHOLE_PAIRS
Info: To read alchdata from file: mobley_7869158.pdb
Info: To read alchflag data from column: 5
Info: STRUCTURE SUMMARY:
Info: 2939 ATOMS
Info: 2938 BONDS
Info: 28 ANGLES
Info: 39 DIHEDRALS
Info: 0 IMPROPERS
Info: 0 CROSSTERMS
Info: 2998 EXCLUSIONS
Info: 2931 RIGID BONDS
Info: ALCH: 0 ATOMS TO DISAPPEAR IN FINAL STATE
Info: ALCH: 17 ATOMS TO APPEAR IN FINAL STATE
Info: 5886 DEGREES OF FREEDOM
Info: 982 HYDROGEN GROUPS
Info: 4 ATOMS IN LARGEST HYDROGEN GROUP
Info: 982 MIGRATION GROUPS
Info: 4 ATOMS IN LARGEST MIGRATION GROUP
Info: TOTAL MASS = 17666.7 amu
Info: TOTAL CHARGE = 1.49012e-08 e
Info: MASS DENSITY = 0.989765 g/cm^3
Info: ATOM DENSITY = 0.0991555 atoms/A^3
Info: ADDED 0 IMPLICIT EXCLUSIONS
Info: NONBONDED TABLE R-SQUARED SPACING: 0.0625
Info: NONBONDED TABLE SIZE: 705 POINTS
Info: REMOVING COM VELOCITY -0.114575 0.0391787 0.0384545
Info: Use 3D box decompostion in PME FFT.
Info: Updated CUDA force table with 4096 elements.
Info: Updated CUDA LJ table with 8 x 8 elements.
Info: Found 20 unique exclusion lists needing 44 bytes
TCL: Running for 1500000 steps
ETITLE: TS BOND ANGLE DIHED IMPRP ELECT VDW BOUNDARY MISC KINETIC TOTAL TEMP POTENTIAL TOTALAVG TEMPAVG PRESSURE GPRESSURE VOLUME PRESSAVG GPRESSAVG
ENERGY: 0 1.8297 7.6640 5.5303 0.0000 -10653.8086 1487.1261 0.0000 0.0000 1724.8022 -7426.8563 294.9235 -9151.6585 -7426.8563 294.9235 768.0830 854.3916 29640.3054 768.0830 854.3916
ENERGY: 300000 1.5600 8.0778 3.5372 0.0000 -10594.6304 1418.7309 0.0000 0.0000 1757.5651 -7405.1593 300.5257 -9162.7245 -7438.9395 297.8445 -78.0513 14.6938 30410.4346 170.5598 216.5007
ENERGY: 600000 6.0253 4.3620 5.7089 0.0000 -10762.5233 1415.0075 0.0000 0.0000 1766.2944 -7565.1252 302.0183 -9331.4196 -7456.1397 299.4146 -660.4751 -630.6281 30044.5876 43.9548 84.3887
ENERGY: 900000 1.1019 7.6307 3.4030 0.0000 -10632.2451 1457.5585 0.0000 0.0000 1763.1970 -7399.3539 301.4887 -9162.5510 -7457.7496 299.1311 289.8802 331.7748 30334.4412 30.1909 78.2655
ENERGY: 1200000 5.3575 8.3256 3.9864 0.0000 -10661.1298 1435.7266 0.0000 0.0000 1776.6631 -7431.0706 303.7912 -9207.7337 -7447.6258 299.9258 45.5526 125.9612 29633.1074 24.2050 79.9025
ENERGY: 1500000 1.8663 5.2307 2.1616 0.0000 -10624.5807 1406.5779 0.0000 0.0000 1757.9503 -7450.7938 300.5915 -9208.7441 -7445.6558 300.3293 -352.3406 -288.2383 30300.0437 -41.4801 18.2345
TCL: Running FEP window   2: Lambda1 0.05   Lambda2 0.1    [dLambda 0.05  ]
TCL: Setting parameter firsttimestep to 0
TCL: Setting parameter alchLambda to 0.05
Info: NONBONDED TABLE R-SQUARED SPACING: 0.0625
Info: NONBONDED TABLE SIZE: 705 POINTS
TCL: Setting parameter alchLambda2 to 0.1
Info: NONBONDED TABLE R-SQUARED SPACING: 0.0625
Info: NONBONDED TABLE SIZE: 705 POINTS
TCL: Running for 1500000 steps
ETITLE: TS BOND ANGLE DIHED IMPRP ELECT VDW BOUNDARY MISC KINETIC TOTAL TEMP POTENTIAL TOTALAVG TEMPAVG PRESSURE GPRESSURE VOLUME PRESSAVG GPRESSAVG
ENERGY: 0 1.8663 5.2307 2.1616 0.0000 -10624.5812 1408.7035 0.0000 0.0000 1757.0565 -7449.5625 300.4387 -9206.6190 -7449.5625 300.4387 -374.9603 -283.5383 30300.0437 -374.9603 -283.5383
ENERGY: 300000 0.7217 7.1774 4.7859 0.0000 -10646.7409 1418.9748 0.0000 0.0000 1785.5883 -7429.4928 305.3173 -9215.0811 -7455.1866 301.6809 -24.4235 30.5600 29728.2909 -221.7182 -122.0865
ENERGY: 600000 1.4968 7.2238 5.9662 0.0000 -10596.8423 1420.5451 0.0000 0.0000 1765.9808 -7395.6297 301.9646 -9161.6105 -7451.9286 298.9509 -180.7220 -113.4761 30042.3614 -118.6266 -37.9519
ENERGY: 900000 4.0137 6.8413 3.5918 0.0000 -10628.1831 1431.7516 0.0000 0.0000 1797.4431 -7384.5415 307.3444 -9181.9846 -7442.5625 300.8177 -129.1376 -96.5709 30767.6243 -115.9210 -51.1948
ENERGY: 1200000 3.4278 8.8473 4.0970 0.0000 -10752.3372 1475.3078 0.0000 0.0000 1772.8629 -7487.7945 303.1414 -9260.6573 -7441.3699 301.5274 152.9609 231.0931 30159.7930 -138.4107 -76.4553
ENERGY: 1500000 1.2596 13.0820 5.2224 0.0000 -10741.3806 1494.9680 0.0000 0.0000 1714.7027 -7512.1459 293.1966 -9226.8486 -7453.5779 300.6659 736.8949 833.2368 29367.6759 -82.1346 -11.3186
TCL: Running FEP window   3: Lambda1 0.1    Lambda2 0.15000000000000002 [dLambda 0.05000000000000002]
TCL: Setting parameter firsttimestep to 0
TCL: Setting parameter alchLambda to 0.1
Info: NONBONDED TABLE R-SQUARED SPACING: 0.0625
Info: NONBONDED TABLE SIZE: 705 POINTS
TCL: Setting parameter alchLambda2 to 0.15000000000000002
Info: NONBONDED TABLE R-SQUARED SPACING: 0.0625
Info: NONBONDED TABLE SIZE: 705 POINTS
TCL: Running for 1500000 steps
ETITLE: TS BOND ANGLE DIHED IMPRP ELECT VDW BOUNDARY MISC KINETIC TOTAL TEMP POTENTIAL TOTALAVG TEMPAVG PRESSURE GPRESSURE VOLUME PRESSAVG GPRESSAVG
ENERGY: 0 1.2596 13.0820 5.2224 0.0000 -10741.3798 1497.2495 0.0000 0.0000 1713.8468 -7510.7195 293.0503 -9224.5663 -7510.7195 293.0503 766.1489 843.6263 29367.6759 766.1489 843.6263
ENERGY: 300000 1.1357 11.3332 3.2819 0.0000 -10506.8248 1342.2646 0.0000 0.0000 1775.5390 -7373.2705 303.5990 -9148.8095 -7482.6776 298.6225 -644.9386 -585.5119 30136.6794 109.8153 196.9530
ENERGY: 600000 2.2999 7.0449 3.9189 0.0000 -10577.4060 1382.3654 0.0000 0.0000 1788.6884 -7393.0885 305.8474 -9181.7769 -7454.6317 299.9707 -525.9592 -493.2580 30547.5387 -71.7016 -13.0546
ENERGY: 900000 2.0018 9.5762 6.2159 0.0000 -10579.0129 1421.2257 0.0000 0.0000 1763.8303 -7376.1630 301.5969 -9139.9933 -7442.1960 299.6450 58.4301 87.8712 30263.7344 -97.9119 -41.4361
ENERGY: 1200000 0.7380 9.4132 2.9645 0.0000 -10650.3461 1426.8996 0.0000 0.0000 1695.7514 -7514.5794 289.9561 -9210.3308 -7458.4602 299.0645 -97.3687 -39.7728 30084.3222 -83.6882 -29.3270
ENERGY: 1500000 0.6798 8.4156 4.1954 0.0000 -10530.0791 1372.0119 0.0000 0.0000 1775.1877 -7369.5888 303.5389 -9144.7765 -7454.3768 299.6689 -466.3242 -428.8802 30393.8466 -82.5113 -21.7187
TCL: Running FEP window   4: Lambda1 0.15000000000000002 Lambda2 0.2    [dLambda 0.04999999999999999]
TCL: Setting parameter firsttimestep to 0
TCL: Setting parameter alchLambda to 0.15000000000000002
Info: NONBONDED TABLE R-SQUARED SPACING: 0.0625
Info: NONBONDED TABLE SIZE: 705 POINTS
TCL: Setting parameter alchLambda2 to 0.2
Info: NONBONDED TABLE R-SQUARED SPACING: 0.0625
Info: NONBONDED TABLE SIZE: 705 POINTS
TCL: Running for 1500000 steps
ETITLE: TS BOND ANGLE DIHED IMPRP ELECT VDW BOUNDARY MISC KINETIC TOTAL TEMP POTENTIAL TOTALAVG TEMPAVG PRESSURE GPRESSURE VOLUME PRESSAVG GPRESSAVG
ENERGY: 0 0.6798 8.4156 4.1954 0.0000 -10530.0796 1373.4324 0.0000 0.0000 1774.3263 -7369.0300 303.3917 -9143.3563 -7369.0300 303.3917 -515.7443 -422.4254 30393.8466 -515.7443 -422.4254
ENERGY: 300000 4.9853 7.3451 3.9718 0.0000 -10625.9880 1438.5779 0.0000 0.0000 1756.0810 -7415.0269 300.2719 -9171.1079 -7418.3479 303.8299 -124.0013 -8.0568 30504.5089 -310.7190 -219.5848
ENERGY: 600000 0.9712 9.3559 6.6875 0.0000 -10733.6336 1510.1195 0.0000 0.0000 1758.0467 -7448.4528 300.6080 -9206.4995 -7420.4209 303.8324 713.8032 735.8565 29789.8205 -6.1261 69.2870
ENERGY: 900000 3.1040 8.0202 6.0706 0.0000 -10722.8535 1447.8114 0.0000 0.0000 1797.1298 -7460.7174 307.2908 -9257.8472 -7429.7732 303.7743 -39.4587 -18.7152 30169.0053 -13.0318 57.9738
ENERGY: 1200000 2.5061 9.0885 5.1653 0.0000 -10713.4253 1445.4260 0.0000 0.0000 1778.1948 -7473.0447 304.0531 -9251.2394 -7432.6663 304.0486 -316.7274 -157.5198 30183.9010 -24.1444 52.7225
ENERGY: 1500000 4.0888 13.8622 5.1993 0.0000 -10649.2530 1513.3005 0.0000 0.0000 1719.7015 -7393.1008 294.0514 -9112.8023 -7434.3696 302.6585 840.1447 879.9101 30151.2736 7.1664 79.5998
TCL: Running FEP window   5: Lambda1 0.2    Lambda2 0.25   [dLambda 0.04999999999999999]
TCL: Setting parameter firsttimestep to 0
TCL: Setting parameter alchLambda to 0.2
Info: NONBONDED TABLE R-SQUARED SPACING: 0.0625
Info: NONBONDED TABLE SIZE: 705 POINTS
TCL: Setting parameter alchLambda2 to 0.25
Info: NONBONDED TABLE R-SQUARED SPACING: 0.0625
Info: NONBONDED TABLE SIZE: 705 POINTS
TCL: Running for 1500000 steps
ETITLE: TS BOND ANGLE DIHED IMPRP ELECT VDW BOUNDARY MISC KINETIC TOTAL TEMP POTENTIAL TOTALAVG TEMPAVG PRESSURE GPRESSURE VOLUME PRESSAVG GPRESSAVG
ENERGY: 0 4.0888 13.8622 5.1993 0.0000 -10649.2535 1512.7933 0.0000 0.0000 1718.8357 -7394.4743 293.9033 -9113.3099 -7394.4743 293.9033 780.9413 879.9273 30151.2736 780.9413 879.9273
ENERGY: 300000 1.8976 9.4223 3.3052 0.0000 -10544.4663 1363.1972 0.0000 0.0000 1766.2949 -7400.3489 302.0184 -9166.6439 -7421.1958 299.6348 -378.2286 -307.2213 30041.4901 -158.9969 -49.8576
ENERGY: 600000 2.0077 7.5365 2.7589 0.0000 -10719.6130 1450.2714 0.0000 0.0000 1705.2206 -7551.8178 291.5753 -9257.0384 -7437.7505 300.2089 -216.4673 -123.4695 30345.0314 -50.9274 41.2428
ENERGY: 900000 1.0985 8.3578 3.4955 0.0000 -10653.6889 1426.1027 0.0000 0.0000 1756.1539 -7458.4805 300.2843 -9214.6344 -7434.6232 300.6839 -6.7195 33.7028 30189.2133 -124.7362 -43.3159
ENERGY: 1200000 4.6592 6.6618 4.9843 0.0000 -10754.4590 1512.0647 0.0000 0.0000 1730.8425 -7495.2465 295.9564 -9226.0890 -7439.2641 301.2212 486.2493 574.5086 29940.7883 -89.9522 -4.1685
ENERGY: 1500000 1.8467 5.4480 2.6477 0.0000 -10716.0598 1484.3514 0.0000 0.0000 1790.4203 -7431.3457 306.1435 -9221.7659 -7438.9990 301.2696 509.5691 557.9997 30048.2953 14.3901 96.6236
TCL: Running FEP window   6: Lambda1 0.25   Lambda2 0.3    [dLambda 0.04999999999999999]
TCL: Setting parameter firsttimestep to 0
TCL: Setting parameter alchLambda to 0.25
Info: NONBONDED TABLE R-SQUARED SPACING: 0.0625
Info: NONBONDED TABLE SIZE: 705 POINTS
TCL: Setting parameter alchLambda2 to 0.3
Info: NONBONDED TABLE R-SQUARED SPACING: 0.0625
Info: NONBONDED TABLE SIZE: 705 POINTS
TCL: Running for 1500000 steps
ETITLE: TS BOND ANGLE DIHED IMPRP ELECT VDW BOUNDARY MISC KINETIC TOTAL TEMP POTENTIAL TOTALAVG TEMPAVG PRESSURE GPRESSURE VOLUME PRESSAVG GPRESSAVG
ENERGY: 0 1.8467 5.4480 2.6477 0.0000 -10716.0593 1484.9534 0.0000 0.0000 1789.5557 -7431.6077 305.9957 -9221.1635 -7431.6077 305.9957 483.6515 563.4290 30048.2953 483.6515 563.4290
ENERGY: 300000 2.2522 6.0304 4.9506 0.0000 -10603.9071 1374.9041 0.0000 0.0000 1763.2787 -7452.4912 301.5026 -9215.7699 -7436.9662 303.2415 -510.6147 -476.1385 30204.4218 -52.3479 -7.9506
ENERGY: 600000 4.9711 8.3331 3.0158 0.0000 -10642.0430 1456.5119 0.0000 0.0000 1795.4762 -7373.7349 307.0081 -9169.2111 -7427.9307 302.8398 196.1502 300.9459 30033.7480 -22.7082 42.4318
ENERGY: 900000 1.9801 9.8877 3.9190 0.0000 -10657.1304 1485.1672 0.0000 0.0000 1749.1209 -7407.0555 299.0818 -9156.1764 -7431.3641 302.2156 412.2830 436.7158 30218.3279 14.0125 63.5656
ENERGY: 1200000 4.1975 7.4125 3.9406 0.0000 -10598.0389 1457.1778 0.0000 0.0000 1746.7254 -7378.5851 298.6722 -9125.3105 -7413.4274 302.0107 217.5225 272.6635 30398.2886 -21.7776 20.1676
ENERGY: 1500000 5.2394 8.0192 5.1559 0.0000 -10595.0516 1368.0850 0.0000 0.0000 1828.6508 -7379.9013 312.6806 -9208.5521 -7425.8110 301.6839 -755.9647 -672.8820 30343.1715 -91.4164 -43.7489
TCL: Running FEP window   7: Lambda1 0.3    Lambda2 0.35   [dLambda 0.04999999999999999]
TCL: Setting parameter firsttimestep to 0
TCL: Setting parameter alchLambda to 0.3
Info: NONBONDED TABLE R-SQUARED SPACING: 0.0625
Info: NONBONDED TABLE SIZE: 705 POINTS
TCL: Setting parameter alchLambda2 to 0.35
Info: NONBONDED TABLE R-SQUARED SPACING: 0.0625
Info: NONBONDED TABLE SIZE: 705 POINTS
TCL: Running for 1500000 steps
ETITLE: TS BOND ANGLE DIHED IMPRP ELECT VDW BOUNDARY MISC KINETIC TOTAL TEMP POTENTIAL TOTALAVG TEMPAVG PRESSURE GPRESSURE VOLUME PRESSAVG GPRESSAVG
ENERGY: 0 5.2394 8.0192 5.1559 0.0000 -10595.0528 1368.3086 0.0000 0.0000 1827.7836 -7380.5461 312.5323 -9208.3297 -7380.5461 312.5323 -754.3489 -667.7745 30343.1715 -754.3489 -667.7745
ENERGY: 300000 3.3983 5.2589 3.8813 0.0000 -10599.7532 1391.6229 0.0000 0.0000 1784.9505 -7410.6413 305.2083 -9195.5918 -7422.6190 304.0041 -284.8948 -297.4369 30504.9327 -417.8570 -387.0019
ENERGY: 600000 1.0134 6.8368 3.3325 0.0000 -10642.8943 1426.9519 0.0000 0.0000 1713.6953 -7491.0644 293.0244 -9204.7597 -7429.8373 300.8220 -77.0605 -82.2064 30222.2515 -130.0826 -96.1203
ENERGY: 900000 3.1590 4.4327 3.6698 0.0000 -10752.2679 1479.2772 0.0000 0.0000 1750.6855 -7511.0437 299.3493 -9261.7293 -7440.2668 300.9975 -58.8457 1.5393 30430.2957 -18.5747 23.8775
ENERGY: 1200000 2.4515 7.2223 4.6271 0.0000 -10609.3375 1393.0382 0.0000 0.0000 1743.6865 -7458.3119 298.1525 -9201.9984 -7441.5535 301.2000 -212.4838 -164.1114 30305.3536 10.3449 55.1259
ENERGY: 1500000 3.6765 7.1529 2.6102 0.0000 -10709.2295 1436.6139 0.0000 0.0000 1805.8168 -7453.3592 308.7762 -9259.1760 -7432.0916 301.9035 -127.5564 -111.3837 30316.3242 49.5532 92.3633
TCL: Running FEP window   8: Lambda1 0.35   Lambda2 0.39999999999999997 [dLambda 0.04999999999999999]
TCL: Setting parameter firsttimestep to 0
TCL: Setting parameter alchLambda to 0.35
Info: NONBONDED TABLE R-SQUARED SPACING: 0.0625
Info: NONBONDED TABLE SIZE: 705 POINTS
TCL: Setting parameter alchLambda2 to 0.39999999999999997
Info: NONBONDED TABLE R-SQUARED SPACING: 0.0625
Info: NONBONDED TABLE SIZE: 705 POINTS
TCL: Running for 1500000 steps
ETITLE: TS BOND ANGLE DIHED IMPRP ELECT VDW BOUNDARY MISC KINETIC TOTAL TEMP POTENTIAL TOTALAVG TEMPAVG PRESSURE GPRESSURE VOLUME PRESSAVG GPRESSAVG
ENERGY: 0 3.6765 7.1529 2.6102 0.0000 -10709.2289 1436.0562 0.0000 0.0000 1804.9397 -7454.7934 308.6262 -9259.7331 -7454.7934 308.6262 -199.0887 -111.8042 30316.3242 -199.0887 -111.8042
ENERGY: 300000 2.8665 5.5783 5.7728 0.0000 -10576.1074 1394.5486 0.0000 0.0000 1782.7193 -7384.6218 304.8268 -9167.3411 -7439.7505 301.6315 -326.3769 -266.4616 30583.8365 -127.0497 -41.0539
ENERGY: 600000 4.5188 5.3703 3.4299 0.0000 -10653.6070 1390.9835 0.0000 0.0000 1735.1833 -7514.1212 296.6986 -9249.3045 -7446.7956 301.0602 -567.6242 -553.2189 30411.0792 -313.3259 -241.4499
ENERGY: 900000 3.1232 7.2301 4.2490 0.0000 -10641.2255 1383.1028 0.0000 0.0000 1727.3797 -7516.1406 295.3643 -9243.5203 -7446.4963 300.5830 -434.2424 -478.0930 30203.8816 -378.3575 -313.9015
ENERGY: 1200000 2.4473 8.6257 3.4711 0.0000 -10724.2869 1494.3328 0.0000 0.0000 1702.6264 -7512.7835 291.1317 -9215.4099 -7454.0880 300.5221 664.4014 700.5893 29773.5849 -161.6525 -101.0464
ENERGY: 1500000 5.0260 7.6004 7.6265 0.0000 -10617.9051 1459.7395 0.0000 0.0000 1762.0433 -7375.8694 301.2914 -9137.9127 -7436.6484 301.0299 -166.6086 -144.7380 30840.6982 -117.6776 -52.7708
TCL: Running FEP window   9: Lambda1 0.39999999999999997 Lambda2 0.44999999999999996 [dLambda 0.04999999999999999]
TCL: Setting parameter firsttimestep to 0
TCL: Setting parameter alchLambda to 0.39999999999999997
Info: NONBONDED TABLE R-SQUARED SPACING: 0.0625
Info: NONBONDED TABLE SIZE: 705 POINTS
TCL: Setting parameter alchLambda2 to 0.44999999999999996
Info: NONBONDED TABLE R-SQUARED SPACING: 0.0625
Info: NONBONDED TABLE SIZE: 705 POINTS
TCL: Running for 1500000 steps
ETITLE: TS BOND ANGLE DIHED IMPRP ELECT VDW BOUNDARY MISC KINETIC TOTAL TEMP POTENTIAL TOTALAVG TEMPAVG PRESSURE GPRESSURE VOLUME PRESSAVG GPRESSAVG
ENERGY: 0 5.0260 7.6004 7.6265 0.0000 -10617.9051 1460.5940 0.0000 0.0000 1761.1846 -7375.8735 301.1445 -9137.0581 -7375.8735 301.1445 -196.8190 -133.9278 30840.6982 -196.8190 -133.9278
ENERGY: 300000 0.6510 10.4218 3.6091 0.0000 -10633.9737 1418.9019 0.0000 0.0000 1758.1796 -7442.2103 300.6307 -9200.3899 -7410.4985 301.3043 70.1979 139.9327 30073.0886 -164.6847 -105.8930
ENERGY: 600000 3.0974 8.9308 3.7553 0.0000 -10597.1440 1379.2102 0.0000 0.0000 1745.9309 -7456.2195 298.5363 -9202.1504 -7430.2505 301.3029 -396.9493 -293.4787 29900.0005 -253.1564 -173.4651
ENERGY: 900000 2.3505 8.5707 6.0288 0.0000 -10638.5718 1444.8161 0.0000 0.0000 1719.7596 -7457.0460 294.0613 -9176.8056 -7422.5289 301.0386 28.6203 144.5437 30203.4292 -176.9148 -101.2543
ENERGY: 1200000 1.5132 6.7550 2.4983 0.0000 -10477.2497 1310.1102 0.0000 0.0000 1693.4212 -7462.9518 289.5577 -9156.3730 -7424.4289 299.9656 -942.9043 -865.5008 30323.3177 -187.3014 -115.1426
ENERGY: 1500000 0.8756 7.4334 2.4907 0.0000 -10808.3525 1500.6461 0.0000 0.0000 1691.1850 -7605.7217 289.1753 -9296.9067 -7447.8401 298.9070 482.5463 618.6769 29638.2462 -73.5572 1.0840
TCL: Running FEP window  10: Lambda1 0.44999999999999996 Lambda2 0.49999999999999994 [dLambda 0.04999999999999999]
TCL: Setting parameter firsttimestep to 0
TCL: Setting parameter alchLambda to 0.44999999999999996
Info: NONBONDED TABLE R-SQUARED SPACING: 0.0625
Info: NONBONDED TABLE SIZE: 705 POINTS
TCL: Setting parameter alchLambda2 to 0.49999999999999994
Info: NONBONDED TABLE R-SQUARED SPACING: 0.0625
Info: NONBONDED TABLE SIZE: 705 POINTS
TCL: Running for 1500000 steps
ETITLE: TS BOND ANGLE DIHED IMPRP ELECT VDW BOUNDARY MISC KINETIC TOTAL TEMP POTENTIAL TOTALAVG TEMPAVG PRESSURE GPRESSURE VOLUME PRESSAVG GPRESSAVG
ENERGY: 0 0.8756 7.4334 2.4907 0.0000 -10808.3528 1500.6507 0.0000 0.0000 1690.3198 -7606.5825 289.0274 -9296.9023 -7606.5825 289.0274 545.3680 625.1398 29638.2462 545.3680 625.1398
ENERGY: 300000 2.9404 6.4712 2.6787 0.0000 -10731.0546 1594.6013 0.0000 0.0000 1774.5481 -7349.8149 303.4296 -9124.3630 -7486.8856 297.2722 1385.5353 1460.2478 30341.0999 360.8074 426.7307
ENERGY: 600000 2.5964 7.1541 4.2966 0.0000 -10657.6208 1423.8294 0.0000 0.0000 1741.5820 -7478.1623 297.7927 -9219.7443 -7465.0380 299.7470 -180.5483 -128.3258 29989.8885 198.5610 277.3982
ENERGY: 900000 2.7360 6.8119 2.9910 0.0000 -10726.1739 1533.8755 0.0000 0.0000 1813.8905 -7365.8691 310.1567 -9179.7596 -7445.3391 301.4392 846.8370 917.9535 30292.3595 357.5379 432.0315
ENERGY: 1200000 2.3697 8.3550 3.9060 0.0000 -10614.6457 1461.3229 0.0000 0.0000 1821.2912 -7317.4010 311.4222 -9138.6921 -7427.4398 302.6248 570.5639 645.9381 30057.8269 235.3453 307.9518
ENERGY: 1500000 2.1305 10.6442 4.3446 0.0000 -10744.2742 1493.1423 0.0000 0.0000 1810.3090 -7423.7036 309.5443 -9234.0126 -7432.0335 302.2588 547.4021 588.5238 30167.6262 275.4046 342.1521
TCL: Running FEP window  11: Lambda1 0.49999999999999994 Lambda2 0.5499999999999999 [dLambda 0.04999999999999999]
TCL: Setting parameter firsttimestep to 0
TCL: Setting parameter alchLambda to 0.49999999999999994
Info: NONBONDED TABLE R-SQUARED SPACING: 0.0625
Info: NONBONDED TABLE SIZE: 705 POINTS
TCL: Setting parameter alchLambda2 to 0.5499999999999999
Info: NONBONDED TABLE R-SQUARED SPACING: 0.0625
Info: NONBONDED TABLE SIZE: 705 POINTS
TCL: Running for 1500000 steps
ETITLE: TS BOND ANGLE DIHED IMPRP ELECT VDW BOUNDARY MISC KINETIC TOTAL TEMP POTENTIAL TOTALAVG TEMPAVG PRESSURE GPRESSURE VOLUME PRESSAVG GPRESSAVG
ENERGY: 0 2.1305 10.6442 4.3446 0.0000 -10744.2743 1492.9422 0.0000 0.0000 1809.4374 -7424.7754 309.3953 -9234.2127 -7424.7754 309.3953 518.7619 592.8917 30167.6262 518.7619 592.8917
ENERGY: 300000 1.7681 8.2330 4.3184 0.0000 -10697.2498 1471.9127 0.0000 0.0000 1740.7554 -7470.2621 297.6514 -9211.0175 -7420.8400 301.2549 396.2568 458.0717 29816.5692 225.4772 315.3232
ENERGY: 600000 2.7251 6.5661 4.4455 0.0000 -10756.1189 1472.1210 0.0000 0.0000 1727.6107 -7542.6505 295.4037 -9270.2612 -7465.8241 299.2451 319.7589 395.8844 29829.6982 27.4890 106.2793
ENERGY: 900000 0.6030 12.2999 6.5217 0.0000 -10682.9241 1473.1163 0.0000 0.0000 1728.4995 -7461.8836 295.5557 -9190.3832 -7469.7853 299.2906 398.4542 494.0238 30137.1630 81.8805 160.5692
ENERGY: 1200000 2.5218 5.1725 4.2602 0.0000 -10565.5878 1361.2466 0.0000 0.0000 1738.6461 -7453.7406 297.2907 -9192.3867 -7473.5533 298.8208 -593.2626 -537.2160 30393.6088 58.1032 138.1542
ENERGY: 1500000 1.9545 7.8784 2.6572 0.0000 -10564.2887 1424.2488 0.0000 0.0000 1767.8965 -7359.6534 302.2922 -9127.5499 -7463.0768 299.7045 188.1903 237.4688 30271.2680 -14.1113 64.5840
TCL: Running FEP window  12: Lambda1 0.5499999999999999 Lambda2 0.6    [dLambda 0.050000000000000044]
TCL: Setting parameter firsttimestep to 0
TCL: Setting parameter alchLambda to 0.5499999999999999
Info: NONBONDED TABLE R-SQUARED SPACING: 0.0625
Info: NONBONDED TABLE SIZE: 705 POINTS
TCL: Setting parameter alchLambda2 to 0.6
Info: NONBONDED TABLE R-SQUARED SPACING: 0.0625
Info: NONBONDED TABLE SIZE: 705 POINTS
TCL: Running for 1500000 steps
ETITLE: TS BOND ANGLE DIHED IMPRP ELECT VDW BOUNDARY MISC KINETIC TOTAL TEMP POTENTIAL TOTALAVG TEMPAVG PRESSURE GPRESSURE VOLUME PRESSAVG GPRESSAVG
ENERGY: 0 1.9545 7.8784 2.6572 0.0000 -10564.3367 1423.5705 0.0000 0.0000 1767.0192 -7361.2569 302.1422 -9128.2762 -7361.2569 302.1422 146.8017 238.8084 30271.2680 146.8017 238.8084
ENERGY: 300000 0.5251 12.3584 4.3020 0.0000 -10809.0758 1549.2163 0.0000 0.0000 1783.2978 -7459.3762 304.9257 -9242.6740 -7450.0987 302.2529 1076.1962 1069.4565 29849.6942 289.5476 347.9059
ENERGY: 600000 3.2631 6.9415 4.6060 0.0000 -10595.9243 1327.5573 0.0000 0.0000 1757.2203 -7496.3360 300.4667 -9253.5563 -7419.7355 302.7440 -1075.6049 -979.8763 30452.3166 81.5161 132.0644
ENERGY: 900000 1.8207 10.0653 5.1313 0.0000 -10587.0330 1413.3367 0.0000 0.0000 1792.2363 -7364.4428 306.4541 -9156.6791 -7426.6091 302.5021 61.4411 42.0388 30216.2610 0.6922 51.1404
ENERGY: 1200000 2.5346 7.0628 3.9590 0.0000 -10625.1196 1442.2197 0.0000 0.0000 1744.2928 -7425.0505 298.2562 -9169.3434 -7438.2295 301.3977 92.0527 123.0658 30220.4362 32.0681 77.9929
ENERGY: 1500000 1.7550 7.9356 4.0981 0.0000 -10626.1193 1452.3690 0.0000 0.0000 1771.0290 -7388.9325 302.8278 -9159.9615 -7442.6292 301.3698 372.3776 456.6581 30258.3492 34.5849 86.1313
TCL: Running FEP window  13: Lambda1 0.6    Lambda2 0.65   [dLambda 0.050000000000000044]
TCL: Setting parameter firsttimestep to 0
TCL: Setting parameter alchLambda to 0.6
Info: NONBONDED TABLE R-SQUARED SPACING: 0.0625
Info: NONBONDED TABLE SIZE: 705 POINTS
TCL: Setting parameter alchLambda2 to 0.65
Info: NONBONDED TABLE R-SQUARED SPACING: 0.0625
Info: NONBONDED TABLE SIZE: 705 POINTS
TCL: Running for 1500000 steps
ETITLE: TS BOND ANGLE DIHED IMPRP ELECT VDW BOUNDARY MISC KINETIC TOTAL TEMP POTENTIAL TOTALAVG TEMPAVG PRESSURE GPRESSURE VOLUME PRESSAVG GPRESSAVG
ENERGY: 0 1.7550 7.9356 4.0981 0.0000 -10626.7488 1452.9613 0.0000 0.0000 1770.1994 -7389.7994 302.6860 -9159.9988 -7389.7994 302.6860 377.0730 465.2265 30258.3492 377.0730 465.2265
ENERGY: 300000 0.5646 7.9514 4.6994 0.0000 -10717.3684 1477.9056 0.0000 0.0000 1771.3448 -7454.9026 302.8818 -9226.2474 -7438.1941 301.1052 480.0536 510.5677 29974.9393 113.9169 180.8816
ENERGY: 600000 1.8338 6.7995 2.8597 0.0000 -10671.4554 1518.6207 0.0000 0.0000 1820.6240 -7320.7176 311.3081 -9141.3417 -7434.8714 301.3632 760.9358 828.2397 30285.3539 184.5870 248.1036
ENERGY: 900000 0.6894 10.1950 4.0553 0.0000 -10571.4561 1384.4752 0.0000 0.0000 1778.8093 -7393.2319 304.1582 -9172.0412 -7429.3609 301.2667 -217.0963 -135.0531 30348.3745 117.8345 182.7230
ENERGY: 1200000 1.9189 7.4373 4.7043 0.0000 -10806.1187 1528.4679 0.0000 0.0000 1747.5539 -7516.0364 298.8138 -9263.5904 -7442.8906 300.8778 669.4898 770.5193 29973.9848 40.6989 108.1837
ENERGY: 1500000 1.8317 7.0169 4.9424 0.0000 -10662.6713 1374.1559 0.0000 0.0000 1778.3512 -7496.3732 304.0799 -9274.7244 -7446.3528 301.2156 -550.1929 -476.4453 30210.3515 6.7060 74.3857
TCL: Running FEP window  14: Lambda1 0.65   Lambda2 0.7000000000000001 [dLambda 0.050000000000000044]
TCL: Setting parameter firsttimestep to 0
TCL: Setting parameter alchLambda to 0.65
Info: NONBONDED TABLE R-SQUARED SPACING: 0.0625
Info: NONBONDED TABLE SIZE: 705 POINTS
TCL: Setting parameter alchLambda2 to 0.7000000000000001
Info: NONBONDED TABLE R-SQUARED SPACING: 0.0625
Info: NONBONDED TABLE SIZE: 705 POINTS
TCL: Running for 1500000 steps
ETITLE: TS BOND ANGLE DIHED IMPRP ELECT VDW BOUNDARY MISC KINETIC TOTAL TEMP POTENTIAL TOTALAVG TEMPAVG PRESSURE GPRESSURE VOLUME PRESSAVG GPRESSAVG
ENERGY: 0 1.8317 7.0169 4.9424 0.0000 -10662.7889 1373.5674 0.0000 0.0000 1777.5048 -7497.9257 303.9351 -9275.4305 -7497.9257 303.9351 -563.6458 -473.9749 30210.3515 -563.6458 -473.9749
ENERGY: 300000 1.3563 8.6546 6.1450 0.0000 -10693.0955 1474.0386 0.0000 0.0000 1757.9050 -7444.9959 300.5838 -9202.9009 -7446.2961 305.3105 357.3955 379.4053 30318.5568 198.4000 257.1742
ENERGY: 600000 1.5121 8.3912 7.7193 0.0000 -10537.5258 1347.9603 0.0000 0.0000 1720.0562 -7451.8868 294.1120 -9171.9430 -7446.8363 302.1402 -813.4336 -724.2428 30899.9758 -38.7370 22.5543
ENERGY: 900000 3.5869 5.2633 4.1854 0.0000 -10557.7912 1317.1291 0.0000 0.0000 1731.6365 -7495.9899 296.0921 -9227.6264 -7460.7117 300.8432 -915.7052 -888.9794 30090.6223 -112.8485 -59.8604
ENERGY: 1200000 2.2209 10.9417 3.0044 0.0000 -10456.6665 1290.9840 0.0000 0.0000 1767.3152 -7382.2003 302.1928 -9149.5155 -7450.5802 300.8829 -610.2834 -567.3028 30169.2112 -69.0954 -14.1144
ENERGY: 1500000 0.6402 6.7359 5.3885 0.0000 -10641.1319 1401.0112 0.0000 0.0000 1760.1372 -7467.2190 300.9655 -9227.3562 -7452.7407 300.4515 -19.0486 -3.9866 29941.9310 -124.4587 -66.0023
TCL: Running FEP window  15: Lambda1 0.7000000000000001 Lambda2 0.7500000000000001 [dLambda 0.050000000000000044]
TCL: Setting parameter firsttimestep to 0
TCL: Setting parameter alchLambda to 0.7000000000000001
Info: NONBONDED TABLE R-SQUARED SPACING: 0.0625
Info: NONBONDED TABLE SIZE: 705 POINTS
TCL: Setting parameter alchLambda2 to 0.7500000000000001
Info: NONBONDED TABLE R-SQUARED SPACING: 0.0625
Info: NONBONDED TABLE SIZE: 705 POINTS
TCL: Running for 1500000 steps
ETITLE: TS BOND ANGLE DIHED IMPRP ELECT VDW BOUNDARY MISC KINETIC TOTAL TEMP POTENTIAL TOTALAVG TEMPAVG PRESSURE GPRESSURE VOLUME PRESSAVG GPRESSAVG
ENERGY: 0 0.6402 6.7359 5.3885 0.0000 -10641.9920 1402.1039 0.0000 0.0000 1759.2510 -7467.8726 300.8139 -9227.1236 -7467.8726 300.8139 -75.7892 12.3255 29941.9310 -75.7892 12.3255
ENERGY: 300000 1.7594 11.9750 3.8267 0.0000 -10723.7370 1487.8807 0.0000 0.0000 1761.1648 -7457.1304 301.1412 -9218.2952 -7432.3700 302.9904 475.8730 574.1931 30103.6959 141.8641 223.5610
ENERGY: 600000 1.1588 7.5141 3.6159 0.0000 -10457.8064 1333.2385 0.0000 0.0000 1821.9743 -7290.3047 311.5390 -9112.2791 -7413.7586 306.4677 -329.3836 -219.2437 30093.5400 72.1392 152.1253
ENERGY: 900000 1.5999 4.9268 3.6233 0.0000 -10537.7669 1384.4460 0.0000 0.0000 1771.1060 -7372.0648 302.8410 -9143.1708 -7424.8262 304.1189 -185.6250 -110.7368 30391.5561 -1.0147 84.1883
ENERGY: 1200000 5.5320 9.3050 3.8932 0.0000 -10695.5038 1472.6077 0.0000 0.0000 1737.7622 -7466.4037 297.1396 -9204.1659 -7421.0451 303.7706 89.0616 140.2140 30188.5698 -31.9541 48.4902
ENERGY: 1500000 1.1156 5.5481 2.8265 0.0000 -10637.3048 1420.3427 0.0000 0.0000 1766.8080 -7440.6639 302.1061 -9207.4719 -7426.0313 302.4721 -16.5864 75.4626 30218.5717 -81.4148 -1.7480
TCL: Running FEP window  16: Lambda1 0.7500000000000001 Lambda2 0.8000000000000002 [dLambda 0.050000000000000044]
TCL: Setting parameter firsttimestep to 0
TCL: Setting parameter alchLambda to 0.7500000000000001
Info: NONBONDED TABLE R-SQUARED SPACING: 0.0625
Info: NONBONDED TABLE SIZE: 705 POINTS
TCL: Setting parameter alchLambda2 to 0.8000000000000002
Info: NONBONDED TABLE R-SQUARED SPACING: 0.0625
Info: NONBONDED TABLE SIZE: 705 POINTS
TCL: Running for 1500000 steps
ETITLE: TS BOND ANGLE DIHED IMPRP ELECT VDW BOUNDARY MISC KINETIC TOTAL TEMP POTENTIAL TOTALAVG TEMPAVG PRESSURE GPRESSURE VOLUME PRESSAVG GPRESSAVG
ENERGY: 0 1.1156 5.5481 2.8265 0.0000 -10637.6460 1420.9091 0.0000 0.0000 1765.8993 -7441.3475 301.9507 -9207.2468 -7441.3475 301.9507 -1.1011 92.1879 30218.5717 -1.1011 92.1879
ENERGY: 300000 2.0183 6.2453 4.4260 0.0000 -10573.3928 1353.8091 0.0000 0.0000 1762.3025 -7444.5916 301.3357 -9206.8941 -7448.3937 299.6941 -706.4555 -663.0332 30583.8542 -427.1771 -376.6025
ENERGY: 600000 1.4584 4.9073 4.8957 0.0000 -10591.4159 1418.9597 0.0000 0.0000 1724.6778 -7436.5170 294.9023 -9161.1948 -7447.2583 298.6293 71.3960 128.1150 30224.4680 -374.6106 -323.0244
ENERGY: 900000 2.3967 8.0813 4.0421 0.0000 -10679.1372 1496.4046 0.0000 0.0000 1711.3146 -7456.8979 292.6173 -9168.2125 -7439.9041 299.4719 745.4466 773.1523 30059.1603 -173.8809 -118.7682
ENERGY: 1200000 3.2954 6.1742 2.9842 0.0000 -10568.0945 1352.1961 0.0000 0.0000 1733.0929 -7470.3517 296.3411 -9203.4445 -7434.7503 299.9065 -576.9515 -582.5354 30182.2313 -202.4349 -150.1755
ENERGY: 1500000 3.4796 11.3369 4.3913 0.0000 -10566.8193 1399.5307 0.0000 0.0000 1758.0325 -7390.0483 300.6056 -9148.0808 -7425.5641 300.8734 -147.4781 -80.6085 30752.1236 -162.5917 -108.6699
TCL: Running FEP window  17: Lambda1 0.8000000000000002 Lambda2 0.8500000000000002 [dLambda 0.050000000000000044]
TCL: Setting parameter firsttimestep to 0
TCL: Setting parameter alchLambda to 0.8000000000000002
Info: NONBONDED TABLE R-SQUARED SPACING: 0.0625
Info: NONBONDED TABLE SIZE: 705 POINTS
TCL: Setting parameter alchLambda2 to 0.8500000000000002
Info: NONBONDED TABLE R-SQUARED SPACING: 0.0625
Info: NONBONDED TABLE SIZE: 705 POINTS
TCL: Running for 1500000 steps
ETITLE: TS BOND ANGLE DIHED IMPRP ELECT VDW BOUNDARY MISC KINETIC TOTAL TEMP POTENTIAL TOTALAVG TEMPAVG PRESSURE GPRESSURE VOLUME PRESSAVG GPRESSAVG
ENERGY: 0 3.4797 11.3368 4.3913 0.0000 -10566.7894 1398.9774 0.0000 0.0000 1757.1583 -7391.4459 300.4561 -9148.6042 -7391.4459 300.4561 -168.5085 -78.6402 30752.1236 -168.5085 -78.6402
ENERGY: 300000 4.1122 10.6978 3.8041 0.0000 -10562.4367 1415.4500 0.0000 0.0000 1733.8213 -7394.5513 296.4657 -9128.3726 -7448.8718 296.8936 -130.7764 -37.0551 30469.1862 -8.0461 68.6176
ENERGY: 600000 2.5987 6.5495 2.6569 0.0000 -10534.8646 1415.9979 0.0000 0.0000 1734.0973 -7372.9642 296.5129 -9107.0616 -7442.4251 297.2039 428.5981 444.9563 30252.1181 110.9104 167.7519
ENERGY: 900000 5.0198 8.3725 5.4537 0.0000 -10623.4490 1391.1892 0.0000 0.0000 1759.4188 -7453.9951 300.8426 -9213.4139 -7440.2911 297.8713 -339.0808 -230.0390 30328.1223 127.0191 182.0469
ENERGY: 1200000 1.7292 8.1508 3.7279 0.0000 -10665.2449 1435.0887 0.0000 0.0000 1760.6805 -7455.8677 301.0584 -9216.5483 -7444.8754 298.3370 12.0005 107.7239 30296.6670 43.9335 104.5575
ENERGY: 1500000 2.5461 4.7510 4.3243 0.0000 -10488.9391 1348.8479 0.0000 0.0000 1723.8789 -7404.5910 294.7657 -9128.4699 -7438.2971 298.4262 -524.1600 -439.0726 30415.2464 -35.2334 29.8751
TCL: Running FEP window  18: Lambda1 0.8500000000000002 Lambda2 0.9000000000000002 [dLambda 0.050000000000000044]
TCL: Setting parameter firsttimestep to 0
TCL: Setting parameter alchLambda to 0.8500000000000002
Info: NONBONDED TABLE R-SQUARED SPACING: 0.0625
Info: NONBONDED TABLE SIZE: 705 POINTS
TCL: Setting parameter alchLambda2 to 0.9000000000000002
Info: NONBONDED TABLE R-SQUARED SPACING: 0.0625
Info: NONBONDED TABLE SIZE: 705 POINTS
TCL: Running for 1500000 steps
ETITLE: TS BOND ANGLE DIHED IMPRP ELECT VDW BOUNDARY MISC KINETIC TOTAL TEMP POTENTIAL TOTALAVG TEMPAVG PRESSURE GPRESSURE VOLUME PRESSAVG GPRESSAVG
ENERGY: 0 2.5461 4.7510 4.3243 0.0000 -10489.5178 1349.4335 0.0000 0.0000 1723.0139 -7405.4490 294.6178 -9128.4629 -7405.4490 294.6178 -497.9028 -424.7371 30415.2464 -497.9028 -424.7371
ENERGY: 300000 2.6157 10.1723 3.4761 0.0000 -10670.7072 1437.6385 0.0000 0.0000 1775.3393 -7441.4652 303.5649 -9216.8045 -7426.2616 299.4490 -418.3895 -338.0714 31022.8378 -290.7446 -237.1268
ENERGY: 600000 1.3325 10.1748 3.1877 0.0000 -10622.9442 1418.3641 0.0000 0.0000 1743.4893 -7446.3958 298.1188 -9189.8850 -7439.2555 298.7188 199.1729 274.5651 30014.9466 -126.4166 -62.0597
ENERGY: 900000 2.2086 5.6216 4.6880 0.0000 -10477.8103 1338.2746 0.0000 0.0000 1774.9148 -7352.1028 303.4923 -9127.0176 -7417.8683 300.8959 -698.0314 -674.5253 30730.4574 -139.8084 -76.0901
ENERGY: 1200000 1.2611 7.0622 3.5789 0.0000 -10689.7347 1479.9805 0.0000 0.0000 1726.2454 -7471.6066 295.1703 -9197.8520 -7425.3537 300.0403 100.1370 222.1512 30648.0840 -69.0553 -7.7564
ENERGY: 1500000 3.1502 7.6918 4.0773 0.0000 -10750.3246 1505.9013 0.0000 0.0000 1747.6858 -7481.8183 298.8364 -9229.5040 -7433.7999 299.4557 631.3192 738.9564 29911.5528 65.4043 125.1235
TCL: Running FEP window  19: Lambda1 0.9000000000000002 Lambda2 0.9500000000000003 [dLambda 0.050000000000000044]
TCL: Setting parameter firsttimestep to 0
TCL: Setting parameter alchLambda to 0.9000000000000002
Info: NONBONDED TABLE R-SQUARED SPACING: 0.0625
Info: NONBONDED TABLE SIZE: 705 POINTS
TCL: Setting parameter alchLambda2 to 0.9500000000000003
Info: NONBONDED TABLE R-SQUARED SPACING: 0.0625
Info: NONBONDED TABLE SIZE: 705 POINTS
TCL: Running for 1500000 steps
ETITLE: TS BOND ANGLE DIHED IMPRP ELECT VDW BOUNDARY MISC KINETIC TOTAL TEMP POTENTIAL TOTALAVG TEMPAVG PRESSURE GPRESSURE VOLUME PRESSAVG GPRESSAVG
ENERGY: 0 3.1502 7.6918 4.0773 0.0000 -10751.1377 1506.7171 0.0000 0.0000 1746.8020 -7482.6993 298.6853 -9229.5012 -7482.6993 298.6853 678.7839 762.2589 29911.5528 678.7839 762.2589
ENERGY: 300000 2.3568 6.9391 6.9079 0.0000 -10767.5771 1489.6178 0.0000 0.0000 1758.7430 -7503.0126 300.7271 -9261.7555 -7468.1158 301.0181 482.3147 540.8615 30093.8780 272.3941 339.7669
ENERGY: 600000 3.9122 8.9011 7.1661 0.0000 -10576.7846 1358.6100 0.0000 0.0000 1797.6296 -7400.5656 307.3763 -9198.1952 -7463.8979 301.4536 -793.3965 -734.3938 30974.7374 -47.8316 19.3405
ENERGY: 900000 3.5922 5.9578 4.1305 0.0000 -10591.4795 1333.5276 0.0000 0.0000 1786.1850 -7458.0863 305.4194 -9244.2713 -7462.4361 302.9994 -710.9386 -652.3024 29970.1507 -112.3996 -43.2481
ENERGY: 1200000 3.2262 13.2479 5.6273 0.0000 -10568.8581 1379.4677 0.0000 0.0000 1723.8802 -7443.4088 294.7659 -9167.2890 -7470.7215 301.1002 -531.3844 -453.6091 30484.1064 -69.7074 0.0919
ENERGY: 1500000 4.3463 10.0389 2.5452 0.0000 -10545.7408 1385.3161 0.0000 0.0000 1725.9145 -7417.5798 295.1137 -9143.4943 -7465.0504 300.6751 -157.8802 -57.1544 30223.1164 -95.6400 -28.7299
TCL: Running FEP window  20: Lambda1 0.9500000000000003 Lambda2 1.0    [dLambda 0.04999999999999971]
TCL: Setting parameter firsttimestep to 0
TCL: Setting parameter alchLambda to 0.9500000000000003
Info: NONBONDED TABLE R-SQUARED SPACING: 0.0625
Info: NONBONDED TABLE SIZE: 705 POINTS
TCL: Setting parameter alchLambda2 to 1.0
Info: NONBONDED TABLE R-SQUARED SPACING: 0.0625
Info: NONBONDED TABLE SIZE: 705 POINTS
TCL: Running for 1500000 steps
ETITLE: TS BOND ANGLE DIHED IMPRP ELECT VDW BOUNDARY MISC KINETIC TOTAL TEMP POTENTIAL TOTALAVG TEMPAVG PRESSURE GPRESSURE VOLUME PRESSAVG GPRESSAVG
ENERGY: 0 4.3463 10.0389 2.5452 0.0000 -10546.0505 1385.0488 0.0000 0.0000 1725.1019 -7418.9694 294.9748 -9144.0713 -7418.9694 294.9748 -139.0938 -44.8874 30223.1164 -139.0938 -44.8874
ENERGY: 300000 2.3827 9.5062 6.2946 0.0000 -10569.0158 1472.6508 0.0000 0.0000 1739.6689 -7338.5126 297.4656 -9078.1815 -7427.5663 294.6612 352.6202 396.4909 30752.8854 76.8501 161.6925
ENERGY: 600000 0.8675 8.1638 4.5902 0.0000 -10592.0385 1390.6947 0.0000 0.0000 1771.9954 -7415.7269 302.9931 -9187.7223 -7429.7080 297.7897 -118.8908 -56.6942 30461.4675 -182.3912 -118.0365
ENERGY: 900000 2.1877 9.2318 2.9082 0.0000 -10552.0603 1314.5394 0.0000 0.0000 1744.9230 -7478.2702 298.3640 -9223.1932 -7445.0407 298.0234 -958.9737 -863.3837 30417.0236 -300.6459 -237.1531
ENERGY: 1200000 1.8775 8.6389 4.9958 0.0000 -10682.2503 1491.4126 0.0000 0.0000 1781.0554 -7394.2701 304.5422 -9175.3255 -7443.3879 298.5567 720.0373 740.1887 30109.6731 -138.5739 -82.0093
ENERGY: 1500000 4.2820 6.4885 4.4228 0.0000 -10670.8364 1444.3917 0.0000 0.0000 1740.8462 -7470.4052 297.6669 -9211.2514 -7444.9046 298.9904 111.6309 173.3647 30219.7770 -170.7365 -107.9010
TCL: Exiting due to exit command.
