Info: SIMULATION PARAMETERS:
Info: TIMESTEP               2
Info: NUMBER OF STEPS        0
Info: STEPS PER CYCLE        10
Info: PERIODIC CELL BASIS 1  30.9742 0 0
Info: PERIODIC CELL BASIS 2  0 29.5692 0
Info: PERIODIC CELL BASIS 3  0 0 33.1565
Info: PERIODIC CELL CENTER   0 0 0
Info: WRAPPING WATERS AROUND PERIODIC BOUNDARIES ON OUTPUT.
Info: WRAPPING ALL CLUSTERS AROUND PERIODIC BOUNDARIES ON OUTPUT.
Info: FIRST LDB TIMESTEP     50
Info: LAST LDB TIMESTEP     -1
Info: HOM BACKGROUND SCALING 1
Info: PME BACKGROUND SCALING 1
Info: MIN ATOMS PER PATCH    40
Info: EMPTY PATCH LOAD       40 ATOMS
Info: VELOCITY FILE          mobley_8426916_equil.vel
Info: CENTER OF MASS MOVING INITIALLY? NO
Info: DIELECTRIC             1
Info: EXCLUDE                SCALED ONE-FOUR
Info: 1-4 ELECTROSTATICS SCALED BY 0.833333
Info: MODIFIED 1-4 VDW PARAMETERS WILL BE USED
Info: DCD FILENAME           mobley_8426916_prod.dcd
Info: DCD FREQUENCY          100000
Info: DCD FIRST STEP         100000
Info: DCD FILE WILL CONTAIN UNIT CELL DATA
Info: XST FILENAME           mobley_8426916_prod.xst
Info: XST FREQUENCY          100000
Info: NO VELOCITY DCD OUTPUT
Info: NO FORCE DCD OUTPUT
Info: OUTPUT FILENAME        mobley_8426916_prod
Info: BINARY OUTPUT FILES WILL BE USED
Info: RESTART FILENAME       mobley_8426916_prod.restart
Info: RESTART FREQUENCY      100000
Info: BINARY RESTART FILES WILL BE USED
Info: CUTOFF                 9
Info: PAIRLIST DISTANCE      11
Info: PAIRLIST SHRINK RATE   0.01
Info: PAIRLIST GROW RATE     0.01
Info: PAIRLIST TRIGGER       0.3
Info: PAIRLISTS PER CYCLE    2
Info: PAIRLISTS ENABLED
Info: MARGIN                 2
Info: HYDROGEN GROUP CUTOFF  2.5
Info: PATCH DIMENSION        15.5
Info: ENERGY OUTPUT STEPS    100000
Info: ENERGY EVALUATION STEPS    100000
Info: OUTPUT ENERGY PRECISION 4
Info: CROSSTERM ENERGY INCLUDED IN DIHEDRAL
Info: TIMING OUTPUT STEPS    1000000
Info: PRESSURE OUTPUT STEPS  100000
Info: ALCHEMICAL FEP ON
Info: FEP CURRENT LAMBDA VALUE     1
Info: FEP COMPARISON LAMBDA VALUE  0.95
Info: FEP INTRA-ALCHEMICAL NON-BONDED INTERACTIONS WILL BE RETAINED
Info: FEP INTRA-ALCHEMICAL BONDED INTERACTIONS WILL BE RETAINED
Info: FEP VDW SHIFTING COEFFICIENT 5
Info: FEP ELEC. ACTIVE FOR ANNIHILATED PARTICLES BETWEEN LAMBDA = 0 AND LAMBDA = 0.5
Info: FEP ELEC. ACTIVE FOR EXNIHILATED PARTICLES BETWEEN LAMBDA = 0.5 AND LAMBDA = 1
Info: FEP VDW ACTIVE FOR ANNIHILATED PARTICLES BETWEEN LAMBDA = 0 AND LAMBDA = 1
Info: FEP VDW ACTIVE FOR EXNIHILATED PARTICLES BETWEEN LAMBDA = 0 AND LAMBDA = 1
Info: FEP BOND ACTIVE FOR ANNIHILATED PARTICLES BETWEEN LAMBDA = 1 AND LAMBDA = 1
Info: FEP BOND ACTIVE FOR EXNIHILATED PARTICLES BETWEEN LAMBDA = 0 AND LAMBDA = 0
Info: LANGEVIN DYNAMICS ACTIVE
Info: LANGEVIN TEMPERATURE   300
Info: LANGEVIN USING BBK INTEGRATOR
Info: LANGEVIN DAMPING COEFFICIENT IS 1 INVERSE PS
Info: LANGEVIN DYNAMICS APPLIED TO HYDROGENS
Info: LANGEVIN PISTON PRESSURE CONTROL ACTIVE
Info:        TARGET PRESSURE IS 1.01325 BAR
Info:     OSCILLATION PERIOD IS 50 FS
Info:             DECAY TIME IS 25 FS
Info:     PISTON TEMPERATURE IS 300 K
Info:       PRESSURE CONTROL IS GROUP-BASED
Info:    INITIAL STRAIN RATE IS -0.000686698 -0.000686698 -0.000686698
Info:       CELL FLUCTUATION IS ISOTROPIC
Info: PARTICLE MESH EWALD (PME) ACTIVE
Info: PME TOLERANCE               1e-06
Info: PME EWALD COEFFICIENT       0.348832
Info: PME INTERPOLATION ORDER     4
Info: PME GRID DIMENSIONS         32 32 36
Info: PME MAXIMUM GRID SPACING    1
Info: PME CALCULATION WILL BE PERFORMED ON GPU
Info: FULL ELECTROSTATIC EVALUATION FREQUENCY      2
Info: USING VERLET I (r-RESPA) MTS SCHEME.
Info: C1 SPLITTING OF LONG RANGE ELECTROSTATICS
Info: PLACING ATOMS IN PATCHES BY HYDROGEN GROUPS
Info: RIGID BONDS TO HYDROGEN : ALL
Info:         ERROR TOLERANCE : 1e-08
Info:          MAX ITERATIONS : 100
Info: RIGID WATER USING SETTLE ALGORITHM
Info: RANDOM NUMBER SEED     1743842561
Info: USE HYDROGEN BONDS?    NO
Info: Using AMBER format force field!
Info: AMBER PARM FILE        mobley_8426916.prmtop
Info: COORDINATE PDB         mobley_8426916.pdb
Info: Exclusions will be read from PARM file!
Info: SCNB (VDW SCALING)     2
Info: USING ARITHMETIC MEAN TO COMBINE L-J SIGMA PARAMETERS
Info: BINARY COORDINATES     mobley_8426916_equil.coor
Info: SUMMARY OF PARAMETERS:
Info: 7 BONDS
Info: 8 ANGLES
Info:   8 HARMONIC
Info:   0 COSINE-BASED
Info: 3 DIHEDRAL
Info: 0 IMPROPER
Info: 0 CROSSTERM
Info: 0 VDW
Info: 28 VDW_PAIRS
Info: 0 NBTHOLE_PAIRS
Info: To read alchdata from file: mobley_8426916.pdb
Info: To read alchflag data from column: 5
Info: STRUCTURE SUMMARY:
Info: 2953 ATOMS
Info: 2952 BONDS
Info: 27 ANGLES
Info: 32 DIHEDRALS
Info: 0 IMPROPERS
Info: 0 CROSSTERMS
Info: 3009 EXCLUSIONS
Info: 2948 RIGID BONDS
Info: ALCH: 0 ATOMS TO DISAPPEAR IN FINAL STATE
Info: ALCH: 16 ATOMS TO APPEAR IN FINAL STATE
Info: 5911 DEGREES OF FREEDOM
Info: 984 HYDROGEN GROUPS
Info: 4 ATOMS IN LARGEST HYDROGEN GROUP
Info: 984 MIGRATION GROUPS
Info: 4 ATOMS IN LARGEST MIGRATION GROUP
Info: TOTAL MASS = 17710.8 amu
Info: TOTAL CHARGE = 0.000100017 e
Info: MASS DENSITY = 0.968479 g/cm^3
Info: ATOM DENSITY = 0.0972425 atoms/A^3
Info: ADDED 0 IMPLICIT EXCLUSIONS
Info: NONBONDED TABLE R-SQUARED SPACING: 0.0625
Info: NONBONDED TABLE SIZE: 705 POINTS
Info: REMOVING COM VELOCITY 0.131335 -0.136541 0.0158604
Info: Use 3D box decompostion in PME FFT.
Info: Updated CUDA force table with 4096 elements.
Info: Updated CUDA LJ table with 7 x 7 elements.
Info: Found 19 unique exclusion lists needing 44 bytes
TCL: Running for 1500000 steps
ETITLE: TS BOND ANGLE DIHED IMPRP ELECT VDW BOUNDARY MISC KINETIC TOTAL TEMP POTENTIAL TOTALAVG TEMPAVG PRESSURE GPRESSURE VOLUME PRESSAVG GPRESSAVG
ENERGY: 0 1.8983 11.7124 0.6211 0.0000 -10653.1296 1357.7692 0.0000 0.0000 1769.1791 -7511.9496 301.2321 -9281.1287 -7511.9496 301.2321 -576.1714 -494.5376 30367.3847 -576.1714 -494.5376
ENERGY: 300000 0.5912 6.3722 0.8365 0.0000 -10611.8865 1422.4856 0.0000 0.0000 1734.2242 -7447.3768 295.2804 -9181.6010 -7475.1466 301.5263 175.7066 231.4910 30659.5219 -162.9291 -121.1536
ENERGY: 600000 1.0525 7.6686 0.9857 0.0000 -10574.7854 1344.3488 0.0000 0.0000 1782.7639 -7437.9660 303.5451 -9220.7299 -7466.8231 302.7302 -439.9569 -286.9692 30493.2484 -292.3015 -223.9091
ENERGY: 900000 2.2558 5.1728 0.6844 0.0000 -10680.4465 1424.1853 0.0000 0.0000 1769.7109 -7478.4372 301.3226 -9248.1481 -7479.8003 302.5148 -248.5193 -212.5138 30741.9153 -216.3533 -156.5493
ENERGY: 1200000 0.8604 8.1939 2.4238 0.0000 -10492.4545 1375.0760 0.0000 0.0000 1809.4049 -7296.4954 308.0812 -9105.9003 -7465.9443 302.0394 -31.8311 -27.8375 30878.7192 -138.9791 -83.3022
ENERGY: 1500000 1.0276 8.2176 1.2335 0.0000 -10702.8543 1430.2389 0.0000 0.0000 1740.3972 -7521.7394 296.3315 -9262.1366 -7475.9009 301.3771 -219.2745 -145.9238 30653.1209 -209.0839 -150.9212
TCL: Running FEP window   2: Lambda1 0.95   Lambda2 0.8999999999999999 [dLambda -0.050000000000000044]
TCL: Setting parameter firsttimestep to 0
TCL: Setting parameter alchLambda to 0.95
Info: NONBONDED TABLE R-SQUARED SPACING: 0.0625
Info: NONBONDED TABLE SIZE: 705 POINTS
TCL: Setting parameter alchLambda2 to 0.8999999999999999
Info: NONBONDED TABLE R-SQUARED SPACING: 0.0625
Info: NONBONDED TABLE SIZE: 705 POINTS
TCL: Running for 1500000 steps
ETITLE: TS BOND ANGLE DIHED IMPRP ELECT VDW BOUNDARY MISC KINETIC TOTAL TEMP POTENTIAL TOTALAVG TEMPAVG PRESSURE GPRESSURE VOLUME PRESSAVG GPRESSAVG
ENERGY: 0 1.0276 8.2176 1.2335 0.0000 -10702.1387 1430.3988 0.0000 0.0000 1739.5382 -7521.7230 296.1852 -9261.2612 -7521.7230 296.1852 -247.2098 -154.5650 30653.1209 -247.2098 -154.5650
ENERGY: 300000 0.2055 5.7295 0.9422 0.0000 -10608.7542 1381.0063 0.0000 0.0000 1799.6784 -7421.1923 306.4251 -9220.8707 -7517.6262 299.1887 -462.6367 -348.7528 30586.8078 -376.8574 -286.1917
ENERGY: 600000 0.3663 5.2149 0.4106 0.0000 -10613.3448 1392.3328 0.0000 0.0000 1784.4285 -7430.5916 303.8285 -9215.0201 -7504.3480 299.1578 -2.4317 89.7858 30113.1401 -156.3027 -72.5329
ENERGY: 900000 0.7282 8.0027 1.0693 0.0000 -10752.9655 1460.0927 0.0000 0.0000 1704.3549 -7578.7177 290.1947 -9283.0726 -7505.8674 299.0441 -47.2301 -5.4580 30599.9261 -189.7729 -117.1723
ENERGY: 1200000 0.1833 5.1934 0.6098 0.0000 -10710.1698 1420.8525 0.0000 0.0000 1753.4648 -7529.8659 298.5565 -9283.3308 -7505.0275 299.5329 -391.6892 -374.2890 30602.8126 -234.3168 -174.2609
ENERGY: 1500000 1.2656 11.1649 2.0480 0.0000 -10841.5404 1530.2358 0.0000 0.0000 1801.8366 -7494.9896 306.7926 -9296.8262 -7500.6287 300.4295 429.7031 586.8208 30629.5746 -150.3267 -84.8508
TCL: Running FEP window   3: Lambda1 0.8999999999999999 Lambda2 0.8499999999999999 [dLambda -0.050000000000000044]
TCL: Setting parameter firsttimestep to 0
TCL: Setting parameter alchLambda to 0.8999999999999999
Info: NONBONDED TABLE R-SQUARED SPACING: 0.0625
Info: NONBONDED TABLE SIZE: 705 POINTS
TCL: Setting parameter alchLambda2 to 0.8499999999999999
Info: NONBONDED TABLE R-SQUARED SPACING: 0.0625
Info: NONBONDED TABLE SIZE: 705 POINTS
TCL: Running for 1500000 steps
ETITLE: TS BOND ANGLE DIHED IMPRP ELECT VDW BOUNDARY MISC KINETIC TOTAL TEMP POTENTIAL TOTALAVG TEMPAVG PRESSURE GPRESSURE VOLUME PRESSAVG GPRESSAVG
ENERGY: 0 1.2656 11.1649 2.0480 0.0000 -10839.9415 1529.8526 0.0000 0.0000 1800.9486 -7494.6619 306.6414 -9295.6104 -7494.6619 306.6414 487.7520 570.3886 30629.5746 487.7520 570.3886
ENERGY: 300000 1.6078 6.4935 1.2427 0.0000 -10723.8289 1473.4404 0.0000 0.0000 1690.7663 -7550.2781 287.8810 -9241.0444 -7527.9690 296.9738 364.1524 455.0422 30495.1687 75.8303 174.6063
ENERGY: 600000 0.2326 4.3470 1.1874 0.0000 -10599.1085 1377.3609 0.0000 0.0000 1802.1210 -7413.8596 306.8410 -9215.9806 -7500.2672 298.1013 -244.4910 -201.6282 30394.3501 -50.9544 31.2949
ENERGY: 900000 2.1810 9.8379 1.0916 0.0000 -10625.1476 1393.1051 0.0000 0.0000 1819.0878 -7399.8441 309.7299 -9218.9319 -7490.2890 299.5487 -311.5151 -264.0123 30883.5894 -143.0639 -70.5308
ENERGY: 1200000 1.3942 8.0158 1.8457 0.0000 -10803.1404 1422.6479 0.0000 0.0000 1742.8543 -7626.3825 296.7498 -9369.2368 -7495.7764 298.7824 -447.5130 -350.6383 30362.1540 -209.2408 -144.4392
ENERGY: 1500000 1.5231 9.2048 0.9629 0.0000 -10701.4545 1397.4156 0.0000 0.0000 1792.7432 -7499.6049 305.2443 -9292.3481 -7506.6324 298.8037 -474.5271 -374.9049 30409.5006 -215.6786 -151.0214
TCL: Running FEP window   4: Lambda1 0.8499999999999999 Lambda2 0.7999999999999998 [dLambda -0.050000000000000044]
TCL: Setting parameter firsttimestep to 0
TCL: Setting parameter alchLambda to 0.8499999999999999
Info: NONBONDED TABLE R-SQUARED SPACING: 0.0625
Info: NONBONDED TABLE SIZE: 705 POINTS
TCL: Setting parameter alchLambda2 to 0.7999999999999998
Info: NONBONDED TABLE R-SQUARED SPACING: 0.0625
Info: NONBONDED TABLE SIZE: 705 POINTS
TCL: Running for 1500000 steps
ETITLE: TS BOND ANGLE DIHED IMPRP ELECT VDW BOUNDARY MISC KINETIC TOTAL TEMP POTENTIAL TOTALAVG TEMPAVG PRESSURE GPRESSURE VOLUME PRESSAVG GPRESSAVG
ENERGY: 0 1.5231 9.2048 0.9629 0.0000 -10700.0969 1397.5680 0.0000 0.0000 1791.7804 -7499.0577 305.0803 -9290.8381 -7499.0577 305.0803 -464.6701 -377.4901 30409.5006 -464.6701 -377.4901
ENERGY: 300000 0.3863 5.4045 1.3484 0.0000 -10644.8551 1437.4695 0.0000 0.0000 1763.5581 -7436.6881 300.2750 -9200.2463 -7501.5426 301.0198 201.7775 199.7782 30463.0670 120.6383 182.5126
ENERGY: 600000 2.4295 3.6360 1.1547 0.0000 -10738.4748 1461.2229 0.0000 0.0000 1788.9247 -7481.1069 304.5941 -9270.0316 -7517.8683 302.1186 -5.9162 98.8241 30511.4778 51.8287 124.6538
ENERGY: 900000 0.5857 7.9354 1.0220 0.0000 -10675.9894 1448.5043 0.0000 0.0000 1764.8867 -7453.0552 300.5012 -9217.9419 -7504.5411 301.6503 -68.3371 1.0871 30756.0545 125.2581 193.8121
ENERGY: 1200000 1.1728 3.7800 0.3247 0.0000 -10603.5010 1381.0663 0.0000 0.0000 1790.6897 -7426.4675 304.8946 -9217.1572 -7493.7346 301.4890 -286.1570 -207.5499 30156.5521 59.1556 132.3670
ENERGY: 1500000 1.4852 8.0175 0.9525 0.0000 -10704.6486 1429.8587 0.0000 0.0000 1761.8427 -7502.4920 299.9829 -9264.3347 -7498.9764 301.0034 -23.7906 -5.8168 30422.6919 -58.7413 7.0125
TCL: Running FEP window   5: Lambda1 0.7999999999999998 Lambda2 0.7499999999999998 [dLambda -0.050000000000000044]
TCL: Setting parameter firsttimestep to 0
TCL: Setting parameter alchLambda to 0.7999999999999998
Info: NONBONDED TABLE R-SQUARED SPACING: 0.0625
Info: NONBONDED TABLE SIZE: 705 POINTS
TCL: Setting parameter alchLambda2 to 0.7499999999999998
Info: NONBONDED TABLE R-SQUARED SPACING: 0.0625
Info: NONBONDED TABLE SIZE: 705 POINTS
TCL: Running for 1500000 steps
ETITLE: TS BOND ANGLE DIHED IMPRP ELECT VDW BOUNDARY MISC KINETIC TOTAL TEMP POTENTIAL TOTALAVG TEMPAVG PRESSURE GPRESSURE VOLUME PRESSAVG GPRESSAVG
ENERGY: 0 1.4852 8.0175 0.9525 0.0000 -10703.3703 1429.9033 0.0000 0.0000 1760.9118 -7502.1000 299.8244 -9263.0118 -7502.1000 299.8244 -80.6379 -11.0408 30422.6919 -80.6379 -11.0408
ENERGY: 300000 1.7239 6.0952 1.4032 0.0000 -10721.9532 1422.5043 0.0000 0.0000 1728.6419 -7561.5847 294.3300 -9290.2266 -7509.1171 300.2489 -198.4337 -145.6301 30027.2686 -82.1029 -24.9628
ENERGY: 600000 2.1928 11.2504 3.9228 0.0000 -10582.9267 1375.6279 0.0000 0.0000 1782.6947 -7407.2382 303.5333 -9189.9328 -7484.5963 301.8347 -328.9493 -288.1752 30603.0348 69.7622 135.8312
ENERGY: 900000 0.9114 9.7156 1.4767 0.0000 -10795.9373 1493.4382 0.0000 0.0000 1763.7582 -7526.6372 300.3091 -9290.3955 -7493.6810 300.8689 86.8755 120.2577 30550.6975 76.6165 130.5843
ENERGY: 1200000 2.3280 6.9348 1.4164 0.0000 -10622.9184 1385.7169 0.0000 0.0000 1780.2916 -7446.2307 303.1242 -9226.5224 -7491.8220 300.3151 -535.5722 -504.8529 30373.6446 -11.9931 47.1648
ENERGY: 1500000 0.8316 5.7849 0.7374 0.0000 -10679.7719 1417.2320 0.0000 0.0000 1762.7614 -7492.4247 300.1394 -9255.1861 -7485.9245 301.0018 -257.0573 -205.2311 30539.0972 -51.3782 13.2363
TCL: Running FEP window   6: Lambda1 0.7499999999999998 Lambda2 0.6999999999999997 [dLambda -0.050000000000000044]
TCL: Setting parameter firsttimestep to 0
TCL: Setting parameter alchLambda to 0.7499999999999998
Info: NONBONDED TABLE R-SQUARED SPACING: 0.0625
Info: NONBONDED TABLE SIZE: 705 POINTS
TCL: Setting parameter alchLambda2 to 0.6999999999999997
Info: NONBONDED TABLE R-SQUARED SPACING: 0.0625
Info: NONBONDED TABLE SIZE: 705 POINTS
TCL: Running for 1500000 steps
ETITLE: TS BOND ANGLE DIHED IMPRP ELECT VDW BOUNDARY MISC KINETIC TOTAL TEMP POTENTIAL TOTALAVG TEMPAVG PRESSURE GPRESSURE VOLUME PRESSAVG GPRESSAVG
ENERGY: 0 0.8316 5.7849 0.7374 0.0000 -10678.8568 1417.5041 0.0000 0.0000 1761.8828 -7492.1161 299.9898 -9253.9989 -7492.1161 299.9898 -288.6692 -210.2893 30539.0972 -288.6692 -210.2893
ENERGY: 300000 0.4872 6.9453 2.5589 0.0000 -10530.5830 1340.3815 0.0000 0.0000 1715.2844 -7464.9258 292.0556 -9180.2101 -7491.7013 296.3910 -602.9575 -590.5835 30632.3727 -314.8376 -248.9722
ENERGY: 600000 2.2337 4.0258 0.5382 0.0000 -10800.4653 1440.8604 0.0000 0.0000 1757.8001 -7595.0071 299.2946 -9352.8072 -7508.7436 296.5405 -543.9594 -415.8367 30541.0470 -174.9277 -109.6624
ENERGY: 900000 1.5997 8.4717 0.9241 0.0000 -10578.8882 1323.7025 0.0000 0.0000 1734.0799 -7510.1103 295.2559 -9244.1902 -7518.1126 296.2319 -751.1802 -644.3714 30301.5375 -41.9958 25.8772
ENERGY: 1200000 0.5460 6.6447 0.7678 0.0000 -10718.9191 1396.8381 0.0000 0.0000 1774.7542 -7539.3683 302.1813 -9314.1225 -7525.0897 296.6046 -593.3297 -505.8695 30407.6080 -107.6256 -42.4022
ENERGY: 1500000 0.2287 7.7680 0.6893 0.0000 -10651.7613 1380.3507 0.0000 0.0000 1753.3043 -7509.4204 298.5291 -9262.7247 -7528.2897 296.2795 -449.4049 -429.4733 30411.7028 -145.8636 -80.1342
TCL: Running FEP window   7: Lambda1 0.6999999999999997 Lambda2 0.6499999999999997 [dLambda -0.050000000000000044]
TCL: Setting parameter firsttimestep to 0
TCL: Setting parameter alchLambda to 0.6999999999999997
Info: NONBONDED TABLE R-SQUARED SPACING: 0.0625
Info: NONBONDED TABLE SIZE: 705 POINTS
TCL: Setting parameter alchLambda2 to 0.6499999999999997
Info: NONBONDED TABLE R-SQUARED SPACING: 0.0625
Info: NONBONDED TABLE SIZE: 705 POINTS
TCL: Running for 1500000 steps
ETITLE: TS BOND ANGLE DIHED IMPRP ELECT VDW BOUNDARY MISC KINETIC TOTAL TEMP POTENTIAL TOTALAVG TEMPAVG PRESSURE GPRESSURE VOLUME PRESSAVG GPRESSAVG
ENERGY: 0 0.2287 7.7680 0.6893 0.0000 -10650.8341 1380.6989 0.0000 0.0000 1752.4283 -7509.0209 298.3800 -9261.4493 -7509.0209 298.3800 -505.6894 -427.5644 30411.7028 -505.6894 -427.5644
ENERGY: 300000 1.2215 8.8626 2.0117 0.0000 -10686.1874 1391.2541 0.0000 0.0000 1741.2139 -7541.6236 296.4705 -9282.8376 -7505.8842 296.8804 -535.4058 -455.8752 30471.8185 -354.1318 -280.8622
ENERGY: 600000 3.0637 9.4969 0.7952 0.0000 -10690.9268 1432.6667 0.0000 0.0000 1769.3102 -7475.5941 301.2544 -9244.9042 -7503.7852 297.7614 185.7117 253.7555 29829.0357 -256.9760 -186.8153
ENERGY: 900000 0.1997 10.7941 1.1599 0.0000 -10714.2021 1446.1113 0.0000 0.0000 1762.0635 -7493.8738 300.0205 -9255.9372 -7491.7148 298.8996 -27.6611 -0.5150 30692.6544 -99.6337 -38.0679
ENERGY: 1200000 0.4156 6.0459 1.0534 0.0000 -10700.5462 1457.0603 0.0000 0.0000 1701.8445 -7534.1265 289.7673 -9235.9710 -7496.7227 298.2319 -48.9229 12.9295 30911.1470 -60.6198 4.7121
ENERGY: 1500000 1.5870 7.9997 2.3598 0.0000 -10714.7613 1398.1644 0.0000 0.0000 1766.2509 -7538.3995 300.7335 -9304.6504 -7494.0704 299.0529 -653.3588 -549.7625 30563.9943 -75.6123 -4.8105
TCL: Running FEP window   8: Lambda1 0.6499999999999997 Lambda2 0.5999999999999996 [dLambda -0.050000000000000044]
TCL: Setting parameter firsttimestep to 0
TCL: Setting parameter alchLambda to 0.6499999999999997
Info: NONBONDED TABLE R-SQUARED SPACING: 0.0625
Info: NONBONDED TABLE SIZE: 705 POINTS
TCL: Setting parameter alchLambda2 to 0.5999999999999996
Info: NONBONDED TABLE R-SQUARED SPACING: 0.0625
Info: NONBONDED TABLE SIZE: 705 POINTS
TCL: Running for 1500000 steps
ETITLE: TS BOND ANGLE DIHED IMPRP ELECT VDW BOUNDARY MISC KINETIC TOTAL TEMP POTENTIAL TOTALAVG TEMPAVG PRESSURE GPRESSURE VOLUME PRESSAVG GPRESSAVG
ENERGY: 0 1.5870 7.9997 2.3598 0.0000 -10712.9070 1397.4523 0.0000 0.0000 1765.3634 -7538.1448 300.5824 -9303.5082 -7538.1448 300.5824 -651.4984 -562.7134 30563.9943 -651.4984 -562.7134
ENERGY: 300000 3.4581 5.4918 1.4514 0.0000 -10881.1220 1439.0886 0.0000 0.0000 1784.1860 -7647.4461 303.7872 -9431.6321 -7549.6321 302.7801 -37.3529 -18.7989 29680.0880 -100.3141 -43.5926
ENERGY: 600000 1.3860 6.2687 0.4721 0.0000 -10756.5011 1436.5128 0.0000 0.0000 1758.6764 -7553.1852 299.4438 -9311.8616 -7547.7783 299.5684 -308.1078 -193.6089 30550.0526 -70.2244 -4.6749
ENERGY: 900000 0.2405 8.2338 0.8938 0.0000 -10769.1207 1502.3620 0.0000 0.0000 1730.7098 -7526.6808 294.6820 -9257.3906 -7531.1235 299.9055 407.8377 475.8439 30312.5195 46.2025 97.3026
ENERGY: 1200000 1.7686 9.0218 2.7141 0.0000 -10778.5361 1405.3838 0.0000 0.0000 1764.5241 -7595.1238 300.4395 -9359.6479 -7526.4920 299.5041 -430.1251 -336.4471 29865.4116 34.2678 87.1598
ENERGY: 1500000 0.7015 12.6316 0.5912 0.0000 -10479.0566 1363.6303 0.0000 0.0000 1750.9056 -7350.5964 298.1207 -9101.5020 -7514.4000 298.0202 -496.9027 -424.3719 30991.3264 -30.0777 29.6134
TCL: Running FEP window   9: Lambda1 0.5999999999999996 Lambda2 0.5499999999999996 [dLambda -0.050000000000000044]
TCL: Setting parameter firsttimestep to 0
TCL: Setting parameter alchLambda to 0.5999999999999996
Info: NONBONDED TABLE R-SQUARED SPACING: 0.0625
Info: NONBONDED TABLE SIZE: 705 POINTS
TCL: Setting parameter alchLambda2 to 0.5499999999999996
Info: NONBONDED TABLE R-SQUARED SPACING: 0.0625
Info: NONBONDED TABLE SIZE: 705 POINTS
TCL: Running for 1500000 steps
ETITLE: TS BOND ANGLE DIHED IMPRP ELECT VDW BOUNDARY MISC KINETIC TOTAL TEMP POTENTIAL TOTALAVG TEMPAVG PRESSURE GPRESSURE VOLUME PRESSAVG GPRESSAVG
ENERGY: 0 0.7015 12.6316 0.5912 0.0000 -10479.0352 1363.7915 0.0000 0.0000 1750.0512 -7351.2681 297.9752 -9101.3194 -7351.2681 297.9752 -508.9640 -428.0811 30991.3264 -508.9640 -428.0811
ENERGY: 300000 1.7186 7.6347 1.3006 0.0000 -10640.9426 1440.9950 0.0000 0.0000 1820.9373 -7368.3563 310.0448 -9189.2936 -7440.7988 300.2462 305.7436 361.3086 30309.9932 235.9216 304.2373
ENERGY: 600000 2.1383 6.0761 1.6143 0.0000 -10587.3872 1312.3671 0.0000 0.0000 1776.3746 -7488.8167 302.4572 -9265.1914 -7461.2379 300.1456 -893.1173 -813.1806 30279.5586 -186.2000 -122.6312
ENERGY: 900000 0.0820 9.0072 0.5733 0.0000 -10711.5534 1473.1927 0.0000 0.0000 1742.5995 -7486.0988 296.7065 -9228.6983 -7461.3020 300.0878 308.8249 339.2210 30532.7788 -243.4124 -189.5150
ENERGY: 1200000 1.2442 7.0684 2.0532 0.0000 -10665.9240 1405.1189 0.0000 0.0000 1737.7415 -7512.6979 295.8793 -9250.4394 -7473.4183 300.0544 -232.1506 -154.4737 30152.8351 -163.6179 -105.9882
ENERGY: 1500000 0.7546 9.0499 1.0954 0.0000 -10778.0880 1528.2824 0.0000 0.0000 1752.3296 -7486.5761 298.3632 -9238.9058 -7470.9510 300.2160 942.2242 998.3328 29884.3602 -24.9352 32.2621
TCL: Running FEP window  10: Lambda1 0.5499999999999996 Lambda2 0.4999999999999996 [dLambda -0.04999999999999999]
TCL: Setting parameter firsttimestep to 0
TCL: Setting parameter alchLambda to 0.5499999999999996
Info: NONBONDED TABLE R-SQUARED SPACING: 0.0625
Info: NONBONDED TABLE SIZE: 705 POINTS
TCL: Setting parameter alchLambda2 to 0.4999999999999996
Info: NONBONDED TABLE R-SQUARED SPACING: 0.0625
Info: NONBONDED TABLE SIZE: 705 POINTS
TCL: Running for 1500000 steps
ETITLE: TS BOND ANGLE DIHED IMPRP ELECT VDW BOUNDARY MISC KINETIC TOTAL TEMP POTENTIAL TOTALAVG TEMPAVG PRESSURE GPRESSURE VOLUME PRESSAVG GPRESSAVG
ENERGY: 0 0.7546 9.0499 1.0954 0.0000 -10777.2640 1528.3268 0.0000 0.0000 1751.4652 -7486.5721 298.2160 -9238.0373 -7486.5721 298.2160 901.6647 993.8072 29884.3602 901.6647 993.8072
ENERGY: 300000 1.3695 3.6673 3.0411 0.0000 -10560.8266 1355.5807 0.0000 0.0000 1722.0833 -7475.0846 293.2132 -9197.1680 -7500.3738 296.5832 -487.3960 -376.1226 30177.8278 -118.0222 -42.1587
ENERGY: 600000 2.3571 5.6488 1.8803 0.0000 -10566.2874 1411.3069 0.0000 0.0000 1778.7314 -7366.3629 302.8585 -9145.0943 -7462.6627 299.7383 -37.0312 15.4839 30937.1771 -148.0488 -72.6209
ENERGY: 900000 0.9893 6.7021 0.3192 0.0000 -10676.4031 1377.6339 0.0000 0.0000 1770.0173 -7520.7414 301.3748 -9290.7586 -7462.5353 300.5982 -338.6070 -251.4007 30225.7143 -151.3160 -88.6348
ENERGY: 1200000 0.1901 4.2663 0.8898 0.0000 -10644.9934 1391.6541 0.0000 0.0000 1711.1305 -7536.8626 291.3483 -9247.9931 -7458.1390 300.9400 -302.0024 -242.2445 30257.1681 -139.6702 -71.6336
ENERGY: 1500000 0.9122 3.2033 1.4177 0.0000 -10720.2847 1414.4521 0.0000 0.0000 1787.4831 -7512.8162 304.3486 -9300.2993 -7467.7033 301.0726 -497.8099 -447.3067 30677.0703 -162.7448 -97.2330
TCL: Running FEP window  11: Lambda1 0.4999999999999996 Lambda2 0.4499999999999996 [dLambda -0.04999999999999999]
TCL: Setting parameter firsttimestep to 0
TCL: Setting parameter alchLambda to 0.4999999999999996
Info: NONBONDED TABLE R-SQUARED SPACING: 0.0625
Info: NONBONDED TABLE SIZE: 705 POINTS
TCL: Setting parameter alchLambda2 to 0.4499999999999996
Info: NONBONDED TABLE R-SQUARED SPACING: 0.0625
Info: NONBONDED TABLE SIZE: 705 POINTS
TCL: Running for 1500000 steps
ETITLE: TS BOND ANGLE DIHED IMPRP ELECT VDW BOUNDARY MISC KINETIC TOTAL TEMP POTENTIAL TOTALAVG TEMPAVG PRESSURE GPRESSURE VOLUME PRESSAVG GPRESSAVG
ENERGY: 0 0.9122 3.2033 1.4177 0.0000 -10720.4960 1414.9947 0.0000 0.0000 1786.5633 -7513.4048 304.1920 -9299.9681 -7513.4048 304.1920 -523.3084 -446.1124 30677.0703 -523.3084 -446.1124
ENERGY: 300000 1.6349 6.8596 0.8678 0.0000 -10689.2695 1437.5625 0.0000 0.0000 1732.6129 -7509.7317 295.0061 -9242.3446 -7502.8385 300.0776 56.1079 141.0504 30119.9297 -101.3496 -1.9911
ENERGY: 600000 1.3888 6.8960 1.4327 0.0000 -10735.5203 1490.8144 0.0000 0.0000 1755.9285 -7479.0599 298.9759 -9234.9884 -7497.4389 299.2570 455.4618 541.3830 30249.6676 -137.3177 -46.6071
ENERGY: 900000 1.0984 5.2776 1.1552 0.0000 -10698.3502 1419.6566 0.0000 0.0000 1776.1630 -7494.9995 302.4212 -9271.1625 -7498.8684 299.1426 -100.5131 -49.5864 30243.9048 -86.1837 0.9402
ENERGY: 1200000 0.0849 4.8882 1.1914 0.0000 -10700.3506 1402.5864 0.0000 0.0000 1761.7188 -7529.8808 299.9618 -9291.5996 -7500.1146 299.4184 -106.9603 -49.1190 29954.2469 -78.1974 -5.8981
ENERGY: 1500000 1.7476 6.1108 1.0597 0.0000 -10681.2475 1418.4797 0.0000 0.0000 1720.1672 -7533.6825 292.8870 -9253.8497 -7493.2431 299.2447 -246.5514 -151.2627 30410.5324 -38.3521 35.7331
TCL: Running FEP window  12: Lambda1 0.4499999999999996 Lambda2 0.39999999999999963 [dLambda -0.04999999999999999]
TCL: Setting parameter firsttimestep to 0
TCL: Setting parameter alchLambda to 0.4499999999999996
Info: NONBONDED TABLE R-SQUARED SPACING: 0.0625
Info: NONBONDED TABLE SIZE: 705 POINTS
TCL: Setting parameter alchLambda2 to 0.39999999999999963
Info: NONBONDED TABLE R-SQUARED SPACING: 0.0625
Info: NONBONDED TABLE SIZE: 705 POINTS
TCL: Running for 1500000 steps
ETITLE: TS BOND ANGLE DIHED IMPRP ELECT VDW BOUNDARY MISC KINETIC TOTAL TEMP POTENTIAL TOTALAVG TEMPAVG PRESSURE GPRESSURE VOLUME PRESSAVG GPRESSAVG
ENERGY: 0 1.7476 6.1108 1.0597 0.0000 -10681.2473 1418.8445 0.0000 0.0000 1719.2904 -7534.1943 292.7377 -9253.4847 -7534.1943 292.7377 -261.3223 -152.6757 30410.5324 -261.3223 -152.6757
ENERGY: 300000 0.4788 7.7956 1.3327 0.0000 -10683.7780 1427.1371 0.0000 0.0000 1788.9745 -7458.0592 304.6026 -9247.0337 -7470.5341 300.9637 -147.3055 -77.1358 30319.2994 169.6652 238.8546
ENERGY: 600000 1.9875 7.5759 2.6469 0.0000 -10609.2182 1418.2173 0.0000 0.0000 1797.4078 -7381.3828 306.0385 -9178.7906 -7471.1367 300.4252 -392.3132 -314.9055 31028.1461 -10.8267 59.8393
ENERGY: 900000 0.6205 7.6821 1.1720 0.0000 -10690.5041 1411.0874 0.0000 0.0000 1773.7008 -7496.2412 302.0020 -9269.9421 -7477.9381 301.5973 -252.9835 -186.2511 30207.2374 -107.8646 -43.0437
ENERGY: 1200000 0.9514 3.8934 0.9577 0.0000 -10784.5993 1462.6765 0.0000 0.0000 1733.4231 -7582.6973 295.1440 -9316.1203 -7486.0400 300.6410 34.7849 126.7002 30384.5091 23.4854 86.0497
ENERGY: 1500000 3.5533 2.9677 0.9735 0.0000 -10719.6518 1405.1804 0.0000 0.0000 1720.1932 -7586.7837 292.8914 -9306.9770 -7485.4977 300.2039 -629.9340 -566.4452 30355.0469 -43.3297 19.5315
TCL: Running FEP window  13: Lambda1 0.39999999999999963 Lambda2 0.34999999999999964 [dLambda -0.04999999999999999]
TCL: Setting parameter firsttimestep to 0
TCL: Setting parameter alchLambda to 0.39999999999999963
Info: NONBONDED TABLE R-SQUARED SPACING: 0.0625
Info: NONBONDED TABLE SIZE: 705 POINTS
TCL: Setting parameter alchLambda2 to 0.34999999999999964
Info: NONBONDED TABLE R-SQUARED SPACING: 0.0625
Info: NONBONDED TABLE SIZE: 705 POINTS
TCL: Running for 1500000 steps
ETITLE: TS BOND ANGLE DIHED IMPRP ELECT VDW BOUNDARY MISC KINETIC TOTAL TEMP POTENTIAL TOTALAVG TEMPAVG PRESSURE GPRESSURE VOLUME PRESSAVG GPRESSAVG
ENERGY: 0 3.5533 2.9677 0.9735 0.0000 -10719.6523 1405.4265 0.0000 0.0000 1719.3223 -7587.4089 292.7431 -9306.7312 -7587.4089 292.7431 -645.7780 -568.0538 30355.0469 -645.7780 -568.0538
ENERGY: 300000 0.8262 8.2266 0.6704 0.0000 -10695.9538 1490.4691 0.0000 0.0000 1728.4231 -7467.3385 294.2927 -9195.7616 -7484.3606 298.2691 417.4607 500.9585 30486.7888 -118.0100 -26.7543
ENERGY: 600000 1.5627 7.2807 1.7567 0.0000 -10765.4249 1451.7041 0.0000 0.0000 1746.1838 -7556.9370 297.3168 -9303.1208 -7500.6901 297.3445 130.2108 201.6291 29885.9056 75.5915 153.0244
ENERGY: 900000 1.7337 5.4102 0.4564 0.0000 -10704.1303 1486.4468 0.0000 0.0000 1741.1930 -7468.8902 296.4670 -9210.0832 -7481.4521 298.0893 425.8535 505.1720 30558.8076 166.0672 249.5680
ENERGY: 1200000 1.3413 8.2901 1.0172 0.0000 -10642.8404 1366.7478 0.0000 0.0000 1770.3960 -7495.0479 301.4393 -9265.4439 -7484.9336 297.5137 -697.2192 -644.1327 30486.8087 47.0018 125.8663
ENERGY: 1500000 0.5431 6.2024 3.6962 0.0000 -10538.4240 1335.1428 0.0000 0.0000 1782.8864 -7409.9532 303.5660 -9192.8396 -7477.0202 298.2360 -653.2528 -627.7453 30645.4084 -52.4028 17.1961
TCL: Running FEP window  14: Lambda1 0.34999999999999964 Lambda2 0.29999999999999966 [dLambda -0.04999999999999999]
TCL: Setting parameter firsttimestep to 0
TCL: Setting parameter alchLambda to 0.34999999999999964
Info: NONBONDED TABLE R-SQUARED SPACING: 0.0625
Info: NONBONDED TABLE SIZE: 705 POINTS
TCL: Setting parameter alchLambda2 to 0.29999999999999966
Info: NONBONDED TABLE R-SQUARED SPACING: 0.0625
Info: NONBONDED TABLE SIZE: 705 POINTS
TCL: Running for 1500000 steps
ETITLE: TS BOND ANGLE DIHED IMPRP ELECT VDW BOUNDARY MISC KINETIC TOTAL TEMP POTENTIAL TOTALAVG TEMPAVG PRESSURE GPRESSURE VOLUME PRESSAVG GPRESSAVG
ENERGY: 0 0.5431 6.2024 3.6962 0.0000 -10538.4231 1335.1699 0.0000 0.0000 1782.0127 -7410.7988 303.4172 -9192.8115 -7410.7988 303.4172 -708.8876 -634.1434 30645.4084 -708.8876 -634.1434
ENERGY: 300000 1.0648 9.9513 2.9165 0.0000 -10639.0039 1416.1504 0.0000 0.0000 1721.5532 -7487.3677 293.1230 -9208.9210 -7408.5185 301.3985 -231.9699 -189.1986 30701.7715 -73.5727 -10.0316
ENERGY: 600000 1.3649 7.0991 1.7307 0.0000 -10844.6799 1500.4774 0.0000 0.0000 1784.1589 -7549.8490 303.7826 -9334.0079 -7474.1709 299.4365 23.4249 132.7230 30395.4102 -51.0957 30.7486
ENERGY: 900000 0.4225 3.8490 0.8124 0.0000 -10964.1349 1656.0922 0.0000 0.0000 1714.0408 -7588.9179 291.8439 -9302.9587 -7499.9270 299.3375 1592.8943 1642.5716 30091.2153 57.5070 140.4521
ENERGY: 1200000 0.9619 9.0978 1.3062 0.0000 -10839.1324 1451.5006 0.0000 0.0000 1726.3510 -7649.9149 293.9399 -9376.2659 -7502.8981 299.0140 -272.8366 -212.2209 29931.2788 19.0544 101.0828
ENERGY: 1500000 0.5641 6.3607 1.5798 0.0000 -10839.5348 1545.9978 0.0000 0.0000 1804.9698 -7480.0628 307.3260 -9285.0325 -7494.9819 299.7914 620.4763 713.7226 30514.5256 -1.1459 83.5162
TCL: Running FEP window  15: Lambda1 0.29999999999999966 Lambda2 0.24999999999999967 [dLambda -0.04999999999999999]
TCL: Setting parameter firsttimestep to 0
TCL: Setting parameter alchLambda to 0.29999999999999966
Info: NONBONDED TABLE R-SQUARED SPACING: 0.0625
Info: NONBONDED TABLE SIZE: 705 POINTS
TCL: Setting parameter alchLambda2 to 0.24999999999999967
Info: NONBONDED TABLE R-SQUARED SPACING: 0.0625
Info: NONBONDED TABLE SIZE: 705 POINTS
TCL: Running for 1500000 steps
ETITLE: TS BOND ANGLE DIHED IMPRP ELECT VDW BOUNDARY MISC KINETIC TOTAL TEMP POTENTIAL TOTALAVG TEMPAVG PRESSURE GPRESSURE VOLUME PRESSAVG GPRESSAVG
ENERGY: 0 0.5641 6.3607 1.5798 0.0000 -10839.5345 1546.4394 0.0000 0.0000 1804.0638 -7480.5267 307.1718 -9284.5905 -7480.5267 307.1718 634.7680 713.4419 30514.5256 634.7680 713.4419
ENERGY: 300000 1.3330 4.9569 0.4391 0.0000 -10667.9800 1375.1338 0.0000 0.0000 1751.8534 -7534.2637 298.2821 -9286.1171 -7533.6664 300.8835 -683.2014 -639.0094 30571.6145 -238.5550 -184.8022
ENERGY: 600000 1.4520 4.8430 1.3678 0.0000 -10633.2163 1378.6151 0.0000 0.0000 1713.4409 -7533.4976 291.7417 -9246.9385 -7524.3201 299.0683 -703.2124 -683.3513 30635.0452 -316.2836 -265.7105
ENERGY: 900000 0.1814 8.2757 1.7593 0.0000 -10872.0716 1539.3489 0.0000 0.0000 1774.5112 -7547.9951 302.1400 -9322.5063 -7526.7397 299.1908 522.8198 580.1458 30221.4322 -195.3439 -147.0784
ENERGY: 1200000 1.5243 5.9875 2.4168 0.0000 -10539.6015 1308.7950 0.0000 0.0000 1779.9425 -7440.9353 303.0647 -9220.8779 -7519.9607 299.4107 -983.8324 -870.0360 30317.8866 -235.5441 -189.5555
ENERGY: 1500000 0.2792 9.8995 0.4974 0.0000 -10548.7690 1380.9720 0.0000 0.0000 1769.3818 -7387.7390 301.2666 -9157.1208 -7508.2142 299.8083 -176.5597 -146.0436 30452.9412 -207.1189 -159.7805
TCL: Running FEP window  16: Lambda1 0.24999999999999967 Lambda2 0.19999999999999968 [dLambda -0.04999999999999999]
TCL: Setting parameter firsttimestep to 0
TCL: Setting parameter alchLambda to 0.24999999999999967
Info: NONBONDED TABLE R-SQUARED SPACING: 0.0625
Info: NONBONDED TABLE SIZE: 705 POINTS
TCL: Setting parameter alchLambda2 to 0.19999999999999968
Info: NONBONDED TABLE R-SQUARED SPACING: 0.0625
Info: NONBONDED TABLE SIZE: 705 POINTS
TCL: Running for 1500000 steps
ETITLE: TS BOND ANGLE DIHED IMPRP ELECT VDW BOUNDARY MISC KINETIC TOTAL TEMP POTENTIAL TOTALAVG TEMPAVG PRESSURE GPRESSURE VOLUME PRESSAVG GPRESSAVG
ENERGY: 0 0.2792 9.8995 0.4974 0.0000 -10548.7674 1381.1501 0.0000 0.0000 1768.5099 -7388.4312 301.1181 -9156.9412 -7388.4312 301.1181 -238.6568 -147.5559 30452.9412 -238.6568 -147.5559
ENERGY: 300000 1.9891 7.6504 1.2704 0.0000 -10705.4821 1406.1684 0.0000 0.0000 1764.6026 -7523.8012 300.4529 -9288.4038 -7438.1083 304.4772 -495.0170 -473.0559 30728.5324 -194.1594 -139.6657
ENERGY: 600000 1.7709 8.5985 2.6347 0.0000 -10633.9159 1412.5952 0.0000 0.0000 1769.9679 -7438.3489 301.3664 -9208.3167 -7448.9348 302.7518 -103.2154 -71.4107 30558.2480 -259.9220 -209.4078
ENERGY: 900000 3.0444 6.3952 0.6194 0.0000 -10628.7147 1423.3776 0.0000 0.0000 1755.9933 -7439.2848 298.9870 -9195.2781 -7456.3747 302.7583 -183.6698 -121.6511 30679.8505 -202.3604 -143.8231
ENERGY: 1200000 1.6726 7.6122 2.2969 0.0000 -10573.7921 1407.8161 0.0000 0.0000 1734.3317 -7420.0626 295.2987 -9154.3943 -7462.1359 301.9203 -231.0444 -112.6580 30520.2790 -249.6384 -187.7970
ENERGY: 1500000 0.6491 7.0658 1.7403 0.0000 -10733.7270 1478.1720 0.0000 0.0000 1759.1815 -7486.9184 299.5298 -9246.0999 -7468.7179 301.7331 153.0462 232.1558 30487.7911 -152.9321 -90.6748
TCL: Running FEP window  17: Lambda1 0.19999999999999968 Lambda2 0.1499999999999997 [dLambda -0.04999999999999999]
TCL: Setting parameter firsttimestep to 0
TCL: Setting parameter alchLambda to 0.19999999999999968
Info: NONBONDED TABLE R-SQUARED SPACING: 0.0625
Info: NONBONDED TABLE SIZE: 705 POINTS
TCL: Setting parameter alchLambda2 to 0.1499999999999997
Info: NONBONDED TABLE R-SQUARED SPACING: 0.0625
Info: NONBONDED TABLE SIZE: 705 POINTS
TCL: Running for 1500000 steps
ETITLE: TS BOND ANGLE DIHED IMPRP ELECT VDW BOUNDARY MISC KINETIC TOTAL TEMP POTENTIAL TOTALAVG TEMPAVG PRESSURE GPRESSURE VOLUME PRESSAVG GPRESSAVG
ENERGY: 0 0.6491 7.0658 1.7403 0.0000 -10733.7274 1478.3284 0.0000 0.0000 1758.3161 -7487.6278 299.3825 -9245.9439 -7487.6278 299.3825 163.8265 228.3418 30487.7911 163.8265 228.3418
ENERGY: 300000 0.6017 7.8827 0.3270 0.0000 -10739.0315 1461.3909 0.0000 0.0000 1751.1406 -7517.6886 298.1607 -9268.8292 -7491.6656 298.8836 111.6871 235.5144 30204.9877 186.3287 254.1871
ENERGY: 600000 0.9252 9.7759 1.0046 0.0000 -10660.2817 1369.4203 0.0000 0.0000 1726.6717 -7552.4840 293.9945 -9279.1556 -7497.3931 299.0781 -592.2861 -536.8120 30135.4062 -56.0970 14.5740
ENERGY: 900000 3.4722 7.0082 1.3493 0.0000 -10872.5067 1548.4666 0.0000 0.0000 1753.4941 -7558.7162 298.5614 -9312.2103 -7496.7203 298.6682 822.7528 856.9271 29661.1056 -14.8805 51.0367
ENERGY: 1200000 0.3571 8.6470 1.6423 0.0000 -10685.2091 1436.6241 0.0000 0.0000 1795.7434 -7442.1951 305.7551 -9237.9386 -7481.8340 300.5389 -206.7512 -179.7891 30778.5171 -2.2013 65.6281
ENERGY: 1500000 0.5395 6.4989 3.5725 0.0000 -10808.5582 1548.1618 0.0000 0.0000 1824.7042 -7425.0814 310.6862 -9249.7856 -7484.0052 300.3396 1068.5602 1111.4759 30094.3303 38.6705 102.4002
TCL: Running FEP window  18: Lambda1 0.1499999999999997 Lambda2 0.09999999999999969 [dLambda -0.05 ]
TCL: Setting parameter firsttimestep to 0
TCL: Setting parameter alchLambda to 0.1499999999999997
Info: NONBONDED TABLE R-SQUARED SPACING: 0.0625
Info: NONBONDED TABLE SIZE: 705 POINTS
TCL: Setting parameter alchLambda2 to 0.09999999999999969
Info: NONBONDED TABLE R-SQUARED SPACING: 0.0625
Info: NONBONDED TABLE SIZE: 705 POINTS
TCL: Running for 1500000 steps
ETITLE: TS BOND ANGLE DIHED IMPRP ELECT VDW BOUNDARY MISC KINETIC TOTAL TEMP POTENTIAL TOTALAVG TEMPAVG PRESSURE GPRESSURE VOLUME PRESSAVG GPRESSAVG
ENERGY: 0 0.5395 6.4989 3.5725 0.0000 -10808.5579 1548.2395 0.0000 0.0000 1823.8166 -7425.8909 310.5350 -9249.7075 -7425.8909 310.5350 1026.7472 1107.1683 30094.3303 1026.7472 1107.1683
ENERGY: 300000 2.9418 5.5030 0.5404 0.0000 -10685.5512 1449.1456 0.0000 0.0000 1727.5894 -7499.8310 294.1507 -9227.4204 -7449.6481 304.0272 -61.5429 5.9047 30508.1975 291.2175 354.4881
ENERGY: 600000 1.6216 5.1244 0.8152 0.0000 -10821.5802 1455.3139 0.0000 0.0000 1790.9747 -7567.7304 304.9431 -9358.7051 -7466.5857 302.4950 46.2378 138.5507 29806.3972 272.7724 357.6564
ENERGY: 900000 1.1575 7.6763 0.4539 0.0000 -10719.1528 1430.8754 0.0000 0.0000 1763.1531 -7515.8366 300.2061 -9278.9897 -7471.9877 302.2312 -230.0403 -97.7245 30233.1293 250.8394 334.7364
ENERGY: 1200000 3.9556 5.3786 1.6647 0.0000 -10482.0098 1254.1700 0.0000 0.0000 1757.5340 -7459.3070 299.2493 -9216.8411 -7472.2770 302.0555 -1260.1270 -1229.1724 30340.3193 99.1038 175.6088
ENERGY: 1500000 0.5783 8.4978 0.7245 0.0000 -10673.8335 1450.4791 0.0000 0.0000 1776.6640 -7436.8898 302.5065 -9213.5538 -7471.7942 301.8278 89.7491 118.0765 30648.8555 89.4076 165.0681
TCL: Running FEP window  19: Lambda1 0.09999999999999969 Lambda2 0.049999999999999684 [dLambda -0.05 ]
TCL: Setting parameter firsttimestep to 0
TCL: Setting parameter alchLambda to 0.09999999999999969
Info: NONBONDED TABLE R-SQUARED SPACING: 0.0625
Info: NONBONDED TABLE SIZE: 705 POINTS
TCL: Setting parameter alchLambda2 to 0.049999999999999684
Info: NONBONDED TABLE R-SQUARED SPACING: 0.0625
Info: NONBONDED TABLE SIZE: 705 POINTS
TCL: Running for 1500000 steps
ETITLE: TS BOND ANGLE DIHED IMPRP ELECT VDW BOUNDARY MISC KINETIC TOTAL TEMP POTENTIAL TOTALAVG TEMPAVG PRESSURE GPRESSURE VOLUME PRESSAVG GPRESSAVG
ENERGY: 0 0.5783 8.4978 0.7245 0.0000 -10673.8329 1450.6856 0.0000 0.0000 1775.8187 -7437.5280 302.3626 -9213.3467 -7437.5280 302.3626 21.7741 117.2778 30648.8555 21.7741 117.2778
ENERGY: 300000 2.6209 6.4910 5.1794 0.0000 -10722.4625 1515.2688 0.0000 0.0000 1762.1036 -7430.7988 300.0274 -9192.9024 -7421.1006 299.7491 497.1746 616.1204 30291.5130 91.9892 185.3768
ENERGY: 600000 1.2663 6.6160 2.0038 0.0000 -10639.9626 1461.6962 0.0000 0.0000 1746.3462 -7422.0342 297.3444 -9168.3804 -7435.1600 300.0975 371.0436 437.3149 30398.2889 79.7524 166.1947
ENERGY: 900000 1.4198 6.8514 2.0826 0.0000 -10763.0208 1477.6470 0.0000 0.0000 1757.9292 -7517.0907 299.3166 -9275.0199 -7443.7954 300.4939 181.8503 303.3155 30046.4674 125.6890 208.8328
ENERGY: 1200000 0.6418 8.9338 0.2771 0.0000 -10758.0464 1494.4990 0.0000 0.0000 1755.3459 -7498.3487 298.8768 -9253.6946 -7461.0570 301.5569 736.9860 875.1094 29693.1917 158.3409 252.0491
ENERGY: 1500000 0.8921 8.1639 1.2980 0.0000 -10753.5157 1521.3100 0.0000 0.0000 1738.5521 -7483.2997 296.0173 -9221.8518 -7464.4908 301.7132 737.9768 742.7677 30415.0230 192.9597 278.5928
TCL: Running FEP window  20: Lambda1 0.049999999999999684 Lambda2 0.0    [dLambda -0.049999999999999684]
TCL: Setting parameter firsttimestep to 0
TCL: Setting parameter alchLambda to 0.049999999999999684
Info: NONBONDED TABLE R-SQUARED SPACING: 0.0625
Info: NONBONDED TABLE SIZE: 705 POINTS
TCL: Setting parameter alchLambda2 to 0.0
Info: NONBONDED TABLE R-SQUARED SPACING: 0.0625
Info: NONBONDED TABLE SIZE: 705 POINTS
TCL: Running for 1500000 steps
ETITLE: TS BOND ANGLE DIHED IMPRP ELECT VDW BOUNDARY MISC KINETIC TOTAL TEMP POTENTIAL TOTALAVG TEMPAVG PRESSURE GPRESSURE VOLUME PRESSAVG GPRESSAVG
ENERGY: 0 0.8921 8.1639 1.2980 0.0000 -10753.5169 1521.4796 0.0000 0.0000 1737.6416 -7484.0419 295.8623 -9221.6835 -7484.0419 295.8623 659.4369 739.1918 30415.0230 659.4369 739.1918
ENERGY: 300000 1.1741 3.7540 1.7489 0.0000 -10753.6402 1478.5522 0.0000 0.0000 1768.1370 -7500.2739 301.0547 -9268.4109 -7489.8711 298.7792 68.1160 133.1073 30745.6569 245.7144 323.1413
ENERGY: 600000 2.8445 5.9997 1.9833 0.0000 -10659.6449 1407.1440 0.0000 0.0000 1780.3919 -7461.2815 303.1412 -9241.6734 -7494.7998 299.4642 -564.9142 -427.0905 30567.6450 134.1311 219.2372
ENERGY: 900000 0.5088 12.1545 1.1369 0.0000 -10598.9787 1341.5017 0.0000 0.0000 1765.3458 -7478.3310 300.5794 -9243.6768 -7487.3726 299.9110 -848.3535 -792.8754 30365.7728 70.8091 139.7726
ENERGY: 1200000 1.6827 7.1466 1.0751 0.0000 -10757.5479 1486.2962 0.0000 0.0000 1797.0234 -7464.3238 305.9730 -9261.3472 -7492.9415 300.3435 59.0517 120.9846 30621.1617 56.3130 120.2200
ENERGY: 1500000 0.6099 5.9993 0.4689 0.0000 -10820.1355 1521.5378 0.0000 0.0000 1768.9385 -7522.5811 301.1911 -9291.5196 -7485.3096 301.6297 288.2727 371.0393 30445.5741 92.6049 158.7155
TCL: Exiting due to exit command.
