Info: SIMULATION PARAMETERS:
Info: TIMESTEP               2
Info: NUMBER OF STEPS        0
Info: STEPS PER CYCLE        10
Info: PERIODIC CELL BASIS 1  30.9918 0 0
Info: PERIODIC CELL BASIS 2  0 31.3468 0
Info: PERIODIC CELL BASIS 3  0 0 31.623
Info: PERIODIC CELL CENTER   0 0 0
Info: WRAPPING WATERS AROUND PERIODIC BOUNDARIES ON OUTPUT.
Info: WRAPPING ALL CLUSTERS AROUND PERIODIC BOUNDARIES ON OUTPUT.
Info: FIRST LDB TIMESTEP     50
Info: LAST LDB TIMESTEP     -1
Info: HOM BACKGROUND SCALING 1
Info: PME BACKGROUND SCALING 1
Info: MIN ATOMS PER PATCH    40
Info: EMPTY PATCH LOAD       40 ATOMS
Info: VELOCITY FILE          mobley_900088_equil.vel
Info: CENTER OF MASS MOVING INITIALLY? NO
Info: DIELECTRIC             1
Info: EXCLUDE                SCALED ONE-FOUR
Info: 1-4 ELECTROSTATICS SCALED BY 0.833333
Info: MODIFIED 1-4 VDW PARAMETERS WILL BE USED
Info: DCD FILENAME           mobley_900088_prod.dcd
Info: DCD FREQUENCY          100000
Info: DCD FIRST STEP         100000
Info: DCD FILE WILL CONTAIN UNIT CELL DATA
Info: XST FILENAME           mobley_900088_prod.xst
Info: XST FREQUENCY          100000
Info: NO VELOCITY DCD OUTPUT
Info: NO FORCE DCD OUTPUT
Info: OUTPUT FILENAME        mobley_900088_prod
Info: BINARY OUTPUT FILES WILL BE USED
Info: RESTART FILENAME       mobley_900088_prod.restart
Info: RESTART FREQUENCY      100000
Info: BINARY RESTART FILES WILL BE USED
Info: CUTOFF                 9
Info: PAIRLIST DISTANCE      11
Info: PAIRLIST SHRINK RATE   0.01
Info: PAIRLIST GROW RATE     0.01
Info: PAIRLIST TRIGGER       0.3
Info: PAIRLISTS PER CYCLE    2
Info: PAIRLISTS ENABLED
Info: MARGIN                 2
Info: HYDROGEN GROUP CUTOFF  2.5
Info: PATCH DIMENSION        15.5
Info: ENERGY OUTPUT STEPS    100000
Info: ENERGY EVALUATION STEPS    100000
Info: OUTPUT ENERGY PRECISION 4
Info: CROSSTERM ENERGY INCLUDED IN DIHEDRAL
Info: TIMING OUTPUT STEPS    1000000
Info: PRESSURE OUTPUT STEPS  100000
Info: ALCHEMICAL FEP ON
Info: FEP CURRENT LAMBDA VALUE     0
Info: FEP COMPARISON LAMBDA VALUE  0.05
Info: FEP INTRA-ALCHEMICAL NON-BONDED INTERACTIONS WILL BE RETAINED
Info: FEP INTRA-ALCHEMICAL BONDED INTERACTIONS WILL BE RETAINED
Info: FEP VDW SHIFTING COEFFICIENT 5
Info: FEP ELEC. ACTIVE FOR ANNIHILATED PARTICLES BETWEEN LAMBDA = 0 AND LAMBDA = 0.5
Info: FEP ELEC. ACTIVE FOR EXNIHILATED PARTICLES BETWEEN LAMBDA = 0.5 AND LAMBDA = 1
Info: FEP VDW ACTIVE FOR ANNIHILATED PARTICLES BETWEEN LAMBDA = 0 AND LAMBDA = 1
Info: FEP VDW ACTIVE FOR EXNIHILATED PARTICLES BETWEEN LAMBDA = 0 AND LAMBDA = 1
Info: FEP BOND ACTIVE FOR ANNIHILATED PARTICLES BETWEEN LAMBDA = 1 AND LAMBDA = 1
Info: FEP BOND ACTIVE FOR EXNIHILATED PARTICLES BETWEEN LAMBDA = 0 AND LAMBDA = 0
Info: LANGEVIN DYNAMICS ACTIVE
Info: LANGEVIN TEMPERATURE   300
Info: LANGEVIN USING BBK INTEGRATOR
Info: LANGEVIN DAMPING COEFFICIENT IS 1 INVERSE PS
Info: LANGEVIN DYNAMICS APPLIED TO HYDROGENS
Info: LANGEVIN PISTON PRESSURE CONTROL ACTIVE
Info:        TARGET PRESSURE IS 1.01325 BAR
Info:     OSCILLATION PERIOD IS 50 FS
Info:             DECAY TIME IS 25 FS
Info:     PISTON TEMPERATURE IS 300 K
Info:       PRESSURE CONTROL IS GROUP-BASED
Info:    INITIAL STRAIN RATE IS 0.000156736 0.000156736 0.000156736
Info:       CELL FLUCTUATION IS ISOTROPIC
Info: PARTICLE MESH EWALD (PME) ACTIVE
Info: PME TOLERANCE               1e-06
Info: PME EWALD COEFFICIENT       0.348832
Info: PME INTERPOLATION ORDER     4
Info: PME GRID DIMENSIONS         32 32 32
Info: PME MAXIMUM GRID SPACING    1
Info: PME CALCULATION WILL BE PERFORMED ON GPU
Info: FULL ELECTROSTATIC EVALUATION FREQUENCY      2
Info: USING VERLET I (r-RESPA) MTS SCHEME.
Info: C1 SPLITTING OF LONG RANGE ELECTROSTATICS
Info: PLACING ATOMS IN PATCHES BY HYDROGEN GROUPS
Info: RIGID BONDS TO HYDROGEN : ALL
Info:         ERROR TOLERANCE : 1e-08
Info:          MAX ITERATIONS : 100
Info: RIGID WATER USING SETTLE ALGORITHM
Info: RANDOM NUMBER SEED     1743763838
Info: USE HYDROGEN BONDS?    NO
Info: Using AMBER format force field!
Info: AMBER PARM FILE        mobley_900088.prmtop
Info: COORDINATE PDB         mobley_900088.pdb
Info: Exclusions will be read from PARM file!
Info: SCNB (VDW SCALING)     2
Info: USING ARITHMETIC MEAN TO COMBINE L-J SIGMA PARAMETERS
Info: BINARY COORDINATES     mobley_900088_equil.coor
Info: SUMMARY OF PARAMETERS:
Info: 7 BONDS
Info: 7 ANGLES
Info:   7 HARMONIC
Info:   0 COSINE-BASED
Info: 5 DIHEDRAL
Info: 0 IMPROPER
Info: 0 CROSSTERM
Info: 0 VDW
Info: 21 VDW_PAIRS
Info: 0 NBTHOLE_PAIRS
Info: To read alchdata from file: mobley_900088.pdb
Info: To read alchflag data from column: 5
Info: STRUCTURE SUMMARY:
Info: 2998 ATOMS
Info: 2997 BONDS
Info: 24 ANGLES
Info: 40 DIHEDRALS
Info: 0 IMPROPERS
Info: 0 CROSSTERMS
Info: 3045 EXCLUSIONS
Info: 2992 RIGID BONDS
Info: ALCH: 0 ATOMS TO DISAPPEAR IN FINAL STATE
Info: ALCH: 16 ATOMS TO APPEAR IN FINAL STATE
Info: 6002 DEGREES OF FREEDOM
Info: 1000 HYDROGEN GROUPS
Info: 4 ATOMS IN LARGEST HYDROGEN GROUP
Info: 1000 MIGRATION GROUPS
Info: 4 ATOMS IN LARGEST MIGRATION GROUP
Info: TOTAL MASS = 17990 amu
Info: TOTAL CHARGE = 0.000199988 e
Info: MASS DENSITY = 0.972411 g/cm^3
Info: ATOM DENSITY = 0.0975865 atoms/A^3
Info: ADDED 0 IMPLICIT EXCLUSIONS
Info: NONBONDED TABLE R-SQUARED SPACING: 0.0625
Info: NONBONDED TABLE SIZE: 705 POINTS
Info: REMOVING COM VELOCITY -0.00686696 -0.0168003 0.0177378
Info: Use 3D box decompostion in PME FFT.
Info: Updated CUDA force table with 4096 elements.
Info: Updated CUDA LJ table with 6 x 6 elements.
Info: Found 17 unique exclusion lists needing 36 bytes
TCL: Running for 1500000 steps
ETITLE: TS BOND ANGLE DIHED IMPRP ELECT VDW BOUNDARY MISC KINETIC TOTAL TEMP POTENTIAL TOTALAVG TEMPAVG PRESSURE GPRESSURE VOLUME PRESSAVG GPRESSAVG
ENERGY: 0 1.7939 8.0670 21.0584 0.0000 -10857.3940 1495.2431 0.0000 0.0000 1753.5455 -7577.6861 294.0434 -9331.2316 -7577.6861 294.0434 554.9493 638.4874 30721.4537 554.9493 638.4874
ENERGY: 300000 5.4065 6.2830 21.0226 0.0000 -10905.4792 1493.9189 0.0000 0.0000 1769.9036 -7608.9445 296.7864 -9378.8482 -7566.7410 298.7466 13.9432 99.5483 30594.0634 -338.9438 -246.4033
ENERGY: 600000 2.6419 7.0263 19.4705 0.0000 -10877.4011 1501.7055 0.0000 0.0000 1858.7241 -7487.8328 311.6803 -9346.5570 -7560.5205 299.4841 270.2143 325.3358 31086.2918 -144.9565 -65.4762
ENERGY: 900000 2.0797 3.7168 24.3221 0.0000 -10910.9562 1492.3969 0.0000 0.0000 1798.8514 -7589.5893 301.6405 -9388.4407 -7559.1162 299.7408 -6.9501 89.4667 30878.5417 -186.4944 -111.3420
ENERGY: 1200000 0.6923 3.5919 23.5417 0.0000 -10855.9554 1468.4490 0.0000 0.0000 1763.0700 -7596.6104 295.6405 -9359.6804 -7563.8024 299.9212 47.6121 81.1124 30757.1606 -201.6604 -133.3319
ENERGY: 1500000 1.8244 6.4610 22.1637 0.0000 -10902.5918 1500.7885 0.0000 0.0000 1817.7353 -7553.6189 304.8071 -9371.3542 -7561.1605 300.2612 433.1363 532.6702 30409.5268 -124.5761 -56.0170
TCL: Running FEP window   2: Lambda1 0.05   Lambda2 0.1    [dLambda 0.05  ]
TCL: Setting parameter firsttimestep to 0
TCL: Setting parameter alchLambda to 0.05
Info: NONBONDED TABLE R-SQUARED SPACING: 0.0625
Info: NONBONDED TABLE SIZE: 705 POINTS
TCL: Setting parameter alchLambda2 to 0.1
Info: NONBONDED TABLE R-SQUARED SPACING: 0.0625
Info: NONBONDED TABLE SIZE: 705 POINTS
TCL: Running for 1500000 steps
ETITLE: TS BOND ANGLE DIHED IMPRP ELECT VDW BOUNDARY MISC KINETIC TOTAL TEMP POTENTIAL TOTALAVG TEMPAVG PRESSURE GPRESSURE VOLUME PRESSAVG GPRESSAVG
ENERGY: 0 1.8244 6.4610 22.1637 0.0000 -10902.5932 1500.8484 0.0000 0.0000 1816.8363 -7554.4595 304.6563 -9371.2958 -7554.4595 304.6563 459.2890 536.8692 30409.5268 459.2890 536.8692
ENERGY: 300000 1.9486 6.3374 22.7491 0.0000 -11072.0203 1580.5185 0.0000 0.0000 1846.9292 -7613.5375 309.7025 -9460.4667 -7552.1835 306.7673 708.4069 798.6404 30382.8568 188.4836 253.1553
ENERGY: 600000 3.3212 6.2983 21.6400 0.0000 -10819.3588 1467.1663 0.0000 0.0000 1816.8201 -7504.1129 304.6536 -9320.9330 -7558.6326 303.2133 -25.1575 2.0502 31200.2283 48.5976 111.1555
ENERGY: 900000 0.6530 4.6860 20.7519 0.0000 -10948.4289 1518.5469 0.0000 0.0000 1787.7970 -7615.9942 299.7869 -9403.7912 -7580.4283 302.6124 119.1891 202.0318 30971.6376 -15.3073 41.0364
ENERGY: 1200000 1.3324 5.6837 22.3369 0.0000 -10889.8524 1541.4893 0.0000 0.0000 1797.3739 -7521.6362 301.3928 -9319.0100 -7571.5077 303.4217 738.1131 778.0402 30622.8094 -30.6471 29.6654
ENERGY: 1500000 3.3526 4.9247 21.6651 0.0000 -10807.6882 1413.4486 0.0000 0.0000 1798.4006 -7565.8967 301.5649 -9364.2973 -7580.6104 303.2456 -560.5562 -546.2602 30895.8216 -104.1324 -46.6890
TCL: Running FEP window   3: Lambda1 0.1    Lambda2 0.15000000000000002 [dLambda 0.05000000000000002]
TCL: Setting parameter firsttimestep to 0
TCL: Setting parameter alchLambda to 0.1
Info: NONBONDED TABLE R-SQUARED SPACING: 0.0625
Info: NONBONDED TABLE SIZE: 705 POINTS
TCL: Setting parameter alchLambda2 to 0.15000000000000002
Info: NONBONDED TABLE R-SQUARED SPACING: 0.0625
Info: NONBONDED TABLE SIZE: 705 POINTS
TCL: Running for 1500000 steps
ETITLE: TS BOND ANGLE DIHED IMPRP ELECT VDW BOUNDARY MISC KINETIC TOTAL TEMP POTENTIAL TOTALAVG TEMPAVG PRESSURE GPRESSURE VOLUME PRESSAVG GPRESSAVG
ENERGY: 0 3.3526 4.9247 21.6651 0.0000 -10807.6879 1413.8327 0.0000 0.0000 1797.5229 -7566.3900 301.4178 -9363.9129 -7566.3900 301.4178 -636.2195 -544.3209 30895.8216 -636.2195 -544.3209
ENERGY: 300000 0.9059 5.1986 26.7452 0.0000 -10962.5007 1541.5881 0.0000 0.0000 1798.2876 -7589.7754 301.5460 -9388.0629 -7571.1716 300.4214 532.0821 641.7674 30562.8188 48.0609 100.6761
ENERGY: 600000 1.8963 3.7938 23.5457 0.0000 -10905.6325 1493.8660 0.0000 0.0000 1830.7823 -7551.7483 306.9949 -9382.5307 -7582.0476 300.5700 441.1227 481.8457 30314.1066 203.5580 266.4010
ENERGY: 900000 0.7081 5.3346 22.6707 0.0000 -10922.6334 1453.4579 0.0000 0.0000 1775.5500 -7664.9122 297.7332 -9440.4622 -7588.0810 300.1706 -280.3044 -162.7727 30652.8658 123.9226 188.5902
ENERGY: 1200000 2.4918 2.0178 23.5734 0.0000 -10745.2165 1381.5886 0.0000 0.0000 1742.8879 -7592.6571 292.2563 -9335.5449 -7585.4914 299.0820 -791.9277 -735.8907 30974.4562 13.1440 76.6145
ENERGY: 1500000 0.9849 4.0044 25.0352 0.0000 -10987.2602 1485.3758 0.0000 0.0000 1828.1196 -7643.7402 306.5484 -9471.8598 -7578.7886 299.0638 -121.1476 -90.5395 30670.4101 -79.6456 -16.0726
TCL: Running FEP window   4: Lambda1 0.15000000000000002 Lambda2 0.2    [dLambda 0.04999999999999999]
TCL: Setting parameter firsttimestep to 0
TCL: Setting parameter alchLambda to 0.15000000000000002
Info: NONBONDED TABLE R-SQUARED SPACING: 0.0625
Info: NONBONDED TABLE SIZE: 705 POINTS
TCL: Setting parameter alchLambda2 to 0.2
Info: NONBONDED TABLE R-SQUARED SPACING: 0.0625
Info: NONBONDED TABLE SIZE: 705 POINTS
TCL: Running for 1500000 steps
ETITLE: TS BOND ANGLE DIHED IMPRP ELECT VDW BOUNDARY MISC KINETIC TOTAL TEMP POTENTIAL TOTALAVG TEMPAVG PRESSURE GPRESSURE VOLUME PRESSAVG GPRESSAVG
ENERGY: 0 0.9849 4.0044 25.0352 0.0000 -10987.2590 1485.6862 0.0000 0.0000 1827.2091 -7644.3391 306.3957 -9471.5482 -7644.3391 306.3957 -161.9273 -85.7822 30670.4101 -161.9273 -85.7822
ENERGY: 300000 2.0742 7.7127 20.8289 0.0000 -10896.9391 1505.5323 0.0000 0.0000 1785.8060 -7574.9850 299.4530 -9360.7910 -7602.0969 301.4683 512.5744 593.2538 30448.4228 393.6822 465.4211
ENERGY: 600000 0.8280 6.9078 22.8161 0.0000 -11052.1967 1589.1413 0.0000 0.0000 1781.4111 -7651.0926 298.7160 -9432.5036 -7622.6868 300.3037 835.4741 889.3158 30810.5784 260.9523 333.0057
ENERGY: 900000 2.6534 9.4198 22.3987 0.0000 -10937.3462 1525.1791 0.0000 0.0000 1761.6608 -7616.0345 295.4042 -9377.6953 -7614.1702 299.2459 358.3983 346.1393 30843.9987 138.6393 199.5036
ENERGY: 1200000 1.4880 3.1288 20.6399 0.0000 -10846.9135 1487.3835 0.0000 0.0000 1832.1590 -7502.1143 307.2257 -9334.2733 -7604.5004 299.4635 192.4335 266.4127 31162.7353 133.2996 186.9404
ENERGY: 1500000 0.7006 5.2833 21.5265 0.0000 -11003.9498 1622.7309 0.0000 0.0000 1738.5513 -7615.1572 291.5291 -9353.7085 -7609.9592 298.7503 1293.3566 1344.9307 30449.0033 171.2547 230.5974
TCL: Running FEP window   5: Lambda1 0.2    Lambda2 0.25   [dLambda 0.04999999999999999]
TCL: Setting parameter firsttimestep to 0
TCL: Setting parameter alchLambda to 0.2
Info: NONBONDED TABLE R-SQUARED SPACING: 0.0625
Info: NONBONDED TABLE SIZE: 705 POINTS
TCL: Setting parameter alchLambda2 to 0.25
Info: NONBONDED TABLE R-SQUARED SPACING: 0.0625
Info: NONBONDED TABLE SIZE: 705 POINTS
TCL: Running for 1500000 steps
ETITLE: TS BOND ANGLE DIHED IMPRP ELECT VDW BOUNDARY MISC KINETIC TOTAL TEMP POTENTIAL TOTALAVG TEMPAVG PRESSURE GPRESSURE VOLUME PRESSAVG GPRESSAVG
ENERGY: 0 0.7006 5.2833 21.5265 0.0000 -11003.9489 1623.2536 0.0000 0.0000 1737.6860 -7615.4988 291.3840 -9353.1849 -7615.4988 291.3840 1259.0235 1348.1971 30449.0033 1259.0235 1348.1971
ENERGY: 300000 1.0615 8.3269 23.2290 0.0000 -10951.2363 1478.5455 0.0000 0.0000 1753.2326 -7686.8408 293.9909 -9440.0734 -7606.1145 295.8175 334.6935 374.0492 30006.0921 486.8578 550.5602
ENERGY: 600000 0.5814 5.4508 19.8298 0.0000 -10781.2338 1437.8502 0.0000 0.0000 1760.2649 -7557.2568 295.1701 -9317.5217 -7613.9223 296.3610 53.6331 104.8155 30704.6484 118.0817 187.5185
ENERGY: 900000 1.7413 5.6724 23.0585 0.0000 -10913.9867 1396.3615 0.0000 0.0000 1704.1382 -7783.0149 285.7585 -9487.1531 -7607.6021 297.9876 -758.4976 -670.8947 30395.7285 116.6318 197.6855
ENERGY: 1200000 0.8230 3.8208 19.2710 0.0000 -10954.1079 1522.7550 0.0000 0.0000 1854.5152 -7552.9230 310.9745 -9407.4381 -7597.5577 300.0314 719.9273 787.5039 30510.3862 198.4951 271.3405
ENERGY: 1500000 1.7629 5.9334 21.2663 0.0000 -10806.5908 1427.3668 0.0000 0.0000 1744.9276 -7605.3338 292.5983 -9350.2614 -7594.4399 299.0869 -373.1553 -350.0619 31204.0619 139.0815 208.5962
TCL: Running FEP window   6: Lambda1 0.25   Lambda2 0.3    [dLambda 0.04999999999999999]
TCL: Setting parameter firsttimestep to 0
TCL: Setting parameter alchLambda to 0.25
Info: NONBONDED TABLE R-SQUARED SPACING: 0.0625
Info: NONBONDED TABLE SIZE: 705 POINTS
TCL: Setting parameter alchLambda2 to 0.3
Info: NONBONDED TABLE R-SQUARED SPACING: 0.0625
Info: NONBONDED TABLE SIZE: 705 POINTS
TCL: Running for 1500000 steps
ETITLE: TS BOND ANGLE DIHED IMPRP ELECT VDW BOUNDARY MISC KINETIC TOTAL TEMP POTENTIAL TOTALAVG TEMPAVG PRESSURE GPRESSURE VOLUME PRESSAVG GPRESSAVG
ENERGY: 0 1.7629 5.9334 21.2663 0.0000 -10806.5907 1428.6128 0.0000 0.0000 1744.0672 -7604.9482 292.4540 -9349.0154 -7604.9482 292.4540 -421.2518 -341.3564 31204.0619 -421.2518 -341.3564
ENERGY: 300000 1.0524 5.0197 23.6641 0.0000 -10888.4469 1483.9843 0.0000 0.0000 1809.1558 -7565.5706 303.3684 -9374.7265 -7544.1873 296.7005 343.5184 361.9270 30664.9431 -228.1392 -151.8662
ENERGY: 600000 1.4996 6.4710 21.1549 0.0000 -10818.6811 1427.5753 0.0000 0.0000 1756.1049 -7605.8753 294.4726 -9361.9802 -7570.4146 297.2439 -329.1428 -317.4847 30965.1204 -109.8442 -42.3960
ENERGY: 900000 2.1397 6.2278 21.7376 0.0000 -10726.8697 1393.7197 0.0000 0.0000 1790.3099 -7512.7350 300.2082 -9303.0448 -7564.9660 298.6120 -419.8544 -370.7491 31065.6866 -175.5150 -111.9692
ENERGY: 1200000 2.3584 6.0591 25.1748 0.0000 -10833.4006 1446.2607 0.0000 0.0000 1776.0196 -7577.5280 297.8120 -9353.5476 -7562.8284 298.8462 -96.5268 -108.0866 30969.0962 -105.3894 -50.1008
ENERGY: 1500000 4.1977 4.2675 21.3583 0.0000 -10811.2121 1399.7591 0.0000 0.0000 1756.6076 -7625.0220 294.5569 -9381.6297 -7562.7183 299.1397 -924.8655 -893.7801 31077.6825 -147.8979 -91.9908
TCL: Running FEP window   7: Lambda1 0.3    Lambda2 0.35   [dLambda 0.04999999999999999]
TCL: Setting parameter firsttimestep to 0
TCL: Setting parameter alchLambda to 0.3
Info: NONBONDED TABLE R-SQUARED SPACING: 0.0625
Info: NONBONDED TABLE SIZE: 705 POINTS
TCL: Setting parameter alchLambda2 to 0.35
Info: NONBONDED TABLE R-SQUARED SPACING: 0.0625
Info: NONBONDED TABLE SIZE: 705 POINTS
TCL: Running for 1500000 steps
ETITLE: TS BOND ANGLE DIHED IMPRP ELECT VDW BOUNDARY MISC KINETIC TOTAL TEMP POTENTIAL TOTALAVG TEMPAVG PRESSURE GPRESSURE VOLUME PRESSAVG GPRESSAVG
ENERGY: 0 4.1977 4.2675 21.3583 0.0000 -10811.2121 1400.3097 0.0000 0.0000 1755.6964 -7625.3826 294.4041 -9381.0790 -7625.3826 294.4041 -976.7637 -888.0806 31077.6825 -976.7637 -888.0806
ENERGY: 300000 2.1927 8.7052 21.9702 0.0000 -10995.3535 1541.8478 0.0000 0.0000 1773.5797 -7647.0579 297.4028 -9420.6375 -7649.3413 293.8940 698.8652 746.9879 30276.6917 -473.7673 -370.4283
ENERGY: 600000 1.2484 4.6375 24.8541 0.0000 -10810.9525 1480.9228 0.0000 0.0000 1793.5762 -7505.7136 300.7559 -9299.2898 -7585.4860 297.0798 258.5105 331.5235 31000.6303 -418.6452 -312.4486
ENERGY: 900000 2.3098 2.0528 26.1009 0.0000 -10920.4324 1528.2985 0.0000 0.0000 1791.4168 -7570.2535 300.3939 -9361.6704 -7577.8165 297.1522 298.5511 364.2396 31114.1943 -268.6764 -181.5552
ENERGY: 1200000 2.4728 7.1028 24.6470 0.0000 -10625.0211 1350.7882 0.0000 0.0000 1792.9837 -7447.0267 300.6566 -9240.0104 -7571.8637 297.1771 -603.7887 -570.1900 31455.6748 -233.7504 -148.2164
ENERGY: 1500000 4.6181 6.9495 19.8217 0.0000 -10867.2323 1464.3217 0.0000 0.0000 1803.7707 -7567.7506 302.4654 -9371.5212 -7574.4351 297.7272 -213.4469 -98.6132 30967.1623 -195.5053 -115.1396
TCL: Running FEP window   8: Lambda1 0.35   Lambda2 0.39999999999999997 [dLambda 0.04999999999999999]
TCL: Setting parameter firsttimestep to 0
TCL: Setting parameter alchLambda to 0.35
Info: NONBONDED TABLE R-SQUARED SPACING: 0.0625
Info: NONBONDED TABLE SIZE: 705 POINTS
TCL: Setting parameter alchLambda2 to 0.39999999999999997
Info: NONBONDED TABLE R-SQUARED SPACING: 0.0625
Info: NONBONDED TABLE SIZE: 705 POINTS
TCL: Running for 1500000 steps
ETITLE: TS BOND ANGLE DIHED IMPRP ELECT VDW BOUNDARY MISC KINETIC TOTAL TEMP POTENTIAL TOTALAVG TEMPAVG PRESSURE GPRESSURE VOLUME PRESSAVG GPRESSAVG
ENERGY: 0 4.6181 6.9495 19.8217 0.0000 -10867.2329 1465.8824 0.0000 0.0000 1802.9039 -7567.0573 302.3201 -9369.9612 -7567.0573 302.3201 -173.4892 -88.0372 30967.1623 -173.4892 -88.0372
ENERGY: 300000 3.2616 5.8768 20.7172 0.0000 -10759.2878 1417.2291 0.0000 0.0000 1776.3169 -7535.8862 297.8618 -9312.2031 -7556.6289 302.6678 -332.0850 -276.3980 31051.5524 -394.1353 -326.8287
ENERGY: 600000 1.5947 4.5675 22.1562 0.0000 -10710.6010 1373.3502 0.0000 0.0000 1778.8792 -7530.0532 298.2915 -9308.9324 -7577.5875 299.1684 -701.8823 -652.4529 30792.7297 -173.6635 -112.8025
ENERGY: 900000 4.6990 5.4609 22.8604 0.0000 -10985.1024 1503.2076 0.0000 0.0000 1804.1979 -7644.6767 302.5370 -9448.8746 -7580.3460 300.7546 -6.1766 44.3925 30501.4122 -93.2236 -30.1469
ENERGY: 1200000 3.4894 8.1214 24.4904 0.0000 -10990.8986 1566.3075 0.0000 0.0000 1818.8743 -7569.6157 304.9981 -9388.4900 -7575.5741 301.3260 855.7046 920.8409 30380.1449 -54.1606 2.6902
ENERGY: 1500000 1.8504 3.9143 26.6323 0.0000 -10814.5886 1468.2940 0.0000 0.0000 1815.8759 -7498.0217 304.4953 -9313.8977 -7573.0045 301.2640 500.4408 544.5763 30291.4816 30.9038 83.9202
TCL: Running FEP window   9: Lambda1 0.39999999999999997 Lambda2 0.44999999999999996 [dLambda 0.04999999999999999]
TCL: Setting parameter firsttimestep to 0
TCL: Setting parameter alchLambda to 0.39999999999999997
Info: NONBONDED TABLE R-SQUARED SPACING: 0.0625
Info: NONBONDED TABLE SIZE: 705 POINTS
TCL: Setting parameter alchLambda2 to 0.44999999999999996
Info: NONBONDED TABLE R-SQUARED SPACING: 0.0625
Info: NONBONDED TABLE SIZE: 705 POINTS
TCL: Running for 1500000 steps
ETITLE: TS BOND ANGLE DIHED IMPRP ELECT VDW BOUNDARY MISC KINETIC TOTAL TEMP POTENTIAL TOTALAVG TEMPAVG PRESSURE GPRESSURE VOLUME PRESSAVG GPRESSAVG
ENERGY: 0 1.8504 3.9143 26.6323 0.0000 -10814.5887 1471.1306 0.0000 0.0000 1814.9621 -7496.0990 304.3420 -9311.0611 -7496.0990 304.3420 489.0452 568.0990 30291.4816 489.0452 568.0990
ENERGY: 300000 0.9871 8.5827 19.5260 0.0000 -10890.4972 1459.1286 0.0000 0.0000 1771.0440 -7631.2289 296.9776 -9402.2729 -7601.6044 299.7419 -51.4730 26.1561 30728.2749 -94.1546 -4.0326
ENERGY: 600000 1.5936 6.3174 23.4595 0.0000 -10902.9659 1489.0132 0.0000 0.0000 1765.8198 -7616.7624 296.1016 -9382.5822 -7593.0821 299.5016 25.2654 98.1117 30900.8478 -58.8389 23.7444
ENERGY: 900000 3.7146 6.6572 18.9887 0.0000 -10890.0185 1476.9090 0.0000 0.0000 1792.7763 -7590.9727 300.6218 -9383.7490 -7598.2017 300.0106 -36.2710 -28.0724 30810.8919 15.3644 81.5082
ENERGY: 1200000 1.7766 3.7965 20.9450 0.0000 -10805.8546 1453.9862 0.0000 0.0000 1785.8096 -7539.5407 299.4536 -9325.3504 -7588.8226 299.9436 -110.6676 -5.8982 31056.7701 -55.2436 19.9708
ENERGY: 1500000 2.4624 4.7394 24.4159 0.0000 -11020.5366 1597.2583 0.0000 0.0000 1814.0662 -7577.5942 304.1918 -9391.6605 -7584.1172 300.0829 1246.0661 1298.9558 30300.2521 53.8730 129.2187
TCL: Running FEP window  10: Lambda1 0.44999999999999996 Lambda2 0.49999999999999994 [dLambda 0.04999999999999999]
TCL: Setting parameter firsttimestep to 0
TCL: Setting parameter alchLambda to 0.44999999999999996
Info: NONBONDED TABLE R-SQUARED SPACING: 0.0625
Info: NONBONDED TABLE SIZE: 705 POINTS
TCL: Setting parameter alchLambda2 to 0.49999999999999994
Info: NONBONDED TABLE R-SQUARED SPACING: 0.0625
Info: NONBONDED TABLE SIZE: 705 POINTS
TCL: Running for 1500000 steps
ETITLE: TS BOND ANGLE DIHED IMPRP ELECT VDW BOUNDARY MISC KINETIC TOTAL TEMP POTENTIAL TOTALAVG TEMPAVG PRESSURE GPRESSURE VOLUME PRESSAVG GPRESSAVG
ENERGY: 0 2.4624 4.7394 24.4159 0.0000 -11020.5363 1597.7306 0.0000 0.0000 1813.1901 -7577.9978 304.0449 -9391.1879 -7577.9978 304.0449 1230.1485 1309.4070 30300.2521 1230.1485 1309.4070
ENERGY: 300000 0.7864 8.7003 20.6827 0.0000 -10930.9093 1513.3288 0.0000 0.0000 1826.2262 -7561.1849 306.2309 -9387.4111 -7565.9295 304.9392 495.3375 546.2453 30812.3894 293.8690 372.8989
ENERGY: 600000 1.5026 4.1212 21.6594 0.0000 -10936.1762 1485.7017 0.0000 0.0000 1794.6914 -7628.4998 300.9430 -9423.1912 -7578.3091 302.0953 -230.5043 -149.5453 31294.8890 153.1386 226.7673
ENERGY: 900000 1.0732 4.0003 24.2011 0.0000 -10780.4167 1430.5247 0.0000 0.0000 1761.3741 -7559.2434 295.3561 -9320.6174 -7582.3224 299.8961 -69.6568 -66.6660 30856.0374 65.9347 139.7406
ENERGY: 1200000 0.9304 4.0778 19.1311 0.0000 -10816.1657 1435.3066 0.0000 0.0000 1824.9256 -7531.7943 306.0128 -9356.7198 -7575.0310 300.5495 -196.4297 -156.1642 30965.0041 19.9973 89.7569
ENERGY: 1500000 2.3251 4.9461 25.2923 0.0000 -10921.2088 1466.3279 0.0000 0.0000 1857.1927 -7565.1247 311.4235 -9422.3174 -7572.4639 301.5514 -249.6297 -169.4848 31074.3569 54.4129 125.4989
TCL: Running FEP window  11: Lambda1 0.49999999999999994 Lambda2 0.5499999999999999 [dLambda 0.04999999999999999]
TCL: Setting parameter firsttimestep to 0
TCL: Setting parameter alchLambda to 0.49999999999999994
Info: NONBONDED TABLE R-SQUARED SPACING: 0.0625
Info: NONBONDED TABLE SIZE: 705 POINTS
TCL: Setting parameter alchLambda2 to 0.5499999999999999
Info: NONBONDED TABLE R-SQUARED SPACING: 0.0625
Info: NONBONDED TABLE SIZE: 705 POINTS
TCL: Running for 1500000 steps
ETITLE: TS BOND ANGLE DIHED IMPRP ELECT VDW BOUNDARY MISC KINETIC TOTAL TEMP POTENTIAL TOTALAVG TEMPAVG PRESSURE GPRESSURE VOLUME PRESSAVG GPRESSAVG
ENERGY: 0 2.3251 4.9461 25.2923 0.0000 -10921.2086 1466.5373 0.0000 0.0000 1856.2929 -7565.8150 311.2726 -9422.1079 -7565.8150 311.2726 -242.2243 -165.0499 31074.3569 -242.2243 -165.0499
ENERGY: 300000 0.9999 7.7114 20.2309 0.0000 -10866.3492 1463.4685 0.0000 0.0000 1774.3060 -7599.6325 297.5246 -9373.9385 -7585.5548 301.6271 -117.7326 -50.7087 30791.5150 -78.5913 1.9961
ENERGY: 600000 0.2333 8.1287 20.6634 0.0000 -10839.2558 1395.3537 0.0000 0.0000 1820.5716 -7594.3051 305.2827 -9414.8767 -7569.5270 303.5407 -423.3954 -302.3360 30504.1363 -127.9487 -40.1465
ENERGY: 900000 1.0972 5.2310 19.4840 0.0000 -10917.8063 1505.1978 0.0000 0.0000 1745.0020 -7641.7943 292.6108 -9386.7963 -7585.0795 301.4430 475.6992 574.9025 30301.7831 -134.0074 -48.9547
ENERGY: 1200000 2.0947 5.4283 23.8113 0.0000 -10717.1139 1393.3653 0.0000 0.0000 1776.3362 -7516.0781 297.8651 -9292.4143 -7580.2634 300.5354 -399.1770 -340.8408 31312.1095 -199.3797 -127.0193
ENERGY: 1500000 1.7276 5.9087 28.4003 0.0000 -10886.9268 1534.9905 0.0000 0.0000 1802.0626 -7513.8371 302.1790 -9315.8997 -7581.7705 300.5562 675.5562 743.4125 30766.9334 -78.7630 -2.8552
TCL: Running FEP window  12: Lambda1 0.5499999999999999 Lambda2 0.6    [dLambda 0.050000000000000044]
TCL: Setting parameter firsttimestep to 0
TCL: Setting parameter alchLambda to 0.5499999999999999
Info: NONBONDED TABLE R-SQUARED SPACING: 0.0625
Info: NONBONDED TABLE SIZE: 705 POINTS
TCL: Setting parameter alchLambda2 to 0.6
Info: NONBONDED TABLE R-SQUARED SPACING: 0.0625
Info: NONBONDED TABLE SIZE: 705 POINTS
TCL: Running for 1500000 steps
ETITLE: TS BOND ANGLE DIHED IMPRP ELECT VDW BOUNDARY MISC KINETIC TOTAL TEMP POTENTIAL TOTALAVG TEMPAVG PRESSURE GPRESSURE VOLUME PRESSAVG GPRESSAVG
ENERGY: 0 1.7276 5.9087 28.4003 0.0000 -10886.9928 1535.1776 0.0000 0.0000 1801.1768 -7514.6020 302.0305 -9315.7788 -7514.6020 302.0305 669.3548 750.9899 30766.9334 669.3548 750.9899
ENERGY: 300000 2.7311 7.5666 20.3600 0.0000 -10684.8011 1387.6718 0.0000 0.0000 1759.5390 -7506.9326 295.0484 -9266.4716 -7502.8320 300.0906 -692.5604 -591.2631 31189.4292 172.6702 251.0953
ENERGY: 600000 3.9319 9.1034 21.5379 0.0000 -10878.4953 1476.3317 0.0000 0.0000 1697.0817 -7670.5087 284.5753 -9367.5904 -7552.4629 297.9812 -198.9748 -168.4725 31481.3567 130.6571 191.3423
ENERGY: 900000 2.8567 8.4444 22.4108 0.0000 -10871.7143 1472.5651 0.0000 0.0000 1754.3032 -7611.1343 294.1704 -9365.4374 -7573.7798 296.4460 -90.0717 -23.7920 31067.8398 79.0583 143.5236
ENERGY: 1200000 0.8603 6.0282 23.9535 0.0000 -11016.2190 1599.3131 0.0000 0.0000 1832.5978 -7553.4661 307.2993 -9386.0639 -7585.6385 297.9498 1189.3679 1307.5582 30425.1105 116.1283 177.4691
ENERGY: 1500000 0.9888 2.5236 22.1603 0.0000 -10828.3800 1491.8861 0.0000 0.0000 1804.9962 -7505.8250 302.6709 -9310.8212 -7576.5961 298.5361 311.7329 385.7824 31150.7454 70.1207 139.2435
TCL: Running FEP window  13: Lambda1 0.6    Lambda2 0.65   [dLambda 0.050000000000000044]
TCL: Setting parameter firsttimestep to 0
TCL: Setting parameter alchLambda to 0.6
Info: NONBONDED TABLE R-SQUARED SPACING: 0.0625
Info: NONBONDED TABLE SIZE: 705 POINTS
TCL: Setting parameter alchLambda2 to 0.65
Info: NONBONDED TABLE R-SQUARED SPACING: 0.0625
Info: NONBONDED TABLE SIZE: 705 POINTS
TCL: Running for 1500000 steps
ETITLE: TS BOND ANGLE DIHED IMPRP ELECT VDW BOUNDARY MISC KINETIC TOTAL TEMP POTENTIAL TOTALAVG TEMPAVG PRESSURE GPRESSURE VOLUME PRESSAVG GPRESSAVG
ENERGY: 0 0.9888 2.5236 22.1603 0.0000 -10828.1795 1491.6411 0.0000 0.0000 1804.0747 -7506.7909 302.5164 -9310.8657 -7506.7909 302.5164 302.7359 391.4137 31150.7454 302.7359 391.4137
ENERGY: 300000 2.4001 7.8861 21.6430 0.0000 -10843.9540 1453.7315 0.0000 0.0000 1791.1279 -7567.1654 300.3454 -9358.2933 -7566.2714 299.9793 98.7702 111.1967 30750.0668 -27.5935 46.9911
ENERGY: 600000 1.0132 4.0254 24.4527 0.0000 -10769.9531 1386.9082 0.0000 0.0000 1748.0315 -7605.5222 293.1188 -9353.5537 -7566.3852 299.1271 -625.4104 -557.5886 31086.6593 -29.0744 29.5613
ENERGY: 900000 1.7599 6.7680 21.7523 0.0000 -10681.1019 1396.9204 0.0000 0.0000 1760.9126 -7492.9886 295.2787 -9253.9012 -7533.9409 300.9025 -502.6351 -426.3987 31539.5590 -101.3260 -39.8616
ENERGY: 1200000 1.6870 9.5386 19.4191 0.0000 -10844.7112 1449.7981 0.0000 0.0000 1774.5627 -7589.7056 297.5677 -9364.2683 -7556.9216 299.7558 -122.3990 -27.1377 30884.4659 -91.5048 -30.9874
ENERGY: 1500000 1.3738 6.0505 21.5323 0.0000 -10913.4213 1477.8668 0.0000 0.0000 1783.2590 -7623.3390 299.0259 -9406.5979 -7566.8949 298.8376 185.3186 253.3301 30595.3379 -46.6980 9.0634
TCL: Running FEP window  14: Lambda1 0.65   Lambda2 0.7000000000000001 [dLambda 0.050000000000000044]
TCL: Setting parameter firsttimestep to 0
TCL: Setting parameter alchLambda to 0.65
Info: NONBONDED TABLE R-SQUARED SPACING: 0.0625
Info: NONBONDED TABLE SIZE: 705 POINTS
TCL: Setting parameter alchLambda2 to 0.7000000000000001
Info: NONBONDED TABLE R-SQUARED SPACING: 0.0625
Info: NONBONDED TABLE SIZE: 705 POINTS
TCL: Running for 1500000 steps
ETITLE: TS BOND ANGLE DIHED IMPRP ELECT VDW BOUNDARY MISC KINETIC TOTAL TEMP POTENTIAL TOTALAVG TEMPAVG PRESSURE GPRESSURE VOLUME PRESSAVG GPRESSAVG
ENERGY: 0 1.3738 6.0505 21.5323 0.0000 -10913.4411 1477.5869 0.0000 0.0000 1782.3901 -7624.5075 298.8802 -9406.8976 -7624.5075 298.8802 164.6696 253.4330 30595.3379 164.6696 253.4330
ENERGY: 300000 0.8063 3.2005 25.1914 0.0000 -10890.6598 1469.0749 0.0000 0.0000 1752.6910 -7639.6957 293.9001 -9392.3866 -7603.2295 298.4120 -6.6218 26.4863 30810.8684 -44.1132 19.9156
ENERGY: 600000 3.3277 8.3432 20.9117 0.0000 -10848.4332 1403.9565 0.0000 0.0000 1806.5403 -7605.3537 302.9298 -9411.8940 -7605.8766 298.9001 -498.3018 -444.9825 30584.6763 49.3759 115.5005
ENERGY: 900000 0.4533 2.6609 20.6413 0.0000 -10858.7677 1459.0617 0.0000 0.0000 1801.8509 -7574.0995 302.1435 -9375.9504 -7592.3805 299.5944 29.3580 128.5130 30792.5693 4.8592 74.3590
ENERGY: 1200000 1.3555 5.8932 22.9683 0.0000 -10824.0867 1394.5493 0.0000 0.0000 1802.8111 -7596.5093 302.3045 -9399.3204 -7588.2412 299.8257 -689.2229 -631.0725 30929.3790 -152.0813 -83.5412
ENERGY: 1500000 1.2800 9.9775 25.4854 0.0000 -10962.7585 1455.5411 0.0000 0.0000 1790.8756 -7679.5989 300.3031 -9470.4746 -7585.0500 300.2714 -154.2157 -71.0992 30473.3057 -131.4091 -59.1109
TCL: Running FEP window  15: Lambda1 0.7000000000000001 Lambda2 0.7500000000000001 [dLambda 0.050000000000000044]
TCL: Setting parameter firsttimestep to 0
TCL: Setting parameter alchLambda to 0.7000000000000001
Info: NONBONDED TABLE R-SQUARED SPACING: 0.0625
Info: NONBONDED TABLE SIZE: 705 POINTS
TCL: Setting parameter alchLambda2 to 0.7500000000000001
Info: NONBONDED TABLE R-SQUARED SPACING: 0.0625
Info: NONBONDED TABLE SIZE: 705 POINTS
TCL: Running for 1500000 steps
ETITLE: TS BOND ANGLE DIHED IMPRP ELECT VDW BOUNDARY MISC KINETIC TOTAL TEMP POTENTIAL TOTALAVG TEMPAVG PRESSURE GPRESSURE VOLUME PRESSAVG GPRESSAVG
ENERGY: 0 1.2800 9.9775 25.4854 0.0000 -10962.7337 1455.3211 0.0000 0.0000 1789.9405 -7680.7292 300.1463 -9470.6697 -7680.7292 300.1463 -149.3413 -64.7133 30473.3057 -149.3413 -64.7133
ENERGY: 300000 1.0723 5.1084 20.3112 0.0000 -10908.2595 1475.2359 0.0000 0.0000 1810.5261 -7596.0056 303.5982 -9406.5316 -7605.0745 297.0792 46.6143 98.0717 30904.8825 -35.0225 29.6280
ENERGY: 600000 1.2689 5.2566 19.7463 0.0000 -10855.9792 1498.3796 0.0000 0.0000 1778.0787 -7553.2490 298.1573 -9331.3278 -7583.9866 297.5980 274.6082 329.3036 31145.6047 76.0907 145.5970
ENERGY: 900000 8.0464 5.9818 21.4048 0.0000 -10832.1874 1463.8409 0.0000 0.0000 1732.9998 -7599.9138 290.5982 -9332.9135 -7571.6209 297.5398 177.8753 237.9026 30696.0827 102.9519 166.2932
ENERGY: 1200000 0.7070 7.7631 19.5158 0.0000 -10938.8107 1538.2797 0.0000 0.0000 1782.0345 -7590.5105 298.8206 -9372.5451 -7583.5631 297.7468 374.7960 417.9494 31114.0217 149.8313 204.6552
ENERGY: 1500000 2.9723 8.0987 22.4139 0.0000 -10904.1289 1464.9019 0.0000 0.0000 1750.6181 -7655.1240 293.5525 -9405.7421 -7584.4576 297.9827 -60.1719 40.9812 30586.3485 159.5791 220.2664
TCL: Running FEP window  16: Lambda1 0.7500000000000001 Lambda2 0.8000000000000002 [dLambda 0.050000000000000044]
TCL: Setting parameter firsttimestep to 0
TCL: Setting parameter alchLambda to 0.7500000000000001
Info: NONBONDED TABLE R-SQUARED SPACING: 0.0625
Info: NONBONDED TABLE SIZE: 705 POINTS
TCL: Setting parameter alchLambda2 to 0.8000000000000002
Info: NONBONDED TABLE R-SQUARED SPACING: 0.0625
Info: NONBONDED TABLE SIZE: 705 POINTS
TCL: Running for 1500000 steps
ETITLE: TS BOND ANGLE DIHED IMPRP ELECT VDW BOUNDARY MISC KINETIC TOTAL TEMP POTENTIAL TOTALAVG TEMPAVG PRESSURE GPRESSURE VOLUME PRESSAVG GPRESSAVG
ENERGY: 0 2.9723 8.0987 22.4139 0.0000 -10904.1044 1465.3076 0.0000 0.0000 1749.6914 -7655.6205 293.3971 -9405.3119 -7655.6205 293.3971 -41.4717 56.5053 30586.3485 -41.4717 56.5053
ENERGY: 300000 0.4966 7.7635 18.9762 0.0000 -10852.9460 1489.5741 0.0000 0.0000 1732.4353 -7603.7003 290.5035 -9336.1356 -7602.5865 297.9056 247.9646 289.9782 31229.5931 8.4269 75.8127
ENERGY: 600000 4.0820 5.0329 24.6734 0.0000 -10856.5564 1422.7469 0.0000 0.0000 1761.1661 -7638.8551 295.3213 -9400.0211 -7596.6796 298.5211 -439.9759 -322.6039 30472.6079 -61.4568 5.2970
ENERGY: 900000 2.1374 6.0171 21.8251 0.0000 -10983.5238 1488.5224 0.0000 0.0000 1772.0055 -7693.0162 297.1389 -9465.0217 -7614.4250 297.7140 179.8903 193.9959 30439.2666 17.7781 79.1426
ENERGY: 1200000 1.1853 6.2053 20.9020 0.0000 -10877.5893 1451.6608 0.0000 0.0000 1782.3774 -7615.2585 298.8781 -9397.6359 -7615.3354 298.7959 40.9803 121.5746 30454.1439 -21.3932 43.1223
ENERGY: 1500000 2.0649 8.1124 20.4608 0.0000 -10949.9043 1544.5016 0.0000 0.0000 1724.9701 -7649.7945 289.2517 -9374.7646 -7613.3978 298.4257 542.2804 627.9271 30628.7676 14.6067 84.3531
TCL: Running FEP window  17: Lambda1 0.8000000000000002 Lambda2 0.8500000000000002 [dLambda 0.050000000000000044]
TCL: Setting parameter firsttimestep to 0
TCL: Setting parameter alchLambda to 0.8000000000000002
Info: NONBONDED TABLE R-SQUARED SPACING: 0.0625
Info: NONBONDED TABLE SIZE: 705 POINTS
TCL: Setting parameter alchLambda2 to 0.8500000000000002
Info: NONBONDED TABLE R-SQUARED SPACING: 0.0625
Info: NONBONDED TABLE SIZE: 705 POINTS
TCL: Running for 1500000 steps
ETITLE: TS BOND ANGLE DIHED IMPRP ELECT VDW BOUNDARY MISC KINETIC TOTAL TEMP POTENTIAL TOTALAVG TEMPAVG PRESSURE GPRESSURE VOLUME PRESSAVG GPRESSAVG
ENERGY: 0 2.0649 8.1124 20.4608 0.0000 -10949.9030 1545.1193 0.0000 0.0000 1724.0804 -7650.0651 289.1025 -9374.1455 -7650.0651 289.1025 553.5941 643.8696 30628.7676 553.5941 643.8696
ENERGY: 300000 1.8941 4.0123 25.8761 0.0000 -10772.8000 1394.3348 0.0000 0.0000 1769.5419 -7577.1409 296.7258 -9346.6827 -7630.8188 295.1291 -678.6739 -655.9304 31442.0767 -207.3027 -163.4510
ENERGY: 600000 2.3503 6.6896 21.7820 0.0000 -10843.2180 1498.7039 0.0000 0.0000 1764.2140 -7549.4782 295.8323 -9313.6922 -7611.1762 297.3298 480.1708 573.4682 30559.0515 318.7901 368.1363
ENERGY: 900000 4.0484 4.0241 20.6499 0.0000 -10934.8098 1450.4493 0.0000 0.0000 1775.6282 -7680.0100 297.7463 -9455.6382 -7618.6723 297.8340 -353.4088 -288.4781 30534.6477 210.3823 258.1505
ENERGY: 1200000 3.3950 6.2884 18.9741 0.0000 -10664.2536 1351.4062 0.0000 0.0000 1799.0982 -7485.0917 301.6819 -9284.1899 -7596.8845 299.8896 -784.0530 -712.1246 31204.0729 76.5805 124.4985
ENERGY: 1500000 1.5762 5.6155 22.8894 0.0000 -10841.9408 1477.0495 0.0000 0.0000 1770.6826 -7564.1278 296.9170 -9334.8103 -7601.4389 299.4319 74.5377 172.9555 31146.7694 51.2629 98.6539
TCL: Running FEP window  18: Lambda1 0.8500000000000002 Lambda2 0.9000000000000002 [dLambda 0.050000000000000044]
TCL: Setting parameter firsttimestep to 0
TCL: Setting parameter alchLambda to 0.8500000000000002
Info: NONBONDED TABLE R-SQUARED SPACING: 0.0625
Info: NONBONDED TABLE SIZE: 705 POINTS
TCL: Setting parameter alchLambda2 to 0.9000000000000002
Info: NONBONDED TABLE R-SQUARED SPACING: 0.0625
Info: NONBONDED TABLE SIZE: 705 POINTS
TCL: Running for 1500000 steps
ETITLE: TS BOND ANGLE DIHED IMPRP ELECT VDW BOUNDARY MISC KINETIC TOTAL TEMP POTENTIAL TOTALAVG TEMPAVG PRESSURE GPRESSURE VOLUME PRESSAVG GPRESSAVG
ENERGY: 0 1.5762 5.6155 22.8894 0.0000 -10842.2415 1477.1977 0.0000 0.0000 1769.8222 -7565.1406 296.7728 -9334.9628 -7565.1406 296.7728 110.5825 181.6489 31146.7694 110.5825 181.6489
ENERGY: 300000 0.3997 6.6532 23.4929 0.0000 -10805.5105 1481.5301 0.0000 0.0000 1728.2280 -7565.2066 289.7980 -9293.4346 -7593.0968 298.8183 264.2604 313.9933 31175.8335 5.6403 88.3488
ENERGY: 600000 2.7507 4.4589 22.6916 0.0000 -10899.2130 1483.9056 0.0000 0.0000 1798.3721 -7587.0342 301.5602 -9385.4063 -7586.9153 299.3492 -20.8451 18.4630 31235.3345 45.8340 101.3364
ENERGY: 900000 1.1186 4.8558 20.4656 0.0000 -10993.9407 1542.5719 0.0000 0.0000 1790.2102 -7634.7186 300.1915 -9424.9287 -7581.2608 300.6897 521.0554 595.9107 30724.2941 121.9405 183.3074
ENERGY: 1200000 1.0198 7.2309 22.8672 0.0000 -10814.2071 1429.0418 0.0000 0.0000 1803.6003 -7550.4472 302.4368 -9354.0475 -7575.1676 300.6690 46.8687 118.4969 30784.7043 117.9894 174.6409
ENERGY: 1500000 0.7640 7.1212 21.9819 0.0000 -10784.0046 1413.4980 0.0000 0.0000 1767.3380 -7573.3015 296.3562 -9340.6395 -7571.0910 300.6850 82.1075 103.1537 30450.5380 48.8597 101.0569
TCL: Running FEP window  19: Lambda1 0.9000000000000002 Lambda2 0.9500000000000003 [dLambda 0.050000000000000044]
TCL: Setting parameter firsttimestep to 0
TCL: Setting parameter alchLambda to 0.9000000000000002
Info: NONBONDED TABLE R-SQUARED SPACING: 0.0625
Info: NONBONDED TABLE SIZE: 705 POINTS
TCL: Setting parameter alchLambda2 to 0.9500000000000003
Info: NONBONDED TABLE R-SQUARED SPACING: 0.0625
Info: NONBONDED TABLE SIZE: 705 POINTS
TCL: Running for 1500000 steps
ETITLE: TS BOND ANGLE DIHED IMPRP ELECT VDW BOUNDARY MISC KINETIC TOTAL TEMP POTENTIAL TOTALAVG TEMPAVG PRESSURE GPRESSURE VOLUME PRESSAVG GPRESSAVG
ENERGY: 0 0.7640 7.1212 21.9819 0.0000 -10784.1243 1413.6355 0.0000 0.0000 1766.4667 -7574.1550 296.2101 -9340.6217 -7574.1550 296.2101 38.4219 117.0799 30450.5380 38.4219 117.0799
ENERGY: 300000 0.8551 4.5224 21.3812 0.0000 -10833.6753 1473.7508 0.0000 0.0000 1804.5178 -7528.6480 302.5907 -9333.1658 -7576.1571 299.2594 302.5494 402.9099 30797.9959 -177.1790 -75.5112
ENERGY: 600000 3.3306 7.2477 20.5444 0.0000 -10786.5150 1402.4077 0.0000 0.0000 1828.0696 -7524.9151 306.5400 -9352.9846 -7571.7101 299.7205 -382.8377 -322.5639 31033.3689 -181.6653 -102.6638
ENERGY: 900000 3.1535 3.1841 18.5639 0.0000 -10808.8630 1498.2278 0.0000 0.0000 1825.6849 -7460.0487 306.1401 -9285.7337 -7569.9645 299.0198 347.3843 314.6720 31395.2367 -96.1531 -27.6715
ENERGY: 1200000 1.4078 3.5992 21.1424 0.0000 -10805.3703 1441.8858 0.0000 0.0000 1782.2161 -7555.1191 298.8510 -9337.3352 -7578.2392 299.1495 -47.0185 -39.2002 30886.3426 -47.8571 16.8647
ENERGY: 1500000 1.1840 4.2839 21.8829 0.0000 -10873.9763 1517.0330 0.0000 0.0000 1774.0248 -7555.5677 297.4775 -9329.5925 -7572.8080 299.2384 659.8327 738.1804 30615.2192 -23.2839 44.9413
TCL: Running FEP window  20: Lambda1 0.9500000000000003 Lambda2 1.0    [dLambda 0.04999999999999971]
TCL: Setting parameter firsttimestep to 0
TCL: Setting parameter alchLambda to 0.9500000000000003
Info: NONBONDED TABLE R-SQUARED SPACING: 0.0625
Info: NONBONDED TABLE SIZE: 705 POINTS
TCL: Setting parameter alchLambda2 to 1.0
Info: NONBONDED TABLE R-SQUARED SPACING: 0.0625
Info: NONBONDED TABLE SIZE: 705 POINTS
TCL: Running for 1500000 steps
ETITLE: TS BOND ANGLE DIHED IMPRP ELECT VDW BOUNDARY MISC KINETIC TOTAL TEMP POTENTIAL TOTALAVG TEMPAVG PRESSURE GPRESSURE VOLUME PRESSAVG GPRESSAVG
ENERGY: 0 1.1840 4.2839 21.8829 0.0000 -10874.0564 1517.4215 0.0000 0.0000 1773.1238 -7556.1604 297.3264 -9329.2842 -7556.1604 297.3264 665.7669 755.7046 30615.2192 665.7669 755.7046
ENERGY: 300000 0.5235 5.8605 22.3966 0.0000 -10809.4813 1442.8213 0.0000 0.0000 1786.8057 -7551.0735 299.6206 -9337.8793 -7590.1772 295.0140 -141.2541 -36.0175 31046.2766 338.1773 399.4239
ENERGY: 600000 2.5354 6.1584 23.3455 0.0000 -10671.3109 1359.5739 0.0000 0.0000 1817.3225 -7462.3751 304.7379 -9279.6976 -7579.8792 297.3127 -716.2288 -666.6136 31490.7641 -114.6085 -39.8319
ENERGY: 900000 2.0649 2.9857 22.1852 0.0000 -10880.9777 1450.8513 0.0000 0.0000 1810.7713 -7592.1193 303.6393 -9402.8906 -7583.7180 298.3583 -164.6224 -104.5190 30823.4265 -82.7663 -21.6925
ENERGY: 1200000 2.1804 5.3733 23.9097 0.0000 -10759.9030 1343.9263 0.0000 0.0000 1825.9294 -7558.5839 306.1811 -9384.5132 -7582.6589 298.8486 -810.2388 -761.6704 31037.5391 -104.9800 -43.4358
ENERGY: 1500000 3.7622 3.7760 23.9921 0.0000 -10788.2104 1408.4457 0.0000 0.0000 1772.9956 -7575.2389 297.3049 -9348.2345 -7581.6447 299.0601 -117.3113 -22.6009 30466.6325 -124.1013 -63.6264
TCL: Exiting due to exit command.
