Info: SIMULATION PARAMETERS:
Info: TIMESTEP               2
Info: NUMBER OF STEPS        0
Info: STEPS PER CYCLE        10
Info: PERIODIC CELL BASIS 1  30.3033 0 0
Info: PERIODIC CELL BASIS 2  0 30.2085 0
Info: PERIODIC CELL BASIS 3  0 0 33.1771
Info: PERIODIC CELL CENTER   0 0 0
Info: WRAPPING WATERS AROUND PERIODIC BOUNDARIES ON OUTPUT.
Info: WRAPPING ALL CLUSTERS AROUND PERIODIC BOUNDARIES ON OUTPUT.
Info: FIRST LDB TIMESTEP     50
Info: LAST LDB TIMESTEP     -1
Info: HOM BACKGROUND SCALING 1
Info: PME BACKGROUND SCALING 1
Info: MIN ATOMS PER PATCH    40
Info: EMPTY PATCH LOAD       40 ATOMS
Info: VELOCITY FILE          mobley_628951_equil.vel
Info: CENTER OF MASS MOVING INITIALLY? NO
Info: DIELECTRIC             1
Info: EXCLUDE                SCALED ONE-FOUR
Info: 1-4 ELECTROSTATICS SCALED BY 0.833333
Info: MODIFIED 1-4 VDW PARAMETERS WILL BE USED
Info: DCD FILENAME           mobley_628951_prod.dcd
Info: DCD FREQUENCY          100000
Info: DCD FIRST STEP         100000
Info: DCD FILE WILL CONTAIN UNIT CELL DATA
Info: XST FILENAME           mobley_628951_prod.xst
Info: XST FREQUENCY          100000
Info: NO VELOCITY DCD OUTPUT
Info: NO FORCE DCD OUTPUT
Info: OUTPUT FILENAME        mobley_628951_prod
Info: BINARY OUTPUT FILES WILL BE USED
Info: RESTART FILENAME       mobley_628951_prod.restart
Info: RESTART FREQUENCY      100000
Info: BINARY RESTART FILES WILL BE USED
Info: CUTOFF                 9
Info: PAIRLIST DISTANCE      11
Info: PAIRLIST SHRINK RATE   0.01
Info: PAIRLIST GROW RATE     0.01
Info: PAIRLIST TRIGGER       0.3
Info: PAIRLISTS PER CYCLE    2
Info: PAIRLISTS ENABLED
Info: MARGIN                 2
Info: HYDROGEN GROUP CUTOFF  2.5
Info: PATCH DIMENSION        15.5
Info: ENERGY OUTPUT STEPS    100000
Info: ENERGY EVALUATION STEPS    100000
Info: OUTPUT ENERGY PRECISION 4
Info: CROSSTERM ENERGY INCLUDED IN DIHEDRAL
Info: TIMING OUTPUT STEPS    1000000
Info: PRESSURE OUTPUT STEPS  100000
Info: ALCHEMICAL FEP ON
Info: FEP CURRENT LAMBDA VALUE     0
Info: FEP COMPARISON LAMBDA VALUE  0.05
Info: FEP INTRA-ALCHEMICAL NON-BONDED INTERACTIONS WILL BE RETAINED
Info: FEP INTRA-ALCHEMICAL BONDED INTERACTIONS WILL BE RETAINED
Info: FEP VDW SHIFTING COEFFICIENT 5
Info: FEP ELEC. ACTIVE FOR ANNIHILATED PARTICLES BETWEEN LAMBDA = 0 AND LAMBDA = 0.5
Info: FEP ELEC. ACTIVE FOR EXNIHILATED PARTICLES BETWEEN LAMBDA = 0.5 AND LAMBDA = 1
Info: FEP VDW ACTIVE FOR ANNIHILATED PARTICLES BETWEEN LAMBDA = 0 AND LAMBDA = 1
Info: FEP VDW ACTIVE FOR EXNIHILATED PARTICLES BETWEEN LAMBDA = 0 AND LAMBDA = 1
Info: FEP BOND ACTIVE FOR ANNIHILATED PARTICLES BETWEEN LAMBDA = 1 AND LAMBDA = 1
Info: FEP BOND ACTIVE FOR EXNIHILATED PARTICLES BETWEEN LAMBDA = 0 AND LAMBDA = 0
Info: LANGEVIN DYNAMICS ACTIVE
Info: LANGEVIN TEMPERATURE   300
Info: LANGEVIN USING BBK INTEGRATOR
Info: LANGEVIN DAMPING COEFFICIENT IS 1 INVERSE PS
Info: LANGEVIN DYNAMICS APPLIED TO HYDROGENS
Info: LANGEVIN PISTON PRESSURE CONTROL ACTIVE
Info:        TARGET PRESSURE IS 1.01325 BAR
Info:     OSCILLATION PERIOD IS 50 FS
Info:             DECAY TIME IS 25 FS
Info:     PISTON TEMPERATURE IS 300 K
Info:       PRESSURE CONTROL IS GROUP-BASED
Info:    INITIAL STRAIN RATE IS 0.00021593 0.00021593 0.00021593
Info:       CELL FLUCTUATION IS ISOTROPIC
Info: PARTICLE MESH EWALD (PME) ACTIVE
Info: PME TOLERANCE               1e-06
Info: PME EWALD COEFFICIENT       0.348832
Info: PME INTERPOLATION ORDER     4
Info: PME GRID DIMENSIONS         32 32 36
Info: PME MAXIMUM GRID SPACING    1
Info: PME CALCULATION WILL BE PERFORMED ON GPU
Info: FULL ELECTROSTATIC EVALUATION FREQUENCY      2
Info: USING VERLET I (r-RESPA) MTS SCHEME.
Info: C1 SPLITTING OF LONG RANGE ELECTROSTATICS
Info: PLACING ATOMS IN PATCHES BY HYDROGEN GROUPS
Info: RIGID BONDS TO HYDROGEN : ALL
Info:         ERROR TOLERANCE : 1e-08
Info:          MAX ITERATIONS : 100
Info: RIGID WATER USING SETTLE ALGORITHM
Info: RANDOM NUMBER SEED     1743803669
Info: USE HYDROGEN BONDS?    NO
Info: Using AMBER format force field!
Info: AMBER PARM FILE        mobley_628951.prmtop
Info: COORDINATE PDB         mobley_628951.pdb
Info: Exclusions will be read from PARM file!
Info: SCNB (VDW SCALING)     2
Info: USING ARITHMETIC MEAN TO COMBINE L-J SIGMA PARAMETERS
Info: BINARY COORDINATES     mobley_628951_equil.coor
Info: SUMMARY OF PARAMETERS:
Info: 7 BONDS
Info: 7 ANGLES
Info:   7 HARMONIC
Info:   0 COSINE-BASED
Info: 3 DIHEDRAL
Info: 0 IMPROPER
Info: 0 CROSSTERM
Info: 0 VDW
Info: 15 VDW_PAIRS
Info: 0 NBTHOLE_PAIRS
Info: To read alchdata from file: mobley_628951.pdb
Info: To read alchflag data from column: 5
Info: STRUCTURE SUMMARY:
Info: 2935 ATOMS
Info: 2936 BONDS
Info: 36 ANGLES
Info: 64 DIHEDRALS
Info: 0 IMPROPERS
Info: 0 CROSSTERMS
Info: 3018 EXCLUSIONS
Info: 2919 RIGID BONDS
Info: ALCH: 0 ATOMS TO DISAPPEAR IN FINAL STATE
Info: ALCH: 22 ATOMS TO APPEAR IN FINAL STATE
Info: 5886 DEGREES OF FREEDOM
Info: 987 HYDROGEN GROUPS
Info: 3 ATOMS IN LARGEST HYDROGEN GROUP
Info: 987 MIGRATION GROUPS
Info: 3 ATOMS IN LARGEST MIGRATION GROUP
Info: TOTAL MASS = 17785.5 amu
Info: TOTAL CHARGE = 0.000399984 e
Info: MASS DENSITY = 0.97245 g/cm^3
Info: ATOM DENSITY = 0.0966385 atoms/A^3
Info: ADDED 0 IMPLICIT EXCLUSIONS
Info: NONBONDED TABLE R-SQUARED SPACING: 0.0625
Info: NONBONDED TABLE SIZE: 705 POINTS
Info: REMOVING COM VELOCITY -0.165417 0.0241368 -0.0992079
Info: Use 3D box decompostion in PME FFT.
Info: Updated CUDA force table with 4096 elements.
Info: Updated CUDA LJ table with 5 x 5 elements.
Info: Found 23 unique exclusion lists needing 64 bytes
TCL: Running for 1500000 steps
ETITLE: TS BOND ANGLE DIHED IMPRP ELECT VDW BOUNDARY MISC KINETIC TOTAL TEMP POTENTIAL TOTALAVG TEMPAVG PRESSURE GPRESSURE VOLUME PRESSAVG GPRESSAVG
ENERGY: 0 4.8577 6.9318 15.6726 0.0000 -10640.5995 1466.6797 0.0000 0.0000 1699.5065 -7446.9513 290.5982 -9146.4578 -7446.9513 290.5982 0.2826 85.4013 30370.9271 0.2826 85.4013
ENERGY: 300000 3.6246 4.2922 15.5976 0.0000 -10669.7694 1455.0112 0.0000 0.0000 1775.3239 -7415.9199 303.5622 -9191.2438 -7429.0158 296.2415 -241.5894 -134.0295 30099.7815 -213.5382 -118.6004
ENERGY: 600000 9.6846 3.9193 14.8797 0.0000 -10574.5348 1345.4290 0.0000 0.0000 1790.1197 -7410.5026 306.0921 -9200.6223 -7407.6128 300.4766 -1006.8769 -858.6052 30144.9369 -339.8023 -248.1583
ENERGY: 900000 3.6200 3.1566 10.9895 0.0000 -10621.5469 1418.0449 0.0000 0.0000 1753.7922 -7431.9437 299.8805 -9185.7359 -7398.0835 300.9977 -333.8475 -317.6443 30329.9485 -380.2497 -306.4737
ENERGY: 1200000 7.6530 7.1950 13.9920 0.0000 -10687.5223 1463.9281 0.0000 0.0000 1747.5477 -7447.2065 298.8128 -9194.7542 -7393.3044 300.4696 101.0978 165.7179 29607.4945 -258.6153 -189.9086
ENERGY: 1500000 7.7099 5.8204 12.4927 0.0000 -10543.3773 1344.2878 0.0000 0.0000 1756.7903 -7416.2761 300.3932 -9173.0664 -7392.0675 300.7836 -700.4192 -651.8208 30024.4478 -219.5115 -151.1735
TCL: Running FEP window   2: Lambda1 0.05   Lambda2 0.1    [dLambda 0.05  ]
TCL: Setting parameter firsttimestep to 0
TCL: Setting parameter alchLambda to 0.05
Info: NONBONDED TABLE R-SQUARED SPACING: 0.0625
Info: NONBONDED TABLE SIZE: 705 POINTS
TCL: Setting parameter alchLambda2 to 0.1
Info: NONBONDED TABLE R-SQUARED SPACING: 0.0625
Info: NONBONDED TABLE SIZE: 705 POINTS
TCL: Running for 1500000 steps
ETITLE: TS BOND ANGLE DIHED IMPRP ELECT VDW BOUNDARY MISC KINETIC TOTAL TEMP POTENTIAL TOTALAVG TEMPAVG PRESSURE GPRESSURE VOLUME PRESSAVG GPRESSAVG
ENERGY: 0 7.7099 5.8204 12.4927 0.0000 -10543.3772 1351.8279 0.0000 0.0000 1755.9111 -7409.6151 300.2428 -9165.5262 -7409.6151 300.2428 -721.4125 -634.9797 30024.4478 -721.4125 -634.9797
ENERGY: 300000 5.2894 6.1784 11.4971 0.0000 -10534.7649 1443.1082 0.0000 0.0000 1812.0450 -7256.6467 309.8412 -9068.6917 -7380.2769 301.8333 245.5108 307.4748 29982.6447 63.2467 145.9261
ENERGY: 600000 5.8185 7.2263 14.1654 0.0000 -10641.8067 1454.2783 0.0000 0.0000 1681.4418 -7478.8764 287.5093 -9160.3182 -7376.1263 300.6071 32.9815 82.0600 29970.9411 -25.2613 52.7936
ENERGY: 900000 3.9162 4.8862 11.1217 0.0000 -10512.8610 1384.3913 0.0000 0.0000 1709.2963 -7399.2492 292.2722 -9108.5456 -7385.6337 299.0270 -541.0624 -470.9446 30321.4369 -56.0561 13.9558
ENERGY: 1200000 3.3123 3.6780 11.5086 0.0000 -10679.6781 1512.3749 0.0000 0.0000 1765.1046 -7383.6998 301.8148 -9148.8044 -7389.9146 299.2215 794.0970 831.4747 29967.8111 58.4932 121.1301
ENERGY: 1500000 6.0490 6.9282 12.9018 0.0000 -10599.1415 1454.7225 0.0000 0.0000 1755.2279 -7363.3120 300.1260 -9118.5399 -7382.7780 299.9161 215.9267 291.4698 29766.8938 134.8964 193.4913
TCL: Running FEP window   3: Lambda1 0.1    Lambda2 0.15000000000000002 [dLambda 0.05000000000000002]
TCL: Setting parameter firsttimestep to 0
TCL: Setting parameter alchLambda to 0.1
Info: NONBONDED TABLE R-SQUARED SPACING: 0.0625
Info: NONBONDED TABLE SIZE: 705 POINTS
TCL: Setting parameter alchLambda2 to 0.15000000000000002
Info: NONBONDED TABLE R-SQUARED SPACING: 0.0625
Info: NONBONDED TABLE SIZE: 705 POINTS
TCL: Running for 1500000 steps
ETITLE: TS BOND ANGLE DIHED IMPRP ELECT VDW BOUNDARY MISC KINETIC TOTAL TEMP POTENTIAL TOTALAVG TEMPAVG PRESSURE GPRESSURE VOLUME PRESSAVG GPRESSAVG
ENERGY: 0 6.0490 6.9282 12.9018 0.0000 -10599.1430 1457.3973 0.0000 0.0000 1754.3810 -7361.4857 299.9812 -9115.8667 -7361.4857 299.9812 216.7382 304.6322 29766.8938 216.7382 304.6322
ENERGY: 300000 6.2540 5.4337 14.8837 0.0000 -10497.2170 1399.4081 0.0000 0.0000 1771.5752 -7299.6623 302.9212 -9071.2375 -7329.3490 300.6060 59.4920 91.9708 29942.4308 23.5501 110.4886
ENERGY: 600000 2.7118 3.7216 10.2362 0.0000 -10592.3348 1457.5400 0.0000 0.0000 1794.5369 -7323.5883 306.8475 -9118.1252 -7350.4989 300.8172 471.6649 549.1630 29963.3897 232.2466 309.6270
ENERGY: 900000 7.6715 7.7881 12.1257 0.0000 -10642.0659 1497.3106 0.0000 0.0000 1742.6320 -7374.5380 297.9722 -9117.1700 -7356.8504 300.4312 396.7023 441.7120 30372.1241 260.1759 340.6934
ENERGY: 1200000 7.0227 9.0759 14.1619 0.0000 -10639.0389 1450.2601 0.0000 0.0000 1782.1001 -7376.4182 304.7209 -9158.5183 -7366.4508 300.5746 78.7349 144.8122 29917.0756 202.0731 283.8003
ENERGY: 1500000 3.0447 5.1281 9.8329 0.0000 -10663.1205 1451.0830 0.0000 0.0000 1723.0350 -7470.9969 294.6214 -9194.0319 -7378.3592 300.2940 108.6960 195.2746 29362.7634 151.1085 228.6999
TCL: Running FEP window   4: Lambda1 0.15000000000000002 Lambda2 0.2    [dLambda 0.04999999999999999]
TCL: Setting parameter firsttimestep to 0
TCL: Setting parameter alchLambda to 0.15000000000000002
Info: NONBONDED TABLE R-SQUARED SPACING: 0.0625
Info: NONBONDED TABLE SIZE: 705 POINTS
TCL: Setting parameter alchLambda2 to 0.2
Info: NONBONDED TABLE R-SQUARED SPACING: 0.0625
Info: NONBONDED TABLE SIZE: 705 POINTS
TCL: Running for 1500000 steps
ETITLE: TS BOND ANGLE DIHED IMPRP ELECT VDW BOUNDARY MISC KINETIC TOTAL TEMP POTENTIAL TOTALAVG TEMPAVG PRESSURE GPRESSURE VOLUME PRESSAVG GPRESSAVG
ENERGY: 0 3.0447 5.1281 9.8329 0.0000 -10663.1202 1455.4724 0.0000 0.0000 1722.1761 -7467.4661 294.4745 -9189.6422 -7467.4661 294.4745 132.0791 217.1731 29362.7634 132.0791 217.1731
ENERGY: 300000 4.5569 6.1074 11.8003 0.0000 -10619.2962 1469.0218 0.0000 0.0000 1783.4402 -7344.3696 304.9500 -9127.8097 -7384.7288 299.4430 264.1852 405.1213 29960.0131 63.1480 136.1758
ENERGY: 600000 6.2484 5.3432 12.7838 0.0000 -10707.4997 1506.9053 0.0000 0.0000 1722.7847 -7453.4342 294.5786 -9176.2190 -7388.2876 298.2917 109.2095 219.6502 30394.6845 180.9304 255.6159
ENERGY: 900000 8.3411 7.2575 10.5372 0.0000 -10606.7698 1457.7103 0.0000 0.0000 1741.9188 -7381.0048 297.8503 -9122.9236 -7389.6051 298.3113 -52.2326 -56.6655 30242.7953 186.8860 252.0991
ENERGY: 1200000 4.5624 6.1263 17.5708 0.0000 -10720.8040 1452.3899 0.0000 0.0000 1795.3064 -7444.8482 306.9790 -9240.1546 -7400.0992 298.3181 -113.4393 -44.7112 29704.6298 77.5166 141.3498
ENERGY: 1500000 2.9937 3.6065 10.6475 0.0000 -10427.1224 1311.5992 0.0000 0.0000 1792.7645 -7305.5109 306.5444 -9098.2754 -7386.9201 299.6991 -695.5055 -670.6938 30166.2248 -70.7768 -5.8160
TCL: Running FEP window   5: Lambda1 0.2    Lambda2 0.25   [dLambda 0.04999999999999999]
TCL: Setting parameter firsttimestep to 0
TCL: Setting parameter alchLambda to 0.2
Info: NONBONDED TABLE R-SQUARED SPACING: 0.0625
Info: NONBONDED TABLE SIZE: 705 POINTS
TCL: Setting parameter alchLambda2 to 0.25
Info: NONBONDED TABLE R-SQUARED SPACING: 0.0625
Info: NONBONDED TABLE SIZE: 705 POINTS
TCL: Running for 1500000 steps
ETITLE: TS BOND ANGLE DIHED IMPRP ELECT VDW BOUNDARY MISC KINETIC TOTAL TEMP POTENTIAL TOTALAVG TEMPAVG PRESSURE GPRESSURE VOLUME PRESSAVG GPRESSAVG
ENERGY: 0 2.9937 3.6065 10.6475 0.0000 -10427.1222 1313.5935 0.0000 0.0000 1791.8843 -7304.3967 306.3939 -9096.2809 -7304.3967 306.3939 -740.7339 -653.0941 30166.2248 -740.7339 -653.0941
ENERGY: 300000 6.2203 5.5096 11.8185 0.0000 -10709.5006 1458.7758 0.0000 0.0000 1732.7328 -7494.4436 296.2796 -9227.1764 -7392.4727 299.3722 -126.9018 -20.6277 30236.8118 -373.5413 -305.6619
ENERGY: 600000 5.4568 3.4340 14.4563 0.0000 -10596.5127 1375.7951 0.0000 0.0000 1756.9317 -7440.4387 300.4173 -9197.3703 -7394.1800 300.6760 -620.8964 -541.6973 30174.5395 -404.4763 -342.6744
ENERGY: 900000 5.0326 3.3536 15.5134 0.0000 -10654.6607 1432.9801 0.0000 0.0000 1721.2758 -7476.5052 294.3206 -9197.7810 -7407.7681 298.9908 -307.9934 -249.3703 30456.1410 -297.1170 -241.2003
ENERGY: 1200000 4.6864 6.0745 11.2671 0.0000 -10745.3299 1554.6278 0.0000 0.0000 1704.3734 -7464.3007 291.4304 -9168.6741 -7406.0180 299.1190 807.8131 901.3307 30093.8212 -128.7028 -81.2420
ENERGY: 1500000 6.1398 1.4859 10.8481 0.0000 -10518.3706 1375.0552 0.0000 0.0000 1742.3361 -7382.5055 297.9217 -9124.8416 -7404.4584 299.0105 -277.5604 -299.8965 30628.1570 -113.4836 -64.2027
TCL: Running FEP window   6: Lambda1 0.25   Lambda2 0.3    [dLambda 0.04999999999999999]
TCL: Setting parameter firsttimestep to 0
TCL: Setting parameter alchLambda to 0.25
Info: NONBONDED TABLE R-SQUARED SPACING: 0.0625
Info: NONBONDED TABLE SIZE: 705 POINTS
TCL: Setting parameter alchLambda2 to 0.3
Info: NONBONDED TABLE R-SQUARED SPACING: 0.0625
Info: NONBONDED TABLE SIZE: 705 POINTS
TCL: Running for 1500000 steps
ETITLE: TS BOND ANGLE DIHED IMPRP ELECT VDW BOUNDARY MISC KINETIC TOTAL TEMP POTENTIAL TOTALAVG TEMPAVG PRESSURE GPRESSURE VOLUME PRESSAVG GPRESSAVG
ENERGY: 0 6.1398 1.4859 10.8481 0.0000 -10518.3696 1374.4182 0.0000 0.0000 1741.4295 -7384.0481 297.7666 -9125.4776 -7384.0481 297.7666 -378.3329 -300.2761 30628.1570 -378.3329 -300.2761
ENERGY: 300000 4.7692 3.7849 13.0812 0.0000 -10553.9536 1411.1574 0.0000 0.0000 1756.2831 -7364.8778 300.3064 -9121.1609 -7335.2026 299.8774 -452.1598 -360.7321 30531.5425 -71.4422 15.6661
ENERGY: 600000 4.7466 3.9020 10.1344 0.0000 -10467.3575 1338.9405 0.0000 0.0000 1772.2207 -7337.4132 303.0316 -9109.6339 -7353.3469 299.6849 -612.4578 -535.8531 30185.7819 -259.6129 -175.3805
ENERGY: 900000 6.8001 3.2188 14.9607 0.0000 -10537.9602 1435.2389 0.0000 0.0000 1779.0755 -7298.6662 304.2037 -9077.7417 -7354.6539 299.8958 381.4121 411.3103 30065.9684 -289.9115 -219.7270
ENERGY: 1200000 4.9696 4.7306 11.9823 0.0000 -10575.5166 1407.9713 0.0000 0.0000 1727.5516 -7418.3112 295.3937 -9145.8628 -7370.6030 300.2792 -281.1269 -222.8059 30547.1525 -149.2663 -78.0907
ENERGY: 1500000 5.7769 7.8615 12.5873 0.0000 -10582.5724 1418.4648 0.0000 0.0000 1768.6474 -7369.2344 302.4206 -9137.8818 -7373.2463 299.7291 -53.6680 -24.3074 30226.1659 -85.6180 -13.9056
TCL: Running FEP window   7: Lambda1 0.3    Lambda2 0.35   [dLambda 0.04999999999999999]
TCL: Setting parameter firsttimestep to 0
TCL: Setting parameter alchLambda to 0.3
Info: NONBONDED TABLE R-SQUARED SPACING: 0.0625
Info: NONBONDED TABLE SIZE: 705 POINTS
TCL: Setting parameter alchLambda2 to 0.35
Info: NONBONDED TABLE R-SQUARED SPACING: 0.0625
Info: NONBONDED TABLE SIZE: 705 POINTS
TCL: Running for 1500000 steps
ETITLE: TS BOND ANGLE DIHED IMPRP ELECT VDW BOUNDARY MISC KINETIC TOTAL TEMP POTENTIAL TOTALAVG TEMPAVG PRESSURE GPRESSURE VOLUME PRESSAVG GPRESSAVG
ENERGY: 0 5.7769 7.8615 12.5873 0.0000 -10582.5739 1419.5373 0.0000 0.0000 1767.7545 -7369.0563 302.2679 -9136.8108 -7369.0563 302.2679 -108.3224 -11.6664 30226.1659 -108.3224 -11.6664
ENERGY: 300000 5.4937 5.5394 11.8422 0.0000 -10611.2248 1489.9484 0.0000 0.0000 1757.9307 -7340.4703 300.5882 -9098.4010 -7369.3409 302.7962 402.1295 483.8802 30333.1656 8.4474 80.3563
ENERGY: 600000 3.1979 5.7812 14.3740 0.0000 -10526.6616 1396.3500 0.0000 0.0000 1771.0880 -7335.8704 302.8379 -9106.9584 -7356.8003 302.1969 -256.4872 -159.7800 30207.8238 -67.8748 15.9312
ENERGY: 900000 3.2545 5.0505 10.8546 0.0000 -10666.5541 1486.9386 0.0000 0.0000 1704.8389 -7455.6170 291.5100 -9160.4559 -7372.3053 299.8814 381.7642 485.2565 30329.1504 -2.4632 80.2145
ENERGY: 1200000 4.7061 4.7552 16.2213 0.0000 -10532.3954 1406.2415 0.0000 0.0000 1721.9312 -7378.5400 294.4326 -9100.4712 -7385.7835 299.6046 -183.1010 -126.3666 30237.1864 -50.2224 25.6669
ENERGY: 1500000 5.5137 5.4145 14.7098 0.0000 -10630.9024 1424.3906 0.0000 0.0000 1739.2856 -7441.5883 297.4000 -9180.8739 -7382.3208 300.2871 -224.8371 -155.2989 29983.6261 -83.8264 -6.1309
TCL: Running FEP window   8: Lambda1 0.35   Lambda2 0.39999999999999997 [dLambda 0.04999999999999999]
TCL: Setting parameter firsttimestep to 0
TCL: Setting parameter alchLambda to 0.35
Info: NONBONDED TABLE R-SQUARED SPACING: 0.0625
Info: NONBONDED TABLE SIZE: 705 POINTS
TCL: Setting parameter alchLambda2 to 0.39999999999999997
Info: NONBONDED TABLE R-SQUARED SPACING: 0.0625
Info: NONBONDED TABLE SIZE: 705 POINTS
TCL: Running for 1500000 steps
ETITLE: TS BOND ANGLE DIHED IMPRP ELECT VDW BOUNDARY MISC KINETIC TOTAL TEMP POTENTIAL TOTALAVG TEMPAVG PRESSURE GPRESSURE VOLUME PRESSAVG GPRESSAVG
ENERGY: 0 5.5136 5.4145 14.7098 0.0000 -10630.9014 1425.0611 0.0000 0.0000 1738.3375 -7441.8649 297.2379 -9180.2024 -7441.8649 297.2379 -207.7667 -139.8302 29983.6261 -207.7667 -139.8302
ENERGY: 300000 5.4783 5.0905 12.8096 0.0000 -10685.2984 1494.3418 0.0000 0.0000 1743.9250 -7423.6532 298.1933 -9167.5782 -7372.1724 301.7206 412.3799 452.3733 30140.4001 31.3526 96.0970
ENERGY: 600000 6.1367 3.9382 12.9862 0.0000 -10637.5628 1510.7082 0.0000 0.0000 1825.4642 -7278.3294 312.1357 -9103.7935 -7361.2672 303.5212 583.6846 606.6835 30826.9255 12.4912 70.9561
ENERGY: 900000 6.7325 7.4472 12.1627 0.0000 -10602.6536 1476.7585 0.0000 0.0000 1768.2258 -7331.3271 302.3485 -9099.5528 -7365.1952 302.6389 565.9216 643.3128 29867.8572 20.5014 77.5592
ENERGY: 1200000 4.6513 6.0096 13.3498 0.0000 -10520.8012 1380.0995 0.0000 0.0000 1729.6955 -7386.9954 295.7602 -9116.6910 -7378.0039 300.9172 -401.4685 -297.6907 30355.7534 53.6860 115.9511
ENERGY: 1500000 8.5638 5.7543 11.9374 0.0000 -10687.8295 1476.0718 0.0000 0.0000 1755.6438 -7429.8583 300.1971 -9185.5021 -7378.5947 300.5942 1001.2454 1073.1330 29548.1711 50.6652 108.1256
TCL: Running FEP window   9: Lambda1 0.39999999999999997 Lambda2 0.44999999999999996 [dLambda 0.04999999999999999]
TCL: Setting parameter firsttimestep to 0
TCL: Setting parameter alchLambda to 0.39999999999999997
Info: NONBONDED TABLE R-SQUARED SPACING: 0.0625
Info: NONBONDED TABLE SIZE: 705 POINTS
TCL: Setting parameter alchLambda2 to 0.44999999999999996
Info: NONBONDED TABLE R-SQUARED SPACING: 0.0625
Info: NONBONDED TABLE SIZE: 705 POINTS
TCL: Running for 1500000 steps
ETITLE: TS BOND ANGLE DIHED IMPRP ELECT VDW BOUNDARY MISC KINETIC TOTAL TEMP POTENTIAL TOTALAVG TEMPAVG PRESSURE GPRESSURE VOLUME PRESSAVG GPRESSAVG
ENERGY: 0 8.5638 5.7543 11.9374 0.0000 -10687.8294 1475.4217 0.0000 0.0000 1754.7624 -7431.3898 300.0464 -9186.1521 -7431.3898 300.0464 989.5759 1077.0713 29548.1711 989.5759 1077.0713
ENERGY: 300000 5.6460 5.1616 11.6558 0.0000 -10490.0503 1396.7244 0.0000 0.0000 1737.8353 -7333.0272 297.1521 -9070.8625 -7389.5406 302.4512 -492.5597 -416.7893 30960.6417 -51.1653 38.5784
ENERGY: 600000 5.3484 5.7580 10.1735 0.0000 -10559.7395 1388.4195 0.0000 0.0000 1778.1418 -7371.8982 304.0441 -9150.0400 -7392.3549 301.5277 -49.6147 42.3951 29477.0956 76.7786 150.1648
ENERGY: 900000 3.8228 6.3400 11.9654 0.0000 -10536.1635 1390.0244 0.0000 0.0000 1744.0951 -7379.9157 298.2224 -9124.0108 -7400.5738 300.7005 -499.0400 -462.5283 30768.2266 13.9084 86.8607
ENERGY: 1200000 7.2984 5.1330 12.9130 0.0000 -10551.6642 1378.6276 0.0000 0.0000 1706.2847 -7441.4076 291.7572 -9147.6922 -7400.8705 299.9353 -583.1424 -543.4547 30488.8589 -8.1146 58.6463
ENERGY: 1500000 5.2968 5.7354 12.9998 0.0000 -10621.2028 1466.7312 0.0000 0.0000 1768.5339 -7361.9056 302.4012 -9130.4395 -7400.2622 299.6557 382.0943 418.8344 30118.0511 11.9687 75.7669
TCL: Running FEP window  10: Lambda1 0.44999999999999996 Lambda2 0.49999999999999994 [dLambda 0.04999999999999999]
TCL: Setting parameter firsttimestep to 0
TCL: Setting parameter alchLambda to 0.44999999999999996
Info: NONBONDED TABLE R-SQUARED SPACING: 0.0625
Info: NONBONDED TABLE SIZE: 705 POINTS
TCL: Setting parameter alchLambda2 to 0.49999999999999994
Info: NONBONDED TABLE R-SQUARED SPACING: 0.0625
Info: NONBONDED TABLE SIZE: 705 POINTS
TCL: Running for 1500000 steps
ETITLE: TS BOND ANGLE DIHED IMPRP ELECT VDW BOUNDARY MISC KINETIC TOTAL TEMP POTENTIAL TOTALAVG TEMPAVG PRESSURE GPRESSURE VOLUME PRESSAVG GPRESSAVG
ENERGY: 0 5.2969 5.7354 12.9998 0.0000 -10621.2037 1467.8656 0.0000 0.0000 1767.6536 -7361.6524 302.2507 -9129.3060 -7361.6524 302.2507 344.2601 438.4592 30118.0511 344.2601 438.4592
ENERGY: 300000 4.0578 9.2838 14.6634 0.0000 -10558.1982 1408.4674 0.0000 0.0000 1742.0474 -7379.6783 297.8723 -9121.7257 -7384.6380 300.1107 -88.7833 34.1540 30200.0798 32.4052 70.2740
ENERGY: 600000 5.3439 5.8746 12.2555 0.0000 -10652.9148 1421.6332 0.0000 0.0000 1784.2435 -7423.5641 305.0874 -9207.8076 -7397.3979 301.4306 -63.8287 71.1527 30164.6399 -124.6711 -67.2137
ENERGY: 900000 5.4126 6.2019 15.4955 0.0000 -10600.3593 1465.5438 0.0000 0.0000 1736.6038 -7371.1017 296.9415 -9107.7055 -7387.4105 301.4799 273.7032 279.7085 30294.7641 -90.2803 -30.1058
ENERGY: 1200000 2.3338 5.9136 14.2335 0.0000 -10625.8614 1415.6915 0.0000 0.0000 1694.1079 -7493.5810 289.6751 -9187.6889 -7399.8582 299.9147 -296.5850 -194.0694 30327.6105 -102.7925 -35.3889
ENERGY: 1500000 8.7342 3.7972 11.9154 0.0000 -10599.4452 1449.1999 0.0000 0.0000 1775.0455 -7350.7530 303.5146 -9125.7984 -7396.6094 300.3966 339.5265 406.8078 30133.5574 -20.9037 47.5895
TCL: Running FEP window  11: Lambda1 0.49999999999999994 Lambda2 0.5499999999999999 [dLambda 0.04999999999999999]
TCL: Setting parameter firsttimestep to 0
TCL: Setting parameter alchLambda to 0.49999999999999994
Info: NONBONDED TABLE R-SQUARED SPACING: 0.0625
Info: NONBONDED TABLE SIZE: 705 POINTS
TCL: Setting parameter alchLambda2 to 0.5499999999999999
Info: NONBONDED TABLE R-SQUARED SPACING: 0.0625
Info: NONBONDED TABLE SIZE: 705 POINTS
TCL: Running for 1500000 steps
ETITLE: TS BOND ANGLE DIHED IMPRP ELECT VDW BOUNDARY MISC KINETIC TOTAL TEMP POTENTIAL TOTALAVG TEMPAVG PRESSURE GPRESSURE VOLUME PRESSAVG GPRESSAVG
ENERGY: 0 8.7342 3.7972 11.9154 0.0000 -10599.4459 1448.8512 0.0000 0.0000 1774.1431 -7352.0048 303.3603 -9126.1479 -7352.0048 303.3603 330.4485 412.0965 30133.5574 330.4485 412.0965
ENERGY: 300000 8.4064 5.6628 17.7251 0.0000 -10563.4656 1459.1603 0.0000 0.0000 1757.4861 -7315.0249 300.5121 -9072.5111 -7306.0365 304.3135 226.0076 301.1476 30191.7013 -13.0707 69.3508
ENERGY: 600000 11.4042 6.5472 12.4061 0.0000 -10566.7727 1372.4157 0.0000 0.0000 1779.9829 -7384.0166 304.3589 -9163.9995 -7347.7317 303.7031 -491.4004 -364.9209 30304.2714 114.5552 190.2280
ENERGY: 900000 8.6193 3.2548 15.4016 0.0000 -10718.3316 1507.3250 0.0000 0.0000 1699.6584 -7484.0725 290.6242 -9183.7309 -7355.7731 301.8780 373.3008 416.0031 30431.2381 194.9028 264.1525
ENERGY: 1200000 5.3229 7.3976 18.4076 0.0000 -10576.9065 1414.3814 0.0000 0.0000 1760.6370 -7370.7599 301.0509 -9131.3969 -7368.8575 301.3630 44.3190 92.6017 30072.8401 118.9210 192.1334
ENERGY: 1500000 3.9629 4.7110 18.4063 0.0000 -10604.3238 1460.6422 0.0000 0.0000 1810.7230 -7305.8783 309.6151 -9116.6013 -7360.8325 301.4945 620.1214 665.2615 30031.4994 212.0055 286.8602
TCL: Running FEP window  12: Lambda1 0.5499999999999999 Lambda2 0.6    [dLambda 0.050000000000000044]
TCL: Setting parameter firsttimestep to 0
TCL: Setting parameter alchLambda to 0.5499999999999999
Info: NONBONDED TABLE R-SQUARED SPACING: 0.0625
Info: NONBONDED TABLE SIZE: 705 POINTS
TCL: Setting parameter alchLambda2 to 0.6
Info: NONBONDED TABLE R-SQUARED SPACING: 0.0625
Info: NONBONDED TABLE SIZE: 705 POINTS
TCL: Running for 1500000 steps
ETITLE: TS BOND ANGLE DIHED IMPRP ELECT VDW BOUNDARY MISC KINETIC TOTAL TEMP POTENTIAL TOTALAVG TEMPAVG PRESSURE GPRESSURE VOLUME PRESSAVG GPRESSAVG
ENERGY: 0 3.9629 4.7110 18.4063 0.0000 -10604.6316 1460.2216 0.0000 0.0000 1809.8966 -7307.4332 309.4738 -9117.3298 -7307.4332 309.4738 585.1972 669.0438 30031.4994 585.1972 669.0438
ENERGY: 300000 3.4521 6.2604 12.5729 0.0000 -10771.2570 1518.1523 0.0000 0.0000 1706.7217 -7524.0975 291.8320 -9230.8192 -7417.3422 299.4777 265.0898 353.1474 30372.6190 248.8155 306.4687
ENERGY: 600000 5.0687 4.8646 10.4863 0.0000 -10411.4085 1297.3549 0.0000 0.0000 1719.8251 -7373.8089 294.0725 -9093.6340 -7412.2817 298.5448 -1009.4442 -963.9160 30511.2899 14.0313 62.8510
ENERGY: 900000 3.1587 7.7918 12.0279 0.0000 -10581.7041 1369.7860 0.0000 0.0000 1678.5336 -7510.4061 287.0121 -9188.9397 -7427.1400 297.3904 -821.5985 -728.3524 30445.4396 -53.8230 1.3812
ENERGY: 1200000 2.8116 7.4971 13.6695 0.0000 -10511.1650 1421.4593 0.0000 0.0000 1749.4749 -7316.2526 299.1423 -9065.7274 -7410.0057 298.4404 46.5008 125.6269 30668.8641 23.1308 85.5390
ENERGY: 1500000 4.4234 5.4921 14.0125 0.0000 -10513.1283 1380.1056 0.0000 0.0000 1761.7768 -7347.3178 301.2458 -9109.0946 -7402.8927 299.6037 -358.2395 -324.0540 30579.8348 -44.0034 9.8158
TCL: Running FEP window  13: Lambda1 0.6    Lambda2 0.65   [dLambda 0.050000000000000044]
TCL: Setting parameter firsttimestep to 0
TCL: Setting parameter alchLambda to 0.6
Info: NONBONDED TABLE R-SQUARED SPACING: 0.0625
Info: NONBONDED TABLE SIZE: 705 POINTS
TCL: Setting parameter alchLambda2 to 0.65
Info: NONBONDED TABLE R-SQUARED SPACING: 0.0625
Info: NONBONDED TABLE SIZE: 705 POINTS
TCL: Running for 1500000 steps
ETITLE: TS BOND ANGLE DIHED IMPRP ELECT VDW BOUNDARY MISC KINETIC TOTAL TEMP POTENTIAL TOTALAVG TEMPAVG PRESSURE GPRESSURE VOLUME PRESSAVG GPRESSAVG
ENERGY: 0 4.4234 5.4921 14.0125 0.0000 -10513.3746 1381.1321 0.0000 0.0000 1760.9193 -7347.3951 301.0992 -9108.3144 -7347.3951 301.0992 -374.9251 -307.9132 30579.8348 -374.9251 -307.9132
ENERGY: 300000 2.7667 11.9294 13.1191 0.0000 -10480.6297 1395.5452 0.0000 0.0000 1751.1361 -7306.1332 299.4264 -9057.2693 -7353.3506 300.4690 13.6123 62.8016 30580.1492 60.6513 119.0822
ENERGY: 600000 3.6974 8.1707 10.9473 0.0000 -10618.5296 1431.1046 0.0000 0.0000 1729.9848 -7434.6249 295.8097 -9164.6097 -7391.5480 299.2227 -186.7037 -120.8928 30840.4699 81.6432 148.5090
ENERGY: 900000 3.8588 4.2743 12.2856 0.0000 -10438.1081 1333.7523 0.0000 0.0000 1811.8629 -7272.0742 309.8100 -9083.9371 -7359.3084 301.8267 -396.6962 -336.5187 30221.6294 137.2588 209.0040
ENERGY: 1200000 4.6849 2.3918 12.9024 0.0000 -10551.9073 1405.6685 0.0000 0.0000 1732.3184 -7393.9414 296.2087 -9126.2598 -7357.8231 301.6405 -200.8561 -157.8460 30447.4627 71.8915 133.4907
ENERGY: 1500000 8.8546 3.7113 13.9797 0.0000 -10468.7907 1341.9538 0.0000 0.0000 1708.3558 -7391.9355 292.1114 -9100.2914 -7357.6499 300.9892 -546.6683 -463.7771 30222.5038 30.5888 97.1656
TCL: Running FEP window  14: Lambda1 0.65   Lambda2 0.7000000000000001 [dLambda 0.050000000000000044]
TCL: Setting parameter firsttimestep to 0
TCL: Setting parameter alchLambda to 0.65
Info: NONBONDED TABLE R-SQUARED SPACING: 0.0625
Info: NONBONDED TABLE SIZE: 705 POINTS
TCL: Setting parameter alchLambda2 to 0.7000000000000001
Info: NONBONDED TABLE R-SQUARED SPACING: 0.0625
Info: NONBONDED TABLE SIZE: 705 POINTS
TCL: Running for 1500000 steps
ETITLE: TS BOND ANGLE DIHED IMPRP ELECT VDW BOUNDARY MISC KINETIC TOTAL TEMP POTENTIAL TOTALAVG TEMPAVG PRESSURE GPRESSURE VOLUME PRESSAVG GPRESSAVG
ENERGY: 0 8.8546 3.7113 13.9797 0.0000 -10468.5792 1341.8280 0.0000 0.0000 1707.4579 -7392.7477 291.9578 -9100.2057 -7392.7477 291.9578 -527.2316 -452.2655 30222.5038 -527.2316 -452.2655
ENERGY: 300000 5.5631 7.2457 12.8229 0.0000 -10549.7281 1381.2042 0.0000 0.0000 1743.6622 -7399.2300 298.1484 -9142.8922 -7374.8195 301.4728 -383.7497 -296.9659 30318.5387 -343.4579 -283.4726
ENERGY: 600000 5.0275 1.8353 10.5843 0.0000 -10736.8142 1514.6984 0.0000 0.0000 1775.2681 -7429.4006 303.5527 -9204.6687 -7401.0240 299.8469 728.6590 802.0928 29944.2947 -167.0768 -110.8428
ENERGY: 900000 4.0642 6.0525 10.3682 0.0000 -10818.6338 1550.2212 0.0000 0.0000 1766.8426 -7481.0850 302.1120 -9247.9276 -7412.9788 299.5202 1065.9822 1154.8040 29812.1497 -133.4633 -80.4542
ENERGY: 1200000 8.0107 2.5620 14.0744 0.0000 -10621.8873 1380.0037 0.0000 0.0000 1823.7505 -7393.4860 311.8427 -9217.2365 -7415.4535 299.5784 -428.6982 -372.7975 30279.9779 -123.1153 -72.2559
ENERGY: 1500000 8.6515 4.5850 12.2645 0.0000 -10636.6268 1443.3732 0.0000 0.0000 1797.8969 -7369.8558 307.4220 -9167.7527 -7410.7835 299.9463 503.6932 476.4070 30022.6778 -96.5717 -47.0284
TCL: Running FEP window  15: Lambda1 0.7000000000000001 Lambda2 0.7500000000000001 [dLambda 0.050000000000000044]
TCL: Setting parameter firsttimestep to 0
TCL: Setting parameter alchLambda to 0.7000000000000001
Info: NONBONDED TABLE R-SQUARED SPACING: 0.0625
Info: NONBONDED TABLE SIZE: 705 POINTS
TCL: Setting parameter alchLambda2 to 0.7500000000000001
Info: NONBONDED TABLE R-SQUARED SPACING: 0.0625
Info: NONBONDED TABLE SIZE: 705 POINTS
TCL: Running for 1500000 steps
ETITLE: TS BOND ANGLE DIHED IMPRP ELECT VDW BOUNDARY MISC KINETIC TOTAL TEMP POTENTIAL TOTALAVG TEMPAVG PRESSURE GPRESSURE VOLUME PRESSAVG GPRESSAVG
ENERGY: 0 8.6515 4.5850 12.2645 0.0000 -10636.6684 1442.6424 0.0000 0.0000 1797.0494 -7371.4756 307.2771 -9168.5250 -7371.4756 307.2771 413.2717 484.6245 30022.6778 413.2717 484.6245
ENERGY: 300000 7.7554 3.4974 14.7124 0.0000 -10463.9332 1356.4741 0.0000 0.0000 1747.4784 -7334.0156 298.8009 -9081.4939 -7361.6452 302.4462 -237.0590 -169.5979 30406.3892 -177.9391 -116.6745
ENERGY: 600000 5.4916 3.6206 14.3161 0.0000 -10570.0761 1362.4881 0.0000 0.0000 1698.3713 -7485.7885 290.4041 -9184.1598 -7399.6154 299.3366 -508.6338 -437.7464 30347.4148 -58.5384 -3.7288
ENERGY: 900000 7.5486 3.2612 12.6647 0.0000 -10606.8562 1331.1608 0.0000 0.0000 1766.6990 -7485.5219 302.0875 -9252.2209 -7406.9813 299.4553 -1137.0854 -1141.5491 30305.9293 -199.3742 -151.2009
ENERGY: 1200000 3.5376 5.1779 10.5455 0.0000 -10725.7948 1537.0116 0.0000 0.0000 1815.2714 -7354.2507 310.3928 -9169.5221 -7403.2653 300.8419 1000.2679 1041.3263 30293.6056 -50.8918 -1.9975
ENERGY: 1500000 4.0070 6.2497 11.3197 0.0000 -10542.2714 1406.0227 0.0000 0.0000 1736.9635 -7377.7088 297.0030 -9114.6724 -7398.7820 300.6777 216.2645 267.9141 30139.0081 -11.8237 37.6657
TCL: Running FEP window  16: Lambda1 0.7500000000000001 Lambda2 0.8000000000000002 [dLambda 0.050000000000000044]
TCL: Setting parameter firsttimestep to 0
TCL: Setting parameter alchLambda to 0.7500000000000001
Info: NONBONDED TABLE R-SQUARED SPACING: 0.0625
Info: NONBONDED TABLE SIZE: 705 POINTS
TCL: Setting parameter alchLambda2 to 0.8000000000000002
Info: NONBONDED TABLE R-SQUARED SPACING: 0.0625
Info: NONBONDED TABLE SIZE: 705 POINTS
TCL: Running for 1500000 steps
ETITLE: TS BOND ANGLE DIHED IMPRP ELECT VDW BOUNDARY MISC KINETIC TOTAL TEMP POTENTIAL TOTALAVG TEMPAVG PRESSURE GPRESSURE VOLUME PRESSAVG GPRESSAVG
ENERGY: 0 4.0069 6.2498 11.3197 0.0000 -10542.7342 1405.9793 0.0000 0.0000 1736.1191 -7379.0594 296.8586 -9115.1786 -7379.0594 296.8586 186.5682 280.3048 30139.0081 186.5682 280.3048
ENERGY: 300000 8.7823 5.7943 12.7384 0.0000 -10506.1567 1371.9621 0.0000 0.0000 1770.2234 -7336.6563 302.6901 -9106.8797 -7365.4925 300.0006 -157.1007 -63.9968 30236.1013 -98.3915 17.4409
ENERGY: 600000 5.4631 3.5489 13.0927 0.0000 -10426.1207 1348.9494 0.0000 0.0000 1750.0843 -7304.9823 299.2465 -9055.0666 -7375.2114 301.2312 -202.0884 -192.0496 30423.4060 6.0341 95.6626
ENERGY: 900000 5.4182 5.3623 14.2556 0.0000 -10550.2036 1380.3606 0.0000 0.0000 1768.6959 -7376.1110 302.4289 -9144.8069 -7375.1514 300.1980 -291.5848 -225.3655 30311.4067 -43.1769 40.8685
ENERGY: 1200000 2.2451 4.4073 13.3324 0.0000 -10638.7236 1467.9175 0.0000 0.0000 1701.6805 -7449.1408 290.9700 -9150.8213 -7392.0924 299.0901 121.6467 268.4628 30420.5532 -74.4647 8.8198
ENERGY: 1500000 9.4510 6.0105 13.3553 0.0000 -10539.3015 1372.7067 0.0000 0.0000 1668.2263 -7469.5515 285.2496 -9137.7779 -7392.3962 298.6977 -580.6144 -509.7948 30669.8720 -121.0504 -36.6784
TCL: Running FEP window  17: Lambda1 0.8000000000000002 Lambda2 0.8500000000000002 [dLambda 0.050000000000000044]
TCL: Setting parameter firsttimestep to 0
TCL: Setting parameter alchLambda to 0.8000000000000002
Info: NONBONDED TABLE R-SQUARED SPACING: 0.0625
Info: NONBONDED TABLE SIZE: 705 POINTS
TCL: Setting parameter alchLambda2 to 0.8500000000000002
Info: NONBONDED TABLE R-SQUARED SPACING: 0.0625
Info: NONBONDED TABLE SIZE: 705 POINTS
TCL: Running for 1500000 steps
ETITLE: TS BOND ANGLE DIHED IMPRP ELECT VDW BOUNDARY MISC KINETIC TOTAL TEMP POTENTIAL TOTALAVG TEMPAVG PRESSURE GPRESSURE VOLUME PRESSAVG GPRESSAVG
ENERGY: 0 9.4510 6.0105 13.3553 0.0000 -10539.5949 1372.4042 0.0000 0.0000 1667.3558 -7471.0179 285.1008 -9138.3737 -7471.0179 285.1008 -587.9793 -497.5074 30669.8720 -587.9793 -497.5074
ENERGY: 300000 8.7236 7.4067 14.1110 0.0000 -10802.7379 1555.9839 0.0000 0.0000 1775.8196 -7440.6932 303.6470 -9216.5127 -7437.0642 297.5723 626.0075 713.1389 30531.5246 357.5372 413.2340
ENERGY: 600000 10.4640 4.3370 10.3638 0.0000 -10647.4477 1475.1586 0.0000 0.0000 1741.5624 -7405.5618 297.7894 -9147.1242 -7409.0811 300.5335 307.6004 328.2737 30406.2985 42.9184 95.1982
ENERGY: 900000 4.4827 6.4168 13.8517 0.0000 -10618.2794 1405.4128 0.0000 0.0000 1730.7595 -7457.3558 295.9422 -9188.1154 -7412.8481 299.8982 47.5895 115.0224 29899.8312 -31.4714 28.3858
ENERGY: 1200000 4.8493 5.4519 13.8027 0.0000 -10590.3663 1415.7454 0.0000 0.0000 1724.1866 -7426.3304 294.8183 -9150.5170 -7394.3933 300.4957 -22.0281 65.4931 30192.8829 -143.1736 -82.0706
ENERGY: 1500000 7.7136 4.4730 13.7751 0.0000 -10722.7348 1450.8637 0.0000 0.0000 1804.7589 -7441.1504 308.5953 -9245.9093 -7387.3195 301.5143 -98.5226 -4.3119 30047.6202 -75.7244 -14.3470
TCL: Running FEP window  18: Lambda1 0.8500000000000002 Lambda2 0.9000000000000002 [dLambda 0.050000000000000044]
TCL: Setting parameter firsttimestep to 0
TCL: Setting parameter alchLambda to 0.8500000000000002
Info: NONBONDED TABLE R-SQUARED SPACING: 0.0625
Info: NONBONDED TABLE SIZE: 705 POINTS
TCL: Setting parameter alchLambda2 to 0.9000000000000002
Info: NONBONDED TABLE R-SQUARED SPACING: 0.0625
Info: NONBONDED TABLE SIZE: 705 POINTS
TCL: Running for 1500000 steps
ETITLE: TS BOND ANGLE DIHED IMPRP ELECT VDW BOUNDARY MISC KINETIC TOTAL TEMP POTENTIAL TOTALAVG TEMPAVG PRESSURE GPRESSURE VOLUME PRESSAVG GPRESSAVG
ENERGY: 0 7.7136 4.4730 13.7751 0.0000 -10723.5863 1450.3336 0.0000 0.0000 1803.8407 -7443.4501 308.4383 -9247.2909 -7443.4501 308.4383 -91.4299 3.6865 30047.6202 -91.4299 3.6865
ENERGY: 300000 7.1256 9.9446 10.7845 0.0000 -10507.0041 1417.1295 0.0000 0.0000 1773.7561 -7288.2639 303.2941 -9062.0200 -7353.1407 302.4702 335.4780 329.8176 29916.8032 19.0574 80.9622
ENERGY: 600000 6.1278 6.8113 12.5895 0.0000 -10526.7096 1351.7625 0.0000 0.0000 1765.2155 -7384.2030 301.8338 -9149.4185 -7394.8634 300.1090 -739.9800 -652.5830 30726.0083 -299.4087 -232.8554
ENERGY: 900000 8.7851 8.3541 12.8996 0.0000 -10788.5721 1527.7546 0.0000 0.0000 1796.4355 -7434.3433 307.1721 -9230.7788 -7399.3091 299.9848 587.1930 684.8352 29673.9813 -55.1323 11.5121
ENERGY: 1200000 6.9414 5.4113 13.9036 0.0000 -10607.5415 1402.5268 0.0000 0.0000 1739.1570 -7439.6013 297.3781 -9178.7584 -7417.0540 298.6341 -209.8718 -176.9212 30039.8934 -26.2010 33.3624
ENERGY: 1500000 4.2239 4.1372 11.4667 0.0000 -10494.1019 1386.0225 0.0000 0.0000 1757.5455 -7330.7062 300.5223 -9088.2517 -7410.4966 298.6254 259.8121 275.5349 29903.9945 -18.3335 41.4704
TCL: Running FEP window  19: Lambda1 0.9000000000000002 Lambda2 0.9500000000000003 [dLambda 0.050000000000000044]
TCL: Setting parameter firsttimestep to 0
TCL: Setting parameter alchLambda to 0.9000000000000002
Info: NONBONDED TABLE R-SQUARED SPACING: 0.0625
Info: NONBONDED TABLE SIZE: 705 POINTS
TCL: Setting parameter alchLambda2 to 0.9500000000000003
Info: NONBONDED TABLE R-SQUARED SPACING: 0.0625
Info: NONBONDED TABLE SIZE: 705 POINTS
TCL: Running for 1500000 steps
ETITLE: TS BOND ANGLE DIHED IMPRP ELECT VDW BOUNDARY MISC KINETIC TOTAL TEMP POTENTIAL TOTALAVG TEMPAVG PRESSURE GPRESSURE VOLUME PRESSAVG GPRESSAVG
ENERGY: 0 4.2239 4.1372 11.4667 0.0000 -10494.9208 1386.1830 0.0000 0.0000 1756.6714 -7332.2387 300.3728 -9088.9101 -7332.2387 300.3728 206.3543 292.7958 29903.9945 206.3543 292.7958
ENERGY: 300000 2.2887 4.1095 12.3062 0.0000 -10536.8035 1395.4745 0.0000 0.0000 1726.3951 -7396.2297 295.1959 -9122.6248 -7407.8463 297.4114 135.3357 221.3835 29897.7555 -342.4109 -286.0276
ENERGY: 600000 4.0526 4.3974 11.1243 0.0000 -10490.5566 1333.3418 0.0000 0.0000 1750.2117 -7387.4287 299.2683 -9137.6405 -7396.9153 299.2647 -451.6037 -432.1156 30440.0378 -281.2692 -228.8938
ENERGY: 900000 2.2104 4.9815 12.7326 0.0000 -10505.6023 1349.6502 0.0000 0.0000 1742.3581 -7393.6695 297.9254 -9136.0277 -7375.4262 300.2290 -687.9020 -640.0975 30805.1156 -236.5251 -192.5563
ENERGY: 1200000 3.0645 4.7820 11.7236 0.0000 -10616.7084 1439.4077 0.0000 0.0000 1800.4118 -7357.3189 307.8520 -9157.7307 -7374.8516 301.6593 163.4394 187.1143 30306.9730 -143.2848 -101.1222
ENERGY: 1500000 8.7517 5.5122 11.5301 0.0000 -10664.2057 1436.5432 0.0000 0.0000 1727.0262 -7474.8424 295.3038 -9201.8686 -7382.7331 301.3781 -133.0503 -76.1352 30390.1718 -117.2954 -74.0488
TCL: Running FEP window  20: Lambda1 0.9500000000000003 Lambda2 1.0    [dLambda 0.04999999999999971]
TCL: Setting parameter firsttimestep to 0
TCL: Setting parameter alchLambda to 0.9500000000000003
Info: NONBONDED TABLE R-SQUARED SPACING: 0.0625
Info: NONBONDED TABLE SIZE: 705 POINTS
TCL: Setting parameter alchLambda2 to 1.0
Info: NONBONDED TABLE R-SQUARED SPACING: 0.0625
Info: NONBONDED TABLE SIZE: 705 POINTS
TCL: Running for 1500000 steps
ETITLE: TS BOND ANGLE DIHED IMPRP ELECT VDW BOUNDARY MISC KINETIC TOTAL TEMP POTENTIAL TOTALAVG TEMPAVG PRESSURE GPRESSURE VOLUME PRESSAVG GPRESSAVG
ENERGY: 0 8.7517 5.5122 11.5300 0.0000 -10665.0266 1436.8479 0.0000 0.0000 1726.1355 -7476.2493 295.1515 -9202.3847 -7476.2493 295.1515 -141.4664 -57.9602 30390.1718 -141.4664 -57.9602
ENERGY: 300000 8.2949 4.2182 15.9805 0.0000 -10474.8131 1331.7163 0.0000 0.0000 1666.3769 -7448.2264 284.9334 -9114.6032 -7434.3836 295.3620 -918.5954 -878.3170 30616.2358 -359.1872 -312.1742
ENERGY: 600000 4.3031 4.7236 12.7551 0.0000 -10686.4586 1453.9678 0.0000 0.0000 1741.8607 -7468.8484 297.8404 -9210.7090 -7439.5593 297.0528 226.8110 271.7964 30067.2165 -247.6128 -199.9716
ENERGY: 900000 4.1813 7.8358 12.5027 0.0000 -10709.1148 1459.5549 0.0000 0.0000 1809.4800 -7415.5601 309.4026 -9225.0401 -7424.9034 298.9089 319.6419 374.2389 30287.3263 -153.8708 -105.7078
ENERGY: 1200000 5.5401 3.1634 14.0852 0.0000 -10566.4413 1437.0957 0.0000 0.0000 1754.3083 -7352.2487 299.9688 -9106.5569 -7408.6756 298.6881 407.0984 491.0102 30360.5896 -21.5521 25.9989
ENERGY: 1500000 5.1769 6.3777 13.6871 0.0000 -10396.7047 1252.6095 0.0000 0.0000 1760.5432 -7358.3103 301.0349 -9118.8535 -7402.7831 298.5378 -1271.7955 -1198.2986 30706.5358 -131.5677 -77.7026
TCL: Exiting due to exit command.
