Info: SIMULATION PARAMETERS:
Info: TIMESTEP               2
Info: NUMBER OF STEPS        0
Info: STEPS PER CYCLE        10
Info: PERIODIC CELL BASIS 1  30.2069 0 0
Info: PERIODIC CELL BASIS 2  0 32.4632 0
Info: PERIODIC CELL BASIS 3  0 0 31.5457
Info: PERIODIC CELL CENTER   0 0 0
Info: WRAPPING WATERS AROUND PERIODIC BOUNDARIES ON OUTPUT.
Info: WRAPPING ALL CLUSTERS AROUND PERIODIC BOUNDARIES ON OUTPUT.
Info: FIRST LDB TIMESTEP     50
Info: LAST LDB TIMESTEP     -1
Info: HOM BACKGROUND SCALING 1
Info: PME BACKGROUND SCALING 1
Info: MIN ATOMS PER PATCH    40
Info: EMPTY PATCH LOAD       40 ATOMS
Info: VELOCITY FILE          mobley_6917738_equil.vel
Info: CENTER OF MASS MOVING INITIALLY? NO
Info: DIELECTRIC             1
Info: EXCLUDE                SCALED ONE-FOUR
Info: 1-4 ELECTROSTATICS SCALED BY 0.833333
Info: MODIFIED 1-4 VDW PARAMETERS WILL BE USED
Info: DCD FILENAME           mobley_6917738_prod.dcd
Info: DCD FREQUENCY          100000
Info: DCD FIRST STEP         100000
Info: DCD FILE WILL CONTAIN UNIT CELL DATA
Info: XST FILENAME           mobley_6917738_prod.xst
Info: XST FREQUENCY          100000
Info: NO VELOCITY DCD OUTPUT
Info: NO FORCE DCD OUTPUT
Info: OUTPUT FILENAME        mobley_6917738_prod
Info: BINARY OUTPUT FILES WILL BE USED
Info: RESTART FILENAME       mobley_6917738_prod.restart
Info: RESTART FREQUENCY      100000
Info: BINARY RESTART FILES WILL BE USED
Info: CUTOFF                 9
Info: PAIRLIST DISTANCE      11
Info: PAIRLIST SHRINK RATE   0.01
Info: PAIRLIST GROW RATE     0.01
Info: PAIRLIST TRIGGER       0.3
Info: PAIRLISTS PER CYCLE    2
Info: PAIRLISTS ENABLED
Info: MARGIN                 2
Info: HYDROGEN GROUP CUTOFF  2.5
Info: PATCH DIMENSION        15.5
Info: ENERGY OUTPUT STEPS    100000
Info: ENERGY EVALUATION STEPS    100000
Info: OUTPUT ENERGY PRECISION 4
Info: CROSSTERM ENERGY INCLUDED IN DIHEDRAL
Info: TIMING OUTPUT STEPS    1000000
Info: PRESSURE OUTPUT STEPS  100000
Info: ALCHEMICAL FEP ON
Info: FEP CURRENT LAMBDA VALUE     0
Info: FEP COMPARISON LAMBDA VALUE  0.05
Info: FEP INTRA-ALCHEMICAL NON-BONDED INTERACTIONS WILL BE RETAINED
Info: FEP INTRA-ALCHEMICAL BONDED INTERACTIONS WILL BE RETAINED
Info: FEP VDW SHIFTING COEFFICIENT 5
Info: FEP ELEC. ACTIVE FOR ANNIHILATED PARTICLES BETWEEN LAMBDA = 0 AND LAMBDA = 0.5
Info: FEP ELEC. ACTIVE FOR EXNIHILATED PARTICLES BETWEEN LAMBDA = 0.5 AND LAMBDA = 1
Info: FEP VDW ACTIVE FOR ANNIHILATED PARTICLES BETWEEN LAMBDA = 0 AND LAMBDA = 1
Info: FEP VDW ACTIVE FOR EXNIHILATED PARTICLES BETWEEN LAMBDA = 0 AND LAMBDA = 1
Info: FEP BOND ACTIVE FOR ANNIHILATED PARTICLES BETWEEN LAMBDA = 1 AND LAMBDA = 1
Info: FEP BOND ACTIVE FOR EXNIHILATED PARTICLES BETWEEN LAMBDA = 0 AND LAMBDA = 0
Info: LANGEVIN DYNAMICS ACTIVE
Info: LANGEVIN TEMPERATURE   300
Info: LANGEVIN USING BBK INTEGRATOR
Info: LANGEVIN DAMPING COEFFICIENT IS 1 INVERSE PS
Info: LANGEVIN DYNAMICS APPLIED TO HYDROGENS
Info: LANGEVIN PISTON PRESSURE CONTROL ACTIVE
Info:        TARGET PRESSURE IS 1.01325 BAR
Info:     OSCILLATION PERIOD IS 50 FS
Info:             DECAY TIME IS 25 FS
Info:     PISTON TEMPERATURE IS 300 K
Info:       PRESSURE CONTROL IS GROUP-BASED
Info:    INITIAL STRAIN RATE IS 0.000538862 0.000538862 0.000538862
Info:       CELL FLUCTUATION IS ISOTROPIC
Info: PARTICLE MESH EWALD (PME) ACTIVE
Info: PME TOLERANCE               1e-06
Info: PME EWALD COEFFICIENT       0.348832
Info: PME INTERPOLATION ORDER     4
Info: PME GRID DIMENSIONS         32 36 32
Info: PME MAXIMUM GRID SPACING    1
Info: PME CALCULATION WILL BE PERFORMED ON GPU
Info: FULL ELECTROSTATIC EVALUATION FREQUENCY      2
Info: USING VERLET I (r-RESPA) MTS SCHEME.
Info: C1 SPLITTING OF LONG RANGE ELECTROSTATICS
Info: PLACING ATOMS IN PATCHES BY HYDROGEN GROUPS
Info: RIGID BONDS TO HYDROGEN : ALL
Info:         ERROR TOLERANCE : 1e-08
Info:          MAX ITERATIONS : 100
Info: RIGID WATER USING SETTLE ALGORITHM
Info: RANDOM NUMBER SEED     1743830802
Info: USE HYDROGEN BONDS?    NO
Info: Using AMBER format force field!
Info: AMBER PARM FILE        mobley_6917738.prmtop
Info: COORDINATE PDB         mobley_6917738.pdb
Info: Exclusions will be read from PARM file!
Info: SCNB (VDW SCALING)     2
Info: USING ARITHMETIC MEAN TO COMBINE L-J SIGMA PARAMETERS
Info: BINARY COORDINATES     mobley_6917738_equil.coor
Info: SUMMARY OF PARAMETERS:
Info: 7 BONDS
Info: 9 ANGLES
Info:   9 HARMONIC
Info:   0 COSINE-BASED
Info: 7 DIHEDRAL
Info: 0 IMPROPER
Info: 0 CROSSTERM
Info: 0 VDW
Info: 28 VDW_PAIRS
Info: 0 NBTHOLE_PAIRS
Info: To read alchdata from file: mobley_6917738.pdb
Info: To read alchflag data from column: 5
Info: STRUCTURE SUMMARY:
Info: 2984 ATOMS
Info: 2983 BONDS
Info: 22 ANGLES
Info: 24 DIHEDRALS
Info: 0 IMPROPERS
Info: 0 CROSSTERMS
Info: 3026 EXCLUSIONS
Info: 2979 RIGID BONDS
Info: ALCH: 0 ATOMS TO DISAPPEAR IN FINAL STATE
Info: ALCH: 14 ATOMS TO APPEAR IN FINAL STATE
Info: 5973 DEGREES OF FREEDOM
Info: 995 HYDROGEN GROUPS
Info: 4 ATOMS IN LARGEST HYDROGEN GROUP
Info: 995 MIGRATION GROUPS
Info: 4 ATOMS IN LARGEST MIGRATION GROUP
Info: TOTAL MASS = 17911 amu
Info: TOTAL CHARGE = 0.000300065 e
Info: MASS DENSITY = 0.961481 g/cm^3
Info: ATOM DENSITY = 0.0964632 atoms/A^3
Info: ADDED 0 IMPLICIT EXCLUSIONS
Info: NONBONDED TABLE R-SQUARED SPACING: 0.0625
Info: NONBONDED TABLE SIZE: 705 POINTS
Info: REMOVING COM VELOCITY -0.213964 0.105084 0.0101691
Info: Use 3D box decompostion in PME FFT.
Info: Updated CUDA force table with 4096 elements.
Info: Updated CUDA LJ table with 7 x 7 elements.
Info: Found 17 unique exclusion lists needing 32 bytes
TCL: Running for 1500000 steps
ETITLE: TS BOND ANGLE DIHED IMPRP ELECT VDW BOUNDARY MISC KINETIC TOTAL TEMP POTENTIAL TOTALAVG TEMPAVG PRESSURE GPRESSURE VOLUME PRESSAVG GPRESSAVG
ENERGY: 0 1.6507 5.1458 2.6223 0.0000 -10803.5782 1507.5253 0.0000 0.0000 1827.4171 -7459.2169 307.9183 -9286.6340 -7459.2169 307.9183 303.7393 371.9700 30934.0825 303.7393 371.9700
ENERGY: 300000 2.4713 7.3492 1.1397 0.0000 -10716.8906 1412.2722 0.0000 0.0000 1747.6121 -7546.0462 294.4713 -9293.6583 -7506.4659 302.4644 -253.1125 -189.2929 30505.5801 -1.4497 57.7610
ENERGY: 600000 1.1697 6.6414 3.1909 0.0000 -10885.3004 1501.9616 0.0000 0.0000 1750.7897 -7621.5471 295.0067 -9372.3369 -7545.5260 299.5641 317.7917 343.3839 30362.5312 44.5467 81.3079
ENERGY: 900000 2.5170 5.9073 1.6177 0.0000 -10700.1394 1438.2490 0.0000 0.0000 1807.7708 -7444.0777 304.6080 -9251.8485 -7540.6842 299.6444 2.3346 105.6731 30754.8370 198.9029 234.8488
ENERGY: 1200000 1.2382 4.2281 1.3027 0.0000 -10664.6225 1359.4536 0.0000 0.0000 1809.4374 -7488.9623 304.8888 -9298.3997 -7550.9670 299.9101 -556.7248 -498.6998 30409.2673 181.0415 219.9137
ENERGY: 1500000 1.0310 7.6785 1.9584 0.0000 -10883.7940 1525.1149 0.0000 0.0000 1777.1091 -7570.9022 299.4415 -9348.0113 -7559.5057 299.7449 472.5191 566.7968 30216.0889 237.5485 280.6915
TCL: Running FEP window   2: Lambda1 0.05   Lambda2 0.1    [dLambda 0.05  ]
TCL: Setting parameter firsttimestep to 0
TCL: Setting parameter alchLambda to 0.05
Info: NONBONDED TABLE R-SQUARED SPACING: 0.0625
Info: NONBONDED TABLE SIZE: 705 POINTS
TCL: Setting parameter alchLambda2 to 0.1
Info: NONBONDED TABLE R-SQUARED SPACING: 0.0625
Info: NONBONDED TABLE SIZE: 705 POINTS
TCL: Running for 1500000 steps
ETITLE: TS BOND ANGLE DIHED IMPRP ELECT VDW BOUNDARY MISC KINETIC TOTAL TEMP POTENTIAL TOTALAVG TEMPAVG PRESSURE GPRESSURE VOLUME PRESSAVG GPRESSAVG
ENERGY: 0 1.0310 7.6785 1.9584 0.0000 -10883.7936 1528.0551 0.0000 0.0000 1776.2530 -7568.8177 299.2972 -9345.0707 -7568.8177 299.2972 481.8769 570.5717 30216.0889 481.8769 570.5717
ENERGY: 300000 2.0949 5.8474 0.8310 0.0000 -10795.9299 1453.0524 0.0000 0.0000 1775.7919 -7558.3124 299.2195 -9334.1043 -7558.2920 301.1258 -197.4574 -147.6933 30755.0098 87.7845 133.7419
ENERGY: 600000 1.9874 8.2130 2.2087 0.0000 -10864.7350 1522.3062 0.0000 0.0000 1721.5827 -7608.4369 290.0853 -9330.0196 -7551.5381 300.2417 289.4644 257.7629 30849.6435 87.0247 119.0478
ENERGY: 900000 1.2286 5.4419 0.9243 0.0000 -10672.5986 1348.0794 0.0000 0.0000 1803.7753 -7513.1491 303.9347 -9316.9244 -7553.6438 301.1365 -874.8823 -859.4859 30804.8878 -49.2575 -11.4832
ENERGY: 1200000 0.5293 3.2126 0.9358 0.0000 -10763.2214 1479.1840 0.0000 0.0000 1764.7120 -7514.6477 297.3526 -9279.3597 -7554.1560 300.1067 119.0070 228.3787 30956.5999 31.4581 74.3153
ENERGY: 1500000 1.1250 5.6474 1.2404 0.0000 -10858.4887 1532.5457 0.0000 0.0000 1807.7165 -7510.2138 304.5988 -9317.9303 -7549.9940 299.8581 510.9919 556.3310 30512.4717 155.5054 200.6588
TCL: Running FEP window   3: Lambda1 0.1    Lambda2 0.15000000000000002 [dLambda 0.05000000000000002]
TCL: Setting parameter firsttimestep to 0
TCL: Setting parameter alchLambda to 0.1
Info: NONBONDED TABLE R-SQUARED SPACING: 0.0625
Info: NONBONDED TABLE SIZE: 705 POINTS
TCL: Setting parameter alchLambda2 to 0.15000000000000002
Info: NONBONDED TABLE R-SQUARED SPACING: 0.0625
Info: NONBONDED TABLE SIZE: 705 POINTS
TCL: Running for 1500000 steps
ETITLE: TS BOND ANGLE DIHED IMPRP ELECT VDW BOUNDARY MISC KINETIC TOTAL TEMP POTENTIAL TOTALAVG TEMPAVG PRESSURE GPRESSURE VOLUME PRESSAVG GPRESSAVG
ENERGY: 0 1.1250 5.6474 1.2404 0.0000 -10858.4881 1532.8064 0.0000 0.0000 1806.8554 -7510.8136 304.4537 -9317.6690 -7510.8136 304.4537 482.8039 559.9196 30512.4717 482.8039 559.9196
ENERGY: 300000 1.8555 4.5789 1.0565 0.0000 -10910.1151 1616.7593 0.0000 0.0000 1809.0993 -7476.7654 304.8318 -9285.8648 -7516.0155 302.5386 1461.1339 1479.2628 30648.8661 419.4031 480.4356
ENERGY: 600000 1.1698 9.4697 1.2047 0.0000 -10833.2185 1501.5897 0.0000 0.0000 1761.5658 -7558.2187 296.8224 -9319.7845 -7508.8643 302.5649 375.0866 354.3394 30597.1673 300.4529 350.8922
ENERGY: 900000 1.2845 3.2642 2.7526 0.0000 -10682.4513 1370.6193 0.0000 0.0000 1731.6276 -7572.9030 291.7779 -9304.5306 -7518.4534 301.3414 -788.7124 -750.8949 30960.2238 85.7213 138.5114
ENERGY: 1200000 0.2830 5.0086 1.2508 0.0000 -10705.7052 1417.9827 0.0000 0.0000 1762.5972 -7518.5828 296.9962 -9281.1800 -7522.1807 299.8614 21.5341 1.3288 30645.1460 90.1347 135.4603
ENERGY: 1500000 1.0943 5.4437 0.8075 0.0000 -10672.1399 1378.2960 0.0000 0.0000 1745.1471 -7541.3513 294.0559 -9286.4984 -7521.5975 299.6243 -474.1585 -419.5896 30721.4732 1.0394 52.0165
TCL: Running FEP window   4: Lambda1 0.15000000000000002 Lambda2 0.2    [dLambda 0.04999999999999999]
TCL: Setting parameter firsttimestep to 0
TCL: Setting parameter alchLambda to 0.15000000000000002
Info: NONBONDED TABLE R-SQUARED SPACING: 0.0625
Info: NONBONDED TABLE SIZE: 705 POINTS
TCL: Setting parameter alchLambda2 to 0.2
Info: NONBONDED TABLE R-SQUARED SPACING: 0.0625
Info: NONBONDED TABLE SIZE: 705 POINTS
TCL: Running for 1500000 steps
ETITLE: TS BOND ANGLE DIHED IMPRP ELECT VDW BOUNDARY MISC KINETIC TOTAL TEMP POTENTIAL TOTALAVG TEMPAVG PRESSURE GPRESSURE VOLUME PRESSAVG GPRESSAVG
ENERGY: 0 1.0943 5.4437 0.8075 0.0000 -10672.1393 1377.9651 0.0000 0.0000 1744.2478 -7542.5809 293.9044 -9286.8288 -7542.5809 293.9044 -500.0114 -420.0588 30721.4732 -500.0114 -420.0588
ENERGY: 300000 0.0995 5.8132 2.0309 0.0000 -10651.0569 1325.5856 0.0000 0.0000 1755.1258 -7562.4018 295.7373 -9317.5277 -7548.2327 298.8851 -980.8758 -945.5824 31015.4306 -381.2281 -317.7220
ENERGY: 600000 0.7583 9.6467 0.9704 0.0000 -10661.0400 1382.2748 0.0000 0.0000 1781.8658 -7485.5240 300.2430 -9267.3897 -7531.5546 301.9898 -538.6260 -440.6198 30856.5982 -293.9351 -219.8540
ENERGY: 900000 1.3085 4.6795 1.1921 0.0000 -10802.0808 1461.4271 0.0000 0.0000 1760.5451 -7572.9284 296.6505 -9333.4735 -7534.7328 301.2614 -63.3750 35.3934 30685.7295 -253.0511 -179.5879
ENERGY: 1200000 1.0155 4.5439 2.3129 0.0000 -10843.8146 1476.7561 0.0000 0.0000 1751.3818 -7607.8043 295.1064 -9359.1861 -7534.2161 301.7548 121.5657 167.1180 30453.7144 -98.7143 -30.2923
ENERGY: 1500000 1.1235 3.0235 1.7002 0.0000 -10821.2248 1434.3448 0.0000 0.0000 1752.6679 -7628.3649 295.3232 -9381.0328 -7544.9872 300.9513 -299.6789 -239.5635 30462.9117 -111.3726 -47.3381
TCL: Running FEP window   5: Lambda1 0.2    Lambda2 0.25   [dLambda 0.04999999999999999]
TCL: Setting parameter firsttimestep to 0
TCL: Setting parameter alchLambda to 0.2
Info: NONBONDED TABLE R-SQUARED SPACING: 0.0625
Info: NONBONDED TABLE SIZE: 705 POINTS
TCL: Setting parameter alchLambda2 to 0.25
Info: NONBONDED TABLE R-SQUARED SPACING: 0.0625
Info: NONBONDED TABLE SIZE: 705 POINTS
TCL: Running for 1500000 steps
ETITLE: TS BOND ANGLE DIHED IMPRP ELECT VDW BOUNDARY MISC KINETIC TOTAL TEMP POTENTIAL TOTALAVG TEMPAVG PRESSURE GPRESSURE VOLUME PRESSAVG GPRESSAVG
ENERGY: 0 1.1235 3.0235 1.7002 0.0000 -10821.2260 1435.6978 0.0000 0.0000 1751.8081 -7627.8729 295.1783 -9379.6810 -7627.8729 295.1783 -320.3171 -232.3721 30462.9117 -320.3171 -232.3721
ENERGY: 300000 0.6218 4.9638 1.6535 0.0000 -10838.7485 1505.6215 0.0000 0.0000 1772.6877 -7553.2003 298.6965 -9325.8880 -7549.9037 299.9495 579.0640 625.8556 30502.3021 91.9296 179.4015
ENERGY: 600000 1.3719 9.3885 1.7507 0.0000 -10897.2733 1567.0324 0.0000 0.0000 1750.9700 -7566.7597 295.0371 -9317.7297 -7535.3030 301.2223 1269.9952 1394.2900 29781.6620 321.7958 395.6413
ENERGY: 900000 5.1034 5.2005 1.3121 0.0000 -10696.2733 1416.2607 0.0000 0.0000 1745.4957 -7522.9009 294.1146 -9268.3965 -7535.4503 300.3311 -517.2599 -492.7633 31324.5751 15.0140 83.4899
ENERGY: 1200000 3.7118 5.8830 0.7881 0.0000 -10742.4588 1435.1733 0.0000 0.0000 1823.6209 -7473.2816 307.2787 -9296.9025 -7522.3050 301.6810 -129.1707 -7.8592 30497.8253 127.3644 191.6051
ENERGY: 1500000 0.3943 5.4960 1.5461 0.0000 -10809.3411 1472.1500 0.0000 0.0000 1803.4893 -7526.2653 303.8865 -9329.7547 -7529.8265 301.3370 430.8154 430.4429 30379.9025 96.2175 159.8257
TCL: Running FEP window   6: Lambda1 0.25   Lambda2 0.3    [dLambda 0.04999999999999999]
TCL: Setting parameter firsttimestep to 0
TCL: Setting parameter alchLambda to 0.25
Info: NONBONDED TABLE R-SQUARED SPACING: 0.0625
Info: NONBONDED TABLE SIZE: 705 POINTS
TCL: Setting parameter alchLambda2 to 0.3
Info: NONBONDED TABLE R-SQUARED SPACING: 0.0625
Info: NONBONDED TABLE SIZE: 705 POINTS
TCL: Running for 1500000 steps
ETITLE: TS BOND ANGLE DIHED IMPRP ELECT VDW BOUNDARY MISC KINETIC TOTAL TEMP POTENTIAL TOTALAVG TEMPAVG PRESSURE GPRESSURE VOLUME PRESSAVG GPRESSAVG
ENERGY: 0 0.3943 5.4960 1.5461 0.0000 -10809.3414 1472.5046 0.0000 0.0000 1802.5729 -7526.8275 303.7321 -9329.4004 -7526.8275 303.7321 370.4487 437.0786 30379.9025 370.4487 437.0786
ENERGY: 300000 0.9289 3.1598 1.1598 0.0000 -10781.9019 1493.0526 0.0000 0.0000 1789.6181 -7493.9828 301.5492 -9283.6009 -7556.2524 301.6281 467.5889 566.4183 30440.3832 91.4339 149.3711
ENERGY: 600000 1.2224 3.0389 0.8130 0.0000 -10916.8867 1534.1915 0.0000 0.0000 1758.8268 -7618.7939 296.3609 -9377.6207 -7560.7377 300.3931 375.4759 334.1019 30774.9641 124.3965 159.4551
ENERGY: 900000 0.3217 6.6658 1.4649 0.0000 -10818.7599 1429.7501 0.0000 0.0000 1750.9429 -7629.6144 295.0325 -9380.5574 -7563.1159 300.3343 -303.2566 -244.9873 30424.7147 83.9591 120.2393
ENERGY: 1200000 0.6312 3.1959 1.0564 0.0000 -10932.5462 1513.5653 0.0000 0.0000 1752.4086 -7661.6888 295.2795 -9414.0973 -7569.5442 299.6818 -116.3525 9.6722 30625.3360 -0.8948 54.1831
ENERGY: 1500000 0.9012 5.5725 2.5659 0.0000 -10698.6337 1414.7850 0.0000 0.0000 1773.2188 -7501.5904 298.7860 -9274.8091 -7568.3387 299.6840 -461.6963 -382.1792 31217.1025 17.3357 76.4449
TCL: Running FEP window   7: Lambda1 0.3    Lambda2 0.35   [dLambda 0.04999999999999999]
TCL: Setting parameter firsttimestep to 0
TCL: Setting parameter alchLambda to 0.3
Info: NONBONDED TABLE R-SQUARED SPACING: 0.0625
Info: NONBONDED TABLE SIZE: 705 POINTS
TCL: Setting parameter alchLambda2 to 0.35
Info: NONBONDED TABLE R-SQUARED SPACING: 0.0625
Info: NONBONDED TABLE SIZE: 705 POINTS
TCL: Running for 1500000 steps
ETITLE: TS BOND ANGLE DIHED IMPRP ELECT VDW BOUNDARY MISC KINETIC TOTAL TEMP POTENTIAL TOTALAVG TEMPAVG PRESSURE GPRESSURE VOLUME PRESSAVG GPRESSAVG
ENERGY: 0 0.9012 5.5725 2.5659 0.0000 -10698.6347 1414.6064 0.0000 0.0000 1772.3172 -7502.6715 298.6340 -9274.9887 -7502.6715 298.6340 -483.5961 -379.1999 31217.1025 -483.5961 -379.1999
ENERGY: 300000 0.3381 7.6580 1.4854 0.0000 -10727.3247 1391.8224 0.0000 0.0000 1773.6438 -7552.3770 298.8576 -9326.0208 -7571.9863 298.4526 -315.9286 -250.4285 30300.0208 -569.5409 -500.0446
ENERGY: 600000 2.9625 8.4625 1.2300 0.0000 -10734.9826 1379.2365 0.0000 0.0000 1792.1136 -7550.9774 301.9697 -9343.0910 -7567.8802 299.3035 -631.6268 -566.6884 30428.4892 -417.9775 -354.3572
ENERGY: 900000 0.7227 7.3531 1.3716 0.0000 -10680.7823 1336.7080 0.0000 0.0000 1766.2706 -7568.3562 297.6152 -9334.6268 -7567.4172 298.9024 -1215.0450 -1088.2725 30978.7043 -627.3620 -559.9622
ENERGY: 1200000 4.9513 3.3893 0.6849 0.0000 -10696.2881 1439.7153 0.0000 0.0000 1848.0316 -7399.5157 311.3919 -9247.5473 -7547.6161 300.8579 -84.1213 -38.6833 31077.9335 -460.7598 -400.3149
ENERGY: 1500000 0.5670 8.0709 2.1949 0.0000 -10820.5208 1533.7004 0.0000 0.0000 1854.4762 -7421.5114 312.4778 -9275.9876 -7540.7694 301.0956 843.1903 978.8317 30421.5538 -304.7787 -241.4155
TCL: Running FEP window   8: Lambda1 0.35   Lambda2 0.39999999999999997 [dLambda 0.04999999999999999]
TCL: Setting parameter firsttimestep to 0
TCL: Setting parameter alchLambda to 0.35
Info: NONBONDED TABLE R-SQUARED SPACING: 0.0625
Info: NONBONDED TABLE SIZE: 705 POINTS
TCL: Setting parameter alchLambda2 to 0.39999999999999997
Info: NONBONDED TABLE R-SQUARED SPACING: 0.0625
Info: NONBONDED TABLE SIZE: 705 POINTS
TCL: Running for 1500000 steps
ETITLE: TS BOND ANGLE DIHED IMPRP ELECT VDW BOUNDARY MISC KINETIC TOTAL TEMP POTENTIAL TOTALAVG TEMPAVG PRESSURE GPRESSURE VOLUME PRESSAVG GPRESSAVG
ENERGY: 0 0.5670 8.0709 2.1949 0.0000 -10820.5222 1535.3358 0.0000 0.0000 1853.6364 -7420.7173 312.3363 -9274.3537 -7420.7173 312.3363 900.6669 987.7150 30421.5538 900.6669 987.7150
ENERGY: 300000 0.5337 4.8371 1.7816 0.0000 -10779.0695 1434.5576 0.0000 0.0000 1820.0747 -7517.2848 306.6812 -9337.3595 -7474.4975 306.3700 -222.5144 -136.7537 30856.8772 -48.7822 30.4377
ENERGY: 600000 1.0312 6.2157 3.0612 0.0000 -10789.9333 1464.7778 0.0000 0.0000 1798.4805 -7516.3671 303.0425 -9314.8475 -7500.7082 305.9649 240.6048 389.5486 30257.2681 -147.1340 -64.2021
ENERGY: 900000 1.7364 3.8950 2.2397 0.0000 -10733.6545 1400.0464 0.0000 0.0000 1831.0033 -7494.7336 308.5226 -9325.7369 -7506.5117 306.2746 -475.4782 -467.7615 31086.7904 -142.8577 -75.6656
ENERGY: 1200000 0.2270 5.7949 0.7610 0.0000 -10901.9667 1499.0134 0.0000 0.0000 1745.2669 -7650.9035 294.0761 -9396.1704 -7522.1096 303.9483 351.4265 410.9205 30046.2832 -72.7108 -7.9628
ENERGY: 1500000 0.9328 7.1198 1.1308 0.0000 -10771.2290 1441.2158 0.0000 0.0000 1757.1857 -7563.6441 296.0844 -9320.8298 -7526.9586 302.8242 99.8981 118.8517 30446.5582 -128.5121 -64.6067
TCL: Running FEP window   9: Lambda1 0.39999999999999997 Lambda2 0.44999999999999996 [dLambda 0.04999999999999999]
TCL: Setting parameter firsttimestep to 0
TCL: Setting parameter alchLambda to 0.39999999999999997
Info: NONBONDED TABLE R-SQUARED SPACING: 0.0625
Info: NONBONDED TABLE SIZE: 705 POINTS
TCL: Setting parameter alchLambda2 to 0.44999999999999996
Info: NONBONDED TABLE R-SQUARED SPACING: 0.0625
Info: NONBONDED TABLE SIZE: 705 POINTS
TCL: Running for 1500000 steps
ETITLE: TS BOND ANGLE DIHED IMPRP ELECT VDW BOUNDARY MISC KINETIC TOTAL TEMP POTENTIAL TOTALAVG TEMPAVG PRESSURE GPRESSURE VOLUME PRESSAVG GPRESSAVG
ENERGY: 0 0.9328 7.1198 1.1308 0.0000 -10771.2296 1441.0401 0.0000 0.0000 1756.3221 -7564.6839 295.9389 -9321.0060 -7564.6839 295.9389 30.9683 119.2178 30446.5582 30.9683 119.2178
ENERGY: 300000 2.5231 12.2557 2.9144 0.0000 -10828.1172 1478.5719 0.0000 0.0000 1777.1238 -7554.7283 299.4440 -9331.8521 -7581.4631 296.2716 27.1609 123.6404 30572.8832 89.1950 169.0040
ENERGY: 600000 0.2946 9.8736 1.0808 0.0000 -10916.4016 1515.7993 0.0000 0.0000 1808.5656 -7580.7877 304.7419 -9389.3533 -7549.3849 301.3242 312.6351 390.8542 30549.8612 196.6843 265.4496
ENERGY: 900000 1.2774 5.8993 2.1566 0.0000 -10749.6667 1461.7186 0.0000 0.0000 1821.5142 -7457.1006 306.9237 -9278.6148 -7542.9581 301.7446 308.5810 356.2967 30455.4199 176.0440 253.0933
ENERGY: 1200000 2.4248 7.5490 1.2689 0.0000 -10815.4816 1429.2155 0.0000 0.0000 1724.7623 -7650.2612 290.6211 -9375.0235 -7551.9770 299.8484 -368.8716 -321.8486 30377.4787 3.0087 75.9141
ENERGY: 1500000 1.9493 6.3180 2.9515 0.0000 -10807.2385 1437.7043 0.0000 0.0000 1783.5499 -7574.7655 300.5268 -9358.3154 -7548.5031 300.2906 -60.7580 -36.4940 30349.3210 -79.7441 -16.3593
TCL: Running FEP window  10: Lambda1 0.44999999999999996 Lambda2 0.49999999999999994 [dLambda 0.04999999999999999]
TCL: Setting parameter firsttimestep to 0
TCL: Setting parameter alchLambda to 0.44999999999999996
Info: NONBONDED TABLE R-SQUARED SPACING: 0.0625
Info: NONBONDED TABLE SIZE: 705 POINTS
TCL: Setting parameter alchLambda2 to 0.49999999999999994
Info: NONBONDED TABLE R-SQUARED SPACING: 0.0625
Info: NONBONDED TABLE SIZE: 705 POINTS
TCL: Running for 1500000 steps
ETITLE: TS BOND ANGLE DIHED IMPRP ELECT VDW BOUNDARY MISC KINETIC TOTAL TEMP POTENTIAL TOTALAVG TEMPAVG PRESSURE GPRESSURE VOLUME PRESSAVG GPRESSAVG
ENERGY: 0 1.9493 6.3180 2.9515 0.0000 -10807.2393 1437.2899 0.0000 0.0000 1782.6701 -7576.0606 300.3785 -9358.7307 -7576.0606 300.3785 -120.0587 -38.2538 30349.3210 -120.0587 -38.2538
ENERGY: 300000 0.9983 5.6958 2.2412 0.0000 -10811.7241 1457.7261 0.0000 0.0000 1734.2437 -7610.8189 292.2187 -9345.0626 -7586.8746 298.4436 -195.0770 -165.7715 30761.1212 -216.1790 -167.9418
ENERGY: 600000 1.4353 8.6191 0.8656 0.0000 -10658.3704 1381.8504 0.0000 0.0000 1778.7307 -7486.8692 299.7147 -9265.5999 -7562.3348 299.1443 -544.2544 -497.0141 30919.8916 -108.0768 -71.4892
ENERGY: 900000 2.2810 5.3793 0.8369 0.0000 -10755.4735 1423.9424 0.0000 0.0000 1814.2954 -7508.7385 305.7073 -9323.0339 -7539.3888 300.7417 -26.9190 61.9537 30343.2022 -57.9225 -13.6766
ENERGY: 1200000 0.4663 5.8582 0.8742 0.0000 -10534.5738 1298.9021 0.0000 0.0000 1762.4798 -7465.9933 296.9765 -9228.4731 -7536.8011 300.5240 -1132.6527 -1034.4555 30983.3187 -118.6647 -71.2002
ENERGY: 1500000 0.9225 3.0892 1.7969 0.0000 -10725.4229 1369.6628 0.0000 0.0000 1815.5206 -7534.4310 305.9138 -9349.9516 -7542.5459 300.3414 -408.7499 -352.6395 30121.5227 -4.9945 43.9649
TCL: Running FEP window  11: Lambda1 0.49999999999999994 Lambda2 0.5499999999999999 [dLambda 0.04999999999999999]
TCL: Setting parameter firsttimestep to 0
TCL: Setting parameter alchLambda to 0.49999999999999994
Info: NONBONDED TABLE R-SQUARED SPACING: 0.0625
Info: NONBONDED TABLE SIZE: 705 POINTS
TCL: Setting parameter alchLambda2 to 0.5499999999999999
Info: NONBONDED TABLE R-SQUARED SPACING: 0.0625
Info: NONBONDED TABLE SIZE: 705 POINTS
TCL: Running for 1500000 steps
ETITLE: TS BOND ANGLE DIHED IMPRP ELECT VDW BOUNDARY MISC KINETIC TOTAL TEMP POTENTIAL TOTALAVG TEMPAVG PRESSURE GPRESSURE VOLUME PRESSAVG GPRESSAVG
ENERGY: 0 0.9225 3.0892 1.7969 0.0000 -10725.4252 1369.4921 0.0000 0.0000 1814.6696 -7535.4550 305.7704 -9350.1246 -7535.4550 305.7704 -438.1476 -347.2562 30121.5227 -438.1476 -347.2562
ENERGY: 300000 0.3486 5.6327 0.9144 0.0000 -10823.3056 1458.7591 0.0000 0.0000 1777.1355 -7580.5152 299.4459 -9357.6507 -7573.3533 299.7826 -30.2556 86.4593 30601.4076 -5.8221 89.7103
ENERGY: 600000 1.7409 6.8845 3.0794 0.0000 -10782.8622 1428.2717 0.0000 0.0000 1831.2591 -7511.6265 308.5657 -9342.8857 -7559.7863 301.1342 -355.6952 -241.9909 30513.7870 -135.6519 -50.4910
ENERGY: 900000 1.1482 8.7449 1.8550 0.0000 -10776.1451 1504.7051 0.0000 0.0000 1841.7164 -7417.9755 310.3278 -9259.6919 -7535.1926 302.2235 691.2199 743.6228 30632.5655 -50.4541 24.6424
ENERGY: 1200000 0.6574 6.8869 1.0171 0.0000 -10864.4588 1480.5371 0.0000 0.0000 1806.8735 -7568.4867 304.4568 -9375.3602 -7539.7717 301.5804 237.2232 297.4457 30486.1274 -18.2349 59.4161
ENERGY: 1500000 0.5872 4.3650 0.8637 0.0000 -10755.0820 1395.6720 0.0000 0.0000 1773.9837 -7579.6104 298.9149 -9353.5941 -7543.6321 300.5388 -488.7691 -397.9436 30770.9664 -109.4955 -29.9809
TCL: Running FEP window  12: Lambda1 0.5499999999999999 Lambda2 0.6    [dLambda 0.050000000000000044]
TCL: Setting parameter firsttimestep to 0
TCL: Setting parameter alchLambda to 0.5499999999999999
Info: NONBONDED TABLE R-SQUARED SPACING: 0.0625
Info: NONBONDED TABLE SIZE: 705 POINTS
TCL: Setting parameter alchLambda2 to 0.6
Info: NONBONDED TABLE R-SQUARED SPACING: 0.0625
Info: NONBONDED TABLE SIZE: 705 POINTS
TCL: Running for 1500000 steps
ETITLE: TS BOND ANGLE DIHED IMPRP ELECT VDW BOUNDARY MISC KINETIC TOTAL TEMP POTENTIAL TOTALAVG TEMPAVG PRESSURE GPRESSURE VOLUME PRESSAVG GPRESSAVG
ENERGY: 0 0.5872 4.3650 0.8637 0.0000 -10755.8165 1395.3239 0.0000 0.0000 1773.1118 -7581.5650 298.7679 -9354.6768 -7581.5650 298.7679 -471.1672 -397.3057 30770.9664 -471.1672 -397.3057
ENERGY: 300000 0.3172 5.7738 0.9747 0.0000 -10868.5887 1493.1165 0.0000 0.0000 1805.5723 -7562.8341 304.2375 -9368.4065 -7545.0841 299.3286 48.2630 178.3442 30708.1172 -125.1537 -8.7683
ENERGY: 600000 0.3922 4.3103 3.2059 0.0000 -10796.5980 1424.4736 0.0000 0.0000 1750.1278 -7614.0881 294.8951 -9364.2159 -7568.8800 298.5110 -363.9333 -317.4201 30843.4903 27.9451 116.4250
ENERGY: 900000 0.8079 7.8713 0.9447 0.0000 -10831.8564 1461.6981 0.0000 0.0000 1811.3328 -7549.2015 305.2082 -9360.5344 -7568.3365 299.9127 79.3901 127.6716 30579.0644 38.7032 112.3683
ENERGY: 1200000 1.2313 5.2363 1.4408 0.0000 -10716.9655 1475.9352 0.0000 0.0000 1743.0522 -7490.0698 293.7029 -9233.1219 -7561.8760 299.1803 507.3897 570.3702 30419.8139 22.2145 95.5535
ENERGY: 1500000 2.1416 8.0264 1.5506 0.0000 -10885.2764 1574.6917 0.0000 0.0000 1857.2655 -7441.6006 312.9478 -9298.8661 -7552.8143 299.5658 1069.7194 1088.7178 30673.7326 105.7457 173.7726
TCL: Running FEP window  13: Lambda1 0.6    Lambda2 0.65   [dLambda 0.050000000000000044]
TCL: Setting parameter firsttimestep to 0
TCL: Setting parameter alchLambda to 0.6
Info: NONBONDED TABLE R-SQUARED SPACING: 0.0625
Info: NONBONDED TABLE SIZE: 705 POINTS
TCL: Setting parameter alchLambda2 to 0.65
Info: NONBONDED TABLE R-SQUARED SPACING: 0.0625
Info: NONBONDED TABLE SIZE: 705 POINTS
TCL: Running for 1500000 steps
ETITLE: TS BOND ANGLE DIHED IMPRP ELECT VDW BOUNDARY MISC KINETIC TOTAL TEMP POTENTIAL TOTALAVG TEMPAVG PRESSURE GPRESSURE VOLUME PRESSAVG GPRESSAVG
ENERGY: 0 2.1416 8.0264 1.5506 0.0000 -10885.1619 1575.3903 0.0000 0.0000 1856.3845 -7441.6686 312.7993 -9298.0530 -7441.6686 312.7993 1020.2327 1099.0126 30673.7326 1020.2327 1099.0126
ENERGY: 300000 1.1687 5.9208 5.1855 0.0000 -10701.1432 1368.4607 0.0000 0.0000 1798.9733 -7521.4342 303.1256 -9320.4075 -7518.6722 303.5197 -418.3692 -391.3578 30608.5580 -49.2786 28.2513
ENERGY: 600000 1.5055 6.4558 2.5268 0.0000 -10720.5211 1408.8022 0.0000 0.0000 1804.5179 -7496.7129 304.0598 -9301.2308 -7532.2413 302.6084 -94.4057 -3.2139 30437.4730 -222.8590 -129.9978
ENERGY: 900000 2.5050 5.2511 1.4249 0.0000 -10637.3484 1326.5304 0.0000 0.0000 1781.3875 -7520.2494 300.1624 -9301.6369 -7538.0189 301.2845 -1032.8508 -987.5696 30912.9454 -285.0544 -207.3605
ENERGY: 1200000 0.5042 4.6676 1.1213 0.0000 -10779.9927 1403.0937 0.0000 0.0000 1805.7360 -7564.8699 304.2651 -9370.6060 -7530.9589 301.8985 -480.0289 -416.4249 30580.0042 -270.8234 -201.4819
ENERGY: 1500000 1.6990 8.7311 2.1907 0.0000 -10792.9230 1490.0709 0.0000 0.0000 1818.5373 -7471.6940 306.4221 -9290.2313 -7524.8728 303.2741 534.3513 575.8097 30683.4455 -143.0395 -80.5707
TCL: Running FEP window  14: Lambda1 0.65   Lambda2 0.7000000000000001 [dLambda 0.050000000000000044]
TCL: Setting parameter firsttimestep to 0
TCL: Setting parameter alchLambda to 0.65
Info: NONBONDED TABLE R-SQUARED SPACING: 0.0625
Info: NONBONDED TABLE SIZE: 705 POINTS
TCL: Setting parameter alchLambda2 to 0.7000000000000001
Info: NONBONDED TABLE R-SQUARED SPACING: 0.0625
Info: NONBONDED TABLE SIZE: 705 POINTS
TCL: Running for 1500000 steps
ETITLE: TS BOND ANGLE DIHED IMPRP ELECT VDW BOUNDARY MISC KINETIC TOTAL TEMP POTENTIAL TOTALAVG TEMPAVG PRESSURE GPRESSURE VOLUME PRESSAVG GPRESSAVG
ENERGY: 0 1.6990 8.7311 2.1907 0.0000 -10792.8397 1491.6486 0.0000 0.0000 1817.6070 -7470.9632 306.2653 -9288.5702 -7470.9632 306.2653 518.8617 595.7901 30683.4455 518.8617 595.7901
ENERGY: 300000 1.3709 6.7386 0.8837 0.0000 -10700.5618 1434.9444 0.0000 0.0000 1761.9897 -7494.6346 296.8939 -9256.6243 -7543.5422 296.8032 -26.3752 2.3762 30906.1404 -129.9020 -82.4412
ENERGY: 600000 3.6641 5.8724 2.9349 0.0000 -10857.2521 1508.4103 0.0000 0.0000 1738.0041 -7598.3663 292.8523 -9336.3704 -7542.3252 298.6601 164.0737 222.0131 30871.5407 -186.1478 -134.0132
ENERGY: 900000 0.7466 10.3589 2.7138 0.0000 -10852.9307 1486.9740 0.0000 0.0000 1842.2121 -7509.9253 310.4113 -9352.1374 -7544.4130 300.2874 34.6944 58.8008 31044.1812 -193.7568 -132.8518
ENERGY: 1200000 1.7583 9.8263 1.6572 0.0000 -10857.2028 1554.0835 0.0000 0.0000 1825.4510 -7464.4264 307.5870 -9289.8774 -7540.2173 300.2040 710.5678 827.9006 30914.5438 -76.9703 -12.4073
ENERGY: 1500000 0.1509 3.6896 3.1552 0.0000 -10920.6991 1536.0664 0.0000 0.0000 1741.7844 -7635.8524 293.4893 -9377.6369 -7543.0149 299.9686 611.4958 685.0656 30494.8156 -31.2240 32.6053
TCL: Running FEP window  15: Lambda1 0.7000000000000001 Lambda2 0.7500000000000001 [dLambda 0.050000000000000044]
TCL: Setting parameter firsttimestep to 0
TCL: Setting parameter alchLambda to 0.7000000000000001
Info: NONBONDED TABLE R-SQUARED SPACING: 0.0625
Info: NONBONDED TABLE SIZE: 705 POINTS
TCL: Setting parameter alchLambda2 to 0.7500000000000001
Info: NONBONDED TABLE R-SQUARED SPACING: 0.0625
Info: NONBONDED TABLE SIZE: 705 POINTS
TCL: Running for 1500000 steps
ETITLE: TS BOND ANGLE DIHED IMPRP ELECT VDW BOUNDARY MISC KINETIC TOTAL TEMP POTENTIAL TOTALAVG TEMPAVG PRESSURE GPRESSURE VOLUME PRESSAVG GPRESSAVG
ENERGY: 0 0.1509 3.6896 3.1552 0.0000 -10921.1333 1536.4766 0.0000 0.0000 1740.9214 -7636.7395 293.3439 -9377.6609 -7636.7395 293.3439 619.6919 695.7276 30494.8156 619.6919 695.7276
ENERGY: 300000 1.6336 5.6969 1.5139 0.0000 -10785.9550 1436.1358 0.0000 0.0000 1763.5705 -7577.4044 297.1602 -9340.9749 -7575.6063 299.0819 -230.2808 -148.2363 30604.4327 181.8553 234.9800
ENERGY: 600000 1.5913 9.3124 2.3618 0.0000 -10809.6502 1475.3264 0.0000 0.0000 1788.4260 -7532.6325 301.3484 -9321.0585 -7570.4939 300.5218 8.1009 10.9718 31086.8669 112.5728 157.3103
ENERGY: 900000 1.2042 5.4522 1.8205 0.0000 -10817.6995 1512.1658 0.0000 0.0000 1719.8115 -7577.2453 289.7869 -9297.0568 -7568.2706 300.4437 511.4705 592.1996 30444.0459 23.6336 77.2531
ENERGY: 1200000 1.7766 5.8872 5.0189 0.0000 -10642.7174 1317.0786 0.0000 0.0000 1769.0714 -7543.8846 298.0871 -9312.9560 -7553.3370 301.2443 -1165.8855 -1142.0676 31021.6647 -50.5911 5.3787
ENERGY: 1500000 0.8863 7.7511 0.9513 0.0000 -10951.3146 1519.8414 0.0000 0.0000 1833.2821 -7588.6024 308.9066 -9421.8845 -7552.4847 302.1966 443.9202 523.5352 30178.8366 0.2373 55.5567
TCL: Running FEP window  16: Lambda1 0.7500000000000001 Lambda2 0.8000000000000002 [dLambda 0.050000000000000044]
TCL: Setting parameter firsttimestep to 0
TCL: Setting parameter alchLambda to 0.7500000000000001
Info: NONBONDED TABLE R-SQUARED SPACING: 0.0625
Info: NONBONDED TABLE SIZE: 705 POINTS
TCL: Setting parameter alchLambda2 to 0.8000000000000002
Info: NONBONDED TABLE R-SQUARED SPACING: 0.0625
Info: NONBONDED TABLE SIZE: 705 POINTS
TCL: Running for 1500000 steps
ETITLE: TS BOND ANGLE DIHED IMPRP ELECT VDW BOUNDARY MISC KINETIC TOTAL TEMP POTENTIAL TOTALAVG TEMPAVG PRESSURE GPRESSURE VOLUME PRESSAVG GPRESSAVG
ENERGY: 0 0.8863 7.7511 0.9513 0.0000 -10952.1555 1520.3684 0.0000 0.0000 1832.3336 -7589.8648 308.7468 -9422.1984 -7589.8648 308.7468 452.9063 534.1753 30178.8366 452.9063 534.1753
ENERGY: 300000 0.8181 3.9865 0.8868 0.0000 -10904.7604 1579.1963 0.0000 0.0000 1785.4865 -7534.3862 300.8531 -9319.8727 -7570.3522 300.4037 939.8361 928.7347 30702.8115 359.9230 427.6770
ENERGY: 600000 1.5887 5.5788 0.6298 0.0000 -10820.2170 1525.5358 0.0000 0.0000 1801.6048 -7485.2789 303.5690 -9286.8838 -7574.9591 299.8500 930.5394 1029.6845 30287.9825 336.6241 410.6245
ENERGY: 900000 1.8300 4.2692 2.7053 0.0000 -10809.8798 1455.1421 0.0000 0.0000 1770.4248 -7575.5085 298.3152 -9345.9333 -7575.9089 298.7365 -58.2957 -55.3763 30625.3406 95.8302 164.0171
ENERGY: 1200000 0.8549 8.1507 1.0203 0.0000 -10656.1220 1380.0957 0.0000 0.0000 1849.2727 -7416.7278 311.6010 -9266.0005 -7564.8469 299.4039 -601.6700 -466.9372 31174.1721 -40.7379 31.1040
ENERGY: 1500000 0.8148 6.3499 1.1977 0.0000 -10798.3572 1412.3459 0.0000 0.0000 1765.4357 -7612.2131 297.4745 -9377.6488 -7572.1851 299.5029 -552.1545 -472.2824 30767.0882 -198.8251 -126.6202
TCL: Running FEP window  17: Lambda1 0.8000000000000002 Lambda2 0.8500000000000002 [dLambda 0.050000000000000044]
TCL: Setting parameter firsttimestep to 0
TCL: Setting parameter alchLambda to 0.8000000000000002
Info: NONBONDED TABLE R-SQUARED SPACING: 0.0625
Info: NONBONDED TABLE SIZE: 705 POINTS
TCL: Setting parameter alchLambda2 to 0.8500000000000002
Info: NONBONDED TABLE R-SQUARED SPACING: 0.0625
Info: NONBONDED TABLE SIZE: 705 POINTS
TCL: Running for 1500000 steps
ETITLE: TS BOND ANGLE DIHED IMPRP ELECT VDW BOUNDARY MISC KINETIC TOTAL TEMP POTENTIAL TOTALAVG TEMPAVG PRESSURE GPRESSURE VOLUME PRESSAVG GPRESSAVG
ENERGY: 0 0.8148 6.3499 1.1977 0.0000 -10799.6077 1412.7554 0.0000 0.0000 1764.5599 -7613.9300 297.3270 -9378.4899 -7613.9300 297.3270 -548.7644 -460.7071 30767.0882 -548.7644 -460.7071
ENERGY: 300000 2.2577 3.6330 1.1071 0.0000 -10829.4850 1456.6902 0.0000 0.0000 1740.7215 -7625.0756 293.3102 -9365.7971 -7617.5670 296.6639 131.2307 160.1743 30454.5605 -155.0122 -109.5364
ENERGY: 600000 1.7294 9.2146 1.7663 0.0000 -10843.1530 1460.3012 0.0000 0.0000 1742.9371 -7627.2043 293.6835 -9370.1414 -7592.1046 298.5751 -156.5318 -97.5832 30823.2140 -8.9343 49.4206
ENERGY: 900000 1.2055 5.4288 2.4267 0.0000 -10968.2963 1541.8776 0.0000 0.0000 1762.3912 -7654.9666 296.9615 -9417.3577 -7587.7084 299.2692 429.3453 459.4840 30493.7775 -9.8739 48.7977
ENERGY: 1200000 1.1146 5.5133 1.2048 0.0000 -10695.7358 1349.5174 0.0000 0.0000 1751.2706 -7587.1151 295.0877 -9338.3857 -7584.9647 299.2145 -852.4028 -843.6206 30934.2751 -43.8370 7.8897
ENERGY: 1500000 0.7832 3.2773 1.1815 0.0000 -10770.4550 1454.7035 0.0000 0.0000 1750.3369 -7560.1726 294.9304 -9310.5095 -7591.2248 298.5109 1.4967 42.3277 31088.7662 -17.8420 40.6150
TCL: Running FEP window  18: Lambda1 0.8500000000000002 Lambda2 0.9000000000000002 [dLambda 0.050000000000000044]
TCL: Setting parameter firsttimestep to 0
TCL: Setting parameter alchLambda to 0.8500000000000002
Info: NONBONDED TABLE R-SQUARED SPACING: 0.0625
Info: NONBONDED TABLE SIZE: 705 POINTS
TCL: Setting parameter alchLambda2 to 0.9000000000000002
Info: NONBONDED TABLE R-SQUARED SPACING: 0.0625
Info: NONBONDED TABLE SIZE: 705 POINTS
TCL: Running for 1500000 steps
ETITLE: TS BOND ANGLE DIHED IMPRP ELECT VDW BOUNDARY MISC KINETIC TOTAL TEMP POTENTIAL TOTALAVG TEMPAVG PRESSURE GPRESSURE VOLUME PRESSAVG GPRESSAVG
ENERGY: 0 0.7832 3.2773 1.1815 0.0000 -10771.9424 1457.5390 0.0000 0.0000 1749.4700 -7559.6913 294.7843 -9309.1613 -7559.6913 294.7843 9.3271 80.8536 31088.7662 9.3271 80.8536
ENERGY: 300000 1.0789 3.2069 0.8187 0.0000 -10755.3323 1439.4832 0.0000 0.0000 1815.1151 -7495.6295 305.8455 -9310.7446 -7496.6501 301.7160 -85.6688 20.3241 30844.5974 -267.6298 -187.0306
ENERGY: 600000 1.5860 9.8223 2.8897 0.0000 -10728.6832 1417.2909 0.0000 0.0000 1733.1394 -7563.9547 292.0326 -9297.0941 -7521.6363 300.5248 -318.5543 -274.9275 30751.7698 -70.6529 -1.7444
ENERGY: 900000 0.4866 5.1379 1.5321 0.0000 -10818.3419 1441.3639 0.0000 0.0000 1764.2138 -7605.6076 297.2686 -9369.8215 -7538.7398 299.5618 26.6040 53.3988 30431.2256 -85.7708 -12.6154
ENERGY: 1200000 1.5503 8.3046 2.7003 0.0000 -10856.9728 1467.9745 0.0000 0.0000 1727.5511 -7648.8919 291.0910 -9376.4431 -7547.5025 299.7969 105.0564 170.6897 30491.9054 -101.7352 -23.4994
ENERGY: 1500000 1.9643 6.6340 0.7855 0.0000 -10910.2604 1558.5144 0.0000 0.0000 1786.8186 -7555.5437 301.0775 -9342.3623 -7557.7394 299.6684 898.4518 973.9295 30314.2399 81.8633 153.8182
TCL: Running FEP window  19: Lambda1 0.9000000000000002 Lambda2 0.9500000000000003 [dLambda 0.050000000000000044]
TCL: Setting parameter firsttimestep to 0
TCL: Setting parameter alchLambda to 0.9000000000000002
Info: NONBONDED TABLE R-SQUARED SPACING: 0.0625
Info: NONBONDED TABLE SIZE: 705 POINTS
TCL: Setting parameter alchLambda2 to 0.9500000000000003
Info: NONBONDED TABLE R-SQUARED SPACING: 0.0625
Info: NONBONDED TABLE SIZE: 705 POINTS
TCL: Running for 1500000 steps
ETITLE: TS BOND ANGLE DIHED IMPRP ELECT VDW BOUNDARY MISC KINETIC TOTAL TEMP POTENTIAL TOTALAVG TEMPAVG PRESSURE GPRESSURE VOLUME PRESSAVG GPRESSAVG
ENERGY: 0 1.9643 6.6340 0.7855 0.0000 -10910.6904 1559.1389 0.0000 0.0000 1785.9233 -7556.2444 300.9267 -9342.1677 -7556.2444 300.9267 907.6869 993.9491 30314.2399 907.6869 993.9491
ENERGY: 300000 0.4195 3.4340 1.9075 0.0000 -10651.0967 1301.1573 0.0000 0.0000 1783.6972 -7560.4812 300.5516 -9344.1784 -7530.0784 300.8413 -1121.4614 -1040.0301 30702.8804 -191.3332 -121.0930
ENERGY: 600000 2.0024 4.0118 2.2384 0.0000 -10977.9422 1596.1464 0.0000 0.0000 1787.2844 -7586.2587 301.1560 -9373.5431 -7541.4639 301.5117 1015.9526 1073.4089 30452.4087 159.2553 224.1093
ENERGY: 900000 1.0835 8.7848 1.1658 0.0000 -10759.1242 1398.8625 0.0000 0.0000 1802.2108 -7547.0167 303.6711 -9349.2275 -7546.9104 301.1511 -276.6705 -247.3170 30385.7514 96.5535 155.8994
ENERGY: 1200000 0.3668 3.4125 3.2891 0.0000 -10692.9870 1340.7984 0.0000 0.0000 1802.2563 -7542.8639 303.6788 -9345.1202 -7539.2940 301.8683 -705.9412 -732.9017 30690.6199 -32.6228 19.7849
ENERGY: 1500000 0.3474 4.2030 1.1129 0.0000 -10803.9291 1413.7815 0.0000 0.0000 1784.6508 -7599.8334 300.7123 -9384.4842 -7538.8553 302.2798 -616.5353 -468.7053 31220.1090 -113.4829 -55.1665
TCL: Running FEP window  20: Lambda1 0.9500000000000003 Lambda2 1.0    [dLambda 0.04999999999999971]
TCL: Setting parameter firsttimestep to 0
TCL: Setting parameter alchLambda to 0.9500000000000003
Info: NONBONDED TABLE R-SQUARED SPACING: 0.0625
Info: NONBONDED TABLE SIZE: 705 POINTS
TCL: Setting parameter alchLambda2 to 1.0
Info: NONBONDED TABLE R-SQUARED SPACING: 0.0625
Info: NONBONDED TABLE SIZE: 705 POINTS
TCL: Running for 1500000 steps
ETITLE: TS BOND ANGLE DIHED IMPRP ELECT VDW BOUNDARY MISC KINETIC TOTAL TEMP POTENTIAL TOTALAVG TEMPAVG PRESSURE GPRESSURE VOLUME PRESSAVG GPRESSAVG
ENERGY: 0 0.3474 4.2030 1.1129 0.0000 -10804.8271 1413.8841 0.0000 0.0000 1783.7810 -7601.4987 300.5657 -9385.2797 -7601.4987 300.5657 -559.3946 -462.3138 31220.1090 -559.3946 -462.3138
ENERGY: 300000 0.9143 8.1987 1.6049 0.0000 -10894.2572 1447.5772 0.0000 0.0000 1780.1751 -7655.7869 299.9581 -9435.9620 -7591.0153 298.6927 -327.7014 -233.3652 30674.9814 -107.6571 -35.0828
ENERGY: 600000 1.6940 5.2556 1.0645 0.0000 -10811.7389 1480.3173 0.0000 0.0000 1753.7545 -7569.6531 295.5062 -9323.4076 -7574.1312 300.0285 459.1014 525.0704 30409.3551 -22.5043 48.2036
ENERGY: 900000 0.3374 4.9923 2.5464 0.0000 -10891.9404 1517.0497 0.0000 0.0000 1768.8723 -7598.1423 298.0536 -9367.0147 -7576.8456 298.7024 413.6984 533.3232 30439.7777 65.3609 141.2952
ENERGY: 1200000 0.0919 4.7641 2.2507 0.0000 -10847.4358 1463.3493 0.0000 0.0000 1799.1985 -7577.7812 303.1635 -9376.9797 -7579.5433 298.7152 -121.5049 -115.1601 30984.9311 94.5638 153.2191
ENERGY: 1500000 3.3236 4.0759 4.2093 0.0000 -10897.2393 1482.9836 0.0000 0.0000 1750.4574 -7652.1896 294.9507 -9402.6470 -7584.4142 298.2543 0.0848 15.4273 30869.8842 50.2319 105.4061
TCL: Exiting due to exit command.
