Info: SIMULATION PARAMETERS:
Info: TIMESTEP               2
Info: NUMBER OF STEPS        0
Info: STEPS PER CYCLE        10
Info: PERIODIC CELL BASIS 1  31.688 0 0
Info: PERIODIC CELL BASIS 2  0 29.5203 0
Info: PERIODIC CELL BASIS 3  0 0 31.8588
Info: PERIODIC CELL CENTER   0 0 0
Info: WRAPPING WATERS AROUND PERIODIC BOUNDARIES ON OUTPUT.
Info: WRAPPING ALL CLUSTERS AROUND PERIODIC BOUNDARIES ON OUTPUT.
Info: FIRST LDB TIMESTEP     50
Info: LAST LDB TIMESTEP     -1
Info: HOM BACKGROUND SCALING 1
Info: PME BACKGROUND SCALING 1
Info: MIN ATOMS PER PATCH    40
Info: EMPTY PATCH LOAD       40 ATOMS
Info: VELOCITY FILE          mobley_7573149_equil.vel
Info: CENTER OF MASS MOVING INITIALLY? NO
Info: DIELECTRIC             1
Info: EXCLUDE                SCALED ONE-FOUR
Info: 1-4 ELECTROSTATICS SCALED BY 0.833333
Info: MODIFIED 1-4 VDW PARAMETERS WILL BE USED
Info: DCD FILENAME           mobley_7573149_prod.dcd
Info: DCD FREQUENCY          100000
Info: DCD FIRST STEP         100000
Info: DCD FILE WILL CONTAIN UNIT CELL DATA
Info: XST FILENAME           mobley_7573149_prod.xst
Info: XST FREQUENCY          100000
Info: NO VELOCITY DCD OUTPUT
Info: NO FORCE DCD OUTPUT
Info: OUTPUT FILENAME        mobley_7573149_prod
Info: BINARY OUTPUT FILES WILL BE USED
Info: RESTART FILENAME       mobley_7573149_prod.restart
Info: RESTART FREQUENCY      100000
Info: BINARY RESTART FILES WILL BE USED
Info: CUTOFF                 9
Info: PAIRLIST DISTANCE      11
Info: PAIRLIST SHRINK RATE   0.01
Info: PAIRLIST GROW RATE     0.01
Info: PAIRLIST TRIGGER       0.3
Info: PAIRLISTS PER CYCLE    2
Info: PAIRLISTS ENABLED
Info: MARGIN                 2
Info: HYDROGEN GROUP CUTOFF  2.5
Info: PATCH DIMENSION        15.5
Info: ENERGY OUTPUT STEPS    100000
Info: ENERGY EVALUATION STEPS    100000
Info: OUTPUT ENERGY PRECISION 4
Info: CROSSTERM ENERGY INCLUDED IN DIHEDRAL
Info: TIMING OUTPUT STEPS    1000000
Info: PRESSURE OUTPUT STEPS  100000
Info: ALCHEMICAL FEP ON
Info: FEP CURRENT LAMBDA VALUE     1
Info: FEP COMPARISON LAMBDA VALUE  0.95
Info: FEP INTRA-ALCHEMICAL NON-BONDED INTERACTIONS WILL BE RETAINED
Info: FEP INTRA-ALCHEMICAL BONDED INTERACTIONS WILL BE RETAINED
Info: FEP VDW SHIFTING COEFFICIENT 5
Info: FEP ELEC. ACTIVE FOR ANNIHILATED PARTICLES BETWEEN LAMBDA = 0 AND LAMBDA = 0.5
Info: FEP ELEC. ACTIVE FOR EXNIHILATED PARTICLES BETWEEN LAMBDA = 0.5 AND LAMBDA = 1
Info: FEP VDW ACTIVE FOR ANNIHILATED PARTICLES BETWEEN LAMBDA = 0 AND LAMBDA = 1
Info: FEP VDW ACTIVE FOR EXNIHILATED PARTICLES BETWEEN LAMBDA = 0 AND LAMBDA = 1
Info: FEP BOND ACTIVE FOR ANNIHILATED PARTICLES BETWEEN LAMBDA = 1 AND LAMBDA = 1
Info: FEP BOND ACTIVE FOR EXNIHILATED PARTICLES BETWEEN LAMBDA = 0 AND LAMBDA = 0
Info: LANGEVIN DYNAMICS ACTIVE
Info: LANGEVIN TEMPERATURE   300
Info: LANGEVIN USING BBK INTEGRATOR
Info: LANGEVIN DAMPING COEFFICIENT IS 1 INVERSE PS
Info: LANGEVIN DYNAMICS APPLIED TO HYDROGENS
Info: LANGEVIN PISTON PRESSURE CONTROL ACTIVE
Info:        TARGET PRESSURE IS 1.01325 BAR
Info:     OSCILLATION PERIOD IS 50 FS
Info:             DECAY TIME IS 25 FS
Info:     PISTON TEMPERATURE IS 300 K
Info:       PRESSURE CONTROL IS GROUP-BASED
Info:    INITIAL STRAIN RATE IS 0.000541906 0.000541906 0.000541906
Info:       CELL FLUCTUATION IS ISOTROPIC
Info: PARTICLE MESH EWALD (PME) ACTIVE
Info: PME TOLERANCE               1e-06
Info: PME EWALD COEFFICIENT       0.348832
Info: PME INTERPOLATION ORDER     4
Info: PME GRID DIMENSIONS         32 32 32
Info: PME MAXIMUM GRID SPACING    1
Info: PME CALCULATION WILL BE PERFORMED ON GPU
Info: FULL ELECTROSTATIC EVALUATION FREQUENCY      2
Info: USING VERLET I (r-RESPA) MTS SCHEME.
Info: C1 SPLITTING OF LONG RANGE ELECTROSTATICS
Info: PLACING ATOMS IN PATCHES BY HYDROGEN GROUPS
Info: RIGID BONDS TO HYDROGEN : ALL
Info:         ERROR TOLERANCE : 1e-08
Info:          MAX ITERATIONS : 100
Info: RIGID WATER USING SETTLE ALGORITHM
Info: RANDOM NUMBER SEED     1743849267
Info: USE HYDROGEN BONDS?    NO
Info: Using AMBER format force field!
Info: AMBER PARM FILE        mobley_7573149.prmtop
Info: COORDINATE PDB         mobley_7573149.pdb
Info: Exclusions will be read from PARM file!
Info: SCNB (VDW SCALING)     2
Info: USING ARITHMETIC MEAN TO COMBINE L-J SIGMA PARAMETERS
Info: BINARY COORDINATES     mobley_7573149_equil.coor
Info: SUMMARY OF PARAMETERS:
Info: 9 BONDS
Info: 12 ANGLES
Info:   12 HARMONIC
Info:   0 COSINE-BASED
Info: 17 DIHEDRAL
Info: 0 IMPROPER
Info: 0 CROSSTERM
Info: 0 VDW
Info: 36 VDW_PAIRS
Info: 0 NBTHOLE_PAIRS
Info: To read alchdata from file: mobley_7573149.pdb
Info: To read alchflag data from column: 5
Info: STRUCTURE SUMMARY:
Info: 2915 ATOMS
Info: 2914 BONDS
Info: 28 ANGLES
Info: 42 DIHEDRALS
Info: 0 IMPROPERS
Info: 0 CROSSTERMS
Info: 2971 EXCLUSIONS
Info: 2908 RIGID BONDS
Info: ALCH: 0 ATOMS TO DISAPPEAR IN FINAL STATE
Info: ALCH: 17 ATOMS TO APPEAR IN FINAL STATE
Info: 5837 DEGREES OF FREEDOM
Info: 973 HYDROGEN GROUPS
Info: 4 ATOMS IN LARGEST HYDROGEN GROUP
Info: 973 MIGRATION GROUPS
Info: 4 ATOMS IN LARGEST MIGRATION GROUP
Info: TOTAL MASS = 17505.6 amu
Info: TOTAL CHARGE = -9.99682e-05 e
Info: MASS DENSITY = 0.975418 g/cm^3
Info: ATOM DENSITY = 0.0978123 atoms/A^3
Info: ADDED 0 IMPLICIT EXCLUSIONS
Info: NONBONDED TABLE R-SQUARED SPACING: 0.0625
Info: NONBONDED TABLE SIZE: 705 POINTS
Info: REMOVING COM VELOCITY 0.0303913 0.0784145 -0.0800762
Info: Use 3D box decompostion in PME FFT.
Info: Updated CUDA force table with 4096 elements.
Info: Updated CUDA LJ table with 8 x 8 elements.
Info: Found 20 unique exclusion lists needing 48 bytes
TCL: Running for 1500000 steps
ETITLE: TS BOND ANGLE DIHED IMPRP ELECT VDW BOUNDARY MISC KINETIC TOTAL TEMP POTENTIAL TOTALAVG TEMPAVG PRESSURE GPRESSURE VOLUME PRESSAVG GPRESSAVG
ENERGY: 0 2.0457 7.1834 6.0169 0.0000 -10658.2979 1438.3669 0.0000 0.0000 1774.2135 -7430.4714 305.9191 -9204.6849 -7430.4714 305.9191 10.4007 110.9739 29801.9931 10.4007 110.9739
ENERGY: 300000 1.8910 4.3163 5.7384 0.0000 -10504.6333 1346.9217 0.0000 0.0000 1709.5623 -7436.2036 294.7716 -9145.7658 -7408.5432 304.7118 -487.9314 -347.6133 29768.1978 -44.9612 48.4925
ENERGY: 600000 2.4878 7.3817 6.2785 0.0000 -10657.1668 1394.6047 0.0000 0.0000 1752.9175 -7493.4967 302.2471 -9246.4142 -7430.1344 303.8497 -672.2022 -541.9871 30340.4574 -95.7056 4.1925
ENERGY: 900000 1.2406 7.2687 6.2530 0.0000 -10512.0670 1342.6904 0.0000 0.0000 1723.1745 -7431.4398 297.1187 -9154.6143 -7418.8261 301.6438 -771.6372 -680.9927 30321.4437 -305.5091 -209.5975
ENERGY: 1200000 1.2130 9.6622 6.6527 0.0000 -10471.6216 1334.6662 0.0000 0.0000 1715.8455 -7403.5820 295.8550 -9119.4275 -7409.0663 301.2975 -745.9322 -654.2118 30496.7154 -326.9194 -238.2808
ENERGY: 1500000 1.1546 7.3246 6.9130 0.0000 -10535.6416 1362.4100 0.0000 0.0000 1684.4270 -7473.4124 290.4376 -9157.8394 -7420.3676 300.7680 -602.1868 -575.1128 30289.2691 -301.1798 -215.7725
TCL: Running FEP window   2: Lambda1 0.95   Lambda2 0.8999999999999999 [dLambda -0.050000000000000044]
TCL: Setting parameter firsttimestep to 0
TCL: Setting parameter alchLambda to 0.95
Info: NONBONDED TABLE R-SQUARED SPACING: 0.0625
Info: NONBONDED TABLE SIZE: 705 POINTS
TCL: Setting parameter alchLambda2 to 0.8999999999999999
Info: NONBONDED TABLE R-SQUARED SPACING: 0.0625
Info: NONBONDED TABLE SIZE: 705 POINTS
TCL: Running for 1500000 steps
ETITLE: TS BOND ANGLE DIHED IMPRP ELECT VDW BOUNDARY MISC KINETIC TOTAL TEMP POTENTIAL TOTALAVG TEMPAVG PRESSURE GPRESSURE VOLUME PRESSAVG GPRESSAVG
ENERGY: 0 1.1546 7.3246 6.9130 0.0000 -10533.9168 1362.5655 0.0000 0.0000 1683.5811 -7472.3780 290.2918 -9155.9591 -7472.3780 290.2918 -657.9733 -581.7815 30289.2691 -657.9733 -581.7815
ENERGY: 300000 3.7888 6.3225 4.9297 0.0000 -10442.7263 1358.3099 0.0000 0.0000 1786.9456 -7282.4299 308.1144 -9069.3755 -7394.0891 299.2614 -410.0803 -329.0115 30119.3660 -217.4115 -125.1397
ENERGY: 600000 3.5381 7.5342 6.6823 0.0000 -10620.1503 1398.4054 0.0000 0.0000 1684.9570 -7519.0332 290.5290 -9203.9903 -7423.0146 296.9789 -620.7251 -584.6753 30467.5201 -274.7869 -203.2786
ENERGY: 900000 4.8580 7.1791 6.7474 0.0000 -10533.3972 1440.6940 0.0000 0.0000 1748.1003 -7325.8183 301.4165 -9073.9186 -7419.1977 298.0108 230.8644 325.6457 30034.4282 -271.4755 -195.6803
ENERGY: 1200000 2.8241 12.3905 8.3628 0.0000 -10532.9706 1445.2258 0.0000 0.0000 1726.8151 -7337.3524 297.7464 -9064.1675 -7403.2158 298.2012 133.9512 180.5150 30527.1507 -190.0895 -123.6629
ENERGY: 1500000 1.2009 11.5998 5.6558 0.0000 -10502.8443 1362.2674 0.0000 0.0000 1718.2710 -7403.8495 296.2732 -9122.1205 -7398.4516 298.4394 -529.0441 -486.2718 30370.3563 -117.0951 -52.9804
TCL: Running FEP window   3: Lambda1 0.8999999999999999 Lambda2 0.8499999999999999 [dLambda -0.050000000000000044]
TCL: Setting parameter firsttimestep to 0
TCL: Setting parameter alchLambda to 0.8999999999999999
Info: NONBONDED TABLE R-SQUARED SPACING: 0.0625
Info: NONBONDED TABLE SIZE: 705 POINTS
TCL: Setting parameter alchLambda2 to 0.8499999999999999
Info: NONBONDED TABLE R-SQUARED SPACING: 0.0625
Info: NONBONDED TABLE SIZE: 705 POINTS
TCL: Running for 1500000 steps
ETITLE: TS BOND ANGLE DIHED IMPRP ELECT VDW BOUNDARY MISC KINETIC TOTAL TEMP POTENTIAL TOTALAVG TEMPAVG PRESSURE GPRESSURE VOLUME PRESSAVG GPRESSAVG
ENERGY: 0 1.2009 11.5998 5.6558 0.0000 -10502.3001 1362.7747 0.0000 0.0000 1717.4128 -7403.6562 296.1252 -9121.0689 -7403.6562 296.1252 -571.8850 -492.2691 30370.3563 -571.8850 -492.2691
ENERGY: 300000 5.0298 8.8870 7.8946 0.0000 -10525.6591 1408.2015 0.0000 0.0000 1778.3556 -7317.2906 306.6333 -9095.6462 -7361.6028 303.4530 -21.9016 48.7642 30127.8973 -405.2747 -350.7271
ENERGY: 600000 0.6325 4.7694 7.0491 0.0000 -10646.9559 1440.8451 0.0000 0.0000 1764.6927 -7428.9670 304.2775 -9193.6597 -7397.8939 299.8651 213.3274 322.5656 29627.6893 -310.4506 -239.9934
ENERGY: 900000 3.9064 5.9206 5.7228 0.0000 -10670.1297 1513.7347 0.0000 0.0000 1770.8299 -7370.0153 305.3357 -9140.8451 -7413.5880 300.4320 1256.3719 1316.2845 29553.3391 -43.2210 22.8046
ENERGY: 1200000 3.2304 4.3721 6.9483 0.0000 -10647.6834 1531.9511 0.0000 0.0000 1743.3629 -7357.8186 300.5997 -9101.1815 -7419.0022 299.7240 752.1819 771.7497 30186.7310 26.5079 94.5640
ENERGY: 1500000 4.9439 6.5645 3.6694 0.0000 -10641.5304 1402.8655 0.0000 0.0000 1780.4172 -7443.0700 306.9888 -9223.4872 -7416.1017 300.5038 -507.7723 -410.4875 30187.6264 8.3102 85.6613
TCL: Running FEP window   4: Lambda1 0.8499999999999999 Lambda2 0.7999999999999998 [dLambda -0.050000000000000044]
TCL: Setting parameter firsttimestep to 0
TCL: Setting parameter alchLambda to 0.8499999999999999
Info: NONBONDED TABLE R-SQUARED SPACING: 0.0625
Info: NONBONDED TABLE SIZE: 705 POINTS
TCL: Setting parameter alchLambda2 to 0.7999999999999998
Info: NONBONDED TABLE R-SQUARED SPACING: 0.0625
Info: NONBONDED TABLE SIZE: 705 POINTS
TCL: Running for 1500000 steps
ETITLE: TS BOND ANGLE DIHED IMPRP ELECT VDW BOUNDARY MISC KINETIC TOTAL TEMP POTENTIAL TOTALAVG TEMPAVG PRESSURE GPRESSURE VOLUME PRESSAVG GPRESSAVG
ENERGY: 0 4.9439 6.5645 3.6694 0.0000 -10640.2399 1403.2115 0.0000 0.0000 1779.5679 -7442.2827 306.8423 -9221.8507 -7442.2827 306.8423 -497.7294 -409.4252 30187.6264 -497.7294 -409.4252
ENERGY: 300000 3.0897 8.9550 5.8236 0.0000 -10711.6282 1480.0713 0.0000 0.0000 1714.5227 -7499.1659 295.6269 -9213.6887 -7425.1476 302.5695 501.5407 505.6823 29577.2140 104.4759 165.7891
ENERGY: 600000 0.6904 9.2686 5.9758 0.0000 -10641.1256 1406.0509 0.0000 0.0000 1733.5148 -7485.6252 298.9016 -9219.1400 -7438.4529 302.1746 -269.5656 -266.6611 29913.9512 233.1830 301.3072
ENERGY: 900000 1.8366 7.9342 6.7263 0.0000 -10575.2667 1398.8743 0.0000 0.0000 1743.1185 -7416.7766 300.5575 -9159.8952 -7434.1850 301.2145 -86.3657 -17.8757 29940.0095 96.2764 166.6625
ENERGY: 1200000 1.4775 6.3786 5.5457 0.0000 -10576.8508 1414.5710 0.0000 0.0000 1733.4432 -7415.4348 298.8893 -9148.8780 -7429.6369 300.7418 52.0558 72.9394 29920.2888 36.0768 98.6105
ENERGY: 1500000 1.5195 7.7470 6.4860 0.0000 -10427.9241 1344.3144 0.0000 0.0000 1764.7716 -7303.0855 304.2911 -9067.8572 -7423.0735 300.9303 -596.9745 -507.8156 30658.0813 43.3930 103.0518
TCL: Running FEP window   5: Lambda1 0.7999999999999998 Lambda2 0.7499999999999998 [dLambda -0.050000000000000044]
TCL: Setting parameter firsttimestep to 0
TCL: Setting parameter alchLambda to 0.7999999999999998
Info: NONBONDED TABLE R-SQUARED SPACING: 0.0625
Info: NONBONDED TABLE SIZE: 705 POINTS
TCL: Setting parameter alchLambda2 to 0.7499999999999998
Info: NONBONDED TABLE R-SQUARED SPACING: 0.0625
Info: NONBONDED TABLE SIZE: 705 POINTS
TCL: Running for 1500000 steps
ETITLE: TS BOND ANGLE DIHED IMPRP ELECT VDW BOUNDARY MISC KINETIC TOTAL TEMP POTENTIAL TOTALAVG TEMPAVG PRESSURE GPRESSURE VOLUME PRESSAVG GPRESSAVG
ENERGY: 0 1.5195 7.7470 6.4860 0.0000 -10427.6412 1344.6023 0.0000 0.0000 1763.9094 -7303.3770 304.1424 -9067.2864 -7303.3770 304.1424 -605.2797 -518.0217 30658.0813 -605.2797 -518.0217
ENERGY: 300000 1.0246 7.9539 5.0981 0.0000 -10653.5712 1449.1417 0.0000 0.0000 1715.9954 -7474.3574 295.8808 -9190.3529 -7394.5779 299.9459 71.7588 143.7163 30137.0711 -68.1282 2.6260
ENERGY: 600000 2.5372 4.4683 6.1990 0.0000 -10558.1660 1389.8838 0.0000 0.0000 1751.5471 -7403.5306 302.0108 -9155.0777 -7383.8432 301.1356 -445.4358 -347.1957 30168.8621 -276.8607 -208.3908
ENERGY: 900000 2.9637 4.6080 6.4632 0.0000 -10466.5852 1357.1603 0.0000 0.0000 1732.2370 -7363.1529 298.6813 -9095.3899 -7397.0451 300.7219 -239.1669 -135.4730 29713.3993 -255.5237 -198.8028
ENERGY: 1200000 1.2399 8.6164 5.3777 0.0000 -10520.8337 1375.9688 0.0000 0.0000 1756.4665 -7373.1643 302.8591 -9129.6308 -7381.7196 301.6497 -7.7115 16.9570 29666.7831 -96.5113 -39.7744
ENERGY: 1500000 2.0832 7.5228 5.5356 0.0000 -10594.2923 1444.4743 0.0000 0.0000 1798.5032 -7336.1732 310.1072 -9134.6764 -7381.8259 302.0944 105.1703 216.1436 30245.4809 -83.4381 -22.2645
TCL: Running FEP window   6: Lambda1 0.7499999999999998 Lambda2 0.6999999999999997 [dLambda -0.050000000000000044]
TCL: Setting parameter firsttimestep to 0
TCL: Setting parameter alchLambda to 0.7499999999999998
Info: NONBONDED TABLE R-SQUARED SPACING: 0.0625
Info: NONBONDED TABLE SIZE: 705 POINTS
TCL: Setting parameter alchLambda2 to 0.6999999999999997
Info: NONBONDED TABLE R-SQUARED SPACING: 0.0625
Info: NONBONDED TABLE SIZE: 705 POINTS
TCL: Running for 1500000 steps
ETITLE: TS BOND ANGLE DIHED IMPRP ELECT VDW BOUNDARY MISC KINETIC TOTAL TEMP POTENTIAL TOTALAVG TEMPAVG PRESSURE GPRESSURE VOLUME PRESSAVG GPRESSAVG
ENERGY: 0 2.0832 7.5228 5.5356 0.0000 -10593.6927 1444.8312 0.0000 0.0000 1797.6527 -7336.0672 309.9606 -9133.7200 -7336.0672 309.9606 126.1410 210.1022 30245.4809 126.1410 210.1022
ENERGY: 300000 3.8545 9.3853 5.6753 0.0000 -10634.1156 1488.9715 0.0000 0.0000 1741.5893 -7384.6395 300.2939 -9126.2289 -7423.7837 299.5942 808.8174 842.1459 29993.6055 113.8462 181.8112
ENERGY: 600000 1.2812 6.3562 4.6341 0.0000 -10627.9343 1431.7481 0.0000 0.0000 1764.5277 -7419.3871 304.2490 -9183.9148 -7417.2872 299.2273 -61.8674 30.6751 30055.0061 -44.2204 33.3205
ENERGY: 900000 3.1423 4.3450 7.4162 0.0000 -10632.1952 1473.1788 0.0000 0.0000 1685.4033 -7458.7096 290.6060 -9144.1129 -7425.8461 298.4633 357.2109 414.6023 30040.7405 16.8808 86.9990
ENERGY: 1200000 3.2565 9.8083 7.5409 0.0000 -10658.1053 1421.0025 0.0000 0.0000 1741.5468 -7474.9503 300.2865 -9216.4972 -7423.4420 299.5716 -274.2106 -191.3002 29789.5065 15.9642 87.7427
ENERGY: 1500000 3.2385 5.8749 5.4691 0.0000 -10463.5300 1367.2281 0.0000 0.0000 1668.2826 -7413.4367 287.6539 -9081.7193 -7422.1540 298.7892 -176.8397 -140.4056 29929.7994 -0.3773 71.1194
TCL: Running FEP window   7: Lambda1 0.6999999999999997 Lambda2 0.6499999999999997 [dLambda -0.050000000000000044]
TCL: Setting parameter firsttimestep to 0
TCL: Setting parameter alchLambda to 0.6999999999999997
Info: NONBONDED TABLE R-SQUARED SPACING: 0.0625
Info: NONBONDED TABLE SIZE: 705 POINTS
TCL: Setting parameter alchLambda2 to 0.6499999999999997
Info: NONBONDED TABLE R-SQUARED SPACING: 0.0625
Info: NONBONDED TABLE SIZE: 705 POINTS
TCL: Running for 1500000 steps
ETITLE: TS BOND ANGLE DIHED IMPRP ELECT VDW BOUNDARY MISC KINETIC TOTAL TEMP POTENTIAL TOTALAVG TEMPAVG PRESSURE GPRESSURE VOLUME PRESSAVG GPRESSAVG
ENERGY: 0 3.2385 5.8749 5.4691 0.0000 -10462.6666 1367.6314 0.0000 0.0000 1667.4087 -7413.0439 287.5032 -9080.4526 -7413.0439 287.5032 -214.4629 -144.3987 29929.7994 -214.4629 -144.3987
ENERGY: 300000 1.2112 6.0559 5.6383 0.0000 -10635.3172 1424.9010 0.0000 0.0000 1735.8651 -7461.6456 299.3069 -9197.5107 -7424.9891 294.8019 -115.0290 -54.7418 29906.6629 -127.8785 -62.3847
ENERGY: 600000 0.4472 9.7443 4.0382 0.0000 -10652.8845 1491.3985 0.0000 0.0000 1726.5579 -7420.6984 297.7021 -9147.2563 -7439.7602 294.3787 557.4313 686.7599 29771.9850 -75.1755 -15.3976
ENERGY: 900000 2.3863 11.9171 6.0987 0.0000 -10447.6149 1335.9386 0.0000 0.0000 1794.0054 -7297.2688 309.3317 -9091.2742 -7426.3918 296.1226 -583.0865 -506.2869 30352.7440 25.6229 80.4734
ENERGY: 1200000 1.6530 5.9421 5.6169 0.0000 -10542.7051 1417.2898 0.0000 0.0000 1784.4839 -7327.7193 307.6900 -9112.2032 -7415.1942 297.7900 -67.2652 -19.3371 30270.9689 101.8242 152.0819
ENERGY: 1500000 3.3982 7.1389 6.8566 0.0000 -10480.9121 1388.1162 0.0000 0.0000 1722.4788 -7352.9235 296.9987 -9075.4023 -7396.7076 298.5707 -208.5131 -139.1918 29931.9881 45.5393 93.3381
TCL: Running FEP window   8: Lambda1 0.6499999999999997 Lambda2 0.5999999999999996 [dLambda -0.050000000000000044]
TCL: Setting parameter firsttimestep to 0
TCL: Setting parameter alchLambda to 0.6499999999999997
Info: NONBONDED TABLE R-SQUARED SPACING: 0.0625
Info: NONBONDED TABLE SIZE: 705 POINTS
TCL: Setting parameter alchLambda2 to 0.5999999999999996
Info: NONBONDED TABLE R-SQUARED SPACING: 0.0625
Info: NONBONDED TABLE SIZE: 705 POINTS
TCL: Running for 1500000 steps
ETITLE: TS BOND ANGLE DIHED IMPRP ELECT VDW BOUNDARY MISC KINETIC TOTAL TEMP POTENTIAL TOTALAVG TEMPAVG PRESSURE GPRESSURE VOLUME PRESSAVG GPRESSAVG
ENERGY: 0 3.3982 7.1389 6.8566 0.0000 -10479.6967 1387.9628 0.0000 0.0000 1721.6222 -7352.7181 296.8510 -9074.3402 -7352.7181 296.8510 -233.5749 -146.7066 29931.9881 -233.5749 -146.7066
ENERGY: 300000 4.3702 7.4953 5.4629 0.0000 -10554.2969 1456.9081 0.0000 0.0000 1729.9816 -7350.0788 298.2924 -9080.0604 -7381.2529 298.2305 236.0357 263.0753 30391.2865 408.7613 445.2032
ENERGY: 600000 1.9841 7.2690 4.6128 0.0000 -10278.8591 1322.6668 0.0000 0.0000 1761.8392 -7180.4873 303.7854 -8942.3264 -7384.1592 299.3917 -704.2779 -644.1316 30930.6431 243.4547 277.2097
ENERGY: 900000 2.3472 12.8412 7.6784 0.0000 -10593.2753 1421.1857 0.0000 0.0000 1734.5488 -7414.6740 299.0799 -9149.2228 -7388.3619 298.9125 495.2217 454.7574 29194.6530 129.2096 166.7922
ENERGY: 1200000 0.4522 5.1090 4.1917 0.0000 -10615.8980 1483.8162 0.0000 0.0000 1777.1827 -7345.1462 306.4311 -9122.3289 -7387.6882 300.6256 809.7236 809.1563 29653.3030 110.4879 149.0694
ENERGY: 1500000 0.9941 8.1007 6.1221 0.0000 -10535.2260 1335.8830 0.0000 0.0000 1725.2545 -7458.8716 297.4773 -9184.1261 -7400.2001 300.3487 -703.1195 -590.8679 29823.4261 38.9311 77.8803
TCL: Running FEP window   9: Lambda1 0.5999999999999996 Lambda2 0.5499999999999996 [dLambda -0.050000000000000044]
TCL: Setting parameter firsttimestep to 0
TCL: Setting parameter alchLambda to 0.5999999999999996
Info: NONBONDED TABLE R-SQUARED SPACING: 0.0625
Info: NONBONDED TABLE SIZE: 705 POINTS
TCL: Setting parameter alchLambda2 to 0.5499999999999996
Info: NONBONDED TABLE R-SQUARED SPACING: 0.0625
Info: NONBONDED TABLE SIZE: 705 POINTS
TCL: Running for 1500000 steps
ETITLE: TS BOND ANGLE DIHED IMPRP ELECT VDW BOUNDARY MISC KINETIC TOTAL TEMP POTENTIAL TOTALAVG TEMPAVG PRESSURE GPRESSURE VOLUME PRESSAVG GPRESSAVG
ENERGY: 0 0.9941 8.1007 6.1221 0.0000 -10535.0294 1336.0423 0.0000 0.0000 1724.3560 -7459.4142 297.3224 -9183.7703 -7459.4142 297.3224 -693.0007 -599.0867 29823.4261 -693.0007 -599.0867
ENERGY: 300000 2.3742 6.8370 7.0132 0.0000 -10445.8824 1335.7069 0.0000 0.0000 1752.2987 -7341.6525 302.1404 -9093.9511 -7440.9304 299.1521 -517.7015 -425.3914 30030.9190 12.1665 86.2441
ENERGY: 600000 2.0464 8.1227 6.9104 0.0000 -10652.2319 1423.0410 0.0000 0.0000 1709.7053 -7502.4060 294.7962 -9212.1113 -7437.8855 299.0011 -65.3757 26.0842 29593.6842 -101.3097 -38.2740
ENERGY: 900000 2.3980 3.3023 4.8706 0.0000 -10517.4103 1351.1746 0.0000 0.0000 1725.5355 -7430.1293 297.5258 -9155.6648 -7434.4366 298.1510 -796.3193 -722.7902 29989.2200 -231.9646 -172.5443
ENERGY: 1200000 2.6561 6.0533 5.4692 0.0000 -10509.8568 1374.2554 0.0000 0.0000 1764.2502 -7357.1726 304.2012 -9121.4229 -7426.5087 299.0275 -447.8908 -383.7631 29790.0122 -174.0323 -113.5064
ENERGY: 1500000 0.4563 7.1976 7.7526 0.0000 -10568.1747 1417.6155 0.0000 0.0000 1752.8253 -7382.3274 302.2312 -9135.1527 -7430.3880 298.8652 -98.2681 -67.8044 30434.6022 -160.3462 -100.2647
TCL: Running FEP window  10: Lambda1 0.5499999999999996 Lambda2 0.4999999999999996 [dLambda -0.04999999999999999]
TCL: Setting parameter firsttimestep to 0
TCL: Setting parameter alchLambda to 0.5499999999999996
Info: NONBONDED TABLE R-SQUARED SPACING: 0.0625
Info: NONBONDED TABLE SIZE: 705 POINTS
TCL: Setting parameter alchLambda2 to 0.4999999999999996
Info: NONBONDED TABLE R-SQUARED SPACING: 0.0625
Info: NONBONDED TABLE SIZE: 705 POINTS
TCL: Running for 1500000 steps
ETITLE: TS BOND ANGLE DIHED IMPRP ELECT VDW BOUNDARY MISC KINETIC TOTAL TEMP POTENTIAL TOTALAVG TEMPAVG PRESSURE GPRESSURE VOLUME PRESSAVG GPRESSAVG
ENERGY: 0 0.4563 7.1976 7.7526 0.0000 -10567.9901 1418.0297 0.0000 0.0000 1751.9383 -7382.6156 302.0783 -9134.5539 -7382.6156 302.0783 -158.3149 -75.3490 30434.6022 -158.3149 -75.3490
ENERGY: 300000 0.7955 4.5177 5.1175 0.0000 -10651.7510 1478.2294 0.0000 0.0000 1747.9088 -7415.1821 301.3835 -9163.0909 -7407.4658 300.6012 521.4612 592.1916 29608.4719 120.6233 198.9238
ENERGY: 600000 0.8970 11.0124 4.4432 0.0000 -10564.9243 1426.9340 0.0000 0.0000 1732.5217 -7389.1160 298.7304 -9121.6377 -7409.1203 301.5196 80.8374 200.2795 29942.8657 189.6680 281.9135
ENERGY: 900000 3.7917 9.4068 6.6072 0.0000 -10593.4163 1419.6217 0.0000 0.0000 1828.5891 -7325.3999 315.2948 -9153.9889 -7393.4556 302.5529 -59.7801 -3.1321 29804.9049 124.4895 203.3102
ENERGY: 1200000 3.1763 11.3094 5.4386 0.0000 -10687.4704 1465.8259 0.0000 0.0000 1692.7478 -7508.9724 291.8723 -9201.7202 -7407.2532 301.5176 336.6347 416.8165 29426.2346 79.0812 153.5887
ENERGY: 1500000 1.2471 4.6168 5.9611 0.0000 -10620.5283 1442.0037 0.0000 0.0000 1739.9962 -7426.7033 300.0192 -9166.6995 -7405.5101 301.0302 -6.3926 78.7435 30091.4295 29.5915 98.9490
TCL: Running FEP window  11: Lambda1 0.4999999999999996 Lambda2 0.4499999999999996 [dLambda -0.04999999999999999]
TCL: Setting parameter firsttimestep to 0
TCL: Setting parameter alchLambda to 0.4999999999999996
Info: NONBONDED TABLE R-SQUARED SPACING: 0.0625
Info: NONBONDED TABLE SIZE: 705 POINTS
TCL: Setting parameter alchLambda2 to 0.4499999999999996
Info: NONBONDED TABLE R-SQUARED SPACING: 0.0625
Info: NONBONDED TABLE SIZE: 705 POINTS
TCL: Running for 1500000 steps
ETITLE: TS BOND ANGLE DIHED IMPRP ELECT VDW BOUNDARY MISC KINETIC TOTAL TEMP POTENTIAL TOTALAVG TEMPAVG PRESSURE GPRESSURE VOLUME PRESSAVG GPRESSAVG
ENERGY: 0 1.2472 4.6168 5.9611 0.0000 -10620.4834 1441.0006 0.0000 0.0000 1739.1788 -7428.4789 299.8782 -9167.6577 -7428.4789 299.8782 -37.2021 59.0860 30091.4295 -37.2021 59.0860
ENERGY: 300000 0.8833 6.6758 4.1087 0.0000 -10549.2582 1393.5026 0.0000 0.0000 1724.4589 -7419.6290 297.3401 -9144.0878 -7365.0344 305.6499 -285.5629 -261.5869 30108.2996 50.4074 108.9768
ENERGY: 600000 1.3297 7.1678 4.7115 0.0000 -10516.6017 1363.5626 0.0000 0.0000 1750.4472 -7389.3829 301.8212 -9139.8300 -7349.9976 306.2771 -539.9400 -484.0813 30043.5281 -44.1882 27.2903
ENERGY: 900000 1.4255 5.7400 7.6203 0.0000 -10773.9208 1501.6252 0.0000 0.0000 1779.8438 -7477.6659 306.8899 -9257.5097 -7364.4577 305.4831 395.1781 482.1696 29737.7629 -59.0644 8.5377
ENERGY: 1200000 2.0419 4.2643 5.4603 0.0000 -10562.1724 1434.1674 0.0000 0.0000 1718.4211 -7397.8173 296.2991 -9116.2385 -7365.4108 304.9778 86.1898 166.2757 30129.3536 -59.8871 4.6242
ENERGY: 1500000 2.4923 6.2982 6.3193 0.0000 -10589.6317 1409.3888 0.0000 0.0000 1761.6085 -7403.5247 303.7457 -9165.1331 -7377.6443 303.9689 -84.9257 -115.9236 29634.4945 3.0284 57.1293
TCL: Running FEP window  12: Lambda1 0.4499999999999996 Lambda2 0.39999999999999963 [dLambda -0.04999999999999999]
TCL: Setting parameter firsttimestep to 0
TCL: Setting parameter alchLambda to 0.4499999999999996
Info: NONBONDED TABLE R-SQUARED SPACING: 0.0625
Info: NONBONDED TABLE SIZE: 705 POINTS
TCL: Setting parameter alchLambda2 to 0.39999999999999963
Info: NONBONDED TABLE R-SQUARED SPACING: 0.0625
Info: NONBONDED TABLE SIZE: 705 POINTS
TCL: Running for 1500000 steps
ETITLE: TS BOND ANGLE DIHED IMPRP ELECT VDW BOUNDARY MISC KINETIC TOTAL TEMP POTENTIAL TOTALAVG TEMPAVG PRESSURE GPRESSURE VOLUME PRESSAVG GPRESSAVG
ENERGY: 0 2.4923 6.2982 6.3193 0.0000 -10589.6316 1409.5730 0.0000 0.0000 1760.7520 -7404.1969 303.5980 -9164.9489 -7404.1969 303.5980 -209.3807 -121.4067 29634.4945 -209.3807 -121.4067
ENERGY: 300000 2.7711 6.0605 5.8603 0.0000 -10434.3433 1341.4752 0.0000 0.0000 1753.4214 -7324.7548 302.3340 -9078.1762 -7372.1536 302.3052 -400.8439 -346.3142 30012.4930 -45.2594 22.2255
ENERGY: 600000 3.0459 3.8668 5.6435 0.0000 -10457.8402 1354.3298 0.0000 0.0000 1725.5468 -7365.4073 297.5277 -9090.9542 -7388.8946 299.6175 -500.3925 -426.9601 30239.0525 -92.3188 -29.1552
ENERGY: 900000 2.9971 6.9553 5.7621 0.0000 -10375.2416 1306.4907 0.0000 0.0000 1746.5607 -7306.4758 301.1510 -9053.0365 -7394.1430 298.6124 -877.4188 -756.3118 30232.0378 -193.6565 -132.5378
ENERGY: 1200000 3.7100 6.5464 5.3327 0.0000 -10506.9322 1426.2947 0.0000 0.0000 1720.3613 -7344.6871 296.6336 -9065.0484 -7394.2601 298.4041 266.2230 344.7831 29921.2914 -63.6944 0.3456
ENERGY: 1500000 1.6468 11.3851 5.7044 0.0000 -10525.4637 1336.8564 0.0000 0.0000 1750.0087 -7419.8623 301.7456 -9169.8711 -7402.8148 299.0214 -834.2240 -734.5245 30296.2362 -178.5861 -110.4501
TCL: Running FEP window  13: Lambda1 0.39999999999999963 Lambda2 0.34999999999999964 [dLambda -0.04999999999999999]
TCL: Setting parameter firsttimestep to 0
TCL: Setting parameter alchLambda to 0.39999999999999963
Info: NONBONDED TABLE R-SQUARED SPACING: 0.0625
Info: NONBONDED TABLE SIZE: 705 POINTS
TCL: Setting parameter alchLambda2 to 0.34999999999999964
Info: NONBONDED TABLE R-SQUARED SPACING: 0.0625
Info: NONBONDED TABLE SIZE: 705 POINTS
TCL: Running for 1500000 steps
ETITLE: TS BOND ANGLE DIHED IMPRP ELECT VDW BOUNDARY MISC KINETIC TOTAL TEMP POTENTIAL TOTALAVG TEMPAVG PRESSURE GPRESSURE VOLUME PRESSAVG GPRESSAVG
ENERGY: 0 1.6468 11.3851 5.7044 0.0000 -10525.4629 1337.2759 0.0000 0.0000 1749.1533 -7420.2975 301.5981 -9169.4508 -7420.2975 301.5981 -820.7078 -736.5433 30296.2362 -820.7078 -736.5433
ENERGY: 300000 3.4707 5.1020 6.3480 0.0000 -10532.1682 1280.0482 0.0000 0.0000 1733.6140 -7503.5853 298.9187 -9237.1993 -7425.8736 301.2213 -1272.3610 -1202.9652 29765.2221 -413.7141 -372.2967
ENERGY: 600000 3.0284 5.6450 5.6443 0.0000 -10735.7900 1521.4499 0.0000 0.0000 1762.8980 -7437.1245 303.9680 -9200.0225 -7432.5366 302.3310 719.3653 835.2927 29536.3202 -185.0870 -132.7789
ENERGY: 900000 0.8927 11.3351 5.2246 0.0000 -10557.8598 1382.2030 0.0000 0.0000 1732.9225 -7425.2819 298.7995 -9158.2044 -7454.6453 299.8009 -268.1393 -236.2298 29793.0619 -103.6135 -53.7362
ENERGY: 1200000 2.2024 10.2637 6.5751 0.0000 -10648.9708 1485.5497 0.0000 0.0000 1731.1329 -7413.2470 298.4909 -9144.3799 -7448.4841 299.9681 358.0373 413.2475 29990.3169 -91.6993 -39.2051
ENERGY: 1500000 4.0498 3.7731 5.5746 0.0000 -10455.9825 1376.8250 0.0000 0.0000 1766.3990 -7299.3610 304.5717 -9065.7600 -7432.4416 300.2484 -274.8956 -239.6288 30260.1216 -136.0648 -86.8192
TCL: Running FEP window  14: Lambda1 0.34999999999999964 Lambda2 0.29999999999999966 [dLambda -0.04999999999999999]
TCL: Setting parameter firsttimestep to 0
TCL: Setting parameter alchLambda to 0.34999999999999964
Info: NONBONDED TABLE R-SQUARED SPACING: 0.0625
Info: NONBONDED TABLE SIZE: 705 POINTS
TCL: Setting parameter alchLambda2 to 0.29999999999999966
Info: NONBONDED TABLE R-SQUARED SPACING: 0.0625
Info: NONBONDED TABLE SIZE: 705 POINTS
TCL: Running for 1500000 steps
ETITLE: TS BOND ANGLE DIHED IMPRP ELECT VDW BOUNDARY MISC KINETIC TOTAL TEMP POTENTIAL TOTALAVG TEMPAVG PRESSURE GPRESSURE VOLUME PRESSAVG GPRESSAVG
ENERGY: 0 4.0497 3.7731 5.5746 0.0000 -10455.9801 1376.7985 0.0000 0.0000 1765.5235 -7300.2606 304.4207 -9065.7841 -7300.2606 304.4207 -329.5379 -245.3507 30260.1216 -329.5379 -245.3507
ENERGY: 300000 1.7306 7.5497 6.8931 0.0000 -10529.4300 1399.0056 0.0000 0.0000 1732.3375 -7381.9136 298.6986 -9114.2511 -7403.3005 299.0575 140.1470 133.7444 29652.6231 121.6702 157.5809
ENERGY: 600000 1.2018 6.1796 5.3558 0.0000 -10537.6590 1436.7887 0.0000 0.0000 1723.6294 -7364.5037 297.1971 -9088.1331 -7388.3391 299.6212 179.5611 279.4301 30210.6102 159.0921 197.9882
ENERGY: 900000 1.5491 9.7149 7.4023 0.0000 -10447.3242 1339.7599 0.0000 0.0000 1804.3161 -7284.5819 311.1095 -9088.8980 -7382.6930 301.2487 -583.9450 -511.5331 30257.6671 -46.3629 1.6929
ENERGY: 1200000 0.8535 8.7962 6.7150 0.0000 -10693.1478 1506.7374 0.0000 0.0000 1765.1700 -7404.8757 304.3598 -9170.0457 -7378.6539 302.4994 595.6352 676.3427 29863.5013 -37.7100 19.6694
ENERGY: 1500000 1.2374 4.3533 3.6717 0.0000 -10500.3914 1378.0889 0.0000 0.0000 1723.3123 -7389.7279 297.1424 -9113.0402 -7379.6117 301.5770 -597.3470 -502.2514 30507.1058 -42.2427 11.8558
TCL: Running FEP window  15: Lambda1 0.29999999999999966 Lambda2 0.24999999999999967 [dLambda -0.04999999999999999]
TCL: Setting parameter firsttimestep to 0
TCL: Setting parameter alchLambda to 0.29999999999999966
Info: NONBONDED TABLE R-SQUARED SPACING: 0.0625
Info: NONBONDED TABLE SIZE: 705 POINTS
TCL: Setting parameter alchLambda2 to 0.24999999999999967
Info: NONBONDED TABLE R-SQUARED SPACING: 0.0625
Info: NONBONDED TABLE SIZE: 705 POINTS
TCL: Running for 1500000 steps
ETITLE: TS BOND ANGLE DIHED IMPRP ELECT VDW BOUNDARY MISC KINETIC TOTAL TEMP POTENTIAL TOTALAVG TEMPAVG PRESSURE GPRESSURE VOLUME PRESSAVG GPRESSAVG
ENERGY: 0 1.2374 4.3533 3.6717 0.0000 -10500.3911 1378.0992 0.0000 0.0000 1722.4755 -7390.5541 296.9981 -9113.0296 -7390.5541 296.9981 -582.3321 -507.0328 30507.1058 -582.3321 -507.0328
ENERGY: 300000 0.9289 9.3899 4.9740 0.0000 -10556.0321 1353.1431 0.0000 0.0000 1715.3853 -7472.2108 295.7756 -9187.5961 -7426.0946 299.6275 -646.2427 -544.2890 29793.7030 -531.9465 -441.6224
ENERGY: 600000 5.2951 8.4982 5.4969 0.0000 -10469.1035 1324.4002 0.0000 0.0000 1745.9506 -7379.4625 301.0459 -9125.4131 -7422.2428 301.4290 -381.0530 -332.2728 29634.9935 -289.6245 -213.4885
ENERGY: 900000 2.3244 6.9972 5.6196 0.0000 -10566.3044 1413.3074 0.0000 0.0000 1749.6186 -7388.4372 301.6783 -9138.0558 -7416.3487 300.5043 18.9667 16.1915 29792.0747 -185.4184 -114.5995
ENERGY: 1200000 1.0257 8.3032 6.3730 0.0000 -10681.5501 1439.4975 0.0000 0.0000 1745.0665 -7481.2841 300.8934 -9226.3506 -7410.3805 300.9958 -360.5981 -247.7337 30156.6670 -63.1158 1.8139
ENERGY: 1500000 3.4007 6.5357 5.4924 0.0000 -10567.3497 1373.5074 0.0000 0.0000 1682.6494 -7495.7640 290.1311 -9178.4135 -7412.2394 300.6386 -677.5329 -664.1653 30169.3536 -132.6168 -78.3067
TCL: Running FEP window  16: Lambda1 0.24999999999999967 Lambda2 0.19999999999999968 [dLambda -0.04999999999999999]
TCL: Setting parameter firsttimestep to 0
TCL: Setting parameter alchLambda to 0.24999999999999967
Info: NONBONDED TABLE R-SQUARED SPACING: 0.0625
Info: NONBONDED TABLE SIZE: 705 POINTS
TCL: Setting parameter alchLambda2 to 0.19999999999999968
Info: NONBONDED TABLE R-SQUARED SPACING: 0.0625
Info: NONBONDED TABLE SIZE: 705 POINTS
TCL: Running for 1500000 steps
ETITLE: TS BOND ANGLE DIHED IMPRP ELECT VDW BOUNDARY MISC KINETIC TOTAL TEMP POTENTIAL TOTALAVG TEMPAVG PRESSURE GPRESSURE VOLUME PRESSAVG GPRESSAVG
ENERGY: 0 3.4007 6.5357 5.4924 0.0000 -10567.3491 1372.4859 0.0000 0.0000 1681.7723 -7497.6621 289.9799 -9179.4343 -7497.6621 289.9799 -750.7527 -674.3777 30169.3536 -750.7527 -674.3777
ENERGY: 300000 1.7003 3.3837 6.2721 0.0000 -10604.3093 1429.1887 0.0000 0.0000 1740.4226 -7423.3419 300.0927 -9163.7645 -7438.0216 299.6658 -177.7225 -143.1893 30237.4038 -162.0189 -96.3704
ENERGY: 600000 0.5981 4.5533 6.4711 0.0000 -10527.9238 1393.7181 0.0000 0.0000 1697.5316 -7425.0514 292.6972 -9122.5831 -7440.7559 299.0335 -304.6135 -213.9436 30383.7547 -148.3876 -79.6069
ENERGY: 900000 2.5390 6.1971 5.4211 0.0000 -10605.7819 1448.4450 0.0000 0.0000 1793.4021 -7349.7777 309.2277 -9143.1798 -7429.8471 299.9051 307.3999 421.5665 29948.7789 -69.7812 8.3515
ENERGY: 1200000 3.1984 5.6187 6.4836 0.0000 -10563.0835 1454.3325 0.0000 0.0000 1687.3905 -7406.0598 290.9486 -9093.4503 -7416.2199 298.7311 373.2472 440.6660 29575.7234 -58.4566 14.7012
ENERGY: 1500000 1.6059 6.3134 5.1414 0.0000 -10614.1050 1429.3503 0.0000 0.0000 1719.7773 -7451.9167 296.5329 -9171.6940 -7421.0272 299.2867 234.0909 201.8180 29569.1782 -110.0685 -45.4844
TCL: Running FEP window  17: Lambda1 0.19999999999999968 Lambda2 0.1499999999999997 [dLambda -0.04999999999999999]
TCL: Setting parameter firsttimestep to 0
TCL: Setting parameter alchLambda to 0.19999999999999968
Info: NONBONDED TABLE R-SQUARED SPACING: 0.0625
Info: NONBONDED TABLE SIZE: 705 POINTS
TCL: Setting parameter alchLambda2 to 0.1499999999999997
Info: NONBONDED TABLE R-SQUARED SPACING: 0.0625
Info: NONBONDED TABLE SIZE: 705 POINTS
TCL: Running for 1500000 steps
ETITLE: TS BOND ANGLE DIHED IMPRP ELECT VDW BOUNDARY MISC KINETIC TOTAL TEMP POTENTIAL TOTALAVG TEMPAVG PRESSURE GPRESSURE VOLUME PRESSAVG GPRESSAVG
ENERGY: 0 1.6059 6.3134 5.1414 0.0000 -10614.1039 1429.5674 0.0000 0.0000 1718.9125 -7452.5633 296.3838 -9171.4758 -7452.5633 296.3838 105.9501 200.4794 29569.1782 105.9501 200.4794
ENERGY: 300000 1.3404 4.3695 4.8654 0.0000 -10534.4474 1396.3672 0.0000 0.0000 1735.8624 -7391.6426 299.3064 -9127.5050 -7379.2835 299.6151 -582.2982 -457.3449 30487.8588 -543.0861 -439.0340
ENERGY: 600000 1.0618 6.8536 6.8776 0.0000 -10572.8750 1374.8496 0.0000 0.0000 1755.5088 -7427.7235 302.6939 -9183.2323 -7392.1200 299.8498 -617.6053 -610.8437 30175.7462 -452.3625 -390.5153
ENERGY: 900000 1.5904 6.8937 5.7013 0.0000 -10664.5133 1449.7207 0.0000 0.0000 1758.3881 -7442.2190 303.1904 -9200.6072 -7389.2891 301.5200 414.5225 503.0472 29004.2814 -266.0051 -206.5372
ENERGY: 1200000 0.3899 3.8813 7.1499 0.0000 -10477.5602 1362.7362 0.0000 0.0000 1750.4825 -7352.9204 301.8273 -9103.4029 -7386.2589 300.4596 -598.9960 -455.6828 30101.5729 -208.1033 -139.7439
ENERGY: 1500000 1.7006 7.3879 5.9038 0.0000 -10719.3937 1449.0742 0.0000 0.0000 1748.5191 -7506.8080 301.4887 -9255.3271 -7400.3770 300.4211 -82.1738 31.1422 29641.2018 -244.6179 -168.2783
TCL: Running FEP window  18: Lambda1 0.1499999999999997 Lambda2 0.09999999999999969 [dLambda -0.05 ]
TCL: Setting parameter firsttimestep to 0
TCL: Setting parameter alchLambda to 0.1499999999999997
Info: NONBONDED TABLE R-SQUARED SPACING: 0.0625
Info: NONBONDED TABLE SIZE: 705 POINTS
TCL: Setting parameter alchLambda2 to 0.09999999999999969
Info: NONBONDED TABLE R-SQUARED SPACING: 0.0625
Info: NONBONDED TABLE SIZE: 705 POINTS
TCL: Running for 1500000 steps
ETITLE: TS BOND ANGLE DIHED IMPRP ELECT VDW BOUNDARY MISC KINETIC TOTAL TEMP POTENTIAL TOTALAVG TEMPAVG PRESSURE GPRESSURE VOLUME PRESSAVG GPRESSAVG
ENERGY: 0 1.7006 7.3879 5.9038 0.0000 -10719.3937 1449.2002 0.0000 0.0000 1747.6537 -7507.5475 301.3395 -9255.2012 -7507.5475 301.3395 -57.9626 28.3897 29641.2018 -57.9626 28.3897
ENERGY: 300000 3.4659 9.9536 5.3581 0.0000 -10682.6710 1481.2890 0.0000 0.0000 1747.7088 -7434.8955 301.3490 -9182.6043 -7438.2956 301.2737 207.6302 260.9943 29786.0353 90.1872 144.5208
ENERGY: 600000 0.4034 6.4731 5.8693 0.0000 -10520.5559 1424.6397 0.0000 0.0000 1728.1542 -7355.0162 297.9773 -9083.1704 -7419.7306 299.8429 242.3673 315.8250 29800.6002 -18.8497 43.3137
ENERGY: 900000 2.1276 7.8075 6.9262 0.0000 -10738.7642 1523.3546 0.0000 0.0000 1719.4261 -7479.1222 296.4724 -9198.5483 -7430.4261 297.5389 854.1706 955.9195 29250.5725 53.9451 124.4424
ENERGY: 1200000 2.1346 6.7608 6.1933 0.0000 -10513.3799 1389.3480 0.0000 0.0000 1778.1149 -7330.8283 306.5918 -9108.9432 -7421.8813 297.7573 -169.4429 -53.6670 29650.1240 -9.0466 66.2899
ENERGY: 1500000 1.6246 5.2129 5.4835 0.0000 -10493.7933 1368.9680 0.0000 0.0000 1745.5434 -7366.9609 300.9756 -9112.5043 -7414.4142 298.2798 -220.8215 -123.8843 29809.6673 -10.3571 63.2966
TCL: Running FEP window  19: Lambda1 0.09999999999999969 Lambda2 0.049999999999999684 [dLambda -0.05 ]
TCL: Setting parameter firsttimestep to 0
TCL: Setting parameter alchLambda to 0.09999999999999969
Info: NONBONDED TABLE R-SQUARED SPACING: 0.0625
Info: NONBONDED TABLE SIZE: 705 POINTS
TCL: Setting parameter alchLambda2 to 0.049999999999999684
Info: NONBONDED TABLE R-SQUARED SPACING: 0.0625
Info: NONBONDED TABLE SIZE: 705 POINTS
TCL: Running for 1500000 steps
ETITLE: TS BOND ANGLE DIHED IMPRP ELECT VDW BOUNDARY MISC KINETIC TOTAL TEMP POTENTIAL TOTALAVG TEMPAVG PRESSURE GPRESSURE VOLUME PRESSAVG GPRESSAVG
ENERGY: 0 1.6246 5.2129 5.4835 0.0000 -10493.7947 1369.2965 0.0000 0.0000 1744.6608 -7367.5164 300.8235 -9112.1773 -7367.5164 300.8235 -203.1827 -124.8418 29809.6673 -203.1827 -124.8418
ENERGY: 300000 3.3985 6.7730 6.3612 0.0000 -10609.4083 1435.9927 0.0000 0.0000 1705.7384 -7451.1444 294.1123 -9156.8828 -7366.6480 298.1361 -25.1787 44.3698 29626.5373 -262.6269 -192.3941
ENERGY: 600000 1.9530 7.7968 5.5541 0.0000 -10562.4716 1439.9124 0.0000 0.0000 1735.6945 -7371.5609 299.2774 -9107.2554 -7384.5072 297.8578 336.0065 401.7581 29645.6891 8.0131 79.0899
ENERGY: 900000 3.9037 7.5844 6.3124 0.0000 -10514.2080 1375.4518 0.0000 0.0000 1769.5193 -7351.4363 305.1097 -9120.9556 -7367.4284 300.2721 -493.2657 -480.3981 30181.5774 -89.9478 -31.0216
ENERGY: 1200000 0.5129 6.5313 5.0657 0.0000 -10589.6507 1439.6282 0.0000 0.0000 1772.4808 -7365.4319 305.6203 -9137.9127 -7376.6498 300.7311 214.1740 308.7035 29847.5266 -52.0124 9.4271
ENERGY: 1500000 2.8509 9.1266 5.9310 0.0000 -10487.0374 1393.2108 0.0000 0.0000 1745.4684 -7330.4496 300.9627 -9075.9180 -7374.0102 301.1145 95.8599 168.3319 29705.3180 -45.0513 16.2206
TCL: Running FEP window  20: Lambda1 0.049999999999999684 Lambda2 0.0    [dLambda -0.049999999999999684]
TCL: Setting parameter firsttimestep to 0
TCL: Setting parameter alchLambda to 0.049999999999999684
Info: NONBONDED TABLE R-SQUARED SPACING: 0.0625
Info: NONBONDED TABLE SIZE: 705 POINTS
TCL: Setting parameter alchLambda2 to 0.0
Info: NONBONDED TABLE R-SQUARED SPACING: 0.0625
Info: NONBONDED TABLE SIZE: 705 POINTS
TCL: Running for 1500000 steps
ETITLE: TS BOND ANGLE DIHED IMPRP ELECT VDW BOUNDARY MISC KINETIC TOTAL TEMP POTENTIAL TOTALAVG TEMPAVG PRESSURE GPRESSURE VOLUME PRESSAVG GPRESSAVG
ENERGY: 0 2.8509 9.1266 5.9310 0.0000 -10487.0381 1392.8021 0.0000 0.0000 1744.6017 -7331.7258 300.8133 -9076.3275 -7331.7258 300.8133 70.9402 165.1668 29705.3180 70.9402 165.1668
ENERGY: 300000 1.0103 5.8334 5.2561 0.0000 -10596.1512 1421.1438 0.0000 0.0000 1726.0550 -7436.8526 297.6153 -9162.9076 -7368.8378 300.4491 -49.0940 -18.9889 29608.9765 -282.8593 -244.7529
ENERGY: 600000 2.2871 4.5304 6.6060 0.0000 -10591.5047 1477.0905 0.0000 0.0000 1791.1785 -7309.8123 308.8443 -9100.9907 -7373.6486 300.8829 336.2203 404.4442 30078.6722 -172.8676 -118.5424
ENERGY: 900000 2.0009 7.6991 8.3711 0.0000 -10472.4953 1298.4049 0.0000 0.0000 1718.7774 -7437.2419 296.3605 -9156.0193 -7390.1558 299.5596 -861.4133 -760.5303 29437.4802 -257.7107 -194.3049
ENERGY: 1200000 1.7602 7.4293 4.8772 0.0000 -10427.5364 1358.2216 0.0000 0.0000 1708.5163 -7346.7318 294.5912 -9055.2481 -7378.3578 300.2795 -295.5938 -190.3438 29900.5114 -229.6541 -165.5834
ENERGY: 1500000 3.5146 8.0021 5.9861 0.0000 -10631.6697 1424.2258 0.0000 0.0000 1692.6294 -7497.3118 291.8519 -9189.9412 -7385.9700 299.7435 -294.5149 -229.7797 30063.9655 -123.1345 -56.3980
TCL: Exiting due to exit command.
