Info: SIMULATION PARAMETERS:
Info: TIMESTEP               2
Info: NUMBER OF STEPS        0
Info: STEPS PER CYCLE        10
Info: PERIODIC CELL BASIS 1  32.4049 0 0
Info: PERIODIC CELL BASIS 2  0 30.5142 0
Info: PERIODIC CELL BASIS 3  0 0 30.9543
Info: PERIODIC CELL CENTER   0 0 0
Info: WRAPPING WATERS AROUND PERIODIC BOUNDARIES ON OUTPUT.
Info: WRAPPING ALL CLUSTERS AROUND PERIODIC BOUNDARIES ON OUTPUT.
Info: FIRST LDB TIMESTEP     50
Info: LAST LDB TIMESTEP     -1
Info: HOM BACKGROUND SCALING 1
Info: PME BACKGROUND SCALING 1
Info: MIN ATOMS PER PATCH    40
Info: EMPTY PATCH LOAD       40 ATOMS
Info: VELOCITY FILE          mobley_6794076_equil.vel
Info: CENTER OF MASS MOVING INITIALLY? NO
Info: DIELECTRIC             1
Info: EXCLUDE                SCALED ONE-FOUR
Info: 1-4 ELECTROSTATICS SCALED BY 0.833333
Info: MODIFIED 1-4 VDW PARAMETERS WILL BE USED
Info: DCD FILENAME           mobley_6794076_prod.dcd
Info: DCD FREQUENCY          100000
Info: DCD FIRST STEP         100000
Info: DCD FILE WILL CONTAIN UNIT CELL DATA
Info: XST FILENAME           mobley_6794076_prod.xst
Info: XST FREQUENCY          100000
Info: NO VELOCITY DCD OUTPUT
Info: NO FORCE DCD OUTPUT
Info: OUTPUT FILENAME        mobley_6794076_prod
Info: BINARY OUTPUT FILES WILL BE USED
Info: RESTART FILENAME       mobley_6794076_prod.restart
Info: RESTART FREQUENCY      100000
Info: BINARY RESTART FILES WILL BE USED
Info: CUTOFF                 9
Info: PAIRLIST DISTANCE      11
Info: PAIRLIST SHRINK RATE   0.01
Info: PAIRLIST GROW RATE     0.01
Info: PAIRLIST TRIGGER       0.3
Info: PAIRLISTS PER CYCLE    2
Info: PAIRLISTS ENABLED
Info: MARGIN                 2
Info: HYDROGEN GROUP CUTOFF  2.5
Info: PATCH DIMENSION        15.5
Info: ENERGY OUTPUT STEPS    100000
Info: ENERGY EVALUATION STEPS    100000
Info: OUTPUT ENERGY PRECISION 4
Info: CROSSTERM ENERGY INCLUDED IN DIHEDRAL
Info: TIMING OUTPUT STEPS    1000000
Info: PRESSURE OUTPUT STEPS  100000
Info: ALCHEMICAL FEP ON
Info: FEP CURRENT LAMBDA VALUE     0
Info: FEP COMPARISON LAMBDA VALUE  0.05
Info: FEP INTRA-ALCHEMICAL NON-BONDED INTERACTIONS WILL BE RETAINED
Info: FEP INTRA-ALCHEMICAL BONDED INTERACTIONS WILL BE RETAINED
Info: FEP VDW SHIFTING COEFFICIENT 5
Info: FEP ELEC. ACTIVE FOR ANNIHILATED PARTICLES BETWEEN LAMBDA = 0 AND LAMBDA = 0.5
Info: FEP ELEC. ACTIVE FOR EXNIHILATED PARTICLES BETWEEN LAMBDA = 0.5 AND LAMBDA = 1
Info: FEP VDW ACTIVE FOR ANNIHILATED PARTICLES BETWEEN LAMBDA = 0 AND LAMBDA = 1
Info: FEP VDW ACTIVE FOR EXNIHILATED PARTICLES BETWEEN LAMBDA = 0 AND LAMBDA = 1
Info: FEP BOND ACTIVE FOR ANNIHILATED PARTICLES BETWEEN LAMBDA = 1 AND LAMBDA = 1
Info: FEP BOND ACTIVE FOR EXNIHILATED PARTICLES BETWEEN LAMBDA = 0 AND LAMBDA = 0
Info: LANGEVIN DYNAMICS ACTIVE
Info: LANGEVIN TEMPERATURE   300
Info: LANGEVIN USING BBK INTEGRATOR
Info: LANGEVIN DAMPING COEFFICIENT IS 1 INVERSE PS
Info: LANGEVIN DYNAMICS APPLIED TO HYDROGENS
Info: LANGEVIN PISTON PRESSURE CONTROL ACTIVE
Info:        TARGET PRESSURE IS 1.01325 BAR
Info:     OSCILLATION PERIOD IS 50 FS
Info:             DECAY TIME IS 25 FS
Info:     PISTON TEMPERATURE IS 300 K
Info:       PRESSURE CONTROL IS GROUP-BASED
Info:    INITIAL STRAIN RATE IS -0.00048783 -0.00048783 -0.00048783
Info:       CELL FLUCTUATION IS ISOTROPIC
Info: PARTICLE MESH EWALD (PME) ACTIVE
Info: PME TOLERANCE               1e-06
Info: PME EWALD COEFFICIENT       0.348832
Info: PME INTERPOLATION ORDER     4
Info: PME GRID DIMENSIONS         36 32 32
Info: PME MAXIMUM GRID SPACING    1
Info: PME CALCULATION WILL BE PERFORMED ON GPU
Info: FULL ELECTROSTATIC EVALUATION FREQUENCY      2
Info: USING VERLET I (r-RESPA) MTS SCHEME.
Info: C1 SPLITTING OF LONG RANGE ELECTROSTATICS
Info: PLACING ATOMS IN PATCHES BY HYDROGEN GROUPS
Info: RIGID BONDS TO HYDROGEN : ALL
Info:         ERROR TOLERANCE : 1e-08
Info:          MAX ITERATIONS : 100
Info: RIGID WATER USING SETTLE ALGORITHM
Info: RANDOM NUMBER SEED     1743767533
Info: USE HYDROGEN BONDS?    NO
Info: Using AMBER format force field!
Info: AMBER PARM FILE        mobley_6794076.prmtop
Info: COORDINATE PDB         mobley_6794076.pdb
Info: Exclusions will be read from PARM file!
Info: SCNB (VDW SCALING)     2
Info: USING ARITHMETIC MEAN TO COMBINE L-J SIGMA PARAMETERS
Info: BINARY COORDINATES     mobley_6794076_equil.coor
Info: SUMMARY OF PARAMETERS:
Info: 10 BONDS
Info: 12 ANGLES
Info:   12 HARMONIC
Info:   0 COSINE-BASED
Info: 9 DIHEDRAL
Info: 0 IMPROPER
Info: 0 CROSSTERM
Info: 0 VDW
Info: 45 VDW_PAIRS
Info: 0 NBTHOLE_PAIRS
Info: To read alchdata from file: mobley_6794076.pdb
Info: To read alchflag data from column: 5
Info: STRUCTURE SUMMARY:
Info: 2956 ATOMS
Info: 2956 BONDS
Info: 25 ANGLES
Info: 42 DIHEDRALS
Info: 0 IMPROPERS
Info: 0 CROSSTERMS
Info: 3008 EXCLUSIONS
Info: 2947 RIGID BONDS
Info: ALCH: 0 ATOMS TO DISAPPEAR IN FINAL STATE
Info: ALCH: 16 ATOMS TO APPEAR IN FINAL STATE
Info: 5921 DEGREES OF FREEDOM
Info: 989 HYDROGEN GROUPS
Info: 4 ATOMS IN LARGEST HYDROGEN GROUP
Info: 989 MIGRATION GROUPS
Info: 4 ATOMS IN LARGEST MIGRATION GROUP
Info: TOTAL MASS = 17776.8 amu
Info: TOTAL CHARGE = 9.9957e-05 e
Info: MASS DENSITY = 0.964447 g/cm^3
Info: ATOM DENSITY = 0.0965761 atoms/A^3
Info: ADDED 0 IMPLICIT EXCLUSIONS
Info: NONBONDED TABLE R-SQUARED SPACING: 0.0625
Info: NONBONDED TABLE SIZE: 705 POINTS
Info: REMOVING COM VELOCITY -0.0664427 0.00418133 -0.0719509
Info: Use 3D box decompostion in PME FFT.
Info: Updated CUDA force table with 4096 elements.
Info: Updated CUDA LJ table with 9 x 9 elements.
Info: Found 17 unique exclusion lists needing 36 bytes
TCL: Running for 1500000 steps
ETITLE: TS BOND ANGLE DIHED IMPRP ELECT VDW BOUNDARY MISC KINETIC TOTAL TEMP POTENTIAL TOTALAVG TEMPAVG PRESSURE GPRESSURE VOLUME PRESSAVG GPRESSAVG
ENERGY: 0 1.3375 6.1998 8.0048 0.0000 -10480.2550 1361.8018 0.0000 0.0000 1787.2418 -7315.6693 303.7936 -9102.9111 -7315.6693 303.7936 -353.0503 -275.8354 30607.9820 -353.0503 -275.8354
ENERGY: 300000 1.1592 3.8090 9.1332 0.0000 -10669.0728 1452.0649 0.0000 0.0000 1781.6158 -7421.2907 302.8373 -9202.9065 -7418.4528 302.3632 -82.2363 -42.9408 30859.1728 -195.6739 -152.8274
ENERGY: 600000 6.6619 4.5027 3.5737 0.0000 -10492.4512 1328.7517 0.0000 0.0000 1745.1106 -7403.8505 296.6322 -9148.9611 -7435.7597 299.5481 -632.7315 -612.7633 30314.0416 -421.6930 -385.1468
ENERGY: 900000 2.7454 3.8298 11.0328 0.0000 -10714.5600 1424.9589 0.0000 0.0000 1760.0486 -7511.9445 299.1713 -9271.9931 -7447.7022 299.8980 -92.8749 -64.8143 29986.4177 -351.1868 -299.8596
ENERGY: 1200000 5.0010 2.8217 4.9277 0.0000 -10699.5686 1460.1862 0.0000 0.0000 1773.9308 -7452.7014 301.5310 -9226.6321 -7463.5647 299.7078 593.4811 595.7921 29663.6558 -233.6996 -185.0392
ENERGY: 1500000 1.7069 4.2466 4.7057 0.0000 -10638.6381 1374.6580 0.0000 0.0000 1779.2139 -7474.1070 302.4290 -9253.3209 -7465.3873 300.1098 -523.0708 -484.6469 30291.7307 -208.0954 -156.5219
TCL: Running FEP window   2: Lambda1 0.05   Lambda2 0.1    [dLambda 0.05  ]
TCL: Setting parameter firsttimestep to 0
TCL: Setting parameter alchLambda to 0.05
Info: NONBONDED TABLE R-SQUARED SPACING: 0.0625
Info: NONBONDED TABLE SIZE: 705 POINTS
TCL: Setting parameter alchLambda2 to 0.1
Info: NONBONDED TABLE R-SQUARED SPACING: 0.0625
Info: NONBONDED TABLE SIZE: 705 POINTS
TCL: Running for 1500000 steps
ETITLE: TS BOND ANGLE DIHED IMPRP ELECT VDW BOUNDARY MISC KINETIC TOTAL TEMP POTENTIAL TOTALAVG TEMPAVG PRESSURE GPRESSURE VOLUME PRESSAVG GPRESSAVG
ENERGY: 0 1.7069 4.2466 4.7057 0.0000 -10638.6382 1378.4481 0.0000 0.0000 1778.3238 -7471.2072 302.2777 -9249.5309 -7471.2072 302.2777 -559.3267 -477.6359 30291.7307 -559.3267 -477.6359
ENERGY: 300000 3.7886 5.6791 5.8517 0.0000 -10699.3211 1412.2785 0.0000 0.0000 1794.0197 -7477.7035 304.9457 -9271.7232 -7488.0894 300.3266 -442.9736 -336.0908 30124.3456 -256.7942 -179.8100
ENERGY: 600000 2.0487 3.9595 5.0758 0.0000 -10718.2264 1426.2743 0.0000 0.0000 1821.7715 -7459.0966 309.6629 -9280.8681 -7492.4685 299.5327 -175.4517 -110.5530 30212.3456 -130.9291 -61.1256
ENERGY: 900000 2.7218 4.9372 7.1739 0.0000 -10660.1761 1439.8544 0.0000 0.0000 1722.0700 -7483.4186 292.7158 -9205.4887 -7489.2301 299.3300 145.2863 253.5534 30052.3893 -142.7787 -68.7732
ENERGY: 1200000 1.4735 4.7073 4.3402 0.0000 -10632.7136 1389.5929 0.0000 0.0000 1823.5004 -7409.0993 309.9568 -9232.5997 -7480.4984 301.2672 -496.3336 -465.1657 30733.2482 -162.8685 -94.1542
ENERGY: 1500000 2.6001 6.2132 6.6188 0.0000 -10740.4101 1407.0102 0.0000 0.0000 1726.0788 -7591.8890 293.3972 -9317.9678 -7489.3947 300.0346 -672.9277 -552.1220 30373.3271 -212.6091 -148.7256
TCL: Running FEP window   3: Lambda1 0.1    Lambda2 0.15000000000000002 [dLambda 0.05000000000000002]
TCL: Setting parameter firsttimestep to 0
TCL: Setting parameter alchLambda to 0.1
Info: NONBONDED TABLE R-SQUARED SPACING: 0.0625
Info: NONBONDED TABLE SIZE: 705 POINTS
TCL: Setting parameter alchLambda2 to 0.15000000000000002
Info: NONBONDED TABLE R-SQUARED SPACING: 0.0625
Info: NONBONDED TABLE SIZE: 705 POINTS
TCL: Running for 1500000 steps
ETITLE: TS BOND ANGLE DIHED IMPRP ELECT VDW BOUNDARY MISC KINETIC TOTAL TEMP POTENTIAL TOTALAVG TEMPAVG PRESSURE GPRESSURE VOLUME PRESSAVG GPRESSAVG
ENERGY: 0 2.6001 6.2132 6.6188 0.0000 -10740.4109 1408.6440 0.0000 0.0000 1725.1904 -7591.1443 293.2462 -9316.3348 -7591.1443 293.2462 -634.1524 -543.6761 30373.3271 -634.1524 -543.6761
ENERGY: 300000 5.4309 3.8608 6.5245 0.0000 -10666.1948 1387.5360 0.0000 0.0000 1805.0652 -7457.7774 306.8232 -9262.8426 -7518.5877 302.0758 -694.2989 -680.1540 30577.6197 -319.3444 -271.1648
ENERGY: 600000 4.0072 5.2702 6.3970 0.0000 -10720.6453 1454.2424 0.0000 0.0000 1734.8700 -7515.8585 294.8915 -9250.7285 -7509.5632 301.4309 352.0012 410.9046 29623.4783 -111.7442 -62.6432
ENERGY: 900000 4.1136 3.7331 5.3657 0.0000 -10593.5220 1353.5679 0.0000 0.0000 1811.7578 -7414.9839 307.9608 -9226.7417 -7486.2281 302.5714 -520.6890 -437.6850 30292.9357 -185.8904 -133.8106
ENERGY: 1200000 4.2368 6.6460 5.0300 0.0000 -10784.9806 1513.9931 0.0000 0.0000 1768.8094 -7486.2653 300.6605 -9255.0747 -7483.9355 302.0260 588.5144 699.3818 30218.2054 -129.2626 -70.7559
ENERGY: 1500000 2.1472 6.4792 7.2972 0.0000 -10757.8901 1451.9494 0.0000 0.0000 1759.9821 -7530.0351 299.1600 -9290.0172 -7495.9693 301.0077 -12.5960 2.7835 30159.2514 -138.5046 -84.6061
TCL: Running FEP window   4: Lambda1 0.15000000000000002 Lambda2 0.2    [dLambda 0.04999999999999999]
TCL: Setting parameter firsttimestep to 0
TCL: Setting parameter alchLambda to 0.15000000000000002
Info: NONBONDED TABLE R-SQUARED SPACING: 0.0625
Info: NONBONDED TABLE SIZE: 705 POINTS
TCL: Setting parameter alchLambda2 to 0.2
Info: NONBONDED TABLE R-SQUARED SPACING: 0.0625
Info: NONBONDED TABLE SIZE: 705 POINTS
TCL: Running for 1500000 steps
ETITLE: TS BOND ANGLE DIHED IMPRP ELECT VDW BOUNDARY MISC KINETIC TOTAL TEMP POTENTIAL TOTALAVG TEMPAVG PRESSURE GPRESSURE VOLUME PRESSAVG GPRESSAVG
ENERGY: 0 2.1472 6.4792 7.2972 0.0000 -10757.8897 1454.4291 0.0000 0.0000 1759.0876 -7528.4494 299.0080 -9287.5370 -7528.4494 299.0080 -68.5167 16.4879 30159.2514 -68.5167 16.4879
ENERGY: 300000 1.9717 3.3600 5.1251 0.0000 -10574.5385 1283.3560 0.0000 0.0000 1766.3870 -7514.3387 300.2487 -9280.7257 -7508.7972 297.4106 -1578.8416 -1563.5333 30803.1666 -641.7719 -568.8937
ENERGY: 600000 6.5586 8.5346 4.5495 0.0000 -10674.7195 1406.7500 0.0000 0.0000 1782.6163 -7465.7104 303.0074 -9248.3268 -7508.5214 297.8223 -472.2887 -397.7192 30058.2367 -521.6521 -453.1589
ENERGY: 900000 2.1621 7.2846 3.4401 0.0000 -10722.4653 1454.7490 0.0000 0.0000 1730.4502 -7524.3794 294.1402 -9254.8296 -7512.0474 296.8303 126.9661 260.9424 30123.0678 -269.5978 -203.8131
ENERGY: 1200000 4.1575 5.1169 4.9218 0.0000 -10673.1996 1444.1846 0.0000 0.0000 1834.0379 -7380.7808 311.7480 -9214.8188 -7492.7971 298.5247 85.0337 158.3928 30323.3333 -199.8979 -141.9397
ENERGY: 1500000 4.6668 6.6930 6.0536 0.0000 -10733.1133 1454.6927 0.0000 0.0000 1766.0636 -7494.9436 300.1938 -9261.0072 -7490.1052 298.6419 -138.3717 -72.5398 30145.3100 -124.0724 -67.9368
TCL: Running FEP window   5: Lambda1 0.2    Lambda2 0.25   [dLambda 0.04999999999999999]
TCL: Setting parameter firsttimestep to 0
TCL: Setting parameter alchLambda to 0.2
Info: NONBONDED TABLE R-SQUARED SPACING: 0.0625
Info: NONBONDED TABLE SIZE: 705 POINTS
TCL: Setting parameter alchLambda2 to 0.25
Info: NONBONDED TABLE R-SQUARED SPACING: 0.0625
Info: NONBONDED TABLE SIZE: 705 POINTS
TCL: Running for 1500000 steps
ETITLE: TS BOND ANGLE DIHED IMPRP ELECT VDW BOUNDARY MISC KINETIC TOTAL TEMP POTENTIAL TOTALAVG TEMPAVG PRESSURE GPRESSURE VOLUME PRESSAVG GPRESSAVG
ENERGY: 0 4.6668 6.6930 6.0536 0.0000 -10733.1126 1455.1339 0.0000 0.0000 1765.1945 -7495.3708 300.0460 -9260.5654 -7495.3708 300.0460 -146.0361 -64.4546 30145.3100 -146.0361 -64.4546
ENERGY: 300000 3.3000 3.2884 6.9610 0.0000 -10783.8980 1443.6887 0.0000 0.0000 1774.2642 -7552.3957 301.5877 -9326.6599 -7526.7804 300.3701 23.7029 88.9734 29898.1412 -71.0297 1.8995
ENERGY: 600000 3.1805 8.3093 4.6496 0.0000 -10775.7018 1488.2922 0.0000 0.0000 1822.0745 -7449.1957 309.7144 -9271.2702 -7518.0426 301.1926 599.6720 612.9310 30009.5775 63.1872 107.7166
ENERGY: 900000 2.8664 4.5022 5.0766 0.0000 -10692.4753 1435.5145 0.0000 0.0000 1786.7981 -7457.7174 303.7182 -9244.5155 -7505.2117 300.8080 -110.4290 -82.5834 30322.7879 30.0131 86.3480
ENERGY: 1200000 1.9462 3.3799 5.8948 0.0000 -10669.6770 1520.4304 0.0000 0.0000 1742.5056 -7395.5200 296.1894 -9138.0256 -7491.5845 300.3062 926.5569 1001.8969 30353.1623 98.5747 149.5610
ENERGY: 1500000 2.8467 5.4209 8.6607 0.0000 -10618.9946 1402.5545 0.0000 0.0000 1780.0248 -7419.4871 302.5669 -9199.5119 -7480.4094 300.9642 -275.3512 -185.9190 30405.6548 73.1951 130.0233
TCL: Running FEP window   6: Lambda1 0.25   Lambda2 0.3    [dLambda 0.04999999999999999]
TCL: Setting parameter firsttimestep to 0
TCL: Setting parameter alchLambda to 0.25
Info: NONBONDED TABLE R-SQUARED SPACING: 0.0625
Info: NONBONDED TABLE SIZE: 705 POINTS
TCL: Setting parameter alchLambda2 to 0.3
Info: NONBONDED TABLE R-SQUARED SPACING: 0.0625
Info: NONBONDED TABLE SIZE: 705 POINTS
TCL: Running for 1500000 steps
ETITLE: TS BOND ANGLE DIHED IMPRP ELECT VDW BOUNDARY MISC KINETIC TOTAL TEMP POTENTIAL TOTALAVG TEMPAVG PRESSURE GPRESSURE VOLUME PRESSAVG GPRESSAVG
ENERGY: 0 2.8467 5.4209 8.6607 0.0000 -10618.9947 1403.5734 0.0000 0.0000 1779.1461 -7419.3469 302.4175 -9198.4931 -7419.3469 302.4175 -259.9724 -177.6735 30405.6548 -259.9724 -177.6735
ENERGY: 300000 4.4484 3.9206 3.9884 0.0000 -10834.5447 1473.4714 0.0000 0.0000 1706.4024 -7642.3135 290.0526 -9348.7160 -7511.1026 298.7734 -322.6450 -303.4888 30683.8210 -217.6552 -161.5626
ENERGY: 600000 1.6119 4.1837 4.8943 0.0000 -10666.2524 1423.9536 0.0000 0.0000 1720.1298 -7511.4791 292.3860 -9231.6089 -7506.8421 298.6215 85.5158 163.6141 30268.8066 -28.4643 37.8086
ENERGY: 900000 3.6020 5.9693 4.1699 0.0000 -10666.4250 1452.4286 0.0000 0.0000 1733.2681 -7466.9871 294.6192 -9200.2551 -7495.7835 299.2738 -493.9289 -376.0142 31274.8223 -94.1705 -22.2140
ENERGY: 1200000 5.6415 5.1930 5.9629 0.0000 -10743.5895 1391.2776 0.0000 0.0000 1795.2519 -7540.2626 305.1552 -9335.5145 -7501.1792 298.9368 -667.0463 -661.2961 30496.6734 -140.8458 -76.9520
ENERGY: 1500000 3.0164 2.9698 7.0599 0.0000 -10450.8320 1246.9973 0.0000 0.0000 1752.8993 -7437.8894 297.9561 -9190.7887 -7499.0939 298.4286 -1544.9638 -1439.0372 30768.0179 -203.1316 -137.6002
TCL: Running FEP window   7: Lambda1 0.3    Lambda2 0.35   [dLambda 0.04999999999999999]
TCL: Setting parameter firsttimestep to 0
TCL: Setting parameter alchLambda to 0.3
Info: NONBONDED TABLE R-SQUARED SPACING: 0.0625
Info: NONBONDED TABLE SIZE: 705 POINTS
TCL: Setting parameter alchLambda2 to 0.35
Info: NONBONDED TABLE R-SQUARED SPACING: 0.0625
Info: NONBONDED TABLE SIZE: 705 POINTS
TCL: Running for 1500000 steps
ETITLE: TS BOND ANGLE DIHED IMPRP ELECT VDW BOUNDARY MISC KINETIC TOTAL TEMP POTENTIAL TOTALAVG TEMPAVG PRESSURE GPRESSURE VOLUME PRESSAVG GPRESSAVG
ENERGY: 0 3.0164 2.9698 7.0599 0.0000 -10450.8333 1247.6050 0.0000 0.0000 1752.0144 -7438.1680 297.8057 -9190.1824 -7438.1680 297.8057 -1516.0375 -1430.4707 30768.0179 -1516.0375 -1430.4707
ENERGY: 300000 2.1069 4.2703 5.7744 0.0000 -10695.2261 1518.5271 0.0000 0.0000 1729.6797 -7434.8678 294.0093 -9164.5475 -7422.7993 301.3139 1000.1318 972.9394 30202.1722 -301.0300 -277.7385
ENERGY: 600000 2.5168 5.5549 5.4923 0.0000 -10839.6035 1510.6866 0.0000 0.0000 1731.5833 -7583.7696 294.3328 -9315.3529 -7459.6791 299.3050 489.9019 523.1243 29987.2312 -145.2173 -113.9673
ENERGY: 900000 3.1394 7.8424 5.3940 0.0000 -10819.9046 1515.4042 0.0000 0.0000 1745.1711 -7542.9534 296.6425 -9288.1245 -7473.6822 298.9860 482.6650 512.9076 30220.2263 -21.1834 17.2034
ENERGY: 1200000 3.1291 4.6291 4.3018 0.0000 -10665.5927 1422.9813 0.0000 0.0000 1698.6431 -7531.9083 288.7337 -9230.5514 -7476.7869 298.1274 -350.7769 -294.6673 30703.5163 -61.1697 -22.6626
ENERGY: 1500000 4.2379 4.9471 7.7895 0.0000 -10512.7408 1334.3039 0.0000 0.0000 1736.1458 -7425.3166 295.1084 -9161.4624 -7476.4425 298.8131 -702.5487 -643.3448 30567.6517 -66.7120 -27.6736
TCL: Running FEP window   8: Lambda1 0.35   Lambda2 0.39999999999999997 [dLambda 0.04999999999999999]
TCL: Setting parameter firsttimestep to 0
TCL: Setting parameter alchLambda to 0.35
Info: NONBONDED TABLE R-SQUARED SPACING: 0.0625
Info: NONBONDED TABLE SIZE: 705 POINTS
TCL: Setting parameter alchLambda2 to 0.39999999999999997
Info: NONBONDED TABLE R-SQUARED SPACING: 0.0625
Info: NONBONDED TABLE SIZE: 705 POINTS
TCL: Running for 1500000 steps
ETITLE: TS BOND ANGLE DIHED IMPRP ELECT VDW BOUNDARY MISC KINETIC TOTAL TEMP POTENTIAL TOTALAVG TEMPAVG PRESSURE GPRESSURE VOLUME PRESSAVG GPRESSAVG
ENERGY: 0 4.2379 4.9471 7.7895 0.0000 -10512.7409 1334.3066 0.0000 0.0000 1735.2791 -7426.1807 294.9610 -9161.4598 -7426.1807 294.9610 -722.4461 -639.6536 30567.6517 -722.4461 -639.6536
ENERGY: 300000 2.5241 3.2912 9.1585 0.0000 -10624.2561 1353.0383 0.0000 0.0000 1731.3133 -7524.9307 294.2869 -9256.2440 -7482.8014 299.2263 -1062.7814 -980.2576 31028.1386 -389.6131 -313.1848
ENERGY: 600000 4.7519 4.8987 5.6997 0.0000 -10793.6960 1526.4285 0.0000 0.0000 1820.4646 -7431.4527 309.4408 -9251.9172 -7476.8062 300.0179 1032.1882 1001.7420 29983.3197 -89.7840 -30.5366
ENERGY: 900000 3.9497 2.5337 5.4481 0.0000 -10703.6598 1495.4929 0.0000 0.0000 1766.5813 -7429.6542 300.2818 -9196.2355 -7479.4690 299.8050 334.0555 331.7076 30891.3420 -34.7858 28.7113
ENERGY: 1200000 1.7102 2.1745 4.3437 0.0000 -10753.0908 1450.7027 0.0000 0.0000 1748.2670 -7545.8927 297.1687 -9294.1597 -7487.9498 299.4656 -120.4439 -103.8975 30866.0541 -33.5161 18.2845
ENERGY: 1500000 3.2713 5.0405 3.7709 0.0000 -10789.6926 1479.1549 0.0000 0.0000 1781.6750 -7516.7799 302.8474 -9298.4550 -7484.2557 300.0246 541.7515 556.1228 29774.5578 -14.5495 35.3480
TCL: Running FEP window   9: Lambda1 0.39999999999999997 Lambda2 0.44999999999999996 [dLambda 0.04999999999999999]
TCL: Setting parameter firsttimestep to 0
TCL: Setting parameter alchLambda to 0.39999999999999997
Info: NONBONDED TABLE R-SQUARED SPACING: 0.0625
Info: NONBONDED TABLE SIZE: 705 POINTS
TCL: Setting parameter alchLambda2 to 0.44999999999999996
Info: NONBONDED TABLE R-SQUARED SPACING: 0.0625
Info: NONBONDED TABLE SIZE: 705 POINTS
TCL: Running for 1500000 steps
ETITLE: TS BOND ANGLE DIHED IMPRP ELECT VDW BOUNDARY MISC KINETIC TOTAL TEMP POTENTIAL TOTALAVG TEMPAVG PRESSURE GPRESSURE VOLUME PRESSAVG GPRESSAVG
ENERGY: 0 3.2713 5.0405 3.7709 0.0000 -10789.6916 1478.8045 0.0000 0.0000 1780.7808 -7518.0236 302.6954 -9298.8045 -7518.0236 302.6954 477.2610 560.5524 29774.5578 477.2610 560.5524
ENERGY: 300000 3.2156 5.5652 4.9717 0.0000 -10677.6902 1481.9891 0.0000 0.0000 1719.7467 -7462.2020 292.3209 -9181.9486 -7487.7860 299.9685 444.9627 488.1204 30354.1575 56.1111 92.0109
ENERGY: 600000 0.8336 3.3706 6.0666 0.0000 -10643.4043 1405.7365 0.0000 0.0000 1758.2826 -7469.1143 298.8712 -9227.3970 -7485.1802 300.4853 -201.2600 -103.9144 30601.3885 -38.7459 14.6435
ENERGY: 900000 0.7123 5.2917 2.8480 0.0000 -10773.6980 1456.7356 0.0000 0.0000 1768.9619 -7539.1486 300.6864 -9308.1104 -7495.5373 299.9250 40.7384 95.7723 30174.6222 -34.2116 19.5173
ENERGY: 1200000 1.6211 4.7191 3.8931 0.0000 -10660.9079 1414.3705 0.0000 0.0000 1759.7575 -7476.5465 299.1219 -9236.3041 -7488.2180 299.0603 -557.0709 -451.7684 31208.7258 -68.6368 -12.4624
ENERGY: 1500000 3.7080 3.0641 6.2529 0.0000 -10629.6163 1378.8034 0.0000 0.0000 1754.3528 -7483.4350 298.2032 -9237.7878 -7501.9557 298.0385 -540.8107 -489.6725 30327.0766 -101.6155 -41.8090
TCL: Running FEP window  10: Lambda1 0.44999999999999996 Lambda2 0.49999999999999994 [dLambda 0.04999999999999999]
TCL: Setting parameter firsttimestep to 0
TCL: Setting parameter alchLambda to 0.44999999999999996
Info: NONBONDED TABLE R-SQUARED SPACING: 0.0625
Info: NONBONDED TABLE SIZE: 705 POINTS
TCL: Setting parameter alchLambda2 to 0.49999999999999994
Info: NONBONDED TABLE R-SQUARED SPACING: 0.0625
Info: NONBONDED TABLE SIZE: 705 POINTS
TCL: Running for 1500000 steps
ETITLE: TS BOND ANGLE DIHED IMPRP ELECT VDW BOUNDARY MISC KINETIC TOTAL TEMP POTENTIAL TOTALAVG TEMPAVG PRESSURE GPRESSURE VOLUME PRESSAVG GPRESSAVG
ENERGY: 0 3.7080 3.0641 6.2529 0.0000 -10629.6160 1378.9836 0.0000 0.0000 1753.4861 -7484.1213 298.0558 -9237.6074 -7484.1213 298.0558 -548.4802 -481.5508 30327.0766 -548.4802 -481.5508
ENERGY: 300000 3.7523 6.7049 4.4431 0.0000 -10649.9470 1398.1616 0.0000 0.0000 1746.1125 -7490.7726 296.8025 -9236.8851 -7510.2205 297.9149 -456.2490 -408.7273 30538.2716 -197.7409 -145.2930
ENERGY: 600000 4.1281 5.6790 6.2336 0.0000 -10687.4577 1486.0731 0.0000 0.0000 1728.4641 -7456.8798 293.8026 -9185.3439 -7478.3526 300.1493 393.5985 454.8690 30279.3465 -261.2786 -208.2475
ENERGY: 900000 3.1826 4.8734 6.1936 0.0000 -10775.0361 1453.0785 0.0000 0.0000 1767.8881 -7539.8199 300.5039 -9307.7080 -7477.4014 299.9717 131.6807 228.7165 29805.8326 -127.8451 -66.6898
ENERGY: 1200000 4.0047 3.2532 4.0029 0.0000 -10745.8705 1478.8001 0.0000 0.0000 1740.2818 -7515.5278 295.8114 -9255.8096 -7475.4880 299.6532 213.1504 272.0488 30452.3002 -84.6358 -15.2648
ENERGY: 1500000 1.5708 4.9581 5.2662 0.0000 -10660.3444 1416.1293 0.0000 0.0000 1747.0306 -7485.3894 296.9585 -9232.4200 -7479.5679 298.2820 -477.8250 -310.9425 30707.2811 -168.9519 -93.5862
TCL: Running FEP window  11: Lambda1 0.49999999999999994 Lambda2 0.5499999999999999 [dLambda 0.04999999999999999]
TCL: Setting parameter firsttimestep to 0
TCL: Setting parameter alchLambda to 0.49999999999999994
Info: NONBONDED TABLE R-SQUARED SPACING: 0.0625
Info: NONBONDED TABLE SIZE: 705 POINTS
TCL: Setting parameter alchLambda2 to 0.5499999999999999
Info: NONBONDED TABLE R-SQUARED SPACING: 0.0625
Info: NONBONDED TABLE SIZE: 705 POINTS
TCL: Running for 1500000 steps
ETITLE: TS BOND ANGLE DIHED IMPRP ELECT VDW BOUNDARY MISC KINETIC TOTAL TEMP POTENTIAL TOTALAVG TEMPAVG PRESSURE GPRESSURE VOLUME PRESSAVG GPRESSAVG
ENERGY: 0 1.5708 4.9581 5.2662 0.0000 -10660.3419 1417.1114 0.0000 0.0000 1746.1729 -7485.2625 296.8128 -9231.4354 -7485.2625 296.8128 -386.6263 -295.5413 30707.2811 -386.6263 -295.5413
ENERGY: 300000 4.4035 5.1617 5.4293 0.0000 -10653.7386 1347.1151 0.0000 0.0000 1723.3603 -7568.2687 292.9351 -9291.6290 -7571.8927 293.6548 -1124.5825 -1068.6738 30539.8854 -433.8836 -358.1204
ENERGY: 600000 3.7526 3.2942 4.1132 0.0000 -10738.4648 1455.0866 0.0000 0.0000 1781.3427 -7490.8755 302.7909 -9272.2182 -7513.3978 297.4106 16.5963 47.5279 30490.4262 -164.0226 -93.8281
ENERGY: 900000 1.6039 7.4918 5.6512 0.0000 -10685.8278 1444.6287 0.0000 0.0000 1769.0895 -7457.3628 300.7081 -9226.4523 -7508.9859 297.2436 -196.4354 -71.0372 30990.4809 -97.4497 -31.6912
ENERGY: 1200000 1.9160 4.5858 6.0594 0.0000 -10843.1568 1485.3306 0.0000 0.0000 1745.3281 -7599.9368 296.6692 -9345.2649 -7515.1124 297.1491 99.5893 144.2762 30129.4328 -117.9087 -58.0082
ENERGY: 1500000 2.8274 3.3025 4.8499 0.0000 -10637.4637 1419.8864 0.0000 0.0000 1727.0154 -7479.5821 293.5564 -9206.5975 -7501.0049 297.9051 -34.2965 47.3463 30274.7426 -0.5644 59.3772
TCL: Running FEP window  12: Lambda1 0.5499999999999999 Lambda2 0.6    [dLambda 0.050000000000000044]
TCL: Setting parameter firsttimestep to 0
TCL: Setting parameter alchLambda to 0.5499999999999999
Info: NONBONDED TABLE R-SQUARED SPACING: 0.0625
Info: NONBONDED TABLE SIZE: 705 POINTS
TCL: Setting parameter alchLambda2 to 0.6
Info: NONBONDED TABLE R-SQUARED SPACING: 0.0625
Info: NONBONDED TABLE SIZE: 705 POINTS
TCL: Running for 1500000 steps
ETITLE: TS BOND ANGLE DIHED IMPRP ELECT VDW BOUNDARY MISC KINETIC TOTAL TEMP POTENTIAL TOTALAVG TEMPAVG PRESSURE GPRESSURE VOLUME PRESSAVG GPRESSAVG
ENERGY: 0 2.8274 3.3025 4.8499 0.0000 -10637.9094 1420.0792 0.0000 0.0000 1726.1330 -7480.7174 293.4064 -9206.8503 -7480.7174 293.4064 -28.3820 59.9021 30274.7426 -28.3820 59.9021
ENERGY: 300000 4.4440 7.4354 5.4885 0.0000 -10628.6374 1419.5259 0.0000 0.0000 1767.2182 -7424.5255 300.3900 -9191.7437 -7502.0170 295.4720 13.6394 61.7848 30240.5823 -205.4341 -157.4329
ENERGY: 600000 2.3634 3.2210 4.7473 0.0000 -10693.1845 1449.0698 0.0000 0.0000 1783.1420 -7450.6409 303.0967 -9233.7829 -7468.2355 300.3803 162.0051 305.6367 30103.7403 -124.6712 -61.0123
ENERGY: 900000 5.2203 4.1706 4.9678 0.0000 -10575.5811 1344.0309 0.0000 0.0000 1758.6127 -7458.5788 298.9273 -9217.1915 -7473.4188 300.2502 -950.5928 -875.7704 30840.7174 -140.0969 -70.9185
ENERGY: 1200000 2.1987 5.1223 3.6601 0.0000 -10714.7368 1409.2687 0.0000 0.0000 1722.2360 -7572.2510 292.7440 -9294.4870 -7477.7410 301.7361 -154.9624 -115.7712 30448.6137 -149.3664 -80.8248
ENERGY: 1500000 4.7107 5.1864 4.1023 0.0000 -10580.4928 1368.3672 0.0000 0.0000 1805.5818 -7392.5443 306.9110 -9198.1261 -7470.8595 301.8277 -599.9950 -522.4867 30786.9204 -174.4846 -112.4484
TCL: Running FEP window  13: Lambda1 0.6    Lambda2 0.65   [dLambda 0.050000000000000044]
TCL: Setting parameter firsttimestep to 0
TCL: Setting parameter alchLambda to 0.6
Info: NONBONDED TABLE R-SQUARED SPACING: 0.0625
Info: NONBONDED TABLE SIZE: 705 POINTS
TCL: Setting parameter alchLambda2 to 0.65
Info: NONBONDED TABLE R-SQUARED SPACING: 0.0625
Info: NONBONDED TABLE SIZE: 705 POINTS
TCL: Running for 1500000 steps
ETITLE: TS BOND ANGLE DIHED IMPRP ELECT VDW BOUNDARY MISC KINETIC TOTAL TEMP POTENTIAL TOTALAVG TEMPAVG PRESSURE GPRESSURE VOLUME PRESSAVG GPRESSAVG
ENERGY: 0 4.7107 5.1864 4.1023 0.0000 -10581.1311 1368.1968 0.0000 0.0000 1804.6339 -7394.3009 306.7499 -9198.9348 -7394.3009 306.7499 -599.4882 -516.8581 30786.9204 -599.4882 -516.8581
ENERGY: 300000 2.0058 6.0493 6.6646 0.0000 -10661.8028 1417.2970 0.0000 0.0000 1803.4391 -7426.3472 306.5468 -9229.7862 -7450.6308 302.9154 234.9636 240.2505 30059.8139 -394.1709 -319.6386
ENERGY: 600000 1.4532 5.7726 6.9785 0.0000 -10644.8056 1436.4766 0.0000 0.0000 1762.4608 -7431.6639 299.5814 -9194.1247 -7456.3053 302.0325 -289.0763 -237.4557 31123.8592 -28.5605 45.5182
ENERGY: 900000 2.2508 7.2126 3.2122 0.0000 -10413.8653 1300.0072 0.0000 0.0000 1780.8588 -7320.3237 302.7086 -9101.1825 -7445.3450 301.7644 -717.4018 -641.5928 30696.9536 -103.9953 -31.5594
ENERGY: 1200000 1.6668 4.9088 4.6584 0.0000 -10613.0325 1347.4075 0.0000 0.0000 1728.4107 -7525.9804 293.7936 -9254.3911 -7457.2943 301.0480 -758.2641 -764.4487 30472.5575 -120.1455 -53.7399
ENERGY: 1500000 2.3916 5.2792 7.0687 0.0000 -10686.0395 1419.2962 0.0000 0.0000 1725.0104 -7526.9934 293.2156 -9252.0038 -7467.4110 300.6048 -195.9172 -93.1854 30510.5260 -187.2507 -116.8076
TCL: Running FEP window  14: Lambda1 0.65   Lambda2 0.7000000000000001 [dLambda 0.050000000000000044]
TCL: Setting parameter firsttimestep to 0
TCL: Setting parameter alchLambda to 0.65
Info: NONBONDED TABLE R-SQUARED SPACING: 0.0625
Info: NONBONDED TABLE SIZE: 705 POINTS
TCL: Setting parameter alchLambda2 to 0.7000000000000001
Info: NONBONDED TABLE R-SQUARED SPACING: 0.0625
Info: NONBONDED TABLE SIZE: 705 POINTS
TCL: Running for 1500000 steps
ETITLE: TS BOND ANGLE DIHED IMPRP ELECT VDW BOUNDARY MISC KINETIC TOTAL TEMP POTENTIAL TOTALAVG TEMPAVG PRESSURE GPRESSURE VOLUME PRESSAVG GPRESSAVG
ENERGY: 0 2.3915 5.2792 7.0687 0.0000 -10686.1885 1419.1400 0.0000 0.0000 1724.1230 -7528.1861 293.0647 -9252.3091 -7528.1861 293.0647 -169.1655 -86.6501 30510.5260 -169.1655 -86.6501
ENERGY: 300000 6.0195 2.8773 5.2342 0.0000 -10717.2088 1428.0805 0.0000 0.0000 1742.0085 -7532.9887 296.1049 -9274.9972 -7507.6350 297.1436 -13.0330 -13.0936 30536.6786 -156.2151 -106.8060
ENERGY: 600000 1.5641 6.3122 4.3519 0.0000 -10567.5204 1320.9326 0.0000 0.0000 1791.1342 -7443.2254 304.4552 -9234.3596 -7485.9040 299.6084 -1076.4037 -987.2526 30794.5378 -265.4001 -209.3788
ENERGY: 900000 3.8048 7.1408 5.6004 0.0000 -10572.0984 1397.1255 0.0000 0.0000 1758.1141 -7400.3128 298.8425 -9158.4269 -7489.6678 298.8890 -284.7531 -256.0460 30806.8344 -181.9249 -134.9600
ENERGY: 1200000 2.8818 6.0727 6.9616 0.0000 -10585.7228 1382.0687 0.0000 0.0000 1798.3872 -7389.3507 305.6881 -9187.7379 -7481.4603 299.8989 -128.8875 -63.8594 30382.5037 -280.7401 -225.4308
ENERGY: 1500000 3.6561 3.4796 5.1418 0.0000 -10687.6622 1419.4765 0.0000 0.0000 1828.8983 -7427.0099 310.8743 -9255.9082 -7476.2000 301.2502 -71.7254 22.2790 30496.3937 -171.2046 -112.1519
TCL: Running FEP window  15: Lambda1 0.7000000000000001 Lambda2 0.7500000000000001 [dLambda 0.050000000000000044]
TCL: Setting parameter firsttimestep to 0
TCL: Setting parameter alchLambda to 0.7000000000000001
Info: NONBONDED TABLE R-SQUARED SPACING: 0.0625
Info: NONBONDED TABLE SIZE: 705 POINTS
TCL: Setting parameter alchLambda2 to 0.7500000000000001
Info: NONBONDED TABLE R-SQUARED SPACING: 0.0625
Info: NONBONDED TABLE SIZE: 705 POINTS
TCL: Running for 1500000 steps
ETITLE: TS BOND ANGLE DIHED IMPRP ELECT VDW BOUNDARY MISC KINETIC TOTAL TEMP POTENTIAL TOTALAVG TEMPAVG PRESSURE GPRESSURE VOLUME PRESSAVG GPRESSAVG
ENERGY: 0 3.6561 3.4796 5.1418 0.0000 -10688.0720 1419.0465 0.0000 0.0000 1828.0153 -7428.7327 310.7242 -9256.7480 -7428.7327 310.7242 -64.7644 29.8691 30496.3937 -64.7644 29.8691
ENERGY: 300000 2.0679 9.0616 4.4061 0.0000 -10731.9635 1462.7492 0.0000 0.0000 1751.6641 -7502.0145 297.7462 -9253.6787 -7491.7858 301.0330 100.9725 149.5373 30663.4685 -394.6171 -323.1916
ENERGY: 600000 1.5294 4.1891 4.3735 0.0000 -10739.3093 1409.9621 0.0000 0.0000 1764.3560 -7554.8990 299.9035 -9319.2551 -7504.5503 300.2221 -282.0908 -202.7475 30297.3680 -369.8698 -303.6324
ENERGY: 900000 3.1264 4.2811 5.6640 0.0000 -10571.8953 1375.0284 0.0000 0.0000 1730.2685 -7453.5269 294.1093 -9183.7954 -7489.7704 300.2188 -340.7235 -281.5292 30665.4156 -358.6013 -294.4303
ENERGY: 1200000 1.6635 6.0750 5.2330 0.0000 -10840.5058 1555.9404 0.0000 0.0000 1722.0581 -7549.5358 292.7137 -9271.5939 -7489.0337 299.9749 910.9054 967.6407 30311.1939 -228.1957 -170.9072
ENERGY: 1500000 1.5668 3.0029 7.1193 0.0000 -10658.5126 1418.3414 0.0000 0.0000 1731.6696 -7496.8125 294.3475 -9228.4821 -7495.7935 299.1441 -266.5472 -217.0924 30839.8506 -202.9019 -151.7020
TCL: Running FEP window  16: Lambda1 0.7500000000000001 Lambda2 0.8000000000000002 [dLambda 0.050000000000000044]
TCL: Setting parameter firsttimestep to 0
TCL: Setting parameter alchLambda to 0.7500000000000001
Info: NONBONDED TABLE R-SQUARED SPACING: 0.0625
Info: NONBONDED TABLE SIZE: 705 POINTS
TCL: Setting parameter alchLambda2 to 0.8000000000000002
Info: NONBONDED TABLE R-SQUARED SPACING: 0.0625
Info: NONBONDED TABLE SIZE: 705 POINTS
TCL: Running for 1500000 steps
ETITLE: TS BOND ANGLE DIHED IMPRP ELECT VDW BOUNDARY MISC KINETIC TOTAL TEMP POTENTIAL TOTALAVG TEMPAVG PRESSURE GPRESSURE VOLUME PRESSAVG GPRESSAVG
ENERGY: 0 1.5668 3.0029 7.1193 0.0000 -10658.9028 1418.6943 0.0000 0.0000 1730.7579 -7497.7615 294.1925 -9228.5194 -7497.7615 294.1925 -289.7202 -202.6111 30839.8506 -289.7202 -202.6111
ENERGY: 300000 1.9794 4.5486 5.3916 0.0000 -10677.6523 1381.2972 0.0000 0.0000 1763.6738 -7520.7618 299.7875 -9284.4356 -7527.8374 301.0235 -681.2715 -549.8480 30504.5536 -155.1805 -53.9216
ENERGY: 600000 3.4722 5.1244 5.5602 0.0000 -10706.8568 1420.4379 0.0000 0.0000 1742.4135 -7529.8487 296.1737 -9272.2622 -7540.4080 298.4943 78.0519 115.7545 29843.2428 97.5732 175.2925
ENERGY: 900000 2.7842 5.8255 6.8684 0.0000 -10746.5963 1424.6424 0.0000 0.0000 1800.8366 -7505.6392 306.1044 -9306.4758 -7524.7110 299.9726 -342.6915 -289.3322 30526.1237 21.6891 90.2825
ENERGY: 1200000 2.4068 5.7019 4.5600 0.0000 -10733.3926 1454.8433 0.0000 0.0000 1753.9385 -7511.9422 298.1328 -9265.8807 -7511.1918 299.7344 60.0526 99.3605 30522.8646 85.4320 145.8797
ENERGY: 1500000 1.9114 5.3479 4.9506 0.0000 -10657.6820 1380.7809 0.0000 0.0000 1756.9231 -7507.7681 298.6401 -9264.6912 -7507.0222 300.0174 -548.9163 -469.4697 30606.8682 88.2839 143.4423
TCL: Running FEP window  17: Lambda1 0.8000000000000002 Lambda2 0.8500000000000002 [dLambda 0.050000000000000044]
TCL: Setting parameter firsttimestep to 0
TCL: Setting parameter alchLambda to 0.8000000000000002
Info: NONBONDED TABLE R-SQUARED SPACING: 0.0625
Info: NONBONDED TABLE SIZE: 705 POINTS
TCL: Setting parameter alchLambda2 to 0.8500000000000002
Info: NONBONDED TABLE R-SQUARED SPACING: 0.0625
Info: NONBONDED TABLE SIZE: 705 POINTS
TCL: Running for 1500000 steps
ETITLE: TS BOND ANGLE DIHED IMPRP ELECT VDW BOUNDARY MISC KINETIC TOTAL TEMP POTENTIAL TOTALAVG TEMPAVG PRESSURE GPRESSURE VOLUME PRESSAVG GPRESSAVG
ENERGY: 0 1.9114 5.3479 4.9506 0.0000 -10658.4125 1381.0800 0.0000 0.0000 1756.0064 -7509.1162 298.4842 -9265.1226 -7509.1162 298.4842 -542.3807 -456.0931 30606.8682 -542.3807 -456.0931
ENERGY: 300000 3.7087 3.3428 7.0824 0.0000 -10570.2338 1321.4675 0.0000 0.0000 1787.6575 -7446.9750 303.8643 -9234.6324 -7501.8077 297.7788 -866.2549 -880.1657 30619.2397 -365.0876 -302.5967
ENERGY: 600000 1.3403 4.3417 7.8616 0.0000 -10899.1312 1552.4884 0.0000 0.0000 1768.3533 -7564.7458 300.5830 -9333.0991 -7509.5807 299.1433 737.4598 839.9796 30206.3989 -43.6006 32.2303
ENERGY: 900000 2.5559 6.1535 8.5879 0.0000 -10716.9804 1414.7982 0.0000 0.0000 1783.1457 -7501.7391 303.0974 -9284.8848 -7508.6478 299.5335 -189.0664 -123.9585 30245.1166 -172.4964 -93.1464
ENERGY: 1200000 4.6773 5.4257 4.7759 0.0000 -10753.9377 1392.5926 0.0000 0.0000 1725.2303 -7621.2359 293.2530 -9346.4661 -7519.2887 298.3701 -534.6098 -483.9819 30389.3471 -198.0475 -127.2976
ENERGY: 1500000 3.1119 3.6155 6.4969 0.0000 -10912.2307 1553.4951 0.0000 0.0000 1750.0514 -7595.4598 297.4720 -9345.5112 -7514.6163 298.4304 443.1483 437.4394 30547.2676 -118.0810 -51.7999
TCL: Running FEP window  18: Lambda1 0.8500000000000002 Lambda2 0.9000000000000002 [dLambda 0.050000000000000044]
TCL: Setting parameter firsttimestep to 0
TCL: Setting parameter alchLambda to 0.8500000000000002
Info: NONBONDED TABLE R-SQUARED SPACING: 0.0625
Info: NONBONDED TABLE SIZE: 705 POINTS
TCL: Setting parameter alchLambda2 to 0.9000000000000002
Info: NONBONDED TABLE R-SQUARED SPACING: 0.0625
Info: NONBONDED TABLE SIZE: 705 POINTS
TCL: Running for 1500000 steps
ETITLE: TS BOND ANGLE DIHED IMPRP ELECT VDW BOUNDARY MISC KINETIC TOTAL TEMP POTENTIAL TOTALAVG TEMPAVG PRESSURE GPRESSURE VOLUME PRESSAVG GPRESSAVG
ENERGY: 0 3.1119 3.6155 6.4969 0.0000 -10913.8349 1553.3499 0.0000 0.0000 1749.1467 -7598.1139 297.3182 -9347.2606 -7598.1139 297.3182 355.5766 441.6834 30547.2676 355.5766 441.6834
ENERGY: 300000 1.9641 5.2460 4.4163 0.0000 -10826.4739 1423.2564 0.0000 0.0000 1728.4024 -7663.1887 293.7921 -9391.5911 -7539.5540 300.6135 -316.5922 -209.0697 30212.0365 224.4735 313.4213
ENERGY: 600000 1.7837 5.5696 4.3758 0.0000 -10630.7046 1393.7773 0.0000 0.0000 1793.4158 -7431.7823 304.8431 -9225.1981 -7541.3774 299.6153 -253.5953 -226.8021 30437.8895 -82.5021 -8.5056
ENERGY: 900000 4.5650 2.4714 6.0542 0.0000 -10658.3895 1363.4360 0.0000 0.0000 1772.3523 -7509.5106 301.2627 -9281.8629 -7538.0029 300.3055 -1009.0033 -932.4129 31315.9826 -93.2573 -20.3594
ENERGY: 1200000 2.6803 8.2296 6.0461 0.0000 -10767.4096 1499.0781 0.0000 0.0000 1729.9036 -7521.4719 294.0473 -9251.3755 -7535.7291 300.1861 631.3357 730.3413 30047.4080 -100.8508 -30.0860
ENERGY: 1500000 3.1523 9.1187 5.1912 0.0000 -10609.8887 1364.1114 0.0000 0.0000 1828.3098 -7400.0052 310.7743 -9228.3150 -7526.6061 300.4955 -578.2816 -487.7600 30522.9662 -165.8367 -96.0865
TCL: Running FEP window  19: Lambda1 0.9000000000000002 Lambda2 0.9500000000000003 [dLambda 0.050000000000000044]
TCL: Setting parameter firsttimestep to 0
TCL: Setting parameter alchLambda to 0.9000000000000002
Info: NONBONDED TABLE R-SQUARED SPACING: 0.0625
Info: NONBONDED TABLE SIZE: 705 POINTS
TCL: Setting parameter alchLambda2 to 0.9500000000000003
Info: NONBONDED TABLE R-SQUARED SPACING: 0.0625
Info: NONBONDED TABLE SIZE: 705 POINTS
TCL: Running for 1500000 steps
ETITLE: TS BOND ANGLE DIHED IMPRP ELECT VDW BOUNDARY MISC KINETIC TOTAL TEMP POTENTIAL TOTALAVG TEMPAVG PRESSURE GPRESSURE VOLUME PRESSAVG GPRESSAVG
ENERGY: 0 3.1523 9.1187 5.1912 0.0000 -10612.9806 1365.5712 0.0000 0.0000 1827.4183 -7402.5289 310.6228 -9229.9472 -7402.5289 310.6228 -542.1883 -467.3515 30522.9662 -542.1883 -467.3515
ENERGY: 300000 2.4322 2.6486 5.9806 0.0000 -10747.6055 1455.6462 0.0000 0.0000 1692.6423 -7588.2555 287.7137 -9280.8979 -7499.0704 300.6844 7.5471 8.9225 30555.9850 -40.7180 -1.6061
ENERGY: 600000 1.6915 4.1531 4.7804 0.0000 -10644.0790 1411.8120 0.0000 0.0000 1758.9881 -7462.6539 298.9911 -9221.6420 -7494.6774 301.4799 73.6013 157.5498 30334.6708 -51.1904 -0.0494
ENERGY: 900000 4.4885 4.3338 4.5033 0.0000 -10607.9889 1354.5855 0.0000 0.0000 1817.3635 -7422.7144 308.9137 -9240.0779 -7490.5690 300.6518 -610.3912 -512.3894 30368.9629 -139.5836 -83.0575
ENERGY: 1200000 3.2208 6.9788 5.4102 0.0000 -10662.2311 1399.7294 0.0000 0.0000 1772.6268 -7474.2651 301.3094 -9246.8919 -7493.9827 300.4445 -513.8621 -467.1098 30789.5227 -185.6240 -131.5995
ENERGY: 1500000 1.0676 5.0506 6.5915 0.0000 -10688.3696 1378.7763 0.0000 0.0000 1737.0984 -7559.7851 295.2703 -9296.8835 -7502.9650 300.4351 -487.4186 -467.5750 30306.5627 -213.6203 -161.6813
TCL: Running FEP window  20: Lambda1 0.9500000000000003 Lambda2 1.0    [dLambda 0.04999999999999971]
TCL: Setting parameter firsttimestep to 0
TCL: Setting parameter alchLambda to 0.9500000000000003
Info: NONBONDED TABLE R-SQUARED SPACING: 0.0625
Info: NONBONDED TABLE SIZE: 705 POINTS
TCL: Setting parameter alchLambda2 to 1.0
Info: NONBONDED TABLE R-SQUARED SPACING: 0.0625
Info: NONBONDED TABLE SIZE: 705 POINTS
TCL: Running for 1500000 steps
ETITLE: TS BOND ANGLE DIHED IMPRP ELECT VDW BOUNDARY MISC KINETIC TOTAL TEMP POTENTIAL TOTALAVG TEMPAVG PRESSURE GPRESSURE VOLUME PRESSAVG GPRESSAVG
ENERGY: 0 1.0676 5.0506 6.5915 0.0000 -10689.5989 1379.0755 0.0000 0.0000 1736.1920 -7561.6216 295.1162 -9297.8137 -7561.6216 295.1162 -525.4309 -455.6358 30306.5627 -525.4309 -455.6358
ENERGY: 300000 2.4510 5.5431 5.3039 0.0000 -10704.7951 1402.4604 0.0000 0.0000 1743.9533 -7545.0834 296.4355 -9289.0367 -7519.3165 297.4749 -204.0593 -201.7265 30216.0008 -433.0576 -406.9021
ENERGY: 600000 4.6041 6.0813 6.7829 0.0000 -10631.9343 1406.8302 0.0000 0.0000 1794.9134 -7412.7225 305.0976 -9207.6358 -7505.9661 299.2781 -104.8878 -72.5461 30545.9298 -129.9335 -106.1986
ENERGY: 900000 3.5993 2.9897 4.8063 0.0000 -10619.9353 1381.8063 0.0000 0.0000 1747.7011 -7479.0327 297.0725 -9226.7338 -7503.0407 298.9207 -540.1317 -515.9027 30870.5611 -152.7418 -110.3555
ENERGY: 1200000 1.7924 6.0815 3.5464 0.0000 -10734.2243 1456.5959 0.0000 0.0000 1752.2073 -7514.0009 297.8385 -9266.2082 -7505.3689 299.0425 249.9185 308.3502 30268.3756 -152.5670 -110.2451
ENERGY: 1500000 2.1242 3.2344 4.1596 0.0000 -10582.6144 1339.4122 0.0000 0.0000 1760.6635 -7473.0207 299.2759 -9233.6841 -7513.3122 298.6464 -624.5812 -489.3423 30604.4446 -177.8608 -129.5114
TCL: Exiting due to exit command.
