Info: SIMULATION PARAMETERS:
Info: TIMESTEP               2
Info: NUMBER OF STEPS        0
Info: STEPS PER CYCLE        10
Info: PERIODIC CELL BASIS 1  28.6221 0 0
Info: PERIODIC CELL BASIS 2  0 30.3919 0
Info: PERIODIC CELL BASIS 3  0 0 34.7023
Info: PERIODIC CELL CENTER   0 0 0
Info: WRAPPING WATERS AROUND PERIODIC BOUNDARIES ON OUTPUT.
Info: WRAPPING ALL CLUSTERS AROUND PERIODIC BOUNDARIES ON OUTPUT.
Info: FIRST LDB TIMESTEP     50
Info: LAST LDB TIMESTEP     -1
Info: HOM BACKGROUND SCALING 1
Info: PME BACKGROUND SCALING 1
Info: MIN ATOMS PER PATCH    40
Info: EMPTY PATCH LOAD       40 ATOMS
Info: VELOCITY FILE          mobley_5538249_equil.vel
Info: CENTER OF MASS MOVING INITIALLY? NO
Info: DIELECTRIC             1
Info: EXCLUDE                SCALED ONE-FOUR
Info: 1-4 ELECTROSTATICS SCALED BY 0.833333
Info: MODIFIED 1-4 VDW PARAMETERS WILL BE USED
Info: DCD FILENAME           mobley_5538249_prod.dcd
Info: DCD FREQUENCY          100000
Info: DCD FIRST STEP         100000
Info: DCD FILE WILL CONTAIN UNIT CELL DATA
Info: XST FILENAME           mobley_5538249_prod.xst
Info: XST FREQUENCY          100000
Info: NO VELOCITY DCD OUTPUT
Info: NO FORCE DCD OUTPUT
Info: OUTPUT FILENAME        mobley_5538249_prod
Info: BINARY OUTPUT FILES WILL BE USED
Info: RESTART FILENAME       mobley_5538249_prod.restart
Info: RESTART FREQUENCY      100000
Info: BINARY RESTART FILES WILL BE USED
Info: CUTOFF                 9
Info: PAIRLIST DISTANCE      11
Info: PAIRLIST SHRINK RATE   0.01
Info: PAIRLIST GROW RATE     0.01
Info: PAIRLIST TRIGGER       0.3
Info: PAIRLISTS PER CYCLE    2
Info: PAIRLISTS ENABLED
Info: MARGIN                 2
Info: HYDROGEN GROUP CUTOFF  2.5
Info: PATCH DIMENSION        15.5
Info: ENERGY OUTPUT STEPS    100000
Info: ENERGY EVALUATION STEPS    100000
Info: OUTPUT ENERGY PRECISION 4
Info: CROSSTERM ENERGY INCLUDED IN DIHEDRAL
Info: TIMING OUTPUT STEPS    1000000
Info: PRESSURE OUTPUT STEPS  100000
Info: ALCHEMICAL FEP ON
Info: FEP CURRENT LAMBDA VALUE     0
Info: FEP COMPARISON LAMBDA VALUE  0.05
Info: FEP INTRA-ALCHEMICAL NON-BONDED INTERACTIONS WILL BE RETAINED
Info: FEP INTRA-ALCHEMICAL BONDED INTERACTIONS WILL BE RETAINED
Info: FEP VDW SHIFTING COEFFICIENT 5
Info: FEP ELEC. ACTIVE FOR ANNIHILATED PARTICLES BETWEEN LAMBDA = 0 AND LAMBDA = 0.5
Info: FEP ELEC. ACTIVE FOR EXNIHILATED PARTICLES BETWEEN LAMBDA = 0.5 AND LAMBDA = 1
Info: FEP VDW ACTIVE FOR ANNIHILATED PARTICLES BETWEEN LAMBDA = 0 AND LAMBDA = 1
Info: FEP VDW ACTIVE FOR EXNIHILATED PARTICLES BETWEEN LAMBDA = 0 AND LAMBDA = 1
Info: FEP BOND ACTIVE FOR ANNIHILATED PARTICLES BETWEEN LAMBDA = 1 AND LAMBDA = 1
Info: FEP BOND ACTIVE FOR EXNIHILATED PARTICLES BETWEEN LAMBDA = 0 AND LAMBDA = 0
Info: LANGEVIN DYNAMICS ACTIVE
Info: LANGEVIN TEMPERATURE   300
Info: LANGEVIN USING BBK INTEGRATOR
Info: LANGEVIN DAMPING COEFFICIENT IS 1 INVERSE PS
Info: LANGEVIN DYNAMICS APPLIED TO HYDROGENS
Info: LANGEVIN PISTON PRESSURE CONTROL ACTIVE
Info:        TARGET PRESSURE IS 1.01325 BAR
Info:     OSCILLATION PERIOD IS 50 FS
Info:             DECAY TIME IS 25 FS
Info:     PISTON TEMPERATURE IS 300 K
Info:       PRESSURE CONTROL IS GROUP-BASED
Info:    INITIAL STRAIN RATE IS 0.000207627 0.000207627 0.000207627
Info:       CELL FLUCTUATION IS ISOTROPIC
Info: PARTICLE MESH EWALD (PME) ACTIVE
Info: PME TOLERANCE               1e-06
Info: PME EWALD COEFFICIENT       0.348832
Info: PME INTERPOLATION ORDER     4
Info: PME GRID DIMENSIONS         32 32 36
Info: PME MAXIMUM GRID SPACING    1
Info: PME CALCULATION WILL BE PERFORMED ON GPU
Info: FULL ELECTROSTATIC EVALUATION FREQUENCY      2
Info: USING VERLET I (r-RESPA) MTS SCHEME.
Info: C1 SPLITTING OF LONG RANGE ELECTROSTATICS
Info: PLACING ATOMS IN PATCHES BY HYDROGEN GROUPS
Info: RIGID BONDS TO HYDROGEN : ALL
Info:         ERROR TOLERANCE : 1e-08
Info:          MAX ITERATIONS : 100
Info: RIGID WATER USING SETTLE ALGORITHM
Info: RANDOM NUMBER SEED     1743803521
Info: USE HYDROGEN BONDS?    NO
Info: Using AMBER format force field!
Info: AMBER PARM FILE        mobley_5538249.prmtop
Info: COORDINATE PDB         mobley_5538249.pdb
Info: Exclusions will be read from PARM file!
Info: SCNB (VDW SCALING)     2
Info: USING ARITHMETIC MEAN TO COMBINE L-J SIGMA PARAMETERS
Info: BINARY COORDINATES     mobley_5538249_equil.coor
Info: SUMMARY OF PARAMETERS:
Info: 7 BONDS
Info: 8 ANGLES
Info:   8 HARMONIC
Info:   0 COSINE-BASED
Info: 3 DIHEDRAL
Info: 0 IMPROPER
Info: 0 CROSSTERM
Info: 0 VDW
Info: 15 VDW_PAIRS
Info: 0 NBTHOLE_PAIRS
Info: To read alchdata from file: mobley_5538249.pdb
Info: To read alchflag data from column: 5
Info: STRUCTURE SUMMARY:
Info: 2914 ATOMS
Info: 2915 BONDS
Info: 36 ANGLES
Info: 64 DIHEDRALS
Info: 0 IMPROPERS
Info: 0 CROSSTERMS
Info: 2997 EXCLUSIONS
Info: 2899 RIGID BONDS
Info: ALCH: 0 ATOMS TO DISAPPEAR IN FINAL STATE
Info: ALCH: 22 ATOMS TO APPEAR IN FINAL STATE
Info: 5843 DEGREES OF FREEDOM
Info: 979 HYDROGEN GROUPS
Info: 3 ATOMS IN LARGEST HYDROGEN GROUP
Info: 979 MIGRATION GROUPS
Info: 3 ATOMS IN LARGEST MIGRATION GROUP
Info: TOTAL MASS = 17625 amu
Info: TOTAL CHARGE = 1.11759e-08 e
Info: MASS DENSITY = 0.969551 g/cm^3
Info: ATOM DENSITY = 0.0965324 atoms/A^3
Info: ADDED 0 IMPLICIT EXCLUSIONS
Info: NONBONDED TABLE R-SQUARED SPACING: 0.0625
Info: NONBONDED TABLE SIZE: 705 POINTS
Info: REMOVING COM VELOCITY -0.00614031 -0.217571 -0.166416
Info: Use 3D box decompostion in PME FFT.
Info: Updated CUDA force table with 4096 elements.
Info: Updated CUDA LJ table with 5 x 5 elements.
Info: Found 24 unique exclusion lists needing 72 bytes
TCL: Running for 1500000 steps
ETITLE: TS BOND ANGLE DIHED IMPRP ELECT VDW BOUNDARY MISC KINETIC TOTAL TEMP POTENTIAL TOTALAVG TEMPAVG PRESSURE GPRESSURE VOLUME PRESSAVG GPRESSAVG
ENERGY: 0 5.1853 9.2652 11.8619 0.0000 -10641.6263 1474.3530 0.0000 0.0000 1739.2393 -7401.7215 299.5807 -9140.9609 -7401.7215 299.5807 109.8217 190.0873 30186.7696 109.8217 190.0873
ENERGY: 300000 4.1427 5.0444 17.3707 0.0000 -10354.3688 1305.9021 0.0000 0.0000 1678.0176 -7343.8913 289.0354 -9021.9089 -7383.3838 292.6504 -983.8981 -990.4197 30232.2466 -298.8341 -236.9469
ENERGY: 600000 3.8335 5.6192 11.1301 0.0000 -10400.6672 1323.5073 0.0000 0.0000 1726.5901 -7329.9871 297.4019 -9056.5772 -7384.3967 293.9086 -596.0266 -534.7076 29644.7462 -250.0839 -192.3470
ENERGY: 900000 5.0952 5.5236 12.8258 0.0000 -10511.4316 1444.0910 0.0000 0.0000 1773.4445 -7270.4516 305.4725 -9043.8960 -7359.9147 296.5606 264.1760 342.6150 29761.8487 -111.6507 -53.8370
ENERGY: 1200000 3.8286 4.8631 13.3974 0.0000 -10407.5308 1420.6952 0.0000 0.0000 1721.3268 -7243.4197 296.4953 -8964.7465 -7338.5342 297.0730 293.3806 331.2473 30185.3061 -39.1009 21.8808
ENERGY: 1500000 3.6351 3.7524 11.7902 0.0000 -10543.3600 1439.7603 0.0000 0.0000 1735.8339 -7348.5882 298.9941 -9084.4221 -7345.3992 297.7541 409.6563 452.2784 29783.8754 -6.8683 54.3069
TCL: Running FEP window   2: Lambda1 0.05   Lambda2 0.1    [dLambda 0.05  ]
TCL: Setting parameter firsttimestep to 0
TCL: Setting parameter alchLambda to 0.05
Info: NONBONDED TABLE R-SQUARED SPACING: 0.0625
Info: NONBONDED TABLE SIZE: 705 POINTS
TCL: Setting parameter alchLambda2 to 0.1
Info: NONBONDED TABLE R-SQUARED SPACING: 0.0625
Info: NONBONDED TABLE SIZE: 705 POINTS
TCL: Running for 1500000 steps
ETITLE: TS BOND ANGLE DIHED IMPRP ELECT VDW BOUNDARY MISC KINETIC TOTAL TEMP POTENTIAL TOTALAVG TEMPAVG PRESSURE GPRESSURE VOLUME PRESSAVG GPRESSAVG
ENERGY: 0 3.6351 3.7524 11.7902 0.0000 -10543.3598 1446.8211 0.0000 0.0000 1735.0097 -7342.3514 298.8522 -9077.3611 -7342.3514 298.8522 379.4708 468.7428 29783.8754 379.4708 468.7428
ENERGY: 300000 8.4862 4.0559 12.0023 0.0000 -10648.8591 1465.4078 0.0000 0.0000 1692.8724 -7466.0345 291.5941 -9158.9069 -7393.1329 294.8868 84.6439 145.1501 29390.5095 147.0355 228.9821
ENERGY: 600000 3.6988 6.5611 12.2629 0.0000 -10534.6326 1455.2336 0.0000 0.0000 1771.6661 -7285.2100 305.1662 -9056.8761 -7368.0223 298.6106 326.3559 480.8976 29759.2211 112.0260 194.9220
ENERGY: 900000 5.1824 3.9834 11.2492 0.0000 -10439.8633 1381.0247 0.0000 0.0000 1730.3611 -7308.0626 298.0514 -9038.4237 -7366.2728 298.8888 -95.9216 -45.1617 29480.2993 93.3690 165.0394
ENERGY: 1200000 10.1918 7.6331 10.5915 0.0000 -10607.8676 1476.3416 0.0000 0.0000 1717.0794 -7386.0302 295.7637 -9103.1096 -7372.0654 298.1669 201.2733 281.7084 29506.2603 27.5913 96.5630
ENERGY: 1500000 7.2502 6.7719 13.0921 0.0000 -10533.1087 1456.2683 0.0000 0.0000 1742.0072 -7307.7189 300.0575 -9049.7261 -7368.9606 298.7753 77.9035 143.5964 30087.5936 6.3257 72.7948
TCL: Running FEP window   3: Lambda1 0.1    Lambda2 0.15000000000000002 [dLambda 0.05000000000000002]
TCL: Setting parameter firsttimestep to 0
TCL: Setting parameter alchLambda to 0.1
Info: NONBONDED TABLE R-SQUARED SPACING: 0.0625
Info: NONBONDED TABLE SIZE: 705 POINTS
TCL: Setting parameter alchLambda2 to 0.15000000000000002
Info: NONBONDED TABLE R-SQUARED SPACING: 0.0625
Info: NONBONDED TABLE SIZE: 705 POINTS
TCL: Running for 1500000 steps
ETITLE: TS BOND ANGLE DIHED IMPRP ELECT VDW BOUNDARY MISC KINETIC TOTAL TEMP POTENTIAL TOTALAVG TEMPAVG PRESSURE GPRESSURE VOLUME PRESSAVG GPRESSAVG
ENERGY: 0 7.2502 6.7719 13.0921 0.0000 -10533.1075 1462.6380 0.0000 0.0000 1741.1497 -7302.2055 299.9098 -9043.3552 -7302.2055 299.9098 79.8519 160.2160 30087.5936 79.8519 160.2160
ENERGY: 300000 6.6375 5.8885 12.1744 0.0000 -10558.8089 1441.0175 0.0000 0.0000 1762.5010 -7330.5901 303.5875 -9093.0912 -7343.4440 301.3930 -165.9234 -92.3539 30067.7958 64.8416 152.9446
ENERGY: 600000 2.5609 6.7563 14.1230 0.0000 -10547.1800 1461.1259 0.0000 0.0000 1712.5291 -7350.0847 294.9799 -9062.6138 -7374.4919 296.2163 524.8741 541.7744 29746.0722 235.9340 315.6639
ENERGY: 900000 5.7226 5.5969 13.3428 0.0000 -10563.6247 1494.1199 0.0000 0.0000 1815.8824 -7228.9600 312.7823 -9044.8424 -7359.3007 297.3327 594.1566 663.3388 29699.1779 211.8835 285.4222
ENERGY: 1200000 2.7595 6.9892 12.6315 0.0000 -10563.0709 1411.0856 0.0000 0.0000 1753.9624 -7375.6427 302.1167 -9129.6052 -7358.1199 298.7673 -106.6230 -84.6559 29757.1265 113.8287 175.1863
ENERGY: 1500000 1.9623 7.0004 13.7225 0.0000 -10489.0794 1378.2792 0.0000 0.0000 1732.2340 -7355.8810 298.3741 -9088.1150 -7360.3285 298.4685 -591.8627 -502.4935 30324.1894 77.2354 140.4847
TCL: Running FEP window   4: Lambda1 0.15000000000000002 Lambda2 0.2    [dLambda 0.04999999999999999]
TCL: Setting parameter firsttimestep to 0
TCL: Setting parameter alchLambda to 0.15000000000000002
Info: NONBONDED TABLE R-SQUARED SPACING: 0.0625
Info: NONBONDED TABLE SIZE: 705 POINTS
TCL: Setting parameter alchLambda2 to 0.2
Info: NONBONDED TABLE R-SQUARED SPACING: 0.0625
Info: NONBONDED TABLE SIZE: 705 POINTS
TCL: Running for 1500000 steps
ETITLE: TS BOND ANGLE DIHED IMPRP ELECT VDW BOUNDARY MISC KINETIC TOTAL TEMP POTENTIAL TOTALAVG TEMPAVG PRESSURE GPRESSURE VOLUME PRESSAVG GPRESSAVG
ENERGY: 0 1.9623 7.0004 13.7225 0.0000 -10489.0780 1378.4566 0.0000 0.0000 1731.3769 -7356.5593 298.2264 -9087.9363 -7356.5593 298.2264 -578.5720 -498.5176 30324.1894 -578.5720 -498.5176
ENERGY: 300000 3.8110 4.9676 10.4322 0.0000 -10407.9890 1327.6193 0.0000 0.0000 1705.8797 -7355.2792 293.8346 -9061.1589 -7355.5310 300.0801 -622.0811 -615.5751 29765.8365 -150.5038 -93.2059
ENERGY: 600000 8.1237 2.7693 10.3323 0.0000 -10454.2956 1358.1862 0.0000 0.0000 1695.0377 -7379.8464 291.9671 -9074.8841 -7330.9107 300.4784 -466.8505 -472.5928 29867.8705 -220.7835 -172.8321
ENERGY: 900000 8.9252 3.1882 8.4249 0.0000 -10591.6949 1421.6007 0.0000 0.0000 1762.4729 -7387.0831 303.5826 -9149.5560 -7347.4074 300.7955 -480.4216 -394.1816 29835.4063 -274.8896 -232.1395
ENERGY: 1200000 3.9526 4.8201 9.3981 0.0000 -10500.4390 1382.3556 0.0000 0.0000 1757.6941 -7342.2186 302.7595 -9099.9126 -7350.3452 300.2721 -235.4684 -174.7427 29590.4179 -306.8130 -257.9914
ENERGY: 1500000 7.0860 5.9922 7.8487 0.0000 -10440.5075 1421.4190 0.0000 0.0000 1749.3943 -7248.7674 301.3299 -8998.1617 -7338.0450 300.4768 261.8238 285.7000 29683.9640 -210.0845 -164.6999
TCL: Running FEP window   5: Lambda1 0.2    Lambda2 0.25   [dLambda 0.04999999999999999]
TCL: Setting parameter firsttimestep to 0
TCL: Setting parameter alchLambda to 0.2
Info: NONBONDED TABLE R-SQUARED SPACING: 0.0625
Info: NONBONDED TABLE SIZE: 705 POINTS
TCL: Setting parameter alchLambda2 to 0.25
Info: NONBONDED TABLE R-SQUARED SPACING: 0.0625
Info: NONBONDED TABLE SIZE: 705 POINTS
TCL: Running for 1500000 steps
ETITLE: TS BOND ANGLE DIHED IMPRP ELECT VDW BOUNDARY MISC KINETIC TOTAL TEMP POTENTIAL TOTALAVG TEMPAVG PRESSURE GPRESSURE VOLUME PRESSAVG GPRESSAVG
ENERGY: 0 7.0860 5.9922 7.8487 0.0000 -10440.5077 1421.2177 0.0000 0.0000 1748.5399 -7249.8233 301.1827 -8998.3631 -7249.8233 301.1827 203.2396 288.1159 29683.9640 203.2396 288.1159
ENERGY: 300000 3.1088 5.9703 14.1174 0.0000 -10340.4498 1331.1207 0.0000 0.0000 1757.6907 -7228.4420 302.7589 -8986.1327 -7279.6033 302.3188 -265.1141 -216.1888 30065.1247 17.5012 88.3664
ENERGY: 600000 4.2594 6.3366 10.4145 0.0000 -10590.9472 1475.9161 0.0000 0.0000 1752.6764 -7341.3442 301.8952 -9094.0206 -7307.8090 301.7752 621.1534 653.4916 29928.5172 93.2283 154.6608
ENERGY: 900000 3.3605 6.0981 13.5644 0.0000 -10426.3161 1356.7016 0.0000 0.0000 1757.7914 -7288.8001 302.7763 -9046.5915 -7323.7875 301.0003 -231.9260 -289.1763 29731.7312 -35.6503 14.9799
ENERGY: 1200000 6.6825 4.7475 13.9881 0.0000 -10597.8919 1427.4858 0.0000 0.0000 1770.4372 -7374.5508 304.9545 -9144.9880 -7326.7506 302.4387 -106.7194 12.2638 29704.6386 -33.5424 19.4456
ENERGY: 1500000 7.1992 6.5268 11.1927 0.0000 -10484.0118 1420.8023 0.0000 0.0000 1711.8964 -7326.3945 294.8709 -9038.2909 -7328.9303 301.6266 236.4559 247.4865 29814.1803 -26.5424 24.0401
TCL: Running FEP window   6: Lambda1 0.25   Lambda2 0.3    [dLambda 0.04999999999999999]
TCL: Setting parameter firsttimestep to 0
TCL: Setting parameter alchLambda to 0.25
Info: NONBONDED TABLE R-SQUARED SPACING: 0.0625
Info: NONBONDED TABLE SIZE: 705 POINTS
TCL: Setting parameter alchLambda2 to 0.3
Info: NONBONDED TABLE R-SQUARED SPACING: 0.0625
Info: NONBONDED TABLE SIZE: 705 POINTS
TCL: Running for 1500000 steps
ETITLE: TS BOND ANGLE DIHED IMPRP ELECT VDW BOUNDARY MISC KINETIC TOTAL TEMP POTENTIAL TOTALAVG TEMPAVG PRESSURE GPRESSURE VOLUME PRESSAVG GPRESSAVG
ENERGY: 0 7.1992 6.5268 11.1927 0.0000 -10484.0125 1420.4642 0.0000 0.0000 1710.9538 -7327.6759 294.7086 -9038.6297 -7327.6759 294.7086 189.7440 252.9636 29814.1803 189.7440 252.9636
ENERGY: 300000 4.5610 8.0482 12.5723 0.0000 -10544.6471 1412.7880 0.0000 0.0000 1770.7896 -7335.8879 305.0152 -9106.6775 -7309.7362 298.8290 -40.9520 45.9931 29736.8062 299.2615 368.9703
ENERGY: 600000 4.5570 4.1038 14.0443 0.0000 -10520.7446 1416.6368 0.0000 0.0000 1731.4270 -7349.9757 298.2350 -9081.4027 -7350.7954 297.9516 64.9559 119.6068 29970.4186 162.3473 207.9751
ENERGY: 900000 5.3620 5.8091 10.5355 0.0000 -10564.5818 1462.7156 0.0000 0.0000 1728.7947 -7351.3649 297.7816 -9080.1596 -7339.0290 298.6195 230.3251 293.5047 29897.0412 226.8396 285.5310
ENERGY: 1200000 4.7384 5.3272 14.1505 0.0000 -10535.9440 1377.2272 0.0000 0.0000 1800.8173 -7333.6834 310.1874 -9134.5007 -7338.1485 300.5961 -81.1836 -75.8691 29472.9801 159.0846 217.4833
ENERGY: 1500000 6.1429 5.1744 11.6246 0.0000 -10447.9334 1408.5971 0.0000 0.0000 1760.0103 -7256.3841 303.1585 -9016.3944 -7332.6848 300.5610 0.5184 44.5327 29989.8507 35.8281 90.6386
TCL: Running FEP window   7: Lambda1 0.3    Lambda2 0.35   [dLambda 0.04999999999999999]
TCL: Setting parameter firsttimestep to 0
TCL: Setting parameter alchLambda to 0.3
Info: NONBONDED TABLE R-SQUARED SPACING: 0.0625
Info: NONBONDED TABLE SIZE: 705 POINTS
TCL: Setting parameter alchLambda2 to 0.35
Info: NONBONDED TABLE R-SQUARED SPACING: 0.0625
Info: NONBONDED TABLE SIZE: 705 POINTS
TCL: Running for 1500000 steps
ETITLE: TS BOND ANGLE DIHED IMPRP ELECT VDW BOUNDARY MISC KINETIC TOTAL TEMP POTENTIAL TOTALAVG TEMPAVG PRESSURE GPRESSURE VOLUME PRESSAVG GPRESSAVG
ENERGY: 0 6.1429 5.1744 11.6246 0.0000 -10447.9352 1407.9705 0.0000 0.0000 1759.1565 -7257.8663 303.0114 -9017.0229 -7257.8663 303.0114 -33.8815 45.9075 29989.8507 -33.8815 45.9075
ENERGY: 300000 7.2636 6.7042 14.2174 0.0000 -10512.7543 1414.3324 0.0000 0.0000 1721.3523 -7348.8844 296.4997 -9070.2367 -7355.9752 299.1704 -57.8630 -55.5321 29932.2273 -192.7953 -141.2413
ENERGY: 600000 3.4905 8.3733 14.4595 0.0000 -10537.9776 1408.5552 0.0000 0.0000 1729.2430 -7373.8560 297.8589 -9103.0991 -7342.9516 301.2473 -452.7204 -379.3624 30288.0742 -337.3407 -274.8247
ENERGY: 900000 4.7399 5.4246 11.1652 0.0000 -10486.0145 1395.5616 0.0000 0.0000 1766.0887 -7303.0346 304.2055 -9069.1233 -7343.2321 301.8736 131.2182 211.5713 29685.6290 -250.2233 -178.5101
ENERGY: 1200000 4.7685 7.8128 14.6128 0.0000 -10418.8184 1370.2929 0.0000 0.0000 1761.3067 -7260.0247 303.3818 -9021.3314 -7333.9803 302.2189 -374.3810 -407.5804 29990.3893 -342.3626 -277.5597
ENERGY: 1500000 3.9241 5.1269 14.7753 0.0000 -10663.1498 1456.7534 0.0000 0.0000 1769.8558 -7412.7143 304.8543 -9182.5701 -7342.7959 302.3506 57.3284 120.2248 29814.5631 -365.9268 -302.0150
TCL: Running FEP window   8: Lambda1 0.35   Lambda2 0.39999999999999997 [dLambda 0.04999999999999999]
TCL: Setting parameter firsttimestep to 0
TCL: Setting parameter alchLambda to 0.35
Info: NONBONDED TABLE R-SQUARED SPACING: 0.0625
Info: NONBONDED TABLE SIZE: 705 POINTS
TCL: Setting parameter alchLambda2 to 0.39999999999999997
Info: NONBONDED TABLE R-SQUARED SPACING: 0.0625
Info: NONBONDED TABLE SIZE: 705 POINTS
TCL: Running for 1500000 steps
ETITLE: TS BOND ANGLE DIHED IMPRP ELECT VDW BOUNDARY MISC KINETIC TOTAL TEMP POTENTIAL TOTALAVG TEMPAVG PRESSURE GPRESSURE VOLUME PRESSAVG GPRESSAVG
ENERGY: 0 3.9241 5.1268 14.7753 0.0000 -10663.1505 1456.9210 0.0000 0.0000 1768.9795 -7413.4237 304.7034 -9182.4032 -7413.4237 304.7034 36.7643 126.9033 29814.5631 36.7643 126.9033
ENERGY: 300000 6.1212 5.2252 12.1032 0.0000 -10419.7011 1369.0871 0.0000 0.0000 1715.8767 -7311.2878 295.5565 -9027.1644 -7339.8833 299.8929 -780.2484 -727.0786 30694.3316 -427.6069 -362.7088
ENERGY: 600000 6.6396 6.7977 13.7826 0.0000 -10576.8362 1469.7546 0.0000 0.0000 1750.4734 -7329.3883 301.5157 -9079.8616 -7348.1967 299.0237 191.8332 255.8034 30111.5389 -309.1785 -237.0773
ENERGY: 900000 9.5527 4.7624 8.6790 0.0000 -10430.3737 1339.3450 0.0000 0.0000 1732.2696 -7335.7649 298.3802 -9068.0345 -7336.4742 299.6961 -816.0970 -782.3899 29904.5943 -409.0868 -335.8005
ENERGY: 1200000 5.3178 4.9048 9.3676 0.0000 -10512.0335 1381.3789 0.0000 0.0000 1690.7892 -7420.2752 291.2353 -9111.0644 -7349.1285 298.5474 -351.4903 -260.7078 29868.7239 -361.2240 -282.6323
ENERGY: 1500000 7.5202 8.2291 11.4554 0.0000 -10434.0429 1347.2717 0.0000 0.0000 1728.0279 -7331.5386 297.6496 -9059.5664 -7346.5397 298.6234 -791.2531 -705.0181 30556.5199 -354.3847 -273.4305
TCL: Running FEP window   9: Lambda1 0.39999999999999997 Lambda2 0.44999999999999996 [dLambda 0.04999999999999999]
TCL: Setting parameter firsttimestep to 0
TCL: Setting parameter alchLambda to 0.39999999999999997
Info: NONBONDED TABLE R-SQUARED SPACING: 0.0625
Info: NONBONDED TABLE SIZE: 705 POINTS
TCL: Setting parameter alchLambda2 to 0.44999999999999996
Info: NONBONDED TABLE R-SQUARED SPACING: 0.0625
Info: NONBONDED TABLE SIZE: 705 POINTS
TCL: Running for 1500000 steps
ETITLE: TS BOND ANGLE DIHED IMPRP ELECT VDW BOUNDARY MISC KINETIC TOTAL TEMP POTENTIAL TOTALAVG TEMPAVG PRESSURE GPRESSURE VOLUME PRESSAVG GPRESSAVG
ENERGY: 0 7.5203 8.2291 11.4554 0.0000 -10434.0416 1346.5753 0.0000 0.0000 1727.1480 -7333.1136 297.4980 -9060.2616 -7333.1136 297.4980 -779.3723 -701.6521 30556.5199 -779.3723 -701.6521
ENERGY: 300000 5.3009 5.5583 10.4476 0.0000 -10408.4524 1302.3448 0.0000 0.0000 1780.8158 -7303.9850 306.7422 -9084.8008 -7325.6207 302.4893 -808.4656 -725.2112 29660.3880 -267.1506 -194.3684
ENERGY: 600000 4.7358 5.5391 11.9468 0.0000 -10527.4506 1465.5007 0.0000 0.0000 1730.8593 -7308.8689 298.1373 -9039.7282 -7317.6660 301.9355 426.7758 504.2903 29997.4457 16.2079 87.8923
ENERGY: 900000 7.7139 4.5755 8.7048 0.0000 -10298.5143 1247.8594 0.0000 0.0000 1759.4547 -7270.2059 303.0628 -9029.6606 -7319.8660 300.1114 -1630.4858 -1524.7995 30509.0513 -169.6520 -103.3625
ENERGY: 1200000 6.9483 5.5634 12.1779 0.0000 -10443.8409 1394.4421 0.0000 0.0000 1730.1012 -7294.6081 298.0067 -9024.7093 -7313.0507 299.7464 -83.1544 -56.3788 29897.7774 -43.8045 17.9026
ENERGY: 1500000 3.2514 4.3971 9.6322 0.0000 -10599.6503 1465.1257 0.0000 0.0000 1724.9082 -7392.3357 297.1122 -9117.2439 -7322.2096 300.0651 209.9123 250.3122 30117.2819 2.6679 63.6449
TCL: Running FEP window  10: Lambda1 0.44999999999999996 Lambda2 0.49999999999999994 [dLambda 0.04999999999999999]
TCL: Setting parameter firsttimestep to 0
TCL: Setting parameter alchLambda to 0.44999999999999996
Info: NONBONDED TABLE R-SQUARED SPACING: 0.0625
Info: NONBONDED TABLE SIZE: 705 POINTS
TCL: Setting parameter alchLambda2 to 0.49999999999999994
Info: NONBONDED TABLE R-SQUARED SPACING: 0.0625
Info: NONBONDED TABLE SIZE: 705 POINTS
TCL: Running for 1500000 steps
ETITLE: TS BOND ANGLE DIHED IMPRP ELECT VDW BOUNDARY MISC KINETIC TOTAL TEMP POTENTIAL TOTALAVG TEMPAVG PRESSURE GPRESSURE VOLUME PRESSAVG GPRESSAVG
ENERGY: 0 3.2514 4.3971 9.6322 0.0000 -10599.6504 1465.5355 0.0000 0.0000 1724.0613 -7392.7729 296.9663 -9116.8342 -7392.7729 296.9663 173.9394 263.0670 30117.2819 173.9394 263.0670
ENERGY: 300000 4.2299 5.3202 13.4930 0.0000 -10664.3922 1473.3737 0.0000 0.0000 1735.0100 -7432.9655 298.8522 -9167.9754 -7390.6067 300.8466 212.2942 304.6749 29393.2802 86.3269 171.4541
ENERGY: 600000 5.4431 8.1276 8.8682 0.0000 -10509.6857 1408.6742 0.0000 0.0000 1687.6106 -7390.9620 290.6878 -9078.5726 -7389.6344 298.4499 -79.8396 -68.6346 29647.5956 40.7498 106.1065
ENERGY: 900000 6.7998 4.2201 14.5257 0.0000 -10472.6445 1370.9612 0.0000 0.0000 1828.5912 -7247.5464 314.9714 -9076.1376 -7362.6806 300.7869 -559.2541 -491.3930 29866.0456 -39.7194 24.2565
ENERGY: 1200000 6.9546 3.5092 9.9828 0.0000 -10524.5121 1474.2873 0.0000 0.0000 1747.6492 -7282.1290 301.0293 -9029.7782 -7347.3881 301.3168 562.5819 586.3250 29757.2603 -27.7052 36.2473
ENERGY: 1500000 7.5718 9.0377 9.4535 0.0000 -10680.0265 1520.0281 0.0000 0.0000 1806.9869 -7326.9484 311.2501 -9133.9353 -7346.2809 301.8400 680.3756 725.0875 29810.3369 -42.7614 26.9152
TCL: Running FEP window  11: Lambda1 0.49999999999999994 Lambda2 0.5499999999999999 [dLambda 0.04999999999999999]
TCL: Setting parameter firsttimestep to 0
TCL: Setting parameter alchLambda to 0.49999999999999994
Info: NONBONDED TABLE R-SQUARED SPACING: 0.0625
Info: NONBONDED TABLE SIZE: 705 POINTS
TCL: Setting parameter alchLambda2 to 0.5499999999999999
Info: NONBONDED TABLE R-SQUARED SPACING: 0.0625
Info: NONBONDED TABLE SIZE: 705 POINTS
TCL: Running for 1500000 steps
ETITLE: TS BOND ANGLE DIHED IMPRP ELECT VDW BOUNDARY MISC KINETIC TOTAL TEMP POTENTIAL TOTALAVG TEMPAVG PRESSURE GPRESSURE VOLUME PRESSAVG GPRESSAVG
ENERGY: 0 7.5718 9.0377 9.4535 0.0000 -10680.0263 1519.5781 0.0000 0.0000 1806.1376 -7328.2475 311.1038 -9134.3850 -7328.2475 311.1038 645.6859 736.2318 29810.3369 645.6859 736.2318
ENERGY: 300000 7.4058 3.5798 13.8696 0.0000 -10430.9860 1377.0776 0.0000 0.0000 1716.9914 -7312.0617 295.7485 -9029.0531 -7350.1702 302.8479 -351.8859 -276.5380 30598.1415 5.5560 93.5900
ENERGY: 600000 8.3116 7.1886 15.3746 0.0000 -10555.3018 1414.9505 0.0000 0.0000 1752.9160 -7356.5605 301.9365 -9109.4765 -7355.6216 302.2489 -27.5438 98.8443 29804.9337 -69.3725 13.7587
ENERGY: 900000 6.9045 3.5843 10.4525 0.0000 -10534.8467 1395.4957 0.0000 0.0000 1712.3539 -7406.0558 294.9498 -9118.4097 -7363.5717 300.2371 -401.1828 -305.6033 30011.9652 -58.0050 18.6064
ENERGY: 1200000 2.5689 5.0405 11.1962 0.0000 -10475.4996 1380.8279 0.0000 0.0000 1718.6758 -7357.1903 296.0387 -9075.8661 -7362.4424 299.6346 -553.9992 -438.3464 30199.3033 -127.0551 -50.9866
ENERGY: 1500000 5.0522 4.4988 12.9266 0.0000 -10591.0558 1419.4801 0.0000 0.0000 1717.8121 -7431.2860 295.8899 -9149.0980 -7360.2323 299.9525 -169.7403 -145.5287 29688.7523 -113.6836 -47.2623
TCL: Running FEP window  12: Lambda1 0.5499999999999999 Lambda2 0.6    [dLambda 0.050000000000000044]
TCL: Setting parameter firsttimestep to 0
TCL: Setting parameter alchLambda to 0.5499999999999999
Info: NONBONDED TABLE R-SQUARED SPACING: 0.0625
Info: NONBONDED TABLE SIZE: 705 POINTS
TCL: Setting parameter alchLambda2 to 0.6
Info: NONBONDED TABLE R-SQUARED SPACING: 0.0625
Info: NONBONDED TABLE SIZE: 705 POINTS
TCL: Running for 1500000 steps
ETITLE: TS BOND ANGLE DIHED IMPRP ELECT VDW BOUNDARY MISC KINETIC TOTAL TEMP POTENTIAL TOTALAVG TEMPAVG PRESSURE GPRESSURE VOLUME PRESSAVG GPRESSAVG
ENERGY: 0 5.0522 4.4988 12.9266 0.0000 -10591.3648 1419.5698 0.0000 0.0000 1716.9133 -7432.4040 295.7351 -9149.3173 -7432.4040 295.7351 -220.3732 -133.3257 29688.7523 -220.3732 -133.3257
ENERGY: 300000 6.1844 3.8852 16.5256 0.0000 -10664.0598 1481.0879 0.0000 0.0000 1746.7759 -7409.6008 300.8789 -9156.3767 -7375.6564 296.0988 221.6667 354.8491 30007.8031 114.0494 203.7942
ENERGY: 600000 4.7681 4.9008 13.3569 0.0000 -10579.1542 1441.0936 0.0000 0.0000 1766.5607 -7348.4741 304.2868 -9115.0348 -7356.2062 299.1404 186.3221 207.7680 29948.1614 84.6552 166.1388
ENERGY: 900000 5.0035 4.0444 11.7287 0.0000 -10467.5422 1444.0471 0.0000 0.0000 1798.8666 -7203.8518 309.8514 -9002.7184 -7342.0918 300.5860 292.3299 388.7771 30452.4540 62.1292 148.1954
ENERGY: 1200000 8.8025 5.1401 12.4523 0.0000 -10519.7313 1370.9164 0.0000 0.0000 1751.2549 -7371.1652 301.6504 -9122.4200 -7346.9428 300.5512 -525.3137 -467.3529 29644.5487 32.4942 111.2150
ENERGY: 1500000 4.2509 3.4150 15.4297 0.0000 -10545.4836 1404.6031 0.0000 0.0000 1728.0832 -7389.7016 297.6591 -9117.7849 -7353.0546 299.8726 -122.7152 -47.1066 29951.2786 -9.2236 70.2144
TCL: Running FEP window  13: Lambda1 0.6    Lambda2 0.65   [dLambda 0.050000000000000044]
TCL: Setting parameter firsttimestep to 0
TCL: Setting parameter alchLambda to 0.6
Info: NONBONDED TABLE R-SQUARED SPACING: 0.0625
Info: NONBONDED TABLE SIZE: 705 POINTS
TCL: Setting parameter alchLambda2 to 0.65
Info: NONBONDED TABLE R-SQUARED SPACING: 0.0625
Info: NONBONDED TABLE SIZE: 705 POINTS
TCL: Running for 1500000 steps
ETITLE: TS BOND ANGLE DIHED IMPRP ELECT VDW BOUNDARY MISC KINETIC TOTAL TEMP POTENTIAL TOTALAVG TEMPAVG PRESSURE GPRESSURE VOLUME PRESSAVG GPRESSAVG
ENERGY: 0 4.2509 3.4150 15.4297 0.0000 -10545.1419 1405.2412 0.0000 0.0000 1727.2134 -7389.5916 297.5093 -9116.8051 -7389.5916 297.5093 -112.7325 -30.5603 29951.2786 -112.7325 -30.5603
ENERGY: 300000 6.4973 3.7998 13.9473 0.0000 -10653.0288 1504.8723 0.0000 0.0000 1727.7256 -7396.1864 297.5975 -9123.9120 -7350.3366 302.5209 525.8483 585.1689 30260.0217 49.8465 124.3054
ENERGY: 600000 4.3309 4.4260 15.6184 0.0000 -10498.6400 1357.5476 0.0000 0.0000 1778.1375 -7338.5795 306.2809 -9116.7171 -7349.1197 301.3250 -804.8183 -747.7943 30395.9651 -106.3961 -48.3002
ENERGY: 900000 1.6226 6.2760 8.6193 0.0000 -10454.2647 1351.1387 0.0000 0.0000 1748.6755 -7337.9327 301.2061 -9086.6081 -7353.1575 302.0167 -452.0540 -369.9342 30067.4482 -69.9435 -7.8691
ENERGY: 1200000 5.6183 3.9547 9.2057 0.0000 -10584.3259 1490.9320 0.0000 0.0000 1744.7023 -7329.9129 300.5217 -9074.6152 -7346.7698 302.7412 659.6262 746.7322 30137.3562 13.7654 84.3666
ENERGY: 1500000 10.5270 7.6808 14.4136 0.0000 -10446.7890 1325.4212 0.0000 0.0000 1773.1912 -7315.5553 305.4289 -9088.7464 -7342.7575 303.0735 -1208.9161 -1146.6984 30606.3090 -2.3515 68.9421
TCL: Running FEP window  14: Lambda1 0.65   Lambda2 0.7000000000000001 [dLambda 0.050000000000000044]
TCL: Setting parameter firsttimestep to 0
TCL: Setting parameter alchLambda to 0.65
Info: NONBONDED TABLE R-SQUARED SPACING: 0.0625
Info: NONBONDED TABLE SIZE: 705 POINTS
TCL: Setting parameter alchLambda2 to 0.7000000000000001
Info: NONBONDED TABLE R-SQUARED SPACING: 0.0625
Info: NONBONDED TABLE SIZE: 705 POINTS
TCL: Running for 1500000 steps
ETITLE: TS BOND ANGLE DIHED IMPRP ELECT VDW BOUNDARY MISC KINETIC TOTAL TEMP POTENTIAL TOTALAVG TEMPAVG PRESSURE GPRESSURE VOLUME PRESSAVG GPRESSAVG
ENERGY: 0 10.5270 7.6808 14.4136 0.0000 -10446.8231 1325.3219 0.0000 0.0000 1772.3604 -7316.5194 305.2858 -9088.8798 -7316.5194 305.2858 -1224.9887 -1137.2164 30606.3090 -1224.9887 -1137.2164
ENERGY: 300000 6.6439 3.7801 9.6158 0.0000 -10520.3740 1417.9861 0.0000 0.0000 1712.5998 -7369.7485 294.9921 -9082.3482 -7351.4840 298.7277 -125.4854 -189.9432 30017.8015 -444.4667 -422.8609
ENERGY: 600000 4.4861 3.6743 11.7318 0.0000 -10534.8270 1439.0170 0.0000 0.0000 1738.0133 -7337.9045 299.3695 -9075.9179 -7351.4203 299.1192 282.9777 354.1214 29872.8951 -129.0271 -89.3796
ENERGY: 900000 7.9646 5.0408 9.9428 0.0000 -10475.8779 1345.6589 0.0000 0.0000 1736.3844 -7370.8864 299.0890 -9107.2708 -7349.6090 299.5169 -804.5407 -769.3679 30024.1321 -197.9384 -160.9436
ENERGY: 1200000 3.4227 5.2041 12.0764 0.0000 -10422.5286 1370.8800 0.0000 0.0000 1770.9011 -7260.0443 305.0344 -9030.9454 -7345.4655 299.8133 44.6984 110.3517 29932.7660 -187.4785 -143.4912
ENERGY: 1500000 7.9030 7.2343 11.3292 0.0000 -10466.0985 1378.3170 0.0000 0.0000 1709.7216 -7351.5934 294.4963 -9061.3150 -7344.6944 300.0446 -345.9405 -299.0646 29913.1340 -111.9308 -64.4190
TCL: Running FEP window  15: Lambda1 0.7000000000000001 Lambda2 0.7500000000000001 [dLambda 0.050000000000000044]
TCL: Setting parameter firsttimestep to 0
TCL: Setting parameter alchLambda to 0.7000000000000001
Info: NONBONDED TABLE R-SQUARED SPACING: 0.0625
Info: NONBONDED TABLE SIZE: 705 POINTS
TCL: Setting parameter alchLambda2 to 0.7500000000000001
Info: NONBONDED TABLE R-SQUARED SPACING: 0.0625
Info: NONBONDED TABLE SIZE: 705 POINTS
TCL: Running for 1500000 steps
ETITLE: TS BOND ANGLE DIHED IMPRP ELECT VDW BOUNDARY MISC KINETIC TOTAL TEMP POTENTIAL TOTALAVG TEMPAVG PRESSURE GPRESSURE VOLUME PRESSAVG GPRESSAVG
ENERGY: 0 7.9030 7.2343 11.3292 0.0000 -10466.4148 1379.3885 0.0000 0.0000 1708.8445 -7351.7153 294.3453 -9060.5598 -7351.7153 294.3453 -347.9624 -269.7850 29913.1340 -347.9624 -269.7850
ENERGY: 300000 5.1807 6.9674 13.9030 0.0000 -10425.2289 1373.2021 0.0000 0.0000 1669.3868 -7356.5889 287.5487 -9025.9757 -7298.6009 298.2477 -97.2935 -96.5354 30050.6381 -402.6656 -339.8043
ENERGY: 600000 4.9349 5.9285 9.0371 0.0000 -10473.5800 1398.0704 0.0000 0.0000 1730.3731 -7325.2361 298.0535 -9055.6093 -7340.3547 298.9996 -89.1674 10.9145 30123.9964 -402.3629 -332.8257
ENERGY: 900000 7.3452 7.7247 12.7392 0.0000 -10675.9157 1520.2861 0.0000 0.0000 1726.8386 -7400.9818 297.4447 -9127.8204 -7335.3889 298.4840 598.1010 599.8628 30319.1498 -299.9701 -244.7636
ENERGY: 1200000 3.3221 5.7302 16.9573 0.0000 -10498.9972 1453.4613 0.0000 0.0000 1703.5334 -7315.9930 293.4304 -9019.5263 -7334.6309 298.5592 882.9293 991.2522 29752.7286 -162.6321 -103.4661
ENERGY: 1500000 5.8760 3.8908 11.3571 0.0000 -10507.9112 1392.2790 0.0000 0.0000 1740.6352 -7353.8733 299.8211 -9094.5085 -7348.2413 298.7719 -662.6520 -622.8549 30724.0723 -157.3790 -93.1857
TCL: Running FEP window  16: Lambda1 0.7500000000000001 Lambda2 0.8000000000000002 [dLambda 0.050000000000000044]
TCL: Setting parameter firsttimestep to 0
TCL: Setting parameter alchLambda to 0.7500000000000001
Info: NONBONDED TABLE R-SQUARED SPACING: 0.0625
Info: NONBONDED TABLE SIZE: 705 POINTS
TCL: Setting parameter alchLambda2 to 0.8000000000000002
Info: NONBONDED TABLE R-SQUARED SPACING: 0.0625
Info: NONBONDED TABLE SIZE: 705 POINTS
TCL: Running for 1500000 steps
ETITLE: TS BOND ANGLE DIHED IMPRP ELECT VDW BOUNDARY MISC KINETIC TOTAL TEMP POTENTIAL TOTALAVG TEMPAVG PRESSURE GPRESSURE VOLUME PRESSAVG GPRESSAVG
ENERGY: 0 5.8760 3.8908 11.3570 0.0000 -10508.2996 1391.8607 0.0000 0.0000 1739.7652 -7355.5499 299.6713 -9095.3151 -7355.5499 299.6713 -681.9995 -613.0367 30724.0723 -681.9995 -613.0367
ENERGY: 300000 8.0470 6.0011 12.2951 0.0000 -10505.6525 1336.4278 0.0000 0.0000 1725.8826 -7416.9988 297.2800 -9142.8814 -7365.3698 299.4133 -689.6672 -626.3214 29988.2597 -595.7032 -518.5594
ENERGY: 600000 5.2826 2.9287 8.2941 0.0000 -10463.2391 1330.6097 0.0000 0.0000 1747.5451 -7368.5789 301.0114 -9116.1240 -7372.5859 300.3015 -869.4015 -753.9140 30519.9628 -429.1725 -344.2304
ENERGY: 900000 7.4825 2.5694 12.7863 0.0000 -10534.8094 1414.9124 0.0000 0.0000 1740.1394 -7356.9195 299.7357 -9097.0589 -7365.8752 301.1921 -125.0857 -49.0517 30159.1257 -363.7303 -272.9877
ENERGY: 1200000 6.2887 4.5182 13.5931 0.0000 -10397.8399 1293.3939 0.0000 0.0000 1761.5775 -7318.4685 303.4284 -9080.0460 -7350.8047 301.3074 -1193.9419 -1164.3052 30470.0292 -296.7983 -214.5838
ENERGY: 1500000 4.1026 2.5714 11.1055 0.0000 -10783.6210 1587.1536 0.0000 0.0000 1688.2082 -7490.4796 290.7907 -9178.6878 -7361.4581 299.8968 1646.3631 1715.4484 29255.3060 -119.0408 -45.6232
TCL: Running FEP window  17: Lambda1 0.8000000000000002 Lambda2 0.8500000000000002 [dLambda 0.050000000000000044]
TCL: Setting parameter firsttimestep to 0
TCL: Setting parameter alchLambda to 0.8000000000000002
Info: NONBONDED TABLE R-SQUARED SPACING: 0.0625
Info: NONBONDED TABLE SIZE: 705 POINTS
TCL: Setting parameter alchLambda2 to 0.8500000000000002
Info: NONBONDED TABLE R-SQUARED SPACING: 0.0625
Info: NONBONDED TABLE SIZE: 705 POINTS
TCL: Running for 1500000 steps
ETITLE: TS BOND ANGLE DIHED IMPRP ELECT VDW BOUNDARY MISC KINETIC TOTAL TEMP POTENTIAL TOTALAVG TEMPAVG PRESSURE GPRESSURE VOLUME PRESSAVG GPRESSAVG
ENERGY: 0 4.1026 2.5714 11.1055 0.0000 -10783.9639 1587.0309 0.0000 0.0000 1687.3524 -7491.8011 290.6433 -9179.1534 -7491.8011 290.6433 1666.3591 1734.5255 29255.3060 1666.3591 1734.5255
ENERGY: 300000 4.5901 5.6094 14.0534 0.0000 -10481.7584 1406.5837 0.0000 0.0000 1714.7327 -7336.1891 295.3595 -9050.9218 -7393.6716 295.3254 -308.4263 -213.1714 30654.7863 190.9690 266.1415
ENERGY: 600000 5.3653 2.8299 11.8172 0.0000 -10607.2997 1435.7433 0.0000 0.0000 1727.4811 -7424.0628 297.5554 -9151.5439 -7391.3821 294.8115 -240.2583 -121.5094 30091.4845 30.8470 121.5847
ENERGY: 900000 9.1707 7.8504 8.9407 0.0000 -10548.3315 1472.5974 0.0000 0.0000 1748.7419 -7301.0304 301.2175 -9049.7723 -7383.9255 296.2083 548.8832 646.6887 30370.6130 -41.7271 43.8349
ENERGY: 1200000 9.7615 6.0475 10.8958 0.0000 -10445.6574 1364.0432 0.0000 0.0000 1675.2168 -7379.6926 288.5529 -9054.9094 -7373.2323 296.2682 -621.7474 -607.1926 30456.4187 -100.8315 -26.4901
ENERGY: 1500000 4.3878 5.9352 10.6308 0.0000 -10565.0759 1446.4143 0.0000 0.0000 1685.4410 -7412.2669 290.3140 -9097.7078 -7377.3941 296.2051 211.4963 302.5881 30142.4664 -109.4469 -33.2054
TCL: Running FEP window  18: Lambda1 0.8500000000000002 Lambda2 0.9000000000000002 [dLambda 0.050000000000000044]
TCL: Setting parameter firsttimestep to 0
TCL: Setting parameter alchLambda to 0.8500000000000002
Info: NONBONDED TABLE R-SQUARED SPACING: 0.0625
Info: NONBONDED TABLE SIZE: 705 POINTS
TCL: Setting parameter alchLambda2 to 0.9000000000000002
Info: NONBONDED TABLE R-SQUARED SPACING: 0.0625
Info: NONBONDED TABLE SIZE: 705 POINTS
TCL: Running for 1500000 steps
ETITLE: TS BOND ANGLE DIHED IMPRP ELECT VDW BOUNDARY MISC KINETIC TOTAL TEMP POTENTIAL TOTALAVG TEMPAVG PRESSURE GPRESSURE VOLUME PRESSAVG GPRESSAVG
ENERGY: 0 4.3878 5.9352 10.6308 0.0000 -10565.7183 1446.1136 0.0000 0.0000 1684.5636 -7414.0873 290.1629 -9098.6509 -7414.0873 290.1629 223.1174 314.5137 30142.4664 223.1174 314.5137
ENERGY: 300000 4.2371 8.2535 13.5831 0.0000 -10429.1392 1357.3118 0.0000 0.0000 1760.8473 -7284.9065 303.3026 -9045.7537 -7329.1518 299.5544 -321.7411 -353.3272 30072.5931 -53.2933 -6.8841
ENERGY: 600000 7.0841 7.4928 16.1873 0.0000 -10495.3416 1367.3368 0.0000 0.0000 1728.5075 -7368.7332 297.7322 -9097.2406 -7352.8832 298.8515 -283.7305 -256.8540 30087.4993 -162.1515 -104.3977
ENERGY: 900000 7.6578 4.1893 15.3108 0.0000 -10461.5801 1350.6492 0.0000 0.0000 1723.6025 -7360.1706 296.8873 -9083.7730 -7355.7233 297.8127 -579.2642 -542.3830 30202.6498 -202.2001 -140.1214
ENERGY: 1200000 2.4902 7.6354 8.3462 0.0000 -10390.7959 1309.9747 0.0000 0.0000 1745.2513 -7317.0981 300.6163 -9062.3494 -7354.5077 297.7694 -628.9236 -583.9962 30118.6300 -200.4460 -137.2071
ENERGY: 1500000 5.4015 3.5226 19.6365 0.0000 -10492.6911 1428.4315 0.0000 0.0000 1719.3877 -7316.3113 296.1613 -9035.6990 -7356.8247 297.5584 328.6519 348.6507 30156.6404 -59.1522 2.6554
TCL: Running FEP window  19: Lambda1 0.9000000000000002 Lambda2 0.9500000000000003 [dLambda 0.050000000000000044]
TCL: Setting parameter firsttimestep to 0
TCL: Setting parameter alchLambda to 0.9000000000000002
Info: NONBONDED TABLE R-SQUARED SPACING: 0.0625
Info: NONBONDED TABLE SIZE: 705 POINTS
TCL: Setting parameter alchLambda2 to 0.9500000000000003
Info: NONBONDED TABLE R-SQUARED SPACING: 0.0625
Info: NONBONDED TABLE SIZE: 705 POINTS
TCL: Running for 1500000 steps
ETITLE: TS BOND ANGLE DIHED IMPRP ELECT VDW BOUNDARY MISC KINETIC TOTAL TEMP POTENTIAL TOTALAVG TEMPAVG PRESSURE GPRESSURE VOLUME PRESSAVG GPRESSAVG
ENERGY: 0 5.4015 3.5226 19.6365 0.0000 -10493.2347 1428.0228 0.0000 0.0000 1718.5279 -7318.1234 296.0132 -9036.6513 -7318.1234 296.0132 286.5724 362.3660 30156.6404 286.5724 362.3660
ENERGY: 300000 2.9224 2.6526 10.1053 0.0000 -10537.0277 1400.6984 0.0000 0.0000 1744.0117 -7376.6374 300.4027 -9120.6490 -7351.8800 298.3439 -29.1969 8.1783 29856.6356 124.1413 176.8344
ENERGY: 600000 5.1366 3.3178 11.1809 0.0000 -10600.1328 1433.9594 0.0000 0.0000 1770.1857 -7376.3524 304.9112 -9146.5381 -7350.4412 298.5833 -195.6182 -131.0252 30373.5160 90.4858 142.0376
ENERGY: 900000 4.9932 5.5763 13.8851 0.0000 -10470.4098 1379.3337 0.0000 0.0000 1770.3498 -7296.2717 304.9394 -9066.6215 -7345.5889 299.9530 -188.0721 -143.2680 30049.1616 61.3774 105.6899
ENERGY: 1200000 3.5619 5.0415 11.3404 0.0000 -10509.3931 1401.2422 0.0000 0.0000 1757.2772 -7330.9299 302.6877 -9088.2072 -7344.7744 299.3442 75.1678 137.8839 29935.5366 -53.6220 -2.1746
ENERGY: 1500000 6.5393 3.2759 12.3296 0.0000 -10511.6512 1433.8307 0.0000 0.0000 1702.9836 -7352.6921 293.3357 -9055.6756 -7349.0930 299.7507 91.7109 112.1105 30312.7193 14.0719 64.8776
TCL: Running FEP window  20: Lambda1 0.9500000000000003 Lambda2 1.0    [dLambda 0.04999999999999971]
TCL: Setting parameter firsttimestep to 0
TCL: Setting parameter alchLambda to 0.9500000000000003
Info: NONBONDED TABLE R-SQUARED SPACING: 0.0625
Info: NONBONDED TABLE SIZE: 705 POINTS
TCL: Setting parameter alchLambda2 to 1.0
Info: NONBONDED TABLE R-SQUARED SPACING: 0.0625
Info: NONBONDED TABLE SIZE: 705 POINTS
TCL: Running for 1500000 steps
ETITLE: TS BOND ANGLE DIHED IMPRP ELECT VDW BOUNDARY MISC KINETIC TOTAL TEMP POTENTIAL TOTALAVG TEMPAVG PRESSURE GPRESSURE VOLUME PRESSAVG GPRESSAVG
ENERGY: 0 6.5393 3.2759 12.3296 0.0000 -10512.3927 1434.5334 0.0000 0.0000 1702.1025 -7353.6119 293.1840 -9055.7144 -7353.6119 293.1840 61.5579 135.4536 30312.7193 61.5579 135.4536
ENERGY: 300000 4.2121 3.8326 11.4054 0.0000 -10516.2668 1422.9376 0.0000 0.0000 1755.5876 -7318.2916 302.3967 -9073.8792 -7323.9362 301.0407 -39.1844 65.6737 30143.0311 -126.6971 -50.7019
ENERGY: 600000 8.5046 4.3290 12.5740 0.0000 -10525.1864 1391.8011 0.0000 0.0000 1735.1914 -7372.7862 298.8835 -9107.9776 -7357.7848 300.6595 -558.3044 -471.4788 30187.8795 -142.4925 -66.6135
ENERGY: 900000 8.4445 6.4172 8.7426 0.0000 -10544.3248 1371.0742 0.0000 0.0000 1749.7947 -7399.8516 301.3989 -9149.6463 -7355.1563 300.5320 -648.6934 -569.9094 30315.4097 -270.7467 -195.1095
ENERGY: 1200000 3.4667 6.7345 10.6954 0.0000 -10609.5644 1451.1704 0.0000 0.0000 1766.8913 -7370.6061 304.3437 -9137.4974 -7361.4236 300.2707 304.6371 402.3733 30046.7969 -150.0402 -79.3581
ENERGY: 1500000 4.9005 4.9970 12.6969 0.0000 -10424.3777 1319.1317 0.0000 0.0000 1783.3588 -7299.2928 307.1802 -9082.6516 -7352.8436 301.3906 -486.0475 -433.7622 30059.3062 -82.1757 -12.4071
TCL: Exiting due to exit command.
