Info: SIMULATION PARAMETERS:
Info: TIMESTEP               2
Info: NUMBER OF STEPS        0
Info: STEPS PER CYCLE        10
Info: PERIODIC CELL BASIS 1  30.1622 0 0
Info: PERIODIC CELL BASIS 2  0 29.7576 0
Info: PERIODIC CELL BASIS 3  0 0 34.0489
Info: PERIODIC CELL CENTER   0 0 0
Info: WRAPPING WATERS AROUND PERIODIC BOUNDARIES ON OUTPUT.
Info: WRAPPING ALL CLUSTERS AROUND PERIODIC BOUNDARIES ON OUTPUT.
Info: FIRST LDB TIMESTEP     50
Info: LAST LDB TIMESTEP     -1
Info: HOM BACKGROUND SCALING 1
Info: PME BACKGROUND SCALING 1
Info: MIN ATOMS PER PATCH    40
Info: EMPTY PATCH LOAD       40 ATOMS
Info: VELOCITY FILE          mobley_5561855_equil.vel
Info: CENTER OF MASS MOVING INITIALLY? NO
Info: DIELECTRIC             1
Info: EXCLUDE                SCALED ONE-FOUR
Info: 1-4 ELECTROSTATICS SCALED BY 0.833333
Info: MODIFIED 1-4 VDW PARAMETERS WILL BE USED
Info: DCD FILENAME           mobley_5561855_prod.dcd
Info: DCD FREQUENCY          100000
Info: DCD FIRST STEP         100000
Info: DCD FILE WILL CONTAIN UNIT CELL DATA
Info: XST FILENAME           mobley_5561855_prod.xst
Info: XST FREQUENCY          100000
Info: NO VELOCITY DCD OUTPUT
Info: NO FORCE DCD OUTPUT
Info: OUTPUT FILENAME        mobley_5561855_prod
Info: BINARY OUTPUT FILES WILL BE USED
Info: RESTART FILENAME       mobley_5561855_prod.restart
Info: RESTART FREQUENCY      100000
Info: BINARY RESTART FILES WILL BE USED
Info: CUTOFF                 9
Info: PAIRLIST DISTANCE      11
Info: PAIRLIST SHRINK RATE   0.01
Info: PAIRLIST GROW RATE     0.01
Info: PAIRLIST TRIGGER       0.3
Info: PAIRLISTS PER CYCLE    2
Info: PAIRLISTS ENABLED
Info: MARGIN                 2
Info: HYDROGEN GROUP CUTOFF  2.5
Info: PATCH DIMENSION        15.5
Info: ENERGY OUTPUT STEPS    100000
Info: ENERGY EVALUATION STEPS    100000
Info: OUTPUT ENERGY PRECISION 4
Info: CROSSTERM ENERGY INCLUDED IN DIHEDRAL
Info: TIMING OUTPUT STEPS    1000000
Info: PRESSURE OUTPUT STEPS  100000
Info: ALCHEMICAL FEP ON
Info: FEP CURRENT LAMBDA VALUE     1
Info: FEP COMPARISON LAMBDA VALUE  0.95
Info: FEP INTRA-ALCHEMICAL NON-BONDED INTERACTIONS WILL BE RETAINED
Info: FEP INTRA-ALCHEMICAL BONDED INTERACTIONS WILL BE RETAINED
Info: FEP VDW SHIFTING COEFFICIENT 5
Info: FEP ELEC. ACTIVE FOR ANNIHILATED PARTICLES BETWEEN LAMBDA = 0 AND LAMBDA = 0.5
Info: FEP ELEC. ACTIVE FOR EXNIHILATED PARTICLES BETWEEN LAMBDA = 0.5 AND LAMBDA = 1
Info: FEP VDW ACTIVE FOR ANNIHILATED PARTICLES BETWEEN LAMBDA = 0 AND LAMBDA = 1
Info: FEP VDW ACTIVE FOR EXNIHILATED PARTICLES BETWEEN LAMBDA = 0 AND LAMBDA = 1
Info: FEP BOND ACTIVE FOR ANNIHILATED PARTICLES BETWEEN LAMBDA = 1 AND LAMBDA = 1
Info: FEP BOND ACTIVE FOR EXNIHILATED PARTICLES BETWEEN LAMBDA = 0 AND LAMBDA = 0
Info: LANGEVIN DYNAMICS ACTIVE
Info: LANGEVIN TEMPERATURE   300
Info: LANGEVIN USING BBK INTEGRATOR
Info: LANGEVIN DAMPING COEFFICIENT IS 1 INVERSE PS
Info: LANGEVIN DYNAMICS APPLIED TO HYDROGENS
Info: LANGEVIN PISTON PRESSURE CONTROL ACTIVE
Info:        TARGET PRESSURE IS 1.01325 BAR
Info:     OSCILLATION PERIOD IS 50 FS
Info:             DECAY TIME IS 25 FS
Info:     PISTON TEMPERATURE IS 300 K
Info:       PRESSURE CONTROL IS GROUP-BASED
Info:    INITIAL STRAIN RATE IS 2.13988e-05 2.13988e-05 2.13988e-05
Info:       CELL FLUCTUATION IS ISOTROPIC
Info: PARTICLE MESH EWALD (PME) ACTIVE
Info: PME TOLERANCE               1e-06
Info: PME EWALD COEFFICIENT       0.348832
Info: PME INTERPOLATION ORDER     4
Info: PME GRID DIMENSIONS         32 32 36
Info: PME MAXIMUM GRID SPACING    1
Info: PME CALCULATION WILL BE PERFORMED ON GPU
Info: FULL ELECTROSTATIC EVALUATION FREQUENCY      2
Info: USING VERLET I (r-RESPA) MTS SCHEME.
Info: C1 SPLITTING OF LONG RANGE ELECTROSTATICS
Info: PLACING ATOMS IN PATCHES BY HYDROGEN GROUPS
Info: RIGID BONDS TO HYDROGEN : ALL
Info:         ERROR TOLERANCE : 1e-08
Info:          MAX ITERATIONS : 100
Info: RIGID WATER USING SETTLE ALGORITHM
Info: RANDOM NUMBER SEED     1743803668
Info: USE HYDROGEN BONDS?    NO
Info: Using AMBER format force field!
Info: AMBER PARM FILE        mobley_5561855.prmtop
Info: COORDINATE PDB         mobley_5561855.pdb
Info: Exclusions will be read from PARM file!
Info: SCNB (VDW SCALING)     2
Info: USING ARITHMETIC MEAN TO COMBINE L-J SIGMA PARAMETERS
Info: BINARY COORDINATES     mobley_5561855_equil.coor
Info: SUMMARY OF PARAMETERS:
Info: 7 BONDS
Info: 7 ANGLES
Info:   7 HARMONIC
Info:   0 COSINE-BASED
Info: 3 DIHEDRAL
Info: 0 IMPROPER
Info: 0 CROSSTERM
Info: 0 VDW
Info: 15 VDW_PAIRS
Info: 0 NBTHOLE_PAIRS
Info: To read alchdata from file: mobley_5561855.pdb
Info: To read alchflag data from column: 5
Info: STRUCTURE SUMMARY:
Info: 2968 ATOMS
Info: 2969 BONDS
Info: 36 ANGLES
Info: 64 DIHEDRALS
Info: 0 IMPROPERS
Info: 0 CROSSTERMS
Info: 3051 EXCLUSIONS
Info: 2951 RIGID BONDS
Info: ALCH: 0 ATOMS TO DISAPPEAR IN FINAL STATE
Info: ALCH: 22 ATOMS TO APPEAR IN FINAL STATE
Info: 5953 DEGREES OF FREEDOM
Info: 999 HYDROGEN GROUPS
Info: 3 ATOMS IN LARGEST HYDROGEN GROUP
Info: 999 MIGRATION GROUPS
Info: 3 ATOMS IN LARGEST MIGRATION GROUP
Info: TOTAL MASS = 18018.1 amu
Info: TOTAL CHARGE = 1.11759e-08 e
Info: MASS DENSITY = 0.979048 g/cm^3
Info: ATOM DENSITY = 0.0971178 atoms/A^3
Info: ADDED 0 IMPLICIT EXCLUSIONS
Info: NONBONDED TABLE R-SQUARED SPACING: 0.0625
Info: NONBONDED TABLE SIZE: 705 POINTS
Info: REMOVING COM VELOCITY -0.164017 -0.0251507 -0.20643
Info: Use 3D box decompostion in PME FFT.
Info: Updated CUDA force table with 4096 elements.
Info: Updated CUDA LJ table with 5 x 5 elements.
Info: Found 25 unique exclusion lists needing 72 bytes
TCL: Running for 1500000 steps
ETITLE: TS BOND ANGLE DIHED IMPRP ELECT VDW BOUNDARY MISC KINETIC TOTAL TEMP POTENTIAL TOTALAVG TEMPAVG PRESSURE GPRESSURE VOLUME PRESSAVG GPRESSAVG
ENERGY: 0 5.4276 3.9745 11.1168 0.0000 -10651.7698 1414.4988 0.0000 0.0000 1787.3884 -7429.3636 302.1854 -9216.7520 -7429.3636 302.1854 91.5971 173.1373 30560.8109 91.5971 173.1373
ENERGY: 300000 6.5586 5.0275 15.9189 0.0000 -10890.3003 1497.0258 0.0000 0.0000 1853.4520 -7512.3176 313.3544 -9365.7696 -7456.4280 306.2675 60.3848 106.3034 31148.4703 -135.8793 -86.9516
ENERGY: 600000 4.4927 5.5653 12.4664 0.0000 -10611.0233 1433.2549 0.0000 0.0000 1863.1538 -7292.0901 314.9947 -9155.2439 -7441.3943 306.3668 297.9938 358.6906 31206.6585 -181.5273 -134.0013
ENERGY: 900000 5.3754 8.9992 15.1812 0.0000 -10582.4214 1347.7480 0.0000 0.0000 1782.8909 -7422.2267 301.4250 -9205.1176 -7433.1171 306.4345 -560.4088 -556.0401 31057.8892 -150.1157 -105.1624
ENERGY: 1200000 3.7554 2.8535 10.8935 0.0000 -10587.2652 1379.8036 0.0000 0.0000 1800.8772 -7389.0819 304.4659 -9189.9591 -7428.3266 306.1932 -224.5119 -155.0658 30899.7455 -164.2211 -120.5263
ENERGY: 1500000 5.2184 4.5746 13.8416 0.0000 -10641.9793 1408.1356 0.0000 0.0000 1711.4315 -7498.7776 289.3437 -9210.2091 -7437.5768 304.1576 -297.1538 -253.4355 31583.8945 -171.8758 -127.6731
TCL: Running FEP window   2: Lambda1 0.95   Lambda2 0.8999999999999999 [dLambda -0.050000000000000044]
TCL: Setting parameter firsttimestep to 0
TCL: Setting parameter alchLambda to 0.95
Info: NONBONDED TABLE R-SQUARED SPACING: 0.0625
Info: NONBONDED TABLE SIZE: 705 POINTS
TCL: Setting parameter alchLambda2 to 0.8999999999999999
Info: NONBONDED TABLE R-SQUARED SPACING: 0.0625
Info: NONBONDED TABLE SIZE: 705 POINTS
TCL: Running for 1500000 steps
ETITLE: TS BOND ANGLE DIHED IMPRP ELECT VDW BOUNDARY MISC KINETIC TOTAL TEMP POTENTIAL TOTALAVG TEMPAVG PRESSURE GPRESSURE VOLUME PRESSAVG GPRESSAVG
ENERGY: 0 5.2184 4.5746 13.8416 0.0000 -10641.6771 1408.8803 0.0000 0.0000 1710.5419 -7498.6202 289.1933 -9209.1622 -7498.6202 289.1933 -320.1255 -256.8237 31583.8945 -320.1255 -256.8237
ENERGY: 300000 11.6005 4.6202 10.7657 0.0000 -10827.1792 1507.4805 0.0000 0.0000 1711.2052 -7581.5071 289.3054 -9292.7123 -7496.3272 296.2911 140.3219 195.6772 30819.2363 -311.6520 -264.3762
ENERGY: 600000 4.8556 8.7249 13.3510 0.0000 -10767.6758 1441.9077 0.0000 0.0000 1764.4040 -7534.4326 298.2995 -9298.8366 -7495.8007 297.9279 -54.8292 -33.4009 30949.2689 -98.4115 -60.8722
ENERGY: 900000 6.4669 5.6545 11.4356 0.0000 -10669.1321 1407.2848 0.0000 0.0000 1781.2443 -7457.0461 301.1466 -9238.2904 -7488.0625 298.8576 135.3158 126.1358 30673.7454 -84.6331 -47.8760
ENERGY: 1200000 7.6783 5.3159 16.0165 0.0000 -10698.3584 1432.7868 0.0000 0.0000 1848.8898 -7387.6711 312.5831 -9236.5609 -7485.9965 298.7682 33.9681 106.3345 30825.1608 -152.4155 -105.9390
ENERGY: 1500000 9.6320 2.1443 11.3996 0.0000 -10648.2920 1360.9765 0.0000 0.0000 1686.5084 -7577.6312 285.1301 -9264.1396 -7487.6841 298.7992 -1164.3694 -1050.9634 30851.6468 -149.1826 -100.4703
TCL: Running FEP window   3: Lambda1 0.8999999999999999 Lambda2 0.8499999999999999 [dLambda -0.050000000000000044]
TCL: Setting parameter firsttimestep to 0
TCL: Setting parameter alchLambda to 0.8999999999999999
Info: NONBONDED TABLE R-SQUARED SPACING: 0.0625
Info: NONBONDED TABLE SIZE: 705 POINTS
TCL: Setting parameter alchLambda2 to 0.8499999999999999
Info: NONBONDED TABLE R-SQUARED SPACING: 0.0625
Info: NONBONDED TABLE SIZE: 705 POINTS
TCL: Running for 1500000 steps
ETITLE: TS BOND ANGLE DIHED IMPRP ELECT VDW BOUNDARY MISC KINETIC TOTAL TEMP POTENTIAL TOTALAVG TEMPAVG PRESSURE GPRESSURE VOLUME PRESSAVG GPRESSAVG
ENERGY: 0 9.6320 2.1443 11.3996 0.0000 -10648.1018 1361.6602 0.0000 0.0000 1685.5751 -7577.6906 284.9723 -9263.2657 -7577.6906 284.9723 -1138.5275 -1057.7361 30851.6468 -1138.5275 -1057.7361
ENERGY: 300000 8.4723 3.9884 10.4533 0.0000 -10817.7408 1440.4668 0.0000 0.0000 1749.3534 -7605.0065 295.7550 -9354.3599 -7581.5358 293.3308 16.4011 63.9872 30653.0343 -68.7786 -34.7442
ENERGY: 600000 3.8130 5.5505 12.6565 0.0000 -10639.6441 1446.1805 0.0000 0.0000 1786.8219 -7384.6217 302.0896 -9171.4435 -7530.4910 298.7868 290.5437 394.9252 30780.0593 -9.5666 41.9742
ENERGY: 900000 5.7238 4.8541 13.2842 0.0000 -10659.9428 1375.4838 0.0000 0.0000 1824.0944 -7436.5024 308.3911 -9260.5968 -7512.5451 300.6651 -125.4392 -35.6504 30309.1490 53.4286 118.9092
ENERGY: 1200000 11.1573 3.1442 12.4755 0.0000 -10744.2879 1418.3172 0.0000 0.0000 1738.7805 -7560.4132 293.9675 -9299.1937 -7508.7515 299.3878 -113.2533 -103.8888 30478.6580 -33.6657 28.6755
ENERGY: 1500000 6.0720 5.4892 17.6531 0.0000 -10816.2904 1470.6551 0.0000 0.0000 1785.3766 -7531.0444 301.8453 -9316.4210 -7515.1698 298.8943 375.0697 384.7725 30408.5399 0.4302 55.1970
TCL: Running FEP window   4: Lambda1 0.8499999999999999 Lambda2 0.7999999999999998 [dLambda -0.050000000000000044]
TCL: Setting parameter firsttimestep to 0
TCL: Setting parameter alchLambda to 0.8499999999999999
Info: NONBONDED TABLE R-SQUARED SPACING: 0.0625
Info: NONBONDED TABLE SIZE: 705 POINTS
TCL: Setting parameter alchLambda2 to 0.7999999999999998
Info: NONBONDED TABLE R-SQUARED SPACING: 0.0625
Info: NONBONDED TABLE SIZE: 705 POINTS
TCL: Running for 1500000 steps
ETITLE: TS BOND ANGLE DIHED IMPRP ELECT VDW BOUNDARY MISC KINETIC TOTAL TEMP POTENTIAL TOTALAVG TEMPAVG PRESSURE GPRESSURE VOLUME PRESSAVG GPRESSAVG
ENERGY: 0 6.0720 5.4892 17.6531 0.0000 -10815.8395 1470.5486 0.0000 0.0000 1784.5079 -7531.5687 301.6984 -9316.0766 -7531.5687 301.6984 279.7631 362.7629 30408.5399 279.7631 362.7629
ENERGY: 300000 4.1153 5.0477 12.6887 0.0000 -10634.6799 1414.6067 0.0000 0.0000 1726.2439 -7471.9775 291.8480 -9198.2214 -7521.1090 299.6431 -165.4644 -81.8664 31072.2505 395.2676 466.5333
ENERGY: 600000 6.8403 1.6869 13.3070 0.0000 -10735.1005 1449.9009 0.0000 0.0000 1760.8387 -7502.5267 297.6967 -9263.3654 -7508.7256 299.8519 43.9219 130.5196 30617.4287 410.9316 473.8777
ENERGY: 900000 4.9488 4.2532 15.6864 0.0000 -10736.5149 1450.1529 0.0000 0.0000 1749.8800 -7511.5936 295.8440 -9261.4736 -7494.7400 299.7958 219.2056 281.5951 30312.7338 324.3678 391.4087
ENERGY: 1200000 8.6006 6.8183 12.4852 0.0000 -10720.9261 1430.2294 0.0000 0.0000 1754.4530 -7508.3397 296.6171 -9262.7927 -7499.6631 299.5738 -187.3273 -85.1171 30694.3063 189.1995 259.0454
ENERGY: 1500000 5.7863 6.1586 16.3946 0.0000 -10694.2089 1411.9348 0.0000 0.0000 1792.0189 -7461.9156 302.9682 -9253.9345 -7493.5385 300.1345 -216.9357 -157.5545 30911.3697 110.5771 179.0690
TCL: Running FEP window   5: Lambda1 0.7999999999999998 Lambda2 0.7499999999999998 [dLambda -0.050000000000000044]
TCL: Setting parameter firsttimestep to 0
TCL: Setting parameter alchLambda to 0.7999999999999998
Info: NONBONDED TABLE R-SQUARED SPACING: 0.0625
Info: NONBONDED TABLE SIZE: 705 POINTS
TCL: Setting parameter alchLambda2 to 0.7499999999999998
Info: NONBONDED TABLE R-SQUARED SPACING: 0.0625
Info: NONBONDED TABLE SIZE: 705 POINTS
TCL: Running for 1500000 steps
ETITLE: TS BOND ANGLE DIHED IMPRP ELECT VDW BOUNDARY MISC KINETIC TOTAL TEMP POTENTIAL TOTALAVG TEMPAVG PRESSURE GPRESSURE VOLUME PRESSAVG GPRESSAVG
ENERGY: 0 5.7863 6.1586 16.3946 0.0000 -10694.0870 1413.1242 0.0000 0.0000 1791.1704 -7461.4528 302.8248 -9252.6232 -7461.4528 302.8248 -245.3629 -160.6262 30911.3697 -245.3629 -160.6262
ENERGY: 300000 7.8213 2.9833 12.6111 0.0000 -10827.2616 1483.5087 0.0000 0.0000 1751.2695 -7569.0676 296.0789 -9320.3372 -7501.5159 301.4212 191.7355 282.7454 30334.6040 146.2698 219.5962
ENERGY: 600000 2.9568 4.9678 10.4175 0.0000 -10559.1295 1355.6310 0.0000 0.0000 1808.2608 -7376.8955 305.7142 -9185.1563 -7480.2446 300.2166 -391.1321 -324.9011 31103.1643 -0.3776 63.5645
ENERGY: 900000 3.9200 6.6017 12.6258 0.0000 -10631.9107 1437.5981 0.0000 0.0000 1704.3376 -7466.8275 288.1444 -9171.1651 -7482.6832 299.1153 161.1664 163.9572 30764.8339 21.9300 84.3772
ENERGY: 1200000 6.6321 3.9081 13.3449 0.0000 -10676.4531 1394.9515 0.0000 0.0000 1771.1000 -7486.5165 299.4316 -9257.6165 -7470.2639 299.6596 -503.4214 -380.5611 30811.2314 -122.7988 -60.7403
ENERGY: 1500000 3.9269 4.8718 10.5606 0.0000 -10797.5139 1448.1473 0.0000 0.0000 1804.4662 -7525.5411 305.0726 -9330.0074 -7475.3141 299.6351 -0.0963 87.9206 30263.7764 -210.3679 -147.2102
TCL: Running FEP window   6: Lambda1 0.7499999999999998 Lambda2 0.6999999999999997 [dLambda -0.050000000000000044]
TCL: Setting parameter firsttimestep to 0
TCL: Setting parameter alchLambda to 0.7499999999999998
Info: NONBONDED TABLE R-SQUARED SPACING: 0.0625
Info: NONBONDED TABLE SIZE: 705 POINTS
TCL: Setting parameter alchLambda2 to 0.6999999999999997
Info: NONBONDED TABLE R-SQUARED SPACING: 0.0625
Info: NONBONDED TABLE SIZE: 705 POINTS
TCL: Running for 1500000 steps
ETITLE: TS BOND ANGLE DIHED IMPRP ELECT VDW BOUNDARY MISC KINETIC TOTAL TEMP POTENTIAL TOTALAVG TEMPAVG PRESSURE GPRESSURE VOLUME PRESSAVG GPRESSAVG
ENERGY: 0 3.9269 4.8718 10.5606 0.0000 -10797.1099 1449.0199 0.0000 0.0000 1803.6252 -7525.1056 304.9304 -9328.7308 -7525.1056 304.9304 -11.1849 81.5408 30263.7764 -11.1849 81.5408
ENERGY: 300000 5.7435 3.9826 13.7622 0.0000 -10777.0585 1481.2331 0.0000 0.0000 1740.4317 -7531.9053 294.2466 -9272.3370 -7511.7844 301.5840 448.4467 537.7998 30431.1702 223.9247 285.3519
ENERGY: 600000 5.8830 3.2624 16.7074 0.0000 -10761.2042 1428.1824 0.0000 0.0000 1773.6357 -7533.5334 299.8603 -9307.1691 -7516.4222 299.9431 -138.9826 -120.2286 30487.9286 16.7170 85.2604
ENERGY: 900000 4.3383 5.9060 15.2020 0.0000 -10639.6353 1405.8994 0.0000 0.0000 1774.3384 -7433.9511 299.9791 -9208.2895 -7501.6187 299.4077 283.8100 331.9955 30193.4772 40.3387 101.1951
ENERGY: 1200000 6.4273 6.6309 14.9396 0.0000 -10679.4137 1424.6478 0.0000 0.0000 1800.6766 -7426.0915 304.4319 -9226.7681 -7477.3737 301.0315 69.2633 124.9193 30831.6901 52.0611 112.1972
ENERGY: 1500000 7.3779 4.1777 14.0223 0.0000 -10724.1558 1389.7774 0.0000 0.0000 1715.0495 -7593.7510 289.9554 -9308.8005 -7470.5015 300.6886 -491.0971 -486.1737 30777.6160 14.1303 67.3757
TCL: Running FEP window   7: Lambda1 0.6999999999999997 Lambda2 0.6499999999999997 [dLambda -0.050000000000000044]
TCL: Setting parameter firsttimestep to 0
TCL: Setting parameter alchLambda to 0.6999999999999997
Info: NONBONDED TABLE R-SQUARED SPACING: 0.0625
Info: NONBONDED TABLE SIZE: 705 POINTS
TCL: Setting parameter alchLambda2 to 0.6499999999999997
Info: NONBONDED TABLE R-SQUARED SPACING: 0.0625
Info: NONBONDED TABLE SIZE: 705 POINTS
TCL: Running for 1500000 steps
ETITLE: TS BOND ANGLE DIHED IMPRP ELECT VDW BOUNDARY MISC KINETIC TOTAL TEMP POTENTIAL TOTALAVG TEMPAVG PRESSURE GPRESSURE VOLUME PRESSAVG GPRESSAVG
ENERGY: 0 7.3779 4.1777 14.0223 0.0000 -10723.7027 1390.6679 0.0000 0.0000 1714.1889 -7593.2681 289.8099 -9307.4569 -7593.2681 289.8099 -575.4374 -489.7455 30777.6160 -575.4374 -489.7455
ENERGY: 300000 7.0114 4.3654 12.9716 0.0000 -10568.7521 1332.0101 0.0000 0.0000 1812.5873 -7399.8064 306.4456 -9212.3937 -7505.8645 298.3459 -838.7657 -824.3186 31038.9784 -188.3268 -121.4787
ENERGY: 600000 4.7825 7.4039 11.8000 0.0000 -10755.7867 1434.3719 0.0000 0.0000 1737.9910 -7559.4374 293.8340 -9297.4284 -7491.1526 300.6656 -65.4442 51.9626 30445.9748 -124.8079 -46.3863
ENERGY: 900000 6.4993 3.6363 14.5121 0.0000 -10723.5053 1412.7639 0.0000 0.0000 1782.0969 -7503.9968 301.2908 -9286.0937 -7495.1247 301.1597 -279.1213 -253.7237 30849.9984 -55.0078 15.3862
ENERGY: 1200000 8.5216 6.7903 13.9825 0.0000 -10696.4910 1421.9949 0.0000 0.0000 1804.2923 -7440.9093 305.0432 -9245.2016 -7482.2179 301.3796 -91.0624 -85.2157 30862.6772 104.3325 165.8711
ENERGY: 1500000 6.9327 4.2235 14.3067 0.0000 -10687.8518 1437.6229 0.0000 0.0000 1757.8814 -7466.8846 297.1968 -9224.7660 -7474.7224 301.2370 -62.5967 63.6300 30583.4291 80.4202 139.1694
TCL: Running FEP window   8: Lambda1 0.6499999999999997 Lambda2 0.5999999999999996 [dLambda -0.050000000000000044]
TCL: Setting parameter firsttimestep to 0
TCL: Setting parameter alchLambda to 0.6499999999999997
Info: NONBONDED TABLE R-SQUARED SPACING: 0.0625
Info: NONBONDED TABLE SIZE: 705 POINTS
TCL: Setting parameter alchLambda2 to 0.5999999999999996
Info: NONBONDED TABLE R-SQUARED SPACING: 0.0625
Info: NONBONDED TABLE SIZE: 705 POINTS
TCL: Running for 1500000 steps
ETITLE: TS BOND ANGLE DIHED IMPRP ELECT VDW BOUNDARY MISC KINETIC TOTAL TEMP POTENTIAL TOTALAVG TEMPAVG PRESSURE GPRESSURE VOLUME PRESSAVG GPRESSAVG
ENERGY: 0 6.9327 4.2235 14.3067 0.0000 -10687.6381 1437.8610 0.0000 0.0000 1756.9987 -7467.3155 297.0475 -9224.3142 -7467.3155 297.0475 -40.6733 51.3069 30583.4291 -40.6733 51.3069
ENERGY: 300000 6.1693 6.2880 9.7439 0.0000 -10751.5635 1430.2649 0.0000 0.0000 1790.2309 -7508.8666 302.6659 -9299.0975 -7480.0591 299.2822 -452.4697 -408.4936 30909.5111 -20.9981 40.6699
ENERGY: 600000 6.1996 3.3858 13.2647 0.0000 -10726.1708 1441.1533 0.0000 0.0000 1793.7905 -7468.3770 303.2677 -9262.1674 -7472.3864 300.4107 117.3618 164.9948 30439.8549 81.1449 137.0820
ENERGY: 900000 2.7804 5.7258 12.4465 0.0000 -10701.3487 1403.0937 0.0000 0.0000 1786.2614 -7491.0410 301.9948 -9277.3023 -7483.2491 299.4928 -439.3716 -410.3730 31074.9862 44.8786 108.5188
ENERGY: 1200000 3.5435 2.9155 11.9983 0.0000 -10764.3933 1429.2586 0.0000 0.0000 1809.3189 -7507.3584 305.8931 -9316.6774 -7493.5785 299.0392 -203.1150 -148.2671 30422.9620 -1.4883 57.5568
ENERGY: 1500000 7.3608 6.4209 12.2769 0.0000 -10795.0425 1492.9862 0.0000 0.0000 1751.6184 -7524.3793 296.1379 -9275.9978 -7497.4366 299.2165 326.5695 286.6856 30830.6599 1.1681 48.8266
TCL: Running FEP window   9: Lambda1 0.5999999999999996 Lambda2 0.5499999999999996 [dLambda -0.050000000000000044]
TCL: Setting parameter firsttimestep to 0
TCL: Setting parameter alchLambda to 0.5999999999999996
Info: NONBONDED TABLE R-SQUARED SPACING: 0.0625
Info: NONBONDED TABLE SIZE: 705 POINTS
TCL: Setting parameter alchLambda2 to 0.5499999999999996
Info: NONBONDED TABLE R-SQUARED SPACING: 0.0625
Info: NONBONDED TABLE SIZE: 705 POINTS
TCL: Running for 1500000 steps
ETITLE: TS BOND ANGLE DIHED IMPRP ELECT VDW BOUNDARY MISC KINETIC TOTAL TEMP POTENTIAL TOTALAVG TEMPAVG PRESSURE GPRESSURE VOLUME PRESSAVG GPRESSAVG
ENERGY: 0 7.3608 6.4209 12.2769 0.0000 -10794.8655 1493.8450 0.0000 0.0000 1750.7486 -7524.2133 295.9908 -9274.9619 -7524.2133 295.9908 190.3316 281.7093 30830.6599 190.3316 281.7093
ENERGY: 300000 1.4166 3.7770 13.7575 0.0000 -10653.8699 1373.4724 0.0000 0.0000 1825.6768 -7435.7695 308.6586 -9261.4463 -7490.6950 301.8182 -346.4804 -299.5468 30550.8081 31.9903 108.5924
ENERGY: 600000 8.5777 6.2055 13.6794 0.0000 -10527.3676 1337.8456 0.0000 0.0000 1799.1939 -7361.8655 304.1813 -9161.0594 -7496.9661 301.5991 -538.9248 -465.2786 30893.9467 -190.3132 -110.1936
ENERGY: 900000 2.7504 4.8140 11.9590 0.0000 -10731.4994 1436.5055 0.0000 0.0000 1839.3251 -7436.1453 310.9661 -9275.4704 -7507.7709 301.4654 -183.7108 -96.3406 30785.0647 -112.1762 -35.3667
ENERGY: 1200000 4.3483 2.8670 11.2697 0.0000 -10737.1755 1421.4205 0.0000 0.0000 1752.2346 -7545.0353 296.2421 -9297.2699 -7513.2433 300.1753 -263.7592 -188.2292 30614.2379 -141.7354 -61.8403
ENERGY: 1500000 7.8779 4.6592 10.6491 0.0000 -10747.8334 1493.2488 0.0000 0.0000 1776.1590 -7455.2392 300.2869 -9231.3983 -7507.0112 299.8205 516.1909 641.5915 30360.7617 -149.7352 -61.4489
TCL: Running FEP window  10: Lambda1 0.5499999999999996 Lambda2 0.4999999999999996 [dLambda -0.04999999999999999]
TCL: Setting parameter firsttimestep to 0
TCL: Setting parameter alchLambda to 0.5499999999999996
Info: NONBONDED TABLE R-SQUARED SPACING: 0.0625
Info: NONBONDED TABLE SIZE: 705 POINTS
TCL: Setting parameter alchLambda2 to 0.4999999999999996
Info: NONBONDED TABLE R-SQUARED SPACING: 0.0625
Info: NONBONDED TABLE SIZE: 705 POINTS
TCL: Running for 1500000 steps
ETITLE: TS BOND ANGLE DIHED IMPRP ELECT VDW BOUNDARY MISC KINETIC TOTAL TEMP POTENTIAL TOTALAVG TEMPAVG PRESSURE GPRESSURE VOLUME PRESSAVG GPRESSAVG
ENERGY: 0 7.8779 4.6592 10.6491 0.0000 -10747.8685 1494.0191 0.0000 0.0000 1775.2847 -7455.3783 300.1391 -9230.6630 -7455.3783 300.1391 564.5414 638.6548 30360.7617 564.5414 638.6548
ENERGY: 300000 4.3353 5.9961 13.5136 0.0000 -10799.2831 1551.5297 0.0000 0.0000 1776.9305 -7446.9779 300.4173 -9223.9083 -7434.5470 305.1412 1354.1478 1388.0409 30033.7585 228.9320 295.4706
ENERGY: 600000 3.9352 5.4962 14.8945 0.0000 -10761.3476 1424.1511 0.0000 0.0000 1803.5414 -7509.3293 304.9163 -9312.8706 -7473.3910 304.0876 -314.5102 -242.1830 30377.1955 -56.1887 7.4756
ENERGY: 900000 5.3296 3.0218 14.1548 0.0000 -10693.3848 1418.5391 0.0000 0.0000 1714.7971 -7537.5425 289.9127 -9252.3396 -7488.2611 300.5180 -221.0121 -203.5232 30698.6747 -149.7934 -96.1605
ENERGY: 1200000 6.5954 1.3597 15.6183 0.0000 -10807.4166 1473.5474 0.0000 0.0000 1756.5193 -7553.7764 296.9665 -9310.2958 -7503.0641 299.2907 153.9417 152.1439 30646.4689 -161.8617 -105.9689
ENERGY: 1500000 6.0352 10.4429 12.1670 0.0000 -10565.9084 1378.1369 0.0000 0.0000 1799.5738 -7359.5526 304.2455 -9159.1265 -7496.8104 299.5960 -492.4931 -416.7534 30772.9956 -209.9374 -151.3533
TCL: Running FEP window  11: Lambda1 0.4999999999999996 Lambda2 0.4499999999999996 [dLambda -0.04999999999999999]
TCL: Setting parameter firsttimestep to 0
TCL: Setting parameter alchLambda to 0.4999999999999996
Info: NONBONDED TABLE R-SQUARED SPACING: 0.0625
Info: NONBONDED TABLE SIZE: 705 POINTS
TCL: Setting parameter alchLambda2 to 0.4499999999999996
Info: NONBONDED TABLE R-SQUARED SPACING: 0.0625
Info: NONBONDED TABLE SIZE: 705 POINTS
TCL: Running for 1500000 steps
ETITLE: TS BOND ANGLE DIHED IMPRP ELECT VDW BOUNDARY MISC KINETIC TOTAL TEMP POTENTIAL TOTALAVG TEMPAVG PRESSURE GPRESSURE VOLUME PRESSAVG GPRESSAVG
ENERGY: 0 6.0352 10.4429 12.1670 0.0000 -10566.0907 1378.6751 0.0000 0.0000 1798.7397 -7360.0309 304.1045 -9158.7705 -7360.0309 304.1045 -499.2115 -426.5813 30772.9956 -499.2115 -426.5813
ENERGY: 300000 6.3555 7.5101 16.5368 0.0000 -10801.7506 1586.3386 0.0000 0.0000 1751.8337 -7433.1760 296.1743 -9185.0096 -7442.7833 299.8373 1168.7662 1190.4288 30649.3303 319.5984 352.9081
ENERGY: 600000 7.3496 5.9815 11.2712 0.0000 -10737.3091 1448.0667 0.0000 0.0000 1795.4635 -7469.1767 303.5506 -9264.6401 -7443.9032 299.6912 69.9862 100.8869 30539.8081 21.6524 59.4051
ENERGY: 900000 5.7875 5.2036 14.0425 0.0000 -10646.4552 1396.5109 0.0000 0.0000 1747.9446 -7476.9662 295.5168 -9224.9107 -7453.1948 300.3933 -309.5305 -284.5540 31118.6242 62.1863 88.9502
ENERGY: 1200000 7.2479 5.5985 13.9015 0.0000 -10576.5505 1371.3777 0.0000 0.0000 1764.1169 -7414.3080 298.2510 -9178.4249 -7450.8617 300.4681 -446.5355 -443.8656 31006.5159 26.9806 61.9827
ENERGY: 1500000 4.7872 3.7043 14.9963 0.0000 -10566.6620 1377.9168 0.0000 0.0000 1704.3911 -7460.8663 288.1534 -9165.2574 -7465.0224 298.3326 -556.6476 -542.6230 31262.8714 -35.5613 8.9961
TCL: Running FEP window  12: Lambda1 0.4499999999999996 Lambda2 0.39999999999999963 [dLambda -0.04999999999999999]
TCL: Setting parameter firsttimestep to 0
TCL: Setting parameter alchLambda to 0.4499999999999996
Info: NONBONDED TABLE R-SQUARED SPACING: 0.0625
Info: NONBONDED TABLE SIZE: 705 POINTS
TCL: Setting parameter alchLambda2 to 0.39999999999999963
Info: NONBONDED TABLE R-SQUARED SPACING: 0.0625
Info: NONBONDED TABLE SIZE: 705 POINTS
TCL: Running for 1500000 steps
ETITLE: TS BOND ANGLE DIHED IMPRP ELECT VDW BOUNDARY MISC KINETIC TOTAL TEMP POTENTIAL TOTALAVG TEMPAVG PRESSURE GPRESSURE VOLUME PRESSAVG GPRESSAVG
ENERGY: 0 4.7872 3.7043 14.9963 0.0000 -10566.6613 1378.0095 0.0000 0.0000 1703.5052 -7461.6588 288.0036 -9165.1640 -7461.6588 288.0036 -641.4585 -553.9837 31262.8714 -641.4585 -553.9837
ENERGY: 300000 7.0660 7.6046 14.9266 0.0000 -10619.7943 1369.6485 0.0000 0.0000 1784.0121 -7436.5366 301.6146 -9220.5487 -7461.0162 296.5067 -710.6915 -689.5377 31160.7218 -96.8788 -28.2926
ENERGY: 600000 6.1020 4.7273 10.5531 0.0000 -10854.9271 1505.0539 0.0000 0.0000 1757.8357 -7570.6551 297.1890 -9328.4908 -7491.9445 296.2299 138.1056 261.7910 30655.3226 -79.3045 -6.1458
ENERGY: 900000 6.7355 5.5960 13.6897 0.0000 -10608.8634 1401.8314 0.0000 0.0000 1799.5896 -7381.4212 304.2482 -9181.0109 -7485.8906 297.4030 -133.0835 -78.1767 30768.3190 -119.6237 -47.0228
ENERGY: 1200000 4.3910 6.4508 12.9169 0.0000 -10839.0024 1538.5609 0.0000 0.0000 1781.1661 -7495.5168 301.1334 -9276.6829 -7497.6752 296.9928 904.1227 923.3220 30307.9166 -59.9434 8.5020
ENERGY: 1500000 4.3129 9.1308 11.8086 0.0000 -10787.9511 1440.1523 0.0000 0.0000 1801.3788 -7521.1677 304.5507 -9322.5465 -7500.5796 297.9366 -192.1410 -106.5098 30564.9637 -43.3341 28.5501
TCL: Running FEP window  13: Lambda1 0.39999999999999963 Lambda2 0.34999999999999964 [dLambda -0.04999999999999999]
TCL: Setting parameter firsttimestep to 0
TCL: Setting parameter alchLambda to 0.39999999999999963
Info: NONBONDED TABLE R-SQUARED SPACING: 0.0625
Info: NONBONDED TABLE SIZE: 705 POINTS
TCL: Setting parameter alchLambda2 to 0.34999999999999964
Info: NONBONDED TABLE R-SQUARED SPACING: 0.0625
Info: NONBONDED TABLE SIZE: 705 POINTS
TCL: Running for 1500000 steps
ETITLE: TS BOND ANGLE DIHED IMPRP ELECT VDW BOUNDARY MISC KINETIC TOTAL TEMP POTENTIAL TOTALAVG TEMPAVG PRESSURE GPRESSURE VOLUME PRESSAVG GPRESSAVG
ENERGY: 0 4.3129 9.1308 11.8085 0.0000 -10787.9519 1440.1273 0.0000 0.0000 1800.5009 -7522.0715 304.4022 -9322.5723 -7522.0715 304.4022 -194.6611 -113.1833 30564.9637 -194.6611 -113.1833
ENERGY: 300000 6.4246 3.9281 12.9799 0.0000 -10639.5757 1416.0792 0.0000 0.0000 1763.7647 -7436.3992 298.1914 -9200.1639 -7486.4807 300.7318 -42.0109 -64.6333 30538.4736 5.5073 48.3012
ENERGY: 600000 5.4569 7.0111 13.2755 0.0000 -10660.5300 1400.7409 0.0000 0.0000 1749.2152 -7484.8304 295.7316 -9234.0456 -7470.8472 299.0567 -446.8644 -440.0659 30771.2584 -65.4885 -15.4840
ENERGY: 900000 8.0382 4.1103 11.7591 0.0000 -10732.4760 1370.5941 0.0000 0.0000 1776.0138 -7561.9605 300.2623 -9337.9743 -7479.3286 300.2813 -728.3884 -625.6031 30210.5309 -139.2481 -81.8125
ENERGY: 1200000 8.3938 3.3729 10.1596 0.0000 -10629.6912 1397.4380 0.0000 0.0000 1735.8650 -7474.4619 293.4745 -9210.3269 -7478.8516 299.7109 -280.4759 -182.9725 30922.8609 -121.1067 -61.9043
ENERGY: 1500000 3.6402 6.6246 13.6330 0.0000 -10739.2718 1448.7001 0.0000 0.0000 1740.6707 -7526.0032 294.2870 -9266.6740 -7488.3886 299.3672 158.7030 173.4955 30286.8666 -46.2505 8.9374
TCL: Running FEP window  14: Lambda1 0.34999999999999964 Lambda2 0.29999999999999966 [dLambda -0.04999999999999999]
TCL: Setting parameter firsttimestep to 0
TCL: Setting parameter alchLambda to 0.34999999999999964
Info: NONBONDED TABLE R-SQUARED SPACING: 0.0625
Info: NONBONDED TABLE SIZE: 705 POINTS
TCL: Setting parameter alchLambda2 to 0.29999999999999966
Info: NONBONDED TABLE R-SQUARED SPACING: 0.0625
Info: NONBONDED TABLE SIZE: 705 POINTS
TCL: Running for 1500000 steps
ETITLE: TS BOND ANGLE DIHED IMPRP ELECT VDW BOUNDARY MISC KINETIC TOTAL TEMP POTENTIAL TOTALAVG TEMPAVG PRESSURE GPRESSURE VOLUME PRESSAVG GPRESSAVG
ENERGY: 0 3.6402 6.6246 13.6330 0.0000 -10739.2721 1449.3878 0.0000 0.0000 1739.7592 -7526.2273 294.1329 -9265.9865 -7526.2273 294.1329 89.8146 169.6854 30286.8666 89.8146 169.6854
ENERGY: 300000 6.3923 5.5916 12.2757 0.0000 -10704.3287 1441.8420 0.0000 0.0000 1777.9786 -7460.2485 300.5945 -9238.2271 -7498.6547 296.2372 -242.8462 -140.7155 30853.9421 61.5696 146.9429
ENERGY: 600000 6.8233 5.7426 11.2616 0.0000 -10873.0970 1474.3277 0.0000 0.0000 1821.1647 -7553.7772 307.8958 -9374.9419 -7493.2111 299.6885 141.4815 195.0772 30113.9898 102.7820 163.7105
ENERGY: 900000 3.6449 9.0598 11.1486 0.0000 -10832.8849 1592.8709 0.0000 0.0000 1785.0463 -7431.1145 301.7894 -9216.1608 -7485.4681 299.5654 1642.0963 1690.9380 29865.6615 174.1594 225.3395
ENERGY: 1200000 5.0962 3.4601 15.1523 0.0000 -10792.1268 1533.5503 0.0000 0.0000 1781.0197 -7453.8481 301.1087 -9234.8678 -7473.9747 299.8381 715.4218 765.6967 30784.8737 240.9886 293.3061
ENERGY: 1500000 3.3533 6.4174 14.3812 0.0000 -10803.2659 1477.2292 0.0000 0.0000 1769.3839 -7532.5010 299.1414 -9301.8849 -7488.4042 298.9595 411.7174 439.3843 30193.0319 215.8816 263.8538
TCL: Running FEP window  15: Lambda1 0.29999999999999966 Lambda2 0.24999999999999967 [dLambda -0.04999999999999999]
TCL: Setting parameter firsttimestep to 0
TCL: Setting parameter alchLambda to 0.29999999999999966
Info: NONBONDED TABLE R-SQUARED SPACING: 0.0625
Info: NONBONDED TABLE SIZE: 705 POINTS
TCL: Setting parameter alchLambda2 to 0.24999999999999967
Info: NONBONDED TABLE R-SQUARED SPACING: 0.0625
Info: NONBONDED TABLE SIZE: 705 POINTS
TCL: Running for 1500000 steps
ETITLE: TS BOND ANGLE DIHED IMPRP ELECT VDW BOUNDARY MISC KINETIC TOTAL TEMP POTENTIAL TOTALAVG TEMPAVG PRESSURE GPRESSURE VOLUME PRESSAVG GPRESSAVG
ENERGY: 0 3.3533 6.4174 14.3812 0.0000 -10803.2648 1477.6387 0.0000 0.0000 1768.5194 -7532.9548 298.9953 -9301.4742 -7532.9548 298.9953 341.0976 432.5485 30193.0319 341.0976 432.5485
ENERGY: 300000 6.0510 3.8041 12.1818 0.0000 -10703.6794 1418.3471 0.0000 0.0000 1733.4745 -7529.8208 293.0704 -9263.2953 -7495.0978 296.8808 -359.9885 -244.6699 30504.9045 -37.1768 48.3457
ENERGY: 600000 5.2768 8.6002 12.7199 0.0000 -10572.0902 1352.7201 0.0000 0.0000 1736.3083 -7456.4648 293.5495 -9192.7731 -7484.0275 296.8977 -489.2644 -425.0356 30568.7548 -24.6386 65.6776
ENERGY: 900000 4.9290 7.5724 12.2972 0.0000 -10658.9097 1410.0508 0.0000 0.0000 1779.0428 -7445.0175 300.7744 -9224.0602 -7475.1545 298.9046 -173.7196 -122.2254 30426.3054 -101.1383 -18.3186
ENERGY: 1200000 6.3606 4.8217 11.6224 0.0000 -10844.0201 1544.7139 0.0000 0.0000 1706.5109 -7569.9906 288.5118 -9276.5015 -7489.1244 298.0021 1184.8518 1288.8668 29850.1619 -66.9452 8.7123
ENERGY: 1500000 6.8050 7.3963 12.5675 0.0000 -10715.5921 1446.5593 0.0000 0.0000 1739.0193 -7503.2446 294.0078 -9242.2639 -7489.9422 298.1508 153.5254 165.4717 30246.2581 -62.5507 7.5776
TCL: Running FEP window  16: Lambda1 0.24999999999999967 Lambda2 0.19999999999999968 [dLambda -0.04999999999999999]
TCL: Setting parameter firsttimestep to 0
TCL: Setting parameter alchLambda to 0.24999999999999967
Info: NONBONDED TABLE R-SQUARED SPACING: 0.0625
Info: NONBONDED TABLE SIZE: 705 POINTS
TCL: Setting parameter alchLambda2 to 0.19999999999999968
Info: NONBONDED TABLE R-SQUARED SPACING: 0.0625
Info: NONBONDED TABLE SIZE: 705 POINTS
TCL: Running for 1500000 steps
ETITLE: TS BOND ANGLE DIHED IMPRP ELECT VDW BOUNDARY MISC KINETIC TOTAL TEMP POTENTIAL TOTALAVG TEMPAVG PRESSURE GPRESSURE VOLUME PRESSAVG GPRESSAVG
ENERGY: 0 6.8050 7.3964 12.5675 0.0000 -10715.5919 1446.9153 0.0000 0.0000 1738.1308 -7503.7768 293.8576 -9241.9077 -7503.7768 293.8576 85.3040 158.9725 30246.2581 85.3040 158.9725
ENERGY: 300000 5.3741 6.6737 10.8124 0.0000 -10848.6361 1469.2134 0.0000 0.0000 1728.2608 -7628.3017 292.1889 -9356.5625 -7537.7102 296.6363 -143.0204 -93.6520 30426.1465 -191.9101 -103.2482
ENERGY: 600000 4.6867 11.7007 12.6301 0.0000 -10761.3665 1481.5957 0.0000 0.0000 1744.7971 -7505.9563 294.9847 -9250.7534 -7511.0775 297.4127 408.1231 409.2046 30295.8694 -158.6327 -79.0203
ENERGY: 900000 3.6354 5.3469 13.6576 0.0000 -10613.0747 1401.1201 0.0000 0.0000 1814.8778 -7374.4369 306.8329 -9189.3146 -7509.1582 297.8715 -87.6056 -49.3747 30436.9792 -234.4724 -161.3217
ENERGY: 1200000 5.6115 7.8776 14.3881 0.0000 -10719.9993 1406.1658 0.0000 0.0000 1823.3172 -7462.6391 308.2597 -9285.9563 -7497.7033 299.3823 -577.8999 -524.2670 30698.6748 -305.1447 -238.6418
ENERGY: 1500000 3.4635 5.8937 13.7062 0.0000 -10716.8458 1425.2262 0.0000 0.0000 1741.3816 -7527.1745 294.4072 -9268.5561 -7500.1551 299.3589 33.7172 134.0698 29848.8740 -324.9843 -256.5037
TCL: Running FEP window  17: Lambda1 0.19999999999999968 Lambda2 0.1499999999999997 [dLambda -0.04999999999999999]
TCL: Setting parameter firsttimestep to 0
TCL: Setting parameter alchLambda to 0.19999999999999968
Info: NONBONDED TABLE R-SQUARED SPACING: 0.0625
Info: NONBONDED TABLE SIZE: 705 POINTS
TCL: Setting parameter alchLambda2 to 0.1499999999999997
Info: NONBONDED TABLE R-SQUARED SPACING: 0.0625
Info: NONBONDED TABLE SIZE: 705 POINTS
TCL: Running for 1500000 steps
ETITLE: TS BOND ANGLE DIHED IMPRP ELECT VDW BOUNDARY MISC KINETIC TOTAL TEMP POTENTIAL TOTALAVG TEMPAVG PRESSURE GPRESSURE VOLUME PRESSAVG GPRESSAVG
ENERGY: 0 3.4635 5.8937 13.7062 0.0000 -10716.8453 1425.4135 0.0000 0.0000 1740.5275 -7527.8408 294.2628 -9268.3684 -7527.8408 294.2628 39.5508 129.0654 29848.8740 39.5508 129.0654
ENERGY: 300000 3.8411 3.6500 15.1179 0.0000 -10571.0426 1359.8518 0.0000 0.0000 1804.0828 -7384.4991 305.0078 -9188.5819 -7470.5495 298.0995 -715.6646 -608.2755 31205.4567 -258.8735 -196.0418
ENERGY: 600000 4.1281 5.8898 12.7977 0.0000 -10712.9446 1402.8945 0.0000 0.0000 1759.2081 -7528.0264 297.4211 -9287.2345 -7477.2739 299.8292 -478.5426 -335.9614 30416.2340 -303.4304 -228.2769
ENERGY: 900000 9.7783 5.0306 14.2873 0.0000 -10702.4786 1477.7756 0.0000 0.0000 1779.2955 -7416.3113 300.8171 -9195.6068 -7468.2958 299.8349 119.3921 117.0239 30517.1172 -10.2679 48.4226
ENERGY: 1200000 7.1297 3.1140 12.6132 0.0000 -10827.9269 1517.8541 0.0000 0.0000 1774.2027 -7513.0131 299.9561 -9287.2158 -7467.6626 299.8890 736.1343 823.3082 30257.8373 -42.7135 16.5904
ENERGY: 1500000 6.5514 6.0278 12.2612 0.0000 -10783.1098 1508.7905 0.0000 0.0000 1780.1109 -7469.3679 300.9550 -9249.4789 -7467.8712 300.2042 357.4605 434.8683 30319.0205 15.1582 73.6785
TCL: Running FEP window  18: Lambda1 0.1499999999999997 Lambda2 0.09999999999999969 [dLambda -0.05 ]
TCL: Setting parameter firsttimestep to 0
TCL: Setting parameter alchLambda to 0.1499999999999997
Info: NONBONDED TABLE R-SQUARED SPACING: 0.0625
Info: NONBONDED TABLE SIZE: 705 POINTS
TCL: Setting parameter alchLambda2 to 0.09999999999999969
Info: NONBONDED TABLE R-SQUARED SPACING: 0.0625
Info: NONBONDED TABLE SIZE: 705 POINTS
TCL: Running for 1500000 steps
ETITLE: TS BOND ANGLE DIHED IMPRP ELECT VDW BOUNDARY MISC KINETIC TOTAL TEMP POTENTIAL TOTALAVG TEMPAVG PRESSURE GPRESSURE VOLUME PRESSAVG GPRESSAVG
ENERGY: 0 6.5514 6.0278 12.2612 0.0000 -10783.1098 1509.3941 0.0000 0.0000 1779.1959 -7469.6792 300.8003 -9248.8752 -7469.6792 300.8003 356.1347 435.7688 30319.0205 356.1347 435.7688
ENERGY: 300000 4.7415 9.4434 10.8186 0.0000 -10639.4278 1456.1556 0.0000 0.0000 1783.4049 -7374.8639 301.5119 -9158.2688 -7456.5309 302.3992 533.3905 563.4354 30151.1371 2.3461 67.5739
ENERGY: 600000 7.2482 3.6310 13.0945 0.0000 -10582.8857 1439.5207 0.0000 0.0000 1788.1087 -7331.2825 302.3072 -9119.3913 -7422.5558 301.8747 160.4376 293.7688 30731.2999 -46.3041 22.9634
ENERGY: 900000 4.5277 8.5650 16.3417 0.0000 -10767.0534 1468.1180 0.0000 0.0000 1756.8868 -7512.6141 297.0286 -9269.5009 -7434.9638 301.5596 220.2188 216.2133 30377.6339 83.8451 142.5815
ENERGY: 1200000 9.3270 4.8641 14.3447 0.0000 -10708.7896 1447.7225 0.0000 0.0000 1777.3708 -7455.1605 300.4917 -9232.5313 -7426.7278 302.3244 -268.6195 -211.6589 30570.4696 61.7028 113.6655
ENERGY: 1500000 3.4770 8.8714 10.8065 0.0000 -10864.1322 1522.1568 0.0000 0.0000 1787.0694 -7531.7512 302.1314 -9318.8206 -7439.4912 302.1550 595.1714 587.7858 30202.9056 199.4874 245.5332
TCL: Running FEP window  19: Lambda1 0.09999999999999969 Lambda2 0.049999999999999684 [dLambda -0.05 ]
TCL: Setting parameter firsttimestep to 0
TCL: Setting parameter alchLambda to 0.09999999999999969
Info: NONBONDED TABLE R-SQUARED SPACING: 0.0625
Info: NONBONDED TABLE SIZE: 705 POINTS
TCL: Setting parameter alchLambda2 to 0.049999999999999684
Info: NONBONDED TABLE R-SQUARED SPACING: 0.0625
Info: NONBONDED TABLE SIZE: 705 POINTS
TCL: Running for 1500000 steps
ETITLE: TS BOND ANGLE DIHED IMPRP ELECT VDW BOUNDARY MISC KINETIC TOTAL TEMP POTENTIAL TOTALAVG TEMPAVG PRESSURE GPRESSURE VOLUME PRESSAVG GPRESSAVG
ENERGY: 0 3.4770 8.8714 10.8065 0.0000 -10864.1330 1522.8653 0.0000 0.0000 1786.2043 -7531.9086 301.9852 -9318.1129 -7531.9086 301.9852 508.0298 585.8761 30202.9056 508.0298 585.8761
ENERGY: 300000 4.8510 5.9473 15.3474 0.0000 -10695.6928 1398.4639 0.0000 0.0000 1833.8925 -7437.1908 310.0476 -9271.0833 -7456.6030 302.1107 -372.4799 -403.6356 30440.8381 10.6033 46.3819
ENERGY: 600000 7.0200 4.9512 13.3810 0.0000 -10645.2116 1376.9345 0.0000 0.0000 1763.2281 -7479.6969 298.1007 -9242.9250 -7457.4153 302.9641 -681.9875 -639.8868 30756.4365 -168.4634 -122.0218
ENERGY: 900000 6.9196 3.6005 12.5106 0.0000 -10814.9574 1503.7705 0.0000 0.0000 1805.5360 -7482.6202 305.2535 -9288.1562 -7467.4063 302.2768 687.9213 655.9979 30312.0100 -9.6041 29.2518
ENERGY: 1200000 3.6657 10.2349 12.7983 0.0000 -10812.0105 1500.6457 0.0000 0.0000 1855.2107 -7429.4552 313.6518 -9284.6660 -7469.3516 302.9494 275.9620 319.2086 30624.7628 -46.7961 -5.2286
ENERGY: 1500000 4.5826 3.6740 13.8308 0.0000 -10872.8729 1548.3020 0.0000 0.0000 1795.8374 -7506.6462 303.6138 -9302.4835 -7477.6905 302.5861 772.4189 842.2425 30378.8420 71.6347 121.0219
TCL: Running FEP window  20: Lambda1 0.049999999999999684 Lambda2 0.0    [dLambda -0.049999999999999684]
TCL: Setting parameter firsttimestep to 0
TCL: Setting parameter alchLambda to 0.049999999999999684
Info: NONBONDED TABLE R-SQUARED SPACING: 0.0625
Info: NONBONDED TABLE SIZE: 705 POINTS
TCL: Setting parameter alchLambda2 to 0.0
Info: NONBONDED TABLE R-SQUARED SPACING: 0.0625
Info: NONBONDED TABLE SIZE: 705 POINTS
TCL: Running for 1500000 steps
ETITLE: TS BOND ANGLE DIHED IMPRP ELECT VDW BOUNDARY MISC KINETIC TOTAL TEMP POTENTIAL TOTALAVG TEMPAVG PRESSURE GPRESSURE VOLUME PRESSAVG GPRESSAVG
ENERGY: 0 4.5826 3.6740 13.8308 0.0000 -10872.8745 1548.4278 0.0000 0.0000 1794.9474 -7507.4119 303.4633 -9302.3593 -7507.4119 303.4633 746.0373 836.9855 30378.8420 746.0373 836.9855
ENERGY: 300000 5.3593 6.3642 13.3191 0.0000 -10897.6913 1558.6595 0.0000 0.0000 1785.8822 -7528.1069 301.9307 -9313.9892 -7512.2600 301.1905 918.7730 963.7929 30009.5371 235.4213 308.5080
ENERGY: 600000 5.9513 5.2832 12.2437 0.0000 -10724.1909 1447.8525 0.0000 0.0000 1736.0472 -7516.8130 293.5054 -9252.8602 -7511.8574 300.6051 220.7258 356.4088 29968.5494 113.8705 198.1590
ENERGY: 900000 5.9361 5.1445 11.3821 0.0000 -10734.0320 1475.7328 0.0000 0.0000 1769.2562 -7466.5804 299.1198 -9235.8365 -7502.3639 300.0790 142.6566 170.1439 30632.6713 263.1984 338.4147
ENERGY: 1200000 10.0289 5.4450 13.5066 0.0000 -10812.8438 1530.7322 0.0000 0.0000 1778.0960 -7475.0351 300.6144 -9253.1312 -7494.0753 300.6268 708.6866 749.3450 30069.0817 231.9791 298.2450
ENERGY: 1500000 4.5242 3.6947 12.1413 0.0000 -10752.8469 1512.3653 0.0000 0.0000 1784.6429 -7435.4785 301.7212 -9220.1214 -7483.7707 300.9958 174.0301 265.8602 30751.4617 206.9147 274.4465
TCL: Exiting due to exit command.
