Info: SIMULATION PARAMETERS:
Info: TIMESTEP               2
Info: NUMBER OF STEPS        0
Info: STEPS PER CYCLE        10
Info: PERIODIC CELL BASIS 1  31.4744 0 0
Info: PERIODIC CELL BASIS 2  0 30.4299 0
Info: PERIODIC CELL BASIS 3  0 0 32.1521
Info: PERIODIC CELL CENTER   0 0 0
Info: WRAPPING WATERS AROUND PERIODIC BOUNDARIES ON OUTPUT.
Info: WRAPPING ALL CLUSTERS AROUND PERIODIC BOUNDARIES ON OUTPUT.
Info: FIRST LDB TIMESTEP     50
Info: LAST LDB TIMESTEP     -1
Info: HOM BACKGROUND SCALING 1
Info: PME BACKGROUND SCALING 1
Info: MIN ATOMS PER PATCH    40
Info: EMPTY PATCH LOAD       40 ATOMS
Info: VELOCITY FILE          mobley_8754702_equil.vel
Info: CENTER OF MASS MOVING INITIALLY? NO
Info: DIELECTRIC             1
Info: EXCLUDE                SCALED ONE-FOUR
Info: 1-4 ELECTROSTATICS SCALED BY 0.833333
Info: MODIFIED 1-4 VDW PARAMETERS WILL BE USED
Info: DCD FILENAME           mobley_8754702_prod.dcd
Info: DCD FREQUENCY          100000
Info: DCD FIRST STEP         100000
Info: DCD FILE WILL CONTAIN UNIT CELL DATA
Info: XST FILENAME           mobley_8754702_prod.xst
Info: XST FREQUENCY          100000
Info: NO VELOCITY DCD OUTPUT
Info: NO FORCE DCD OUTPUT
Info: OUTPUT FILENAME        mobley_8754702_prod
Info: BINARY OUTPUT FILES WILL BE USED
Info: RESTART FILENAME       mobley_8754702_prod.restart
Info: RESTART FREQUENCY      100000
Info: BINARY RESTART FILES WILL BE USED
Info: CUTOFF                 9
Info: PAIRLIST DISTANCE      11
Info: PAIRLIST SHRINK RATE   0.01
Info: PAIRLIST GROW RATE     0.01
Info: PAIRLIST TRIGGER       0.3
Info: PAIRLISTS PER CYCLE    2
Info: PAIRLISTS ENABLED
Info: MARGIN                 2
Info: HYDROGEN GROUP CUTOFF  2.5
Info: PATCH DIMENSION        15.5
Info: ENERGY OUTPUT STEPS    100000
Info: ENERGY EVALUATION STEPS    100000
Info: OUTPUT ENERGY PRECISION 4
Info: CROSSTERM ENERGY INCLUDED IN DIHEDRAL
Info: TIMING OUTPUT STEPS    1000000
Info: PRESSURE OUTPUT STEPS  100000
Info: ALCHEMICAL FEP ON
Info: FEP CURRENT LAMBDA VALUE     0
Info: FEP COMPARISON LAMBDA VALUE  0.05
Info: FEP INTRA-ALCHEMICAL NON-BONDED INTERACTIONS WILL BE RETAINED
Info: FEP INTRA-ALCHEMICAL BONDED INTERACTIONS WILL BE RETAINED
Info: FEP VDW SHIFTING COEFFICIENT 5
Info: FEP ELEC. ACTIVE FOR ANNIHILATED PARTICLES BETWEEN LAMBDA = 0 AND LAMBDA = 0.5
Info: FEP ELEC. ACTIVE FOR EXNIHILATED PARTICLES BETWEEN LAMBDA = 0.5 AND LAMBDA = 1
Info: FEP VDW ACTIVE FOR ANNIHILATED PARTICLES BETWEEN LAMBDA = 0 AND LAMBDA = 1
Info: FEP VDW ACTIVE FOR EXNIHILATED PARTICLES BETWEEN LAMBDA = 0 AND LAMBDA = 1
Info: FEP BOND ACTIVE FOR ANNIHILATED PARTICLES BETWEEN LAMBDA = 1 AND LAMBDA = 1
Info: FEP BOND ACTIVE FOR EXNIHILATED PARTICLES BETWEEN LAMBDA = 0 AND LAMBDA = 0
Info: LANGEVIN DYNAMICS ACTIVE
Info: LANGEVIN TEMPERATURE   300
Info: LANGEVIN USING BBK INTEGRATOR
Info: LANGEVIN DAMPING COEFFICIENT IS 1 INVERSE PS
Info: LANGEVIN DYNAMICS APPLIED TO HYDROGENS
Info: LANGEVIN PISTON PRESSURE CONTROL ACTIVE
Info:        TARGET PRESSURE IS 1.01325 BAR
Info:     OSCILLATION PERIOD IS 50 FS
Info:             DECAY TIME IS 25 FS
Info:     PISTON TEMPERATURE IS 300 K
Info:       PRESSURE CONTROL IS GROUP-BASED
Info:    INITIAL STRAIN RATE IS -0.000695667 -0.000695667 -0.000695667
Info:       CELL FLUCTUATION IS ISOTROPIC
Info: PARTICLE MESH EWALD (PME) ACTIVE
Info: PME TOLERANCE               1e-06
Info: PME EWALD COEFFICIENT       0.348832
Info: PME INTERPOLATION ORDER     4
Info: PME GRID DIMENSIONS         32 32 36
Info: PME MAXIMUM GRID SPACING    1
Info: PME CALCULATION WILL BE PERFORMED ON GPU
Info: FULL ELECTROSTATIC EVALUATION FREQUENCY      2
Info: USING VERLET I (r-RESPA) MTS SCHEME.
Info: C1 SPLITTING OF LONG RANGE ELECTROSTATICS
Info: PLACING ATOMS IN PATCHES BY HYDROGEN GROUPS
Info: RIGID BONDS TO HYDROGEN : ALL
Info:         ERROR TOLERANCE : 1e-08
Info:          MAX ITERATIONS : 100
Info: RIGID WATER USING SETTLE ALGORITHM
Info: RANDOM NUMBER SEED     1743896800
Info: USE HYDROGEN BONDS?    NO
Info: Using AMBER format force field!
Info: AMBER PARM FILE        mobley_8754702.prmtop
Info: COORDINATE PDB         mobley_8754702.pdb
Info: Exclusions will be read from PARM file!
Info: SCNB (VDW SCALING)     2
Info: USING ARITHMETIC MEAN TO COMBINE L-J SIGMA PARAMETERS
Info: BINARY COORDINATES     mobley_8754702_equil.coor
Info: SUMMARY OF PARAMETERS:
Info: 9 BONDS
Info: 11 ANGLES
Info:   11 HARMONIC
Info:   0 COSINE-BASED
Info: 11 DIHEDRAL
Info: 0 IMPROPER
Info: 0 CROSSTERM
Info: 0 VDW
Info: 45 VDW_PAIRS
Info: 0 NBTHOLE_PAIRS
Info: To read alchdata from file: mobley_8754702.pdb
Info: To read alchflag data from column: 5
Info: STRUCTURE SUMMARY:
Info: 2981 ATOMS
Info: 2980 BONDS
Info: 22 ANGLES
Info: 28 DIHEDRALS
Info: 0 IMPROPERS
Info: 0 CROSSTERMS
Info: 3025 EXCLUSIONS
Info: 2975 RIGID BONDS
Info: ALCH: 0 ATOMS TO DISAPPEAR IN FINAL STATE
Info: ALCH: 14 ATOMS TO APPEAR IN FINAL STATE
Info: 5968 DEGREES OF FREEDOM
Info: 995 HYDROGEN GROUPS
Info: 4 ATOMS IN LARGEST HYDROGEN GROUP
Info: 995 MIGRATION GROUPS
Info: 4 ATOMS IN LARGEST MIGRATION GROUP
Info: TOTAL MASS = 17905.9 amu
Info: TOTAL CHARGE = -0.000100043 e
Info: MASS DENSITY = 0.96558 g/cm^3
Info: ATOM DENSITY = 0.0968042 atoms/A^3
Info: ADDED 0 IMPLICIT EXCLUSIONS
Info: NONBONDED TABLE R-SQUARED SPACING: 0.0625
Info: NONBONDED TABLE SIZE: 705 POINTS
Info: REMOVING COM VELOCITY 0.135905 -0.127628 0.132203
Info: Use 3D box decompostion in PME FFT.
Info: Updated CUDA force table with 4096 elements.
Info: Updated CUDA LJ table with 9 x 9 elements.
Info: Found 17 unique exclusion lists needing 36 bytes
TCL: Running for 1500000 steps
ETITLE: TS BOND ANGLE DIHED IMPRP ELECT VDW BOUNDARY MISC KINETIC TOTAL TEMP POTENTIAL TOTALAVG TEMPAVG PRESSURE GPRESSURE VOLUME PRESSAVG GPRESSAVG
ENERGY: 0 0.5024 3.5659 1.9237 0.0000 -10632.5138 1435.9853 0.0000 0.0000 1745.9687 -7444.5679 294.4408 -9190.5366 -7444.5679 294.4408 92.8921 166.5642 30794.1112 92.8921 166.5642
ENERGY: 300000 1.4865 5.5241 4.2446 0.0000 -10839.2900 1482.7977 0.0000 0.0000 1780.0651 -7565.1720 300.1908 -9345.2371 -7514.3047 302.5153 245.5681 228.7037 30615.5193 199.9593 223.5872
ENERGY: 600000 2.2267 7.3667 3.0086 0.0000 -10808.5245 1467.5086 0.0000 0.0000 1862.1314 -7466.2826 314.0306 -9328.4140 -7541.5118 302.4559 383.9052 423.3487 30265.7803 152.5943 190.2716
ENERGY: 900000 1.0942 7.9912 2.3463 0.0000 -10723.7220 1401.9927 0.0000 0.0000 1798.9429 -7511.3547 303.3744 -9310.2976 -7548.4599 300.5386 -837.0684 -760.0909 31316.0152 16.2571 54.1282
ENERGY: 1200000 1.8393 4.4166 3.3043 0.0000 -10736.4414 1410.1482 0.0000 0.0000 1749.7043 -7567.0287 295.0708 -9316.7330 -7549.0005 299.0350 -333.8462 -211.5647 30504.7639 -140.7432 -91.7600
ENERGY: 1500000 1.4626 5.9073 3.4477 0.0000 -10815.4285 1409.1115 0.0000 0.0000 1790.5448 -7604.9545 301.9582 -9395.4993 -7550.9745 299.6972 -567.2228 -557.2416 30630.9448 -132.2662 -86.7548
TCL: Running FEP window   2: Lambda1 0.05   Lambda2 0.1    [dLambda 0.05  ]
TCL: Setting parameter firsttimestep to 0
TCL: Setting parameter alchLambda to 0.05
Info: NONBONDED TABLE R-SQUARED SPACING: 0.0625
Info: NONBONDED TABLE SIZE: 705 POINTS
TCL: Setting parameter alchLambda2 to 0.1
Info: NONBONDED TABLE R-SQUARED SPACING: 0.0625
Info: NONBONDED TABLE SIZE: 705 POINTS
TCL: Running for 1500000 steps
ETITLE: TS BOND ANGLE DIHED IMPRP ELECT VDW BOUNDARY MISC KINETIC TOTAL TEMP POTENTIAL TOTALAVG TEMPAVG PRESSURE GPRESSURE VOLUME PRESSAVG GPRESSAVG
ENERGY: 0 1.4626 5.9073 3.4477 0.0000 -10815.4283 1410.7589 0.0000 0.0000 1789.6617 -7604.1901 301.8092 -9393.8518 -7604.1901 301.8092 -632.3413 -552.5335 30630.9448 -632.3413 -552.5335
ENERGY: 300000 2.9607 8.8857 4.0070 0.0000 -10798.6271 1435.5559 0.0000 0.0000 1723.7786 -7623.4394 290.6987 -9347.2180 -7542.0937 301.7536 -372.5689 -381.6945 30888.0929 -381.7956 -355.8721
ENERGY: 600000 0.9686 9.2808 4.5002 0.0000 -10905.3744 1615.5074 0.0000 0.0000 1794.2866 -7480.8309 302.5892 -9275.1175 -7529.7274 301.4912 1496.1989 1498.8181 30623.5848 -44.0653 -11.7740
ENERGY: 900000 1.1051 4.3514 4.5306 0.0000 -10805.0857 1404.9904 0.0000 0.0000 1784.5761 -7605.5322 300.9516 -9390.1082 -7539.4799 300.9978 -288.2995 -238.1711 30003.8839 -52.6513 -4.7828
ENERGY: 1200000 1.8015 11.0035 3.0907 0.0000 -10930.0560 1550.2414 0.0000 0.0000 1784.8900 -7579.0288 301.0045 -9363.9188 -7535.2858 302.2811 487.6061 528.4645 30619.6375 -53.0067 -3.4749
ENERGY: 1500000 1.9472 7.0512 1.7947 0.0000 -10822.3174 1429.5626 0.0000 0.0000 1807.8776 -7574.0841 304.8812 -9381.9617 -7540.0611 301.9391 -435.1432 -324.3936 30442.7585 -112.1046 -57.0364
TCL: Running FEP window   3: Lambda1 0.1    Lambda2 0.15000000000000002 [dLambda 0.05000000000000002]
TCL: Setting parameter firsttimestep to 0
TCL: Setting parameter alchLambda to 0.1
Info: NONBONDED TABLE R-SQUARED SPACING: 0.0625
Info: NONBONDED TABLE SIZE: 705 POINTS
TCL: Setting parameter alchLambda2 to 0.15000000000000002
Info: NONBONDED TABLE R-SQUARED SPACING: 0.0625
Info: NONBONDED TABLE SIZE: 705 POINTS
TCL: Running for 1500000 steps
ETITLE: TS BOND ANGLE DIHED IMPRP ELECT VDW BOUNDARY MISC KINETIC TOTAL TEMP POTENTIAL TOTALAVG TEMPAVG PRESSURE GPRESSURE VOLUME PRESSAVG GPRESSAVG
ENERGY: 0 1.9472 7.0512 1.7947 0.0000 -10822.3166 1432.0834 0.0000 0.0000 1806.9929 -7572.4472 304.7320 -9379.4401 -7572.4472 304.7320 -417.9621 -315.6430 30442.7585 -417.9621 -315.6430
ENERGY: 300000 2.0714 4.6512 4.4322 0.0000 -10760.6044 1366.4897 0.0000 0.0000 1765.1210 -7617.8389 297.6707 -9382.9599 -7590.1861 299.9474 -946.2272 -890.0534 30721.1593 -250.1389 -174.5500
ENERGY: 600000 1.1524 4.9917 3.1337 0.0000 -10744.2293 1396.0384 0.0000 0.0000 1795.2357 -7543.6774 302.7492 -9338.9131 -7582.5541 300.1904 -564.3694 -465.8840 30698.7100 -333.9979 -257.2664
ENERGY: 900000 1.4981 4.1298 4.2738 0.0000 -10756.3788 1408.4947 0.0000 0.0000 1764.1528 -7573.8298 297.5074 -9337.9825 -7579.8251 300.3042 -564.1846 -488.2366 30906.6307 -350.3218 -268.0618
ENERGY: 1200000 1.8058 5.7401 3.2536 0.0000 -10658.4531 1355.4016 0.0000 0.0000 1825.3903 -7466.8616 307.8345 -9292.2519 -7579.8861 300.6033 -596.2301 -468.0968 30463.2051 -408.0439 -321.9586
ENERGY: 1500000 2.4091 3.9233 2.8989 0.0000 -10802.8783 1475.0202 0.0000 0.0000 1787.7335 -7530.8933 301.4841 -9318.6268 -7579.9480 299.6901 350.8196 424.8758 30464.3087 -315.3516 -238.4550
TCL: Running FEP window   4: Lambda1 0.15000000000000002 Lambda2 0.2    [dLambda 0.04999999999999999]
TCL: Setting parameter firsttimestep to 0
TCL: Setting parameter alchLambda to 0.15000000000000002
Info: NONBONDED TABLE R-SQUARED SPACING: 0.0625
Info: NONBONDED TABLE SIZE: 705 POINTS
TCL: Setting parameter alchLambda2 to 0.2
Info: NONBONDED TABLE R-SQUARED SPACING: 0.0625
Info: NONBONDED TABLE SIZE: 705 POINTS
TCL: Running for 1500000 steps
ETITLE: TS BOND ANGLE DIHED IMPRP ELECT VDW BOUNDARY MISC KINETIC TOTAL TEMP POTENTIAL TOTALAVG TEMPAVG PRESSURE GPRESSURE VOLUME PRESSAVG GPRESSAVG
ENERGY: 0 2.4091 3.9233 2.8989 0.0000 -10802.8778 1476.0276 0.0000 0.0000 1786.8406 -7530.7783 301.3335 -9317.6189 -7530.7783 301.3335 355.5944 427.7946 30464.3087 355.5944 427.7946
ENERGY: 300000 3.8405 3.7828 3.6579 0.0000 -10841.5416 1456.0111 0.0000 0.0000 1761.3659 -7612.8835 297.0374 -9374.2494 -7576.2610 300.3347 -134.4236 -126.3996 30609.1114 200.6108 241.3934
ENERGY: 600000 1.5781 4.9820 2.6731 0.0000 -10730.1225 1412.6353 0.0000 0.0000 1757.0698 -7551.1842 296.3129 -9308.2541 -7574.8939 299.4948 -472.4349 -379.0839 30942.5406 4.7924 54.6883
ENERGY: 900000 1.6002 5.5698 5.1415 0.0000 -10928.5390 1459.1378 0.0000 0.0000 1753.4582 -7703.6317 295.7038 -9457.0899 -7588.3484 298.8112 -280.6349 -233.9113 30214.1253 11.4861 60.8730
ENERGY: 1200000 1.5108 7.3313 3.2030 0.0000 -10751.9579 1416.2346 0.0000 0.0000 1782.7580 -7540.9202 300.6450 -9323.6782 -7570.9380 299.5403 -582.5620 -428.9551 30884.9520 -92.9927 -32.1851
ENERGY: 1500000 2.1296 6.1406 4.9094 0.0000 -10874.0229 1421.0147 0.0000 0.0000 1776.6655 -7663.1631 299.6175 -9439.8286 -7572.4761 299.7427 -409.8763 -433.3846 30312.2660 -94.0898 -44.2934
TCL: Running FEP window   5: Lambda1 0.2    Lambda2 0.25   [dLambda 0.04999999999999999]
TCL: Setting parameter firsttimestep to 0
TCL: Setting parameter alchLambda to 0.2
Info: NONBONDED TABLE R-SQUARED SPACING: 0.0625
Info: NONBONDED TABLE SIZE: 705 POINTS
TCL: Setting parameter alchLambda2 to 0.25
Info: NONBONDED TABLE R-SQUARED SPACING: 0.0625
Info: NONBONDED TABLE SIZE: 705 POINTS
TCL: Running for 1500000 steps
ETITLE: TS BOND ANGLE DIHED IMPRP ELECT VDW BOUNDARY MISC KINETIC TOTAL TEMP POTENTIAL TOTALAVG TEMPAVG PRESSURE GPRESSURE VOLUME PRESSAVG GPRESSAVG
ENERGY: 0 2.1296 6.1407 4.9094 0.0000 -10874.0219 1420.9349 0.0000 0.0000 1775.7399 -7664.1675 299.4614 -9439.9074 -7664.1675 299.4614 -510.9028 -430.7716 30312.2660 -510.9028 -430.7716
ENERGY: 300000 0.4651 5.2663 3.0330 0.0000 -10796.7921 1476.5067 0.0000 0.0000 1756.5723 -7554.9487 296.2290 -9311.5211 -7575.6875 299.2045 409.5350 395.4543 30434.3907 -207.3160 -158.2137
ENERGY: 600000 0.8458 5.3310 4.5932 0.0000 -10840.1394 1459.7525 0.0000 0.0000 1786.3919 -7583.2251 301.2578 -9369.6169 -7578.8506 299.2265 168.0640 201.0533 30306.4902 -152.8991 -117.8223
ENERGY: 900000 1.3492 5.4846 2.5990 0.0000 -10869.4713 1491.7071 0.0000 0.0000 1783.6008 -7584.7307 300.7871 -9368.3315 -7570.8710 299.4740 122.6559 207.4678 30528.8689 -198.0140 -146.8817
ENERGY: 1200000 0.7964 7.9707 3.6458 0.0000 -10814.2431 1435.8517 0.0000 0.0000 1780.7192 -7585.2593 300.3012 -9365.9785 -7564.4044 300.1846 -285.0082 -237.0205 30707.4870 -203.7527 -149.5012
ENERGY: 1500000 2.0128 3.9966 2.7208 0.0000 -10725.2276 1417.5979 0.0000 0.0000 1784.1144 -7514.7851 300.8737 -9298.8994 -7560.5188 299.3546 -144.6449 -135.9563 30636.3027 -160.0488 -108.5243
TCL: Running FEP window   6: Lambda1 0.25   Lambda2 0.3    [dLambda 0.04999999999999999]
TCL: Setting parameter firsttimestep to 0
TCL: Setting parameter alchLambda to 0.25
Info: NONBONDED TABLE R-SQUARED SPACING: 0.0625
Info: NONBONDED TABLE SIZE: 705 POINTS
TCL: Setting parameter alchLambda2 to 0.3
Info: NONBONDED TABLE R-SQUARED SPACING: 0.0625
Info: NONBONDED TABLE SIZE: 705 POINTS
TCL: Running for 1500000 steps
ETITLE: TS BOND ANGLE DIHED IMPRP ELECT VDW BOUNDARY MISC KINETIC TOTAL TEMP POTENTIAL TOTALAVG TEMPAVG PRESSURE GPRESSURE VOLUME PRESSAVG GPRESSAVG
ENERGY: 0 2.0128 3.9966 2.7208 0.0000 -10725.2271 1417.2081 0.0000 0.0000 1783.1990 -7516.0899 300.7193 -9299.2888 -7516.0899 300.7193 -218.9144 -138.2549 30636.3027 -218.9144 -138.2549
ENERGY: 300000 1.2542 5.5026 3.5182 0.0000 -10945.6182 1561.8117 0.0000 0.0000 1843.7950 -7529.7365 310.9383 -9373.5315 -7536.6204 302.3885 962.8046 1056.9683 30125.2465 126.8291 209.1288
ENERGY: 600000 1.9723 6.0564 3.3937 0.0000 -10562.3315 1316.3023 0.0000 0.0000 1786.7048 -7447.9021 301.3106 -9234.6069 -7544.6572 299.7707 -881.3794 -744.1783 30843.8770 91.5152 160.9691
ENERGY: 900000 1.4555 4.8754 2.5775 0.0000 -10855.8143 1509.1284 0.0000 0.0000 1840.4821 -7497.2954 310.3796 -9337.7775 -7556.6100 299.2644 587.5893 615.3587 30285.2727 124.3116 179.8718
ENERGY: 1200000 2.0858 5.6368 2.2429 0.0000 -10877.6317 1471.7602 0.0000 0.0000 1809.0945 -7586.8113 305.0864 -9395.9059 -7565.6556 299.2386 130.5137 158.5034 30259.3605 157.8265 211.1718
ENERGY: 1500000 1.6013 3.1527 4.3727 0.0000 -10783.9134 1482.1654 0.0000 0.0000 1763.7107 -7528.9106 297.4328 -9292.6213 -7567.5968 299.1880 256.5594 264.7573 30840.4003 184.1845 231.7021
TCL: Running FEP window   7: Lambda1 0.3    Lambda2 0.35   [dLambda 0.04999999999999999]
TCL: Setting parameter firsttimestep to 0
TCL: Setting parameter alchLambda to 0.3
Info: NONBONDED TABLE R-SQUARED SPACING: 0.0625
Info: NONBONDED TABLE SIZE: 705 POINTS
TCL: Setting parameter alchLambda2 to 0.35
Info: NONBONDED TABLE R-SQUARED SPACING: 0.0625
Info: NONBONDED TABLE SIZE: 705 POINTS
TCL: Running for 1500000 steps
ETITLE: TS BOND ANGLE DIHED IMPRP ELECT VDW BOUNDARY MISC KINETIC TOTAL TEMP POTENTIAL TOTALAVG TEMPAVG PRESSURE GPRESSURE VOLUME PRESSAVG GPRESSAVG
ENERGY: 0 1.6013 3.1527 4.3727 0.0000 -10783.9136 1482.6111 0.0000 0.0000 1762.8575 -7529.3184 297.2890 -9292.1759 -7529.3184 297.2890 194.5745 269.1491 30840.4003 194.5745 269.1491
ENERGY: 300000 1.6873 5.2803 3.6144 0.0000 -10883.8880 1512.5557 0.0000 0.0000 1769.0629 -7591.6875 298.3354 -9360.7503 -7567.8813 299.1946 309.4819 361.0651 30631.9150 146.7534 195.9382
ENERGY: 600000 3.7322 3.8016 2.8163 0.0000 -10817.1123 1432.5789 0.0000 0.0000 1797.6212 -7576.5621 303.1515 -9374.1833 -7569.7564 299.6991 -371.4402 -381.4274 31175.4640 -82.4862 -41.8280
ENERGY: 900000 0.8155 6.3623 1.4451 0.0000 -10784.2857 1453.5845 0.0000 0.0000 1777.4958 -7544.5824 299.7576 -9322.0782 -7569.6068 299.5459 199.3382 263.1670 30513.8207 60.4136 101.3371
ENERGY: 1200000 0.4287 5.4192 4.5582 0.0000 -10869.2801 1503.7810 0.0000 0.0000 1752.9318 -7602.1613 295.6151 -9355.0931 -7581.1561 299.4199 441.4207 490.4386 30326.7467 64.1697 111.2456
ENERGY: 1500000 0.9254 4.1448 4.3092 0.0000 -10812.6494 1436.5064 0.0000 0.0000 1817.6656 -7549.0980 306.5318 -9366.7635 -7572.3634 300.5108 -35.6684 -10.9942 30388.1092 74.8836 114.4100
TCL: Running FEP window   8: Lambda1 0.35   Lambda2 0.39999999999999997 [dLambda 0.04999999999999999]
TCL: Setting parameter firsttimestep to 0
TCL: Setting parameter alchLambda to 0.35
Info: NONBONDED TABLE R-SQUARED SPACING: 0.0625
Info: NONBONDED TABLE SIZE: 705 POINTS
TCL: Setting parameter alchLambda2 to 0.39999999999999997
Info: NONBONDED TABLE R-SQUARED SPACING: 0.0625
Info: NONBONDED TABLE SIZE: 705 POINTS
TCL: Running for 1500000 steps
ETITLE: TS BOND ANGLE DIHED IMPRP ELECT VDW BOUNDARY MISC KINETIC TOTAL TEMP POTENTIAL TOTALAVG TEMPAVG PRESSURE GPRESSURE VOLUME PRESSAVG GPRESSAVG
ENERGY: 0 0.9254 4.1448 4.3092 0.0000 -10812.6498 1436.2353 0.0000 0.0000 1816.8005 -7550.2347 306.3859 -9367.0351 -7550.2347 306.3859 -114.5087 -9.6311 30388.1092 -114.5087 -9.6311
ENERGY: 300000 2.1757 5.5336 3.4079 0.0000 -10870.2773 1479.9253 0.0000 0.0000 1804.6197 -7574.6151 304.3317 -9379.2348 -7546.8715 301.9121 95.7828 218.2968 30396.9597 -165.1652 -79.8687
ENERGY: 600000 1.4468 4.6853 2.8583 0.0000 -10846.2448 1486.3020 0.0000 0.0000 1700.4637 -7650.4886 286.7669 -9350.9524 -7566.8512 299.2472 -6.2041 -15.7353 30920.3235 -8.0067 58.0595
ENERGY: 900000 1.5295 4.2249 3.4481 0.0000 -10713.4071 1422.0287 0.0000 0.0000 1780.7021 -7501.4737 300.2983 -9282.1758 -7553.8212 298.6554 -45.4404 26.1123 30599.6454 -19.9241 49.1300
ENERGY: 1200000 0.2942 6.4255 3.6759 0.0000 -10719.8393 1402.2282 0.0000 0.0000 1769.2167 -7537.9988 298.3614 -9307.2155 -7562.9233 298.2974 -580.3113 -510.3437 31501.6945 -88.4912 -27.6350
ENERGY: 1500000 2.7657 5.9955 2.1216 0.0000 -10808.4632 1412.1124 0.0000 0.0000 1794.5111 -7590.9570 302.6270 -9385.4680 -7560.9460 298.2540 -414.3958 -368.5416 30458.1575 -102.4947 -32.0248
TCL: Running FEP window   9: Lambda1 0.39999999999999997 Lambda2 0.44999999999999996 [dLambda 0.04999999999999999]
TCL: Setting parameter firsttimestep to 0
TCL: Setting parameter alchLambda to 0.39999999999999997
Info: NONBONDED TABLE R-SQUARED SPACING: 0.0625
Info: NONBONDED TABLE SIZE: 705 POINTS
TCL: Setting parameter alchLambda2 to 0.44999999999999996
Info: NONBONDED TABLE R-SQUARED SPACING: 0.0625
Info: NONBONDED TABLE SIZE: 705 POINTS
TCL: Running for 1500000 steps
ETITLE: TS BOND ANGLE DIHED IMPRP ELECT VDW BOUNDARY MISC KINETIC TOTAL TEMP POTENTIAL TOTALAVG TEMPAVG PRESSURE GPRESSURE VOLUME PRESSAVG GPRESSAVG
ENERGY: 0 2.7657 5.9955 2.1216 0.0000 -10808.4626 1412.8916 0.0000 0.0000 1793.6132 -7591.0749 302.4756 -9384.6882 -7591.0749 302.4756 -438.7219 -360.7608 30458.1575 -438.7219 -360.7608
ENERGY: 300000 1.8918 7.3168 2.9311 0.0000 -10930.2157 1542.5624 0.0000 0.0000 1775.0425 -7600.4711 299.3438 -9375.5136 -7555.2483 302.4464 722.6170 897.7464 30167.7699 185.5276 275.4723
ENERGY: 600000 3.4623 7.2253 3.4628 0.0000 -10846.4694 1487.3636 0.0000 0.0000 1795.3199 -7549.6355 302.7634 -9344.9555 -7552.5066 303.1799 211.3511 199.2929 30806.2364 188.0941 258.5295
ENERGY: 900000 1.2979 4.0409 2.6551 0.0000 -10756.9329 1359.7960 0.0000 0.0000 1830.7286 -7558.4144 308.7348 -9389.1430 -7549.9159 302.5318 -894.7026 -822.5497 30591.0356 -114.6349 -46.2051
ENERGY: 1200000 1.8176 4.4594 2.4730 0.0000 -10737.8658 1393.5452 0.0000 0.0000 1799.5549 -7536.0157 303.4776 -9335.5707 -7560.5179 301.5487 -356.9486 -274.0656 30637.8353 -129.2022 -55.3349
ENERGY: 1500000 2.4345 4.4974 3.3200 0.0000 -10807.1173 1426.2578 0.0000 0.0000 1723.1373 -7647.4703 290.5905 -9370.6076 -7570.3981 300.8289 -318.4855 -269.2673 30549.6735 -157.5827 -89.7246
TCL: Running FEP window  10: Lambda1 0.44999999999999996 Lambda2 0.49999999999999994 [dLambda 0.04999999999999999]
TCL: Setting parameter firsttimestep to 0
TCL: Setting parameter alchLambda to 0.44999999999999996
Info: NONBONDED TABLE R-SQUARED SPACING: 0.0625
Info: NONBONDED TABLE SIZE: 705 POINTS
TCL: Setting parameter alchLambda2 to 0.49999999999999994
Info: NONBONDED TABLE R-SQUARED SPACING: 0.0625
Info: NONBONDED TABLE SIZE: 705 POINTS
TCL: Running for 1500000 steps
ETITLE: TS BOND ANGLE DIHED IMPRP ELECT VDW BOUNDARY MISC KINETIC TOTAL TEMP POTENTIAL TOTALAVG TEMPAVG PRESSURE GPRESSURE VOLUME PRESSAVG GPRESSAVG
ENERGY: 0 2.4345 4.4974 3.3200 0.0000 -10807.1170 1426.3049 0.0000 0.0000 1722.2639 -7648.2963 290.4432 -9370.5602 -7648.2963 290.4432 -349.8464 -260.5333 30549.6735 -349.8464 -260.5333
ENERGY: 300000 0.0514 6.6348 3.4010 0.0000 -10681.9181 1393.8685 0.0000 0.0000 1815.7844 -7462.1780 306.2146 -9277.9623 -7543.6703 299.9146 -420.5826 -402.0018 31197.7296 -189.6034 -131.9365
ENERGY: 600000 0.2717 2.3195 2.6510 0.0000 -10866.0098 1545.5942 0.0000 0.0000 1756.1098 -7559.0635 296.1510 -9315.1733 -7556.0924 300.1548 720.8117 781.2862 30866.5742 -14.1134 43.7966
ENERGY: 900000 0.5976 6.1111 3.9973 0.0000 -10790.2151 1388.2873 0.0000 0.0000 1829.1346 -7562.0872 308.4660 -9391.2218 -7560.7220 300.2016 -552.6009 -521.8811 30561.8534 -11.5308 43.2885
ENERGY: 1200000 0.6979 4.8172 3.4996 0.0000 -10767.7477 1460.9240 0.0000 0.0000 1819.6594 -7478.1496 306.8680 -9297.8090 -7559.8081 300.8789 328.8183 372.0487 30683.7555 63.3539 117.3189
ENERGY: 1500000 0.8922 6.8971 3.5969 0.0000 -10700.9778 1375.5869 0.0000 0.0000 1786.8000 -7527.2046 301.3266 -9314.0046 -7556.7711 301.0305 -598.8520 -447.8131 30723.8348 19.1870 79.8644
TCL: Running FEP window  11: Lambda1 0.49999999999999994 Lambda2 0.5499999999999999 [dLambda 0.04999999999999999]
TCL: Setting parameter firsttimestep to 0
TCL: Setting parameter alchLambda to 0.49999999999999994
Info: NONBONDED TABLE R-SQUARED SPACING: 0.0625
Info: NONBONDED TABLE SIZE: 705 POINTS
TCL: Setting parameter alchLambda2 to 0.5499999999999999
Info: NONBONDED TABLE R-SQUARED SPACING: 0.0625
Info: NONBONDED TABLE SIZE: 705 POINTS
TCL: Running for 1500000 steps
ETITLE: TS BOND ANGLE DIHED IMPRP ELECT VDW BOUNDARY MISC KINETIC TOTAL TEMP POTENTIAL TOTALAVG TEMPAVG PRESSURE GPRESSURE VOLUME PRESSAVG GPRESSAVG
ENERGY: 0 0.8922 6.8971 3.5969 0.0000 -10700.9786 1375.1932 0.0000 0.0000 1785.8965 -7528.5026 301.1743 -9314.3991 -7528.5026 301.1743 -530.0487 -446.2358 30723.8348 -530.0487 -446.2358
ENERGY: 300000 1.8812 6.4178 4.2321 0.0000 -10809.0081 1487.1675 0.0000 0.0000 1814.7545 -7494.5550 306.0409 -9309.3095 -7532.2457 306.0889 555.9841 634.2903 30338.3861 -100.3254 -40.0309
ENERGY: 600000 1.7517 3.7004 3.6313 0.0000 -10740.4842 1456.4296 0.0000 0.0000 1834.9118 -7440.0594 309.4402 -9274.9712 -7512.2664 304.1051 288.8295 295.8008 30932.7528 -153.8287 -99.3847
ENERGY: 900000 3.6472 5.7936 4.0589 0.0000 -10772.6686 1374.4370 0.0000 0.0000 1729.7664 -7654.9656 291.7085 -9384.7320 -7527.7954 302.0690 -845.1600 -769.0469 30778.1196 -263.4210 -200.8482
ENERGY: 1200000 2.0509 5.4944 3.8229 0.0000 -10806.4813 1442.6011 0.0000 0.0000 1776.0664 -7576.4455 299.5165 -9352.5120 -7532.1209 301.6892 -244.1330 -177.7661 31020.7531 -293.4509 -227.3895
ENERGY: 1500000 1.9477 6.1687 2.8052 0.0000 -10966.0568 1558.0704 0.0000 0.0000 1755.8121 -7641.2528 296.1008 -9397.0649 -7550.2063 300.5912 831.7538 879.9133 30349.7295 -180.1776 -117.8462
TCL: Running FEP window  12: Lambda1 0.5499999999999999 Lambda2 0.6    [dLambda 0.050000000000000044]
TCL: Setting parameter firsttimestep to 0
TCL: Setting parameter alchLambda to 0.5499999999999999
Info: NONBONDED TABLE R-SQUARED SPACING: 0.0625
Info: NONBONDED TABLE SIZE: 705 POINTS
TCL: Setting parameter alchLambda2 to 0.6
Info: NONBONDED TABLE R-SQUARED SPACING: 0.0625
Info: NONBONDED TABLE SIZE: 705 POINTS
TCL: Running for 1500000 steps
ETITLE: TS BOND ANGLE DIHED IMPRP ELECT VDW BOUNDARY MISC KINETIC TOTAL TEMP POTENTIAL TOTALAVG TEMPAVG PRESSURE GPRESSURE VOLUME PRESSAVG GPRESSAVG
ENERGY: 0 1.9477 6.1687 2.8052 0.0000 -10965.8464 1558.9864 0.0000 0.0000 1754.8943 -7641.0441 295.9460 -9395.9384 -7641.0441 295.9460 818.8289 893.0673 30349.7295 818.8289 893.0673
ENERGY: 300000 0.4219 5.9085 3.4525 0.0000 -10714.6673 1415.1286 0.0000 0.0000 1825.7692 -7463.9866 307.8984 -9289.7558 -7579.7154 300.8546 -134.0653 -109.9812 30809.6706 292.4152 347.3340
ENERGY: 600000 2.0554 9.5600 5.1781 0.0000 -10870.2629 1480.4472 0.0000 0.0000 1805.5943 -7567.4279 304.4961 -9373.0222 -7544.8843 303.7274 2.9728 61.9480 30918.8445 325.4676 379.8429
ENERGY: 900000 0.2973 5.4962 2.9025 0.0000 -10777.8420 1465.4931 0.0000 0.0000 1781.4757 -7522.1772 300.4287 -9303.6529 -7548.5503 302.7398 331.4553 403.7727 30569.2622 199.7447 256.4667
ENERGY: 1200000 1.2346 10.5491 2.8639 0.0000 -10937.8332 1516.2066 0.0000 0.0000 1815.6348 -7591.3442 306.1893 -9406.9790 -7551.7507 303.3898 219.0283 280.1032 30727.2239 201.8173 256.0767
ENERGY: 1500000 0.5914 6.0207 5.6804 0.0000 -10908.9263 1497.9247 0.0000 0.0000 1835.5382 -7563.1710 309.5458 -9398.7091 -7552.9601 303.4104 141.4138 124.7009 30586.3285 180.1773 229.7862
TCL: Running FEP window  13: Lambda1 0.6    Lambda2 0.65   [dLambda 0.050000000000000044]
TCL: Setting parameter firsttimestep to 0
TCL: Setting parameter alchLambda to 0.6
Info: NONBONDED TABLE R-SQUARED SPACING: 0.0625
Info: NONBONDED TABLE SIZE: 705 POINTS
TCL: Setting parameter alchLambda2 to 0.65
Info: NONBONDED TABLE R-SQUARED SPACING: 0.0625
Info: NONBONDED TABLE SIZE: 705 POINTS
TCL: Running for 1500000 steps
ETITLE: TS BOND ANGLE DIHED IMPRP ELECT VDW BOUNDARY MISC KINETIC TOTAL TEMP POTENTIAL TOTALAVG TEMPAVG PRESSURE GPRESSURE VOLUME PRESSAVG GPRESSAVG
ENERGY: 0 0.5914 6.0207 5.6804 0.0000 -10910.3880 1499.5839 0.0000 0.0000 1834.6415 -7563.8701 309.3946 -9398.5116 -7563.8701 309.3946 56.6964 142.0168 30586.3285 56.6964 142.0168
ENERGY: 300000 4.0127 7.7058 3.1041 0.0000 -10871.0637 1452.2112 0.0000 0.0000 1784.7983 -7619.2316 300.9891 -9404.0300 -7605.7100 304.3590 -295.3085 -259.8171 30780.4033 -59.6310 -17.8235
ENERGY: 600000 1.2938 7.3573 2.0005 0.0000 -10820.1025 1456.9326 0.0000 0.0000 1839.4409 -7513.0774 310.2040 -9352.5183 -7578.6135 304.9787 61.7185 106.7369 30724.4438 164.2222 220.2346
ENERGY: 900000 0.7782 3.6545 2.2830 0.0000 -10782.6846 1474.6920 0.0000 0.0000 1821.1059 -7480.1709 307.1120 -9301.2768 -7573.6081 304.5099 157.1912 280.8886 30540.8910 22.6045 84.2957
ENERGY: 1200000 0.5381 6.0914 3.1903 0.0000 -10835.7361 1401.3652 0.0000 0.0000 1825.1713 -7599.3798 307.7976 -9424.5511 -7582.4787 303.0568 -477.7471 -401.5440 30653.6075 -28.3279 31.1561
ENERGY: 1500000 0.8556 7.5895 2.3181 0.0000 -10656.8821 1338.4377 0.0000 0.0000 1751.1281 -7556.5531 295.3109 -9307.6812 -7577.3917 302.7147 -1120.1826 -1026.3165 31354.5128 -62.0697 3.3135
TCL: Running FEP window  14: Lambda1 0.65   Lambda2 0.7000000000000001 [dLambda 0.050000000000000044]
TCL: Setting parameter firsttimestep to 0
TCL: Setting parameter alchLambda to 0.65
Info: NONBONDED TABLE R-SQUARED SPACING: 0.0625
Info: NONBONDED TABLE SIZE: 705 POINTS
TCL: Setting parameter alchLambda2 to 0.7000000000000001
Info: NONBONDED TABLE R-SQUARED SPACING: 0.0625
Info: NONBONDED TABLE SIZE: 705 POINTS
TCL: Running for 1500000 steps
ETITLE: TS BOND ANGLE DIHED IMPRP ELECT VDW BOUNDARY MISC KINETIC TOTAL TEMP POTENTIAL TOTALAVG TEMPAVG PRESSURE GPRESSURE VOLUME PRESSAVG GPRESSAVG
ENERGY: 0 0.8556 7.5895 2.3181 0.0000 -10656.8153 1338.3961 0.0000 0.0000 1750.2424 -7557.4136 295.1615 -9307.6560 -7557.4136 295.1615 -1100.7423 -1021.6560 31354.5128 -1100.7423 -1021.6560
ENERGY: 300000 1.6550 6.7361 3.7035 0.0000 -10635.2443 1399.9585 0.0000 0.0000 1769.2922 -7453.8990 298.3741 -9223.1912 -7538.7635 298.8772 -340.8352 -199.3390 31034.7168 -434.5228 -327.9539
ENERGY: 600000 0.7924 7.8492 2.8391 0.0000 -10868.5387 1485.6234 0.0000 0.0000 1761.5164 -7609.9182 297.0628 -9371.4346 -7572.7247 295.7552 328.7537 376.2783 30275.2705 -273.4096 -188.3653
ENERGY: 900000 1.1734 8.5433 4.1837 0.0000 -10885.0324 1464.2699 0.0000 0.0000 1813.0214 -7593.8407 305.7486 -9406.8621 -7565.1868 297.6231 68.3738 218.5615 30180.2592 -300.7546 -222.0183
ENERGY: 1200000 0.9261 6.9016 3.5247 0.0000 -10729.8848 1423.5066 0.0000 0.0000 1821.8194 -7473.2063 307.2323 -9295.0258 -7547.8457 299.7217 -74.3055 61.8870 30477.1104 -275.6282 -188.3799
ENERGY: 1500000 2.8179 3.3400 3.6984 0.0000 -10767.8398 1478.7190 0.0000 0.0000 1755.8914 -7523.3732 296.1142 -9279.2646 -7540.9945 299.1033 576.2576 586.9676 30418.8603 -221.7559 -142.8526
TCL: Running FEP window  15: Lambda1 0.7000000000000001 Lambda2 0.7500000000000001 [dLambda 0.050000000000000044]
TCL: Setting parameter firsttimestep to 0
TCL: Setting parameter alchLambda to 0.7000000000000001
Info: NONBONDED TABLE R-SQUARED SPACING: 0.0625
Info: NONBONDED TABLE SIZE: 705 POINTS
TCL: Setting parameter alchLambda2 to 0.7500000000000001
Info: NONBONDED TABLE R-SQUARED SPACING: 0.0625
Info: NONBONDED TABLE SIZE: 705 POINTS
TCL: Running for 1500000 steps
ETITLE: TS BOND ANGLE DIHED IMPRP ELECT VDW BOUNDARY MISC KINETIC TOTAL TEMP POTENTIAL TOTALAVG TEMPAVG PRESSURE GPRESSURE VOLUME PRESSAVG GPRESSAVG
ENERGY: 0 2.8179 3.3400 3.6984 0.0000 -10767.8564 1478.5376 0.0000 0.0000 1755.0419 -7524.4207 295.9709 -9279.4625 -7524.4207 295.9709 521.4772 590.8563 30418.8603 521.4772 590.8563
ENERGY: 300000 2.5968 6.1493 3.8439 0.0000 -10689.8760 1399.0403 0.0000 0.0000 1803.2457 -7475.0000 304.1000 -9278.2457 -7502.9696 302.7852 -109.0701 -4.9353 30409.9059 -6.0412 92.4297
ENERGY: 600000 1.3285 5.6384 2.7677 0.0000 -10514.4516 1298.1027 0.0000 0.0000 1799.7534 -7406.8610 303.5111 -9206.6144 -7510.7861 300.6522 -1099.5910 -935.0197 31148.3315 -285.4495 -182.4836
ENERGY: 900000 0.7906 4.2061 3.6219 0.0000 -10752.2600 1441.6479 0.0000 0.0000 1800.7396 -7501.2539 303.6774 -9301.9935 -7522.1265 300.8311 -209.1951 -147.4534 31284.2660 -95.9798 3.6768
ENERGY: 1200000 1.2900 4.5796 4.5306 0.0000 -10763.3977 1485.7421 0.0000 0.0000 1809.5448 -7457.7107 305.1623 -9267.2555 -7522.6390 301.4742 579.9979 568.0922 30568.8862 -65.9102 21.2589
ENERGY: 1500000 1.2434 3.0084 1.9776 0.0000 -10902.8508 1490.4568 0.0000 0.0000 1787.3213 -7618.8432 301.4145 -9406.1646 -7542.7331 300.9998 191.3822 239.7292 30641.8257 -51.7918 30.4272
TCL: Running FEP window  16: Lambda1 0.7500000000000001 Lambda2 0.8000000000000002 [dLambda 0.050000000000000044]
TCL: Setting parameter firsttimestep to 0
TCL: Setting parameter alchLambda to 0.7500000000000001
Info: NONBONDED TABLE R-SQUARED SPACING: 0.0625
Info: NONBONDED TABLE SIZE: 705 POINTS
TCL: Setting parameter alchLambda2 to 0.8000000000000002
Info: NONBONDED TABLE R-SQUARED SPACING: 0.0625
Info: NONBONDED TABLE SIZE: 705 POINTS
TCL: Running for 1500000 steps
ETITLE: TS BOND ANGLE DIHED IMPRP ELECT VDW BOUNDARY MISC KINETIC TOTAL TEMP POTENTIAL TOTALAVG TEMPAVG PRESSURE GPRESSURE VOLUME PRESSAVG GPRESSAVG
ENERGY: 0 1.2434 3.0084 1.9776 0.0000 -10903.7575 1491.6476 0.0000 0.0000 1786.4317 -7619.4487 301.2645 -9405.8804 -7619.4487 301.2645 178.7117 259.6162 30641.8257 178.7117 259.6162
ENERGY: 300000 1.8078 10.5847 3.2701 0.0000 -10682.3529 1397.0886 0.0000 0.0000 1780.0580 -7489.5436 300.1897 -9269.6017 -7576.7056 297.3367 -184.1021 -98.0811 30853.5145 -268.8621 -198.4303
ENERGY: 600000 0.7871 6.1131 2.1248 0.0000 -10818.4574 1445.5994 0.0000 0.0000 1793.6852 -7570.1479 302.4877 -9363.8331 -7578.3590 298.6627 -200.8040 -137.8041 30838.9387 -110.7853 -43.4054
ENERGY: 900000 0.7172 5.3524 3.3795 0.0000 -10765.2744 1408.3431 0.0000 0.0000 1791.1610 -7556.3212 302.0621 -9347.4823 -7570.9233 298.3226 -191.0981 -130.4307 30424.0325 -187.4586 -121.6943
ENERGY: 1200000 2.6845 6.1814 3.2216 0.0000 -10811.5062 1433.6036 0.0000 0.0000 1795.5458 -7570.2693 302.8015 -9365.8151 -7576.4637 299.1464 106.5584 128.8527 30106.4467 -156.3894 -92.8604
ENERGY: 1500000 3.5020 6.0950 3.6955 0.0000 -10761.4779 1440.8865 0.0000 0.0000 1755.7479 -7551.5511 296.0900 -9307.2989 -7565.1004 299.4648 -314.2104 -274.9137 31392.6666 -127.6059 -62.4805
TCL: Running FEP window  17: Lambda1 0.8000000000000002 Lambda2 0.8500000000000002 [dLambda 0.050000000000000044]
TCL: Setting parameter firsttimestep to 0
TCL: Setting parameter alchLambda to 0.8000000000000002
Info: NONBONDED TABLE R-SQUARED SPACING: 0.0625
Info: NONBONDED TABLE SIZE: 705 POINTS
TCL: Setting parameter alchLambda2 to 0.8500000000000002
Info: NONBONDED TABLE R-SQUARED SPACING: 0.0625
Info: NONBONDED TABLE SIZE: 705 POINTS
TCL: Running for 1500000 steps
ETITLE: TS BOND ANGLE DIHED IMPRP ELECT VDW BOUNDARY MISC KINETIC TOTAL TEMP POTENTIAL TOTALAVG TEMPAVG PRESSURE GPRESSURE VOLUME PRESSAVG GPRESSAVG
ENERGY: 0 3.5020 6.0950 3.6955 0.0000 -10762.1460 1440.7957 0.0000 0.0000 1754.8649 -7553.1929 295.9411 -9308.0578 -7553.1929 295.9411 -346.5303 -272.7021 31392.6666 -346.5303 -272.7021
ENERGY: 300000 4.3902 6.5793 3.0962 0.0000 -10804.1522 1470.4108 0.0000 0.0000 1703.7386 -7615.9371 287.3191 -9319.6757 -7553.1656 296.9536 50.6575 65.8834 30783.0171 -20.4924 14.6588
ENERGY: 600000 6.1887 6.8380 2.5577 0.0000 -10810.9866 1412.8701 0.0000 0.0000 1737.1710 -7645.3610 292.9572 -9382.5320 -7579.5654 297.6500 -258.0187 -184.9297 30132.3744 -121.8359 -63.8970
ENERGY: 900000 1.2900 6.6696 2.6310 0.0000 -10743.7177 1436.6847 0.0000 0.0000 1762.4575 -7533.9850 297.2215 -9296.4425 -7569.4275 297.4334 -21.9561 71.9571 30719.7451 -214.7464 -154.7266
ENERGY: 1200000 1.3311 4.8731 2.9574 0.0000 -10731.8283 1448.4663 0.0000 0.0000 1727.4478 -7546.7525 291.3175 -9274.2003 -7577.4173 297.1312 66.7401 183.3574 30897.9715 -170.6003 -113.9900
ENERGY: 1500000 1.5540 6.4138 2.4118 0.0000 -10801.7980 1495.0386 0.0000 0.0000 1778.7074 -7517.6724 299.9619 -9296.3798 -7573.0602 297.7423 433.3293 465.9614 30845.1050 -98.4062 -40.8335
TCL: Running FEP window  18: Lambda1 0.8500000000000002 Lambda2 0.9000000000000002 [dLambda 0.050000000000000044]
TCL: Setting parameter firsttimestep to 0
TCL: Setting parameter alchLambda to 0.8500000000000002
Info: NONBONDED TABLE R-SQUARED SPACING: 0.0625
Info: NONBONDED TABLE SIZE: 705 POINTS
TCL: Setting parameter alchLambda2 to 0.9000000000000002
Info: NONBONDED TABLE R-SQUARED SPACING: 0.0625
Info: NONBONDED TABLE SIZE: 705 POINTS
TCL: Running for 1500000 steps
ETITLE: TS BOND ANGLE DIHED IMPRP ELECT VDW BOUNDARY MISC KINETIC TOTAL TEMP POTENTIAL TOTALAVG TEMPAVG PRESSURE GPRESSURE VOLUME PRESSAVG GPRESSAVG
ENERGY: 0 1.5540 6.4138 2.4118 0.0000 -10802.4945 1495.6956 0.0000 0.0000 1777.8432 -7518.5761 299.8162 -9296.4194 -7518.5761 299.8162 412.4583 486.2921 30845.1050 412.4583 486.2921
ENERGY: 300000 2.5149 5.5493 2.6937 0.0000 -10790.9225 1472.8320 0.0000 0.0000 1741.7686 -7565.5639 293.7325 -9307.3325 -7550.1812 299.7255 53.1271 61.6479 30895.7174 391.5017 442.7039
ENERGY: 600000 1.8591 4.2639 3.5079 0.0000 -10740.1475 1432.9416 0.0000 0.0000 1807.8059 -7489.7692 304.8691 -9297.5750 -7549.5472 302.1277 27.2411 66.9720 30809.0446 302.9512 372.1298
ENERGY: 900000 1.6259 8.6564 3.5502 0.0000 -10833.3964 1503.2665 0.0000 0.0000 1768.0492 -7548.2481 298.1645 -9316.2974 -7558.5111 301.3219 469.0672 522.4749 30642.6131 150.7636 230.3471
ENERGY: 1200000 1.3735 4.4364 4.5780 0.0000 -10769.0352 1450.7315 0.0000 0.0000 1775.7220 -7532.1938 299.4584 -9307.9158 -7561.2014 300.8051 71.5951 97.1995 30688.9180 121.4148 193.5101
ENERGY: 1500000 1.7914 2.3229 3.0322 0.0000 -10742.4530 1356.0173 0.0000 0.0000 1783.0761 -7596.2129 300.6986 -9379.2891 -7563.9085 299.9527 -1039.8134 -975.7180 31251.6029 54.5142 123.6509
TCL: Running FEP window  19: Lambda1 0.9000000000000002 Lambda2 0.9500000000000003 [dLambda 0.050000000000000044]
TCL: Setting parameter firsttimestep to 0
TCL: Setting parameter alchLambda to 0.9000000000000002
Info: NONBONDED TABLE R-SQUARED SPACING: 0.0625
Info: NONBONDED TABLE SIZE: 705 POINTS
TCL: Setting parameter alchLambda2 to 0.9500000000000003
Info: NONBONDED TABLE R-SQUARED SPACING: 0.0625
Info: NONBONDED TABLE SIZE: 705 POINTS
TCL: Running for 1500000 steps
ETITLE: TS BOND ANGLE DIHED IMPRP ELECT VDW BOUNDARY MISC KINETIC TOTAL TEMP POTENTIAL TOTALAVG TEMPAVG PRESSURE GPRESSURE VOLUME PRESSAVG GPRESSAVG
ENERGY: 0 1.7914 2.3229 3.0322 0.0000 -10743.5916 1357.9826 0.0000 0.0000 1782.1979 -7596.2645 300.5505 -9378.4624 -7596.2645 300.5505 -1024.9008 -945.5472 31251.6029 -1024.9008 -945.5472
ENERGY: 300000 2.0853 5.6930 1.8227 0.0000 -10754.4909 1468.2001 0.0000 0.0000 1747.8241 -7528.8657 294.7537 -9276.6898 -7547.0712 302.0193 88.0497 202.7357 30889.9276 -439.2501 -356.6287
ENERGY: 600000 3.2170 5.0777 2.1672 0.0000 -10842.4914 1496.2923 0.0000 0.0000 1722.3386 -7613.3986 290.4558 -9335.7372 -7559.1508 300.9588 480.3561 502.4839 30378.2366 -136.6576 -79.1277
ENERGY: 900000 3.2382 5.4658 3.6289 0.0000 -10722.6305 1356.7825 0.0000 0.0000 1779.4447 -7574.0704 300.0862 -9353.5151 -7561.8478 299.9463 -691.3183 -630.7917 30335.3454 -206.3855 -142.8214
ENERGY: 1200000 0.7576 6.4881 3.7732 0.0000 -10792.5305 1465.2964 0.0000 0.0000 1766.1065 -7550.1087 297.8369 -9316.2152 -7559.8236 299.3486 -63.4372 22.2058 31051.5947 -184.5119 -126.1637
ENERGY: 1500000 2.5558 6.2212 1.9074 0.0000 -10814.4051 1474.0564 0.0000 0.0000 1712.6214 -7617.0430 288.8171 -9329.6644 -7564.5974 299.5734 -67.3679 14.3899 31026.1067 -228.7216 -170.3561
TCL: Running FEP window  20: Lambda1 0.9500000000000003 Lambda2 1.0    [dLambda 0.04999999999999971]
TCL: Setting parameter firsttimestep to 0
TCL: Setting parameter alchLambda to 0.9500000000000003
Info: NONBONDED TABLE R-SQUARED SPACING: 0.0625
Info: NONBONDED TABLE SIZE: 705 POINTS
TCL: Setting parameter alchLambda2 to 1.0
Info: NONBONDED TABLE R-SQUARED SPACING: 0.0625
Info: NONBONDED TABLE SIZE: 705 POINTS
TCL: Running for 1500000 steps
ETITLE: TS BOND ANGLE DIHED IMPRP ELECT VDW BOUNDARY MISC KINETIC TOTAL TEMP POTENTIAL TOTALAVG TEMPAVG PRESSURE GPRESSURE VOLUME PRESSAVG GPRESSAVG
ENERGY: 0 2.5558 6.2212 1.9074 0.0000 -10815.9748 1475.8645 0.0000 0.0000 1711.7135 -7617.7125 288.6640 -9329.4260 -7617.7125 288.6640 -45.1706 43.6576 31026.1067 -45.1706 43.6576
ENERGY: 300000 2.2549 8.4478 4.8306 0.0000 -10566.7544 1273.7992 0.0000 0.0000 1806.0772 -7471.3447 304.5775 -9277.4219 -7553.2926 301.3140 -1345.4541 -1254.1408 31124.2139 -352.9998 -271.8941
ENERGY: 600000 2.5500 5.9212 2.9859 0.0000 -10934.3228 1546.6509 0.0000 0.0000 1762.5318 -7613.6831 297.2340 -9376.2149 -7570.7928 299.8412 514.9943 563.2895 30949.8376 -20.7048 50.4627
ENERGY: 900000 3.0296 3.6208 2.9317 0.0000 -10664.3264 1369.9542 0.0000 0.0000 1823.5851 -7461.2050 307.5301 -9284.7901 -7552.6726 300.8169 -626.1848 -589.0565 30964.1873 -26.8313 39.9281
ENERGY: 1200000 3.6788 7.5867 4.3430 0.0000 -10899.3325 1514.9050 0.0000 0.0000 1776.9528 -7591.8662 299.6660 -9368.8190 -7556.9628 300.9672 546.6724 619.1102 30424.7647 49.4686 116.3633
ENERGY: 1500000 1.7097 5.1641 3.0139 0.0000 -10855.7767 1490.6415 0.0000 0.0000 1793.2383 -7562.0093 302.4124 -9355.2475 -7568.3466 299.9087 36.3665 104.6418 31400.6945 98.8501 168.4729
TCL: Exiting due to exit command.
