Info: SIMULATION PARAMETERS:
Info: TIMESTEP               2
Info: NUMBER OF STEPS        0
Info: STEPS PER CYCLE        10
Info: PERIODIC CELL BASIS 1  31.6384 0 0
Info: PERIODIC CELL BASIS 2  0 31.6005 0
Info: PERIODIC CELL BASIS 3  0 0 30.5717
Info: PERIODIC CELL CENTER   0 0 0
Info: WRAPPING WATERS AROUND PERIODIC BOUNDARIES ON OUTPUT.
Info: WRAPPING ALL CLUSTERS AROUND PERIODIC BOUNDARIES ON OUTPUT.
Info: FIRST LDB TIMESTEP     50
Info: LAST LDB TIMESTEP     -1
Info: HOM BACKGROUND SCALING 1
Info: PME BACKGROUND SCALING 1
Info: MIN ATOMS PER PATCH    40
Info: EMPTY PATCH LOAD       40 ATOMS
Info: VELOCITY FILE          mobley_9185328_equil.vel
Info: CENTER OF MASS MOVING INITIALLY? NO
Info: DIELECTRIC             1
Info: EXCLUDE                SCALED ONE-FOUR
Info: 1-4 ELECTROSTATICS SCALED BY 0.833333
Info: MODIFIED 1-4 VDW PARAMETERS WILL BE USED
Info: DCD FILENAME           mobley_9185328_prod.dcd
Info: DCD FREQUENCY          100000
Info: DCD FIRST STEP         100000
Info: DCD FILE WILL CONTAIN UNIT CELL DATA
Info: XST FILENAME           mobley_9185328_prod.xst
Info: XST FREQUENCY          100000
Info: NO VELOCITY DCD OUTPUT
Info: NO FORCE DCD OUTPUT
Info: OUTPUT FILENAME        mobley_9185328_prod
Info: BINARY OUTPUT FILES WILL BE USED
Info: RESTART FILENAME       mobley_9185328_prod.restart
Info: RESTART FREQUENCY      100000
Info: BINARY RESTART FILES WILL BE USED
Info: CUTOFF                 9
Info: PAIRLIST DISTANCE      11
Info: PAIRLIST SHRINK RATE   0.01
Info: PAIRLIST GROW RATE     0.01
Info: PAIRLIST TRIGGER       0.3
Info: PAIRLISTS PER CYCLE    2
Info: PAIRLISTS ENABLED
Info: MARGIN                 2
Info: HYDROGEN GROUP CUTOFF  2.5
Info: PATCH DIMENSION        15.5
Info: ENERGY OUTPUT STEPS    100000
Info: ENERGY EVALUATION STEPS    100000
Info: OUTPUT ENERGY PRECISION 4
Info: CROSSTERM ENERGY INCLUDED IN DIHEDRAL
Info: TIMING OUTPUT STEPS    1000000
Info: PRESSURE OUTPUT STEPS  100000
Info: ALCHEMICAL FEP ON
Info: FEP CURRENT LAMBDA VALUE     1
Info: FEP COMPARISON LAMBDA VALUE  0.95
Info: FEP INTRA-ALCHEMICAL NON-BONDED INTERACTIONS WILL BE RETAINED
Info: FEP INTRA-ALCHEMICAL BONDED INTERACTIONS WILL BE RETAINED
Info: FEP VDW SHIFTING COEFFICIENT 5
Info: FEP ELEC. ACTIVE FOR ANNIHILATED PARTICLES BETWEEN LAMBDA = 0 AND LAMBDA = 0.5
Info: FEP ELEC. ACTIVE FOR EXNIHILATED PARTICLES BETWEEN LAMBDA = 0.5 AND LAMBDA = 1
Info: FEP VDW ACTIVE FOR ANNIHILATED PARTICLES BETWEEN LAMBDA = 0 AND LAMBDA = 1
Info: FEP VDW ACTIVE FOR EXNIHILATED PARTICLES BETWEEN LAMBDA = 0 AND LAMBDA = 1
Info: FEP BOND ACTIVE FOR ANNIHILATED PARTICLES BETWEEN LAMBDA = 1 AND LAMBDA = 1
Info: FEP BOND ACTIVE FOR EXNIHILATED PARTICLES BETWEEN LAMBDA = 0 AND LAMBDA = 0
Info: LANGEVIN DYNAMICS ACTIVE
Info: LANGEVIN TEMPERATURE   300
Info: LANGEVIN USING BBK INTEGRATOR
Info: LANGEVIN DAMPING COEFFICIENT IS 1 INVERSE PS
Info: LANGEVIN DYNAMICS APPLIED TO HYDROGENS
Info: LANGEVIN PISTON PRESSURE CONTROL ACTIVE
Info:        TARGET PRESSURE IS 1.01325 BAR
Info:     OSCILLATION PERIOD IS 50 FS
Info:             DECAY TIME IS 25 FS
Info:     PISTON TEMPERATURE IS 300 K
Info:       PRESSURE CONTROL IS GROUP-BASED
Info:    INITIAL STRAIN RATE IS 0.000201046 0.000201046 0.000201046
Info:       CELL FLUCTUATION IS ISOTROPIC
Info: PARTICLE MESH EWALD (PME) ACTIVE
Info: PME TOLERANCE               1e-06
Info: PME EWALD COEFFICIENT       0.348832
Info: PME INTERPOLATION ORDER     4
Info: PME GRID DIMENSIONS         32 32 32
Info: PME MAXIMUM GRID SPACING    1
Info: PME CALCULATION WILL BE PERFORMED ON GPU
Info: FULL ELECTROSTATIC EVALUATION FREQUENCY      2
Info: USING VERLET I (r-RESPA) MTS SCHEME.
Info: C1 SPLITTING OF LONG RANGE ELECTROSTATICS
Info: PLACING ATOMS IN PATCHES BY HYDROGEN GROUPS
Info: RIGID BONDS TO HYDROGEN : ALL
Info:         ERROR TOLERANCE : 1e-08
Info:          MAX ITERATIONS : 100
Info: RIGID WATER USING SETTLE ALGORITHM
Info: RANDOM NUMBER SEED     1743753064
Info: USE HYDROGEN BONDS?    NO
Info: Using AMBER format force field!
Info: AMBER PARM FILE        mobley_9185328.prmtop
Info: COORDINATE PDB         mobley_9185328.pdb
Info: Exclusions will be read from PARM file!
Info: SCNB (VDW SCALING)     2
Info: USING ARITHMETIC MEAN TO COMBINE L-J SIGMA PARAMETERS
Info: BINARY COORDINATES     mobley_9185328_equil.coor
Info: SUMMARY OF PARAMETERS:
Info: 7 BONDS
Info: 9 ANGLES
Info:   9 HARMONIC
Info:   0 COSINE-BASED
Info: 4 DIHEDRAL
Info: 0 IMPROPER
Info: 0 CROSSTERM
Info: 0 VDW
Info: 28 VDW_PAIRS
Info: 0 NBTHOLE_PAIRS
Info: To read alchdata from file: mobley_9185328.pdb
Info: To read alchflag data from column: 5
Info: STRUCTURE SUMMARY:
Info: 2947 ATOMS
Info: 2946 BONDS
Info: 21 ANGLES
Info: 24 DIHEDRALS
Info: 0 IMPROPERS
Info: 0 CROSSTERMS
Info: 2991 EXCLUSIONS
Info: 2943 RIGID BONDS
Info: ALCH: 0 ATOMS TO DISAPPEAR IN FINAL STATE
Info: ALCH: 13 ATOMS TO APPEAR IN FINAL STATE
Info: 5898 DEGREES OF FREEDOM
Info: 982 HYDROGEN GROUPS
Info: 4 ATOMS IN LARGEST HYDROGEN GROUP
Info: 982 MIGRATION GROUPS
Info: 4 ATOMS IN LARGEST MIGRATION GROUP
Info: TOTAL MASS = 17678.8 amu
Info: TOTAL CHARGE = -0.000300016 e
Info: MASS DENSITY = 0.960468 g/cm^3
Info: ATOM DENSITY = 0.0964167 atoms/A^3
Info: ADDED 0 IMPLICIT EXCLUSIONS
Info: NONBONDED TABLE R-SQUARED SPACING: 0.0625
Info: NONBONDED TABLE SIZE: 705 POINTS
Info: REDUCING NUMBER OF PATCHES TO IMPROVE LOAD BALANCE
Info: REMOVING COM VELOCITY 0.181671 -0.172523 0.0490417
Info: Use 3D box decompostion in PME FFT.
Info: Updated CUDA force table with 4096 elements.
Info: Updated CUDA LJ table with 7 x 7 elements.
Info: Found 16 unique exclusion lists needing 32 bytes
TCL: Running for 1500000 steps
ETITLE: TS BOND ANGLE DIHED IMPRP ELECT VDW BOUNDARY MISC KINETIC TOTAL TEMP POTENTIAL TOTALAVG TEMPAVG PRESSURE GPRESSURE VOLUME PRESSAVG GPRESSAVG
ENERGY: 0 2.4532 8.2638 0.7411 0.0000 -10671.8116 1471.2729 0.0000 0.0000 1753.9551 -7435.1255 299.2982 -9189.0806 -7435.1255 299.2982 199.9175 289.6764 30565.2491 199.9175 289.6764
ENERGY: 300000 0.1041 5.8575 0.2320 0.0000 -10968.9037 1606.2581 0.0000 0.0000 1782.1609 -7574.2911 304.1113 -9356.4520 -7455.5983 305.1694 1144.9442 1218.8738 29973.7068 277.5294 346.3686
ENERGY: 600000 0.4966 2.3056 0.8444 0.0000 -10640.3602 1370.1546 0.0000 0.0000 1779.6444 -7486.9146 303.6819 -9266.5591 -7469.4003 302.6652 -351.2041 -312.2627 30193.9788 -6.7654 53.2615
ENERGY: 900000 1.1563 6.7928 0.4135 0.0000 -10713.9454 1441.5359 0.0000 0.0000 1727.9961 -7536.0507 294.8685 -9264.0468 -7482.7484 301.1768 -94.4464 -83.4751 30421.3701 -224.4454 -172.9044
ENERGY: 1200000 3.5318 6.3731 1.3576 0.0000 -10642.1345 1355.3444 0.0000 0.0000 1788.4218 -7487.1057 305.1797 -9275.5275 -7487.5676 300.6653 -717.5950 -627.6776 30185.6569 -244.2811 -188.0506
ENERGY: 1500000 0.4562 5.6151 0.6255 0.0000 -10666.2169 1432.9981 0.0000 0.0000 1729.5916 -7496.9305 295.1407 -9226.5220 -7495.8634 300.1404 -15.9720 39.1614 30566.5236 -279.5374 -213.9193
TCL: Running FEP window   2: Lambda1 0.95   Lambda2 0.8999999999999999 [dLambda -0.050000000000000044]
TCL: Setting parameter firsttimestep to 0
TCL: Setting parameter alchLambda to 0.95
Info: NONBONDED TABLE R-SQUARED SPACING: 0.0625
Info: NONBONDED TABLE SIZE: 705 POINTS
TCL: Setting parameter alchLambda2 to 0.8999999999999999
Info: NONBONDED TABLE R-SQUARED SPACING: 0.0625
Info: NONBONDED TABLE SIZE: 705 POINTS
TCL: Running for 1500000 steps
ETITLE: TS BOND ANGLE DIHED IMPRP ELECT VDW BOUNDARY MISC KINETIC TOTAL TEMP POTENTIAL TOTALAVG TEMPAVG PRESSURE GPRESSURE VOLUME PRESSAVG GPRESSAVG
ENERGY: 0 0.4562 5.6151 0.6255 0.0000 -10665.0216 1432.9196 0.0000 0.0000 1728.7129 -7496.6923 294.9908 -9225.4053 -7496.6923 294.9908 -44.9204 34.8098 30566.5236 -44.9204 34.8098
ENERGY: 300000 2.3745 3.9666 0.1952 0.0000 -10612.5315 1442.3153 0.0000 0.0000 1781.8477 -7381.8323 304.0578 -9163.6800 -7485.4224 299.8834 14.2019 67.8663 30692.2635 -61.6459 -1.6372
ENERGY: 600000 0.0854 4.5468 1.0708 0.0000 -10739.0401 1489.9383 0.0000 0.0000 1735.5129 -7507.8859 296.1512 -9243.3988 -7479.3960 300.7075 624.7104 718.9676 29852.0294 119.9781 181.9305
ENERGY: 900000 0.2573 7.4901 1.5231 0.0000 -10848.0654 1498.0383 0.0000 0.0000 1752.6767 -7588.0799 299.0800 -9340.7565 -7494.6184 300.6164 115.6464 204.2166 30342.3116 199.5906 265.4490
ENERGY: 1200000 1.6657 5.4753 0.4680 0.0000 -10747.1263 1419.7481 0.0000 0.0000 1749.2321 -7570.5370 298.4922 -9319.7691 -7510.1868 299.5716 -79.1449 -61.6949 29821.2317 51.4665 115.0740
ENERGY: 1500000 0.4571 3.5906 1.8000 0.0000 -10536.0302 1361.4920 0.0000 0.0000 1735.5463 -7433.1442 296.1569 -9168.6904 -7502.2295 299.1234 -478.1341 -414.1495 30502.4643 34.5019 96.8972
TCL: Running FEP window   3: Lambda1 0.8999999999999999 Lambda2 0.8499999999999999 [dLambda -0.050000000000000044]
TCL: Setting parameter firsttimestep to 0
TCL: Setting parameter alchLambda to 0.8999999999999999
Info: NONBONDED TABLE R-SQUARED SPACING: 0.0625
Info: NONBONDED TABLE SIZE: 705 POINTS
TCL: Setting parameter alchLambda2 to 0.8499999999999999
Info: NONBONDED TABLE R-SQUARED SPACING: 0.0625
Info: NONBONDED TABLE SIZE: 705 POINTS
TCL: Running for 1500000 steps
ETITLE: TS BOND ANGLE DIHED IMPRP ELECT VDW BOUNDARY MISC KINETIC TOTAL TEMP POTENTIAL TOTALAVG TEMPAVG PRESSURE GPRESSURE VOLUME PRESSAVG GPRESSAVG
ENERGY: 0 0.4571 3.5906 1.8000 0.0000 -10535.1235 1361.5504 0.0000 0.0000 1734.7231 -7433.0022 296.0164 -9167.7253 -7433.0022 296.0164 -488.2915 -414.9028 30502.4643 -488.2915 -414.9028
ENERGY: 300000 0.3660 3.4211 0.9626 0.0000 -10702.5925 1383.8672 0.0000 0.0000 1841.8166 -7472.1591 314.2910 -9313.9757 -7456.4750 304.6562 -620.2549 -600.3757 30274.1379 -348.2431 -284.7412
ENERGY: 600000 2.1261 4.2003 0.9420 0.0000 -10683.1792 1414.7552 0.0000 0.0000 1722.8126 -7538.3430 293.9840 -9261.1556 -7483.6421 301.1583 -264.3662 -208.8911 30430.3831 -168.4150 -115.3393
ENERGY: 900000 1.9174 6.6426 0.4943 0.0000 -10660.0384 1431.7029 0.0000 0.0000 1751.8133 -7467.4679 298.9327 -9219.2812 -7471.6651 302.4028 60.8773 164.5657 30063.6342 -97.0970 -35.0592
ENERGY: 1200000 0.5241 5.8402 1.2518 0.0000 -10739.0223 1462.8933 0.0000 0.0000 1739.6071 -7528.9059 296.8498 -9268.5130 -7477.0470 302.0348 85.5208 184.0455 30287.6746 4.8405 60.0301
ENERGY: 1500000 1.5065 3.6104 0.7763 0.0000 -10752.9903 1496.5592 0.0000 0.0000 1768.2062 -7482.3318 301.7300 -9250.5379 -7476.0580 302.2076 680.6988 704.2466 30132.0482 55.6947 106.0304
TCL: Running FEP window   4: Lambda1 0.8499999999999999 Lambda2 0.7999999999999998 [dLambda -0.050000000000000044]
TCL: Setting parameter firsttimestep to 0
TCL: Setting parameter alchLambda to 0.8499999999999999
Info: NONBONDED TABLE R-SQUARED SPACING: 0.0625
Info: NONBONDED TABLE SIZE: 705 POINTS
TCL: Setting parameter alchLambda2 to 0.7999999999999998
Info: NONBONDED TABLE R-SQUARED SPACING: 0.0625
Info: NONBONDED TABLE SIZE: 705 POINTS
TCL: Running for 1500000 steps
ETITLE: TS BOND ANGLE DIHED IMPRP ELECT VDW BOUNDARY MISC KINETIC TOTAL TEMP POTENTIAL TOTALAVG TEMPAVG PRESSURE GPRESSURE VOLUME PRESSAVG GPRESSAVG
ENERGY: 0 1.5065 3.6104 0.7763 0.0000 -10751.8956 1495.7650 0.0000 0.0000 1767.3239 -7482.9134 301.5795 -9250.2374 -7482.9134 301.5795 617.2127 689.1688 30132.0482 617.2127 689.1688
ENERGY: 300000 0.5631 2.0508 0.8525 0.0000 -10543.4642 1336.2202 0.0000 0.0000 1766.3448 -7437.4328 301.4124 -9203.7776 -7472.3780 302.3429 -598.6134 -597.5833 30457.8109 47.9457 75.2127
ENERGY: 600000 0.4355 6.6782 0.3333 0.0000 -10839.0162 1584.6976 0.0000 0.0000 1795.0937 -7451.7778 306.3182 -9246.8715 -7456.6460 303.6900 1091.6426 1106.7462 30313.6784 68.1738 101.8102
ENERGY: 900000 0.2904 4.5627 0.4014 0.0000 -10689.4595 1503.9074 0.0000 0.0000 1753.7088 -7426.5888 299.2562 -9180.2975 -7463.5425 302.0577 678.3093 700.3595 30523.7517 114.5213 155.0896
ENERGY: 1200000 0.5520 5.8727 0.8371 0.0000 -10640.9903 1402.9452 0.0000 0.0000 1724.8478 -7505.9355 294.3313 -9230.7834 -7475.4820 300.1684 -250.1571 -143.3036 30331.4293 2.8182 53.9838
ENERGY: 1500000 0.1139 6.2896 0.9984 0.0000 -10666.8302 1368.2869 0.0000 0.0000 1679.2800 -7611.8616 286.5555 -9291.1415 -7490.3722 299.4548 -843.4422 -710.7971 30237.1403 -55.7835 1.8247
TCL: Running FEP window   5: Lambda1 0.7999999999999998 Lambda2 0.7499999999999998 [dLambda -0.050000000000000044]
TCL: Setting parameter firsttimestep to 0
TCL: Setting parameter alchLambda to 0.7999999999999998
Info: NONBONDED TABLE R-SQUARED SPACING: 0.0625
Info: NONBONDED TABLE SIZE: 705 POINTS
TCL: Setting parameter alchLambda2 to 0.7499999999999998
Info: NONBONDED TABLE R-SQUARED SPACING: 0.0625
Info: NONBONDED TABLE SIZE: 705 POINTS
TCL: Running for 1500000 steps
ETITLE: TS BOND ANGLE DIHED IMPRP ELECT VDW BOUNDARY MISC KINETIC TOTAL TEMP POTENTIAL TOTALAVG TEMPAVG PRESSURE GPRESSURE VOLUME PRESSAVG GPRESSAVG
ENERGY: 0 0.1139 6.2896 0.9984 0.0000 -10664.8071 1366.3360 0.0000 0.0000 1678.3910 -7612.6782 286.4038 -9291.0692 -7612.6782 286.4038 -825.9046 -737.1096 30237.1403 -825.9046 -737.1096
ENERGY: 300000 1.0990 4.8271 0.6061 0.0000 -10703.6838 1464.5679 0.0000 0.0000 1791.5413 -7441.0424 305.7120 -9232.5837 -7483.9662 300.3976 588.1149 628.8615 29983.9116 59.0433 110.3018
ENERGY: 600000 1.1436 4.6310 0.6578 0.0000 -10722.9054 1477.5535 0.0000 0.0000 1742.7858 -7496.1337 297.3922 -9238.9195 -7489.7539 299.2754 321.7403 363.1217 30389.6459 46.8459 100.1112
ENERGY: 900000 1.4244 5.7797 0.5897 0.0000 -10657.0338 1397.1880 0.0000 0.0000 1762.1317 -7489.9202 300.6935 -9252.0519 -7495.4748 299.6760 -454.5310 -446.4754 30390.9384 -6.7841 45.9986
ENERGY: 1200000 1.1956 5.7855 1.7078 0.0000 -10617.5326 1375.8815 0.0000 0.0000 1779.3427 -7453.6195 303.6304 -9232.9622 -7504.6519 298.9303 -394.1885 -369.2273 30418.5880 -22.6734 31.2715
ENERGY: 1500000 1.1091 9.6111 1.6243 0.0000 -10767.7445 1530.9584 0.0000 0.0000 1815.9759 -7408.4657 309.8815 -9224.4416 -7497.8431 299.5227 901.2181 939.4848 30236.5524 38.8260 99.2963
TCL: Running FEP window   6: Lambda1 0.7499999999999998 Lambda2 0.6999999999999997 [dLambda -0.050000000000000044]
TCL: Setting parameter firsttimestep to 0
TCL: Setting parameter alchLambda to 0.7499999999999998
Info: NONBONDED TABLE R-SQUARED SPACING: 0.0625
Info: NONBONDED TABLE SIZE: 705 POINTS
TCL: Setting parameter alchLambda2 to 0.6999999999999997
Info: NONBONDED TABLE R-SQUARED SPACING: 0.0625
Info: NONBONDED TABLE SIZE: 705 POINTS
TCL: Running for 1500000 steps
ETITLE: TS BOND ANGLE DIHED IMPRP ELECT VDW BOUNDARY MISC KINETIC TOTAL TEMP POTENTIAL TOTALAVG TEMPAVG PRESSURE GPRESSURE VOLUME PRESSAVG GPRESSAVG
ENERGY: 0 1.1091 9.6111 1.6243 0.0000 -10766.3860 1531.1700 0.0000 0.0000 1815.0799 -7407.7917 309.7286 -9222.8716 -7407.7917 309.7286 852.3697 936.3848 30236.5524 852.3697 936.3848
ENERGY: 300000 2.4551 3.3838 0.2844 0.0000 -10801.2231 1549.1925 0.0000 0.0000 1762.0598 -7483.8476 300.6812 -9245.9074 -7469.3542 301.8576 801.6902 860.5657 30317.8102 383.8404 462.0309
ENERGY: 600000 0.2700 3.6107 0.6817 0.0000 -10633.6334 1409.8414 0.0000 0.0000 1739.3279 -7479.9016 296.8022 -9219.2295 -7483.4010 299.6130 -142.8625 -141.2631 30344.3553 421.9574 484.2120
ENERGY: 900000 0.0963 5.9225 0.2852 0.0000 -10713.1804 1464.7942 0.0000 0.0000 1796.8339 -7445.2483 306.6151 -9242.0822 -7476.2837 300.1331 264.6501 300.8835 30313.1390 269.1914 329.0279
ENERGY: 1200000 0.8733 6.5167 0.2193 0.0000 -10683.5355 1425.3089 0.0000 0.0000 1800.1029 -7450.5145 307.1729 -9250.6174 -7478.5352 300.1255 -39.0287 43.6135 30184.0450 188.1131 250.8043
ENERGY: 1500000 0.1056 2.6146 0.3438 0.0000 -10522.6828 1328.4642 0.0000 0.0000 1797.4338 -7393.7208 306.7175 -9191.1546 -7469.2764 300.9620 -756.8292 -656.1562 30446.4980 135.0505 193.6957
TCL: Running FEP window   7: Lambda1 0.6999999999999997 Lambda2 0.6499999999999997 [dLambda -0.050000000000000044]
TCL: Setting parameter firsttimestep to 0
TCL: Setting parameter alchLambda to 0.6999999999999997
Info: NONBONDED TABLE R-SQUARED SPACING: 0.0625
Info: NONBONDED TABLE SIZE: 705 POINTS
TCL: Setting parameter alchLambda2 to 0.6499999999999997
Info: NONBONDED TABLE R-SQUARED SPACING: 0.0625
Info: NONBONDED TABLE SIZE: 705 POINTS
TCL: Running for 1500000 steps
ETITLE: TS BOND ANGLE DIHED IMPRP ELECT VDW BOUNDARY MISC KINETIC TOTAL TEMP POTENTIAL TOTALAVG TEMPAVG PRESSURE GPRESSURE VOLUME PRESSAVG GPRESSAVG
ENERGY: 0 0.1056 2.6146 0.3438 0.0000 -10521.9458 1327.9925 0.0000 0.0000 1796.5737 -7394.3156 306.5707 -9190.8893 -7394.3156 306.5707 -759.9954 -669.1501 30446.4980 -759.9954 -669.1501
ENERGY: 300000 0.5648 5.3599 0.6012 0.0000 -10694.7573 1431.1154 0.0000 0.0000 1717.2538 -7539.8623 293.0354 -9257.1161 -7452.3353 301.0854 217.9347 256.5640 29683.6142 -4.8646 46.5041
ENERGY: 600000 0.5559 4.8270 0.8361 0.0000 -10830.4419 1519.0739 0.0000 0.0000 1793.5089 -7511.6401 306.0477 -9305.1490 -7477.9215 299.2269 611.0312 715.8531 29920.2870 5.0772 76.1047
ENERGY: 900000 0.9456 5.0185 0.4162 0.0000 -10742.7784 1476.1904 0.0000 0.0000 1689.9460 -7570.2617 288.3756 -9260.2076 -7499.4367 297.5984 246.8174 359.1664 30045.8571 34.9086 105.3600
ENERGY: 1200000 0.4791 5.2779 0.1575 0.0000 -10651.8834 1428.0926 0.0000 0.0000 1831.2462 -7386.6301 312.4873 -9217.8764 -7488.5267 298.9386 89.7979 156.0268 29868.7703 -20.2454 47.5664
ENERGY: 1500000 1.1554 4.9539 0.5725 0.0000 -10639.2693 1372.9159 0.0000 0.0000 1772.3039 -7487.3678 302.4293 -9259.6717 -7491.6585 298.3833 -585.0777 -556.7851 30269.7885 -83.5159 -17.0744
TCL: Running FEP window   8: Lambda1 0.6499999999999997 Lambda2 0.5999999999999996 [dLambda -0.050000000000000044]
TCL: Setting parameter firsttimestep to 0
TCL: Setting parameter alchLambda to 0.6499999999999997
Info: NONBONDED TABLE R-SQUARED SPACING: 0.0625
Info: NONBONDED TABLE SIZE: 705 POINTS
TCL: Setting parameter alchLambda2 to 0.5999999999999996
Info: NONBONDED TABLE R-SQUARED SPACING: 0.0625
Info: NONBONDED TABLE SIZE: 705 POINTS
TCL: Running for 1500000 steps
ETITLE: TS BOND ANGLE DIHED IMPRP ELECT VDW BOUNDARY MISC KINETIC TOTAL TEMP POTENTIAL TOTALAVG TEMPAVG PRESSURE GPRESSURE VOLUME PRESSAVG GPRESSAVG
ENERGY: 0 1.1554 4.9539 0.5725 0.0000 -10637.5392 1372.6760 0.0000 0.0000 1771.4408 -7486.7406 302.2820 -9258.1815 -7486.7406 302.2820 -639.2038 -558.2785 30269.7885 -639.2038 -558.2785
ENERGY: 300000 0.1185 4.7148 0.4023 0.0000 -10750.1519 1443.9186 0.0000 0.0000 1823.7864 -7477.2113 311.2143 -9300.9977 -7515.2667 302.6733 -41.9459 24.9109 30254.1282 -223.9745 -162.7595
ENERGY: 600000 1.4495 4.5896 3.0750 0.0000 -10627.1470 1338.0278 0.0000 0.0000 1745.8080 -7534.1970 297.9080 -9280.0050 -7498.9828 302.1305 -938.6303 -882.2097 30209.9052 -311.0546 -256.7632
ENERGY: 900000 0.5561 7.6815 0.5810 0.0000 -10832.3963 1502.1357 0.0000 0.0000 1769.0864 -7552.3556 301.8802 -9321.4420 -7489.0068 302.1367 78.2554 212.9314 30473.2734 -154.0181 -90.3931
ENERGY: 1200000 0.3461 5.6380 0.5798 0.0000 -10727.0914 1409.1258 0.0000 0.0000 1781.0632 -7530.3385 303.9240 -9311.4016 -7490.8280 301.7781 -416.9701 -379.4010 30253.0815 -209.5169 -150.6491
ENERGY: 1500000 0.1434 3.0750 0.9791 0.0000 -10567.0101 1400.2005 0.0000 0.0000 1772.0576 -7390.5544 302.3872 -9162.6120 -7487.7738 300.9190 -350.7593 -241.6397 30714.7722 -236.0768 -170.5991
TCL: Running FEP window   9: Lambda1 0.5999999999999996 Lambda2 0.5499999999999996 [dLambda -0.050000000000000044]
TCL: Setting parameter firsttimestep to 0
TCL: Setting parameter alchLambda to 0.5999999999999996
Info: NONBONDED TABLE R-SQUARED SPACING: 0.0625
Info: NONBONDED TABLE SIZE: 705 POINTS
TCL: Setting parameter alchLambda2 to 0.5499999999999996
Info: NONBONDED TABLE R-SQUARED SPACING: 0.0625
Info: NONBONDED TABLE SIZE: 705 POINTS
TCL: Running for 1500000 steps
ETITLE: TS BOND ANGLE DIHED IMPRP ELECT VDW BOUNDARY MISC KINETIC TOTAL TEMP POTENTIAL TOTALAVG TEMPAVG PRESSURE GPRESSURE VOLUME PRESSAVG GPRESSAVG
ENERGY: 0 0.1434 3.0750 0.9791 0.0000 -10565.7119 1400.0201 0.0000 0.0000 1771.2001 -7390.2941 302.2409 -9161.4942 -7390.2941 302.2409 -331.4095 -246.9697 30714.7722 -331.4095 -246.9697
ENERGY: 300000 0.9676 5.2289 0.8650 0.0000 -10696.4915 1498.5829 0.0000 0.0000 1725.5121 -7465.3349 294.4446 -9190.8470 -7450.2307 298.4464 289.4364 416.4537 30786.2086 -134.5600 -37.8306
ENERGY: 600000 0.6035 4.4814 3.1197 0.0000 -10801.4860 1512.1615 0.0000 0.0000 1782.9630 -7498.1570 304.2481 -9281.1200 -7452.0698 300.0140 534.0912 611.1330 30103.1756 -3.1045 72.7887
ENERGY: 900000 1.1195 11.0084 3.9027 0.0000 -10661.4099 1484.9712 0.0000 0.0000 1710.5660 -7449.8421 291.8942 -9160.4081 -7464.6993 298.0975 377.6407 453.5232 30363.4492 -58.1351 21.0620
ENERGY: 1200000 1.3154 7.0699 0.8758 0.0000 -10550.5782 1358.2335 0.0000 0.0000 1756.4929 -7426.5906 299.7312 -9183.0835 -7464.9172 298.1933 -662.6689 -599.5746 30728.6689 -138.2610 -69.2282
ENERGY: 1500000 0.3293 6.0929 0.9312 0.0000 -10623.4872 1381.2545 0.0000 0.0000 1745.7067 -7489.1726 297.8907 -9234.8792 -7468.7872 297.8046 -627.3964 -587.2723 30652.7354 -146.3453 -77.0403
TCL: Running FEP window  10: Lambda1 0.5499999999999996 Lambda2 0.4999999999999996 [dLambda -0.04999999999999999]
TCL: Setting parameter firsttimestep to 0
TCL: Setting parameter alchLambda to 0.5499999999999996
Info: NONBONDED TABLE R-SQUARED SPACING: 0.0625
Info: NONBONDED TABLE SIZE: 705 POINTS
TCL: Setting parameter alchLambda2 to 0.4999999999999996
Info: NONBONDED TABLE R-SQUARED SPACING: 0.0625
Info: NONBONDED TABLE SIZE: 705 POINTS
TCL: Running for 1500000 steps
ETITLE: TS BOND ANGLE DIHED IMPRP ELECT VDW BOUNDARY MISC KINETIC TOTAL TEMP POTENTIAL TOTALAVG TEMPAVG PRESSURE GPRESSURE VOLUME PRESSAVG GPRESSAVG
ENERGY: 0 0.3293 6.0929 0.9312 0.0000 -10622.4778 1380.9433 0.0000 0.0000 1744.8026 -7489.3785 297.7364 -9234.1810 -7489.3785 297.7364 -691.7063 -595.9706 30652.7354 -691.7063 -595.9706
ENERGY: 300000 1.8577 7.1418 0.5156 0.0000 -10547.7277 1323.8255 0.0000 0.0000 1754.6509 -7459.7361 299.4169 -9214.3870 -7470.8133 297.4903 -958.4652 -865.1947 30507.7650 -454.1470 -355.2981
ENERGY: 600000 1.2472 6.9102 0.1755 0.0000 -10622.5967 1424.5528 0.0000 0.0000 1730.5963 -7459.1148 295.3122 -9189.7111 -7479.9120 297.5196 -97.0293 -0.4055 30646.8506 -219.5800 -138.3613
ENERGY: 900000 0.7142 5.3739 1.0257 0.0000 -10498.8075 1358.9980 0.0000 0.0000 1781.4355 -7351.2602 303.9875 -9132.6957 -7467.4508 298.6079 -502.1380 -502.0991 30817.6373 -224.7232 -161.6654
ENERGY: 1200000 1.0338 4.4055 1.0300 0.0000 -10612.3727 1418.7822 0.0000 0.0000 1766.0683 -7421.0529 301.3652 -9187.1212 -7469.7375 299.5408 12.4106 131.4322 30135.0495 -164.0030 -99.1597
ENERGY: 1500000 0.2169 6.3109 1.5233 0.0000 -10685.7582 1419.4425 0.0000 0.0000 1817.9783 -7440.2863 310.2232 -9258.2646 -7466.7599 299.8246 -92.7880 -7.3662 30059.1103 -210.0056 -145.3088
TCL: Running FEP window  11: Lambda1 0.4999999999999996 Lambda2 0.4499999999999996 [dLambda -0.04999999999999999]
TCL: Setting parameter firsttimestep to 0
TCL: Setting parameter alchLambda to 0.4999999999999996
Info: NONBONDED TABLE R-SQUARED SPACING: 0.0625
Info: NONBONDED TABLE SIZE: 705 POINTS
TCL: Setting parameter alchLambda2 to 0.4499999999999996
Info: NONBONDED TABLE R-SQUARED SPACING: 0.0625
Info: NONBONDED TABLE SIZE: 705 POINTS
TCL: Running for 1500000 steps
ETITLE: TS BOND ANGLE DIHED IMPRP ELECT VDW BOUNDARY MISC KINETIC TOTAL TEMP POTENTIAL TOTALAVG TEMPAVG PRESSURE GPRESSURE VOLUME PRESSAVG GPRESSAVG
ENERGY: 0 0.2169 6.3109 1.5233 0.0000 -10685.8763 1419.3690 0.0000 0.0000 1817.0774 -7441.3789 310.0695 -9258.4563 -7441.3789 310.0695 -110.1920 -16.0385 30059.1103 -110.1920 -16.0385
ENERGY: 300000 1.2941 4.2973 1.7864 0.0000 -10651.1699 1389.9529 0.0000 0.0000 1760.2820 -7493.5573 300.3778 -9253.8393 -7463.2497 302.3312 -394.1754 -308.5572 30051.1868 -84.7634 -1.7887
ENERGY: 600000 0.7993 4.7757 2.1761 0.0000 -10720.5995 1391.6007 0.0000 0.0000 1755.9557 -7565.2920 299.6396 -9321.2477 -7491.5079 300.0240 -777.2894 -638.4601 30464.3052 -237.4351 -152.7019
ENERGY: 900000 1.8198 6.2619 0.5941 0.0000 -10585.8838 1397.6331 0.0000 0.0000 1752.6794 -7426.8955 299.0805 -9179.5749 -7483.8293 300.1595 -49.5432 3.7321 30069.9393 -250.6824 -177.2655
ENERGY: 1200000 0.2922 4.3611 1.0608 0.0000 -10556.2722 1350.9836 0.0000 0.0000 1772.2335 -7427.3411 302.4172 -9199.5746 -7487.7158 299.8096 -590.4942 -577.5148 30549.0488 -231.3294 -164.4371
ENERGY: 1500000 1.8894 6.8420 1.8873 0.0000 -10603.4644 1382.0746 0.0000 0.0000 1777.8836 -7432.8875 303.3814 -9210.7711 -7472.3808 300.0997 -554.0459 -475.4805 30759.4458 -260.2958 -190.8827
TCL: Running FEP window  12: Lambda1 0.4499999999999996 Lambda2 0.39999999999999963 [dLambda -0.04999999999999999]
TCL: Setting parameter firsttimestep to 0
TCL: Setting parameter alchLambda to 0.4499999999999996
Info: NONBONDED TABLE R-SQUARED SPACING: 0.0625
Info: NONBONDED TABLE SIZE: 705 POINTS
TCL: Setting parameter alchLambda2 to 0.39999999999999963
Info: NONBONDED TABLE R-SQUARED SPACING: 0.0625
Info: NONBONDED TABLE SIZE: 705 POINTS
TCL: Running for 1500000 steps
ETITLE: TS BOND ANGLE DIHED IMPRP ELECT VDW BOUNDARY MISC KINETIC TOTAL TEMP POTENTIAL TOTALAVG TEMPAVG PRESSURE GPRESSURE VOLUME PRESSAVG GPRESSAVG
ENERGY: 0 1.8894 6.8420 1.8873 0.0000 -10603.4633 1382.4820 0.0000 0.0000 1777.0142 -7433.3483 303.2330 -9210.3626 -7433.3483 303.2330 -550.2430 -475.7970 30759.4458 -550.2430 -475.7970
ENERGY: 300000 1.6769 4.1683 0.2273 0.0000 -10648.4310 1402.0579 0.0000 0.0000 1828.6639 -7411.6366 312.0466 -9240.3006 -7473.8778 301.6656 -399.3077 -356.6254 30381.7309 -330.8239 -267.5143
ENERGY: 600000 2.3139 4.6635 0.6236 0.0000 -10637.9817 1376.2280 0.0000 0.0000 1730.6882 -7523.4646 295.3279 -9254.1528 -7480.6644 300.9650 -664.5774 -533.2810 30183.5201 -298.0094 -211.0189
ENERGY: 900000 1.2211 5.0936 0.5578 0.0000 -10683.3478 1428.3862 0.0000 0.0000 1767.9897 -7480.0995 301.6931 -9248.0892 -7486.7428 300.7792 287.4365 367.2899 29686.4114 -198.5706 -121.6168
ENERGY: 1200000 0.3716 4.1794 0.6168 0.0000 -10652.6323 1424.2645 0.0000 0.0000 1777.0852 -7446.1147 303.2452 -9223.2000 -7488.1642 299.9656 -196.4547 -141.5547 30737.6140 -249.1123 -179.0552
ENERGY: 1500000 1.0528 3.7678 0.8232 0.0000 -10578.5216 1366.1456 0.0000 0.0000 1748.4022 -7458.3300 298.3506 -9206.7322 -7478.7099 300.6009 -576.0238 -550.8455 30483.6342 -230.9799 -156.6996
TCL: Running FEP window  13: Lambda1 0.39999999999999963 Lambda2 0.34999999999999964 [dLambda -0.04999999999999999]
TCL: Setting parameter firsttimestep to 0
TCL: Setting parameter alchLambda to 0.39999999999999963
Info: NONBONDED TABLE R-SQUARED SPACING: 0.0625
Info: NONBONDED TABLE SIZE: 705 POINTS
TCL: Setting parameter alchLambda2 to 0.34999999999999964
Info: NONBONDED TABLE R-SQUARED SPACING: 0.0625
Info: NONBONDED TABLE SIZE: 705 POINTS
TCL: Running for 1500000 steps
ETITLE: TS BOND ANGLE DIHED IMPRP ELECT VDW BOUNDARY MISC KINETIC TOTAL TEMP POTENTIAL TOTALAVG TEMPAVG PRESSURE GPRESSURE VOLUME PRESSAVG GPRESSAVG
ENERGY: 0 1.0528 3.7678 0.8232 0.0000 -10578.5224 1366.0985 0.0000 0.0000 1747.5300 -7459.2501 298.2018 -9206.7801 -7459.2501 298.2018 -641.1514 -557.2952 30483.6342 -641.1514 -557.2952
ENERGY: 300000 0.2861 3.4574 1.0476 0.0000 -10829.4256 1475.5933 0.0000 0.0000 1796.9621 -7552.0792 306.6370 -9349.0413 -7503.2128 302.2997 125.1607 141.9501 29983.5143 129.8178 176.5265
ENERGY: 600000 1.3500 6.9850 3.7341 0.0000 -10433.9338 1295.3784 0.0000 0.0000 1755.0170 -7371.4694 299.4794 -9126.4864 -7475.1163 300.3103 -819.0970 -765.7042 30542.7196 -151.1748 -107.5317
ENERGY: 900000 0.2990 7.7536 0.7808 0.0000 -10783.8671 1493.4287 0.0000 0.0000 1741.6320 -7539.9731 297.1953 -9281.6050 -7492.6361 299.4430 367.4156 441.9217 29988.4643 -44.8545 16.0747
ENERGY: 1200000 0.5819 6.4229 0.5397 0.0000 -10722.7378 1429.7378 0.0000 0.0000 1781.8529 -7503.6026 304.0587 -9285.4555 -7500.5688 300.0296 -233.6786 -179.4531 30365.4720 -67.4128 -2.2377
ENERGY: 1500000 0.5526 3.6579 1.2579 0.0000 -10822.3025 1544.3165 0.0000 0.0000 1730.9569 -7541.5607 295.3737 -9272.5176 -7495.5563 299.7110 975.0484 1058.1935 29726.2312 -24.0129 38.7879
TCL: Running FEP window  14: Lambda1 0.34999999999999964 Lambda2 0.29999999999999966 [dLambda -0.04999999999999999]
TCL: Setting parameter firsttimestep to 0
TCL: Setting parameter alchLambda to 0.34999999999999964
Info: NONBONDED TABLE R-SQUARED SPACING: 0.0625
Info: NONBONDED TABLE SIZE: 705 POINTS
TCL: Setting parameter alchLambda2 to 0.29999999999999966
Info: NONBONDED TABLE R-SQUARED SPACING: 0.0625
Info: NONBONDED TABLE SIZE: 705 POINTS
TCL: Running for 1500000 steps
ETITLE: TS BOND ANGLE DIHED IMPRP ELECT VDW BOUNDARY MISC KINETIC TOTAL TEMP POTENTIAL TOTALAVG TEMPAVG PRESSURE GPRESSURE VOLUME PRESSAVG GPRESSAVG
ENERGY: 0 0.5526 3.6579 1.2579 0.0000 -10822.3025 1543.9531 0.0000 0.0000 1730.0895 -7542.7915 295.2257 -9272.8810 -7542.7915 295.2257 973.4629 1049.8108 29726.2312 973.4629 1049.8108
ENERGY: 300000 0.7846 5.4827 0.4310 0.0000 -10615.7131 1385.2595 0.0000 0.0000 1816.0881 -7407.6673 309.9007 -9223.7553 -7452.1674 303.3754 -477.4156 -424.8209 30064.8629 147.4657 210.1103
ENERGY: 600000 1.0752 5.1510 1.3952 0.0000 -10686.8375 1436.7821 0.0000 0.0000 1760.0275 -7482.4064 300.3344 -9242.4339 -7461.8513 302.6301 -83.2696 6.5592 30299.4641 -12.0709 45.0944
ENERGY: 900000 1.8438 6.7792 0.8917 0.0000 -10691.8092 1433.9194 0.0000 0.0000 1744.8357 -7503.5393 297.7420 -9248.3750 -7470.1116 301.4079 -155.8107 -65.3295 29970.7852 -117.2417 -52.0421
ENERGY: 1200000 0.4191 7.2189 1.8369 0.0000 -10721.6127 1426.2720 0.0000 0.0000 1741.3958 -7544.4700 297.1551 -9285.8658 -7476.4889 300.9830 -118.8771 -104.3869 30106.0186 -90.1152 -30.1899
ENERGY: 1500000 0.7258 4.4999 0.1328 0.0000 -10719.8572 1471.1197 0.0000 0.0000 1746.2626 -7497.1164 297.9855 -9243.3790 -7485.0781 300.2755 365.6864 368.3114 30201.4848 -160.8478 -107.5276
TCL: Running FEP window  15: Lambda1 0.29999999999999966 Lambda2 0.24999999999999967 [dLambda -0.04999999999999999]
TCL: Setting parameter firsttimestep to 0
TCL: Setting parameter alchLambda to 0.29999999999999966
Info: NONBONDED TABLE R-SQUARED SPACING: 0.0625
Info: NONBONDED TABLE SIZE: 705 POINTS
TCL: Setting parameter alchLambda2 to 0.24999999999999967
Info: NONBONDED TABLE R-SQUARED SPACING: 0.0625
Info: NONBONDED TABLE SIZE: 705 POINTS
TCL: Running for 1500000 steps
ETITLE: TS BOND ANGLE DIHED IMPRP ELECT VDW BOUNDARY MISC KINETIC TOTAL TEMP POTENTIAL TOTALAVG TEMPAVG PRESSURE GPRESSURE VOLUME PRESSAVG GPRESSAVG
ENERGY: 0 0.7258 4.4999 0.1328 0.0000 -10719.8575 1471.3770 0.0000 0.0000 1745.3772 -7497.7448 297.8344 -9243.1220 -7497.7448 297.8344 283.7609 365.8079 30201.4848 283.7609 365.8079
ENERGY: 300000 2.5919 4.8793 0.1972 0.0000 -10671.3390 1432.0940 0.0000 0.0000 1759.5401 -7472.0366 300.2512 -9231.5767 -7450.4907 300.7736 -91.0943 -41.4608 30222.5390 -143.7406 -52.0202
ENERGY: 600000 0.3655 7.8930 1.7163 0.0000 -10658.6603 1432.8815 0.0000 0.0000 1805.8511 -7409.9528 308.1538 -9215.8040 -7453.4306 300.7529 -206.4334 -112.6211 30391.9770 -191.2111 -111.2615
ENERGY: 900000 0.9044 10.7206 1.5441 0.0000 -10897.9550 1595.0514 0.0000 0.0000 1773.6643 -7516.0702 302.6614 -9289.7345 -7471.9117 300.6025 1082.1121 1135.4171 29939.6163 36.4910 102.7604
ENERGY: 1200000 0.6062 8.6982 1.6728 0.0000 -10639.4580 1397.9757 0.0000 0.0000 1731.7712 -7498.7339 295.5127 -9230.5051 -7481.6494 300.5624 -509.2974 -469.9146 30582.6949 -46.1956 22.1151
ENERGY: 1500000 1.3864 8.5163 1.4275 0.0000 -10741.5647 1487.1618 0.0000 0.0000 1786.5027 -7456.5701 304.8522 -9243.0729 -7491.8518 300.7272 397.2227 479.1880 30103.3621 -23.2536 41.5288
TCL: Running FEP window  16: Lambda1 0.24999999999999967 Lambda2 0.19999999999999968 [dLambda -0.04999999999999999]
TCL: Setting parameter firsttimestep to 0
TCL: Setting parameter alchLambda to 0.24999999999999967
Info: NONBONDED TABLE R-SQUARED SPACING: 0.0625
Info: NONBONDED TABLE SIZE: 705 POINTS
TCL: Setting parameter alchLambda2 to 0.19999999999999968
Info: NONBONDED TABLE R-SQUARED SPACING: 0.0625
Info: NONBONDED TABLE SIZE: 705 POINTS
TCL: Running for 1500000 steps
ETITLE: TS BOND ANGLE DIHED IMPRP ELECT VDW BOUNDARY MISC KINETIC TOTAL TEMP POTENTIAL TOTALAVG TEMPAVG PRESSURE GPRESSURE VOLUME PRESSAVG GPRESSAVG
ENERGY: 0 1.3864 8.5163 1.4275 0.0000 -10741.5646 1487.2231 0.0000 0.0000 1785.5650 -7457.4464 304.6922 -9243.0114 -7457.4464 304.6922 399.7658 479.0665 30103.3621 399.7658 479.0665
ENERGY: 300000 1.2268 5.5784 0.5512 0.0000 -10540.8404 1397.0475 0.0000 0.0000 1765.2335 -7371.2029 301.2228 -9136.4365 -7465.1286 299.1655 -113.4738 -73.0174 30258.4970 133.6696 202.5240
ENERGY: 600000 2.1343 5.0211 0.5927 0.0000 -10616.0687 1395.1056 0.0000 0.0000 1782.2257 -7430.9892 304.1223 -9213.2149 -7461.7979 300.5564 -70.4822 -105.7439 30047.6700 44.1048 79.0245
ENERGY: 900000 1.5035 4.6918 0.5013 0.0000 -10747.9785 1466.2935 0.0000 0.0000 1801.4062 -7473.5822 307.3953 -9274.9885 -7469.9124 301.3425 241.0590 315.0476 29973.0563 90.5848 132.3684
ENERGY: 1200000 1.6006 6.9515 1.6031 0.0000 -10729.3381 1429.4974 0.0000 0.0000 1783.5380 -7506.1474 304.3463 -9289.6854 -7466.4085 301.5127 -177.1787 -136.5811 30381.1379 26.5297 71.7203
ENERGY: 1500000 1.0182 4.9446 0.4945 0.0000 -10684.9627 1391.2736 0.0000 0.0000 1706.7192 -7580.5127 291.2378 -9287.2319 -7474.9366 300.2426 -551.3381 -451.2645 30157.2465 -5.6733 46.1530
TCL: Running FEP window  17: Lambda1 0.19999999999999968 Lambda2 0.1499999999999997 [dLambda -0.04999999999999999]
TCL: Setting parameter firsttimestep to 0
TCL: Setting parameter alchLambda to 0.19999999999999968
Info: NONBONDED TABLE R-SQUARED SPACING: 0.0625
Info: NONBONDED TABLE SIZE: 705 POINTS
TCL: Setting parameter alchLambda2 to 0.1499999999999997
Info: NONBONDED TABLE R-SQUARED SPACING: 0.0625
Info: NONBONDED TABLE SIZE: 705 POINTS
TCL: Running for 1500000 steps
ETITLE: TS BOND ANGLE DIHED IMPRP ELECT VDW BOUNDARY MISC KINETIC TOTAL TEMP POTENTIAL TOTALAVG TEMPAVG PRESSURE GPRESSURE VOLUME PRESSAVG GPRESSAVG
ENERGY: 0 1.0182 4.9446 0.4945 0.0000 -10684.9619 1391.0910 0.0000 0.0000 1705.8142 -7581.5994 291.0833 -9287.4136 -7581.5994 291.0833 -557.5316 -455.5139 30157.2465 -557.5316 -455.5139
ENERGY: 300000 0.4873 5.4647 1.1514 0.0000 -10454.0056 1303.3573 0.0000 0.0000 1802.6398 -7340.9052 307.6058 -9143.5449 -7434.0494 299.1352 -728.5408 -646.9350 30215.1565 -416.4943 -324.6726
ENERGY: 600000 0.0552 6.6205 0.5497 0.0000 -10663.9241 1431.6857 0.0000 0.0000 1762.6777 -7462.3353 300.7866 -9225.0131 -7431.5226 301.8710 9.0757 92.0634 30278.2943 -215.9277 -145.9309
ENERGY: 900000 0.2240 4.6388 1.7794 0.0000 -10691.0744 1516.7672 0.0000 0.0000 1749.7742 -7417.8908 298.5848 -9167.6651 -7443.1346 300.8438 737.8012 766.0431 30419.8082 -91.2373 -28.9405
ENERGY: 1200000 0.4581 4.2050 0.1818 0.0000 -10692.9731 1493.1032 0.0000 0.0000 1767.0060 -7428.0190 301.5252 -9195.0249 -7443.8602 300.4751 407.5079 443.9662 30363.7209 -105.1753 -54.2703
ENERGY: 1500000 1.2059 7.0916 1.2591 0.0000 -10739.6054 1453.5951 0.0000 0.0000 1782.5815 -7493.8722 304.1831 -9276.4537 -7451.6846 300.1068 255.1153 250.7021 29711.5889 -29.6421 16.4995
TCL: Running FEP window  18: Lambda1 0.1499999999999997 Lambda2 0.09999999999999969 [dLambda -0.05 ]
TCL: Setting parameter firsttimestep to 0
TCL: Setting parameter alchLambda to 0.1499999999999997
Info: NONBONDED TABLE R-SQUARED SPACING: 0.0625
Info: NONBONDED TABLE SIZE: 705 POINTS
TCL: Setting parameter alchLambda2 to 0.09999999999999969
Info: NONBONDED TABLE R-SQUARED SPACING: 0.0625
Info: NONBONDED TABLE SIZE: 705 POINTS
TCL: Running for 1500000 steps
ETITLE: TS BOND ANGLE DIHED IMPRP ELECT VDW BOUNDARY MISC KINETIC TOTAL TEMP POTENTIAL TOTALAVG TEMPAVG PRESSURE GPRESSURE VOLUME PRESSAVG GPRESSAVG
ENERGY: 0 1.2059 7.0916 1.2591 0.0000 -10739.6066 1453.4823 0.0000 0.0000 1781.7134 -7494.8543 304.0349 -9276.5677 -7494.8543 304.0349 166.8314 250.7673 29711.5889 166.8314 250.7673
ENERGY: 300000 1.0502 6.1813 0.3923 0.0000 -10719.9427 1518.3043 0.0000 0.0000 1710.3092 -7483.7053 291.8504 -9194.0145 -7494.1048 300.4098 501.7010 573.7265 30423.4050 309.0823 384.1464
ENERGY: 600000 0.5181 7.0684 1.1291 0.0000 -10622.7627 1399.9084 0.0000 0.0000 1749.3265 -7464.8121 298.5084 -9214.1386 -7488.5527 300.0765 -167.9194 -126.7970 30159.9350 184.7791 254.0686
ENERGY: 900000 1.9391 4.3154 1.7115 0.0000 -10762.7206 1460.6425 0.0000 0.0000 1762.4231 -7531.6890 300.7432 -9294.1121 -7498.1136 300.4216 -53.5334 3.4140 30317.1264 140.0695 199.7560
ENERGY: 1200000 2.1468 5.6181 0.1969 0.0000 -10712.0697 1399.1899 0.0000 0.0000 1767.8693 -7537.0486 301.6725 -9304.9180 -7504.0181 299.1910 -604.5573 -544.3825 30243.1010 17.0126 72.7075
ENERGY: 1500000 0.9986 3.9430 0.9557 0.0000 -10707.9850 1443.4018 0.0000 0.0000 1749.1871 -7509.4989 298.4846 -9258.6859 -7508.2284 298.7337 -102.2627 -45.6939 30315.8630 18.3569 73.3371
TCL: Running FEP window  19: Lambda1 0.09999999999999969 Lambda2 0.049999999999999684 [dLambda -0.05 ]
TCL: Setting parameter firsttimestep to 0
TCL: Setting parameter alchLambda to 0.09999999999999969
Info: NONBONDED TABLE R-SQUARED SPACING: 0.0625
Info: NONBONDED TABLE SIZE: 705 POINTS
TCL: Setting parameter alchLambda2 to 0.049999999999999684
Info: NONBONDED TABLE R-SQUARED SPACING: 0.0625
Info: NONBONDED TABLE SIZE: 705 POINTS
TCL: Running for 1500000 steps
ETITLE: TS BOND ANGLE DIHED IMPRP ELECT VDW BOUNDARY MISC KINETIC TOTAL TEMP POTENTIAL TOTALAVG TEMPAVG PRESSURE GPRESSURE VOLUME PRESSAVG GPRESSAVG
ENERGY: 0 0.9986 3.9430 0.9557 0.0000 -10707.9843 1442.2111 0.0000 0.0000 1748.3141 -7511.5618 298.3356 -9259.8759 -7511.5618 298.3356 -149.6919 -54.7755 30315.8630 -149.6919 -54.7755
ENERGY: 300000 0.6565 3.0205 0.8037 0.0000 -10658.4649 1420.4253 0.0000 0.0000 1733.7355 -7499.8235 295.8479 -9233.5589 -7502.3092 298.5307 -197.6724 -168.5503 30162.1289 100.1100 118.2951
ENERGY: 600000 0.3981 2.7404 0.5542 0.0000 -10545.8236 1353.2654 0.0000 0.0000 1738.9703 -7449.8953 296.7411 -9188.8655 -7486.1659 298.2566 -737.8997 -650.8057 30606.9915 -17.6612 14.3146
ENERGY: 900000 2.0726 5.0888 0.1516 0.0000 -10538.2205 1396.0070 0.0000 0.0000 1743.4364 -7391.4641 297.5033 -9134.9005 -7468.3333 298.3732 -377.6650 -322.1565 30766.0911 -101.1622 -56.0802
ENERGY: 1200000 0.7362 4.2688 0.8189 0.0000 -10571.8104 1377.1462 0.0000 0.0000 1789.0324 -7399.8079 305.2838 -9188.8403 -7461.0051 299.7891 -411.1590 -341.1594 30304.1736 -167.3604 -118.4827
ENERGY: 1500000 0.1496 4.6966 1.9833 0.0000 -10644.9177 1419.4446 0.0000 0.0000 1759.2680 -7459.3756 300.2048 -9218.6436 -7458.5884 300.2267 -264.4215 -177.1691 30288.5364 -158.4053 -105.9394
TCL: Running FEP window  20: Lambda1 0.049999999999999684 Lambda2 0.0    [dLambda -0.049999999999999684]
TCL: Setting parameter firsttimestep to 0
TCL: Setting parameter alchLambda to 0.049999999999999684
Info: NONBONDED TABLE R-SQUARED SPACING: 0.0625
Info: NONBONDED TABLE SIZE: 705 POINTS
TCL: Setting parameter alchLambda2 to 0.0
Info: NONBONDED TABLE R-SQUARED SPACING: 0.0625
Info: NONBONDED TABLE SIZE: 705 POINTS
TCL: Running for 1500000 steps
ETITLE: TS BOND ANGLE DIHED IMPRP ELECT VDW BOUNDARY MISC KINETIC TOTAL TEMP POTENTIAL TOTALAVG TEMPAVG PRESSURE GPRESSURE VOLUME PRESSAVG GPRESSAVG
ENERGY: 0 0.1496 4.6966 1.9833 0.0000 -10644.9193 1418.7840 0.0000 0.0000 1758.3884 -7460.9174 300.0547 -9219.3058 -7460.9174 300.0547 -271.9614 -181.0865 30288.5364 -271.9614 -181.0865
ENERGY: 300000 0.0799 6.6859 1.2872 0.0000 -10787.7810 1505.1532 0.0000 0.0000 1722.1140 -7552.4608 293.8648 -9274.5748 -7459.3869 300.0823 257.1171 345.2176 30273.6149 149.9336 208.0720
ENERGY: 600000 0.2522 13.0285 1.1035 0.0000 -10538.9354 1342.2566 0.0000 0.0000 1792.5151 -7389.7794 305.8781 -9182.2945 -7447.9849 300.3040 -838.9175 -719.7049 30662.2985 -95.5697 -18.7643
ENERGY: 900000 0.5107 6.0024 0.3055 0.0000 -10775.6451 1493.8340 0.0000 0.0000 1727.6488 -7547.3438 294.8092 -9274.9926 -7461.7438 299.9968 238.0745 307.7119 30167.8114 -40.8042 31.7017
ENERGY: 1200000 0.1127 6.7094 0.7808 0.0000 -10539.3210 1289.3746 0.0000 0.0000 1702.6945 -7539.6489 290.5510 -9242.3434 -7465.3811 299.4354 -1280.3576 -1194.8016 30433.4697 -88.4848 -16.9815
ENERGY: 1500000 1.5793 5.2844 1.3965 0.0000 -10741.8510 1453.1759 0.0000 0.0000 1798.2144 -7482.2005 306.8507 -9280.4149 -7465.9187 298.9823 4.1452 54.5497 30072.4323 -24.0805 37.0543
TCL: Exiting due to exit command.
