Info: SIMULATION PARAMETERS:
Info: TIMESTEP               2
Info: NUMBER OF STEPS        0
Info: STEPS PER CYCLE        10
Info: PERIODIC CELL BASIS 1  31.9807 0 0
Info: PERIODIC CELL BASIS 2  0 30.5835 0
Info: PERIODIC CELL BASIS 3  0 0 31.4192
Info: PERIODIC CELL CENTER   0 0 0
Info: WRAPPING WATERS AROUND PERIODIC BOUNDARIES ON OUTPUT.
Info: WRAPPING ALL CLUSTERS AROUND PERIODIC BOUNDARIES ON OUTPUT.
Info: FIRST LDB TIMESTEP     50
Info: LAST LDB TIMESTEP     -1
Info: HOM BACKGROUND SCALING 1
Info: PME BACKGROUND SCALING 1
Info: MIN ATOMS PER PATCH    40
Info: EMPTY PATCH LOAD       40 ATOMS
Info: VELOCITY FILE          mobley_2023925_equil.vel
Info: CENTER OF MASS MOVING INITIALLY? NO
Info: DIELECTRIC             1
Info: EXCLUDE                SCALED ONE-FOUR
Info: 1-4 ELECTROSTATICS SCALED BY 0.833333
Info: MODIFIED 1-4 VDW PARAMETERS WILL BE USED
Info: DCD FILENAME           mobley_2023925_prod.dcd
Info: DCD FREQUENCY          100000
Info: DCD FIRST STEP         100000
Info: DCD FILE WILL CONTAIN UNIT CELL DATA
Info: XST FILENAME           mobley_2023925_prod.xst
Info: XST FREQUENCY          100000
Info: NO VELOCITY DCD OUTPUT
Info: NO FORCE DCD OUTPUT
Info: OUTPUT FILENAME        mobley_2023925_prod
Info: BINARY OUTPUT FILES WILL BE USED
Info: RESTART FILENAME       mobley_2023925_prod.restart
Info: RESTART FREQUENCY      100000
Info: BINARY RESTART FILES WILL BE USED
Info: CUTOFF                 9
Info: PAIRLIST DISTANCE      11
Info: PAIRLIST SHRINK RATE   0.01
Info: PAIRLIST GROW RATE     0.01
Info: PAIRLIST TRIGGER       0.3
Info: PAIRLISTS PER CYCLE    2
Info: PAIRLISTS ENABLED
Info: MARGIN                 2
Info: HYDROGEN GROUP CUTOFF  2.5
Info: PATCH DIMENSION        15.5
Info: ENERGY OUTPUT STEPS    100000
Info: ENERGY EVALUATION STEPS    100000
Info: OUTPUT ENERGY PRECISION 4
Info: CROSSTERM ENERGY INCLUDED IN DIHEDRAL
Info: TIMING OUTPUT STEPS    1000000
Info: PRESSURE OUTPUT STEPS  100000
Info: ALCHEMICAL FEP ON
Info: FEP CURRENT LAMBDA VALUE     1
Info: FEP COMPARISON LAMBDA VALUE  0.95
Info: FEP INTRA-ALCHEMICAL NON-BONDED INTERACTIONS WILL BE RETAINED
Info: FEP INTRA-ALCHEMICAL BONDED INTERACTIONS WILL BE RETAINED
Info: FEP VDW SHIFTING COEFFICIENT 5
Info: FEP ELEC. ACTIVE FOR ANNIHILATED PARTICLES BETWEEN LAMBDA = 0 AND LAMBDA = 0.5
Info: FEP ELEC. ACTIVE FOR EXNIHILATED PARTICLES BETWEEN LAMBDA = 0.5 AND LAMBDA = 1
Info: FEP VDW ACTIVE FOR ANNIHILATED PARTICLES BETWEEN LAMBDA = 0 AND LAMBDA = 1
Info: FEP VDW ACTIVE FOR EXNIHILATED PARTICLES BETWEEN LAMBDA = 0 AND LAMBDA = 1
Info: FEP BOND ACTIVE FOR ANNIHILATED PARTICLES BETWEEN LAMBDA = 1 AND LAMBDA = 1
Info: FEP BOND ACTIVE FOR EXNIHILATED PARTICLES BETWEEN LAMBDA = 0 AND LAMBDA = 0
Info: LANGEVIN DYNAMICS ACTIVE
Info: LANGEVIN TEMPERATURE   300
Info: LANGEVIN USING BBK INTEGRATOR
Info: LANGEVIN DAMPING COEFFICIENT IS 1 INVERSE PS
Info: LANGEVIN DYNAMICS APPLIED TO HYDROGENS
Info: LANGEVIN PISTON PRESSURE CONTROL ACTIVE
Info:        TARGET PRESSURE IS 1.01325 BAR
Info:     OSCILLATION PERIOD IS 50 FS
Info:             DECAY TIME IS 25 FS
Info:     PISTON TEMPERATURE IS 300 K
Info:       PRESSURE CONTROL IS GROUP-BASED
Info:    INITIAL STRAIN RATE IS -0.00062989 -0.00062989 -0.00062989
Info:       CELL FLUCTUATION IS ISOTROPIC
Info: PARTICLE MESH EWALD (PME) ACTIVE
Info: PME TOLERANCE               1e-06
Info: PME EWALD COEFFICIENT       0.348832
Info: PME INTERPOLATION ORDER     4
Info: PME GRID DIMENSIONS         32 32 32
Info: PME MAXIMUM GRID SPACING    1
Info: PME CALCULATION WILL BE PERFORMED ON GPU
Info: FULL ELECTROSTATIC EVALUATION FREQUENCY      2
Info: USING VERLET I (r-RESPA) MTS SCHEME.
Info: C1 SPLITTING OF LONG RANGE ELECTROSTATICS
Info: PLACING ATOMS IN PATCHES BY HYDROGEN GROUPS
Info: RIGID BONDS TO HYDROGEN : ALL
Info:         ERROR TOLERANCE : 1e-08
Info:          MAX ITERATIONS : 100
Info: RIGID WATER USING SETTLE ALGORITHM
Info: RANDOM NUMBER SEED     1743822910
Info: USE HYDROGEN BONDS?    NO
Info: Using AMBER format force field!
Info: AMBER PARM FILE        mobley_2023925.prmtop
Info: COORDINATE PDB         mobley_2023925.pdb
Info: Exclusions will be read from PARM file!
Info: SCNB (VDW SCALING)     2
Info: USING ARITHMETIC MEAN TO COMBINE L-J SIGMA PARAMETERS
Info: BINARY COORDINATES     mobley_2023925_equil.coor
Info: SUMMARY OF PARAMETERS:
Info: 8 BONDS
Info: 12 ANGLES
Info:   12 HARMONIC
Info:   0 COSINE-BASED
Info: 4 DIHEDRAL
Info: 0 IMPROPER
Info: 0 CROSSTERM
Info: 0 VDW
Info: 36 VDW_PAIRS
Info: 0 NBTHOLE_PAIRS
Info: To read alchdata from file: mobley_2023925.pdb
Info: To read alchflag data from column: 5
Info: STRUCTURE SUMMARY:
Info: 2958 ATOMS
Info: 2957 BONDS
Info: 19 ANGLES
Info: 16 DIHEDRALS
Info: 0 IMPROPERS
Info: 0 CROSSTERMS
Info: 2991 EXCLUSIONS
Info: 2948 RIGID BONDS
Info: ALCH: 0 ATOMS TO DISAPPEAR IN FINAL STATE
Info: ALCH: 12 ATOMS TO APPEAR IN FINAL STATE
Info: 5926 DEGREES OF FREEDOM
Info: 992 HYDROGEN GROUPS
Info: 3 ATOMS IN LARGEST HYDROGEN GROUP
Info: 992 MIGRATION GROUPS
Info: 3 ATOMS IN LARGEST MIGRATION GROUP
Info: TOTAL MASS = 17876.2 amu
Info: TOTAL CHARGE = 9.99942e-05 e
Info: MASS DENSITY = 0.965973 g/cm^3
Info: ATOM DENSITY = 0.0962562 atoms/A^3
Info: ADDED 0 IMPLICIT EXCLUSIONS
Info: NONBONDED TABLE R-SQUARED SPACING: 0.0625
Info: NONBONDED TABLE SIZE: 705 POINTS
Info: REMOVING COM VELOCITY -0.0148235 -0.0377162 -0.0440969
Info: Use 3D box decompostion in PME FFT.
Info: Updated CUDA force table with 4096 elements.
Info: Updated CUDA LJ table with 8 x 8 elements.
Info: Found 15 unique exclusion lists needing 24 bytes
TCL: Running for 1500000 steps
ETITLE: TS BOND ANGLE DIHED IMPRP ELECT VDW BOUNDARY MISC KINETIC TOTAL TEMP POTENTIAL TOTALAVG TEMPAVG PRESSURE GPRESSURE VOLUME PRESSAVG GPRESSAVG
ENERGY: 0 2.1049 5.3691 1.9732 0.0000 -10658.5423 1472.7892 0.0000 0.0000 1791.7204 -7384.5854 304.2979 -9176.3059 -7384.5854 304.2979 349.3944 419.8688 30730.4897 349.3944 419.8688
ENERGY: 300000 3.8642 5.3354 0.4780 0.0000 -10700.5227 1485.3895 0.0000 0.0000 1793.9637 -7411.4919 304.6789 -9205.4556 -7430.0466 302.6997 340.8266 401.0144 31091.6545 19.1692 89.0676
ENERGY: 600000 2.0209 2.5184 0.4382 0.0000 -10718.3439 1472.6609 0.0000 0.0000 1748.9821 -7491.7233 297.0394 -9240.7054 -7455.5361 301.9677 456.8671 489.3535 30206.8694 131.2636 193.8907
ENERGY: 900000 4.4564 4.0946 0.1406 0.0000 -10873.9251 1522.5017 0.0000 0.0000 1684.2853 -7658.4466 286.0516 -9342.7319 -7477.9936 301.0738 295.3651 368.0794 30497.0786 132.9946 187.0335
ENERGY: 1200000 2.4985 9.4467 0.3790 0.0000 -10739.8837 1460.6040 0.0000 0.0000 1831.0402 -7435.9154 310.9758 -9266.9556 -7477.5006 300.8749 182.6682 235.7544 30417.1894 140.8161 195.4199
ENERGY: 1500000 1.7733 7.8371 0.5689 0.0000 -10791.8130 1501.2270 0.0000 0.0000 1733.9856 -7546.4211 294.4925 -9280.4068 -7482.9593 300.0881 327.5694 386.3590 30468.0268 102.2078 155.7531
TCL: Running FEP window   2: Lambda1 0.95   Lambda2 0.8999999999999999 [dLambda -0.050000000000000044]
TCL: Setting parameter firsttimestep to 0
TCL: Setting parameter alchLambda to 0.95
Info: NONBONDED TABLE R-SQUARED SPACING: 0.0625
Info: NONBONDED TABLE SIZE: 705 POINTS
TCL: Setting parameter alchLambda2 to 0.8999999999999999
Info: NONBONDED TABLE R-SQUARED SPACING: 0.0625
Info: NONBONDED TABLE SIZE: 705 POINTS
TCL: Running for 1500000 steps
ETITLE: TS BOND ANGLE DIHED IMPRP ELECT VDW BOUNDARY MISC KINETIC TOTAL TEMP POTENTIAL TOTALAVG TEMPAVG PRESSURE GPRESSURE VOLUME PRESSAVG GPRESSAVG
ENERGY: 0 1.7733 7.8371 0.5689 0.0000 -10791.4647 1500.6592 0.0000 0.0000 1733.1197 -7547.5066 294.3454 -9280.6263 -7547.5066 294.3454 279.2114 362.8158 30468.0268 279.2114 362.8158
ENERGY: 300000 5.2595 5.7143 1.0931 0.0000 -10549.0310 1322.7672 0.0000 0.0000 1752.3343 -7461.8627 297.6087 -9214.1969 -7462.9171 300.2855 -925.0640 -892.3798 30961.3854 -141.0228 -57.3171
ENERGY: 600000 4.0666 7.6708 2.1583 0.0000 -10645.5709 1370.4347 0.0000 0.0000 1723.7307 -7537.5097 292.7509 -9261.2404 -7488.4964 300.6305 -497.1048 -423.7994 30359.1362 -0.9921 75.8001
ENERGY: 900000 2.8851 6.7593 0.4455 0.0000 -10830.2134 1531.4198 0.0000 0.0000 1779.4508 -7509.2528 302.2141 -9288.7036 -7479.4244 300.5554 1030.0613 1075.2772 29915.9621 88.4298 164.8584
ENERGY: 1200000 4.2436 3.7000 0.2582 0.0000 -10809.2355 1467.8777 0.0000 0.0000 1717.2968 -7615.8592 291.6581 -9333.1560 -7484.0623 300.5882 63.9378 144.4731 30185.1428 21.4650 98.4134
ENERGY: 1500000 3.0343 8.3252 0.3246 0.0000 -10639.2126 1425.2752 0.0000 0.0000 1770.8378 -7431.4154 300.7513 -9202.2532 -7488.7602 300.2863 -177.9933 -69.4739 30985.1640 89.6895 163.7536
TCL: Running FEP window   3: Lambda1 0.8999999999999999 Lambda2 0.8499999999999999 [dLambda -0.050000000000000044]
TCL: Setting parameter firsttimestep to 0
TCL: Setting parameter alchLambda to 0.8999999999999999
Info: NONBONDED TABLE R-SQUARED SPACING: 0.0625
Info: NONBONDED TABLE SIZE: 705 POINTS
TCL: Setting parameter alchLambda2 to 0.8499999999999999
Info: NONBONDED TABLE R-SQUARED SPACING: 0.0625
Info: NONBONDED TABLE SIZE: 705 POINTS
TCL: Running for 1500000 steps
ETITLE: TS BOND ANGLE DIHED IMPRP ELECT VDW BOUNDARY MISC KINETIC TOTAL TEMP POTENTIAL TOTALAVG TEMPAVG PRESSURE GPRESSURE VOLUME PRESSAVG GPRESSAVG
ENERGY: 0 3.0343 8.3252 0.3246 0.0000 -10638.0690 1424.3096 0.0000 0.0000 1769.9962 -7432.0790 300.6084 -9202.0752 -7432.0790 300.6084 -173.9346 -89.1833 30985.1640 -173.9346 -89.1833
ENERGY: 300000 1.8304 3.4078 0.1437 0.0000 -10649.6118 1376.0772 0.0000 0.0000 1766.7204 -7501.4324 300.0520 -9268.1528 -7481.1370 301.3166 -606.6369 -524.2072 30667.9583 -481.7153 -407.7180
ENERGY: 600000 2.8758 4.6296 1.1657 0.0000 -10746.0234 1437.7654 0.0000 0.0000 1750.7501 -7548.8367 297.3397 -9299.5868 -7471.5134 301.4436 -72.0097 -3.4605 30351.0899 -177.6636 -113.7949
ENERGY: 900000 4.6935 5.1210 0.4376 0.0000 -10657.6782 1378.4785 0.0000 0.0000 1775.1775 -7493.7700 301.4883 -9268.9476 -7478.0109 300.0579 -664.7462 -578.9226 30973.5590 -239.6561 -156.1238
ENERGY: 1200000 4.5710 8.3314 2.2775 0.0000 -10810.1122 1477.8217 0.0000 0.0000 1697.5653 -7619.5454 288.3070 -9317.1106 -7497.3134 299.4420 87.0978 110.8086 30631.1850 -178.0008 -103.1145
ENERGY: 1500000 3.6994 4.0566 2.0411 0.0000 -10827.9983 1465.7670 0.0000 0.0000 1733.8899 -7618.5443 294.4762 -9352.4342 -7505.8601 299.6129 -225.4028 -80.7899 30372.2728 -95.2054 -21.7954
TCL: Running FEP window   4: Lambda1 0.8499999999999999 Lambda2 0.7999999999999998 [dLambda -0.050000000000000044]
TCL: Setting parameter firsttimestep to 0
TCL: Setting parameter alchLambda to 0.8499999999999999
Info: NONBONDED TABLE R-SQUARED SPACING: 0.0625
Info: NONBONDED TABLE SIZE: 705 POINTS
TCL: Setting parameter alchLambda2 to 0.7999999999999998
Info: NONBONDED TABLE R-SQUARED SPACING: 0.0625
Info: NONBONDED TABLE SIZE: 705 POINTS
TCL: Running for 1500000 steps
ETITLE: TS BOND ANGLE DIHED IMPRP ELECT VDW BOUNDARY MISC KINETIC TOTAL TEMP POTENTIAL TOTALAVG TEMPAVG PRESSURE GPRESSURE VOLUME PRESSAVG GPRESSAVG
ENERGY: 0 3.6994 4.0566 2.0411 0.0000 -10827.7635 1466.2267 0.0000 0.0000 1733.0487 -7618.6910 294.3334 -9351.7397 -7618.6910 294.3334 -169.7654 -83.2039 30372.2728 -169.7654 -83.2039
ENERGY: 300000 2.2203 10.2379 0.2853 0.0000 -10721.0304 1483.0754 0.0000 0.0000 1724.2047 -7501.0068 292.8314 -9225.2115 -7510.6184 295.6875 269.5018 295.5056 30716.3134 73.5102 124.4439
ENERGY: 600000 5.8609 7.0180 0.4943 0.0000 -10801.3397 1450.5680 0.0000 0.0000 1800.4024 -7536.9961 305.7724 -9337.3985 -7511.9744 298.3150 -141.9523 -15.2269 30305.8347 -51.1548 16.0985
ENERGY: 900000 1.5888 9.3471 1.2292 0.0000 -10709.2639 1435.9632 0.0000 0.0000 1718.9032 -7542.2323 291.9310 -9261.1355 -7488.4697 299.7863 -151.3856 -145.9481 30726.9339 -29.0646 39.7025
ENERGY: 1200000 4.0007 5.5571 0.2839 0.0000 -10629.6458 1311.1602 0.0000 0.0000 1861.9194 -7446.7246 316.2202 -9308.6439 -7484.6895 300.7111 -1040.6660 -998.0859 30732.2405 -91.2234 -26.0566
ENERGY: 1500000 1.6417 6.7623 0.8881 0.0000 -10608.9422 1417.1613 0.0000 0.0000 1842.1473 -7340.3417 312.8622 -9182.4889 -7477.4105 302.2062 173.9737 258.5905 30368.9117 -90.3316 -22.0905
TCL: Running FEP window   5: Lambda1 0.7999999999999998 Lambda2 0.7499999999999998 [dLambda -0.050000000000000044]
TCL: Setting parameter firsttimestep to 0
TCL: Setting parameter alchLambda to 0.7999999999999998
Info: NONBONDED TABLE R-SQUARED SPACING: 0.0625
Info: NONBONDED TABLE SIZE: 705 POINTS
TCL: Setting parameter alchLambda2 to 0.7499999999999998
Info: NONBONDED TABLE R-SQUARED SPACING: 0.0625
Info: NONBONDED TABLE SIZE: 705 POINTS
TCL: Running for 1500000 steps
ETITLE: TS BOND ANGLE DIHED IMPRP ELECT VDW BOUNDARY MISC KINETIC TOTAL TEMP POTENTIAL TOTALAVG TEMPAVG PRESSURE GPRESSURE VOLUME PRESSAVG GPRESSAVG
ENERGY: 0 1.6417 6.7623 0.8881 0.0000 -10608.6698 1417.0414 0.0000 0.0000 1841.2617 -7341.0747 312.7118 -9182.3364 -7341.0747 312.7118 142.4966 248.1870 30368.9117 142.4966 248.1870
ENERGY: 300000 2.3101 3.7975 1.3392 0.0000 -10822.5936 1452.6664 0.0000 0.0000 1789.8016 -7572.6788 303.9720 -9362.4804 -7464.4164 306.5032 -178.1252 -86.6960 30336.4694 69.4656 136.0379
ENERGY: 600000 0.8012 5.3728 1.4536 0.0000 -10795.6878 1445.2705 0.0000 0.0000 1721.3418 -7621.4480 292.3451 -9342.7897 -7496.2751 303.0599 -163.0215 -73.0764 30253.8710 -0.0417 76.7081
ENERGY: 900000 3.9100 4.2817 0.9247 0.0000 -10913.7879 1585.3423 0.0000 0.0000 1815.6332 -7503.6960 308.3592 -9319.3292 -7499.4745 303.5619 1013.2731 1112.7774 30227.3034 63.6238 153.5506
ENERGY: 1200000 4.4617 4.8949 0.3188 0.0000 -10890.6405 1551.3696 0.0000 0.0000 1774.7366 -7554.8589 301.4135 -9329.5956 -7490.6360 303.5068 917.6513 926.3252 30106.9791 99.0297 182.0957
ENERGY: 1500000 4.3051 5.1696 0.4902 0.0000 -10564.5568 1354.9841 0.0000 0.0000 1753.9859 -7445.6219 297.8893 -9199.6078 -7481.6663 303.3139 -727.4169 -713.5439 30910.4770 -3.8323 72.5859
TCL: Running FEP window   6: Lambda1 0.7499999999999998 Lambda2 0.6999999999999997 [dLambda -0.050000000000000044]
TCL: Setting parameter firsttimestep to 0
TCL: Setting parameter alchLambda to 0.7499999999999998
Info: NONBONDED TABLE R-SQUARED SPACING: 0.0625
Info: NONBONDED TABLE SIZE: 705 POINTS
TCL: Setting parameter alchLambda2 to 0.6999999999999997
Info: NONBONDED TABLE R-SQUARED SPACING: 0.0625
Info: NONBONDED TABLE SIZE: 705 POINTS
TCL: Running for 1500000 steps
ETITLE: TS BOND ANGLE DIHED IMPRP ELECT VDW BOUNDARY MISC KINETIC TOTAL TEMP POTENTIAL TOTALAVG TEMPAVG PRESSURE GPRESSURE VOLUME PRESSAVG GPRESSAVG
ENERGY: 0 4.3051 5.1696 0.4902 0.0000 -10564.3834 1355.2328 0.0000 0.0000 1753.1241 -7446.0616 297.7429 -9199.1858 -7446.0616 297.7429 -800.9542 -719.2421 30910.4770 -800.9542 -719.2421
ENERGY: 300000 2.7150 8.2608 0.2789 0.0000 -10714.4458 1468.1428 0.0000 0.0000 1798.1031 -7436.9452 305.3819 -9235.0483 -7462.0591 298.9744 252.9740 342.1262 30258.9760 -319.2828 -253.9162
ENERGY: 600000 2.7792 2.4874 0.3922 0.0000 -10849.3596 1496.4469 0.0000 0.0000 1802.7282 -7544.5257 306.1674 -9347.2539 -7470.9721 301.1779 197.8102 270.5301 30300.6505 -192.7083 -126.2855
ENERGY: 900000 3.1426 9.6867 0.5073 0.0000 -10581.9539 1367.0168 0.0000 0.0000 1795.8919 -7405.7086 305.0064 -9201.6005 -7464.0724 302.4846 -414.6879 -376.3398 30781.2746 -119.3482 -53.7972
ENERGY: 1200000 3.4846 4.5879 0.9357 0.0000 -10617.3572 1388.5483 0.0000 0.0000 1780.9930 -7438.8077 302.4760 -9219.8007 -7463.8916 302.8896 -250.3138 -99.9725 30455.2817 -186.9013 -113.4941
ENERGY: 1500000 4.3466 5.5761 2.6771 0.0000 -10821.2625 1443.0686 0.0000 0.0000 1789.3577 -7576.2364 303.8966 -9365.5940 -7478.0041 302.4643 248.7116 262.6630 29734.5535 -113.8335 -47.7530
TCL: Running FEP window   7: Lambda1 0.6999999999999997 Lambda2 0.6499999999999997 [dLambda -0.050000000000000044]
TCL: Setting parameter firsttimestep to 0
TCL: Setting parameter alchLambda to 0.6999999999999997
Info: NONBONDED TABLE R-SQUARED SPACING: 0.0625
Info: NONBONDED TABLE SIZE: 705 POINTS
TCL: Setting parameter alchLambda2 to 0.6499999999999997
Info: NONBONDED TABLE R-SQUARED SPACING: 0.0625
Info: NONBONDED TABLE SIZE: 705 POINTS
TCL: Running for 1500000 steps
ETITLE: TS BOND ANGLE DIHED IMPRP ELECT VDW BOUNDARY MISC KINETIC TOTAL TEMP POTENTIAL TOTALAVG TEMPAVG PRESSURE GPRESSURE VOLUME PRESSAVG GPRESSAVG
ENERGY: 0 4.3466 5.5761 2.6771 0.0000 -10820.9771 1443.4520 0.0000 0.0000 1788.5049 -7576.4204 303.7518 -9364.9253 -7576.4204 303.7518 175.7620 258.1082 29734.5535 175.7620 258.1082
ENERGY: 300000 1.4736 3.5046 1.2492 0.0000 -10757.8951 1442.5187 0.0000 0.0000 1765.0870 -7544.0620 299.7746 -9309.1490 -7541.9645 299.7208 39.0515 81.4347 30336.8651 81.1117 155.3721
ENERGY: 600000 2.9875 5.3876 0.5179 0.0000 -10705.8433 1513.7592 0.0000 0.0000 1750.3494 -7432.8416 297.2716 -9183.1910 -7508.2642 299.2187 739.0510 763.9327 30475.9503 85.2766 162.2040
ENERGY: 900000 1.6666 6.0306 0.4147 0.0000 -10757.6139 1439.5848 0.0000 0.0000 1736.3121 -7573.6051 294.8876 -9309.9171 -7507.6863 299.0131 -258.2913 -138.8330 30523.2454 -70.0977 19.5170
ENERGY: 1200000 1.8502 3.0334 2.1486 0.0000 -10646.9022 1393.9172 0.0000 0.0000 1803.7121 -7442.2407 306.3345 -9245.9528 -7508.6267 299.7144 -219.3079 -115.0106 30357.8456 18.7496 109.4810
ENERGY: 1500000 5.5615 3.4206 0.3631 0.0000 -10609.7408 1417.2552 0.0000 0.0000 1771.0684 -7412.0720 300.7905 -9183.1404 -7494.9315 300.2767 -326.3442 -249.6348 31214.3484 -48.1117 33.1535
TCL: Running FEP window   8: Lambda1 0.6499999999999997 Lambda2 0.5999999999999996 [dLambda -0.050000000000000044]
TCL: Setting parameter firsttimestep to 0
TCL: Setting parameter alchLambda to 0.6499999999999997
Info: NONBONDED TABLE R-SQUARED SPACING: 0.0625
Info: NONBONDED TABLE SIZE: 705 POINTS
TCL: Setting parameter alchLambda2 to 0.5999999999999996
Info: NONBONDED TABLE R-SQUARED SPACING: 0.0625
Info: NONBONDED TABLE SIZE: 705 POINTS
TCL: Running for 1500000 steps
ETITLE: TS BOND ANGLE DIHED IMPRP ELECT VDW BOUNDARY MISC KINETIC TOTAL TEMP POTENTIAL TOTALAVG TEMPAVG PRESSURE GPRESSURE VOLUME PRESSAVG GPRESSAVG
ENERGY: 0 5.5615 3.4206 0.3631 0.0000 -10609.7745 1417.3696 0.0000 0.0000 1770.1755 -7412.8841 300.6388 -9183.0596 -7412.8841 300.6388 -328.0583 -252.7515 31214.3484 -328.0583 -252.7515
ENERGY: 300000 2.6113 2.9095 2.0321 0.0000 -10852.6387 1544.3357 0.0000 0.0000 1790.5406 -7510.2095 304.0975 -9300.7501 -7474.9623 302.4163 692.0237 736.5813 30468.1510 -155.9210 -68.3451
ENERGY: 600000 2.9533 3.1071 1.1689 0.0000 -10807.8951 1372.6131 0.0000 0.0000 1781.9509 -7646.1016 302.6387 -9428.0525 -7531.0988 299.1449 -811.0148 -789.1758 30224.2809 -317.7384 -243.9786
ENERGY: 900000 2.0453 4.3302 0.1695 0.0000 -10742.8374 1461.2604 0.0000 0.0000 1727.0894 -7547.9427 293.3213 -9275.0321 -7513.0015 299.3953 97.6932 87.7834 30598.3709 -372.1102 -311.9710
ENERGY: 1200000 1.9399 3.3031 2.0850 0.0000 -10532.4916 1315.5897 0.0000 0.0000 1745.5729 -7464.0011 296.4604 -9209.5739 -7510.0692 299.0001 -1019.8917 -852.9376 30181.7975 -444.1414 -373.8615
ENERGY: 1500000 1.7480 2.6241 0.2438 0.0000 -10795.0895 1483.4931 0.0000 0.0000 1777.4407 -7529.5398 301.8727 -9306.9805 -7513.1144 299.7421 181.8536 304.7086 30271.2229 -359.8805 -283.1138
TCL: Running FEP window   9: Lambda1 0.5999999999999996 Lambda2 0.5499999999999996 [dLambda -0.050000000000000044]
TCL: Setting parameter firsttimestep to 0
TCL: Setting parameter alchLambda to 0.5999999999999996
Info: NONBONDED TABLE R-SQUARED SPACING: 0.0625
Info: NONBONDED TABLE SIZE: 705 POINTS
TCL: Setting parameter alchLambda2 to 0.5499999999999996
Info: NONBONDED TABLE R-SQUARED SPACING: 0.0625
Info: NONBONDED TABLE SIZE: 705 POINTS
TCL: Running for 1500000 steps
ETITLE: TS BOND ANGLE DIHED IMPRP ELECT VDW BOUNDARY MISC KINETIC TOTAL TEMP POTENTIAL TOTALAVG TEMPAVG PRESSURE GPRESSURE VOLUME PRESSAVG GPRESSAVG
ENERGY: 0 1.7480 2.6241 0.2438 0.0000 -10794.5052 1483.1890 0.0000 0.0000 1776.5497 -7530.1506 301.7214 -9306.7003 -7530.1506 301.7214 193.4615 293.5364 30271.2229 193.4615 293.5364
ENERGY: 300000 2.9878 3.1342 2.3929 0.0000 -10838.5943 1497.9628 0.0000 0.0000 1750.8024 -7581.3142 297.3486 -9332.1166 -7521.6855 301.4000 337.2029 479.5084 30093.4900 18.7992 125.3063
ENERGY: 600000 3.6911 5.2134 0.1172 0.0000 -10711.2228 1400.7867 0.0000 0.0000 1796.7577 -7504.6568 305.1534 -9301.4145 -7527.9757 301.2941 -524.4678 -447.3218 30371.6072 -51.2387 27.6607
ENERGY: 900000 1.9524 4.4833 0.6477 0.0000 -10784.2961 1524.3540 0.0000 0.0000 1757.9375 -7494.9212 298.5604 -9252.8587 -7502.7235 302.4956 553.8560 623.3375 30625.6186 166.9709 242.8703
ENERGY: 1200000 3.0576 5.9216 0.3537 0.0000 -10702.6617 1402.6998 0.0000 0.0000 1762.7251 -7527.9039 299.3735 -9290.6290 -7501.1490 301.3127 -510.8798 -441.1604 30656.8231 86.5168 161.7203
ENERGY: 1500000 3.1760 4.5049 0.5594 0.0000 -10754.5275 1431.4291 0.0000 0.0000 1792.4261 -7522.4319 304.4178 -9314.8581 -7502.7364 300.7759 -601.8951 -481.9654 30791.2714 -11.8995 62.0939
TCL: Running FEP window  10: Lambda1 0.5499999999999996 Lambda2 0.4999999999999996 [dLambda -0.04999999999999999]
TCL: Setting parameter firsttimestep to 0
TCL: Setting parameter alchLambda to 0.5499999999999996
Info: NONBONDED TABLE R-SQUARED SPACING: 0.0625
Info: NONBONDED TABLE SIZE: 705 POINTS
TCL: Setting parameter alchLambda2 to 0.4999999999999996
Info: NONBONDED TABLE R-SQUARED SPACING: 0.0625
Info: NONBONDED TABLE SIZE: 705 POINTS
TCL: Running for 1500000 steps
ETITLE: TS BOND ANGLE DIHED IMPRP ELECT VDW BOUNDARY MISC KINETIC TOTAL TEMP POTENTIAL TOTALAVG TEMPAVG PRESSURE GPRESSURE VOLUME PRESSAVG GPRESSAVG
ENERGY: 0 3.1760 4.5049 0.5594 0.0000 -10755.1989 1431.7170 0.0000 0.0000 1791.6042 -7523.6373 304.2782 -9315.2415 -7523.6373 304.2782 -567.9055 -485.4418 30791.2714 -567.9055 -485.4418
ENERGY: 300000 0.6280 3.0751 2.9111 0.0000 -10669.6681 1426.6042 0.0000 0.0000 1811.4414 -7425.0082 307.6472 -9236.4497 -7466.6022 303.7908 -160.1635 -94.6170 30728.3100 -86.2777 -17.6254
ENERGY: 600000 2.3098 4.9004 0.5355 0.0000 -10809.0256 1502.2887 0.0000 0.0000 1694.2011 -7604.7901 287.7357 -9298.9912 -7479.0650 302.9138 140.7928 179.9361 30557.5637 -164.3340 -111.3512
ENERGY: 900000 3.1544 3.6746 0.9210 0.0000 -10671.5631 1426.2671 0.0000 0.0000 1758.3084 -7479.2376 298.6234 -9237.5460 -7470.7934 302.5817 -382.8822 -426.6303 31008.7538 -74.9596 -28.1880
ENERGY: 1200000 2.5806 4.2918 2.5385 0.0000 -10674.3462 1408.7487 0.0000 0.0000 1775.7293 -7480.4574 301.5821 -9256.1867 -7476.4699 302.5956 -172.0521 -138.7422 30513.8098 -85.4523 -40.6982
ENERGY: 1500000 3.4974 3.7750 1.0495 0.0000 -10698.6750 1434.0783 0.0000 0.0000 1741.5431 -7514.7317 295.7760 -9256.2748 -7479.3692 302.3761 -79.9163 -121.0610 30535.1547 -200.7874 -162.2950
TCL: Running FEP window  11: Lambda1 0.4999999999999996 Lambda2 0.4499999999999996 [dLambda -0.04999999999999999]
TCL: Setting parameter firsttimestep to 0
TCL: Setting parameter alchLambda to 0.4999999999999996
Info: NONBONDED TABLE R-SQUARED SPACING: 0.0625
Info: NONBONDED TABLE SIZE: 705 POINTS
TCL: Setting parameter alchLambda2 to 0.4499999999999996
Info: NONBONDED TABLE R-SQUARED SPACING: 0.0625
Info: NONBONDED TABLE SIZE: 705 POINTS
TCL: Running for 1500000 steps
ETITLE: TS BOND ANGLE DIHED IMPRP ELECT VDW BOUNDARY MISC KINETIC TOTAL TEMP POTENTIAL TOTALAVG TEMPAVG PRESSURE GPRESSURE VOLUME PRESSAVG GPRESSAVG
ENERGY: 0 3.4975 3.7750 1.0495 0.0000 -10698.4565 1434.1573 0.0000 0.0000 1740.6543 -7515.3230 295.6251 -9255.9773 -7515.3230 295.6251 -206.8321 -125.4114 30535.1547 -206.8321 -125.4114
ENERGY: 300000 6.5090 6.0929 0.3450 0.0000 -10790.7864 1439.7288 0.0000 0.0000 1764.6746 -7573.4361 299.7046 -9338.1107 -7518.8224 302.2583 22.2131 51.9587 30035.3931 97.8967 154.0187
ENERGY: 600000 1.9274 3.2816 0.2955 0.0000 -10862.8190 1544.8593 0.0000 0.0000 1770.0801 -7542.3751 300.6226 -9312.4552 -7530.1212 299.8200 785.8121 808.8170 30284.7103 263.6315 320.2288
ENERGY: 900000 5.5830 4.7668 1.3085 0.0000 -10794.2237 1536.3660 0.0000 0.0000 1739.1030 -7507.0964 295.3616 -9246.1994 -7528.8368 299.1669 565.1131 657.9031 30838.4622 259.2402 308.8969
ENERGY: 1200000 2.1452 4.6270 2.7938 0.0000 -10912.1464 1538.6750 0.0000 0.0000 1766.9837 -7596.9216 300.0967 -9363.9053 -7517.1472 300.3655 545.8452 544.4863 30221.9439 244.6307 295.7856
ENERGY: 1500000 3.7697 4.3013 1.7287 0.0000 -10833.4111 1525.9643 0.0000 0.0000 1810.5570 -7487.0902 307.4970 -9297.6471 -7511.4086 300.4072 426.4284 472.9315 30363.0315 197.9187 255.3765
TCL: Running FEP window  12: Lambda1 0.4499999999999996 Lambda2 0.39999999999999963 [dLambda -0.04999999999999999]
TCL: Setting parameter firsttimestep to 0
TCL: Setting parameter alchLambda to 0.4499999999999996
Info: NONBONDED TABLE R-SQUARED SPACING: 0.0625
Info: NONBONDED TABLE SIZE: 705 POINTS
TCL: Setting parameter alchLambda2 to 0.39999999999999963
Info: NONBONDED TABLE R-SQUARED SPACING: 0.0625
Info: NONBONDED TABLE SIZE: 705 POINTS
TCL: Running for 1500000 steps
ETITLE: TS BOND ANGLE DIHED IMPRP ELECT VDW BOUNDARY MISC KINETIC TOTAL TEMP POTENTIAL TOTALAVG TEMPAVG PRESSURE GPRESSURE VOLUME PRESSAVG GPRESSAVG
ENERGY: 0 3.7697 4.3013 1.7287 0.0000 -10833.4113 1526.1222 0.0000 0.0000 1809.6802 -7487.8093 307.3481 -9297.4894 -7487.8093 307.3481 385.7233 469.2378 30363.0315 385.7233 469.2378
ENERGY: 300000 0.9051 4.0279 0.9014 0.0000 -10701.4862 1444.4267 0.0000 0.0000 1747.8716 -7503.3535 296.8508 -9251.2251 -7513.7630 297.1933 -158.5584 -75.9263 30648.7222 -101.2606 -23.9260
ENERGY: 600000 2.2915 9.3548 0.6360 0.0000 -10641.3351 1346.1454 0.0000 0.0000 1756.0132 -7526.8942 298.2336 -9282.9074 -7477.9561 299.2918 -1073.0508 -961.5196 30717.3719 -342.8677 -252.3881
ENERGY: 900000 4.1974 3.8400 0.7741 0.0000 -10595.0886 1336.4154 0.0000 0.0000 1760.2361 -7489.6256 298.9508 -9249.8617 -7497.3154 297.9904 -736.7227 -621.9191 30200.7255 -315.0466 -226.5311
ENERGY: 1200000 3.7525 5.7187 0.8085 0.0000 -10516.3485 1345.7695 0.0000 0.0000 1778.9814 -7381.3179 302.1344 -9160.2993 -7483.9944 298.7535 -412.2124 -344.3319 30510.9019 -313.0189 -231.5949
ENERGY: 1500000 2.8858 3.3203 1.1000 0.0000 -10622.8675 1354.4533 0.0000 0.0000 1729.6615 -7531.4467 293.7581 -9261.1082 -7493.4553 298.1205 -1132.7900 -1010.4439 31098.3972 -370.4831 -282.2564
TCL: Running FEP window  13: Lambda1 0.39999999999999963 Lambda2 0.34999999999999964 [dLambda -0.04999999999999999]
TCL: Setting parameter firsttimestep to 0
TCL: Setting parameter alchLambda to 0.39999999999999963
Info: NONBONDED TABLE R-SQUARED SPACING: 0.0625
Info: NONBONDED TABLE SIZE: 705 POINTS
TCL: Setting parameter alchLambda2 to 0.34999999999999964
Info: NONBONDED TABLE R-SQUARED SPACING: 0.0625
Info: NONBONDED TABLE SIZE: 705 POINTS
TCL: Running for 1500000 steps
ETITLE: TS BOND ANGLE DIHED IMPRP ELECT VDW BOUNDARY MISC KINETIC TOTAL TEMP POTENTIAL TOTALAVG TEMPAVG PRESSURE GPRESSURE VOLUME PRESSAVG GPRESSAVG
ENERGY: 0 2.8858 3.3203 1.1000 0.0000 -10622.8668 1354.4749 0.0000 0.0000 1728.7843 -7532.3015 293.6091 -9261.0858 -7532.3015 293.6091 -1087.3848 -1013.2476 31098.3972 -1087.3848 -1013.2476
ENERGY: 300000 4.2621 3.2521 0.6157 0.0000 -10713.7015 1442.5586 0.0000 0.0000 1742.3518 -7520.6613 295.9134 -9263.0131 -7464.8632 300.0201 -189.5779 -96.0234 30617.2017 -182.6254 -105.3340
ENERGY: 600000 2.7053 5.5090 2.1445 0.0000 -10565.8730 1401.5412 0.0000 0.0000 1753.2812 -7400.6918 297.7696 -9153.9730 -7463.0127 299.1472 109.9452 104.8269 30582.8970 -36.7609 24.9933
ENERGY: 900000 1.7150 9.7688 1.0381 0.0000 -10790.0836 1542.5239 0.0000 0.0000 1771.9348 -7463.1030 300.9376 -9235.0378 -7471.0973 299.1092 925.0418 935.4219 30195.3706 -89.4482 -25.7356
ENERGY: 1200000 4.9368 4.3669 1.3834 0.0000 -10732.4803 1444.1254 0.0000 0.0000 1756.6204 -7521.0473 298.3367 -9277.6677 -7465.9582 300.0881 261.7723 300.4085 30099.9135 -82.0725 -27.0913
ENERGY: 1500000 1.4159 5.0083 2.5271 0.0000 -10618.3434 1399.9535 0.0000 0.0000 1773.8844 -7435.5543 301.2687 -9209.4387 -7464.5066 300.5573 -116.2803 -51.1453 30256.5557 -80.8252 -18.4858
TCL: Running FEP window  14: Lambda1 0.34999999999999964 Lambda2 0.29999999999999966 [dLambda -0.04999999999999999]
TCL: Setting parameter firsttimestep to 0
TCL: Setting parameter alchLambda to 0.34999999999999964
Info: NONBONDED TABLE R-SQUARED SPACING: 0.0625
Info: NONBONDED TABLE SIZE: 705 POINTS
TCL: Setting parameter alchLambda2 to 0.29999999999999966
Info: NONBONDED TABLE R-SQUARED SPACING: 0.0625
Info: NONBONDED TABLE SIZE: 705 POINTS
TCL: Running for 1500000 steps
ETITLE: TS BOND ANGLE DIHED IMPRP ELECT VDW BOUNDARY MISC KINETIC TOTAL TEMP POTENTIAL TOTALAVG TEMPAVG PRESSURE GPRESSURE VOLUME PRESSAVG GPRESSAVG
ENERGY: 0 1.4159 5.0083 2.5271 0.0000 -10618.3441 1400.1988 0.0000 0.0000 1773.0425 -7436.1515 301.1257 -9209.1940 -7436.1515 301.1257 -131.8886 -53.0315 30256.5557 -131.8886 -53.0315
ENERGY: 300000 4.5030 5.4897 1.1315 0.0000 -10813.0645 1545.2481 0.0000 0.0000 1751.7792 -7504.9129 297.5145 -9256.6921 -7497.6631 297.4679 599.9887 706.6381 30379.2205 -36.1964 39.5016
ENERGY: 600000 2.2262 6.1047 0.9690 0.0000 -10834.0285 1537.6731 0.0000 0.0000 1702.3156 -7584.7400 289.1138 -9287.0555 -7496.7311 298.3169 692.4282 708.9013 30351.4811 -46.5775 17.0193
ENERGY: 900000 2.1837 3.9043 0.6967 0.0000 -10748.1423 1471.1275 0.0000 0.0000 1714.0419 -7556.1883 291.1053 -9270.2302 -7501.0175 298.8116 126.6830 198.1564 30253.8761 -45.7623 9.9502
ENERGY: 1200000 2.4632 6.5500 0.5297 0.0000 -10603.7965 1357.3109 0.0000 0.0000 1759.7313 -7477.2114 298.8650 -9236.9427 -7486.2677 299.2956 -812.2905 -709.6210 30669.7007 -128.3096 -69.6917
ENERGY: 1500000 3.8916 5.8395 0.7690 0.0000 -10661.9571 1506.5758 0.0000 0.0000 1775.7094 -7369.1718 301.5787 -9144.8812 -7472.8584 300.0784 1029.4977 1064.3801 29876.4278 -87.6352 -28.6360
TCL: Running FEP window  15: Lambda1 0.29999999999999966 Lambda2 0.24999999999999967 [dLambda -0.04999999999999999]
TCL: Setting parameter firsttimestep to 0
TCL: Setting parameter alchLambda to 0.29999999999999966
Info: NONBONDED TABLE R-SQUARED SPACING: 0.0625
Info: NONBONDED TABLE SIZE: 705 POINTS
TCL: Setting parameter alchLambda2 to 0.24999999999999967
Info: NONBONDED TABLE R-SQUARED SPACING: 0.0625
Info: NONBONDED TABLE SIZE: 705 POINTS
TCL: Running for 1500000 steps
ETITLE: TS BOND ANGLE DIHED IMPRP ELECT VDW BOUNDARY MISC KINETIC TOTAL TEMP POTENTIAL TOTALAVG TEMPAVG PRESSURE GPRESSURE VOLUME PRESSAVG GPRESSAVG
ENERGY: 0 3.8916 5.8395 0.7690 0.0000 -10661.9579 1506.7037 0.0000 0.0000 1774.8399 -7369.9142 301.4310 -9144.7542 -7369.9142 301.4310 961.0177 1058.7367 29876.4278 961.0177 1058.7367
ENERGY: 300000 8.8558 3.5342 0.2430 0.0000 -10764.6476 1469.2733 0.0000 0.0000 1742.8066 -7539.9346 295.9906 -9282.7412 -7467.1501 297.8836 264.9102 287.3133 29998.0786 472.7389 538.9349
ENERGY: 600000 2.1253 7.4802 1.3274 0.0000 -10517.2185 1258.7222 0.0000 0.0000 1795.7756 -7451.7878 304.9866 -9247.5634 -7486.6705 299.1081 -1597.9723 -1487.9562 30784.9909 83.2798 144.5137
ENERGY: 900000 3.6301 5.2711 0.3329 0.0000 -10835.5713 1539.0145 0.0000 0.0000 1749.2496 -7538.0732 297.0849 -9287.3227 -7483.8267 300.0615 466.3117 531.0218 30516.0174 132.2714 196.0945
ENERGY: 1200000 1.3191 4.4988 0.6101 0.0000 -10625.8578 1411.4566 0.0000 0.0000 1833.2578 -7374.7154 311.3524 -9207.9732 -7480.3464 300.6506 -51.2832 -34.2697 30432.4358 106.2487 168.5721
ENERGY: 1500000 2.0927 8.5740 0.5782 0.0000 -10646.6633 1349.0101 0.0000 0.0000 1768.6392 -7517.7691 300.3779 -9286.4083 -7484.7849 300.2054 -885.2896 -853.9778 30569.7824 -31.6581 25.7560
TCL: Running FEP window  16: Lambda1 0.24999999999999967 Lambda2 0.19999999999999968 [dLambda -0.04999999999999999]
TCL: Setting parameter firsttimestep to 0
TCL: Setting parameter alchLambda to 0.24999999999999967
Info: NONBONDED TABLE R-SQUARED SPACING: 0.0625
Info: NONBONDED TABLE SIZE: 705 POINTS
TCL: Setting parameter alchLambda2 to 0.19999999999999968
Info: NONBONDED TABLE R-SQUARED SPACING: 0.0625
Info: NONBONDED TABLE SIZE: 705 POINTS
TCL: Running for 1500000 steps
ETITLE: TS BOND ANGLE DIHED IMPRP ELECT VDW BOUNDARY MISC KINETIC TOTAL TEMP POTENTIAL TOTALAVG TEMPAVG PRESSURE GPRESSURE VOLUME PRESSAVG GPRESSAVG
ENERGY: 0 2.0927 8.5740 0.5782 0.0000 -10646.6631 1348.9438 0.0000 0.0000 1767.7535 -7518.7209 300.2275 -9286.4744 -7518.7209 300.2275 -937.9005 -858.8292 30569.7824 -937.9005 -858.8292
ENERGY: 300000 1.7375 6.1823 0.1186 0.0000 -10629.8553 1345.1744 0.0000 0.0000 1797.1724 -7479.4702 305.2239 -9276.6426 -7490.5073 301.0442 -723.3482 -659.6370 30174.8344 -648.2858 -569.6153
ENERGY: 600000 4.4459 6.2675 0.2256 0.0000 -10673.6590 1416.7514 0.0000 0.0000 1728.5750 -7517.3935 293.5736 -9245.9685 -7481.0323 300.6310 -340.0000 -280.7339 30485.0281 -386.3597 -309.6080
ENERGY: 900000 3.6136 4.6614 0.5019 0.0000 -10743.6580 1446.2463 0.0000 0.0000 1771.0716 -7517.5631 300.7910 -9288.6347 -7488.6592 300.7184 -27.2120 34.5278 30270.1134 -250.6701 -178.7546
ENERGY: 1200000 1.0000 6.1356 2.3472 0.0000 -10584.4231 1332.7365 0.0000 0.0000 1779.6585 -7462.5454 302.2494 -9242.2039 -7485.2693 301.0959 -772.6932 -635.9144 30103.6340 -278.9645 -205.8433
ENERGY: 1500000 2.3791 4.8281 0.4072 0.0000 -10653.9400 1372.3893 0.0000 0.0000 1772.2458 -7501.6904 300.9904 -9273.9362 -7494.2441 300.0103 -415.0124 -373.6675 30057.7558 -239.4860 -167.6689
TCL: Running FEP window  17: Lambda1 0.19999999999999968 Lambda2 0.1499999999999997 [dLambda -0.04999999999999999]
TCL: Setting parameter firsttimestep to 0
TCL: Setting parameter alchLambda to 0.19999999999999968
Info: NONBONDED TABLE R-SQUARED SPACING: 0.0625
Info: NONBONDED TABLE SIZE: 705 POINTS
TCL: Setting parameter alchLambda2 to 0.1499999999999997
Info: NONBONDED TABLE R-SQUARED SPACING: 0.0625
Info: NONBONDED TABLE SIZE: 705 POINTS
TCL: Running for 1500000 steps
ETITLE: TS BOND ANGLE DIHED IMPRP ELECT VDW BOUNDARY MISC KINETIC TOTAL TEMP POTENTIAL TOTALAVG TEMPAVG PRESSURE GPRESSURE VOLUME PRESSAVG GPRESSAVG
ENERGY: 0 2.3791 4.8281 0.4072 0.0000 -10653.9398 1372.0448 0.0000 0.0000 1771.3902 -7502.8903 300.8451 -9274.2806 -7502.8903 300.8451 -463.0578 -378.9884 30057.7558 -463.0578 -378.9884
ENERGY: 300000 4.9999 3.9203 1.0964 0.0000 -10763.8905 1450.4186 0.0000 0.0000 1773.8179 -7529.6373 301.2574 -9303.4553 -7488.0849 300.7892 -16.5855 27.2991 30251.7617 -114.7785 -45.8394
ENERGY: 600000 4.2116 4.8072 0.2527 0.0000 -10714.2236 1418.9286 0.0000 0.0000 1755.8366 -7530.1869 298.2036 -9286.0235 -7486.9744 301.0989 -234.1213 -133.2508 30272.8730 -57.0771 22.2799
ENERGY: 900000 1.1818 5.6824 0.3966 0.0000 -10887.0437 1502.1288 0.0000 0.0000 1817.6229 -7560.0312 308.6971 -9377.6542 -7493.5792 301.2115 248.8620 387.4073 29830.7731 -60.8021 26.7482
ENERGY: 1200000 0.8679 5.8856 0.4768 0.0000 -10478.2808 1296.0971 0.0000 0.0000 1779.6081 -7395.3455 302.2408 -9174.9536 -7481.4406 300.6097 -1111.7256 -1056.9612 30884.4218 -170.2590 -82.1465
ENERGY: 1500000 3.7395 6.5064 0.3153 0.0000 -10590.3460 1412.7073 0.0000 0.0000 1752.4379 -7414.6396 297.6263 -9167.0775 -7480.1694 300.2004 107.8745 174.9122 30075.9079 -107.7807 -18.1169
TCL: Running FEP window  18: Lambda1 0.1499999999999997 Lambda2 0.09999999999999969 [dLambda -0.05 ]
TCL: Setting parameter firsttimestep to 0
TCL: Setting parameter alchLambda to 0.1499999999999997
Info: NONBONDED TABLE R-SQUARED SPACING: 0.0625
Info: NONBONDED TABLE SIZE: 705 POINTS
TCL: Setting parameter alchLambda2 to 0.09999999999999969
Info: NONBONDED TABLE R-SQUARED SPACING: 0.0625
Info: NONBONDED TABLE SIZE: 705 POINTS
TCL: Running for 1500000 steps
ETITLE: TS BOND ANGLE DIHED IMPRP ELECT VDW BOUNDARY MISC KINETIC TOTAL TEMP POTENTIAL TOTALAVG TEMPAVG PRESSURE GPRESSURE VOLUME PRESSAVG GPRESSAVG
ENERGY: 0 3.7394 6.5064 0.3153 0.0000 -10590.3469 1413.0109 0.0000 0.0000 1751.5403 -7415.2345 297.4739 -9166.7748 -7415.2345 297.4739 83.7097 173.1656 30075.9079 83.7097 173.1656
ENERGY: 300000 2.7404 5.9561 0.5417 0.0000 -10701.1010 1446.8686 0.0000 0.0000 1788.8191 -7456.1750 303.8052 -9244.9941 -7434.9532 302.4185 481.6091 494.8198 29767.4292 124.2763 184.5656
ENERGY: 600000 5.6336 6.5009 0.4188 0.0000 -10840.7313 1495.1152 0.0000 0.0000 1718.2864 -7614.7763 291.8262 -9333.0627 -7462.8930 301.7947 -87.7219 -50.2416 30659.0137 120.7168 185.1627
ENERGY: 900000 2.7071 5.0577 0.9049 0.0000 -10721.8215 1479.1973 0.0000 0.0000 1782.8706 -7451.0839 302.7949 -9233.9545 -7464.6539 301.7963 376.1488 498.2251 30246.5612 190.9189 263.1277
ENERGY: 1200000 1.0497 5.6687 0.1516 0.0000 -10811.6620 1480.2370 0.0000 0.0000 1791.2395 -7533.3155 304.2162 -9324.5550 -7478.0791 302.2534 214.8820 217.9650 30246.3033 242.5814 297.3673
ENERGY: 1500000 1.3692 5.1592 1.2614 0.0000 -10789.8497 1540.2594 0.0000 0.0000 1708.3539 -7533.4466 290.1393 -9241.8005 -7485.0263 300.9744 492.7911 527.8063 30898.5308 213.3378 267.3128
TCL: Running FEP window  19: Lambda1 0.09999999999999969 Lambda2 0.049999999999999684 [dLambda -0.05 ]
TCL: Setting parameter firsttimestep to 0
TCL: Setting parameter alchLambda to 0.09999999999999969
Info: NONBONDED TABLE R-SQUARED SPACING: 0.0625
Info: NONBONDED TABLE SIZE: 705 POINTS
TCL: Setting parameter alchLambda2 to 0.049999999999999684
Info: NONBONDED TABLE R-SQUARED SPACING: 0.0625
Info: NONBONDED TABLE SIZE: 705 POINTS
TCL: Running for 1500000 steps
ETITLE: TS BOND ANGLE DIHED IMPRP ELECT VDW BOUNDARY MISC KINETIC TOTAL TEMP POTENTIAL TOTALAVG TEMPAVG PRESSURE GPRESSURE VOLUME PRESSAVG GPRESSAVG
ENERGY: 0 1.3692 5.1592 1.2614 0.0000 -10789.8484 1540.1613 0.0000 0.0000 1707.5034 -7534.3939 289.9949 -9241.8973 -7534.3939 289.9949 446.3834 524.0632 30898.5308 446.3834 524.0632
ENERGY: 300000 3.1242 6.1877 0.4751 0.0000 -10708.0662 1493.5497 0.0000 0.0000 1770.8549 -7433.8746 300.7542 -9204.7295 -7482.6566 295.4476 360.8292 416.8706 30853.1442 16.4222 84.1685
ENERGY: 600000 2.2839 4.6523 0.2223 0.0000 -10659.8439 1445.3651 0.0000 0.0000 1764.5638 -7442.7565 299.6858 -9207.3203 -7485.2820 297.7165 473.1871 488.3972 29825.1507 -10.5070 32.7958
ENERGY: 900000 3.4076 8.9378 0.6673 0.0000 -10764.7399 1458.6509 0.0000 0.0000 1803.8316 -7489.2447 306.3548 -9293.0764 -7484.1312 299.8482 -190.2909 -154.7551 30379.2443 14.6306 59.8596
ENERGY: 1200000 2.3737 5.7964 0.5991 0.0000 -10651.1988 1421.3985 0.0000 0.0000 1733.0322 -7487.9989 294.3306 -9221.0311 -7488.1432 299.6049 -167.2867 -101.4784 30338.6382 42.7694 94.5915
ENERGY: 1500000 1.4207 2.9980 0.6053 0.0000 -10686.2907 1453.1541 0.0000 0.0000 1778.4298 -7449.6827 302.0407 -9228.1125 -7487.6681 299.5086 -14.9765 45.8981 30717.6779 60.3292 121.3304
TCL: Running FEP window  20: Lambda1 0.049999999999999684 Lambda2 0.0    [dLambda -0.049999999999999684]
TCL: Setting parameter firsttimestep to 0
TCL: Setting parameter alchLambda to 0.049999999999999684
Info: NONBONDED TABLE R-SQUARED SPACING: 0.0625
Info: NONBONDED TABLE SIZE: 705 POINTS
TCL: Setting parameter alchLambda2 to 0.0
Info: NONBONDED TABLE R-SQUARED SPACING: 0.0625
Info: NONBONDED TABLE SIZE: 705 POINTS
TCL: Running for 1500000 steps
ETITLE: TS BOND ANGLE DIHED IMPRP ELECT VDW BOUNDARY MISC KINETIC TOTAL TEMP POTENTIAL TOTALAVG TEMPAVG PRESSURE GPRESSURE VOLUME PRESSAVG GPRESSAVG
ENERGY: 0 1.4207 2.9980 0.6053 0.0000 -10686.2901 1451.1359 0.0000 0.0000 1777.5657 -7452.5645 301.8939 -9230.1302 -7452.5645 301.8939 -34.8946 42.1270 30717.6779 -34.8946 42.1270
ENERGY: 300000 2.3312 8.1251 0.2935 0.0000 -10695.5692 1371.0650 0.0000 0.0000 1780.2884 -7533.4660 302.3564 -9313.7544 -7461.7201 301.9770 -746.3502 -623.5279 30299.3493 -289.6059 -207.5329
ENERGY: 600000 1.8997 8.0935 0.6230 0.0000 -10775.7572 1467.1570 0.0000 0.0000 1763.0394 -7534.9446 299.4269 -9297.9840 -7466.4002 301.7515 -48.0459 34.0756 30361.8829 -68.6904 0.7049
ENERGY: 900000 3.9184 4.7404 0.3598 0.0000 -10629.3081 1375.4062 0.0000 0.0000 1817.5726 -7427.3107 308.6885 -9244.8833 -7480.7851 301.8896 -919.1091 -890.7467 30839.0735 -157.7369 -91.6483
ENERGY: 1200000 2.3750 3.3999 0.8546 0.0000 -10765.4363 1459.7023 0.0000 0.0000 1810.3622 -7488.7422 307.4640 -9299.1044 -7485.5456 301.1788 153.1918 168.8521 30026.2364 -154.1496 -87.6665
ENERGY: 1500000 2.3612 6.2383 0.7012 0.0000 -10652.0111 1419.4355 0.0000 0.0000 1844.7909 -7378.4841 313.3112 -9223.2749 -7468.4848 301.4284 -10.9863 61.6638 30249.0615 -152.5546 -89.7981
TCL: Exiting due to exit command.
