Info: SIMULATION PARAMETERS:
Info: TIMESTEP               2
Info: NUMBER OF STEPS        0
Info: STEPS PER CYCLE        10
Info: PERIODIC CELL BASIS 1  31.5062 0 0
Info: PERIODIC CELL BASIS 2  0 31.3084 0
Info: PERIODIC CELL BASIS 3  0 0 30.5865
Info: PERIODIC CELL CENTER   0 0 0
Info: WRAPPING WATERS AROUND PERIODIC BOUNDARIES ON OUTPUT.
Info: WRAPPING ALL CLUSTERS AROUND PERIODIC BOUNDARIES ON OUTPUT.
Info: FIRST LDB TIMESTEP     50
Info: LAST LDB TIMESTEP     -1
Info: HOM BACKGROUND SCALING 1
Info: PME BACKGROUND SCALING 1
Info: MIN ATOMS PER PATCH    40
Info: EMPTY PATCH LOAD       40 ATOMS
Info: VELOCITY FILE          mobley_5627459_equil.vel
Info: CENTER OF MASS MOVING INITIALLY? NO
Info: DIELECTRIC             1
Info: EXCLUDE                SCALED ONE-FOUR
Info: 1-4 ELECTROSTATICS SCALED BY 0.833333
Info: MODIFIED 1-4 VDW PARAMETERS WILL BE USED
Info: DCD FILENAME           mobley_5627459_prod.dcd
Info: DCD FREQUENCY          100000
Info: DCD FIRST STEP         100000
Info: DCD FILE WILL CONTAIN UNIT CELL DATA
Info: XST FILENAME           mobley_5627459_prod.xst
Info: XST FREQUENCY          100000
Info: NO VELOCITY DCD OUTPUT
Info: NO FORCE DCD OUTPUT
Info: OUTPUT FILENAME        mobley_5627459_prod
Info: BINARY OUTPUT FILES WILL BE USED
Info: RESTART FILENAME       mobley_5627459_prod.restart
Info: RESTART FREQUENCY      100000
Info: BINARY RESTART FILES WILL BE USED
Info: CUTOFF                 9
Info: PAIRLIST DISTANCE      11
Info: PAIRLIST SHRINK RATE   0.01
Info: PAIRLIST GROW RATE     0.01
Info: PAIRLIST TRIGGER       0.3
Info: PAIRLISTS PER CYCLE    2
Info: PAIRLISTS ENABLED
Info: MARGIN                 2
Info: HYDROGEN GROUP CUTOFF  2.5
Info: PATCH DIMENSION        15.5
Info: ENERGY OUTPUT STEPS    100000
Info: ENERGY EVALUATION STEPS    100000
Info: OUTPUT ENERGY PRECISION 4
Info: CROSSTERM ENERGY INCLUDED IN DIHEDRAL
Info: TIMING OUTPUT STEPS    1000000
Info: PRESSURE OUTPUT STEPS  100000
Info: ALCHEMICAL FEP ON
Info: FEP CURRENT LAMBDA VALUE     0
Info: FEP COMPARISON LAMBDA VALUE  0.05
Info: FEP INTRA-ALCHEMICAL NON-BONDED INTERACTIONS WILL BE RETAINED
Info: FEP INTRA-ALCHEMICAL BONDED INTERACTIONS WILL BE RETAINED
Info: FEP VDW SHIFTING COEFFICIENT 5
Info: FEP ELEC. ACTIVE FOR ANNIHILATED PARTICLES BETWEEN LAMBDA = 0 AND LAMBDA = 0.5
Info: FEP ELEC. ACTIVE FOR EXNIHILATED PARTICLES BETWEEN LAMBDA = 0.5 AND LAMBDA = 1
Info: FEP VDW ACTIVE FOR ANNIHILATED PARTICLES BETWEEN LAMBDA = 0 AND LAMBDA = 1
Info: FEP VDW ACTIVE FOR EXNIHILATED PARTICLES BETWEEN LAMBDA = 0 AND LAMBDA = 1
Info: FEP BOND ACTIVE FOR ANNIHILATED PARTICLES BETWEEN LAMBDA = 1 AND LAMBDA = 1
Info: FEP BOND ACTIVE FOR EXNIHILATED PARTICLES BETWEEN LAMBDA = 0 AND LAMBDA = 0
Info: LANGEVIN DYNAMICS ACTIVE
Info: LANGEVIN TEMPERATURE   300
Info: LANGEVIN USING BBK INTEGRATOR
Info: LANGEVIN DAMPING COEFFICIENT IS 1 INVERSE PS
Info: LANGEVIN DYNAMICS APPLIED TO HYDROGENS
Info: LANGEVIN PISTON PRESSURE CONTROL ACTIVE
Info:        TARGET PRESSURE IS 1.01325 BAR
Info:     OSCILLATION PERIOD IS 50 FS
Info:             DECAY TIME IS 25 FS
Info:     PISTON TEMPERATURE IS 300 K
Info:       PRESSURE CONTROL IS GROUP-BASED
Info:    INITIAL STRAIN RATE IS -0.000330654 -0.000330654 -0.000330654
Info:       CELL FLUCTUATION IS ISOTROPIC
Info: PARTICLE MESH EWALD (PME) ACTIVE
Info: PME TOLERANCE               1e-06
Info: PME EWALD COEFFICIENT       0.348832
Info: PME INTERPOLATION ORDER     4
Info: PME GRID DIMENSIONS         32 32 32
Info: PME MAXIMUM GRID SPACING    1
Info: PME CALCULATION WILL BE PERFORMED ON GPU
Info: FULL ELECTROSTATIC EVALUATION FREQUENCY      2
Info: USING VERLET I (r-RESPA) MTS SCHEME.
Info: C1 SPLITTING OF LONG RANGE ELECTROSTATICS
Info: PLACING ATOMS IN PATCHES BY HYDROGEN GROUPS
Info: RIGID BONDS TO HYDROGEN : ALL
Info:         ERROR TOLERANCE : 1e-08
Info:          MAX ITERATIONS : 100
Info: RIGID WATER USING SETTLE ALGORITHM
Info: RANDOM NUMBER SEED     1743732804
Info: USE HYDROGEN BONDS?    NO
Info: Using AMBER format force field!
Info: AMBER PARM FILE        mobley_5627459.prmtop
Info: COORDINATE PDB         mobley_5627459.pdb
Info: Exclusions will be read from PARM file!
Info: SCNB (VDW SCALING)     2
Info: USING ARITHMETIC MEAN TO COMBINE L-J SIGMA PARAMETERS
Info: BINARY COORDINATES     mobley_5627459_equil.coor
Info: SUMMARY OF PARAMETERS:
Info: 7 BONDS
Info: 8 ANGLES
Info:   8 HARMONIC
Info:   0 COSINE-BASED
Info: 8 DIHEDRAL
Info: 0 IMPROPER
Info: 0 CROSSTERM
Info: 0 VDW
Info: 28 VDW_PAIRS
Info: 0 NBTHOLE_PAIRS
Info: To read alchdata from file: mobley_5627459.pdb
Info: To read alchflag data from column: 5
Info: STRUCTURE SUMMARY:
Info: 2968 ATOMS
Info: 2967 BONDS
Info: 21 ANGLES
Info: 27 DIHEDRALS
Info: 0 IMPROPERS
Info: 0 CROSSTERMS
Info: 3012 EXCLUSIONS
Info: 2963 RIGID BONDS
Info: ALCH: 0 ATOMS TO DISAPPEAR IN FINAL STATE
Info: ALCH: 13 ATOMS TO APPEAR IN FINAL STATE
Info: 5941 DEGREES OF FREEDOM
Info: 990 HYDROGEN GROUPS
Info: 4 ATOMS IN LARGEST HYDROGEN GROUP
Info: 990 MIGRATION GROUPS
Info: 4 ATOMS IN LARGEST MIGRATION GROUP
Info: TOTAL MASS = 17817.9 amu
Info: TOTAL CHARGE = 0.000200025 e
Info: MASS DENSITY = 0.980682 g/cm^3
Info: ATOM DENSITY = 0.0983733 atoms/A^3
Info: ADDED 0 IMPLICIT EXCLUSIONS
Info: NONBONDED TABLE R-SQUARED SPACING: 0.0625
Info: NONBONDED TABLE SIZE: 705 POINTS
Info: REDUCING NUMBER OF PATCHES TO IMPROVE LOAD BALANCE
Info: REMOVING COM VELOCITY 0.0548934 0.178386 -0.134822
Info: Use 3D box decompostion in PME FFT.
Info: Updated CUDA force table with 4096 elements.
Info: Updated CUDA LJ table with 7 x 7 elements.
Info: Found 16 unique exclusion lists needing 32 bytes
TCL: Running for 1500000 steps
ETITLE: TS BOND ANGLE DIHED IMPRP ELECT VDW BOUNDARY MISC KINETIC TOTAL TEMP POTENTIAL TOTALAVG TEMPAVG PRESSURE GPRESSURE VOLUME PRESSAVG GPRESSAVG
ENERGY: 0 1.1067 6.4822 0.5362 0.0000 -10762.3390 1469.5886 0.0000 0.0000 1756.5920 -7528.0333 297.5786 -9284.6253 -7528.0333 297.5786 203.8953 307.2356 30170.7824 203.8953 307.2356
ENERGY: 300000 0.2162 10.3490 0.7327 0.0000 -10797.0797 1496.4498 0.0000 0.0000 1779.1885 -7510.1435 301.4066 -9289.3320 -7519.7639 300.1752 513.9503 628.2848 30064.6016 -193.9729 -135.8241
ENERGY: 600000 0.0634 5.6039 1.8869 0.0000 -10795.2399 1487.2877 0.0000 0.0000 1782.8226 -7517.5754 302.0223 -9300.3981 -7520.9161 301.3459 375.1050 480.6901 30271.3254 -3.7678 85.6482
ENERGY: 900000 0.7373 3.4022 1.0336 0.0000 -10639.3315 1406.6154 0.0000 0.0000 1815.5887 -7411.9544 307.5731 -9227.5430 -7511.5809 301.9957 -241.7347 -130.6129 30574.3730 -20.1110 62.1697
ENERGY: 1200000 1.1838 4.6655 0.5828 0.0000 -10902.4401 1517.1073 0.0000 0.0000 1825.0873 -7553.8135 309.1822 -9378.9008 -7515.3389 302.4465 256.4154 311.6740 30628.7749 -7.4035 68.9667
ENERGY: 1500000 1.0188 5.3975 0.5219 0.0000 -10525.8119 1327.5042 0.0000 0.0000 1750.7270 -7440.6427 296.5850 -9191.3697 -7510.6511 301.6656 -672.3586 -640.8822 30524.1302 -76.6922 -2.3855
TCL: Running FEP window   2: Lambda1 0.05   Lambda2 0.1    [dLambda 0.05  ]
TCL: Setting parameter firsttimestep to 0
TCL: Setting parameter alchLambda to 0.05
Info: NONBONDED TABLE R-SQUARED SPACING: 0.0625
Info: NONBONDED TABLE SIZE: 705 POINTS
TCL: Setting parameter alchLambda2 to 0.1
Info: NONBONDED TABLE R-SQUARED SPACING: 0.0625
Info: NONBONDED TABLE SIZE: 705 POINTS
TCL: Running for 1500000 steps
ETITLE: TS BOND ANGLE DIHED IMPRP ELECT VDW BOUNDARY MISC KINETIC TOTAL TEMP POTENTIAL TOTALAVG TEMPAVG PRESSURE GPRESSURE VOLUME PRESSAVG GPRESSAVG
ENERGY: 0 1.0188 5.3975 0.5219 0.0000 -10525.8121 1328.5385 0.0000 0.0000 1749.8743 -7440.4612 296.4406 -9190.3355 -7440.4612 296.4406 -711.4322 -637.2163 30524.1302 -711.4322 -637.2163
ENERGY: 300000 0.7735 4.6914 1.7219 0.0000 -10810.9453 1515.5571 0.0000 0.0000 1763.2907 -7524.9107 298.7134 -9288.2014 -7462.0254 300.1277 587.8169 617.7706 30100.8150 -180.2221 -109.5310
ENERGY: 600000 1.5589 2.8288 0.3473 0.0000 -10763.0924 1520.8200 0.0000 0.0000 1803.5308 -7434.0066 305.5304 -9237.5373 -7463.0370 301.2674 717.2639 758.1439 30519.1982 20.4551 92.0169
ENERGY: 900000 1.9116 2.8121 1.1269 0.0000 -10641.4747 1326.8994 0.0000 0.0000 1813.5808 -7495.1440 307.2329 -9308.7247 -7474.1415 300.9907 -1358.9879 -1279.7080 30884.1821 -63.3219 8.3979
ENERGY: 1200000 1.9501 4.2139 1.2128 0.0000 -10679.4197 1444.4746 0.0000 0.0000 1763.6273 -7463.9411 298.7704 -9227.5683 -7480.8625 301.0568 198.1989 171.7146 30519.6570 -0.5377 58.4889
ENERGY: 1500000 1.0729 6.7397 2.6491 0.0000 -10678.9711 1417.3530 0.0000 0.0000 1805.5313 -7445.6251 305.8693 -9251.1565 -7486.2182 300.5106 -140.8149 -92.8189 30388.4551 -58.0547 -1.0403
TCL: Running FEP window   3: Lambda1 0.1    Lambda2 0.15000000000000002 [dLambda 0.05000000000000002]
TCL: Setting parameter firsttimestep to 0
TCL: Setting parameter alchLambda to 0.1
Info: NONBONDED TABLE R-SQUARED SPACING: 0.0625
Info: NONBONDED TABLE SIZE: 705 POINTS
TCL: Setting parameter alchLambda2 to 0.15000000000000002
Info: NONBONDED TABLE R-SQUARED SPACING: 0.0625
Info: NONBONDED TABLE SIZE: 705 POINTS
TCL: Running for 1500000 steps
ETITLE: TS BOND ANGLE DIHED IMPRP ELECT VDW BOUNDARY MISC KINETIC TOTAL TEMP POTENTIAL TOTALAVG TEMPAVG PRESSURE GPRESSURE VOLUME PRESSAVG GPRESSAVG
ENERGY: 0 1.0729 6.7397 2.6491 0.0000 -10678.9706 1417.9318 0.0000 0.0000 1804.6040 -7445.9731 305.7122 -9250.5772 -7445.9731 305.7122 -188.1479 -88.3879 30388.4551 -188.1479 -88.3879
ENERGY: 300000 1.0263 7.4435 0.4609 0.0000 -10725.2462 1437.5878 0.0000 0.0000 1745.7019 -7533.0257 295.7338 -9278.7276 -7489.6492 299.2000 -168.1039 -71.0594 30443.4324 216.1117 292.7286
ENERGY: 600000 0.2651 6.7546 2.1912 0.0000 -10777.4156 1444.9771 0.0000 0.0000 1736.9552 -7586.2723 294.2520 -9323.2275 -7516.4395 298.1994 -98.3791 -51.0391 30153.4069 -12.5576 50.6834
ENERGY: 900000 0.3085 3.7018 0.5492 0.0000 -10816.9780 1446.9118 0.0000 0.0000 1750.7465 -7614.7602 296.5884 -9365.5066 -7532.8602 298.0265 -183.5142 -124.6797 30478.9349 4.9878 68.8948
ENERGY: 1200000 1.5194 4.7701 2.3891 0.0000 -10679.0811 1394.4436 0.0000 0.0000 1756.6660 -7519.2929 297.5912 -9275.9588 -7525.7370 299.0733 -484.0981 -467.4557 30566.7408 -24.2505 36.3891
ENERGY: 1500000 2.0357 5.5044 1.8020 0.0000 -10753.4873 1447.3061 0.0000 0.0000 1767.6297 -7529.2094 299.4485 -9296.8391 -7521.6888 299.6596 -449.4169 -312.0323 30891.0947 6.4671 70.4065
TCL: Running FEP window   4: Lambda1 0.15000000000000002 Lambda2 0.2    [dLambda 0.04999999999999999]
TCL: Setting parameter firsttimestep to 0
TCL: Setting parameter alchLambda to 0.15000000000000002
Info: NONBONDED TABLE R-SQUARED SPACING: 0.0625
Info: NONBONDED TABLE SIZE: 705 POINTS
TCL: Setting parameter alchLambda2 to 0.2
Info: NONBONDED TABLE R-SQUARED SPACING: 0.0625
Info: NONBONDED TABLE SIZE: 705 POINTS
TCL: Running for 1500000 steps
ETITLE: TS BOND ANGLE DIHED IMPRP ELECT VDW BOUNDARY MISC KINETIC TOTAL TEMP POTENTIAL TOTALAVG TEMPAVG PRESSURE GPRESSURE VOLUME PRESSAVG GPRESSAVG
ENERGY: 0 2.0357 5.5044 1.8020 0.0000 -10753.4879 1448.7980 0.0000 0.0000 1766.7780 -7528.5697 299.3042 -9295.3478 -7528.5697 299.3042 -390.9272 -304.8359 30891.0947 -390.9272 -304.8359
ENERGY: 300000 1.7122 8.3822 0.7656 0.0000 -10762.6936 1484.2444 0.0000 0.0000 1768.2202 -7499.3689 299.5485 -9267.5891 -7526.8990 300.3003 238.7577 305.1978 30329.6319 29.4640 109.6370
ENERGY: 600000 0.7813 7.2639 2.0517 0.0000 -10723.8745 1419.2577 0.0000 0.0000 1779.6913 -7514.8285 301.4918 -9294.5199 -7506.9387 299.5781 -330.1489 -267.1705 30399.1641 10.1901 88.3607
ENERGY: 900000 0.1391 8.4598 0.5977 0.0000 -10573.4434 1350.3188 0.0000 0.0000 1720.7423 -7493.1858 291.5054 -9213.9280 -7520.1177 298.2169 -596.2682 -563.3324 30810.4447 -86.7309 -18.3470
ENERGY: 1200000 0.9694 6.0060 0.5824 0.0000 -10948.4552 1586.6040 0.0000 0.0000 1752.8238 -7601.4696 296.9403 -9354.2934 -7526.6977 297.7151 1194.1126 1237.3354 29707.2233 43.6751 111.5567
ENERGY: 1500000 2.4318 4.9460 0.8294 0.0000 -10897.8451 1550.2023 0.0000 0.0000 1791.6290 -7547.8067 303.5141 -9339.4357 -7523.7412 297.8900 692.1667 795.8441 30107.9032 45.1040 107.3504
TCL: Running FEP window   5: Lambda1 0.2    Lambda2 0.25   [dLambda 0.04999999999999999]
TCL: Setting parameter firsttimestep to 0
TCL: Setting parameter alchLambda to 0.2
Info: NONBONDED TABLE R-SQUARED SPACING: 0.0625
Info: NONBONDED TABLE SIZE: 705 POINTS
TCL: Setting parameter alchLambda2 to 0.25
Info: NONBONDED TABLE R-SQUARED SPACING: 0.0625
Info: NONBONDED TABLE SIZE: 705 POINTS
TCL: Running for 1500000 steps
ETITLE: TS BOND ANGLE DIHED IMPRP ELECT VDW BOUNDARY MISC KINETIC TOTAL TEMP POTENTIAL TOTALAVG TEMPAVG PRESSURE GPRESSURE VOLUME PRESSAVG GPRESSAVG
ENERGY: 0 2.4318 4.9460 0.8294 0.0000 -10897.8444 1552.2311 0.0000 0.0000 1790.7683 -7546.6379 303.3683 -9337.4062 -7546.6379 303.3683 723.0941 809.8956 30107.9032 723.0941 809.8956
ENERGY: 300000 0.6131 4.6613 1.2090 0.0000 -10688.3819 1445.8883 0.0000 0.0000 1812.4944 -7423.5158 307.0489 -9236.0102 -7518.3656 302.7478 78.9507 173.3515 30507.0926 43.2603 124.4959
ENERGY: 600000 1.4025 4.9066 0.3626 0.0000 -10654.6469 1394.5525 0.0000 0.0000 1797.8513 -7455.5715 304.5682 -9253.4228 -7495.0372 302.6942 -290.7202 -227.3381 30642.0715 175.0820 256.2157
ENERGY: 900000 2.0460 5.9529 0.4747 0.0000 -10675.3311 1432.1531 0.0000 0.0000 1786.6406 -7448.0638 302.6691 -9234.7044 -7494.0852 301.8458 38.9918 78.1738 30485.9019 104.1569 180.6375
ENERGY: 1200000 0.5607 3.0659 0.6308 0.0000 -10874.5116 1527.0336 0.0000 0.0000 1836.3813 -7506.8394 311.0955 -9343.2206 -7500.5526 302.0625 417.9612 481.8465 30452.7004 195.6491 271.2564
ENERGY: 1500000 0.5068 4.4420 2.3162 0.0000 -10658.0020 1390.5949 0.0000 0.0000 1797.9872 -7462.1549 304.5913 -9260.1421 -7493.5919 302.5356 -326.0277 -306.9274 30513.4447 171.2594 240.3582
TCL: Running FEP window   6: Lambda1 0.25   Lambda2 0.3    [dLambda 0.04999999999999999]
TCL: Setting parameter firsttimestep to 0
TCL: Setting parameter alchLambda to 0.25
Info: NONBONDED TABLE R-SQUARED SPACING: 0.0625
Info: NONBONDED TABLE SIZE: 705 POINTS
TCL: Setting parameter alchLambda2 to 0.3
Info: NONBONDED TABLE R-SQUARED SPACING: 0.0625
Info: NONBONDED TABLE SIZE: 705 POINTS
TCL: Running for 1500000 steps
ETITLE: TS BOND ANGLE DIHED IMPRP ELECT VDW BOUNDARY MISC KINETIC TOTAL TEMP POTENTIAL TOTALAVG TEMPAVG PRESSURE GPRESSURE VOLUME PRESSAVG GPRESSAVG
ENERGY: 0 0.5068 4.4420 2.3162 0.0000 -10658.0031 1391.4111 0.0000 0.0000 1797.1071 -7462.2199 304.4422 -9259.3270 -7462.2199 304.4422 -376.0121 -298.9174 30513.4447 -376.0121 -298.9174
ENERGY: 300000 1.9753 7.0140 1.7660 0.0000 -10645.1750 1394.7609 0.0000 0.0000 1747.4299 -7492.2288 296.0265 -9239.6588 -7508.7007 297.3097 -205.0595 -203.3332 30482.1377 -118.0666 -38.2544
ENERGY: 600000 1.1523 8.3536 1.0973 0.0000 -10690.3719 1393.9293 0.0000 0.0000 1794.0627 -7491.7766 303.9264 -9285.8393 -7515.5393 298.1613 -551.6404 -567.8056 30846.4858 -323.0915 -263.7331
ENERGY: 900000 0.1737 4.5329 0.8153 0.0000 -10662.8120 1412.7414 0.0000 0.0000 1695.1660 -7549.3828 287.1726 -9244.5488 -7520.4921 297.3246 -135.5606 -91.0198 30342.9756 -404.5735 -342.1193
ENERGY: 1200000 0.8140 5.0042 0.6688 0.0000 -10770.1129 1465.4578 0.0000 0.0000 1787.5786 -7510.5895 302.8280 -9298.1681 -7508.7205 298.3001 168.1209 264.9556 30414.4021 -344.6677 -270.1598
ENERGY: 1500000 1.2923 7.5357 1.3346 0.0000 -10798.9206 1470.4172 0.0000 0.0000 1782.2216 -7536.1192 301.9205 -9318.3408 -7515.2874 297.5963 203.2704 259.9336 30182.5511 -313.0567 -242.9787
TCL: Running FEP window   7: Lambda1 0.3    Lambda2 0.35   [dLambda 0.04999999999999999]
TCL: Setting parameter firsttimestep to 0
TCL: Setting parameter alchLambda to 0.3
Info: NONBONDED TABLE R-SQUARED SPACING: 0.0625
Info: NONBONDED TABLE SIZE: 705 POINTS
TCL: Setting parameter alchLambda2 to 0.35
Info: NONBONDED TABLE R-SQUARED SPACING: 0.0625
Info: NONBONDED TABLE SIZE: 705 POINTS
TCL: Running for 1500000 steps
ETITLE: TS BOND ANGLE DIHED IMPRP ELECT VDW BOUNDARY MISC KINETIC TOTAL TEMP POTENTIAL TOTALAVG TEMPAVG PRESSURE GPRESSURE VOLUME PRESSAVG GPRESSAVG
ENERGY: 0 1.2923 7.5357 1.3346 0.0000 -10798.9211 1470.4914 0.0000 0.0000 1781.2909 -7536.9762 301.7628 -9318.2671 -7536.9762 301.7628 179.8542 261.5314 30182.5511 179.8542 261.5314
ENERGY: 300000 1.3872 5.7285 1.1780 0.0000 -10829.4979 1487.0134 0.0000 0.0000 1796.6504 -7537.5404 304.3648 -9334.1909 -7527.9854 302.2092 46.4515 102.5294 30554.3625 47.4328 102.0657
ENERGY: 600000 0.3780 7.8532 0.2628 0.0000 -10782.7048 1481.5315 0.0000 0.0000 1820.1037 -7472.5755 308.3379 -9292.6793 -7541.0311 299.3443 164.7662 245.2304 30740.3641 185.3510 248.6741
ENERGY: 900000 2.2203 4.8501 2.6112 0.0000 -10798.3712 1427.6072 0.0000 0.0000 1837.3919 -7523.6905 311.2667 -9361.0824 -7536.4930 298.9047 -396.6521 -328.3597 30414.0802 41.4008 99.6850
ENERGY: 1200000 1.0633 5.5839 1.8638 0.0000 -10776.0138 1490.6511 0.0000 0.0000 1768.4959 -7508.3559 299.5952 -9276.8518 -7542.7069 299.5972 325.7881 285.7114 30971.5339 -25.7625 19.4635
ENERGY: 1500000 1.4813 5.8588 1.2325 0.0000 -10567.8015 1331.0126 0.0000 0.0000 1801.9444 -7426.2720 305.2616 -9228.2164 -7529.3567 300.0018 -881.3974 -775.9751 31051.1014 -116.8040 -63.6653
TCL: Running FEP window   8: Lambda1 0.35   Lambda2 0.39999999999999997 [dLambda 0.04999999999999999]
TCL: Setting parameter firsttimestep to 0
TCL: Setting parameter alchLambda to 0.35
Info: NONBONDED TABLE R-SQUARED SPACING: 0.0625
Info: NONBONDED TABLE SIZE: 705 POINTS
TCL: Setting parameter alchLambda2 to 0.39999999999999997
Info: NONBONDED TABLE R-SQUARED SPACING: 0.0625
Info: NONBONDED TABLE SIZE: 705 POINTS
TCL: Running for 1500000 steps
ETITLE: TS BOND ANGLE DIHED IMPRP ELECT VDW BOUNDARY MISC KINETIC TOTAL TEMP POTENTIAL TOTALAVG TEMPAVG PRESSURE GPRESSURE VOLUME PRESSAVG GPRESSAVG
ENERGY: 0 1.4813 5.8588 1.2325 0.0000 -10567.8004 1330.6250 0.0000 0.0000 1801.0868 -7427.5160 305.1164 -9228.6028 -7427.5160 305.1164 -863.4289 -776.8357 31051.1014 -863.4289 -776.8357
ENERGY: 300000 1.9381 4.3995 0.7483 0.0000 -10771.7024 1462.6979 0.0000 0.0000 1753.8444 -7548.0743 297.1132 -9301.9187 -7478.3027 298.9769 -129.4139 -52.4703 30948.5562 -359.0859 -249.7478
ENERGY: 600000 1.6499 7.5154 1.0697 0.0000 -10660.3791 1382.4460 0.0000 0.0000 1753.3596 -7514.3385 297.0310 -9267.6981 -7500.3527 296.7528 -375.0629 -280.8555 30424.0104 -337.6222 -229.9123
ENERGY: 900000 1.2999 5.2429 0.6703 0.0000 -10725.3054 1441.0495 0.0000 0.0000 1749.0923 -7527.9504 296.3081 -9277.0428 -7512.6084 298.1774 -132.8874 -38.5361 30908.7050 -234.8194 -135.1013
ENERGY: 1200000 1.7161 6.1541 0.4334 0.0000 -10806.4863 1478.3430 0.0000 0.0000 1782.9116 -7536.9281 302.0373 -9319.8397 -7512.6032 299.2059 366.0546 451.0294 30149.0807 -92.6269 7.1036
ENERGY: 1500000 1.4944 3.7201 3.1029 0.0000 -10767.9205 1374.1997 0.0000 0.0000 1758.7026 -7626.7007 297.9362 -9385.4033 -7514.6200 299.9059 -687.4100 -673.3461 30184.1254 -137.0329 -38.4667
TCL: Running FEP window   9: Lambda1 0.39999999999999997 Lambda2 0.44999999999999996 [dLambda 0.04999999999999999]
TCL: Setting parameter firsttimestep to 0
TCL: Setting parameter alchLambda to 0.39999999999999997
Info: NONBONDED TABLE R-SQUARED SPACING: 0.0625
Info: NONBONDED TABLE SIZE: 705 POINTS
TCL: Setting parameter alchLambda2 to 0.44999999999999996
Info: NONBONDED TABLE R-SQUARED SPACING: 0.0625
Info: NONBONDED TABLE SIZE: 705 POINTS
TCL: Running for 1500000 steps
ETITLE: TS BOND ANGLE DIHED IMPRP ELECT VDW BOUNDARY MISC KINETIC TOTAL TEMP POTENTIAL TOTALAVG TEMPAVG PRESSURE GPRESSURE VOLUME PRESSAVG GPRESSAVG
ENERGY: 0 1.4944 3.7201 3.1029 0.0000 -10767.9206 1374.9249 0.0000 0.0000 1757.8135 -7626.8648 297.7855 -9384.6782 -7626.8648 297.7855 -753.5272 -666.0864 30184.1254 -753.5272 -666.0864
ENERGY: 300000 1.2086 3.5755 1.2849 0.0000 -10828.6401 1535.1015 0.0000 0.0000 1772.1029 -7515.3667 300.2063 -9287.4697 -7569.4542 296.4812 695.2938 751.0520 30635.4769 146.0986 210.7492
ENERGY: 600000 2.5165 7.1096 2.9718 0.0000 -10573.0862 1348.1390 0.0000 0.0000 1763.6898 -7448.6595 298.7810 -9212.3493 -7512.1156 297.6595 -750.7950 -687.3711 30678.2243 -169.1756 -105.1015
ENERGY: 900000 0.8330 4.6883 2.6536 0.0000 -10657.2294 1337.0194 0.0000 0.0000 1747.2736 -7564.7616 296.0000 -9312.0351 -7519.9553 297.8267 -1125.0526 -1071.6277 30622.4071 -281.3471 -218.0870
ENERGY: 1200000 0.9715 3.6895 1.0946 0.0000 -10771.9267 1459.7863 0.0000 0.0000 1783.9043 -7522.4806 302.2055 -9306.3849 -7524.0170 298.4205 125.6586 251.7184 30288.6203 -294.7366 -221.4469
ENERGY: 1500000 0.8672 8.9099 0.4722 0.0000 -10695.9681 1397.6300 0.0000 0.0000 1729.5546 -7558.5342 292.9983 -9288.0889 -7529.3293 298.4437 -298.9583 -261.2525 30491.9457 -319.2526 -250.7214
TCL: Running FEP window  10: Lambda1 0.44999999999999996 Lambda2 0.49999999999999994 [dLambda 0.04999999999999999]
TCL: Setting parameter firsttimestep to 0
TCL: Setting parameter alchLambda to 0.44999999999999996
Info: NONBONDED TABLE R-SQUARED SPACING: 0.0625
Info: NONBONDED TABLE SIZE: 705 POINTS
TCL: Setting parameter alchLambda2 to 0.49999999999999994
Info: NONBONDED TABLE R-SQUARED SPACING: 0.0625
Info: NONBONDED TABLE SIZE: 705 POINTS
TCL: Running for 1500000 steps
ETITLE: TS BOND ANGLE DIHED IMPRP ELECT VDW BOUNDARY MISC KINETIC TOTAL TEMP POTENTIAL TOTALAVG TEMPAVG PRESSURE GPRESSURE VOLUME PRESSAVG GPRESSAVG
ENERGY: 0 0.8672 8.9099 0.4722 0.0000 -10695.9679 1397.4283 0.0000 0.0000 1728.6517 -7559.6386 292.8453 -9288.2903 -7559.6386 292.8453 -342.6936 -259.3330 30491.9457 -342.6936 -259.3330
ENERGY: 300000 0.9719 4.1090 0.3320 0.0000 -10815.3591 1480.2577 0.0000 0.0000 1759.0280 -7570.6605 297.9913 -9329.6885 -7508.0405 300.9947 106.5601 63.1204 30597.6187 -369.4729 -308.1142
ENERGY: 600000 2.4268 9.0460 1.5525 0.0000 -10784.3539 1469.9858 0.0000 0.0000 1785.9109 -7515.4318 302.5454 -9301.3428 -7521.2443 300.9070 570.6469 631.0840 29950.1965 -25.5064 36.5951
ENERGY: 900000 1.6259 3.6700 2.0467 0.0000 -10672.9038 1434.4993 0.0000 0.0000 1748.5329 -7482.5289 296.2134 -9231.0619 -7525.4494 299.3814 -52.7713 -48.8102 30888.5583 63.5654 117.5574
ENERGY: 1200000 0.7312 3.5063 1.2329 0.0000 -10884.9170 1571.8475 0.0000 0.0000 1796.0086 -7511.5904 304.2561 -9307.5990 -7530.8899 299.4792 796.9396 851.1428 30541.3557 31.3839 87.2133
ENERGY: 1500000 1.9528 4.9654 1.6418 0.0000 -10861.7661 1555.9337 0.0000 0.0000 1739.0130 -7558.2595 294.6006 -9297.2725 -7531.2507 300.2903 559.0301 550.6296 30738.8721 -11.9621 40.7224
TCL: Running FEP window  11: Lambda1 0.49999999999999994 Lambda2 0.5499999999999999 [dLambda 0.04999999999999999]
TCL: Setting parameter firsttimestep to 0
TCL: Setting parameter alchLambda to 0.49999999999999994
Info: NONBONDED TABLE R-SQUARED SPACING: 0.0625
Info: NONBONDED TABLE SIZE: 705 POINTS
TCL: Setting parameter alchLambda2 to 0.5499999999999999
Info: NONBONDED TABLE R-SQUARED SPACING: 0.0625
Info: NONBONDED TABLE SIZE: 705 POINTS
TCL: Running for 1500000 steps
ETITLE: TS BOND ANGLE DIHED IMPRP ELECT VDW BOUNDARY MISC KINETIC TOTAL TEMP POTENTIAL TOTALAVG TEMPAVG PRESSURE GPRESSURE VOLUME PRESSAVG GPRESSAVG
ENERGY: 0 1.9528 4.9654 1.6418 0.0000 -10861.7661 1556.1189 0.0000 0.0000 1738.1216 -7558.9656 294.4496 -9297.0873 -7558.9656 294.4496 479.9280 557.6034 30738.8721 479.9280 557.6034
ENERGY: 300000 0.4086 8.8009 1.0642 0.0000 -10608.2264 1383.6178 0.0000 0.0000 1813.1503 -7401.1845 307.1600 -9214.3348 -7516.8975 300.9577 -123.2903 -51.2860 30368.3767 301.9834 349.1306
ENERGY: 600000 3.6182 5.9446 1.0846 0.0000 -10715.6643 1405.1330 0.0000 0.0000 1784.5260 -7515.3580 302.3108 -9299.8840 -7499.9563 303.1761 -297.9620 -216.6532 30443.8444 59.0558 118.0121
ENERGY: 900000 2.3068 8.2138 1.3215 0.0000 -10710.6735 1373.4897 0.0000 0.0000 1758.0812 -7567.2605 297.8309 -9325.3418 -7508.1856 301.4439 -748.6155 -728.2843 30713.4378 58.1187 107.4744
ENERGY: 1200000 1.0765 7.3758 0.6431 0.0000 -10706.0890 1452.3288 0.0000 0.0000 1789.3951 -7455.2698 303.1357 -9244.6649 -7515.5395 300.6849 278.0778 291.2257 30552.9534 58.2171 107.7017
ENERGY: 1500000 0.8782 2.9356 1.8478 0.0000 -10752.2169 1408.7009 0.0000 0.0000 1834.3566 -7503.4978 310.7525 -9337.8544 -7505.3358 301.7921 -514.7179 -466.6960 30895.1149 -5.3615 48.2478
TCL: Running FEP window  12: Lambda1 0.5499999999999999 Lambda2 0.6    [dLambda 0.050000000000000044]
TCL: Setting parameter firsttimestep to 0
TCL: Setting parameter alchLambda to 0.5499999999999999
Info: NONBONDED TABLE R-SQUARED SPACING: 0.0625
Info: NONBONDED TABLE SIZE: 705 POINTS
TCL: Setting parameter alchLambda2 to 0.6
Info: NONBONDED TABLE R-SQUARED SPACING: 0.0625
Info: NONBONDED TABLE SIZE: 705 POINTS
TCL: Running for 1500000 steps
ETITLE: TS BOND ANGLE DIHED IMPRP ELECT VDW BOUNDARY MISC KINETIC TOTAL TEMP POTENTIAL TOTALAVG TEMPAVG PRESSURE GPRESSURE VOLUME PRESSAVG GPRESSAVG
ENERGY: 0 0.8782 2.9356 1.8478 0.0000 -10752.3769 1409.9006 0.0000 0.0000 1833.4721 -7503.3426 310.6026 -9336.8147 -7503.3426 310.6026 -527.0464 -454.0538 30895.1149 -527.0464 -454.0538
ENERGY: 300000 0.9035 5.5752 0.6154 0.0000 -10678.1271 1405.4679 0.0000 0.0000 1715.9597 -7549.6054 290.6952 -9265.5651 -7528.5532 303.4009 -342.0067 -273.0062 30807.4470 -267.5277 -199.4410
ENERGY: 600000 2.4452 4.2452 0.4018 0.0000 -10770.1283 1408.0242 0.0000 0.0000 1775.6922 -7579.3197 300.8143 -9355.0119 -7545.4779 301.4926 -638.8033 -518.9218 30668.6008 -323.5954 -251.0145
ENERGY: 900000 1.0317 4.5522 2.1203 0.0000 -10815.5844 1478.9450 0.0000 0.0000 1728.3855 -7600.5496 292.8003 -9328.9351 -7547.4342 301.3992 -17.7004 -13.2982 30852.5767 -285.6915 -224.5408
ENERGY: 1200000 0.6896 5.7677 0.8023 0.0000 -10716.0875 1426.9155 0.0000 0.0000 1828.3824 -7453.5301 309.7404 -9281.9125 -7528.1017 302.4058 -140.4351 -97.0554 30793.0426 -247.6037 -187.7567
ENERGY: 1500000 0.6326 6.6253 0.4011 0.0000 -10799.7331 1454.2866 0.0000 0.0000 1746.7948 -7590.9927 295.9189 -9337.7876 -7530.9575 301.9653 -169.6020 -85.2324 30487.1076 -337.1617 -277.3261
TCL: Running FEP window  13: Lambda1 0.6    Lambda2 0.65   [dLambda 0.050000000000000044]
TCL: Setting parameter firsttimestep to 0
TCL: Setting parameter alchLambda to 0.6
Info: NONBONDED TABLE R-SQUARED SPACING: 0.0625
Info: NONBONDED TABLE SIZE: 705 POINTS
TCL: Setting parameter alchLambda2 to 0.65
Info: NONBONDED TABLE R-SQUARED SPACING: 0.0625
Info: NONBONDED TABLE SIZE: 705 POINTS
TCL: Running for 1500000 steps
ETITLE: TS BOND ANGLE DIHED IMPRP ELECT VDW BOUNDARY MISC KINETIC TOTAL TEMP POTENTIAL TOTALAVG TEMPAVG PRESSURE GPRESSURE VOLUME PRESSAVG GPRESSAVG
ENERGY: 0 0.6326 6.6253 0.4011 0.0000 -10799.8100 1456.0739 0.0000 0.0000 1745.8786 -7590.1985 295.7637 -9336.0771 -7590.1985 295.7637 -133.5823 -61.5665 30487.1076 -133.5823 -61.5665
ENERGY: 300000 1.4081 4.6451 1.5322 0.0000 -10847.2387 1493.8443 0.0000 0.0000 1749.4667 -7596.3424 296.3715 -9345.8090 -7541.4493 299.5311 373.6251 489.4593 30143.0390 -69.2335 -0.7478
ENERGY: 600000 1.1383 5.4009 1.9898 0.0000 -10750.4955 1450.9596 0.0000 0.0000 1803.8496 -7487.1573 305.5844 -9291.0069 -7503.2665 301.8563 414.9618 461.1642 30067.1226 -126.2528 -58.8395
ENERGY: 900000 0.1521 6.1605 1.5011 0.0000 -10832.3337 1496.8441 0.0000 0.0000 1736.5473 -7591.1285 294.1829 -9327.6758 -7522.6344 301.8355 621.2851 633.6485 29857.3819 -96.2039 -38.4200
ENERGY: 1200000 0.9502 3.3171 0.7613 0.0000 -10956.4700 1583.2721 0.0000 0.0000 1780.4488 -7587.7205 301.6201 -9368.1692 -7524.1957 302.0029 935.7195 1017.8030 30130.8193 13.3201 83.0595
ENERGY: 1500000 1.2576 9.3686 2.9023 0.0000 -10770.6469 1461.7343 0.0000 0.0000 1751.6247 -7543.7594 296.7371 -9295.3841 -7519.8898 302.5369 173.6451 194.4496 30489.3074 17.5300 83.1878
TCL: Running FEP window  14: Lambda1 0.65   Lambda2 0.7000000000000001 [dLambda 0.050000000000000044]
TCL: Setting parameter firsttimestep to 0
TCL: Setting parameter alchLambda to 0.65
Info: NONBONDED TABLE R-SQUARED SPACING: 0.0625
Info: NONBONDED TABLE SIZE: 705 POINTS
TCL: Setting parameter alchLambda2 to 0.7000000000000001
Info: NONBONDED TABLE R-SQUARED SPACING: 0.0625
Info: NONBONDED TABLE SIZE: 705 POINTS
TCL: Running for 1500000 steps
ETITLE: TS BOND ANGLE DIHED IMPRP ELECT VDW BOUNDARY MISC KINETIC TOTAL TEMP POTENTIAL TOTALAVG TEMPAVG PRESSURE GPRESSURE VOLUME PRESSAVG GPRESSAVG
ENERGY: 0 1.2576 9.3686 2.9023 0.0000 -10770.9386 1461.4847 0.0000 0.0000 1750.7082 -7545.2172 296.5819 -9295.9254 -7545.2172 296.5819 118.3143 197.8703 30489.3074 118.3143 197.8703
ENERGY: 300000 4.6434 6.2218 1.1432 0.0000 -10764.6456 1435.4195 0.0000 0.0000 1803.0248 -7514.1930 305.4447 -9317.2177 -7505.8861 302.7373 -179.3984 -135.6468 30847.3936 -120.2224 -64.0264
ENERGY: 600000 0.7048 3.9241 0.6171 0.0000 -10847.1731 1500.5309 0.0000 0.0000 1720.2293 -7621.1669 291.4185 -9341.3962 -7524.9992 300.7288 267.0390 365.0211 30489.6918 15.9753 68.0728
ENERGY: 900000 2.9169 4.1726 0.4927 0.0000 -10716.5273 1407.5136 0.0000 0.0000 1817.6948 -7483.7367 307.9299 -9301.4316 -7521.6889 301.6755 -130.1500 -72.2563 30490.4070 -33.5992 29.6146
ENERGY: 1200000 4.1957 7.2413 2.1636 0.0000 -10860.7903 1548.9599 0.0000 0.0000 1768.3134 -7529.9163 299.5643 -9298.2297 -7523.2052 301.1895 824.1968 933.1495 29961.5907 48.3690 116.2701
ENERGY: 1500000 2.2569 1.9854 3.3192 0.0000 -10743.6506 1475.1629 0.0000 0.0000 1771.8856 -7489.0406 300.1695 -9260.9262 -7514.4233 301.6111 33.4457 28.5441 30984.2103 23.7973 84.6543
TCL: Running FEP window  15: Lambda1 0.7000000000000001 Lambda2 0.7500000000000001 [dLambda 0.050000000000000044]
TCL: Setting parameter firsttimestep to 0
TCL: Setting parameter alchLambda to 0.7000000000000001
Info: NONBONDED TABLE R-SQUARED SPACING: 0.0625
Info: NONBONDED TABLE SIZE: 705 POINTS
TCL: Setting parameter alchLambda2 to 0.7500000000000001
Info: NONBONDED TABLE R-SQUARED SPACING: 0.0625
Info: NONBONDED TABLE SIZE: 705 POINTS
TCL: Running for 1500000 steps
ETITLE: TS BOND ANGLE DIHED IMPRP ELECT VDW BOUNDARY MISC KINETIC TOTAL TEMP POTENTIAL TOTALAVG TEMPAVG PRESSURE GPRESSURE VOLUME PRESSAVG GPRESSAVG
ENERGY: 0 2.2569 1.9854 3.3192 0.0000 -10744.0690 1475.4170 0.0000 0.0000 1770.9958 -7490.0947 300.0187 -9261.0905 -7490.0947 300.0187 -53.9552 34.9264 30984.2103 -53.9552 34.9264
ENERGY: 300000 1.0164 4.1380 0.8885 0.0000 -10726.2056 1432.7557 0.0000 0.0000 1797.2581 -7490.1488 304.4677 -9287.4069 -7490.3850 303.6559 -119.5601 -73.6858 30839.8508 -78.4247 -20.4158
ENERGY: 600000 3.6936 8.0166 0.5314 0.0000 -10798.8570 1480.1685 0.0000 0.0000 1802.3869 -7504.0599 305.3366 -9306.4468 -7497.6206 304.3202 223.4645 301.8059 30584.5602 -75.9514 -14.4225
ENERGY: 900000 2.4089 5.5456 0.9981 0.0000 -10796.4909 1483.7307 0.0000 0.0000 1800.2712 -7503.5364 304.9782 -9303.8076 -7509.4898 303.4358 292.5193 381.4839 30192.4722 -68.2826 -7.7933
ENERGY: 1200000 0.7917 4.1695 0.7806 0.0000 -10777.2228 1444.8152 0.0000 0.0000 1761.7048 -7564.9610 298.4448 -9326.6658 -7504.7157 302.9016 -243.5898 -212.8974 30719.6005 52.8487 104.0178
ENERGY: 1500000 3.3840 5.5109 0.4735 0.0000 -10750.8910 1372.5421 0.0000 0.0000 1741.6455 -7627.3350 295.0466 -9368.9804 -7514.4733 302.0019 -715.2497 -687.3793 30348.1450 -20.9867 19.1754
TCL: Running FEP window  16: Lambda1 0.7500000000000001 Lambda2 0.8000000000000002 [dLambda 0.050000000000000044]
TCL: Setting parameter firsttimestep to 0
TCL: Setting parameter alchLambda to 0.7500000000000001
Info: NONBONDED TABLE R-SQUARED SPACING: 0.0625
Info: NONBONDED TABLE SIZE: 705 POINTS
TCL: Setting parameter alchLambda2 to 0.8000000000000002
Info: NONBONDED TABLE R-SQUARED SPACING: 0.0625
Info: NONBONDED TABLE SIZE: 705 POINTS
TCL: Running for 1500000 steps
ETITLE: TS BOND ANGLE DIHED IMPRP ELECT VDW BOUNDARY MISC KINETIC TOTAL TEMP POTENTIAL TOTALAVG TEMPAVG PRESSURE GPRESSURE VOLUME PRESSAVG GPRESSAVG
ENERGY: 0 3.3840 5.5109 0.4735 0.0000 -10750.7964 1372.5982 0.0000 0.0000 1740.7481 -7628.0816 294.8946 -9368.8297 -7628.0816 294.8946 -769.4463 -678.7630 30348.1450 -769.4463 -678.7630
ENERGY: 300000 0.3240 3.8943 1.6556 0.0000 -10821.9806 1439.6813 0.0000 0.0000 1754.4986 -7621.9266 297.2240 -9376.4253 -7567.1283 296.6064 -135.6508 -42.9339 30230.9411 -344.0820 -293.6860
ENERGY: 600000 2.6271 8.2369 1.8198 0.0000 -10652.9346 1354.2459 0.0000 0.0000 1715.8237 -7570.1811 290.6722 -9286.0048 -7543.6775 298.6108 -664.4222 -568.1129 30395.1178 -62.3897 -16.8203
ENERGY: 900000 0.5176 5.2510 1.9375 0.0000 -10679.4021 1420.7014 0.0000 0.0000 1744.2332 -7506.7614 295.4850 -9250.9945 -7540.0385 297.6911 -206.1628 -210.1811 30674.7941 -50.5569 -0.1001
ENERGY: 1200000 2.2168 5.6270 0.3896 0.0000 -10769.6245 1477.7723 0.0000 0.0000 1795.1439 -7488.4748 304.1096 -9283.6187 -7538.1956 297.8195 301.2607 346.8459 30794.2352 -20.2098 30.5655
ENERGY: 1500000 3.0411 2.9084 1.7946 0.0000 -10822.5758 1482.7633 0.0000 0.0000 1798.3720 -7533.6965 304.6564 -9332.0685 -7521.2127 299.3664 296.5750 353.7840 30227.0344 -23.9590 32.3489
TCL: Running FEP window  17: Lambda1 0.8000000000000002 Lambda2 0.8500000000000002 [dLambda 0.050000000000000044]
TCL: Setting parameter firsttimestep to 0
TCL: Setting parameter alchLambda to 0.8000000000000002
Info: NONBONDED TABLE R-SQUARED SPACING: 0.0625
Info: NONBONDED TABLE SIZE: 705 POINTS
TCL: Setting parameter alchLambda2 to 0.8500000000000002
Info: NONBONDED TABLE R-SQUARED SPACING: 0.0625
Info: NONBONDED TABLE SIZE: 705 POINTS
TCL: Running for 1500000 steps
ETITLE: TS BOND ANGLE DIHED IMPRP ELECT VDW BOUNDARY MISC KINETIC TOTAL TEMP POTENTIAL TOTALAVG TEMPAVG PRESSURE GPRESSURE VOLUME PRESSAVG GPRESSAVG
ENERGY: 0 3.0411 2.9084 1.7946 0.0000 -10822.7129 1482.7351 0.0000 0.0000 1797.4968 -7534.7370 304.5082 -9332.2337 -7534.7370 304.5082 279.8283 361.9447 30227.0344 279.8283 361.9447
ENERGY: 300000 0.6790 4.5864 3.5719 0.0000 -10863.8860 1512.6569 0.0000 0.0000 1783.2721 -7559.1198 302.0984 -9342.3919 -7531.6671 300.9364 453.0260 487.4185 30643.2714 536.9711 606.6348
ENERGY: 600000 0.3746 9.8156 0.8491 0.0000 -10855.7754 1490.6631 0.0000 0.0000 1771.5949 -7582.4781 300.1202 -9354.0730 -7537.1016 300.8939 384.1306 454.5728 30271.6384 325.1273 394.1071
ENERGY: 900000 0.7738 1.4218 0.3972 0.0000 -10836.8652 1500.1476 0.0000 0.0000 1743.0582 -7591.0665 295.2859 -9334.1248 -7540.5113 300.8874 325.9187 458.7412 30449.7314 227.6303 301.1501
ENERGY: 1200000 1.2070 4.4742 0.8647 0.0000 -10736.7390 1452.3512 0.0000 0.0000 1776.2875 -7501.5544 300.9152 -9277.8419 -7530.8849 301.0108 -52.6207 96.0142 30749.9983 197.2516 272.1861
ENERGY: 1500000 0.8202 4.1340 0.5296 0.0000 -10799.8545 1410.0263 0.0000 0.0000 1745.6920 -7638.6525 295.7321 -9384.3445 -7529.4002 300.5846 -332.2113 -286.9178 30274.3777 171.6306 235.7541
TCL: Running FEP window  18: Lambda1 0.8500000000000002 Lambda2 0.9000000000000002 [dLambda 0.050000000000000044]
TCL: Setting parameter firsttimestep to 0
TCL: Setting parameter alchLambda to 0.8500000000000002
Info: NONBONDED TABLE R-SQUARED SPACING: 0.0625
Info: NONBONDED TABLE SIZE: 705 POINTS
TCL: Setting parameter alchLambda2 to 0.9000000000000002
Info: NONBONDED TABLE R-SQUARED SPACING: 0.0625
Info: NONBONDED TABLE SIZE: 705 POINTS
TCL: Running for 1500000 steps
ETITLE: TS BOND ANGLE DIHED IMPRP ELECT VDW BOUNDARY MISC KINETIC TOTAL TEMP POTENTIAL TOTALAVG TEMPAVG PRESSURE GPRESSURE VOLUME PRESSAVG GPRESSAVG
ENERGY: 0 0.8202 4.1340 0.5296 0.0000 -10801.1533 1411.0730 0.0000 0.0000 1744.7826 -7639.8141 295.5780 -9384.5966 -7639.8141 295.5780 -346.8023 -268.8584 30274.3777 -346.8023 -268.8584
ENERGY: 300000 1.4601 5.4496 0.7520 0.0000 -10586.4459 1375.8211 0.0000 0.0000 1769.5690 -7433.3941 299.7770 -9202.9630 -7533.3668 296.2578 -422.7032 -352.6671 30892.9582 -327.7320 -261.1227
ENERGY: 600000 2.0008 8.0688 1.0234 0.0000 -10770.3072 1485.9987 0.0000 0.0000 1767.1341 -7506.0813 299.3645 -9273.2155 -7515.1923 298.6818 136.6438 172.1145 30886.5168 -149.7876 -88.6861
ENERGY: 900000 1.2770 4.6890 0.5207 0.0000 -10809.2672 1463.7103 0.0000 0.0000 1793.7498 -7545.3205 303.8734 -9339.0703 -7506.2298 299.4958 373.2818 419.9331 29898.3100 -182.7112 -120.5956
ENERGY: 1200000 0.8245 7.7714 0.8364 0.0000 -10694.9942 1450.4804 0.0000 0.0000 1764.1149 -7470.9666 298.8531 -9235.0815 -7506.4861 300.0080 244.7461 280.8259 30559.3917 -148.0720 -86.1013
ENERGY: 1500000 0.2386 3.4657 2.0852 0.0000 -10656.6949 1374.7160 0.0000 0.0000 1758.5449 -7517.6445 297.9095 -9276.1894 -7512.3387 299.7730 -551.4774 -519.7312 30898.2476 -203.1789 -140.3673
TCL: Running FEP window  19: Lambda1 0.9000000000000002 Lambda2 0.9500000000000003 [dLambda 0.050000000000000044]
TCL: Setting parameter firsttimestep to 0
TCL: Setting parameter alchLambda to 0.9000000000000002
Info: NONBONDED TABLE R-SQUARED SPACING: 0.0625
Info: NONBONDED TABLE SIZE: 705 POINTS
TCL: Setting parameter alchLambda2 to 0.9500000000000003
Info: NONBONDED TABLE R-SQUARED SPACING: 0.0625
Info: NONBONDED TABLE SIZE: 705 POINTS
TCL: Running for 1500000 steps
ETITLE: TS BOND ANGLE DIHED IMPRP ELECT VDW BOUNDARY MISC KINETIC TOTAL TEMP POTENTIAL TOTALAVG TEMPAVG PRESSURE GPRESSURE VOLUME PRESSAVG GPRESSAVG
ENERGY: 0 0.2386 3.4657 2.0852 0.0000 -10657.8573 1374.5831 0.0000 0.0000 1757.6449 -7519.8398 297.7570 -9277.4846 -7519.8398 297.7570 -602.5681 -516.1350 30898.2476 -602.5681 -516.1350
ENERGY: 300000 1.6310 6.9211 0.7426 0.0000 -10800.3720 1484.4293 0.0000 0.0000 1802.3557 -7504.2923 305.3313 -9306.6481 -7531.7099 300.5994 155.5687 203.4945 30566.9720 -222.0474 -141.9194
ENERGY: 600000 1.8496 4.3162 0.5723 0.0000 -10717.8666 1380.8387 0.0000 0.0000 1809.8000 -7520.4898 306.5924 -9330.2898 -7514.6459 302.4017 -498.5966 -411.6532 30476.7428 -95.4499 -35.1418
ENERGY: 900000 0.7700 6.0400 1.6616 0.0000 -10634.5400 1377.7039 0.0000 0.0000 1772.6309 -7475.7336 300.2957 -9248.3645 -7511.5238 303.0629 -405.9546 -342.0460 30784.7829 50.6132 114.0476
ENERGY: 1200000 1.0476 3.8709 2.0456 0.0000 -10823.2359 1457.3440 0.0000 0.0000 1730.6611 -7628.2667 293.1858 -9358.9278 -7520.9559 301.5473 -154.5832 -77.7268 30449.4980 111.3011 170.0362
ENERGY: 1500000 2.2835 3.8354 0.5187 0.0000 -10819.6348 1423.8409 0.0000 0.0000 1754.8257 -7634.3305 297.2794 -9389.1562 -7524.3112 301.4380 -607.5914 -526.6328 30573.6619 57.6744 117.2418
TCL: Running FEP window  20: Lambda1 0.9500000000000003 Lambda2 1.0    [dLambda 0.04999999999999971]
TCL: Setting parameter firsttimestep to 0
TCL: Setting parameter alchLambda to 0.9500000000000003
Info: NONBONDED TABLE R-SQUARED SPACING: 0.0625
Info: NONBONDED TABLE SIZE: 705 POINTS
TCL: Setting parameter alchLambda2 to 1.0
Info: NONBONDED TABLE R-SQUARED SPACING: 0.0625
Info: NONBONDED TABLE SIZE: 705 POINTS
TCL: Running for 1500000 steps
ETITLE: TS BOND ANGLE DIHED IMPRP ELECT VDW BOUNDARY MISC KINETIC TOTAL TEMP POTENTIAL TOTALAVG TEMPAVG PRESSURE GPRESSURE VOLUME PRESSAVG GPRESSAVG
ENERGY: 0 2.2835 3.8354 0.5187 0.0000 -10820.9085 1425.6300 0.0000 0.0000 1753.9485 -7634.6923 297.1308 -9388.6408 -7634.6923 297.1308 -598.3314 -497.5286 30573.6619 -598.3314 -497.5286
ENERGY: 300000 0.4987 7.7407 1.2739 0.0000 -10687.7310 1341.7659 0.0000 0.0000 1814.4156 -7522.0362 307.3743 -9336.4518 -7539.9076 302.9306 -916.5008 -869.3325 30739.0214 -498.4698 -425.1554
ENERGY: 600000 0.2006 5.5080 0.3092 0.0000 -10793.1078 1450.3723 0.0000 0.0000 1739.6306 -7597.0871 294.7052 -9336.7177 -7551.9227 299.4257 -161.5801 -109.8822 30583.5690 -394.9197 -320.1940
ENERGY: 900000 1.1435 8.9278 1.3635 0.0000 -10672.6082 1411.3601 0.0000 0.0000 1822.2725 -7427.5408 308.7053 -9249.8133 -7538.5593 300.9801 -12.5914 15.2434 30613.9334 -256.8146 -197.6545
ENERGY: 1200000 0.2836 5.4512 1.7223 0.0000 -10664.3857 1435.0569 0.0000 0.0000 1770.4796 -7451.3922 299.9313 -9221.8718 -7534.1180 300.8032 262.6498 253.2284 30572.6499 -126.8465 -76.6451
ENERGY: 1500000 1.3614 6.0624 1.0295 0.0000 -10860.3931 1515.3258 0.0000 0.0000 1806.3948 -7530.2191 306.0156 -9336.6139 -7532.0783 301.7010 413.7980 405.9579 30491.8970 -57.5992 -14.1866
TCL: Exiting due to exit command.
