Info: SIMULATION PARAMETERS:
Info: TIMESTEP               2
Info: NUMBER OF STEPS        0
Info: STEPS PER CYCLE        10
Info: PERIODIC CELL BASIS 1  31.5999 0 0
Info: PERIODIC CELL BASIS 2  0 30.0239 0
Info: PERIODIC CELL BASIS 3  0 0 31.872
Info: PERIODIC CELL CENTER   0 0 0
Info: WRAPPING WATERS AROUND PERIODIC BOUNDARIES ON OUTPUT.
Info: WRAPPING ALL CLUSTERS AROUND PERIODIC BOUNDARIES ON OUTPUT.
Info: FIRST LDB TIMESTEP     50
Info: LAST LDB TIMESTEP     -1
Info: HOM BACKGROUND SCALING 1
Info: PME BACKGROUND SCALING 1
Info: MIN ATOMS PER PATCH    40
Info: EMPTY PATCH LOAD       40 ATOMS
Info: VELOCITY FILE          mobley_5759258_equil.vel
Info: CENTER OF MASS MOVING INITIALLY? NO
Info: DIELECTRIC             1
Info: EXCLUDE                SCALED ONE-FOUR
Info: 1-4 ELECTROSTATICS SCALED BY 0.833333
Info: MODIFIED 1-4 VDW PARAMETERS WILL BE USED
Info: DCD FILENAME           mobley_5759258_prod.dcd
Info: DCD FREQUENCY          100000
Info: DCD FIRST STEP         100000
Info: DCD FILE WILL CONTAIN UNIT CELL DATA
Info: XST FILENAME           mobley_5759258_prod.xst
Info: XST FREQUENCY          100000
Info: NO VELOCITY DCD OUTPUT
Info: NO FORCE DCD OUTPUT
Info: OUTPUT FILENAME        mobley_5759258_prod
Info: BINARY OUTPUT FILES WILL BE USED
Info: RESTART FILENAME       mobley_5759258_prod.restart
Info: RESTART FREQUENCY      100000
Info: BINARY RESTART FILES WILL BE USED
Info: CUTOFF                 9
Info: PAIRLIST DISTANCE      11
Info: PAIRLIST SHRINK RATE   0.01
Info: PAIRLIST GROW RATE     0.01
Info: PAIRLIST TRIGGER       0.3
Info: PAIRLISTS PER CYCLE    2
Info: PAIRLISTS ENABLED
Info: MARGIN                 2
Info: HYDROGEN GROUP CUTOFF  2.5
Info: PATCH DIMENSION        15.5
Info: ENERGY OUTPUT STEPS    100000
Info: ENERGY EVALUATION STEPS    100000
Info: OUTPUT ENERGY PRECISION 4
Info: CROSSTERM ENERGY INCLUDED IN DIHEDRAL
Info: TIMING OUTPUT STEPS    1000000
Info: PRESSURE OUTPUT STEPS  100000
Info: ALCHEMICAL FEP ON
Info: FEP CURRENT LAMBDA VALUE     0
Info: FEP COMPARISON LAMBDA VALUE  0.05
Info: FEP INTRA-ALCHEMICAL NON-BONDED INTERACTIONS WILL BE RETAINED
Info: FEP INTRA-ALCHEMICAL BONDED INTERACTIONS WILL BE RETAINED
Info: FEP VDW SHIFTING COEFFICIENT 5
Info: FEP ELEC. ACTIVE FOR ANNIHILATED PARTICLES BETWEEN LAMBDA = 0 AND LAMBDA = 0.5
Info: FEP ELEC. ACTIVE FOR EXNIHILATED PARTICLES BETWEEN LAMBDA = 0.5 AND LAMBDA = 1
Info: FEP VDW ACTIVE FOR ANNIHILATED PARTICLES BETWEEN LAMBDA = 0 AND LAMBDA = 1
Info: FEP VDW ACTIVE FOR EXNIHILATED PARTICLES BETWEEN LAMBDA = 0 AND LAMBDA = 1
Info: FEP BOND ACTIVE FOR ANNIHILATED PARTICLES BETWEEN LAMBDA = 1 AND LAMBDA = 1
Info: FEP BOND ACTIVE FOR EXNIHILATED PARTICLES BETWEEN LAMBDA = 0 AND LAMBDA = 0
Info: LANGEVIN DYNAMICS ACTIVE
Info: LANGEVIN TEMPERATURE   300
Info: LANGEVIN USING BBK INTEGRATOR
Info: LANGEVIN DAMPING COEFFICIENT IS 1 INVERSE PS
Info: LANGEVIN DYNAMICS APPLIED TO HYDROGENS
Info: LANGEVIN PISTON PRESSURE CONTROL ACTIVE
Info:        TARGET PRESSURE IS 1.01325 BAR
Info:     OSCILLATION PERIOD IS 50 FS
Info:             DECAY TIME IS 25 FS
Info:     PISTON TEMPERATURE IS 300 K
Info:       PRESSURE CONTROL IS GROUP-BASED
Info:    INITIAL STRAIN RATE IS -0.000352978 -0.000352978 -0.000352978
Info:       CELL FLUCTUATION IS ISOTROPIC
Info: PARTICLE MESH EWALD (PME) ACTIVE
Info: PME TOLERANCE               1e-06
Info: PME EWALD COEFFICIENT       0.348832
Info: PME INTERPOLATION ORDER     4
Info: PME GRID DIMENSIONS         32 32 32
Info: PME MAXIMUM GRID SPACING    1
Info: PME CALCULATION WILL BE PERFORMED ON GPU
Info: FULL ELECTROSTATIC EVALUATION FREQUENCY      2
Info: USING VERLET I (r-RESPA) MTS SCHEME.
Info: C1 SPLITTING OF LONG RANGE ELECTROSTATICS
Info: PLACING ATOMS IN PATCHES BY HYDROGEN GROUPS
Info: RIGID BONDS TO HYDROGEN : ALL
Info:         ERROR TOLERANCE : 1e-08
Info:          MAX ITERATIONS : 100
Info: RIGID WATER USING SETTLE ALGORITHM
Info: RANDOM NUMBER SEED     1743921362
Info: USE HYDROGEN BONDS?    NO
Info: Using AMBER format force field!
Info: AMBER PARM FILE        mobley_5759258.prmtop
Info: COORDINATE PDB         mobley_5759258.pdb
Info: Exclusions will be read from PARM file!
Info: SCNB (VDW SCALING)     2
Info: USING ARITHMETIC MEAN TO COMBINE L-J SIGMA PARAMETERS
Info: BINARY COORDINATES     mobley_5759258_equil.coor
Info: SUMMARY OF PARAMETERS:
Info: 7 BONDS
Info: 8 ANGLES
Info:   8 HARMONIC
Info:   0 COSINE-BASED
Info: 9 DIHEDRAL
Info: 0 IMPROPER
Info: 0 CROSSTERM
Info: 0 VDW
Info: 21 VDW_PAIRS
Info: 0 NBTHOLE_PAIRS
Info: To read alchdata from file: mobley_5759258.pdb
Info: To read alchflag data from column: 5
Info: STRUCTURE SUMMARY:
Info: 2958 ATOMS
Info: 2957 BONDS
Info: 31 ANGLES
Info: 46 DIHEDRALS
Info: 0 IMPROPERS
Info: 0 CROSSTERMS
Info: 3027 EXCLUSIONS
Info: 2952 RIGID BONDS
Info: ALCH: 0 ATOMS TO DISAPPEAR IN FINAL STATE
Info: ALCH: 18 ATOMS TO APPEAR IN FINAL STATE
Info: 5922 DEGREES OF FREEDOM
Info: 986 HYDROGEN GROUPS
Info: 4 ATOMS IN LARGEST HYDROGEN GROUP
Info: 986 MIGRATION GROUPS
Info: 4 ATOMS IN LARGEST MIGRATION GROUP
Info: TOTAL MASS = 17743.8 amu
Info: TOTAL CHARGE = -0.00010002 e
Info: MASS DENSITY = 0.974415 g/cm^3
Info: ATOM DENSITY = 0.0978218 atoms/A^3
Info: ADDED 0 IMPLICIT EXCLUSIONS
Info: NONBONDED TABLE R-SQUARED SPACING: 0.0625
Info: NONBONDED TABLE SIZE: 705 POINTS
Info: REMOVING COM VELOCITY 0.0145977 -0.00194731 0.155821
Info: Use 3D box decompostion in PME FFT.
Info: Updated CUDA force table with 4096 elements.
Info: Updated CUDA LJ table with 6 x 6 elements.
Info: Found 21 unique exclusion lists needing 56 bytes
TCL: Running for 1500000 steps
ETITLE: TS BOND ANGLE DIHED IMPRP ELECT VDW BOUNDARY MISC KINETIC TOTAL TEMP POTENTIAL TOTALAVG TEMPAVG PRESSURE GPRESSURE VOLUME PRESSAVG GPRESSAVG
ENERGY: 0 1.5028 4.8966 2.9303 0.0000 -10702.2025 1425.8827 0.0000 0.0000 1728.2580 -7538.7321 293.7180 -9266.9901 -7538.7321 293.7180 -144.7921 -40.3822 30238.6738 -144.7921 -40.3822
ENERGY: 300000 1.1942 9.6620 2.8298 0.0000 -10755.4584 1463.5923 0.0000 0.0000 1785.4613 -7492.7188 303.4397 -9278.1801 -7503.0245 300.0481 197.6044 212.4129 30144.1054 -181.9063 -120.3144
ENERGY: 600000 1.9122 12.2696 3.4322 0.0000 -10811.3930 1459.8020 0.0000 0.0000 1762.0474 -7571.9296 299.4605 -9333.9770 -7524.3442 298.1368 -146.1439 -94.0165 30033.4096 -135.3517 -67.1010
ENERGY: 900000 2.0286 7.6839 4.1096 0.0000 -10733.6008 1456.7981 0.0000 0.0000 1757.9591 -7505.0216 298.7657 -9262.9806 -7515.2384 299.0767 -12.1671 77.6835 30184.4571 45.7723 110.4561
ENERGY: 1200000 0.6495 5.1316 3.0769 0.0000 -10924.8186 1551.6615 0.0000 0.0000 1772.8484 -7591.4508 301.2961 -9364.2992 -7516.0931 298.5555 577.2695 716.2107 29805.0370 -136.1392 -60.8936
ENERGY: 1500000 4.7333 8.0534 2.2771 0.0000 -10645.6164 1398.9253 0.0000 0.0000 1764.2672 -7467.3602 299.8378 -9231.6273 -7504.1443 299.3707 -436.5275 -318.3411 30235.1831 -161.2566 -85.4279
TCL: Running FEP window   2: Lambda1 0.05   Lambda2 0.1    [dLambda 0.05  ]
TCL: Setting parameter firsttimestep to 0
TCL: Setting parameter alchLambda to 0.05
Info: NONBONDED TABLE R-SQUARED SPACING: 0.0625
Info: NONBONDED TABLE SIZE: 705 POINTS
TCL: Setting parameter alchLambda2 to 0.1
Info: NONBONDED TABLE R-SQUARED SPACING: 0.0625
Info: NONBONDED TABLE SIZE: 705 POINTS
TCL: Running for 1500000 steps
ETITLE: TS BOND ANGLE DIHED IMPRP ELECT VDW BOUNDARY MISC KINETIC TOTAL TEMP POTENTIAL TOTALAVG TEMPAVG PRESSURE GPRESSURE VOLUME PRESSAVG GPRESSAVG
ENERGY: 0 4.7333 8.0534 2.2771 0.0000 -10645.6170 1401.3571 0.0000 0.0000 1763.4045 -7465.7916 299.6911 -9229.1961 -7465.7916 299.6911 -390.7092 -311.7481 30235.1831 -390.7092 -311.7481
ENERGY: 300000 0.4993 8.8454 3.0939 0.0000 -10580.1507 1430.2975 0.0000 0.0000 1718.3142 -7419.1003 292.0280 -9137.4145 -7478.3860 296.2717 210.6010 271.0652 30289.7928 -264.9761 -181.6563
ENERGY: 600000 2.2648 10.3756 2.8629 0.0000 -10691.2681 1467.7257 0.0000 0.0000 1758.1517 -7449.8874 298.7984 -9208.0391 -7460.2692 298.2572 252.5904 379.0090 30403.3199 -144.9433 -76.2322
ENERGY: 900000 1.9094 7.0697 3.2883 0.0000 -10721.5274 1492.2020 0.0000 0.0000 1749.0775 -7467.9806 297.2563 -9217.0580 -7448.9522 299.8626 215.8640 276.9110 30423.9604 -164.4638 -100.9123
ENERGY: 1200000 0.9864 9.2679 3.4622 0.0000 -10764.3481 1448.2055 0.0000 0.0000 1821.1127 -7481.3134 309.4987 -9302.4261 -7454.0004 300.3309 100.5757 206.8560 29873.9894 -113.4600 -44.6147
ENERGY: 1500000 1.3093 6.4471 3.5699 0.0000 -10749.3858 1484.3134 0.0000 0.0000 1815.8888 -7437.8573 308.6109 -9253.7461 -7458.9344 301.1880 214.7957 317.3324 30530.9392 -111.2726 -40.2477
TCL: Running FEP window   3: Lambda1 0.1    Lambda2 0.15000000000000002 [dLambda 0.05000000000000002]
TCL: Setting parameter firsttimestep to 0
TCL: Setting parameter alchLambda to 0.1
Info: NONBONDED TABLE R-SQUARED SPACING: 0.0625
Info: NONBONDED TABLE SIZE: 705 POINTS
TCL: Setting parameter alchLambda2 to 0.15000000000000002
Info: NONBONDED TABLE R-SQUARED SPACING: 0.0625
Info: NONBONDED TABLE SIZE: 705 POINTS
TCL: Running for 1500000 steps
ETITLE: TS BOND ANGLE DIHED IMPRP ELECT VDW BOUNDARY MISC KINETIC TOTAL TEMP POTENTIAL TOTALAVG TEMPAVG PRESSURE GPRESSURE VOLUME PRESSAVG GPRESSAVG
ENERGY: 0 1.3093 6.4471 3.5699 0.0000 -10749.3855 1484.1768 0.0000 0.0000 1815.0324 -7438.8501 308.4653 -9253.8824 -7438.8501 308.4653 216.2650 318.7246 30530.9392 216.2650 318.7246
ENERGY: 300000 1.0294 13.6039 3.5975 0.0000 -10692.0426 1449.8985 0.0000 0.0000 1740.3485 -7483.5647 295.7728 -9223.9132 -7472.9221 300.1975 58.3894 98.3700 30318.4453 152.1976 218.7788
ENERGY: 600000 0.9264 6.8687 4.4095 0.0000 -10623.0483 1451.2001 0.0000 0.0000 1747.7245 -7411.9190 297.0263 -9159.6434 -7445.5684 301.5692 224.0255 312.0903 30338.7933 139.7127 199.1404
ENERGY: 900000 1.0799 7.6124 6.0944 0.0000 -10733.2064 1475.2693 0.0000 0.0000 1698.8503 -7544.3001 288.7201 -9243.1504 -7437.9748 302.8226 610.8912 668.1981 29690.6666 72.4642 129.7985
ENERGY: 1200000 1.9042 6.5756 4.8720 0.0000 -10716.7620 1498.7689 0.0000 0.0000 1747.9128 -7456.7284 297.0583 -9204.6412 -7443.0962 301.9307 720.8536 770.6453 30033.9836 141.8272 195.0235
ENERGY: 1500000 0.2544 7.9990 2.8976 0.0000 -10721.1205 1460.8060 0.0000 0.0000 1753.8034 -7495.3601 298.0594 -9249.1635 -7456.6951 301.3379 16.9036 76.3971 30522.2578 86.5327 138.8339
TCL: Running FEP window   4: Lambda1 0.15000000000000002 Lambda2 0.2    [dLambda 0.04999999999999999]
TCL: Setting parameter firsttimestep to 0
TCL: Setting parameter alchLambda to 0.15000000000000002
Info: NONBONDED TABLE R-SQUARED SPACING: 0.0625
Info: NONBONDED TABLE SIZE: 705 POINTS
TCL: Setting parameter alchLambda2 to 0.2
Info: NONBONDED TABLE R-SQUARED SPACING: 0.0625
Info: NONBONDED TABLE SIZE: 705 POINTS
TCL: Running for 1500000 steps
ETITLE: TS BOND ANGLE DIHED IMPRP ELECT VDW BOUNDARY MISC KINETIC TOTAL TEMP POTENTIAL TOTALAVG TEMPAVG PRESSURE GPRESSURE VOLUME PRESSAVG GPRESSAVG
ENERGY: 0 0.2544 7.9990 2.8976 0.0000 -10721.1204 1461.2238 0.0000 0.0000 1752.9174 -7495.8281 297.9089 -9248.7455 -7495.8281 297.9089 5.1304 81.5750 30522.2578 5.1304 81.5750
ENERGY: 300000 4.0495 8.4321 2.6506 0.0000 -10589.3991 1351.9953 0.0000 0.0000 1724.4043 -7497.8674 293.0631 -9222.2717 -7488.7267 296.5738 -762.2922 -692.6090 30300.8346 -530.1332 -467.3077
ENERGY: 600000 0.8448 10.0194 3.5603 0.0000 -10652.0194 1395.3460 0.0000 0.0000 1801.3807 -7440.8683 306.1452 -9242.2490 -7488.3506 298.4407 -335.0652 -220.6919 30281.1291 -507.0018 -433.8197
ENERGY: 900000 3.3893 7.7966 3.7208 0.0000 -10659.7922 1394.8079 0.0000 0.0000 1784.0151 -7466.0625 303.1939 -9250.0777 -7488.6451 298.5922 -574.4765 -494.9742 30381.5831 -439.4542 -365.2524
ENERGY: 1200000 0.7984 7.4715 1.9135 0.0000 -10709.2330 1464.3075 0.0000 0.0000 1755.2394 -7479.5027 298.3035 -9234.7421 -7479.3426 298.9659 315.5076 383.3300 29966.3130 -454.0745 -377.7797
ENERGY: 1500000 1.4364 9.3272 3.2820 0.0000 -10663.9366 1437.0879 0.0000 0.0000 1781.5544 -7431.2487 302.7757 -9212.8031 -7473.1333 299.8760 151.3113 209.4726 29993.0117 -294.0002 -220.6256
TCL: Running FEP window   5: Lambda1 0.2    Lambda2 0.25   [dLambda 0.04999999999999999]
TCL: Setting parameter firsttimestep to 0
TCL: Setting parameter alchLambda to 0.2
Info: NONBONDED TABLE R-SQUARED SPACING: 0.0625
Info: NONBONDED TABLE SIZE: 705 POINTS
TCL: Setting parameter alchLambda2 to 0.25
Info: NONBONDED TABLE R-SQUARED SPACING: 0.0625
Info: NONBONDED TABLE SIZE: 705 POINTS
TCL: Running for 1500000 steps
ETITLE: TS BOND ANGLE DIHED IMPRP ELECT VDW BOUNDARY MISC KINETIC TOTAL TEMP POTENTIAL TOTALAVG TEMPAVG PRESSURE GPRESSURE VOLUME PRESSAVG GPRESSAVG
ENERGY: 0 1.4364 9.3273 3.2820 0.0000 -10663.9357 1438.2043 0.0000 0.0000 1780.7157 -7430.9700 302.6332 -9211.6858 -7430.9700 302.6332 143.9119 218.6528 29993.0117 143.9119 218.6528
ENERGY: 300000 0.6056 9.1030 3.1605 0.0000 -10790.0803 1515.3848 0.0000 0.0000 1783.7977 -7478.0286 303.1570 -9261.8263 -7454.5432 301.2869 753.1065 723.4299 29932.0460 286.8046 305.6796
ENERGY: 600000 0.1650 8.0912 3.2885 0.0000 -10636.2211 1385.6325 0.0000 0.0000 1784.6954 -7454.3487 303.3095 -9239.0440 -7475.8100 302.2136 -611.0272 -472.5025 30679.3038 60.2616 115.5428
ENERGY: 900000 2.7283 7.0665 2.7917 0.0000 -10700.5541 1409.6975 0.0000 0.0000 1743.6989 -7534.5712 296.3422 -9278.2702 -7496.3275 300.5924 -354.0216 -312.3623 30390.1307 3.6197 64.1569
ENERGY: 1200000 2.0812 7.6281 1.8246 0.0000 -10731.7241 1408.8230 0.0000 0.0000 1784.3146 -7527.0526 303.2448 -9311.3672 -7495.9254 300.6670 -473.2336 -404.1695 30182.8766 -2.2943 56.9587
ENERGY: 1500000 2.0025 6.1729 3.1084 0.0000 -10739.0291 1453.4507 0.0000 0.0000 1830.5960 -7443.6986 311.1104 -9274.2946 -7496.2215 300.7222 448.2396 471.6540 29747.6691 -61.6945 -1.6485
TCL: Running FEP window   6: Lambda1 0.25   Lambda2 0.3    [dLambda 0.04999999999999999]
TCL: Setting parameter firsttimestep to 0
TCL: Setting parameter alchLambda to 0.25
Info: NONBONDED TABLE R-SQUARED SPACING: 0.0625
Info: NONBONDED TABLE SIZE: 705 POINTS
TCL: Setting parameter alchLambda2 to 0.3
Info: NONBONDED TABLE R-SQUARED SPACING: 0.0625
Info: NONBONDED TABLE SIZE: 705 POINTS
TCL: Running for 1500000 steps
ETITLE: TS BOND ANGLE DIHED IMPRP ELECT VDW BOUNDARY MISC KINETIC TOTAL TEMP POTENTIAL TOTALAVG TEMPAVG PRESSURE GPRESSURE VOLUME PRESSAVG GPRESSAVG
ENERGY: 0 2.0025 6.1729 3.1084 0.0000 -10739.0289 1453.8239 0.0000 0.0000 1829.7031 -7444.2181 310.9586 -9273.9212 -7444.2181 310.9586 408.5698 476.8388 29747.6691 408.5698 476.8388
ENERGY: 300000 0.6378 10.7636 2.5304 0.0000 -10574.3536 1373.6621 0.0000 0.0000 1787.5365 -7399.2232 303.7924 -9186.7597 -7421.5810 305.7564 -402.2762 -305.7323 30493.0604 -127.3399 -73.4921
ENERGY: 600000 4.1314 8.2728 2.5199 0.0000 -10626.6899 1389.1776 0.0000 0.0000 1760.9324 -7461.6558 299.2710 -9222.5882 -7458.1760 302.8903 -358.2784 -310.2496 30046.1752 -197.4745 -139.0039
ENERGY: 900000 1.2924 9.1193 2.3115 0.0000 -10657.7003 1369.2219 0.0000 0.0000 1779.6483 -7496.1068 302.4518 -9275.7552 -7468.8729 301.8493 -664.4283 -628.0422 30185.2405 -123.4821 -63.3655
ENERGY: 1200000 0.6974 7.7998 3.8399 0.0000 -10708.8293 1442.9927 0.0000 0.0000 1743.7040 -7509.7955 296.3430 -9253.4995 -7471.6630 301.8083 -43.9813 -11.9748 30205.7229 3.7550 59.2313
ENERGY: 1500000 1.0305 8.4686 2.1725 0.0000 -10589.8032 1382.5744 0.0000 0.0000 1776.0976 -7419.4597 301.8483 -9195.5573 -7469.3357 301.6332 -491.4599 -431.3628 30765.5567 -81.8383 -26.0801
TCL: Running FEP window   7: Lambda1 0.3    Lambda2 0.35   [dLambda 0.04999999999999999]
TCL: Setting parameter firsttimestep to 0
TCL: Setting parameter alchLambda to 0.3
Info: NONBONDED TABLE R-SQUARED SPACING: 0.0625
Info: NONBONDED TABLE SIZE: 705 POINTS
TCL: Setting parameter alchLambda2 to 0.35
Info: NONBONDED TABLE R-SQUARED SPACING: 0.0625
Info: NONBONDED TABLE SIZE: 705 POINTS
TCL: Running for 1500000 steps
ETITLE: TS BOND ANGLE DIHED IMPRP ELECT VDW BOUNDARY MISC KINETIC TOTAL TEMP POTENTIAL TOTALAVG TEMPAVG PRESSURE GPRESSURE VOLUME PRESSAVG GPRESSAVG
ENERGY: 0 1.0305 8.4686 2.1725 0.0000 -10589.8024 1382.4694 0.0000 0.0000 1775.2116 -7420.4500 301.6978 -9195.6616 -7420.4500 301.6978 -536.1403 -430.2585 30765.5567 -536.1403 -430.2585
ENERGY: 300000 3.8088 5.2528 3.2356 0.0000 -10717.6816 1416.7666 0.0000 0.0000 1800.7925 -7487.8253 306.0453 -9288.6178 -7427.6614 304.8764 -415.9327 -390.2938 30267.1211 -198.0697 -146.4212
ENERGY: 600000 1.5214 6.4252 3.5380 0.0000 -10724.5319 1463.4545 0.0000 0.0000 1809.9482 -7439.6446 307.6013 -9249.5928 -7429.2109 303.6138 231.5190 289.3879 30259.9319 -128.8364 -87.3371
ENERGY: 900000 1.3102 7.8309 3.9882 0.0000 -10785.0191 1479.6970 0.0000 0.0000 1700.1481 -7592.0447 288.9407 -9292.1928 -7450.7176 301.0642 213.9541 258.3459 29931.2168 41.4313 84.4230
ENERGY: 1200000 1.1831 13.4299 2.1230 0.0000 -10781.1603 1537.4099 0.0000 0.0000 1756.0077 -7471.0067 298.4341 -9227.0144 -7464.0472 300.8043 680.5080 785.2014 30509.3409 116.0604 162.5726
ENERGY: 1500000 2.2752 8.2794 2.4679 0.0000 -10682.5335 1423.8523 0.0000 0.0000 1817.4116 -7428.2470 308.8697 -9245.6586 -7463.8353 301.1207 -142.1677 -115.1135 30793.7240 114.9594 160.0315
TCL: Running FEP window   8: Lambda1 0.35   Lambda2 0.39999999999999997 [dLambda 0.04999999999999999]
TCL: Setting parameter firsttimestep to 0
TCL: Setting parameter alchLambda to 0.35
Info: NONBONDED TABLE R-SQUARED SPACING: 0.0625
Info: NONBONDED TABLE SIZE: 705 POINTS
TCL: Setting parameter alchLambda2 to 0.39999999999999997
Info: NONBONDED TABLE R-SQUARED SPACING: 0.0625
Info: NONBONDED TABLE SIZE: 705 POINTS
TCL: Running for 1500000 steps
ETITLE: TS BOND ANGLE DIHED IMPRP ELECT VDW BOUNDARY MISC KINETIC TOTAL TEMP POTENTIAL TOTALAVG TEMPAVG PRESSURE GPRESSURE VOLUME PRESSAVG GPRESSAVG
ENERGY: 0 2.2752 8.2794 2.4679 0.0000 -10682.5312 1424.0361 0.0000 0.0000 1816.5217 -7428.9508 308.7184 -9245.4726 -7428.9508 308.7184 -187.1457 -110.4396 30793.7240 -187.1457 -110.4396
ENERGY: 300000 0.7454 7.7278 2.5456 0.0000 -10897.2368 1517.7981 0.0000 0.0000 1770.4990 -7597.9210 300.8969 -9368.4200 -7458.2468 303.6848 303.4811 351.8955 29918.1441 156.0068 206.1653
ENERGY: 600000 1.4448 8.2579 3.2490 0.0000 -10642.2910 1417.7111 0.0000 0.0000 1743.1875 -7468.4407 296.2553 -9211.6282 -7482.9247 301.3506 -375.9212 -279.3713 30865.9528 -8.3741 64.2580
ENERGY: 900000 0.3392 12.1293 4.2229 0.0000 -10609.9675 1382.1993 0.0000 0.0000 1807.7062 -7403.3706 307.2202 -9211.0768 -7473.6844 301.9714 -372.6537 -228.9090 30410.4859 8.2697 75.5121
ENERGY: 1200000 0.8317 10.1697 3.5730 0.0000 -10762.2883 1435.9748 0.0000 0.0000 1756.7001 -7555.0390 298.5517 -9311.7390 -7475.8082 300.5805 -141.0520 -69.6147 30208.3383 -40.6307 21.2137
ENERGY: 1500000 3.0868 8.3868 2.3727 0.0000 -10609.1202 1361.5624 0.0000 0.0000 1779.6361 -7454.0754 302.4497 -9233.7115 -7474.4046 300.8738 -445.2933 -372.0276 30027.3670 -141.0425 -80.4052
TCL: Running FEP window   9: Lambda1 0.39999999999999997 Lambda2 0.44999999999999996 [dLambda 0.04999999999999999]
TCL: Setting parameter firsttimestep to 0
TCL: Setting parameter alchLambda to 0.39999999999999997
Info: NONBONDED TABLE R-SQUARED SPACING: 0.0625
Info: NONBONDED TABLE SIZE: 705 POINTS
TCL: Setting parameter alchLambda2 to 0.44999999999999996
Info: NONBONDED TABLE R-SQUARED SPACING: 0.0625
Info: NONBONDED TABLE SIZE: 705 POINTS
TCL: Running for 1500000 steps
ETITLE: TS BOND ANGLE DIHED IMPRP ELECT VDW BOUNDARY MISC KINETIC TOTAL TEMP POTENTIAL TOTALAVG TEMPAVG PRESSURE GPRESSURE VOLUME PRESSAVG GPRESSAVG
ENERGY: 0 3.0868 8.3868 2.3727 0.0000 -10609.1206 1361.5967 0.0000 0.0000 1778.7928 -7454.8849 302.3064 -9233.6777 -7454.8849 302.3064 -449.9217 -361.2714 30027.3670 -449.9217 -361.2714
ENERGY: 300000 3.7505 5.4930 2.3504 0.0000 -10758.0119 1440.6765 0.0000 0.0000 1745.2245 -7560.5171 296.6015 -9305.7416 -7464.3036 299.9840 -370.4216 -364.4253 30595.0467 -418.0104 -354.8342
ENERGY: 600000 0.7473 5.6503 3.5318 0.0000 -10756.9381 1482.2385 0.0000 0.0000 1803.8312 -7460.9389 306.5617 -9264.7701 -7467.1538 300.3849 148.9265 221.2049 30433.4425 -180.6614 -118.4208
ENERGY: 900000 0.7163 6.9851 2.8615 0.0000 -10424.6855 1318.1143 0.0000 0.0000 1711.3505 -7384.6578 290.8446 -9096.0083 -7448.3026 299.8744 -573.6797 -513.2038 30681.9993 -180.1612 -121.2052
ENERGY: 1200000 1.6652 10.5919 2.0725 0.0000 -10641.0553 1369.8993 0.0000 0.0000 1756.9680 -7499.8584 298.5973 -9256.8264 -7457.9291 299.6153 -665.9784 -605.2266 30488.0970 -224.8875 -164.9643
ENERGY: 1500000 0.5482 11.1164 2.4954 0.0000 -10647.0293 1411.8031 0.0000 0.0000 1748.9597 -7472.1065 297.2363 -9221.0662 -7465.0991 299.4083 19.8999 74.6282 30019.1743 -225.3598 -165.8534
TCL: Running FEP window  10: Lambda1 0.44999999999999996 Lambda2 0.49999999999999994 [dLambda 0.04999999999999999]
TCL: Setting parameter firsttimestep to 0
TCL: Setting parameter alchLambda to 0.44999999999999996
Info: NONBONDED TABLE R-SQUARED SPACING: 0.0625
Info: NONBONDED TABLE SIZE: 705 POINTS
TCL: Setting parameter alchLambda2 to 0.49999999999999994
Info: NONBONDED TABLE R-SQUARED SPACING: 0.0625
Info: NONBONDED TABLE SIZE: 705 POINTS
TCL: Running for 1500000 steps
ETITLE: TS BOND ANGLE DIHED IMPRP ELECT VDW BOUNDARY MISC KINETIC TOTAL TEMP POTENTIAL TOTALAVG TEMPAVG PRESSURE GPRESSURE VOLUME PRESSAVG GPRESSAVG
ENERGY: 0 0.5482 11.1164 2.4954 0.0000 -10647.0268 1411.2439 0.0000 0.0000 1748.0804 -7473.5425 297.0868 -9221.6229 -7473.5425 297.0868 -6.9774 76.9319 30019.1743 -6.9774 76.9319
ENERGY: 300000 1.6154 9.8605 4.4566 0.0000 -10598.9837 1362.1911 0.0000 0.0000 1773.1365 -7447.7238 301.3451 -9220.8602 -7469.9591 302.1112 -625.4261 -537.9569 30574.6498 -142.9930 -51.2513
ENERGY: 600000 1.0979 7.7480 3.6049 0.0000 -10756.3904 1431.8296 0.0000 0.0000 1744.6747 -7567.4353 296.5080 -9312.1100 -7491.1745 300.2036 -499.0379 -485.7930 30759.5619 -103.5870 -30.8597
ENERGY: 900000 0.4445 7.5550 2.1141 0.0000 -10792.3952 1508.3754 0.0000 0.0000 1770.0350 -7503.8713 300.8180 -9273.9063 -7484.3724 301.1465 324.8191 441.8643 30421.6975 -88.8923 -11.8841
ENERGY: 1200000 2.7694 12.0572 2.7688 0.0000 -10738.2109 1479.5768 0.0000 0.0000 1797.8896 -7443.1491 305.5519 -9241.0386 -7475.5387 301.8554 417.0532 478.0058 30433.4679 -25.9332 44.9207
ENERGY: 1500000 0.4921 5.4981 2.0794 0.0000 -10625.8368 1406.5733 0.0000 0.0000 1782.3589 -7428.8349 302.9125 -9211.1938 -7473.9134 302.3038 -222.2099 -131.5933 30392.2568 -93.3426 -25.8445
TCL: Running FEP window  11: Lambda1 0.49999999999999994 Lambda2 0.5499999999999999 [dLambda 0.04999999999999999]
TCL: Setting parameter firsttimestep to 0
TCL: Setting parameter alchLambda to 0.49999999999999994
Info: NONBONDED TABLE R-SQUARED SPACING: 0.0625
Info: NONBONDED TABLE SIZE: 705 POINTS
TCL: Setting parameter alchLambda2 to 0.5499999999999999
Info: NONBONDED TABLE R-SQUARED SPACING: 0.0625
Info: NONBONDED TABLE SIZE: 705 POINTS
TCL: Running for 1500000 steps
ETITLE: TS BOND ANGLE DIHED IMPRP ELECT VDW BOUNDARY MISC KINETIC TOTAL TEMP POTENTIAL TOTALAVG TEMPAVG PRESSURE GPRESSURE VOLUME PRESSAVG GPRESSAVG
ENERGY: 0 0.4921 5.4981 2.0794 0.0000 -10625.8372 1407.1146 0.0000 0.0000 1781.4527 -7429.2002 302.7585 -9210.6529 -7429.2002 302.7585 -203.6369 -120.1485 30392.2568 -203.6369 -120.1485
ENERGY: 300000 0.5829 5.7358 2.8421 0.0000 -10738.4276 1500.9567 0.0000 0.0000 1769.9604 -7458.3498 300.8053 -9228.3102 -7487.0217 300.6943 459.1273 553.2504 30389.0841 -96.3437 -18.2388
ENERGY: 600000 0.7523 6.8107 2.0894 0.0000 -10560.5841 1355.0652 0.0000 0.0000 1759.4819 -7436.3845 299.0245 -9195.8664 -7464.1537 299.6284 -507.6613 -418.0479 30504.7295 -199.5970 -132.8698
ENERGY: 900000 2.3895 7.5920 3.5521 0.0000 -10789.7374 1464.9742 0.0000 0.0000 1784.9732 -7526.2564 303.3568 -9311.2296 -7465.0472 300.4173 -116.8738 -40.8605 30651.8006 -80.8014 -7.9502
ENERGY: 1200000 1.2220 8.0055 7.3550 0.0000 -10635.4315 1359.4224 0.0000 0.0000 1777.5003 -7481.9263 302.0867 -9259.4266 -7456.4480 301.5615 -745.0011 -684.7308 30618.5141 14.3975 87.0863
ENERGY: 1500000 2.1288 13.8094 3.1285 0.0000 -10736.6151 1431.7890 0.0000 0.0000 1747.6479 -7538.1115 297.0133 -9285.7594 -7458.3208 301.1473 -391.8107 -277.5822 30643.2396 -9.3911 59.7697
TCL: Running FEP window  12: Lambda1 0.5499999999999999 Lambda2 0.6    [dLambda 0.050000000000000044]
TCL: Setting parameter firsttimestep to 0
TCL: Setting parameter alchLambda to 0.5499999999999999
Info: NONBONDED TABLE R-SQUARED SPACING: 0.0625
Info: NONBONDED TABLE SIZE: 705 POINTS
TCL: Setting parameter alchLambda2 to 0.6
Info: NONBONDED TABLE R-SQUARED SPACING: 0.0625
Info: NONBONDED TABLE SIZE: 705 POINTS
TCL: Running for 1500000 steps
ETITLE: TS BOND ANGLE DIHED IMPRP ELECT VDW BOUNDARY MISC KINETIC TOTAL TEMP POTENTIAL TOTALAVG TEMPAVG PRESSURE GPRESSURE VOLUME PRESSAVG GPRESSAVG
ENERGY: 0 2.1288 13.8094 3.1285 0.0000 -10736.4402 1432.4311 0.0000 0.0000 1746.7483 -7538.1940 296.8604 -9284.9423 -7538.1940 296.8604 -350.8693 -265.1073 30643.2396 -350.8693 -265.1073
ENERGY: 300000 0.8944 7.7139 3.9159 0.0000 -10586.0747 1407.9204 0.0000 0.0000 1816.0517 -7349.5784 308.6386 -9165.6300 -7456.7307 299.3349 -85.3581 1.5067 30394.9655 -241.6776 -141.5907
ENERGY: 600000 3.6726 6.3192 3.2356 0.0000 -10717.5356 1489.8980 0.0000 0.0000 1808.1704 -7406.2398 307.2991 -9214.4101 -7454.0383 301.4095 361.9720 409.9340 30360.9739 -51.4418 11.3083
ENERGY: 900000 3.0604 7.0357 3.0619 0.0000 -10882.1789 1524.2885 0.0000 0.0000 1778.2225 -7566.5099 302.2095 -9344.7324 -7471.0920 301.6493 493.2268 508.4233 30072.9079 -9.7112 47.8550
ENERGY: 1200000 4.9118 7.2366 1.8720 0.0000 -10696.2393 1458.6054 0.0000 0.0000 1754.2898 -7469.3237 298.1421 -9223.6135 -7481.4649 300.3022 46.5524 90.4039 30505.8195 42.5096 95.7375
ENERGY: 1500000 2.1960 7.7945 2.3990 0.0000 -10724.1023 1474.6543 0.0000 0.0000 1721.6479 -7515.4106 292.5946 -9237.0584 -7485.3092 299.7972 137.6666 235.7718 30418.5323 -26.8876 23.3669
TCL: Running FEP window  13: Lambda1 0.6    Lambda2 0.65   [dLambda 0.050000000000000044]
TCL: Setting parameter firsttimestep to 0
TCL: Setting parameter alchLambda to 0.6
Info: NONBONDED TABLE R-SQUARED SPACING: 0.0625
Info: NONBONDED TABLE SIZE: 705 POINTS
TCL: Setting parameter alchLambda2 to 0.65
Info: NONBONDED TABLE R-SQUARED SPACING: 0.0625
Info: NONBONDED TABLE SIZE: 705 POINTS
TCL: Running for 1500000 steps
ETITLE: TS BOND ANGLE DIHED IMPRP ELECT VDW BOUNDARY MISC KINETIC TOTAL TEMP POTENTIAL TOTALAVG TEMPAVG PRESSURE GPRESSURE VOLUME PRESSAVG GPRESSAVG
ENERGY: 0 2.1960 7.7945 2.3990 0.0000 -10724.1215 1474.5177 0.0000 0.0000 1720.7769 -7516.4374 292.4466 -9237.2143 -7516.4374 292.4466 151.1762 244.7936 30418.5323 151.1762 244.7936
ENERGY: 300000 0.5817 5.3290 4.5825 0.0000 -10835.7907 1535.9219 0.0000 0.0000 1775.4511 -7513.9244 301.7385 -9289.3755 -7491.0328 298.8836 652.3347 826.2197 30172.5652 -81.3271 20.5492
ENERGY: 600000 2.2868 9.0137 4.3881 0.0000 -10629.3996 1455.3030 0.0000 0.0000 1768.6663 -7389.7418 300.5854 -9158.4081 -7463.6797 300.4642 375.3945 496.2157 30271.3058 111.2936 196.7644
ENERGY: 900000 2.3749 11.1364 3.7161 0.0000 -10645.5868 1436.6080 0.0000 0.0000 1730.9945 -7460.7570 294.1831 -9191.7514 -7467.7451 299.4844 -106.5574 -52.7782 30693.7713 42.2960 118.3552
ENERGY: 1200000 1.0908 6.3684 2.8427 0.0000 -10636.1548 1425.9835 0.0000 0.0000 1773.6136 -7426.2559 301.4262 -9199.8695 -7473.1332 299.3129 -273.6075 -211.7722 30815.2970 -9.7867 63.4795
ENERGY: 1500000 0.1732 8.8840 2.0656 0.0000 -10705.5365 1381.3915 0.0000 0.0000 1778.1585 -7534.8638 302.1986 -9313.0222 -7479.2405 299.1392 -373.6699 -320.1558 30072.8123 9.7988 78.4933
TCL: Running FEP window  14: Lambda1 0.65   Lambda2 0.7000000000000001 [dLambda 0.050000000000000044]
TCL: Setting parameter firsttimestep to 0
TCL: Setting parameter alchLambda to 0.65
Info: NONBONDED TABLE R-SQUARED SPACING: 0.0625
Info: NONBONDED TABLE SIZE: 705 POINTS
TCL: Setting parameter alchLambda2 to 0.7000000000000001
Info: NONBONDED TABLE R-SQUARED SPACING: 0.0625
Info: NONBONDED TABLE SIZE: 705 POINTS
TCL: Running for 1500000 steps
ETITLE: TS BOND ANGLE DIHED IMPRP ELECT VDW BOUNDARY MISC KINETIC TOTAL TEMP POTENTIAL TOTALAVG TEMPAVG PRESSURE GPRESSURE VOLUME PRESSAVG GPRESSAVG
ENERGY: 0 0.1732 8.8840 2.0656 0.0000 -10705.8112 1381.5151 0.0000 0.0000 1777.2545 -7535.9188 302.0450 -9313.1733 -7535.9188 302.0450 -384.3894 -308.3374 30072.8123 -384.3894 -308.3374
ENERGY: 300000 3.0827 6.5652 3.8435 0.0000 -10593.4817 1382.5722 0.0000 0.0000 1756.7820 -7440.6361 298.5657 -9197.4181 -7504.4374 298.1862 -607.1685 -554.9552 31036.5746 -657.2906 -599.5300
ENERGY: 600000 0.3373 7.1815 2.9129 0.0000 -10673.2412 1404.4521 0.0000 0.0000 1746.6362 -7511.7211 296.8414 -9258.3573 -7510.7049 296.9002 -215.8645 -196.0241 30507.8509 -505.5073 -461.7185
ENERGY: 900000 4.6601 4.9293 2.0508 0.0000 -10832.8135 1576.5677 0.0000 0.0000 1760.3391 -7484.2665 299.1702 -9244.6056 -7491.8107 298.2720 1240.1772 1278.1325 30102.9055 -238.3891 -195.2800
ENERGY: 1200000 0.3287 7.5920 2.7951 0.0000 -10755.9848 1462.9865 0.0000 0.0000 1764.0537 -7518.2289 299.8015 -9282.2826 -7499.7844 298.7997 52.3735 92.9509 30567.7065 -177.6145 -134.9685
ENERGY: 1500000 1.2657 5.8508 2.1736 0.0000 -10691.8758 1424.6631 0.0000 0.0000 1820.8235 -7437.0990 309.4495 -9257.9225 -7487.2874 300.2772 -142.6124 -54.6794 30620.4839 -150.6994 -99.6383
TCL: Running FEP window  15: Lambda1 0.7000000000000001 Lambda2 0.7500000000000001 [dLambda 0.050000000000000044]
TCL: Setting parameter firsttimestep to 0
TCL: Setting parameter alchLambda to 0.7000000000000001
Info: NONBONDED TABLE R-SQUARED SPACING: 0.0625
Info: NONBONDED TABLE SIZE: 705 POINTS
TCL: Setting parameter alchLambda2 to 0.7500000000000001
Info: NONBONDED TABLE R-SQUARED SPACING: 0.0625
Info: NONBONDED TABLE SIZE: 705 POINTS
TCL: Running for 1500000 steps
ETITLE: TS BOND ANGLE DIHED IMPRP ELECT VDW BOUNDARY MISC KINETIC TOTAL TEMP POTENTIAL TOTALAVG TEMPAVG PRESSURE GPRESSURE VOLUME PRESSAVG GPRESSAVG
ENERGY: 0 1.2657 5.8508 2.1736 0.0000 -10692.3855 1426.5895 0.0000 0.0000 1819.9191 -7436.5868 309.2958 -9256.5059 -7436.5868 309.2958 -116.2365 -26.5530 30620.4839 -116.2365 -26.5530
ENERGY: 300000 3.4064 7.4301 3.3021 0.0000 -10720.9622 1430.7646 0.0000 0.0000 1750.1916 -7525.8673 297.4456 -9276.0589 -7486.5787 303.4828 -77.5319 -66.3310 30447.7172 -246.5013 -198.6901
ENERGY: 600000 3.3808 7.5389 2.2951 0.0000 -10669.2034 1431.9650 0.0000 0.0000 1795.2788 -7428.7448 305.1082 -9224.0236 -7483.6265 301.5980 318.8860 338.9224 29961.3420 -61.3038 -24.5244
ENERGY: 900000 1.1741 9.6100 2.5535 0.0000 -10595.8265 1341.4065 0.0000 0.0000 1800.3229 -7440.7596 305.9654 -9241.0825 -7475.0023 300.6187 -968.3914 -836.6007 30707.9740 -169.7154 -126.9784
ENERGY: 1200000 2.0236 9.7842 3.7879 0.0000 -10665.3284 1431.8174 0.0000 0.0000 1750.9489 -7466.9664 297.5743 -9217.9153 -7482.0849 300.1484 83.1890 144.4147 30371.3758 -159.2441 -115.8865
ENERGY: 1500000 0.9242 9.3085 2.9076 0.0000 -10769.5322 1446.2101 0.0000 0.0000 1772.5159 -7537.6659 301.2396 -9310.1818 -7487.8833 299.9436 41.3497 136.0834 30199.2623 -171.9049 -122.9553
TCL: Running FEP window  16: Lambda1 0.7500000000000001 Lambda2 0.8000000000000002 [dLambda 0.050000000000000044]
TCL: Setting parameter firsttimestep to 0
TCL: Setting parameter alchLambda to 0.7500000000000001
Info: NONBONDED TABLE R-SQUARED SPACING: 0.0625
Info: NONBONDED TABLE SIZE: 705 POINTS
TCL: Setting parameter alchLambda2 to 0.8000000000000002
Info: NONBONDED TABLE R-SQUARED SPACING: 0.0625
Info: NONBONDED TABLE SIZE: 705 POINTS
TCL: Running for 1500000 steps
ETITLE: TS BOND ANGLE DIHED IMPRP ELECT VDW BOUNDARY MISC KINETIC TOTAL TEMP POTENTIAL TOTALAVG TEMPAVG PRESSURE GPRESSURE VOLUME PRESSAVG GPRESSAVG
ENERGY: 0 0.9242 9.3085 2.9076 0.0000 -10770.5776 1446.3281 0.0000 0.0000 1771.6271 -7539.4820 301.0886 -9311.1092 -7539.4820 301.0886 52.2275 142.8490 30199.2623 52.2275 142.8490
ENERGY: 300000 1.2875 4.2511 2.2653 0.0000 -10708.8228 1428.9614 0.0000 0.0000 1713.9609 -7558.0967 291.2882 -9272.0575 -7541.7390 295.3272 -194.7935 -157.3683 30294.6014 -45.1672 -1.6516
ENERGY: 600000 0.3800 6.1288 3.3162 0.0000 -10742.7519 1463.7376 0.0000 0.0000 1727.6183 -7541.5710 293.6093 -9269.1893 -7544.0486 297.3745 265.3925 315.5928 30391.0295 -20.1428 23.3322
ENERGY: 900000 0.9746 12.7292 2.6019 0.0000 -10742.4413 1444.7787 0.0000 0.0000 1811.9584 -7469.3985 307.9429 -9281.3570 -7541.8897 297.7688 -30.7318 26.2279 30359.4904 224.9557 269.9308
ENERGY: 1200000 0.1078 8.6917 2.1711 0.0000 -10786.4556 1420.8635 0.0000 0.0000 1757.8318 -7596.7897 298.7441 -9354.6215 -7531.5943 298.7839 -238.5117 -167.8445 29871.8803 68.5364 125.2110
ENERGY: 1500000 0.6809 7.6489 2.5393 0.0000 -10620.2684 1399.6865 0.0000 0.0000 1794.8701 -7414.8426 305.0388 -9209.7128 -7519.8391 298.8607 -179.5634 -117.1354 30854.4713 28.9410 82.1227
TCL: Running FEP window  17: Lambda1 0.8000000000000002 Lambda2 0.8500000000000002 [dLambda 0.050000000000000044]
TCL: Setting parameter firsttimestep to 0
TCL: Setting parameter alchLambda to 0.8000000000000002
Info: NONBONDED TABLE R-SQUARED SPACING: 0.0625
Info: NONBONDED TABLE SIZE: 705 POINTS
TCL: Setting parameter alchLambda2 to 0.8500000000000002
Info: NONBONDED TABLE R-SQUARED SPACING: 0.0625
Info: NONBONDED TABLE SIZE: 705 POINTS
TCL: Running for 1500000 steps
ETITLE: TS BOND ANGLE DIHED IMPRP ELECT VDW BOUNDARY MISC KINETIC TOTAL TEMP POTENTIAL TOTALAVG TEMPAVG PRESSURE GPRESSURE VOLUME PRESSAVG GPRESSAVG
ENERGY: 0 0.6809 7.6489 2.5393 0.0000 -10621.8350 1400.4713 0.0000 0.0000 1793.9393 -7416.5553 304.8806 -9210.4946 -7416.5553 304.8806 -175.5039 -100.6268 30854.4713 -175.5039 -100.6268
ENERGY: 300000 0.8508 5.7388 2.6368 0.0000 -10474.2418 1366.8973 0.0000 0.0000 1795.6039 -7302.5141 305.1635 -9098.1180 -7451.4299 297.8832 -327.1062 -287.3215 30882.8245 -106.5771 -46.7609
ENERGY: 600000 1.9287 9.2519 4.2936 0.0000 -10724.0760 1502.1401 0.0000 0.0000 1780.4010 -7426.0608 302.5797 -9206.4617 -7467.3337 298.7841 681.4788 761.8502 30365.8986 6.4301 82.5634
ENERGY: 900000 2.8066 4.4902 2.9301 0.0000 -10751.5044 1466.3238 0.0000 0.0000 1730.3006 -7544.6530 294.0651 -9274.9537 -7464.5766 300.0219 50.2139 131.1701 30120.9655 -125.3812 -46.5870
ENERGY: 1200000 0.5824 7.6329 1.7997 0.0000 -10657.6753 1412.2581 0.0000 0.0000 1802.1129 -7433.2894 306.2697 -9235.4023 -7460.8123 300.7975 -190.8581 -140.8018 30684.2457 -137.2673 -73.5950
ENERGY: 1500000 1.2609 8.2679 3.2784 0.0000 -10676.6639 1425.8502 0.0000 0.0000 1789.6287 -7448.3778 304.1480 -9238.0065 -7458.6327 300.7763 -141.6933 -91.9447 30609.9861 -87.8103 -25.9481
TCL: Running FEP window  18: Lambda1 0.8500000000000002 Lambda2 0.9000000000000002 [dLambda 0.050000000000000044]
TCL: Setting parameter firsttimestep to 0
TCL: Setting parameter alchLambda to 0.8500000000000002
Info: NONBONDED TABLE R-SQUARED SPACING: 0.0625
Info: NONBONDED TABLE SIZE: 705 POINTS
TCL: Setting parameter alchLambda2 to 0.9000000000000002
Info: NONBONDED TABLE R-SQUARED SPACING: 0.0625
Info: NONBONDED TABLE SIZE: 705 POINTS
TCL: Running for 1500000 steps
ETITLE: TS BOND ANGLE DIHED IMPRP ELECT VDW BOUNDARY MISC KINETIC TOTAL TEMP POTENTIAL TOTALAVG TEMPAVG PRESSURE GPRESSURE VOLUME PRESSAVG GPRESSAVG
ENERGY: 0 1.2609 8.2679 3.2784 0.0000 -10678.2094 1426.6542 0.0000 0.0000 1788.7711 -7449.9771 304.0022 -9238.7482 -7449.9771 304.0022 -150.8733 -81.2880 30609.9861 -150.8733 -81.2880
ENERGY: 300000 2.4489 7.7924 2.5468 0.0000 -10732.3521 1479.6277 0.0000 0.0000 1820.7576 -7419.1785 309.4383 -9239.9362 -7465.8129 306.4434 185.7454 260.2106 30593.5484 104.7408 191.0656
ENERGY: 600000 0.3886 12.7116 2.8352 0.0000 -10683.9383 1441.7857 0.0000 0.0000 1739.5277 -7486.6895 295.6333 -9226.2172 -7463.5986 304.8294 -13.9317 99.9615 30342.5767 80.0794 175.1585
ENERGY: 900000 2.0299 3.9235 2.8730 0.0000 -10578.0693 1327.2300 0.0000 0.0000 1732.3012 -7509.7117 294.4051 -9242.0129 -7473.4649 303.2574 -1126.4272 -1151.2611 31104.9716 -76.2621 8.8920
ENERGY: 1200000 3.8697 11.1911 4.2373 0.0000 -10711.8502 1411.1376 0.0000 0.0000 1793.4279 -7487.9867 304.7936 -9281.4145 -7471.3886 303.1177 -260.5716 -197.1092 30154.9127 -150.7058 -78.0334
ENERGY: 1500000 1.8775 7.2415 2.5301 0.0000 -10706.3271 1492.6854 0.0000 0.0000 1789.4436 -7412.5489 304.1165 -9201.9925 -7470.9476 303.1993 394.8101 461.8787 30711.7802 -63.0106 6.1118
TCL: Running FEP window  19: Lambda1 0.9000000000000002 Lambda2 0.9500000000000003 [dLambda 0.050000000000000044]
TCL: Setting parameter firsttimestep to 0
TCL: Setting parameter alchLambda to 0.9000000000000002
Info: NONBONDED TABLE R-SQUARED SPACING: 0.0625
Info: NONBONDED TABLE SIZE: 705 POINTS
TCL: Setting parameter alchLambda2 to 0.9500000000000003
Info: NONBONDED TABLE R-SQUARED SPACING: 0.0625
Info: NONBONDED TABLE SIZE: 705 POINTS
TCL: Running for 1500000 steps
ETITLE: TS BOND ANGLE DIHED IMPRP ELECT VDW BOUNDARY MISC KINETIC TOTAL TEMP POTENTIAL TOTALAVG TEMPAVG PRESSURE GPRESSURE VOLUME PRESSAVG GPRESSAVG
ENERGY: 0 1.8775 7.2415 2.5301 0.0000 -10707.8535 1493.0231 0.0000 0.0000 1788.5762 -7414.6051 303.9691 -9203.1813 -7414.6051 303.9691 393.8683 471.9028 30711.7802 393.8683 471.9028
ENERGY: 300000 1.0143 6.8017 3.2875 0.0000 -10519.0683 1326.7679 0.0000 0.0000 1733.9886 -7447.2083 294.6919 -9181.1969 -7493.0302 298.1252 -826.8058 -803.6770 30878.8483 256.2468 307.0442
ENERGY: 600000 2.3762 9.4278 2.4673 0.0000 -10706.6511 1438.9078 0.0000 0.0000 1801.3352 -7452.1367 306.1375 -9253.4719 -7493.6853 298.8833 150.9688 205.3005 30252.0372 156.9901 214.9075
ENERGY: 900000 0.5193 6.5182 2.0154 0.0000 -10689.4263 1436.4592 0.0000 0.0000 1824.6352 -7419.2790 310.0973 -9243.9142 -7467.3416 301.3113 -91.0422 -58.7628 30745.6255 149.8353 208.3129
ENERGY: 1200000 1.0027 5.5139 2.0241 0.0000 -10806.5098 1524.3886 0.0000 0.0000 1779.3719 -7494.2085 302.4048 -9273.5805 -7460.3886 300.9936 805.4647 865.1449 30005.4830 203.1336 254.7977
ENERGY: 1500000 0.2761 8.4471 3.6909 0.0000 -10804.1721 1460.3859 0.0000 0.0000 1738.5313 -7592.8408 295.4640 -9331.3721 -7475.9338 301.3719 -2.0607 26.3970 30447.6070 189.8803 238.0874
TCL: Running FEP window  20: Lambda1 0.9500000000000003 Lambda2 1.0    [dLambda 0.04999999999999971]
TCL: Setting parameter firsttimestep to 0
TCL: Setting parameter alchLambda to 0.9500000000000003
Info: NONBONDED TABLE R-SQUARED SPACING: 0.0625
Info: NONBONDED TABLE SIZE: 705 POINTS
TCL: Setting parameter alchLambda2 to 1.0
Info: NONBONDED TABLE R-SQUARED SPACING: 0.0625
Info: NONBONDED TABLE SIZE: 705 POINTS
TCL: Running for 1500000 steps
ETITLE: TS BOND ANGLE DIHED IMPRP ELECT VDW BOUNDARY MISC KINETIC TOTAL TEMP POTENTIAL TOTALAVG TEMPAVG PRESSURE GPRESSURE VOLUME PRESSAVG GPRESSAVG
ENERGY: 0 0.2761 8.4471 3.6909 0.0000 -10805.9512 1461.0105 0.0000 0.0000 1737.6904 -7594.8363 295.3210 -9332.5267 -7594.8363 295.3210 -49.8999 43.0565 30447.6070 -49.8999 43.0565
ENERGY: 300000 1.2706 7.7007 4.3961 0.0000 -10727.2724 1434.9487 0.0000 0.0000 1715.5719 -7563.3844 291.5620 -9278.9563 -7526.2435 298.3017 -234.9704 -144.8737 30666.1738 -283.5061 -215.6081
ENERGY: 600000 1.2748 6.1384 3.9218 0.0000 -10755.0964 1463.8681 0.0000 0.0000 1738.9226 -7540.9708 295.5304 -9279.8934 -7542.2121 297.4794 -125.7024 -103.3325 30756.9830 -413.2577 -351.5133
ENERGY: 900000 2.9354 7.7934 5.6241 0.0000 -10594.9197 1326.9681 0.0000 0.0000 1774.3037 -7477.2951 301.5435 -9251.5988 -7533.2931 297.4266 -1000.4829 -903.6429 30439.7084 -381.1897 -304.9058
ENERGY: 1200000 1.3571 9.7328 3.5038 0.0000 -10717.8795 1388.2389 0.0000 0.0000 1817.9323 -7497.1146 308.9582 -9315.0469 -7536.1976 297.9135 -544.2838 -450.8718 30401.1617 -318.1318 -250.6865
ENERGY: 1500000 0.5771 9.2658 2.8900 0.0000 -10761.6449 1485.7840 0.0000 0.0000 1846.6558 -7416.4723 313.8397 -9263.1280 -7514.7604 299.6044 323.2520 403.2419 30538.1773 -253.9002 -184.5842
TCL: Exiting due to exit command.
