Info: SIMULATION PARAMETERS:
Info: TIMESTEP               2
Info: NUMBER OF STEPS        0
Info: STEPS PER CYCLE        10
Info: PERIODIC CELL BASIS 1  31.7747 0 0
Info: PERIODIC CELL BASIS 2  0 29.3999 0
Info: PERIODIC CELL BASIS 3  0 0 32.8249
Info: PERIODIC CELL CENTER   0 0 0
Info: WRAPPING WATERS AROUND PERIODIC BOUNDARIES ON OUTPUT.
Info: WRAPPING ALL CLUSTERS AROUND PERIODIC BOUNDARIES ON OUTPUT.
Info: FIRST LDB TIMESTEP     50
Info: LAST LDB TIMESTEP     -1
Info: HOM BACKGROUND SCALING 1
Info: PME BACKGROUND SCALING 1
Info: MIN ATOMS PER PATCH    40
Info: EMPTY PATCH LOAD       40 ATOMS
Info: VELOCITY FILE          mobley_6195751_equil.vel
Info: CENTER OF MASS MOVING INITIALLY? NO
Info: DIELECTRIC             1
Info: EXCLUDE                SCALED ONE-FOUR
Info: 1-4 ELECTROSTATICS SCALED BY 0.833333
Info: MODIFIED 1-4 VDW PARAMETERS WILL BE USED
Info: DCD FILENAME           mobley_6195751_prod.dcd
Info: DCD FREQUENCY          100000
Info: DCD FIRST STEP         100000
Info: DCD FILE WILL CONTAIN UNIT CELL DATA
Info: XST FILENAME           mobley_6195751_prod.xst
Info: XST FREQUENCY          100000
Info: NO VELOCITY DCD OUTPUT
Info: NO FORCE DCD OUTPUT
Info: OUTPUT FILENAME        mobley_6195751_prod
Info: BINARY OUTPUT FILES WILL BE USED
Info: RESTART FILENAME       mobley_6195751_prod.restart
Info: RESTART FREQUENCY      100000
Info: BINARY RESTART FILES WILL BE USED
Info: CUTOFF                 9
Info: PAIRLIST DISTANCE      11
Info: PAIRLIST SHRINK RATE   0.01
Info: PAIRLIST GROW RATE     0.01
Info: PAIRLIST TRIGGER       0.3
Info: PAIRLISTS PER CYCLE    2
Info: PAIRLISTS ENABLED
Info: MARGIN                 2
Info: HYDROGEN GROUP CUTOFF  2.5
Info: PATCH DIMENSION        15.5
Info: ENERGY OUTPUT STEPS    100000
Info: ENERGY EVALUATION STEPS    100000
Info: OUTPUT ENERGY PRECISION 4
Info: CROSSTERM ENERGY INCLUDED IN DIHEDRAL
Info: TIMING OUTPUT STEPS    1000000
Info: PRESSURE OUTPUT STEPS  100000
Info: ALCHEMICAL FEP ON
Info: FEP CURRENT LAMBDA VALUE     0
Info: FEP COMPARISON LAMBDA VALUE  0.05
Info: FEP INTRA-ALCHEMICAL NON-BONDED INTERACTIONS WILL BE RETAINED
Info: FEP INTRA-ALCHEMICAL BONDED INTERACTIONS WILL BE RETAINED
Info: FEP VDW SHIFTING COEFFICIENT 5
Info: FEP ELEC. ACTIVE FOR ANNIHILATED PARTICLES BETWEEN LAMBDA = 0 AND LAMBDA = 0.5
Info: FEP ELEC. ACTIVE FOR EXNIHILATED PARTICLES BETWEEN LAMBDA = 0.5 AND LAMBDA = 1
Info: FEP VDW ACTIVE FOR ANNIHILATED PARTICLES BETWEEN LAMBDA = 0 AND LAMBDA = 1
Info: FEP VDW ACTIVE FOR EXNIHILATED PARTICLES BETWEEN LAMBDA = 0 AND LAMBDA = 1
Info: FEP BOND ACTIVE FOR ANNIHILATED PARTICLES BETWEEN LAMBDA = 1 AND LAMBDA = 1
Info: FEP BOND ACTIVE FOR EXNIHILATED PARTICLES BETWEEN LAMBDA = 0 AND LAMBDA = 0
Info: LANGEVIN DYNAMICS ACTIVE
Info: LANGEVIN TEMPERATURE   300
Info: LANGEVIN USING BBK INTEGRATOR
Info: LANGEVIN DAMPING COEFFICIENT IS 1 INVERSE PS
Info: LANGEVIN DYNAMICS APPLIED TO HYDROGENS
Info: LANGEVIN PISTON PRESSURE CONTROL ACTIVE
Info:        TARGET PRESSURE IS 1.01325 BAR
Info:     OSCILLATION PERIOD IS 50 FS
Info:             DECAY TIME IS 25 FS
Info:     PISTON TEMPERATURE IS 300 K
Info:       PRESSURE CONTROL IS GROUP-BASED
Info:    INITIAL STRAIN RATE IS 0.000828277 0.000828277 0.000828277
Info:       CELL FLUCTUATION IS ISOTROPIC
Info: PARTICLE MESH EWALD (PME) ACTIVE
Info: PME TOLERANCE               1e-06
Info: PME EWALD COEFFICIENT       0.348832
Info: PME INTERPOLATION ORDER     4
Info: PME GRID DIMENSIONS         32 32 36
Info: PME MAXIMUM GRID SPACING    1
Info: PME CALCULATION WILL BE PERFORMED ON GPU
Info: FULL ELECTROSTATIC EVALUATION FREQUENCY      2
Info: USING VERLET I (r-RESPA) MTS SCHEME.
Info: C1 SPLITTING OF LONG RANGE ELECTROSTATICS
Info: PLACING ATOMS IN PATCHES BY HYDROGEN GROUPS
Info: RIGID BONDS TO HYDROGEN : ALL
Info:         ERROR TOLERANCE : 1e-08
Info:          MAX ITERATIONS : 100
Info: RIGID WATER USING SETTLE ALGORITHM
Info: RANDOM NUMBER SEED     1743939887
Info: USE HYDROGEN BONDS?    NO
Info: Using AMBER format force field!
Info: AMBER PARM FILE        mobley_6195751.prmtop
Info: COORDINATE PDB         mobley_6195751.pdb
Info: Exclusions will be read from PARM file!
Info: SCNB (VDW SCALING)     2
Info: USING ARITHMETIC MEAN TO COMBINE L-J SIGMA PARAMETERS
Info: BINARY COORDINATES     mobley_6195751_equil.coor
Info: SUMMARY OF PARAMETERS:
Info: 12 BONDS
Info: 12 ANGLES
Info:   12 HARMONIC
Info:   0 COSINE-BASED
Info: 6 DIHEDRAL
Info: 0 IMPROPER
Info: 0 CROSSTERM
Info: 0 VDW
Info: 55 VDW_PAIRS
Info: 0 NBTHOLE_PAIRS
Info: To read alchdata from file: mobley_6195751.pdb
Info: To read alchflag data from column: 5
Info: STRUCTURE SUMMARY:
Info: 2951 ATOMS
Info: 2951 BONDS
Info: 36 ANGLES
Info: 47 DIHEDRALS
Info: 0 IMPROPERS
Info: 0 CROSSTERMS
Info: 3024 EXCLUSIONS
Info: 2936 RIGID BONDS
Info: ALCH: 0 ATOMS TO DISAPPEAR IN FINAL STATE
Info: ALCH: 23 ATOMS TO APPEAR IN FINAL STATE
Info: 5917 DEGREES OF FREEDOM
Info: 991 HYDROGEN GROUPS
Info: 4 ATOMS IN LARGEST HYDROGEN GROUP
Info: 991 MIGRATION GROUPS
Info: 4 ATOMS IN LARGEST MIGRATION GROUP
Info: TOTAL MASS = 17834.7 amu
Info: TOTAL CHARGE = -3.1665e-08 e
Info: MASS DENSITY = 0.965813 g/cm^3
Info: ATOM DENSITY = 0.096236 atoms/A^3
Info: ADDED 0 IMPLICIT EXCLUSIONS
Info: NONBONDED TABLE R-SQUARED SPACING: 0.0625
Info: NONBONDED TABLE SIZE: 705 POINTS
Info: REMOVING COM VELOCITY 0.0625465 -0.123329 0.11108
Info: Use 3D box decompostion in PME FFT.
Info: Updated CUDA force table with 4096 elements.
Info: Updated CUDA LJ table with 10 x 10 elements.
Info: Found 26 unique exclusion lists needing 72 bytes
TCL: Running for 1500000 steps
ETITLE: TS BOND ANGLE DIHED IMPRP ELECT VDW BOUNDARY MISC KINETIC TOTAL TEMP POTENTIAL TOTALAVG TEMPAVG PRESSURE GPRESSURE VOLUME PRESSAVG GPRESSAVG
ENERGY: 0 3.8426 5.2368 8.2089 0.0000 -10505.0898 1420.1293 0.0000 0.0000 1773.9017 -7293.7704 301.7299 -9067.6722 -7293.7704 301.7299 62.9290 145.9477 30664.1869 62.9290 145.9477
ENERGY: 300000 4.7134 5.5820 7.7855 0.0000 -10615.0927 1391.2342 0.0000 0.0000 1689.1466 -7516.6310 287.3136 -9205.7776 -7430.2737 295.9226 -516.0419 -463.7073 30189.3866 -94.0483 -25.1583
ENERGY: 600000 7.4463 12.5186 8.9130 0.0000 -10550.6764 1406.0409 0.0000 0.0000 1748.4448 -7367.3129 297.3998 -9115.7577 -7412.6872 297.8751 -229.6024 -161.1316 30332.3738 -76.9050 -12.1838
ENERGY: 900000 10.6124 12.1299 12.9126 0.0000 -10662.3547 1396.7437 0.0000 0.0000 1757.9663 -7471.9898 299.0194 -9229.9561 -7422.3746 297.3314 -779.1712 -758.0317 30367.6925 -301.1883 -252.1969
ENERGY: 1200000 1.8391 9.7708 12.2768 0.0000 -10526.2490 1310.0171 0.0000 0.0000 1749.8944 -7442.4509 297.6464 -9192.3453 -7426.1174 297.2914 -1158.8873 -1046.1922 30341.9994 -296.7529 -247.6853
ENERGY: 1500000 4.0094 4.5912 12.3417 0.0000 -10692.1826 1434.9087 0.0000 0.0000 1781.0901 -7455.2414 302.9526 -9236.3315 -7430.3913 298.2408 -227.9660 -184.9937 30079.7871 -268.1508 -218.2552
TCL: Running FEP window   2: Lambda1 0.05   Lambda2 0.1    [dLambda 0.05  ]
TCL: Setting parameter firsttimestep to 0
TCL: Setting parameter alchLambda to 0.05
Info: NONBONDED TABLE R-SQUARED SPACING: 0.0625
Info: NONBONDED TABLE SIZE: 705 POINTS
TCL: Setting parameter alchLambda2 to 0.1
Info: NONBONDED TABLE R-SQUARED SPACING: 0.0625
Info: NONBONDED TABLE SIZE: 705 POINTS
TCL: Running for 1500000 steps
ETITLE: TS BOND ANGLE DIHED IMPRP ELECT VDW BOUNDARY MISC KINETIC TOTAL TEMP POTENTIAL TOTALAVG TEMPAVG PRESSURE GPRESSURE VOLUME PRESSAVG GPRESSAVG
ENERGY: 0 4.0094 4.5912 12.3417 0.0000 -10692.1819 1435.9638 0.0000 0.0000 1780.2168 -7455.0590 302.8041 -9235.2758 -7455.0590 302.8041 -254.2651 -174.5704 30079.7871 -254.2651 -174.5704
ENERGY: 300000 3.6290 9.6512 12.5373 0.0000 -10625.1848 1402.9649 0.0000 0.0000 1703.9479 -7492.4545 289.8312 -9196.4024 -7453.0876 296.0669 -486.6903 -392.6747 30208.2582 -168.8116 -86.8225
ENERGY: 600000 2.7008 9.9720 9.3241 0.0000 -10558.4222 1370.5023 0.0000 0.0000 1732.2692 -7433.6538 294.6485 -9165.9230 -7429.8413 298.9919 -482.3766 -402.7384 30366.6259 -168.0171 -91.1093
ENERGY: 900000 7.4860 11.8674 11.3803 0.0000 -10630.4333 1419.5675 0.0000 0.0000 1753.5377 -7426.5944 298.2661 -9180.1321 -7423.2771 300.8768 -160.2829 -127.6348 30215.4810 -85.6971 -9.2429
ENERGY: 1200000 5.4279 6.7027 17.3678 0.0000 -10667.2194 1404.8813 0.0000 0.0000 1790.3201 -7442.5197 304.5226 -9232.8398 -7426.0586 301.6931 -212.3868 -156.3838 30088.7123 -130.5665 -53.7427
ENERGY: 1500000 10.2737 7.0357 9.1053 0.0000 -10600.7456 1451.5495 0.0000 0.0000 1786.3342 -7336.4472 303.8446 -9122.7814 -7425.6577 301.9408 -18.4179 105.7272 29957.1753 -136.9279 -61.3239
TCL: Running FEP window   3: Lambda1 0.1    Lambda2 0.15000000000000002 [dLambda 0.05000000000000002]
TCL: Setting parameter firsttimestep to 0
TCL: Setting parameter alchLambda to 0.1
Info: NONBONDED TABLE R-SQUARED SPACING: 0.0625
Info: NONBONDED TABLE SIZE: 705 POINTS
TCL: Setting parameter alchLambda2 to 0.15000000000000002
Info: NONBONDED TABLE R-SQUARED SPACING: 0.0625
Info: NONBONDED TABLE SIZE: 705 POINTS
TCL: Running for 1500000 steps
ETITLE: TS BOND ANGLE DIHED IMPRP ELECT VDW BOUNDARY MISC KINETIC TOTAL TEMP POTENTIAL TOTALAVG TEMPAVG PRESSURE GPRESSURE VOLUME PRESSAVG GPRESSAVG
ENERGY: 0 10.2737 7.0357 9.1053 0.0000 -10600.7455 1455.7616 0.0000 0.0000 1785.4662 -7333.1031 303.6970 -9118.5692 -7333.1031 303.6970 29.5036 124.6440 29957.1753 29.5036 124.6440
ENERGY: 300000 6.4866 9.3968 16.1973 0.0000 -10712.9596 1486.4133 0.0000 0.0000 1760.8524 -7433.6132 299.5103 -9194.4657 -7385.0144 300.9206 151.0536 198.5839 30296.0435 112.8304 160.0247
ENERGY: 600000 8.8770 10.7925 6.3638 0.0000 -10634.7333 1436.7304 0.0000 0.0000 1725.5639 -7446.4057 293.5079 -9171.9696 -7376.8397 299.8846 183.9536 224.6339 29895.3148 101.1391 158.4375
ENERGY: 900000 7.2798 8.3028 12.4101 0.0000 -10643.8203 1517.9782 0.0000 0.0000 1747.4183 -7350.4311 297.2253 -9097.8495 -7374.1364 299.4050 475.6439 548.8739 30672.5095 226.1049 290.4689
ENERGY: 1200000 3.6052 7.4304 14.6777 0.0000 -10761.3752 1468.8793 0.0000 0.0000 1773.6407 -7493.1419 301.6855 -9266.7826 -7393.5599 300.0125 279.4694 302.0552 30193.8268 20.7716 87.7736
ENERGY: 1500000 6.0265 5.8580 11.0723 0.0000 -10601.9458 1428.2608 0.0000 0.0000 1749.6698 -7401.0584 297.6082 -9150.7281 -7397.9996 299.6174 -75.7949 17.8982 30140.0902 13.1808 81.1768
TCL: Running FEP window   4: Lambda1 0.15000000000000002 Lambda2 0.2    [dLambda 0.04999999999999999]
TCL: Setting parameter firsttimestep to 0
TCL: Setting parameter alchLambda to 0.15000000000000002
Info: NONBONDED TABLE R-SQUARED SPACING: 0.0625
Info: NONBONDED TABLE SIZE: 705 POINTS
TCL: Setting parameter alchLambda2 to 0.2
Info: NONBONDED TABLE R-SQUARED SPACING: 0.0625
Info: NONBONDED TABLE SIZE: 705 POINTS
TCL: Running for 1500000 steps
ETITLE: TS BOND ANGLE DIHED IMPRP ELECT VDW BOUNDARY MISC KINETIC TOTAL TEMP POTENTIAL TOTALAVG TEMPAVG PRESSURE GPRESSURE VOLUME PRESSAVG GPRESSAVG
ENERGY: 0 6.0265 5.8580 11.0723 0.0000 -10601.9464 1429.8118 0.0000 0.0000 1748.7862 -7400.3916 297.4579 -9149.1779 -7400.3916 297.4579 -57.7608 28.0316 30140.0902 -57.7608 28.0316
ENERGY: 300000 2.7874 19.0901 7.6286 0.0000 -10732.6229 1475.4859 0.0000 0.0000 1805.2779 -7422.3530 307.0668 -9227.6309 -7407.1373 298.9421 72.5157 147.8841 30410.6647 140.5563 184.7054
ENERGY: 600000 2.7843 7.9496 14.2787 0.0000 -10764.1816 1549.9377 0.0000 0.0000 1750.0846 -7439.1467 297.6788 -9189.2313 -7415.5877 297.7730 1277.1468 1313.3686 29802.9179 266.0579 315.4371
ENERGY: 900000 3.5901 6.2933 16.2782 0.0000 -10775.2453 1550.8253 0.0000 0.0000 1742.8903 -7455.3681 296.4551 -9198.2584 -7417.5715 299.0198 1175.6972 1272.9796 29887.8952 295.4792 337.1140
ENERGY: 1200000 4.8416 9.7663 10.0302 0.0000 -10687.0999 1448.3437 0.0000 0.0000 1720.7402 -7493.3780 292.6875 -9214.1181 -7433.1266 298.3397 139.2021 155.4417 29850.8199 306.8350 346.3602
ENERGY: 1500000 4.7094 7.6570 15.2083 0.0000 -10674.4266 1400.1636 0.0000 0.0000 1741.8632 -7504.8251 296.2804 -9246.6883 -7433.5127 299.1321 -140.5996 -113.4471 29587.9809 269.0434 307.9064
TCL: Running FEP window   5: Lambda1 0.2    Lambda2 0.25   [dLambda 0.04999999999999999]
TCL: Setting parameter firsttimestep to 0
TCL: Setting parameter alchLambda to 0.2
Info: NONBONDED TABLE R-SQUARED SPACING: 0.0625
Info: NONBONDED TABLE SIZE: 705 POINTS
TCL: Setting parameter alchLambda2 to 0.25
Info: NONBONDED TABLE R-SQUARED SPACING: 0.0625
Info: NONBONDED TABLE SIZE: 705 POINTS
TCL: Running for 1500000 steps
ETITLE: TS BOND ANGLE DIHED IMPRP ELECT VDW BOUNDARY MISC KINETIC TOTAL TEMP POTENTIAL TOTALAVG TEMPAVG PRESSURE GPRESSURE VOLUME PRESSAVG GPRESSAVG
ENERGY: 0 4.7094 7.6570 15.2083 0.0000 -10674.4267 1401.4321 0.0000 0.0000 1740.9802 -7504.4397 296.1302 -9245.4199 -7504.4397 296.1302 -176.4688 -101.8380 29587.9809 -176.4688 -101.8380
ENERGY: 300000 3.7887 10.1073 16.3290 0.0000 -10634.4127 1436.3916 0.0000 0.0000 1728.7793 -7439.0169 294.0549 -9167.7962 -7461.9397 298.2511 -248.5905 -159.4288 30560.7664 -265.7985 -180.2109
ENERGY: 600000 8.0297 6.7259 8.9432 0.0000 -10747.5479 1447.4328 0.0000 0.0000 1770.5642 -7505.8520 301.1622 -9276.4162 -7449.0408 299.8089 -349.9078 -254.6147 30149.9714 -236.1539 -163.0451
ENERGY: 900000 6.8403 7.8814 13.6092 0.0000 -10710.5452 1478.5888 0.0000 0.0000 1817.6223 -7386.0032 309.1665 -9203.6254 -7436.7225 301.2175 9.4058 5.7432 30653.5678 -105.0853 -45.4543
ENERGY: 1200000 8.5832 7.2739 17.3895 0.0000 -10491.8037 1357.7843 0.0000 0.0000 1731.9856 -7368.7873 294.6002 -9100.7729 -7427.4062 301.0198 -686.8344 -637.6088 30622.7605 -91.1051 -31.7287
ENERGY: 1500000 2.5196 8.6399 11.6522 0.0000 -10618.2284 1441.6760 0.0000 0.0000 1774.6332 -7379.1075 301.8543 -9153.7407 -7421.2083 300.2741 10.9179 -0.0331 30578.3408 -88.7787 -32.6072
TCL: Running FEP window   6: Lambda1 0.25   Lambda2 0.3    [dLambda 0.04999999999999999]
TCL: Setting parameter firsttimestep to 0
TCL: Setting parameter alchLambda to 0.25
Info: NONBONDED TABLE R-SQUARED SPACING: 0.0625
Info: NONBONDED TABLE SIZE: 705 POINTS
TCL: Setting parameter alchLambda2 to 0.3
Info: NONBONDED TABLE R-SQUARED SPACING: 0.0625
Info: NONBONDED TABLE SIZE: 705 POINTS
TCL: Running for 1500000 steps
ETITLE: TS BOND ANGLE DIHED IMPRP ELECT VDW BOUNDARY MISC KINETIC TOTAL TEMP POTENTIAL TOTALAVG TEMPAVG PRESSURE GPRESSURE VOLUME PRESSAVG GPRESSAVG
ENERGY: 0 2.5196 8.6399 11.6522 0.0000 -10618.2281 1443.4221 0.0000 0.0000 1773.7890 -7378.2054 301.7107 -9151.9944 -7378.2054 301.7107 -61.2917 16.9258 30578.3408 -61.2917 16.9258
ENERGY: 300000 4.5756 7.8866 11.5350 0.0000 -10668.2723 1399.0533 0.0000 0.0000 1745.1336 -7500.0883 296.8366 -9245.2219 -7412.2208 300.7240 -19.4984 -4.7451 29708.7605 -103.3786 -43.8135
ENERGY: 600000 8.5866 8.2595 9.7197 0.0000 -10591.6111 1399.1810 0.0000 0.0000 1764.3486 -7401.5158 300.1050 -9165.8644 -7411.0332 302.2087 -596.3157 -514.8029 30644.3836 -42.0872 28.1854
ENERGY: 900000 2.6509 6.0775 12.8651 0.0000 -10634.1785 1437.1818 0.0000 0.0000 1772.5193 -7402.8838 301.4948 -9175.4032 -7405.5920 302.8919 15.0709 71.2874 30332.4849 -40.1578 22.8072
ENERGY: 1200000 5.9586 9.4817 8.4633 0.0000 -10684.2327 1449.8607 0.0000 0.0000 1728.7277 -7481.7407 294.0461 -9210.4685 -7423.2687 301.1009 84.3172 107.9990 30154.0395 -51.1966 1.9361
ENERGY: 1500000 9.1480 7.0168 15.7265 0.0000 -10676.4824 1421.5151 0.0000 0.0000 1750.5120 -7472.5641 297.7515 -9223.0761 -7426.6722 300.5821 -236.0695 -126.5380 29828.1705 -2.5885 52.4431
TCL: Running FEP window   7: Lambda1 0.3    Lambda2 0.35   [dLambda 0.04999999999999999]
TCL: Setting parameter firsttimestep to 0
TCL: Setting parameter alchLambda to 0.3
Info: NONBONDED TABLE R-SQUARED SPACING: 0.0625
Info: NONBONDED TABLE SIZE: 705 POINTS
TCL: Setting parameter alchLambda2 to 0.35
Info: NONBONDED TABLE R-SQUARED SPACING: 0.0625
Info: NONBONDED TABLE SIZE: 705 POINTS
TCL: Running for 1500000 steps
ETITLE: TS BOND ANGLE DIHED IMPRP ELECT VDW BOUNDARY MISC KINETIC TOTAL TEMP POTENTIAL TOTALAVG TEMPAVG PRESSURE GPRESSURE VOLUME PRESSAVG GPRESSAVG
ENERGY: 0 9.1480 7.0168 15.7265 0.0000 -10676.4825 1421.2915 0.0000 0.0000 1749.6698 -7473.6301 297.6082 -9223.2998 -7473.6301 297.6082 -212.9625 -119.0592 29828.1705 -212.9625 -119.0592
ENERGY: 300000 4.9396 6.8329 13.0989 0.0000 -10607.1396 1364.0903 0.0000 0.0000 1762.2689 -7455.9091 299.7512 -9218.1780 -7430.1856 298.9103 -684.4505 -609.2150 30527.8075 -117.2314 -60.0012
ENERGY: 600000 2.8381 9.3387 11.5262 0.0000 -10734.8931 1408.3963 0.0000 0.0000 1793.9001 -7508.8937 305.1315 -9302.7938 -7450.3240 298.2727 -664.4314 -578.6108 30357.2544 -203.9543 -145.8126
ENERGY: 900000 5.2259 6.8301 14.4694 0.0000 -10646.9945 1421.2673 0.0000 0.0000 1782.8925 -7416.3094 303.2592 -9199.2019 -7447.4696 298.1211 -313.0955 -230.9559 30764.3547 -232.5662 -175.3305
ENERGY: 1200000 7.6839 3.9840 15.1824 0.0000 -10483.2063 1318.8082 0.0000 0.0000 1737.6284 -7399.9195 295.5600 -9137.5478 -7443.4494 297.4758 -942.5142 -912.6432 30515.8438 -340.5585 -287.3338
ENERGY: 1500000 4.6513 6.8129 14.9605 0.0000 -10608.8057 1407.0440 0.0000 0.0000 1694.8154 -7480.5216 288.2778 -9175.3370 -7431.7078 298.0174 107.6342 158.2799 29701.8395 -271.2667 -216.9119
TCL: Running FEP window   8: Lambda1 0.35   Lambda2 0.39999999999999997 [dLambda 0.04999999999999999]
TCL: Setting parameter firsttimestep to 0
TCL: Setting parameter alchLambda to 0.35
Info: NONBONDED TABLE R-SQUARED SPACING: 0.0625
Info: NONBONDED TABLE SIZE: 705 POINTS
TCL: Setting parameter alchLambda2 to 0.39999999999999997
Info: NONBONDED TABLE R-SQUARED SPACING: 0.0625
Info: NONBONDED TABLE SIZE: 705 POINTS
TCL: Running for 1500000 steps
ETITLE: TS BOND ANGLE DIHED IMPRP ELECT VDW BOUNDARY MISC KINETIC TOTAL TEMP POTENTIAL TOTALAVG TEMPAVG PRESSURE GPRESSURE VOLUME PRESSAVG GPRESSAVG
ENERGY: 0 4.6513 6.8129 14.9605 0.0000 -10608.8058 1407.5712 0.0000 0.0000 1693.9451 -7480.8648 288.1298 -9174.8099 -7480.8648 288.1298 75.1744 171.1163 29701.8395 75.1744 171.1163
ENERGY: 300000 4.0517 5.9831 17.9644 0.0000 -10597.9336 1436.4045 0.0000 0.0000 1765.1179 -7368.4122 300.2358 -9133.5300 -7433.4978 296.8267 293.3260 352.5170 30458.2468 -88.3611 -28.4205
ENERGY: 600000 4.5429 4.5942 12.4019 0.0000 -10634.5977 1442.7054 0.0000 0.0000 1763.8623 -7406.4910 300.0223 -9170.3534 -7401.0733 299.2268 179.1182 247.4307 30187.3807 -116.0923 -52.7802
ENERGY: 900000 2.7024 11.4445 13.3321 0.0000 -10724.7425 1467.1793 0.0000 0.0000 1775.9314 -7454.1529 302.0751 -9230.0842 -7405.0748 300.5700 291.6231 380.9254 30086.8376 -67.3979 -1.6623
ENERGY: 1200000 3.3121 9.5560 16.2143 0.0000 -10842.5408 1537.7179 0.0000 0.0000 1743.4449 -7532.2956 296.5494 -9275.7405 -7414.2629 299.6262 685.5751 730.5175 29929.7246 -20.6263 45.0403
ENERGY: 1500000 3.5685 10.0516 17.4707 0.0000 -10679.9386 1464.1650 0.0000 0.0000 1742.9831 -7441.6998 296.4708 -9184.6828 -7409.6063 299.7081 -84.9868 -21.0244 30729.4142 -36.5003 24.5052
TCL: Running FEP window   9: Lambda1 0.39999999999999997 Lambda2 0.44999999999999996 [dLambda 0.04999999999999999]
TCL: Setting parameter firsttimestep to 0
TCL: Setting parameter alchLambda to 0.39999999999999997
Info: NONBONDED TABLE R-SQUARED SPACING: 0.0625
Info: NONBONDED TABLE SIZE: 705 POINTS
TCL: Setting parameter alchLambda2 to 0.44999999999999996
Info: NONBONDED TABLE R-SQUARED SPACING: 0.0625
Info: NONBONDED TABLE SIZE: 705 POINTS
TCL: Running for 1500000 steps
ETITLE: TS BOND ANGLE DIHED IMPRP ELECT VDW BOUNDARY MISC KINETIC TOTAL TEMP POTENTIAL TOTALAVG TEMPAVG PRESSURE GPRESSURE VOLUME PRESSAVG GPRESSAVG
ENERGY: 0 3.5685 10.0516 17.4707 0.0000 -10679.9399 1463.4554 0.0000 0.0000 1742.1132 -7443.2805 296.3229 -9185.3937 -7443.2805 296.3229 -82.4911 -19.4973 30729.4142 -82.4911 -19.4973
ENERGY: 300000 5.5387 8.4134 12.6421 0.0000 -10605.7557 1416.3953 0.0000 0.0000 1752.7369 -7410.0294 298.1299 -9162.7663 -7449.0306 298.7280 -85.3445 -94.3663 29980.4584 224.8079 265.4992
ENERGY: 600000 5.9828 15.5931 11.9286 0.0000 -10608.6915 1425.6345 0.0000 0.0000 1755.6974 -7393.8551 298.6335 -9149.5525 -7404.9522 299.4965 -51.1989 58.1239 30441.4822 430.5405 487.5954
ENERGY: 900000 5.6541 8.8809 9.4666 0.0000 -10666.9862 1460.9470 0.0000 0.0000 1748.1970 -7433.8406 297.3577 -9182.0376 -7420.7695 299.0419 248.9739 327.1206 29996.7495 200.9533 266.5788
ENERGY: 1200000 5.1059 7.2238 17.1095 0.0000 -10601.4212 1397.0387 0.0000 0.0000 1807.3664 -7367.5768 307.4221 -9174.9432 -7412.9942 301.0553 -146.9824 -64.2142 30164.8539 132.7529 201.7728
ENERGY: 1500000 4.6417 8.7357 14.8204 0.0000 -10638.1064 1418.0135 0.0000 0.0000 1730.3415 -7461.5536 294.3206 -9191.8951 -7417.6458 300.5650 -302.3819 -243.4751 30753.0078 136.1538 197.9490
TCL: Running FEP window  10: Lambda1 0.44999999999999996 Lambda2 0.49999999999999994 [dLambda 0.04999999999999999]
TCL: Setting parameter firsttimestep to 0
TCL: Setting parameter alchLambda to 0.44999999999999996
Info: NONBONDED TABLE R-SQUARED SPACING: 0.0625
Info: NONBONDED TABLE SIZE: 705 POINTS
TCL: Setting parameter alchLambda2 to 0.49999999999999994
Info: NONBONDED TABLE R-SQUARED SPACING: 0.0625
Info: NONBONDED TABLE SIZE: 705 POINTS
TCL: Running for 1500000 steps
ETITLE: TS BOND ANGLE DIHED IMPRP ELECT VDW BOUNDARY MISC KINETIC TOTAL TEMP POTENTIAL TOTALAVG TEMPAVG PRESSURE GPRESSURE VOLUME PRESSAVG GPRESSAVG
ENERGY: 0 4.6417 8.7357 14.8204 0.0000 -10638.1074 1417.5135 0.0000 0.0000 1729.4424 -7462.9536 294.1677 -9192.3960 -7462.9536 294.1677 -326.0036 -240.7734 30753.0078 -326.0036 -240.7734
ENERGY: 300000 7.9862 6.3741 7.8724 0.0000 -10467.1661 1315.6655 0.0000 0.0000 1714.1446 -7415.1233 291.5656 -9129.2679 -7440.3823 297.6208 -883.7118 -767.8748 30279.5100 -362.9030 -289.7732
ENERGY: 600000 4.6382 10.4739 11.0100 0.0000 -10682.3848 1463.2760 0.0000 0.0000 1770.2924 -7422.6943 301.1160 -9192.9867 -7415.8615 300.3903 414.2638 426.3459 29873.3301 -238.5843 -165.2176
ENERGY: 900000 5.9254 10.7903 7.1984 0.0000 -10659.0865 1432.2972 0.0000 0.0000 1708.2101 -7494.6652 290.5562 -9202.8754 -7421.3509 299.8547 -340.2531 -176.9139 30501.6065 -256.1755 -177.8171
ENERGY: 1200000 4.2827 4.7626 9.5767 0.0000 -10617.4492 1434.7271 0.0000 0.0000 1742.4931 -7421.6069 296.3875 -9164.1001 -7426.3433 298.4825 79.3786 124.3663 30139.7727 -225.3449 -152.1624
ENERGY: 1500000 5.2453 9.5711 14.2082 0.0000 -10540.4022 1372.8295 0.0000 0.0000 1752.9259 -7385.6222 298.1621 -9138.5481 -7421.3498 298.1892 -446.8504 -318.6618 30298.0425 -125.7020 -44.1324
TCL: Running FEP window  11: Lambda1 0.49999999999999994 Lambda2 0.5499999999999999 [dLambda 0.04999999999999999]
TCL: Setting parameter firsttimestep to 0
TCL: Setting parameter alchLambda to 0.49999999999999994
Info: NONBONDED TABLE R-SQUARED SPACING: 0.0625
Info: NONBONDED TABLE SIZE: 705 POINTS
TCL: Setting parameter alchLambda2 to 0.5499999999999999
Info: NONBONDED TABLE R-SQUARED SPACING: 0.0625
Info: NONBONDED TABLE SIZE: 705 POINTS
TCL: Running for 1500000 steps
ETITLE: TS BOND ANGLE DIHED IMPRP ELECT VDW BOUNDARY MISC KINETIC TOTAL TEMP POTENTIAL TOTALAVG TEMPAVG PRESSURE GPRESSURE VOLUME PRESSAVG GPRESSAVG
ENERGY: 0 5.2453 9.5711 14.2082 0.0000 -10540.4025 1372.9315 0.0000 0.0000 1752.0511 -7386.3952 298.0133 -9138.4463 -7386.3952 298.0133 -391.0076 -307.2971 30298.0425 -391.0076 -307.2971
ENERGY: 300000 8.7028 8.4972 13.5729 0.0000 -10750.3306 1491.2841 0.0000 0.0000 1809.1616 -7419.1120 307.7274 -9228.2736 -7409.3583 300.7624 541.1398 578.8799 29818.8856 -134.6870 -72.4390
ENERGY: 600000 7.2177 6.7159 13.5516 0.0000 -10587.3580 1412.2047 0.0000 0.0000 1729.7972 -7417.8709 294.2280 -9147.6681 -7412.2749 299.6347 -491.6326 -422.9379 30528.5561 -85.3463 -31.9623
ENERGY: 900000 2.6255 6.8302 17.9500 0.0000 -10635.0276 1446.7340 0.0000 0.0000 1733.1930 -7427.6949 294.8056 -9160.8879 -7404.3811 299.5850 249.5548 261.8035 30481.3308 56.1218 106.3112
ENERGY: 1200000 9.8577 6.9181 10.7281 0.0000 -10714.2949 1405.7729 0.0000 0.0000 1770.3751 -7510.6430 301.1301 -9281.0181 -7422.2546 299.6521 -584.1597 -500.0161 30080.1779 -61.4837 -6.4937
ENERGY: 1500000 4.3455 7.2111 11.6488 0.0000 -10556.9209 1397.8380 0.0000 0.0000 1768.2299 -7367.6476 300.7652 -9135.8775 -7418.8203 299.1120 245.7356 363.1817 29985.6282 -28.7737 27.4524
TCL: Running FEP window  12: Lambda1 0.5499999999999999 Lambda2 0.6    [dLambda 0.050000000000000044]
TCL: Setting parameter firsttimestep to 0
TCL: Setting parameter alchLambda to 0.5499999999999999
Info: NONBONDED TABLE R-SQUARED SPACING: 0.0625
Info: NONBONDED TABLE SIZE: 705 POINTS
TCL: Setting parameter alchLambda2 to 0.6
Info: NONBONDED TABLE R-SQUARED SPACING: 0.0625
Info: NONBONDED TABLE SIZE: 705 POINTS
TCL: Running for 1500000 steps
ETITLE: TS BOND ANGLE DIHED IMPRP ELECT VDW BOUNDARY MISC KINETIC TOTAL TEMP POTENTIAL TOTALAVG TEMPAVG PRESSURE GPRESSURE VOLUME PRESSAVG GPRESSAVG
ENERGY: 0 4.3455 7.2111 11.6488 0.0000 -10556.8957 1398.3249 0.0000 0.0000 1767.3326 -7368.0329 300.6125 -9135.3654 -7368.0329 300.6125 287.8271 377.4643 29985.6282 287.8271 377.4643
ENERGY: 300000 7.3296 9.2003 9.2342 0.0000 -10579.5911 1428.2074 0.0000 0.0000 1772.2584 -7353.3611 301.4504 -9125.6195 -7409.1633 299.7838 -218.3917 -154.3388 30921.5413 216.1865 331.3592
ENERGY: 600000 8.4562 8.9130 13.0258 0.0000 -10538.7597 1347.9235 0.0000 0.0000 1778.1694 -7382.2719 302.4558 -9160.4412 -7405.9107 300.5875 -1141.3593 -1056.0263 31615.0077 -137.7496 -48.1331
ENERGY: 900000 6.4698 7.6895 8.3877 0.0000 -10642.3958 1425.1384 0.0000 0.0000 1770.3305 -7424.3798 301.1225 -9194.7103 -7409.1960 302.0649 -216.2569 -106.5513 30379.0173 -154.6488 -74.0516
ENERGY: 1200000 4.3144 6.4944 13.0743 0.0000 -10599.0682 1411.9755 0.0000 0.0000 1723.7628 -7439.4469 293.2016 -9163.2097 -7414.9540 301.1976 242.8086 272.7141 29816.2057 -149.0225 -70.2563
ENERGY: 1500000 3.5535 8.7153 12.9085 0.0000 -10732.3708 1502.6975 0.0000 0.0000 1797.5802 -7406.9158 305.7575 -9204.4960 -7413.6131 301.7815 671.9540 739.3568 29987.5529 -71.3657 6.0546
TCL: Running FEP window  13: Lambda1 0.6    Lambda2 0.65   [dLambda 0.050000000000000044]
TCL: Setting parameter firsttimestep to 0
TCL: Setting parameter alchLambda to 0.6
Info: NONBONDED TABLE R-SQUARED SPACING: 0.0625
Info: NONBONDED TABLE SIZE: 705 POINTS
TCL: Setting parameter alchLambda2 to 0.65
Info: NONBONDED TABLE R-SQUARED SPACING: 0.0625
Info: NONBONDED TABLE SIZE: 705 POINTS
TCL: Running for 1500000 steps
ETITLE: TS BOND ANGLE DIHED IMPRP ELECT VDW BOUNDARY MISC KINETIC TOTAL TEMP POTENTIAL TOTALAVG TEMPAVG PRESSURE GPRESSURE VOLUME PRESSAVG GPRESSAVG
ENERGY: 0 3.5535 8.7153 12.9085 0.0000 -10732.4935 1502.2354 0.0000 0.0000 1796.7157 -7408.3651 305.6104 -9205.0807 -7408.3651 305.6104 664.2378 749.3676 29987.5529 664.2378 749.3676
ENERGY: 300000 8.8061 6.0337 12.8107 0.0000 -10719.5743 1444.2310 0.0000 0.0000 1747.1176 -7500.5752 297.1741 -9247.6928 -7445.6749 301.7170 -260.2692 -205.5940 30536.0830 122.5613 197.1695
ENERGY: 600000 2.5800 15.8807 7.5139 0.0000 -10588.4581 1418.9241 0.0000 0.0000 1762.6108 -7380.9487 299.8094 -9143.5595 -7410.2655 300.0998 -149.1922 -97.8306 30697.9329 -9.0960 69.4295
ENERGY: 900000 5.3306 8.4294 14.0775 0.0000 -10584.6103 1373.9335 0.0000 0.0000 1769.1870 -7413.6523 300.9280 -9182.8393 -7414.8701 300.2920 -209.6016 -99.1435 30263.4960 -94.6903 -13.3075
ENERGY: 1200000 4.1918 10.6322 12.4167 0.0000 -10689.9797 1468.2447 0.0000 0.0000 1774.9075 -7419.5868 301.9010 -9194.4943 -7407.8181 300.4678 265.1376 283.0507 30531.6623 -17.0789 52.2120
ENERGY: 1500000 4.5297 12.9080 9.6822 0.0000 -10739.2424 1568.3676 0.0000 0.0000 1824.3751 -7319.3797 310.3151 -9143.7548 -7398.7773 301.4510 1146.6683 1206.6401 30245.9515 71.2800 131.9803
TCL: Running FEP window  14: Lambda1 0.65   Lambda2 0.7000000000000001 [dLambda 0.050000000000000044]
TCL: Setting parameter firsttimestep to 0
TCL: Setting parameter alchLambda to 0.65
Info: NONBONDED TABLE R-SQUARED SPACING: 0.0625
Info: NONBONDED TABLE SIZE: 705 POINTS
TCL: Setting parameter alchLambda2 to 0.7000000000000001
Info: NONBONDED TABLE R-SQUARED SPACING: 0.0625
Info: NONBONDED TABLE SIZE: 705 POINTS
TCL: Running for 1500000 steps
ETITLE: TS BOND ANGLE DIHED IMPRP ELECT VDW BOUNDARY MISC KINETIC TOTAL TEMP POTENTIAL TOTALAVG TEMPAVG PRESSURE GPRESSURE VOLUME PRESSAVG GPRESSAVG
ENERGY: 0 4.5297 12.9080 9.6822 0.0000 -10739.7943 1568.0936 0.0000 0.0000 1823.4636 -7321.1172 310.1601 -9144.5807 -7321.1172 310.1601 1143.7205 1214.0480 30245.9515 1143.7205 1214.0480
ENERGY: 300000 3.8106 8.4269 10.1276 0.0000 -10695.2168 1432.2377 0.0000 0.0000 1791.1885 -7449.4254 304.6703 -9240.6140 -7385.4808 304.7063 44.8437 94.1620 30154.1235 456.5899 522.8403
ENERGY: 600000 4.3745 7.6767 8.1558 0.0000 -10681.0948 1415.9391 0.0000 0.0000 1766.2787 -7478.6700 300.4333 -9244.9487 -7411.1160 301.9339 -543.5545 -507.1479 30657.4314 -38.0474 35.2796
ENERGY: 900000 5.6525 7.9571 11.8620 0.0000 -10642.9234 1417.9776 0.0000 0.0000 1774.6256 -7424.8487 301.8530 -9199.4742 -7406.0275 302.2804 -117.6974 -80.0703 30197.3094 -60.8420 0.5131
ENERGY: 1200000 2.8286 9.8160 14.4681 0.0000 -10759.5736 1477.6920 0.0000 0.0000 1745.5507 -7509.2181 296.9076 -9254.7689 -7410.3779 301.3578 291.5259 307.1567 30053.9114 -16.5072 47.1282
ENERGY: 1500000 4.6750 11.2954 9.7343 0.0000 -10684.5998 1447.6669 0.0000 0.0000 1800.7820 -7410.4462 306.3021 -9211.2282 -7412.5939 301.6210 63.4360 93.3899 30729.3058 -41.2219 18.7554
TCL: Running FEP window  15: Lambda1 0.7000000000000001 Lambda2 0.7500000000000001 [dLambda 0.050000000000000044]
TCL: Setting parameter firsttimestep to 0
TCL: Setting parameter alchLambda to 0.7000000000000001
Info: NONBONDED TABLE R-SQUARED SPACING: 0.0625
Info: NONBONDED TABLE SIZE: 705 POINTS
TCL: Setting parameter alchLambda2 to 0.7500000000000001
Info: NONBONDED TABLE R-SQUARED SPACING: 0.0625
Info: NONBONDED TABLE SIZE: 705 POINTS
TCL: Running for 1500000 steps
ETITLE: TS BOND ANGLE DIHED IMPRP ELECT VDW BOUNDARY MISC KINETIC TOTAL TEMP POTENTIAL TOTALAVG TEMPAVG PRESSURE GPRESSURE VOLUME PRESSAVG GPRESSAVG
ENERGY: 0 4.6750 11.2954 9.7343 0.0000 -10685.9951 1446.8819 0.0000 0.0000 1799.9050 -7413.5036 306.1529 -9213.4086 -7413.5036 306.1529 4.9442 97.7724 30729.3058 4.9442 97.7724
ENERGY: 300000 5.7922 6.5504 9.6729 0.0000 -10596.1495 1432.6552 0.0000 0.0000 1815.3025 -7326.1763 308.7719 -9141.4789 -7386.3712 305.9553 254.6929 292.1911 30494.4352 235.8240 310.9383
ENERGY: 600000 3.0023 9.5937 15.9171 0.0000 -10656.0819 1392.5660 0.0000 0.0000 1763.8681 -7471.1347 300.0233 -9235.0028 -7408.4792 304.0788 -136.1802 -79.0241 30162.9097 22.6524 95.0326
ENERGY: 900000 6.0582 8.8328 14.2592 0.0000 -10473.9847 1338.2856 0.0000 0.0000 1760.5808 -7345.9682 299.4641 -9106.5489 -7414.1749 303.0934 -549.8591 -519.8384 30767.5835 -76.9783 -6.6642
ENERGY: 1200000 6.0630 5.3372 11.3034 0.0000 -10671.7653 1450.4689 0.0000 0.0000 1757.6644 -7440.9284 298.9681 -9198.5929 -7421.1842 302.1188 181.0179 328.4784 30519.7287 21.1472 99.2732
ENERGY: 1500000 6.1603 8.4268 12.6839 0.0000 -10681.1902 1428.1291 0.0000 0.0000 1737.2530 -7488.5371 295.4962 -9225.7901 -7425.6232 300.7720 -178.9773 -138.6522 30608.5587 -1.1475 77.4114
TCL: Running FEP window  16: Lambda1 0.7500000000000001 Lambda2 0.8000000000000002 [dLambda 0.050000000000000044]
TCL: Setting parameter firsttimestep to 0
TCL: Setting parameter alchLambda to 0.7500000000000001
Info: NONBONDED TABLE R-SQUARED SPACING: 0.0625
Info: NONBONDED TABLE SIZE: 705 POINTS
TCL: Setting parameter alchLambda2 to 0.8000000000000002
Info: NONBONDED TABLE R-SQUARED SPACING: 0.0625
Info: NONBONDED TABLE SIZE: 705 POINTS
TCL: Running for 1500000 steps
ETITLE: TS BOND ANGLE DIHED IMPRP ELECT VDW BOUNDARY MISC KINETIC TOTAL TEMP POTENTIAL TOTALAVG TEMPAVG PRESSURE GPRESSURE VOLUME PRESSAVG GPRESSAVG
ENERGY: 0 6.1603 8.4268 12.6839 0.0000 -10682.3394 1428.1139 0.0000 0.0000 1736.3635 -7490.5909 295.3449 -9226.9545 -7490.5909 295.3449 -207.7758 -124.9652 30608.5587 -207.7758 -124.9652
ENERGY: 300000 5.0582 8.3245 12.8962 0.0000 -10718.3510 1473.3478 0.0000 0.0000 1749.7318 -7468.9923 297.6188 -9218.7242 -7443.1644 298.3841 197.2941 274.9673 30492.4743 52.2038 115.3504
ENERGY: 600000 4.9837 9.9340 10.4331 0.0000 -10615.1691 1438.8208 0.0000 0.0000 1786.3296 -7364.6677 303.8438 -9150.9973 -7438.5856 299.7588 4.9227 82.3283 30734.4195 -58.1349 9.1760
ENERGY: 900000 7.7191 8.3199 11.9097 0.0000 -10548.2348 1370.3991 0.0000 0.0000 1736.6299 -7413.2570 295.3902 -9149.8870 -7426.3369 300.8583 -456.9369 -380.9813 30326.6797 -49.6572 16.7533
ENERGY: 1200000 10.0395 5.4754 12.9976 0.0000 -10700.2140 1432.0667 0.0000 0.0000 1779.1085 -7460.5264 302.6156 -9239.6349 -7433.1209 301.0812 -343.2997 -306.7825 30361.6778 -4.2692 61.1502
ENERGY: 1500000 7.0427 8.1420 10.9812 0.0000 -10627.8595 1342.4715 0.0000 0.0000 1744.2512 -7514.9708 296.6865 -9259.2220 -7432.9799 300.8528 -786.4938 -712.3515 30212.7633 5.4383 66.0651
TCL: Running FEP window  17: Lambda1 0.8000000000000002 Lambda2 0.8500000000000002 [dLambda 0.050000000000000044]
TCL: Setting parameter firsttimestep to 0
TCL: Setting parameter alchLambda to 0.8000000000000002
Info: NONBONDED TABLE R-SQUARED SPACING: 0.0625
Info: NONBONDED TABLE SIZE: 705 POINTS
TCL: Setting parameter alchLambda2 to 0.8500000000000002
Info: NONBONDED TABLE R-SQUARED SPACING: 0.0625
Info: NONBONDED TABLE SIZE: 705 POINTS
TCL: Running for 1500000 steps
ETITLE: TS BOND ANGLE DIHED IMPRP ELECT VDW BOUNDARY MISC KINETIC TOTAL TEMP POTENTIAL TOTALAVG TEMPAVG PRESSURE GPRESSURE VOLUME PRESSAVG GPRESSAVG
ENERGY: 0 7.0427 8.1420 10.9812 0.0000 -10629.0536 1342.3316 0.0000 0.0000 1743.3955 -7517.1606 296.5410 -9260.5561 -7517.1606 296.5410 -782.2574 -698.4374 30212.7633 -782.2574 -698.4374
ENERGY: 300000 4.1271 6.0377 11.8052 0.0000 -10768.4170 1504.0966 0.0000 0.0000 1746.3727 -7495.9777 297.0474 -9242.3504 -7453.3966 300.8322 311.2366 408.3011 30167.9022 -53.7850 44.7357
ENERGY: 600000 7.8328 6.3687 18.0426 0.0000 -10588.1451 1422.1433 0.0000 0.0000 1797.4592 -7336.2985 305.7369 -9133.7576 -7425.6738 301.5123 17.8040 73.9390 30556.3110 -63.2329 24.0513
ENERGY: 900000 10.3652 10.9733 12.4302 0.0000 -10572.4137 1366.2846 0.0000 0.0000 1780.3428 -7392.0176 302.8255 -9172.3604 -7427.4765 300.2199 -430.8285 -341.2789 30679.9834 -268.0078 -184.5821
ENERGY: 1200000 4.9458 8.4902 11.2302 0.0000 -10669.1978 1440.3470 0.0000 0.0000 1736.4892 -7467.6953 295.3663 -9204.1845 -7420.9113 299.9768 187.5589 237.5964 30484.2956 -244.6030 -168.3677
ENERGY: 1500000 5.5264 10.2005 9.5641 0.0000 -10584.6524 1410.3216 0.0000 0.0000 1751.8143 -7397.2256 297.9730 -9149.0399 -7409.6316 300.2685 -26.9673 50.9716 30473.3707 -178.7745 -101.2268
TCL: Running FEP window  18: Lambda1 0.8500000000000002 Lambda2 0.9000000000000002 [dLambda 0.050000000000000044]
TCL: Setting parameter firsttimestep to 0
TCL: Setting parameter alchLambda to 0.8500000000000002
Info: NONBONDED TABLE R-SQUARED SPACING: 0.0625
Info: NONBONDED TABLE SIZE: 705 POINTS
TCL: Setting parameter alchLambda2 to 0.9000000000000002
Info: NONBONDED TABLE R-SQUARED SPACING: 0.0625
Info: NONBONDED TABLE SIZE: 705 POINTS
TCL: Running for 1500000 steps
ETITLE: TS BOND ANGLE DIHED IMPRP ELECT VDW BOUNDARY MISC KINETIC TOTAL TEMP POTENTIAL TOTALAVG TEMPAVG PRESSURE GPRESSURE VOLUME PRESSAVG GPRESSAVG
ENERGY: 0 5.5264 10.2005 9.5641 0.0000 -10586.0381 1411.0931 0.0000 0.0000 1750.9163 -7398.7378 297.8202 -9149.6541 -7398.7378 297.8202 -23.9293 76.2719 30473.3707 -23.9293 76.2719
ENERGY: 300000 7.3079 6.7965 9.9754 0.0000 -10788.2435 1475.3876 0.0000 0.0000 1734.2432 -7554.5330 294.9842 -9288.7762 -7494.1201 299.7380 236.8392 316.2648 29928.2965 270.4543 339.8399
ENERGY: 600000 4.2054 6.9414 16.5538 0.0000 -10626.9704 1439.4781 0.0000 0.0000 1756.5281 -7403.2637 298.7748 -9159.7918 -7473.4897 298.3987 211.5902 274.8158 30482.4493 223.3522 288.3731
ENERGY: 900000 5.2605 7.8306 13.2958 0.0000 -10638.2460 1403.3189 0.0000 0.0000 1816.0194 -7392.5209 308.8939 -9208.5403 -7457.9697 300.9701 -50.9345 -14.0407 29875.7773 281.9560 338.2828
ENERGY: 1200000 3.4179 7.5629 12.9589 0.0000 -10720.9445 1499.1563 0.0000 0.0000 1775.9010 -7421.9476 302.0700 -9197.8485 -7451.2533 301.6442 519.2000 547.3802 30629.1670 190.7883 244.9385
ENERGY: 1500000 9.9723 6.0507 10.5913 0.0000 -10707.6999 1417.1358 0.0000 0.0000 1810.2041 -7453.7458 307.9047 -9263.9498 -7441.4533 302.7672 -361.5542 -349.4049 30364.9816 146.5024 197.8263
TCL: Running FEP window  19: Lambda1 0.9000000000000002 Lambda2 0.9500000000000003 [dLambda 0.050000000000000044]
TCL: Setting parameter firsttimestep to 0
TCL: Setting parameter alchLambda to 0.9000000000000002
Info: NONBONDED TABLE R-SQUARED SPACING: 0.0625
Info: NONBONDED TABLE SIZE: 705 POINTS
TCL: Setting parameter alchLambda2 to 0.9500000000000003
Info: NONBONDED TABLE R-SQUARED SPACING: 0.0625
Info: NONBONDED TABLE SIZE: 705 POINTS
TCL: Running for 1500000 steps
ETITLE: TS BOND ANGLE DIHED IMPRP ELECT VDW BOUNDARY MISC KINETIC TOTAL TEMP POTENTIAL TOTALAVG TEMPAVG PRESSURE GPRESSURE VOLUME PRESSAVG GPRESSAVG
ENERGY: 0 9.9723 6.0507 10.5913 0.0000 -10710.9235 1418.4673 0.0000 0.0000 1809.3196 -7456.5223 307.7543 -9265.8419 -7456.5223 307.7543 -394.9095 -324.7242 30364.9816 -394.9095 -324.7242
ENERGY: 300000 3.2261 6.5049 10.7307 0.0000 -10737.7261 1507.0187 0.0000 0.0000 1735.5796 -7474.6661 295.2115 -9210.2456 -7471.7693 297.3942 645.8841 690.8166 30002.0631 427.5140 465.3586
ENERGY: 600000 4.6557 8.0880 10.5301 0.0000 -10845.5123 1571.3185 0.0000 0.0000 1728.8168 -7522.1032 294.0612 -9250.9200 -7465.6115 298.2324 1222.0061 1390.1916 29759.1380 409.6183 465.3004
ENERGY: 900000 3.3973 7.0728 10.7181 0.0000 -10584.2126 1371.7867 0.0000 0.0000 1774.7404 -7416.4972 301.8726 -9191.2377 -7467.3603 298.4942 -455.5299 -422.7130 30366.6733 296.3886 351.2294
ENERGY: 1200000 5.3054 6.0478 14.0338 0.0000 -10681.4179 1408.9332 0.0000 0.0000 1756.9008 -7490.1968 298.8382 -9247.0976 -7462.2104 299.5827 -411.9920 -340.4318 30483.5241 277.6720 327.2179
ENERGY: 1500000 6.3148 8.0393 11.0138 0.0000 -10541.6586 1390.3092 0.0000 0.0000 1692.5631 -7433.4183 287.8947 -9125.9814 -7465.4297 298.7461 -325.9322 -197.0342 30785.5621 195.3354 250.9412
TCL: Running FEP window  20: Lambda1 0.9500000000000003 Lambda2 1.0    [dLambda 0.04999999999999971]
TCL: Setting parameter firsttimestep to 0
TCL: Setting parameter alchLambda to 0.9500000000000003
Info: NONBONDED TABLE R-SQUARED SPACING: 0.0625
Info: NONBONDED TABLE SIZE: 705 POINTS
TCL: Setting parameter alchLambda2 to 1.0
Info: NONBONDED TABLE R-SQUARED SPACING: 0.0625
Info: NONBONDED TABLE SIZE: 705 POINTS
TCL: Running for 1500000 steps
ETITLE: TS BOND ANGLE DIHED IMPRP ELECT VDW BOUNDARY MISC KINETIC TOTAL TEMP POTENTIAL TOTALAVG TEMPAVG PRESSURE GPRESSURE VOLUME PRESSAVG GPRESSAVG
ENERGY: 0 6.3148 8.0393 11.0138 0.0000 -10543.7757 1389.9886 0.0000 0.0000 1691.6902 -7436.7289 287.7462 -9128.4192 -7436.7289 287.7462 -266.0709 -188.3188 30785.5621 -266.0709 -188.3188
ENERGY: 300000 5.6551 4.8476 11.8334 0.0000 -10737.5763 1435.8139 0.0000 0.0000 1797.8533 -7481.5730 305.8039 -9279.4263 -7434.4832 302.2574 -15.8642 13.9826 30377.9505 111.4776 149.3738
ENERGY: 600000 4.0671 7.4589 14.1957 0.0000 -10598.4883 1405.6105 0.0000 0.0000 1801.0070 -7366.1491 306.3404 -9167.1561 -7423.0662 303.6978 -57.3011 26.5840 30702.5850 -56.5570 -11.4043
ENERGY: 900000 2.7981 6.7043 14.4988 0.0000 -10569.9128 1397.5199 0.0000 0.0000 1760.3279 -7388.0638 299.4211 -9148.3917 -7421.1606 302.3579 82.0574 134.8101 30226.2334 -8.1054 39.8875
ENERGY: 1200000 5.1473 6.5851 12.8007 0.0000 -10598.4662 1390.0439 0.0000 0.0000 1794.5459 -7389.3433 305.2414 -9183.8892 -7421.6843 302.2758 -426.1741 -337.4522 30710.0971 -109.0302 -53.6799
ENERGY: 1500000 7.4888 7.5754 8.4565 0.0000 -10634.4912 1494.9664 0.0000 0.0000 1682.5759 -7433.4283 286.1959 -9116.0042 -7427.9856 300.4159 805.7197 936.5065 30428.0487 -78.7540 -12.1968
TCL: Exiting due to exit command.
