Info: SIMULATION PARAMETERS:
Info: TIMESTEP               2
Info: NUMBER OF STEPS        0
Info: STEPS PER CYCLE        10
Info: PERIODIC CELL BASIS 1  31.0032 0 0
Info: PERIODIC CELL BASIS 2  0 29.6013 0
Info: PERIODIC CELL BASIS 3  0 0 32.9608
Info: PERIODIC CELL CENTER   0 0 0
Info: WRAPPING WATERS AROUND PERIODIC BOUNDARIES ON OUTPUT.
Info: WRAPPING ALL CLUSTERS AROUND PERIODIC BOUNDARIES ON OUTPUT.
Info: FIRST LDB TIMESTEP     50
Info: LAST LDB TIMESTEP     -1
Info: HOM BACKGROUND SCALING 1
Info: PME BACKGROUND SCALING 1
Info: MIN ATOMS PER PATCH    40
Info: EMPTY PATCH LOAD       40 ATOMS
Info: VELOCITY FILE          mobley_5948990_equil.vel
Info: CENTER OF MASS MOVING INITIALLY? NO
Info: DIELECTRIC             1
Info: EXCLUDE                SCALED ONE-FOUR
Info: 1-4 ELECTROSTATICS SCALED BY 0.833333
Info: MODIFIED 1-4 VDW PARAMETERS WILL BE USED
Info: DCD FILENAME           mobley_5948990_prod.dcd
Info: DCD FREQUENCY          100000
Info: DCD FIRST STEP         100000
Info: DCD FILE WILL CONTAIN UNIT CELL DATA
Info: XST FILENAME           mobley_5948990_prod.xst
Info: XST FREQUENCY          100000
Info: NO VELOCITY DCD OUTPUT
Info: NO FORCE DCD OUTPUT
Info: OUTPUT FILENAME        mobley_5948990_prod
Info: BINARY OUTPUT FILES WILL BE USED
Info: RESTART FILENAME       mobley_5948990_prod.restart
Info: RESTART FREQUENCY      100000
Info: BINARY RESTART FILES WILL BE USED
Info: CUTOFF                 9
Info: PAIRLIST DISTANCE      11
Info: PAIRLIST SHRINK RATE   0.01
Info: PAIRLIST GROW RATE     0.01
Info: PAIRLIST TRIGGER       0.3
Info: PAIRLISTS PER CYCLE    2
Info: PAIRLISTS ENABLED
Info: MARGIN                 2
Info: HYDROGEN GROUP CUTOFF  2.5
Info: PATCH DIMENSION        15.5
Info: ENERGY OUTPUT STEPS    100000
Info: ENERGY EVALUATION STEPS    100000
Info: OUTPUT ENERGY PRECISION 4
Info: CROSSTERM ENERGY INCLUDED IN DIHEDRAL
Info: TIMING OUTPUT STEPS    1000000
Info: PRESSURE OUTPUT STEPS  100000
Info: ALCHEMICAL FEP ON
Info: FEP CURRENT LAMBDA VALUE     0
Info: FEP COMPARISON LAMBDA VALUE  0.05
Info: FEP INTRA-ALCHEMICAL NON-BONDED INTERACTIONS WILL BE RETAINED
Info: FEP INTRA-ALCHEMICAL BONDED INTERACTIONS WILL BE RETAINED
Info: FEP VDW SHIFTING COEFFICIENT 5
Info: FEP ELEC. ACTIVE FOR ANNIHILATED PARTICLES BETWEEN LAMBDA = 0 AND LAMBDA = 0.5
Info: FEP ELEC. ACTIVE FOR EXNIHILATED PARTICLES BETWEEN LAMBDA = 0.5 AND LAMBDA = 1
Info: FEP VDW ACTIVE FOR ANNIHILATED PARTICLES BETWEEN LAMBDA = 0 AND LAMBDA = 1
Info: FEP VDW ACTIVE FOR EXNIHILATED PARTICLES BETWEEN LAMBDA = 0 AND LAMBDA = 1
Info: FEP BOND ACTIVE FOR ANNIHILATED PARTICLES BETWEEN LAMBDA = 1 AND LAMBDA = 1
Info: FEP BOND ACTIVE FOR EXNIHILATED PARTICLES BETWEEN LAMBDA = 0 AND LAMBDA = 0
Info: LANGEVIN DYNAMICS ACTIVE
Info: LANGEVIN TEMPERATURE   300
Info: LANGEVIN USING BBK INTEGRATOR
Info: LANGEVIN DAMPING COEFFICIENT IS 1 INVERSE PS
Info: LANGEVIN DYNAMICS APPLIED TO HYDROGENS
Info: LANGEVIN PISTON PRESSURE CONTROL ACTIVE
Info:        TARGET PRESSURE IS 1.01325 BAR
Info:     OSCILLATION PERIOD IS 50 FS
Info:             DECAY TIME IS 25 FS
Info:     PISTON TEMPERATURE IS 300 K
Info:       PRESSURE CONTROL IS GROUP-BASED
Info:    INITIAL STRAIN RATE IS 0.000289176 0.000289176 0.000289176
Info:       CELL FLUCTUATION IS ISOTROPIC
Info: PARTICLE MESH EWALD (PME) ACTIVE
Info: PME TOLERANCE               1e-06
Info: PME EWALD COEFFICIENT       0.348832
Info: PME INTERPOLATION ORDER     4
Info: PME GRID DIMENSIONS         32 32 36
Info: PME MAXIMUM GRID SPACING    1
Info: PME CALCULATION WILL BE PERFORMED ON GPU
Info: FULL ELECTROSTATIC EVALUATION FREQUENCY      2
Info: USING VERLET I (r-RESPA) MTS SCHEME.
Info: C1 SPLITTING OF LONG RANGE ELECTROSTATICS
Info: PLACING ATOMS IN PATCHES BY HYDROGEN GROUPS
Info: RIGID BONDS TO HYDROGEN : ALL
Info:         ERROR TOLERANCE : 1e-08
Info:          MAX ITERATIONS : 100
Info: RIGID WATER USING SETTLE ALGORITHM
Info: RANDOM NUMBER SEED     1743770000
Info: USE HYDROGEN BONDS?    NO
Info: Using AMBER format force field!
Info: AMBER PARM FILE        mobley_5948990.prmtop
Info: COORDINATE PDB         mobley_5948990.pdb
Info: Exclusions will be read from PARM file!
Info: SCNB (VDW SCALING)     2
Info: USING ARITHMETIC MEAN TO COMBINE L-J SIGMA PARAMETERS
Info: BINARY COORDINATES     mobley_5948990_equil.coor
Info: SUMMARY OF PARAMETERS:
Info: 8 BONDS
Info: 8 ANGLES
Info:   8 HARMONIC
Info:   0 COSINE-BASED
Info: 4 DIHEDRAL
Info: 0 IMPROPER
Info: 0 CROSSTERM
Info: 0 VDW
Info: 28 VDW_PAIRS
Info: 0 NBTHOLE_PAIRS
Info: To read alchdata from file: mobley_5948990.pdb
Info: To read alchflag data from column: 5
Info: STRUCTURE SUMMARY:
Info: 2950 ATOMS
Info: 2950 BONDS
Info: 24 ANGLES
Info: 39 DIHEDRALS
Info: 0 IMPROPERS
Info: 0 CROSSTERMS
Info: 3003 EXCLUSIONS
Info: 2940 RIGID BONDS
Info: ALCH: 0 ATOMS TO DISAPPEAR IN FINAL STATE
Info: ALCH: 16 ATOMS TO APPEAR IN FINAL STATE
Info: 5910 DEGREES OF FREEDOM
Info: 988 HYDROGEN GROUPS
Info: 3 ATOMS IN LARGEST HYDROGEN GROUP
Info: 988 MIGRATION GROUPS
Info: 3 ATOMS IN LARGEST MIGRATION GROUP
Info: TOTAL MASS = 17757.8 amu
Info: TOTAL CHARGE = -0.000100024 e
Info: MASS DENSITY = 0.974837 g/cm^3
Info: ATOM DENSITY = 0.0975228 atoms/A^3
Info: ADDED 0 IMPLICIT EXCLUSIONS
Info: NONBONDED TABLE R-SQUARED SPACING: 0.0625
Info: NONBONDED TABLE SIZE: 705 POINTS
Info: REMOVING COM VELOCITY -0.263155 -0.0347833 0.200694
Info: Use 3D box decompostion in PME FFT.
Info: Updated CUDA force table with 4096 elements.
Info: Updated CUDA LJ table with 7 x 7 elements.
Info: Found 18 unique exclusion lists needing 40 bytes
TCL: Running for 1500000 steps
ETITLE: TS BOND ANGLE DIHED IMPRP ELECT VDW BOUNDARY MISC KINETIC TOTAL TEMP POTENTIAL TOTALAVG TEMPAVG PRESSURE GPRESSURE VOLUME PRESSAVG GPRESSAVG
ENERGY: 0 4.1508 3.4713 9.3675 0.0000 -10727.4818 1451.1649 0.0000 0.0000 1793.6513 -7465.6760 305.4505 -9259.3273 -7465.6760 305.4505 101.6647 171.8605 30249.3224 101.6647 171.8605
ENERGY: 300000 4.7668 6.1332 1.4899 0.0000 -10796.0249 1442.1352 0.0000 0.0000 1702.1918 -7639.3080 289.8754 -9341.4998 -7528.6800 296.8630 -295.8481 -219.4096 29854.1745 -84.0806 -12.0725
ENERGY: 600000 2.3473 4.8075 5.5191 0.0000 -10749.2718 1471.5766 0.0000 0.0000 1753.2574 -7511.7639 298.5717 -9265.0213 -7532.7912 297.9545 218.7516 244.7999 30178.9281 -33.1508 24.2200
ENERGY: 900000 5.3191 2.6961 9.1274 0.0000 -10906.9774 1572.0057 0.0000 0.0000 1765.8659 -7551.9631 300.7188 -9317.8290 -7520.8961 299.1206 1202.3847 1251.9626 29398.5101 -40.7409 17.5091
ENERGY: 1200000 3.0194 5.1843 6.0615 0.0000 -10769.9874 1496.3243 0.0000 0.0000 1780.2082 -7479.1897 303.1613 -9259.3979 -7507.4587 299.2372 248.7238 316.7603 30063.9216 4.0774 67.1954
ENERGY: 1500000 3.4107 3.2578 3.4849 0.0000 -10848.3095 1503.7221 0.0000 0.0000 1801.0646 -7533.3694 306.7130 -9334.4340 -7516.3251 299.5280 520.0236 576.8051 29636.3608 19.9541 81.1377
TCL: Running FEP window   2: Lambda1 0.05   Lambda2 0.1    [dLambda 0.05  ]
TCL: Setting parameter firsttimestep to 0
TCL: Setting parameter alchLambda to 0.05
Info: NONBONDED TABLE R-SQUARED SPACING: 0.0625
Info: NONBONDED TABLE SIZE: 705 POINTS
TCL: Setting parameter alchLambda2 to 0.1
Info: NONBONDED TABLE R-SQUARED SPACING: 0.0625
Info: NONBONDED TABLE SIZE: 705 POINTS
TCL: Running for 1500000 steps
ETITLE: TS BOND ANGLE DIHED IMPRP ELECT VDW BOUNDARY MISC KINETIC TOTAL TEMP POTENTIAL TOTALAVG TEMPAVG PRESSURE GPRESSURE VOLUME PRESSAVG GPRESSAVG
ENERGY: 0 3.4107 3.2578 3.4849 0.0000 -10848.3099 1505.5482 0.0000 0.0000 1800.1832 -7532.4252 306.5629 -9332.6083 -7532.4252 306.5629 506.2423 582.6099 29636.3608 506.2423 582.6099
ENERGY: 300000 3.6060 5.2210 7.8316 0.0000 -10814.9078 1473.4138 0.0000 0.0000 1820.8783 -7503.9570 310.0872 -9324.8353 -7505.1192 302.7461 338.5626 397.5219 29934.4377 49.6057 112.8911
ENERGY: 600000 5.6830 3.8394 9.0333 0.0000 -10668.6791 1417.9800 0.0000 0.0000 1768.9641 -7463.1793 301.2464 -9232.1435 -7487.3971 302.7965 -182.1601 -83.5165 30172.5092 -238.0934 -178.7025
ENERGY: 900000 2.7452 3.3053 3.7851 0.0000 -10691.8944 1446.0912 0.0000 0.0000 1802.6392 -7433.3284 306.9811 -9235.9676 -7481.1243 302.8545 -22.4576 8.1938 30548.0515 -235.5692 -175.8235
ENERGY: 1200000 4.4961 9.2181 8.0846 0.0000 -10877.6308 1477.8277 0.0000 0.0000 1768.9263 -7609.0779 301.2400 -9378.0042 -7487.3050 302.0767 -114.4617 -92.2304 29906.4605 -318.6651 -261.2680
ENERGY: 1500000 4.5734 6.5118 3.7755 0.0000 -10562.4413 1384.8725 0.0000 0.0000 1824.0236 -7338.6846 310.6228 -9162.7081 -7482.6823 302.8115 -496.6121 -374.5896 30708.3434 -290.5935 -231.9837
TCL: Running FEP window   3: Lambda1 0.1    Lambda2 0.15000000000000002 [dLambda 0.05000000000000002]
TCL: Setting parameter firsttimestep to 0
TCL: Setting parameter alchLambda to 0.1
Info: NONBONDED TABLE R-SQUARED SPACING: 0.0625
Info: NONBONDED TABLE SIZE: 705 POINTS
TCL: Setting parameter alchLambda2 to 0.15000000000000002
Info: NONBONDED TABLE R-SQUARED SPACING: 0.0625
Info: NONBONDED TABLE SIZE: 705 POINTS
TCL: Running for 1500000 steps
ETITLE: TS BOND ANGLE DIHED IMPRP ELECT VDW BOUNDARY MISC KINETIC TOTAL TEMP POTENTIAL TOTALAVG TEMPAVG PRESSURE GPRESSURE VOLUME PRESSAVG GPRESSAVG
ENERGY: 0 4.5734 6.5118 3.7755 0.0000 -10562.4411 1385.9339 0.0000 0.0000 1823.1972 -7338.4494 310.4821 -9161.6465 -7338.4494 310.4821 -435.7002 -370.6523 30708.3434 -435.7002 -370.6523
ENERGY: 300000 4.2800 2.4405 6.4896 0.0000 -10747.3618 1459.6630 0.0000 0.0000 1771.1861 -7503.3027 301.6248 -9274.4887 -7449.6594 301.2560 240.1396 297.3414 29928.8341 -296.2128 -260.3815
ENERGY: 600000 1.9310 4.3174 4.9156 0.0000 -10669.3839 1450.5631 0.0000 0.0000 1779.8280 -7427.8288 303.0965 -9207.6568 -7443.8613 302.6747 52.7355 137.6339 30469.6684 -72.1384 -17.5464
ENERGY: 900000 2.4897 3.4439 3.7445 0.0000 -10719.2286 1418.6380 0.0000 0.0000 1745.2533 -7545.6593 297.2086 -9290.9126 -7481.4020 300.0874 -265.4374 -199.6003 30143.4751 -160.4662 -104.3117
ENERGY: 1200000 5.8411 4.7195 7.4716 0.0000 -10693.5877 1388.9492 0.0000 0.0000 1753.6699 -7532.9364 298.6419 -9286.6063 -7488.3272 300.0723 -554.6042 -493.1990 30166.8021 -193.2878 -139.4106
ENERGY: 1500000 3.9472 4.1303 11.8817 0.0000 -10650.8001 1402.4850 0.0000 0.0000 1746.3657 -7481.9903 297.3980 -9228.3560 -7485.3939 299.9774 59.5685 70.2817 29920.7424 -58.9756 -8.9189
TCL: Running FEP window   4: Lambda1 0.15000000000000002 Lambda2 0.2    [dLambda 0.04999999999999999]
TCL: Setting parameter firsttimestep to 0
TCL: Setting parameter alchLambda to 0.15000000000000002
Info: NONBONDED TABLE R-SQUARED SPACING: 0.0625
Info: NONBONDED TABLE SIZE: 705 POINTS
TCL: Setting parameter alchLambda2 to 0.2
Info: NONBONDED TABLE R-SQUARED SPACING: 0.0625
Info: NONBONDED TABLE SIZE: 705 POINTS
TCL: Running for 1500000 steps
ETITLE: TS BOND ANGLE DIHED IMPRP ELECT VDW BOUNDARY MISC KINETIC TOTAL TEMP POTENTIAL TOTALAVG TEMPAVG PRESSURE GPRESSURE VOLUME PRESSAVG GPRESSAVG
ENERGY: 0 3.9472 4.1303 11.8817 0.0000 -10650.8001 1402.4221 0.0000 0.0000 1745.4903 -7482.9286 297.2490 -9228.4189 -7482.9286 297.2490 -10.4038 73.7812 29920.7424 -10.4038 73.7812
ENERGY: 300000 4.1960 6.2909 7.0498 0.0000 -10619.6570 1378.8267 0.0000 0.0000 1755.0485 -7468.2452 298.8767 -9223.2937 -7444.7853 299.5475 -333.6839 -272.0686 29835.2882 -47.9813 20.8520
ENERGY: 600000 6.6406 3.9170 7.6294 0.0000 -10646.0912 1374.1199 0.0000 0.0000 1733.3468 -7520.4375 295.1810 -9253.7843 -7459.7337 299.3423 -492.9213 -407.1841 30367.7109 -65.3277 -4.3434
ENERGY: 900000 2.1371 2.9974 8.3994 0.0000 -10753.4071 1423.7545 0.0000 0.0000 1794.9026 -7521.2160 305.6636 -9316.1186 -7466.8950 300.6115 -616.0622 -492.5591 30711.7210 -52.8789 10.4627
ENERGY: 1200000 2.8026 2.3288 8.3774 0.0000 -10748.5932 1462.3965 0.0000 0.0000 1729.5396 -7543.1484 294.5326 -9272.6880 -7474.8770 300.7350 36.2054 76.2444 30344.7676 -41.4848 18.0010
ENERGY: 1500000 5.2973 2.2908 5.7855 0.0000 -10691.7612 1334.4419 0.0000 0.0000 1753.8034 -7590.1424 298.6646 -9343.9458 -7474.1330 300.5142 -1075.9328 -1118.2314 30589.7235 -165.5191 -109.8309
TCL: Running FEP window   5: Lambda1 0.2    Lambda2 0.25   [dLambda 0.04999999999999999]
TCL: Setting parameter firsttimestep to 0
TCL: Setting parameter alchLambda to 0.2
Info: NONBONDED TABLE R-SQUARED SPACING: 0.0625
Info: NONBONDED TABLE SIZE: 705 POINTS
TCL: Setting parameter alchLambda2 to 0.25
Info: NONBONDED TABLE R-SQUARED SPACING: 0.0625
Info: NONBONDED TABLE SIZE: 705 POINTS
TCL: Running for 1500000 steps
ETITLE: TS BOND ANGLE DIHED IMPRP ELECT VDW BOUNDARY MISC KINETIC TOTAL TEMP POTENTIAL TOTALAVG TEMPAVG PRESSURE GPRESSURE VOLUME PRESSAVG GPRESSAVG
ENERGY: 0 5.2973 2.2908 5.7855 0.0000 -10691.7609 1334.6330 0.0000 0.0000 1752.9165 -7590.8378 298.5136 -9343.7543 -7590.8378 298.5136 -1177.2996 -1112.0654 30589.7235 -1177.2996 -1112.0654
ENERGY: 300000 2.7737 5.2647 4.9957 0.0000 -10768.6438 1485.5454 0.0000 0.0000 1769.5384 -7500.5258 301.3442 -9270.0642 -7502.3528 300.8052 240.5746 319.2323 30294.2049 -0.5616 56.7418
ENERGY: 600000 5.0081 7.5243 4.9421 0.0000 -10670.2304 1420.7369 0.0000 0.0000 1774.9653 -7457.0537 302.2684 -9232.0190 -7490.1206 300.2893 6.3525 58.9117 30274.0924 174.1463 218.9790
ENERGY: 900000 1.7411 2.9847 4.2114 0.0000 -10778.2936 1422.9382 0.0000 0.0000 1733.9410 -7612.4771 295.2822 -9346.4182 -7509.1347 299.0931 -399.1079 -257.4743 30153.9204 -4.0892 44.0577
ENERGY: 1200000 2.8093 6.5896 3.4915 0.0000 -10744.7483 1502.1846 0.0000 0.0000 1775.9952 -7453.6782 302.4438 -9229.6734 -7500.0089 299.8438 507.2418 563.9764 30433.8637 42.8781 91.1346
ENERGY: 1500000 2.1621 4.2894 5.4777 0.0000 -10654.2579 1428.5940 0.0000 0.0000 1795.3614 -7418.3734 305.7418 -9213.7348 -7490.4363 301.1403 14.6184 129.8078 30553.9300 79.1614 132.7107
TCL: Running FEP window   6: Lambda1 0.25   Lambda2 0.3    [dLambda 0.04999999999999999]
TCL: Setting parameter firsttimestep to 0
TCL: Setting parameter alchLambda to 0.25
Info: NONBONDED TABLE R-SQUARED SPACING: 0.0625
Info: NONBONDED TABLE SIZE: 705 POINTS
TCL: Setting parameter alchLambda2 to 0.3
Info: NONBONDED TABLE R-SQUARED SPACING: 0.0625
Info: NONBONDED TABLE SIZE: 705 POINTS
TCL: Running for 1500000 steps
ETITLE: TS BOND ANGLE DIHED IMPRP ELECT VDW BOUNDARY MISC KINETIC TOTAL TEMP POTENTIAL TOTALAVG TEMPAVG PRESSURE GPRESSURE VOLUME PRESSAVG GPRESSAVG
ENERGY: 0 2.1621 4.2894 5.4777 0.0000 -10654.2581 1428.4223 0.0000 0.0000 1794.4824 -7419.4244 305.5921 -9213.9067 -7419.4244 305.5921 54.3438 132.5555 30553.9300 54.3438 132.5555
ENERGY: 300000 5.4164 3.3527 8.3760 0.0000 -10824.6501 1518.1899 0.0000 0.0000 1744.9534 -7544.3617 297.1575 -9289.3151 -7478.4656 300.6224 298.8023 326.5370 30211.2367 246.4113 311.4771
ENERGY: 600000 4.6542 4.0545 7.6772 0.0000 -10831.5262 1531.7762 0.0000 0.0000 1780.7905 -7502.5736 303.2604 -9283.3641 -7474.5249 302.2964 693.8278 722.1082 30119.4513 194.4434 252.5830
ENERGY: 900000 2.2228 4.0340 11.3292 0.0000 -10590.9777 1357.7001 0.0000 0.0000 1730.2771 -7485.4145 294.6582 -9215.6916 -7498.5365 300.9078 -601.6013 -521.6240 30723.9402 93.7080 154.1930
ENERGY: 1200000 4.4355 4.7540 7.0673 0.0000 -10881.7356 1544.9442 0.0000 0.0000 1742.2943 -7578.2403 296.7047 -9320.5346 -7497.3445 300.7485 689.4333 706.6199 29882.3932 96.4405 157.1306
ENERGY: 1500000 9.2063 3.8520 6.5488 0.0000 -10536.8035 1344.6850 0.0000 0.0000 1758.6544 -7413.8571 299.4907 -9172.5115 -7490.8357 300.5374 -450.8225 -416.2368 30238.0116 61.0639 121.4794
TCL: Running FEP window   7: Lambda1 0.3    Lambda2 0.35   [dLambda 0.04999999999999999]
TCL: Setting parameter firsttimestep to 0
TCL: Setting parameter alchLambda to 0.3
Info: NONBONDED TABLE R-SQUARED SPACING: 0.0625
Info: NONBONDED TABLE SIZE: 705 POINTS
TCL: Setting parameter alchLambda2 to 0.35
Info: NONBONDED TABLE R-SQUARED SPACING: 0.0625
Info: NONBONDED TABLE SIZE: 705 POINTS
TCL: Running for 1500000 steps
ETITLE: TS BOND ANGLE DIHED IMPRP ELECT VDW BOUNDARY MISC KINETIC TOTAL TEMP POTENTIAL TOTALAVG TEMPAVG PRESSURE GPRESSURE VOLUME PRESSAVG GPRESSAVG
ENERGY: 0 9.2062 3.8520 6.5488 0.0000 -10536.8033 1345.1949 0.0000 0.0000 1757.7532 -7414.2482 299.3373 -9172.0014 -7414.2482 299.3373 -486.2441 -409.3449 30238.0116 -486.2441 -409.3449
ENERGY: 300000 3.4706 2.1676 3.6888 0.0000 -10706.6823 1469.7403 0.0000 0.0000 1712.6927 -7514.9223 291.6637 -9227.6150 -7490.7821 298.8546 356.6068 350.2946 30098.9143 -210.2595 -168.5560
ENERGY: 600000 1.2142 4.5515 5.4297 0.0000 -10685.2890 1442.8926 0.0000 0.0000 1730.4474 -7500.7536 294.6872 -9231.2010 -7497.9230 298.5811 54.5074 80.5632 30342.5997 -184.4484 -144.2077
ENERGY: 900000 2.2325 5.8264 5.0924 0.0000 -10695.3308 1449.3845 0.0000 0.0000 1794.3099 -7438.4852 305.5627 -9232.7950 -7504.7768 298.3433 90.7868 129.4735 30570.4442 46.1285 96.3179
ENERGY: 1200000 3.6043 4.7051 4.4790 0.0000 -10620.8548 1418.7262 0.0000 0.0000 1743.9450 -7445.3952 296.9858 -9189.3402 -7496.5751 298.6013 -117.0203 -81.3499 30262.9899 41.7388 79.9523
ENERGY: 1500000 5.4694 4.7113 5.9922 0.0000 -10649.2399 1405.5177 0.0000 0.0000 1799.3130 -7428.2362 306.4147 -9227.5492 -7488.2311 299.6155 -448.5519 -333.3986 30418.6885 21.7475 65.6213
TCL: Running FEP window   8: Lambda1 0.35   Lambda2 0.39999999999999997 [dLambda 0.04999999999999999]
TCL: Setting parameter firsttimestep to 0
TCL: Setting parameter alchLambda to 0.35
Info: NONBONDED TABLE R-SQUARED SPACING: 0.0625
Info: NONBONDED TABLE SIZE: 705 POINTS
TCL: Setting parameter alchLambda2 to 0.39999999999999997
Info: NONBONDED TABLE R-SQUARED SPACING: 0.0625
Info: NONBONDED TABLE SIZE: 705 POINTS
TCL: Running for 1500000 steps
ETITLE: TS BOND ANGLE DIHED IMPRP ELECT VDW BOUNDARY MISC KINETIC TOTAL TEMP POTENTIAL TOTALAVG TEMPAVG PRESSURE GPRESSURE VOLUME PRESSAVG GPRESSAVG
ENERGY: 0 5.4694 4.7113 5.9922 0.0000 -10649.2398 1405.5026 0.0000 0.0000 1798.4618 -7429.1024 306.2698 -9227.5641 -7429.1024 306.2698 -424.1677 -328.8331 30418.6885 -424.1677 -328.8331
ENERGY: 300000 3.3296 5.3776 6.9576 0.0000 -10567.1858 1358.5539 0.0000 0.0000 1770.0379 -7422.9292 301.4293 -9192.9672 -7466.0287 303.6566 -458.9794 -385.1600 30338.6228 -282.6796 -208.1996
ENERGY: 600000 2.0948 3.6406 3.4569 0.0000 -10704.8080 1435.5775 0.0000 0.0000 1769.8434 -7490.1948 301.3962 -9260.0382 -7473.3018 302.3424 -29.3108 79.2725 30518.3980 -204.3799 -122.0001
ENERGY: 900000 1.4964 5.0784 7.1352 0.0000 -10740.3099 1478.6808 0.0000 0.0000 1822.2700 -7425.6492 310.3242 -9247.9192 -7472.7361 303.1183 528.7154 629.4936 29885.2475 -96.4990 -18.4334
ENERGY: 1200000 6.4434 2.6318 9.6449 0.0000 -10719.7480 1409.7889 0.0000 0.0000 1758.1474 -7533.0916 299.4044 -9291.2390 -7489.0672 302.0305 -510.1799 -469.6120 30551.7614 -59.7440 20.6433
ENERGY: 1500000 2.4212 7.7767 9.1694 0.0000 -10851.6925 1504.8885 0.0000 0.0000 1709.5156 -7617.9211 291.1226 -9327.4367 -7491.0917 300.8008 398.7471 513.2196 29980.2434 -66.6991 16.1600
TCL: Running FEP window   9: Lambda1 0.39999999999999997 Lambda2 0.44999999999999996 [dLambda 0.04999999999999999]
TCL: Setting parameter firsttimestep to 0
TCL: Setting parameter alchLambda to 0.39999999999999997
Info: NONBONDED TABLE R-SQUARED SPACING: 0.0625
Info: NONBONDED TABLE SIZE: 705 POINTS
TCL: Setting parameter alchLambda2 to 0.44999999999999996
Info: NONBONDED TABLE R-SQUARED SPACING: 0.0625
Info: NONBONDED TABLE SIZE: 705 POINTS
TCL: Running for 1500000 steps
ETITLE: TS BOND ANGLE DIHED IMPRP ELECT VDW BOUNDARY MISC KINETIC TOTAL TEMP POTENTIAL TOTALAVG TEMPAVG PRESSURE GPRESSURE VOLUME PRESSAVG GPRESSAVG
ENERGY: 0 2.4212 7.7767 9.1694 0.0000 -10851.6928 1505.1611 0.0000 0.0000 1708.6140 -7618.5504 290.9691 -9327.1644 -7618.5504 290.9691 443.6396 521.4667 29980.2434 443.6396 521.4667
ENERGY: 300000 2.6415 3.1230 8.1334 0.0000 -10838.1904 1534.3089 0.0000 0.0000 1775.7849 -7514.1987 302.4080 -9289.9836 -7549.0317 297.8732 1149.5689 1160.0792 29806.3278 359.8228 404.7429
ENERGY: 600000 4.6007 2.7103 6.4749 0.0000 -10712.3569 1413.0910 0.0000 0.0000 1806.6113 -7478.8687 307.6576 -9285.4800 -7522.4115 299.3237 -290.9286 -198.1174 30573.5315 175.7693 229.9887
ENERGY: 900000 6.6445 2.1404 6.3018 0.0000 -10688.8233 1486.7266 0.0000 0.0000 1801.3796 -7385.6304 306.7666 -9187.0100 -7502.6801 299.5014 338.5100 381.1512 30174.6165 93.2335 148.2915
ENERGY: 1200000 3.0217 6.8606 3.8445 0.0000 -10670.5540 1406.3183 0.0000 0.0000 1759.6027 -7490.9063 299.6522 -9250.5089 -7496.7693 299.7325 -412.1786 -303.2466 30419.8552 9.1087 64.2798
ENERGY: 1500000 3.0394 5.5975 7.3887 0.0000 -10718.0528 1475.0291 0.0000 0.0000 1766.2031 -7460.7950 300.7763 -9226.9980 -7491.5609 299.3944 -79.1927 -61.5806 31044.0294 2.5210 54.4754
TCL: Running FEP window  10: Lambda1 0.44999999999999996 Lambda2 0.49999999999999994 [dLambda 0.04999999999999999]
TCL: Setting parameter firsttimestep to 0
TCL: Setting parameter alchLambda to 0.44999999999999996
Info: NONBONDED TABLE R-SQUARED SPACING: 0.0625
Info: NONBONDED TABLE SIZE: 705 POINTS
TCL: Setting parameter alchLambda2 to 0.49999999999999994
Info: NONBONDED TABLE R-SQUARED SPACING: 0.0625
Info: NONBONDED TABLE SIZE: 705 POINTS
TCL: Running for 1500000 steps
ETITLE: TS BOND ANGLE DIHED IMPRP ELECT VDW BOUNDARY MISC KINETIC TOTAL TEMP POTENTIAL TOTALAVG TEMPAVG PRESSURE GPRESSURE VOLUME PRESSAVG GPRESSAVG
ENERGY: 0 3.0394 5.5975 7.3887 0.0000 -10718.0502 1475.2986 0.0000 0.0000 1765.3280 -7461.3980 300.6272 -9226.7260 -7461.3980 300.6272 -122.7068 -52.3446 31044.0294 -122.7068 -52.3446
ENERGY: 300000 3.5247 3.1381 4.2160 0.0000 -10666.4994 1414.1056 0.0000 0.0000 1721.5034 -7520.0116 293.1641 -9241.5150 -7504.4445 296.1689 -197.4238 -152.2883 30557.6265 -314.6491 -285.5065
ENERGY: 600000 2.1307 6.7627 5.6178 0.0000 -10796.3417 1453.7208 0.0000 0.0000 1832.4039 -7495.7058 312.0499 -9328.1098 -7522.7830 298.9719 76.8403 121.0600 30192.1727 -275.5506 -224.0057
ENERGY: 900000 1.4572 4.8648 5.8755 0.0000 -10683.3601 1396.6116 0.0000 0.0000 1746.5613 -7527.9896 297.4313 -9274.5509 -7508.2685 299.4532 -307.9045 -253.6839 30331.4697 -182.7203 -124.4549
ENERGY: 1200000 5.2148 4.4034 5.9896 0.0000 -10660.5691 1430.8195 0.0000 0.0000 1783.0165 -7431.1252 303.6395 -9214.1417 -7509.4799 299.9760 -100.7028 -28.7330 30408.3990 -120.5665 -60.6248
ENERGY: 1500000 1.7595 4.4347 7.0399 0.0000 -10664.8732 1417.9547 0.0000 0.0000 1736.9097 -7496.7747 295.7877 -9233.6844 -7499.2136 299.8353 -265.1642 -210.6036 30510.5854 -136.6322 -77.5419
TCL: Running FEP window  11: Lambda1 0.49999999999999994 Lambda2 0.5499999999999999 [dLambda 0.04999999999999999]
TCL: Setting parameter firsttimestep to 0
TCL: Setting parameter alchLambda to 0.49999999999999994
Info: NONBONDED TABLE R-SQUARED SPACING: 0.0625
Info: NONBONDED TABLE SIZE: 705 POINTS
TCL: Setting parameter alchLambda2 to 0.5499999999999999
Info: NONBONDED TABLE R-SQUARED SPACING: 0.0625
Info: NONBONDED TABLE SIZE: 705 POINTS
TCL: Running for 1500000 steps
ETITLE: TS BOND ANGLE DIHED IMPRP ELECT VDW BOUNDARY MISC KINETIC TOTAL TEMP POTENTIAL TOTALAVG TEMPAVG PRESSURE GPRESSURE VOLUME PRESSAVG GPRESSAVG
ENERGY: 0 1.7595 4.4347 7.0399 0.0000 -10664.8740 1417.5186 0.0000 0.0000 1736.0301 -7498.0911 295.6379 -9234.1212 -7498.0911 295.6379 -295.6929 -204.7417 30510.5854 -295.6929 -204.7417
ENERGY: 300000 3.6663 6.6491 2.5837 0.0000 -10633.3867 1475.2173 0.0000 0.0000 1762.5396 -7382.7308 300.1524 -9145.2704 -7456.1878 301.1928 319.0771 423.2794 30841.1977 122.9146 227.0473
ENERGY: 600000 1.9861 6.0208 7.5447 0.0000 -10687.8356 1406.6070 0.0000 0.0000 1753.4423 -7512.2347 298.6032 -9265.6770 -7469.2919 300.2128 -120.6363 12.1155 29890.1579 47.7760 144.3615
ENERGY: 900000 4.5496 5.5401 5.5588 0.0000 -10534.4231 1304.8895 0.0000 0.0000 1779.9973 -7433.8878 303.1253 -9213.8851 -7454.1860 300.8302 -858.7431 -821.8677 30263.4280 -115.1811 -33.1731
ENERGY: 1200000 4.0448 3.8991 7.8898 0.0000 -10710.6247 1448.5241 0.0000 0.0000 1779.1346 -7467.1322 302.9784 -9246.2668 -7450.1218 301.1699 254.5398 339.6771 30014.0360 -25.7222 50.2087
ENERGY: 1500000 4.3852 6.8344 8.1709 0.0000 -10707.4342 1404.7925 0.0000 0.0000 1742.9030 -7540.3483 296.8084 -9283.2513 -7463.8563 300.2121 -387.5021 -327.0246 30449.2651 -11.7005 66.2672
TCL: Running FEP window  12: Lambda1 0.5499999999999999 Lambda2 0.6    [dLambda 0.050000000000000044]
TCL: Setting parameter firsttimestep to 0
TCL: Setting parameter alchLambda to 0.5499999999999999
Info: NONBONDED TABLE R-SQUARED SPACING: 0.0625
Info: NONBONDED TABLE SIZE: 705 POINTS
TCL: Setting parameter alchLambda2 to 0.6
Info: NONBONDED TABLE R-SQUARED SPACING: 0.0625
Info: NONBONDED TABLE SIZE: 705 POINTS
TCL: Running for 1500000 steps
ETITLE: TS BOND ANGLE DIHED IMPRP ELECT VDW BOUNDARY MISC KINETIC TOTAL TEMP POTENTIAL TOTALAVG TEMPAVG PRESSURE GPRESSURE VOLUME PRESSAVG GPRESSAVG
ENERGY: 0 4.3852 6.8344 8.1709 0.0000 -10707.2819 1405.0315 0.0000 0.0000 1742.0430 -7540.8169 296.6619 -9282.8599 -7540.8169 296.6619 -404.2370 -317.9562 30449.2651 -404.2370 -317.9562
ENERGY: 300000 2.1586 4.2326 8.7067 0.0000 -10650.1253 1446.1356 0.0000 0.0000 1803.1109 -7385.7808 307.0615 -9188.8917 -7521.8259 299.8298 -93.4467 -19.0012 30888.7664 29.4431 101.3681
ENERGY: 600000 3.5984 4.7978 6.3006 0.0000 -10785.2401 1442.4116 0.0000 0.0000 1776.7156 -7551.4162 302.5665 -9328.1318 -7520.3222 301.4449 -83.4869 -37.7547 30089.8512 143.6949 218.6095
ENERGY: 900000 4.8858 3.5699 6.5673 0.0000 -10713.9986 1410.3893 0.0000 0.0000 1782.5246 -7506.0616 303.5557 -9288.5862 -7521.1701 301.2991 -141.8328 -99.1011 30000.7740 -21.6838 51.5423
ENERGY: 1200000 3.2543 4.0047 7.3734 0.0000 -10675.6356 1420.0285 0.0000 0.0000 1718.0575 -7522.9172 292.5773 -9240.9748 -7523.8873 300.4444 -106.0171 -41.2760 30478.2898 -68.1779 4.9072
ENERGY: 1500000 3.0547 6.4557 6.7279 0.0000 -10729.0506 1470.6604 0.0000 0.0000 1784.1389 -7458.0130 303.8306 -9242.1519 -7516.0727 301.2672 152.9952 223.6484 30699.1752 -19.3489 51.6972
TCL: Running FEP window  13: Lambda1 0.6    Lambda2 0.65   [dLambda 0.050000000000000044]
TCL: Setting parameter firsttimestep to 0
TCL: Setting parameter alchLambda to 0.6
Info: NONBONDED TABLE R-SQUARED SPACING: 0.0625
Info: NONBONDED TABLE SIZE: 705 POINTS
TCL: Setting parameter alchLambda2 to 0.65
Info: NONBONDED TABLE R-SQUARED SPACING: 0.0625
Info: NONBONDED TABLE SIZE: 705 POINTS
TCL: Running for 1500000 steps
ETITLE: TS BOND ANGLE DIHED IMPRP ELECT VDW BOUNDARY MISC KINETIC TOTAL TEMP POTENTIAL TOTALAVG TEMPAVG PRESSURE GPRESSURE VOLUME PRESSAVG GPRESSAVG
ENERGY: 0 3.0547 6.4557 6.7279 0.0000 -10729.7544 1470.7349 0.0000 0.0000 1783.2974 -7459.4838 303.6873 -9242.7812 -7459.4838 303.6873 149.4436 228.2372 30699.1752 149.4436 228.2372
ENERGY: 300000 5.4023 2.9241 7.0707 0.0000 -10686.6294 1355.9461 0.0000 0.0000 1753.8516 -7561.4346 298.6729 -9315.2862 -7534.2330 298.9208 -1129.8537 -1037.0415 30562.7512 -215.3817 -122.7347
ENERGY: 600000 2.6704 6.4200 8.7379 0.0000 -10744.1527 1425.2085 0.0000 0.0000 1714.4549 -7586.6611 291.9638 -9301.1159 -7528.3900 298.8069 217.8108 201.5319 29838.6696 -7.8030 56.3773
ENERGY: 900000 3.6438 6.2865 4.4455 0.0000 -10742.9180 1462.0315 0.0000 0.0000 1780.3374 -7486.1734 303.1833 -9266.5108 -7520.1947 299.0646 550.7955 589.3864 30120.6838 -24.5441 49.3875
ENERGY: 1200000 3.3152 6.0619 8.5011 0.0000 -10675.4593 1393.8138 0.0000 0.0000 1762.9957 -7500.7716 300.2300 -9263.7674 -7511.3095 300.2435 -355.0189 -346.6520 30560.7684 -16.9738 54.8346
ENERGY: 1500000 4.8983 4.3445 2.2659 0.0000 -10669.6371 1374.7722 0.0000 0.0000 1777.8485 -7505.5077 302.7594 -9283.3561 -7506.7414 300.9162 -739.8490 -669.1001 30530.2523 -55.8983 13.8386
TCL: Running FEP window  14: Lambda1 0.65   Lambda2 0.7000000000000001 [dLambda 0.050000000000000044]
TCL: Setting parameter firsttimestep to 0
TCL: Setting parameter alchLambda to 0.65
Info: NONBONDED TABLE R-SQUARED SPACING: 0.0625
Info: NONBONDED TABLE SIZE: 705 POINTS
TCL: Setting parameter alchLambda2 to 0.7000000000000001
Info: NONBONDED TABLE R-SQUARED SPACING: 0.0625
Info: NONBONDED TABLE SIZE: 705 POINTS
TCL: Running for 1500000 steps
ETITLE: TS BOND ANGLE DIHED IMPRP ELECT VDW BOUNDARY MISC KINETIC TOTAL TEMP POTENTIAL TOTALAVG TEMPAVG PRESSURE GPRESSURE VOLUME PRESSAVG GPRESSAVG
ENERGY: 0 4.8983 4.3445 2.2659 0.0000 -10670.8359 1375.3127 0.0000 0.0000 1777.0164 -7506.9980 302.6177 -9284.0145 -7506.9980 302.6177 -754.5051 -658.1010 30530.2523 -754.5051 -658.1010
ENERGY: 300000 2.2840 4.0327 4.6182 0.0000 -10710.5713 1431.3250 0.0000 0.0000 1787.5860 -7480.7253 304.4177 -9268.3113 -7491.7973 303.8933 -21.5937 9.4096 30527.3235 94.5922 151.2917
ENERGY: 600000 3.1091 9.1164 4.9315 0.0000 -10623.2753 1381.8901 0.0000 0.0000 1742.0661 -7482.1621 296.6658 -9224.2282 -7485.1353 303.6660 -629.3190 -512.9382 30560.4248 -263.4231 -190.1335
ENERGY: 900000 4.5293 4.1755 3.5290 0.0000 -10730.8880 1451.9366 0.0000 0.0000 1801.4364 -7465.2811 306.7763 -9266.7175 -7506.5365 302.3928 310.0633 335.1599 30327.1105 -136.8480 -63.2289
ENERGY: 1200000 3.9573 9.0697 5.2238 0.0000 -10569.2654 1292.6564 0.0000 0.0000 1794.5481 -7463.8102 305.6033 -9258.3583 -7491.8387 302.5170 -1368.9907 -1287.6815 30746.7190 -228.3123 -155.0039
ENERGY: 1500000 3.3461 5.0671 10.8801 0.0000 -10632.3026 1386.3876 0.0000 0.0000 1788.8669 -7437.7548 304.6358 -9226.6218 -7489.2546 303.1175 -52.9065 17.1470 30336.4782 -187.1534 -120.1116
TCL: Running FEP window  15: Lambda1 0.7000000000000001 Lambda2 0.7500000000000001 [dLambda 0.050000000000000044]
TCL: Setting parameter firsttimestep to 0
TCL: Setting parameter alchLambda to 0.7000000000000001
Info: NONBONDED TABLE R-SQUARED SPACING: 0.0625
Info: NONBONDED TABLE SIZE: 705 POINTS
TCL: Setting parameter alchLambda2 to 0.7500000000000001
Info: NONBONDED TABLE R-SQUARED SPACING: 0.0625
Info: NONBONDED TABLE SIZE: 705 POINTS
TCL: Running for 1500000 steps
ETITLE: TS BOND ANGLE DIHED IMPRP ELECT VDW BOUNDARY MISC KINETIC TOTAL TEMP POTENTIAL TOTALAVG TEMPAVG PRESSURE GPRESSURE VOLUME PRESSAVG GPRESSAVG
ENERGY: 0 3.3461 5.0671 10.8801 0.0000 -10633.8320 1387.0058 0.0000 0.0000 1787.9557 -7439.5772 304.4806 -9227.5330 -7439.5772 304.4806 -50.7820 30.4074 30336.4782 -50.7820 30.4074
ENERGY: 300000 3.5584 3.2461 5.2505 0.0000 -10898.4594 1555.7854 0.0000 0.0000 1772.6213 -7557.9977 301.8692 -9330.6190 -7507.5352 301.5167 844.9231 919.0337 29867.0552 412.8191 479.2197
ENERGY: 600000 4.1067 7.0711 4.3210 0.0000 -10590.6238 1333.7307 0.0000 0.0000 1791.0210 -7450.3734 305.0026 -9241.3943 -7504.5820 299.9427 -483.1659 -446.7501 30411.0157 64.9552 125.7303
ENERGY: 900000 1.1863 3.4999 9.1507 0.0000 -10686.3912 1383.5979 0.0000 0.0000 1767.7884 -7521.1679 301.0462 -9288.9563 -7496.7591 300.0480 -352.6747 -302.8082 30107.5253 -17.2764 53.1828
ENERGY: 1200000 3.0958 6.2375 7.3600 0.0000 -10811.6525 1456.8526 0.0000 0.0000 1764.7883 -7573.3183 300.5353 -9338.1066 -7518.3268 300.0791 -114.6245 -61.5111 30319.0418 10.7807 81.9155
ENERGY: 1500000 4.5496 4.1763 5.1179 0.0000 -10638.2708 1331.7575 0.0000 0.0000 1793.7402 -7498.9292 305.4657 -9292.6694 -7515.6013 300.6014 -1168.0130 -1067.9022 30908.4443 -82.4239 -10.7593
TCL: Running FEP window  16: Lambda1 0.7500000000000001 Lambda2 0.8000000000000002 [dLambda 0.050000000000000044]
TCL: Setting parameter firsttimestep to 0
TCL: Setting parameter alchLambda to 0.7500000000000001
Info: NONBONDED TABLE R-SQUARED SPACING: 0.0625
Info: NONBONDED TABLE SIZE: 705 POINTS
TCL: Setting parameter alchLambda2 to 0.8000000000000002
Info: NONBONDED TABLE R-SQUARED SPACING: 0.0625
Info: NONBONDED TABLE SIZE: 705 POINTS
TCL: Running for 1500000 steps
ETITLE: TS BOND ANGLE DIHED IMPRP ELECT VDW BOUNDARY MISC KINETIC TOTAL TEMP POTENTIAL TOTALAVG TEMPAVG PRESSURE GPRESSURE VOLUME PRESSAVG GPRESSAVG
ENERGY: 0 4.5496 4.1763 5.1179 0.0000 -10638.5638 1331.2959 0.0000 0.0000 1792.8906 -7500.5335 305.3210 -9293.4240 -7500.5335 305.3210 -1152.8173 -1062.2943 30908.4443 -1152.8173 -1062.2943
ENERGY: 300000 2.0035 4.4516 8.1612 0.0000 -10766.5354 1416.3755 0.0000 0.0000 1756.4759 -7579.0676 299.1198 -9335.5436 -7525.5719 300.6397 -154.1524 -154.1368 30367.8972 -445.7529 -373.7579
ENERGY: 600000 4.5481 5.0163 3.5577 0.0000 -10937.2200 1527.5714 0.0000 0.0000 1696.3172 -7700.2092 288.8750 -9396.5264 -7541.1509 298.4159 616.6418 662.9004 29791.0658 -217.2850 -158.0476
ENERGY: 900000 3.1070 5.6608 3.4120 0.0000 -10876.4837 1502.4456 0.0000 0.0000 1728.7577 -7633.1006 294.3995 -9361.8583 -7542.4556 297.7818 281.0524 343.7287 30115.4225 -147.2029 -88.7501
ENERGY: 1200000 2.9321 5.9934 8.1406 0.0000 -10960.2674 1543.5880 0.0000 0.0000 1728.2055 -7671.4078 294.3054 -9399.6133 -7550.3217 298.4173 348.4029 399.9480 30329.6108 -111.3501 -49.6766
ENERGY: 1500000 4.9967 7.6851 7.3902 0.0000 -10652.1709 1413.6827 0.0000 0.0000 1776.0554 -7442.3610 302.4541 -9218.4164 -7538.6927 298.8660 -354.1543 -291.9897 30984.0526 -122.3114 -64.5961
TCL: Running FEP window  17: Lambda1 0.8000000000000002 Lambda2 0.8500000000000002 [dLambda 0.050000000000000044]
TCL: Setting parameter firsttimestep to 0
TCL: Setting parameter alchLambda to 0.8000000000000002
Info: NONBONDED TABLE R-SQUARED SPACING: 0.0625
Info: NONBONDED TABLE SIZE: 705 POINTS
TCL: Setting parameter alchLambda2 to 0.8500000000000002
Info: NONBONDED TABLE R-SQUARED SPACING: 0.0625
Info: NONBONDED TABLE SIZE: 705 POINTS
TCL: Running for 1500000 steps
ETITLE: TS BOND ANGLE DIHED IMPRP ELECT VDW BOUNDARY MISC KINETIC TOTAL TEMP POTENTIAL TOTALAVG TEMPAVG PRESSURE GPRESSURE VOLUME PRESSAVG GPRESSAVG
ENERGY: 0 4.9967 7.6851 7.3902 0.0000 -10653.1563 1413.8200 0.0000 0.0000 1775.1393 -7444.1252 302.2980 -9219.2644 -7444.1252 302.2980 -358.9936 -281.1144 30984.0526 -358.9936 -281.1144
ENERGY: 300000 5.3587 4.2376 10.2084 0.0000 -10670.7971 1298.6544 0.0000 0.0000 1760.3430 -7591.9950 299.7783 -9352.3380 -7534.0087 301.2085 -1407.8964 -1294.9219 30173.6438 -448.9023 -377.6278
ENERGY: 600000 2.5762 5.8184 8.8608 0.0000 -10789.7490 1420.1105 0.0000 0.0000 1757.7739 -7594.6092 299.3408 -9352.3831 -7528.0090 302.5102 -340.9701 -238.5153 30062.4884 -330.6755 -257.4605
ENERGY: 900000 3.2846 5.2949 7.4389 0.0000 -10707.2214 1419.2301 0.0000 0.0000 1767.4927 -7504.4800 300.9959 -9271.9728 -7511.7696 302.9753 -429.6191 -264.1190 30642.6653 -246.9535 -152.0156
ENERGY: 1200000 2.6692 5.2899 9.9954 0.0000 -10601.4061 1365.4644 0.0000 0.0000 1771.4724 -7446.5149 301.6736 -9217.9873 -7505.9644 302.1284 -643.8507 -552.2166 30670.1647 -201.1742 -117.5023
ENERGY: 1500000 3.3284 3.6386 5.7139 0.0000 -10778.8393 1475.8734 0.0000 0.0000 1726.7514 -7563.5336 294.0578 -9290.2850 -7511.0141 301.2672 374.1260 391.6065 30123.4127 -157.1180 -85.6488
TCL: Running FEP window  18: Lambda1 0.8500000000000002 Lambda2 0.9000000000000002 [dLambda 0.050000000000000044]
TCL: Setting parameter firsttimestep to 0
TCL: Setting parameter alchLambda to 0.8500000000000002
Info: NONBONDED TABLE R-SQUARED SPACING: 0.0625
Info: NONBONDED TABLE SIZE: 705 POINTS
TCL: Setting parameter alchLambda2 to 0.9000000000000002
Info: NONBONDED TABLE R-SQUARED SPACING: 0.0625
Info: NONBONDED TABLE SIZE: 705 POINTS
TCL: Running for 1500000 steps
ETITLE: TS BOND ANGLE DIHED IMPRP ELECT VDW BOUNDARY MISC KINETIC TOTAL TEMP POTENTIAL TOTALAVG TEMPAVG PRESSURE GPRESSURE VOLUME PRESSAVG GPRESSAVG
ENERGY: 0 3.3284 3.6386 5.7139 0.0000 -10780.3382 1476.7027 0.0000 0.0000 1725.8405 -7565.1141 293.9027 -9290.9546 -7565.1141 293.9027 346.4979 409.6237 30123.4127 346.4979 409.6237
ENERGY: 300000 1.8634 6.4633 3.8278 0.0000 -10858.6186 1530.2392 0.0000 0.0000 1762.3178 -7553.9071 300.1146 -9316.2249 -7564.6107 296.1283 682.9626 712.7135 29998.8834 302.4203 352.2182
ENERGY: 600000 4.6444 5.6577 6.6987 0.0000 -10704.1842 1385.0737 0.0000 0.0000 1756.8421 -7545.2677 299.1821 -9302.1098 -7559.1786 297.1870 -655.8143 -536.0024 30170.4698 -113.9116 -42.0957
ENERGY: 900000 3.9795 2.8393 6.5530 0.0000 -10557.7396 1356.9302 0.0000 0.0000 1705.6718 -7481.7658 290.4680 -9187.4376 -7541.8354 296.3829 -511.4911 -491.4357 30409.0728 -132.0061 -69.3795
ENERGY: 1200000 4.9900 2.8531 7.3840 0.0000 -10695.5565 1435.3410 0.0000 0.0000 1700.7232 -7544.2651 289.6253 -9244.9884 -7534.1783 297.7444 98.6459 54.8529 30017.6359 -97.1753 -45.9586
ENERGY: 1500000 0.8502 5.8515 10.6056 0.0000 -10728.7140 1447.5111 0.0000 0.0000 1741.5969 -7522.2986 296.5859 -9263.8955 -7532.6803 297.4373 351.7047 384.7978 30058.1252 -126.5305 -73.9567
TCL: Running FEP window  19: Lambda1 0.9000000000000002 Lambda2 0.9500000000000003 [dLambda 0.050000000000000044]
TCL: Setting parameter firsttimestep to 0
TCL: Setting parameter alchLambda to 0.9000000000000002
Info: NONBONDED TABLE R-SQUARED SPACING: 0.0625
Info: NONBONDED TABLE SIZE: 705 POINTS
TCL: Setting parameter alchLambda2 to 0.9500000000000003
Info: NONBONDED TABLE R-SQUARED SPACING: 0.0625
Info: NONBONDED TABLE SIZE: 705 POINTS
TCL: Running for 1500000 steps
ETITLE: TS BOND ANGLE DIHED IMPRP ELECT VDW BOUNDARY MISC KINETIC TOTAL TEMP POTENTIAL TOTALAVG TEMPAVG PRESSURE GPRESSURE VOLUME PRESSAVG GPRESSAVG
ENERGY: 0 0.8502 5.8515 10.6056 0.0000 -10730.7772 1450.9768 0.0000 0.0000 1740.7415 -7521.7514 296.4403 -9262.4930 -7521.7514 296.4403 346.3629 437.1398 30058.1252 346.3629 437.1398
ENERGY: 300000 3.1562 4.7763 7.2720 0.0000 -10799.8761 1558.4973 0.0000 0.0000 1746.9138 -7479.2606 297.4914 -9226.1744 -7483.7150 302.1782 1118.9038 1193.5890 30182.5228 511.1081 587.4767
ENERGY: 600000 2.2245 4.0350 9.1165 0.0000 -10790.8325 1500.7503 0.0000 0.0000 1765.6994 -7509.0068 300.6905 -9274.7062 -7477.4981 301.6730 877.0414 904.0137 29929.5086 367.1200 419.4832
ENERGY: 900000 2.8008 6.8603 4.2837 0.0000 -10765.2513 1457.1422 0.0000 0.0000 1724.0557 -7570.1086 293.5988 -9294.1644 -7481.9127 301.1508 305.6183 397.8611 30313.4205 273.7112 331.3963
ENERGY: 1200000 3.4368 4.6455 6.7045 0.0000 -10770.5299 1443.7028 0.0000 0.0000 1775.7498 -7536.2904 302.4020 -9312.0402 -7487.6241 301.8807 9.9094 40.3368 30339.3156 123.6686 187.3522
ENERGY: 1500000 4.2546 4.8281 8.5302 0.0000 -10663.1640 1411.7721 0.0000 0.0000 1800.5094 -7433.2696 306.6185 -9233.7790 -7476.2212 302.1891 -155.4897 -119.1395 30606.1967 87.9241 146.8774
TCL: Running FEP window  20: Lambda1 0.9500000000000003 Lambda2 1.0    [dLambda 0.04999999999999971]
TCL: Setting parameter firsttimestep to 0
TCL: Setting parameter alchLambda to 0.9500000000000003
Info: NONBONDED TABLE R-SQUARED SPACING: 0.0625
Info: NONBONDED TABLE SIZE: 705 POINTS
TCL: Setting parameter alchLambda2 to 1.0
Info: NONBONDED TABLE R-SQUARED SPACING: 0.0625
Info: NONBONDED TABLE SIZE: 705 POINTS
TCL: Running for 1500000 steps
ETITLE: TS BOND ANGLE DIHED IMPRP ELECT VDW BOUNDARY MISC KINETIC TOTAL TEMP POTENTIAL TOTALAVG TEMPAVG PRESSURE GPRESSURE VOLUME PRESSAVG GPRESSAVG
ENERGY: 0 4.2546 4.8281 8.5302 0.0000 -10664.9585 1411.7459 0.0000 0.0000 1799.6079 -7435.9917 306.4649 -9235.5996 -7435.9917 306.4649 -192.0035 -110.8155 30606.1967 -192.0035 -110.8155
ENERGY: 300000 7.4860 3.7113 7.4281 0.0000 -10713.2806 1414.3311 0.0000 0.0000 1769.5439 -7510.7802 301.3452 -9280.3240 -7519.3304 301.3601 -102.9220 -21.7438 30133.8480 -172.6322 -135.2427
ENERGY: 600000 3.0770 4.3413 9.8509 0.0000 -10885.9166 1490.2627 0.0000 0.0000 1747.0412 -7631.3434 297.5131 -9378.3846 -7523.0193 299.6864 224.4830 246.7365 30059.4164 -78.6463 -32.2130
ENERGY: 900000 2.3298 2.1110 5.2853 0.0000 -10604.6820 1408.8416 0.0000 0.0000 1782.2200 -7403.8942 303.5039 -9186.1142 -7517.9285 300.2085 -242.4901 -208.2787 31225.5640 -159.7608 -100.6626
ENERGY: 1200000 4.9223 3.1792 7.6276 0.0000 -10739.3271 1394.0676 0.0000 0.0000 1731.0831 -7598.4473 294.7955 -9329.5304 -7534.3453 298.9347 -633.6524 -620.7724 30586.9094 -269.9992 -210.5615
ENERGY: 1500000 4.0533 4.4328 4.9856 0.0000 -10804.6702 1503.9350 0.0000 0.0000 1733.2956 -7553.9679 295.1723 -9287.2635 -7531.8073 298.6566 618.6134 673.2891 30253.7585 -179.0345 -114.2341
TCL: Exiting due to exit command.
