Info: SIMULATION PARAMETERS:
Info: TIMESTEP               2
Info: NUMBER OF STEPS        0
Info: STEPS PER CYCLE        10
Info: PERIODIC CELL BASIS 1  32.3651 0 0
Info: PERIODIC CELL BASIS 2  0 30.3025 0
Info: PERIODIC CELL BASIS 3  0 0 31.5266
Info: PERIODIC CELL CENTER   0 0 0
Info: WRAPPING WATERS AROUND PERIODIC BOUNDARIES ON OUTPUT.
Info: WRAPPING ALL CLUSTERS AROUND PERIODIC BOUNDARIES ON OUTPUT.
Info: FIRST LDB TIMESTEP     50
Info: LAST LDB TIMESTEP     -1
Info: HOM BACKGROUND SCALING 1
Info: PME BACKGROUND SCALING 1
Info: MIN ATOMS PER PATCH    40
Info: EMPTY PATCH LOAD       40 ATOMS
Info: VELOCITY FILE          mobley_8668219_equil.vel
Info: CENTER OF MASS MOVING INITIALLY? NO
Info: DIELECTRIC             1
Info: EXCLUDE                SCALED ONE-FOUR
Info: 1-4 ELECTROSTATICS SCALED BY 0.833333
Info: MODIFIED 1-4 VDW PARAMETERS WILL BE USED
Info: DCD FILENAME           mobley_8668219_prod.dcd
Info: DCD FREQUENCY          100000
Info: DCD FIRST STEP         100000
Info: DCD FILE WILL CONTAIN UNIT CELL DATA
Info: XST FILENAME           mobley_8668219_prod.xst
Info: XST FREQUENCY          100000
Info: NO VELOCITY DCD OUTPUT
Info: NO FORCE DCD OUTPUT
Info: OUTPUT FILENAME        mobley_8668219_prod
Info: BINARY OUTPUT FILES WILL BE USED
Info: RESTART FILENAME       mobley_8668219_prod.restart
Info: RESTART FREQUENCY      100000
Info: BINARY RESTART FILES WILL BE USED
Info: CUTOFF                 9
Info: PAIRLIST DISTANCE      11
Info: PAIRLIST SHRINK RATE   0.01
Info: PAIRLIST GROW RATE     0.01
Info: PAIRLIST TRIGGER       0.3
Info: PAIRLISTS PER CYCLE    2
Info: PAIRLISTS ENABLED
Info: MARGIN                 2
Info: HYDROGEN GROUP CUTOFF  2.5
Info: PATCH DIMENSION        15.5
Info: ENERGY OUTPUT STEPS    100000
Info: ENERGY EVALUATION STEPS    100000
Info: OUTPUT ENERGY PRECISION 4
Info: CROSSTERM ENERGY INCLUDED IN DIHEDRAL
Info: TIMING OUTPUT STEPS    1000000
Info: PRESSURE OUTPUT STEPS  100000
Info: ALCHEMICAL FEP ON
Info: FEP CURRENT LAMBDA VALUE     1
Info: FEP COMPARISON LAMBDA VALUE  0.95
Info: FEP INTRA-ALCHEMICAL NON-BONDED INTERACTIONS WILL BE RETAINED
Info: FEP INTRA-ALCHEMICAL BONDED INTERACTIONS WILL BE RETAINED
Info: FEP VDW SHIFTING COEFFICIENT 5
Info: FEP ELEC. ACTIVE FOR ANNIHILATED PARTICLES BETWEEN LAMBDA = 0 AND LAMBDA = 0.5
Info: FEP ELEC. ACTIVE FOR EXNIHILATED PARTICLES BETWEEN LAMBDA = 0.5 AND LAMBDA = 1
Info: FEP VDW ACTIVE FOR ANNIHILATED PARTICLES BETWEEN LAMBDA = 0 AND LAMBDA = 1
Info: FEP VDW ACTIVE FOR EXNIHILATED PARTICLES BETWEEN LAMBDA = 0 AND LAMBDA = 1
Info: FEP BOND ACTIVE FOR ANNIHILATED PARTICLES BETWEEN LAMBDA = 1 AND LAMBDA = 1
Info: FEP BOND ACTIVE FOR EXNIHILATED PARTICLES BETWEEN LAMBDA = 0 AND LAMBDA = 0
Info: LANGEVIN DYNAMICS ACTIVE
Info: LANGEVIN TEMPERATURE   300
Info: LANGEVIN USING BBK INTEGRATOR
Info: LANGEVIN DAMPING COEFFICIENT IS 1 INVERSE PS
Info: LANGEVIN DYNAMICS APPLIED TO HYDROGENS
Info: LANGEVIN PISTON PRESSURE CONTROL ACTIVE
Info:        TARGET PRESSURE IS 1.01325 BAR
Info:     OSCILLATION PERIOD IS 50 FS
Info:             DECAY TIME IS 25 FS
Info:     PISTON TEMPERATURE IS 300 K
Info:       PRESSURE CONTROL IS GROUP-BASED
Info:    INITIAL STRAIN RATE IS 4.21991e-05 4.21991e-05 4.21991e-05
Info:       CELL FLUCTUATION IS ISOTROPIC
Info: PARTICLE MESH EWALD (PME) ACTIVE
Info: PME TOLERANCE               1e-06
Info: PME EWALD COEFFICIENT       0.348832
Info: PME INTERPOLATION ORDER     4
Info: PME GRID DIMENSIONS         36 32 32
Info: PME MAXIMUM GRID SPACING    1
Info: PME CALCULATION WILL BE PERFORMED ON GPU
Info: FULL ELECTROSTATIC EVALUATION FREQUENCY      2
Info: USING VERLET I (r-RESPA) MTS SCHEME.
Info: C1 SPLITTING OF LONG RANGE ELECTROSTATICS
Info: PLACING ATOMS IN PATCHES BY HYDROGEN GROUPS
Info: RIGID BONDS TO HYDROGEN : ALL
Info:         ERROR TOLERANCE : 1e-08
Info:          MAX ITERATIONS : 100
Info: RIGID WATER USING SETTLE ALGORITHM
Info: RANDOM NUMBER SEED     1743885254
Info: USE HYDROGEN BONDS?    NO
Info: Using AMBER format force field!
Info: AMBER PARM FILE        mobley_8668219.prmtop
Info: COORDINATE PDB         mobley_8668219.pdb
Info: Exclusions will be read from PARM file!
Info: SCNB (VDW SCALING)     2
Info: USING ARITHMETIC MEAN TO COMBINE L-J SIGMA PARAMETERS
Info: BINARY COORDINATES     mobley_8668219_equil.coor
Info: SUMMARY OF PARAMETERS:
Info: 4 BONDS
Info: 3 ANGLES
Info:   3 HARMONIC
Info:   0 COSINE-BASED
Info: 5 DIHEDRAL
Info: 0 IMPROPER
Info: 0 CROSSTERM
Info: 0 VDW
Info: 10 VDW_PAIRS
Info: 0 NBTHOLE_PAIRS
Info: To read alchdata from file: mobley_8668219.pdb
Info: To read alchflag data from column: 5
Info: STRUCTURE SUMMARY:
Info: 2981 ATOMS
Info: 2980 BONDS
Info: 42 ANGLES
Info: 66 DIHEDRALS
Info: 0 IMPROPERS
Info: 0 CROSSTERMS
Info: 3076 EXCLUSIONS
Info: 2974 RIGID BONDS
Info: ALCH: 0 ATOMS TO DISAPPEAR IN FINAL STATE
Info: ALCH: 23 ATOMS TO APPEAR IN FINAL STATE
Info: 5969 DEGREES OF FREEDOM
Info: 993 HYDROGEN GROUPS
Info: 4 ATOMS IN LARGEST HYDROGEN GROUP
Info: 993 MIGRATION GROUPS
Info: 4 ATOMS IN LARGEST MIGRATION GROUP
Info: TOTAL MASS = 17864 amu
Info: TOTAL CHARGE = 0.000299972 e
Info: MASS DENSITY = 0.959409 g/cm^3
Info: ATOM DENSITY = 0.0964114 atoms/A^3
Info: ADDED 0 IMPLICIT EXCLUSIONS
Info: NONBONDED TABLE R-SQUARED SPACING: 0.0625
Info: NONBONDED TABLE SIZE: 705 POINTS
Info: REMOVING COM VELOCITY -0.27315 0.236462 0.0541478
Info: Use 3D box decompostion in PME FFT.
Info: Updated CUDA force table with 4096 elements.
Info: Updated CUDA LJ table with 4 x 4 elements.
Info: Found 26 unique exclusion lists needing 76 bytes
TCL: Running for 1500000 steps
ETITLE: TS BOND ANGLE DIHED IMPRP ELECT VDW BOUNDARY MISC KINETIC TOTAL TEMP POTENTIAL TOTALAVG TEMPAVG PRESSURE GPRESSURE VOLUME PRESSAVG GPRESSAVG
ENERGY: 0 4.2364 9.3590 3.5975 0.0000 -10841.6500 1492.6059 0.0000 0.0000 1703.2141 -7628.6371 287.1825 -9331.8512 -7628.6371 287.1825 -141.7113 -53.5075 30919.5709 -141.7113 -53.5075
ENERGY: 300000 2.4908 12.5677 4.6576 0.0000 -10722.6492 1356.2131 0.0000 0.0000 1764.8134 -7581.9065 297.5689 -9346.7199 -7548.8733 293.6140 -663.9431 -621.8376 30787.8378 -88.1288 -26.5559
ENERGY: 600000 1.9767 8.4963 4.3125 0.0000 -10828.6031 1479.4813 0.0000 0.0000 1795.7792 -7538.5571 302.7902 -9334.3363 -7520.8017 298.2852 145.6401 228.0543 30638.6099 -34.5149 42.9198
ENERGY: 900000 3.7466 11.3254 5.2488 0.0000 -10699.9231 1413.9907 0.0000 0.0000 1801.5377 -7464.0740 303.7611 -9265.6117 -7500.0214 299.2394 -237.5660 -206.3720 30957.1697 -38.2807 19.3358
ENERGY: 1200000 2.6483 9.7076 4.4613 0.0000 -10647.9259 1325.6847 0.0000 0.0000 1805.1716 -7500.2524 304.3738 -9305.4240 -7495.4516 300.0085 -983.5346 -988.4779 30813.2619 -201.9186 -146.8877
ENERGY: 1500000 1.5915 9.3573 4.2740 0.0000 -10584.0868 1355.8799 0.0000 0.0000 1782.9777 -7430.0065 300.6317 -9212.9841 -7498.9516 299.0573 -409.0582 -326.3450 30846.5415 -123.1772 -61.2447
TCL: Running FEP window   2: Lambda1 0.95   Lambda2 0.8999999999999999 [dLambda -0.050000000000000044]
TCL: Setting parameter firsttimestep to 0
TCL: Setting parameter alchLambda to 0.95
Info: NONBONDED TABLE R-SQUARED SPACING: 0.0625
Info: NONBONDED TABLE SIZE: 705 POINTS
TCL: Setting parameter alchLambda2 to 0.8999999999999999
Info: NONBONDED TABLE R-SQUARED SPACING: 0.0625
Info: NONBONDED TABLE SIZE: 705 POINTS
TCL: Running for 1500000 steps
ETITLE: TS BOND ANGLE DIHED IMPRP ELECT VDW BOUNDARY MISC KINETIC TOTAL TEMP POTENTIAL TOTALAVG TEMPAVG PRESSURE GPRESSURE VOLUME PRESSAVG GPRESSAVG
ENERGY: 0 1.5915 9.3573 4.2740 0.0000 -10584.0746 1355.9760 0.0000 0.0000 1782.0787 -7430.7972 300.4801 -9212.8759 -7430.7972 300.4801 -429.7671 -335.0901 30846.5415 -429.7671 -335.0901
ENERGY: 300000 1.9564 10.0699 4.5846 0.0000 -10756.1163 1420.2547 0.0000 0.0000 1828.4564 -7490.7942 308.2999 -9319.2507 -7510.2153 300.1432 -75.6915 -59.0476 30487.7018 -449.7521 -402.1693
ENERGY: 600000 1.8606 13.5313 4.7664 0.0000 -10745.4944 1416.5077 0.0000 0.0000 1862.7324 -7446.0961 314.0793 -9308.8285 -7492.0607 303.1336 -136.0461 -55.5012 30479.0683 -183.9012 -128.1851
ENERGY: 900000 1.5514 12.9431 3.5910 0.0000 -10706.1883 1368.8875 0.0000 0.0000 1825.8556 -7493.3598 307.8614 -9319.2154 -7487.0575 304.0569 -667.4069 -604.8048 30837.6102 -314.1012 -252.2894
ENERGY: 1200000 3.8019 15.2925 4.4561 0.0000 -10843.9218 1513.3238 0.0000 0.0000 1804.2372 -7502.8103 304.2163 -9307.0475 -7501.5588 302.6893 528.5293 570.6381 30407.0071 -106.4772 -47.5176
ENERGY: 1500000 2.2076 18.7927 6.8914 0.0000 -10843.1330 1542.3842 0.0000 0.0000 1826.0918 -7446.7652 307.9012 -9272.8570 -7494.3397 303.1527 628.7053 748.8179 30807.6914 -177.4661 -115.8118
TCL: Running FEP window   3: Lambda1 0.8999999999999999 Lambda2 0.8499999999999999 [dLambda -0.050000000000000044]
TCL: Setting parameter firsttimestep to 0
TCL: Setting parameter alchLambda to 0.8999999999999999
Info: NONBONDED TABLE R-SQUARED SPACING: 0.0625
Info: NONBONDED TABLE SIZE: 705 POINTS
TCL: Setting parameter alchLambda2 to 0.8499999999999999
Info: NONBONDED TABLE R-SQUARED SPACING: 0.0625
Info: NONBONDED TABLE SIZE: 705 POINTS
TCL: Running for 1500000 steps
ETITLE: TS BOND ANGLE DIHED IMPRP ELECT VDW BOUNDARY MISC KINETIC TOTAL TEMP POTENTIAL TOTALAVG TEMPAVG PRESSURE GPRESSURE VOLUME PRESSAVG GPRESSAVG
ENERGY: 0 2.2076 18.7927 6.8914 0.0000 -10843.1430 1542.9547 0.0000 0.0000 1825.1928 -7447.1036 307.7496 -9272.2965 -7447.1036 307.7496 660.0934 741.1963 30807.6914 660.0934 741.1963
ENERGY: 300000 0.8197 11.6020 4.2132 0.0000 -10779.6264 1460.3629 0.0000 0.0000 1735.5960 -7567.0326 292.6425 -9302.6286 -7503.3235 299.0545 73.6049 198.0256 30450.0953 -3.6809 63.4437
ENERGY: 600000 2.8430 11.3843 4.8218 0.0000 -10974.2360 1557.8975 0.0000 0.0000 1771.5095 -7625.7798 298.6980 -9397.2894 -7526.8938 300.0982 549.6695 623.6634 30603.0653 150.1995 216.4604
ENERGY: 900000 1.1903 8.3844 5.5992 0.0000 -10848.1374 1453.0880 0.0000 0.0000 1837.3162 -7542.5592 309.7938 -9379.8755 -7533.4297 302.7407 155.5739 267.1626 30236.8132 134.4737 208.4213
ENERGY: 1200000 2.1171 11.8350 3.9076 0.0000 -10804.8170 1462.2476 0.0000 0.0000 1793.5993 -7531.1104 302.4226 -9324.7097 -7530.9144 302.7362 -132.0682 -48.3188 30834.4273 52.6225 122.2268
ENERGY: 1500000 1.4881 10.0080 4.7029 0.0000 -10687.8620 1349.9044 0.0000 0.0000 1751.0048 -7570.7539 295.2406 -9321.7586 -7533.2154 302.3601 -907.4065 -860.1288 31032.9512 10.5472 76.8679
TCL: Running FEP window   4: Lambda1 0.8499999999999999 Lambda2 0.7999999999999998 [dLambda -0.050000000000000044]
TCL: Setting parameter firsttimestep to 0
TCL: Setting parameter alchLambda to 0.8499999999999999
Info: NONBONDED TABLE R-SQUARED SPACING: 0.0625
Info: NONBONDED TABLE SIZE: 705 POINTS
TCL: Setting parameter alchLambda2 to 0.7999999999999998
Info: NONBONDED TABLE R-SQUARED SPACING: 0.0625
Info: NONBONDED TABLE SIZE: 705 POINTS
TCL: Running for 1500000 steps
ETITLE: TS BOND ANGLE DIHED IMPRP ELECT VDW BOUNDARY MISC KINETIC TOTAL TEMP POTENTIAL TOTALAVG TEMPAVG PRESSURE GPRESSURE VOLUME PRESSAVG GPRESSAVG
ENERGY: 0 1.4881 10.0080 4.7029 0.0000 -10687.8300 1349.8272 0.0000 0.0000 1750.1377 -7571.6661 295.0944 -9321.8038 -7571.6661 295.0944 -957.5444 -872.8127 31032.9512 -957.5444 -872.8127
ENERGY: 300000 4.6708 10.5929 4.5219 0.0000 -10920.2153 1497.9330 0.0000 0.0000 1797.2063 -7605.2904 303.0308 -9402.4967 -7559.8025 299.2594 -117.8258 -47.6201 30929.9888 -8.9158 22.0001
ENERGY: 600000 0.7367 10.2454 4.0360 0.0000 -10712.7932 1425.1941 0.0000 0.0000 1813.2398 -7459.3412 305.7342 -9272.5810 -7537.4813 298.3440 -159.6340 -105.1199 30884.6242 158.5146 198.2189
ENERGY: 900000 1.8929 11.5770 6.5352 0.0000 -10770.0978 1448.8056 0.0000 0.0000 1738.5184 -7562.7687 293.1353 -9301.2871 -7529.1334 298.3843 -127.1333 -34.8536 30866.1842 79.2408 129.9976
ENERGY: 1200000 0.4299 11.4608 4.3534 0.0000 -10680.6065 1421.1178 0.0000 0.0000 1842.4327 -7400.8120 310.6565 -9243.2446 -7520.5149 299.5680 162.2750 210.3880 30592.8280 95.6027 154.3187
ENERGY: 1500000 1.1177 11.5938 4.6217 0.0000 -10885.0647 1550.2667 0.0000 0.0000 1820.0715 -7497.3932 306.8861 -9317.4647 -7512.9821 300.4691 693.3086 791.2861 30660.5728 152.1716 217.7940
TCL: Running FEP window   5: Lambda1 0.7999999999999998 Lambda2 0.7499999999999998 [dLambda -0.050000000000000044]
TCL: Setting parameter firsttimestep to 0
TCL: Setting parameter alchLambda to 0.7999999999999998
Info: NONBONDED TABLE R-SQUARED SPACING: 0.0625
Info: NONBONDED TABLE SIZE: 705 POINTS
TCL: Setting parameter alchLambda2 to 0.7499999999999998
Info: NONBONDED TABLE R-SQUARED SPACING: 0.0625
Info: NONBONDED TABLE SIZE: 705 POINTS
TCL: Running for 1500000 steps
ETITLE: TS BOND ANGLE DIHED IMPRP ELECT VDW BOUNDARY MISC KINETIC TOTAL TEMP POTENTIAL TOTALAVG TEMPAVG PRESSURE GPRESSURE VOLUME PRESSAVG GPRESSAVG
ENERGY: 0 1.1177 11.5938 4.6217 0.0000 -10885.0114 1550.6544 0.0000 0.0000 1819.2340 -7497.7898 306.7449 -9317.0238 -7497.7898 306.7449 710.8565 786.8381 30660.5728 710.8565 786.8381
ENERGY: 300000 2.9396 13.9553 4.9988 0.0000 -10934.5540 1552.9385 0.0000 0.0000 1799.2873 -7560.4345 303.3817 -9359.7218 -7508.8802 302.7293 713.8144 751.5216 30496.6369 267.7262 323.5567
ENERGY: 600000 2.1937 11.0880 3.7669 0.0000 -10664.2731 1416.9732 0.0000 0.0000 1821.3030 -7408.9484 307.0938 -9230.2513 -7478.1374 304.5786 -234.9546 -160.2480 30935.4183 38.8821 99.3490
ENERGY: 900000 1.4571 9.4000 4.8103 0.0000 -10752.3613 1523.9160 0.0000 0.0000 1753.7583 -7459.0195 295.7049 -9212.7779 -7485.4215 301.4932 805.0312 842.0728 30633.9468 -7.4567 50.4664
ENERGY: 1200000 2.0478 12.4831 4.1140 0.0000 -10859.5165 1518.3232 0.0000 0.0000 1768.8116 -7553.7368 298.2431 -9322.5483 -7499.5691 300.9571 510.6274 499.7520 30762.1227 34.4547 91.4859
ENERGY: 1500000 1.9828 7.7168 4.0700 0.0000 -10830.6595 1482.3036 0.0000 0.0000 1787.4986 -7547.0877 301.3939 -9334.5863 -7513.2822 300.3481 384.0859 339.7196 30430.9704 53.1044 104.2403
TCL: Running FEP window   6: Lambda1 0.7499999999999998 Lambda2 0.6999999999999997 [dLambda -0.050000000000000044]
TCL: Setting parameter firsttimestep to 0
TCL: Setting parameter alchLambda to 0.7499999999999998
Info: NONBONDED TABLE R-SQUARED SPACING: 0.0625
Info: NONBONDED TABLE SIZE: 705 POINTS
TCL: Setting parameter alchLambda2 to 0.6999999999999997
Info: NONBONDED TABLE R-SQUARED SPACING: 0.0625
Info: NONBONDED TABLE SIZE: 705 POINTS
TCL: Running for 1500000 steps
ETITLE: TS BOND ANGLE DIHED IMPRP ELECT VDW BOUNDARY MISC KINETIC TOTAL TEMP POTENTIAL TOTALAVG TEMPAVG PRESSURE GPRESSURE VOLUME PRESSAVG GPRESSAVG
ENERGY: 0 1.9828 7.7168 4.0700 0.0000 -10830.6324 1482.8928 0.0000 0.0000 1786.6435 -7547.3265 301.2498 -9333.9700 -7547.3265 301.2498 269.5692 332.9845 30430.9704 269.5692 332.9845
ENERGY: 300000 3.0823 11.4989 4.0233 0.0000 -10719.0082 1432.3691 0.0000 0.0000 1785.1645 -7482.8702 301.0004 -9268.0347 -7480.5496 303.6395 -491.2193 -338.9754 31159.6983 -121.8385 -45.2520
ENERGY: 600000 0.7901 10.8230 4.1529 0.0000 -10801.7987 1474.2674 0.0000 0.0000 1751.2290 -7560.5364 295.2784 -9311.7653 -7497.3400 302.0669 166.8938 168.0748 30693.0841 -68.5257 -7.5505
ENERGY: 900000 1.4598 12.5280 4.7935 0.0000 -10855.9404 1487.2488 0.0000 0.0000 1761.3561 -7588.5541 296.9860 -9349.9102 -7515.2466 300.7938 -14.4213 52.0506 30747.9480 -58.4489 -0.1201
ENERGY: 1200000 2.8781 15.5499 4.3620 0.0000 -10765.5218 1439.9848 0.0000 0.0000 1742.3780 -7560.3691 293.7861 -9302.7471 -7520.9159 299.8222 3.0739 63.0404 30412.8650 -99.9904 -40.6308
ENERGY: 1500000 2.7789 15.3887 3.7850 0.0000 -10741.0150 1435.1423 0.0000 0.0000 1792.7504 -7491.1698 302.2795 -9283.9201 -7517.8292 300.4256 -105.9344 -60.6471 30881.3676 -118.1296 -61.9948
TCL: Running FEP window   7: Lambda1 0.6999999999999997 Lambda2 0.6499999999999997 [dLambda -0.050000000000000044]
TCL: Setting parameter firsttimestep to 0
TCL: Setting parameter alchLambda to 0.6999999999999997
Info: NONBONDED TABLE R-SQUARED SPACING: 0.0625
Info: NONBONDED TABLE SIZE: 705 POINTS
TCL: Setting parameter alchLambda2 to 0.6499999999999997
Info: NONBONDED TABLE R-SQUARED SPACING: 0.0625
Info: NONBONDED TABLE SIZE: 705 POINTS
TCL: Running for 1500000 steps
ETITLE: TS BOND ANGLE DIHED IMPRP ELECT VDW BOUNDARY MISC KINETIC TOTAL TEMP POTENTIAL TOTALAVG TEMPAVG PRESSURE GPRESSURE VOLUME PRESSAVG GPRESSAVG
ENERGY: 0 2.7789 15.3887 3.7850 0.0000 -10741.0217 1435.5275 0.0000 0.0000 1791.8536 -7491.6881 302.1283 -9283.5417 -7491.6881 302.1283 -132.1053 -61.4807 30881.3676 -132.1053 -61.4807
ENERGY: 300000 1.4735 10.5014 4.8642 0.0000 -10736.9905 1470.4544 0.0000 0.0000 1821.4998 -7428.1972 307.1270 -9249.6970 -7482.4879 300.6288 487.6445 625.9506 30405.0878 -150.5657 -62.5223
ENERGY: 600000 0.9003 9.8931 5.2448 0.0000 -10865.5655 1508.3793 0.0000 0.0000 1789.2108 -7551.9373 301.6826 -9341.1481 -7506.8721 301.8499 340.4725 381.4529 30637.2141 -47.6130 31.9880
ENERGY: 900000 0.8419 10.4245 8.0033 0.0000 -10848.6324 1474.7558 0.0000 0.0000 1767.2574 -7587.3494 297.9810 -9354.6068 -7526.8114 299.9551 127.7799 152.4635 30697.4582 -10.7108 66.0323
ENERGY: 1200000 1.9282 15.2309 4.1610 0.0000 -10807.5772 1494.5848 0.0000 0.0000 1789.1936 -7502.4787 301.6797 -9291.6723 -7511.1071 300.9281 816.3475 938.3184 29956.5071 36.6658 122.0345
ENERGY: 1500000 1.2697 7.5564 3.7888 0.0000 -10796.6723 1523.9143 0.0000 0.0000 1862.1026 -7398.0406 313.9731 -9260.1432 -7506.9403 300.9281 851.9246 954.2525 30640.1045 103.1890 187.6001
TCL: Running FEP window   8: Lambda1 0.6499999999999997 Lambda2 0.5999999999999996 [dLambda -0.050000000000000044]
TCL: Setting parameter firsttimestep to 0
TCL: Setting parameter alchLambda to 0.6499999999999997
Info: NONBONDED TABLE R-SQUARED SPACING: 0.0625
Info: NONBONDED TABLE SIZE: 705 POINTS
TCL: Setting parameter alchLambda2 to 0.5999999999999996
Info: NONBONDED TABLE R-SQUARED SPACING: 0.0625
Info: NONBONDED TABLE SIZE: 705 POINTS
TCL: Running for 1500000 steps
ETITLE: TS BOND ANGLE DIHED IMPRP ELECT VDW BOUNDARY MISC KINETIC TOTAL TEMP POTENTIAL TOTALAVG TEMPAVG PRESSURE GPRESSURE VOLUME PRESSAVG GPRESSAVG
ENERGY: 0 1.2697 7.5564 3.7888 0.0000 -10796.6560 1524.2665 0.0000 0.0000 1861.2552 -7398.5195 313.8302 -9259.7746 -7398.5195 313.8302 872.9356 948.7805 30640.1045 872.9356 948.7805
ENERGY: 300000 3.8903 11.1280 6.7445 0.0000 -10814.8565 1471.7823 0.0000 0.0000 1793.2706 -7528.0408 302.3672 -9321.3114 -7481.5497 304.5291 238.6314 295.1453 30392.8139 546.2928 616.2972
ENERGY: 600000 2.9723 10.8860 6.3205 0.0000 -10735.8521 1466.7342 0.0000 0.0000 1781.0612 -7467.8779 300.3085 -9248.9391 -7485.1032 302.5356 213.5183 267.6522 30793.7030 249.6749 315.5188
ENERGY: 900000 5.0416 10.1878 4.3639 0.0000 -10831.4797 1526.4402 0.0000 0.0000 1800.3285 -7485.1177 303.5572 -9285.4463 -7484.1294 302.5231 630.5748 639.5994 30501.3531 228.3273 287.9402
ENERGY: 1200000 3.1109 12.7108 3.9151 0.0000 -10837.7643 1549.7160 0.0000 0.0000 1742.2740 -7526.0375 293.7685 -9268.3115 -7502.0572 299.6204 607.8293 679.5492 30943.6174 212.1654 270.5709
ENERGY: 1500000 2.6497 12.5050 5.1172 0.0000 -10699.3068 1388.6338 0.0000 0.0000 1761.7762 -7528.6250 297.0568 -9290.4012 -7503.3532 299.3643 -414.6040 -359.4463 30597.3824 95.4649 158.5836
TCL: Running FEP window   9: Lambda1 0.5999999999999996 Lambda2 0.5499999999999996 [dLambda -0.050000000000000044]
TCL: Setting parameter firsttimestep to 0
TCL: Setting parameter alchLambda to 0.5999999999999996
Info: NONBONDED TABLE R-SQUARED SPACING: 0.0625
Info: NONBONDED TABLE SIZE: 705 POINTS
TCL: Setting parameter alchLambda2 to 0.5499999999999996
Info: NONBONDED TABLE R-SQUARED SPACING: 0.0625
Info: NONBONDED TABLE SIZE: 705 POINTS
TCL: Running for 1500000 steps
ETITLE: TS BOND ANGLE DIHED IMPRP ELECT VDW BOUNDARY MISC KINETIC TOTAL TEMP POTENTIAL TOTALAVG TEMPAVG PRESSURE GPRESSURE VOLUME PRESSAVG GPRESSAVG
ENERGY: 0 2.6497 12.5050 5.1172 0.0000 -10699.3204 1388.7315 0.0000 0.0000 1760.8768 -7529.4403 296.9052 -9290.3171 -7529.4403 296.9052 -442.0968 -365.0848 30597.3824 -442.0968 -365.0848
ENERGY: 300000 1.5183 9.2513 3.7662 0.0000 -10896.7837 1527.4558 0.0000 0.0000 1749.1165 -7605.6756 294.9223 -9354.7920 -7539.2600 299.6209 489.4517 493.9822 30277.3741 249.6526 287.7784
ENERGY: 600000 1.0682 10.1637 4.5409 0.0000 -10796.6046 1489.9614 0.0000 0.0000 1765.9050 -7524.9654 297.7530 -9290.8704 -7519.5110 298.8806 505.4459 564.3374 30503.5500 288.4395 336.8761
ENERGY: 900000 3.1203 16.6978 4.2232 0.0000 -10809.5737 1476.8478 0.0000 0.0000 1786.4250 -7522.2596 301.2129 -9308.6846 -7515.7958 300.7183 27.9534 69.7893 30968.3131 302.4999 348.0987
ENERGY: 1200000 3.4977 7.6329 3.9344 0.0000 -10713.0739 1426.6607 0.0000 0.0000 1789.3934 -7481.9547 301.7134 -9271.3481 -7519.0226 300.0342 -162.6058 -39.1195 30703.4394 184.6226 235.0120
ENERGY: 1500000 2.8000 12.7504 4.1906 0.0000 -10665.9800 1384.0291 0.0000 0.0000 1758.9312 -7503.2786 296.5771 -9262.2098 -7515.8148 299.8158 -516.8017 -378.6777 30822.2911 50.3568 107.5405
TCL: Running FEP window  10: Lambda1 0.5499999999999996 Lambda2 0.4999999999999996 [dLambda -0.04999999999999999]
TCL: Setting parameter firsttimestep to 0
TCL: Setting parameter alchLambda to 0.5499999999999996
Info: NONBONDED TABLE R-SQUARED SPACING: 0.0625
Info: NONBONDED TABLE SIZE: 705 POINTS
TCL: Setting parameter alchLambda2 to 0.4999999999999996
Info: NONBONDED TABLE R-SQUARED SPACING: 0.0625
Info: NONBONDED TABLE SIZE: 705 POINTS
TCL: Running for 1500000 steps
ETITLE: TS BOND ANGLE DIHED IMPRP ELECT VDW BOUNDARY MISC KINETIC TOTAL TEMP POTENTIAL TOTALAVG TEMPAVG PRESSURE GPRESSURE VOLUME PRESSAVG GPRESSAVG
ENERGY: 0 2.8000 12.7504 4.1906 0.0000 -10665.9586 1384.3370 0.0000 0.0000 1758.0516 -7503.8290 296.4288 -9261.8806 -7503.8290 296.4288 -470.8216 -381.7158 30822.2911 -470.8216 -381.7158
ENERGY: 300000 2.0154 13.4848 6.3708 0.0000 -10800.1061 1443.2419 0.0000 0.0000 1763.4375 -7571.5557 297.3369 -9334.9932 -7536.7371 298.1804 78.5235 104.1819 30072.5332 -251.1143 -191.3693
ENERGY: 600000 2.8312 11.4702 5.3528 0.0000 -10828.7440 1473.0399 0.0000 0.0000 1780.9692 -7555.0808 300.2930 -9336.0501 -7558.1688 298.1503 148.4140 196.2423 30351.5898 -43.0706 -0.6625
ENERGY: 900000 1.2204 8.6367 4.5844 0.0000 -10791.0524 1425.9526 0.0000 0.0000 1740.7474 -7609.9109 293.5111 -9350.6583 -7553.5724 299.0117 -558.8181 -465.5281 30695.5443 -182.8509 -127.3538
ENERGY: 1200000 1.9641 9.9602 3.7184 0.0000 -10836.8600 1443.0699 0.0000 0.0000 1765.3928 -7612.7547 297.6666 -9378.1475 -7560.9736 298.3135 -325.4595 -275.0932 30627.9001 -83.8801 -35.8448
ENERGY: 1500000 3.0185 8.9802 6.3957 0.0000 -10834.0099 1470.4294 0.0000 0.0000 1759.4416 -7585.7445 296.6632 -9345.1861 -7556.7888 298.4840 31.5934 62.2129 30199.4909 -50.9880 -5.2659
TCL: Running FEP window  11: Lambda1 0.4999999999999996 Lambda2 0.4499999999999996 [dLambda -0.04999999999999999]
TCL: Setting parameter firsttimestep to 0
TCL: Setting parameter alchLambda to 0.4999999999999996
Info: NONBONDED TABLE R-SQUARED SPACING: 0.0625
Info: NONBONDED TABLE SIZE: 705 POINTS
TCL: Setting parameter alchLambda2 to 0.4499999999999996
Info: NONBONDED TABLE R-SQUARED SPACING: 0.0625
Info: NONBONDED TABLE SIZE: 705 POINTS
TCL: Running for 1500000 steps
ETITLE: TS BOND ANGLE DIHED IMPRP ELECT VDW BOUNDARY MISC KINETIC TOTAL TEMP POTENTIAL TOTALAVG TEMPAVG PRESSURE GPRESSURE VOLUME PRESSAVG GPRESSAVG
ENERGY: 0 3.0185 8.9802 6.3957 0.0000 -10833.7971 1469.6682 0.0000 0.0000 1758.5091 -7587.2254 296.5060 -9345.7346 -7587.2254 296.5060 -33.6281 50.4825 30199.4909 -33.6281 50.4825
ENERGY: 300000 0.4416 14.6538 4.0965 0.0000 -10583.9629 1325.3087 0.0000 0.0000 1778.5035 -7460.9588 299.8773 -9239.4623 -7497.9963 303.6290 -568.4398 -483.9482 30539.6420 -363.7214 -280.8008
ENERGY: 600000 4.3684 11.0686 4.9032 0.0000 -11005.9325 1600.9183 0.0000 0.0000 1714.1811 -7670.4930 289.0317 -9384.6741 -7510.5173 301.9479 788.0295 880.2969 30410.1455 -152.9527 -63.7802
ENERGY: 900000 3.1332 10.8755 4.6883 0.0000 -10642.1685 1373.3036 0.0000 0.0000 1743.5974 -7506.5706 293.9917 -9250.1679 -7506.8306 299.8478 -571.9471 -531.0425 30628.8080 -68.6184 16.4763
ENERGY: 1200000 2.1855 14.4722 4.9679 0.0000 -10720.8349 1377.2619 0.0000 0.0000 1753.2520 -7568.6954 295.6195 -9321.9473 -7518.4784 298.7759 -608.9968 -549.7782 30391.6542 -105.1603 -27.6541
ENERGY: 1500000 0.7235 7.5144 3.9799 0.0000 -10725.3264 1426.3450 0.0000 0.0000 1728.3188 -7558.4449 291.4155 -9286.7636 -7525.1333 298.3306 -98.7570 -91.0635 30672.3693 -31.2084 41.0660
TCL: Running FEP window  12: Lambda1 0.4499999999999996 Lambda2 0.39999999999999963 [dLambda -0.04999999999999999]
TCL: Setting parameter firsttimestep to 0
TCL: Setting parameter alchLambda to 0.4499999999999996
Info: NONBONDED TABLE R-SQUARED SPACING: 0.0625
Info: NONBONDED TABLE SIZE: 705 POINTS
TCL: Setting parameter alchLambda2 to 0.39999999999999963
Info: NONBONDED TABLE R-SQUARED SPACING: 0.0625
Info: NONBONDED TABLE SIZE: 705 POINTS
TCL: Running for 1500000 steps
ETITLE: TS BOND ANGLE DIHED IMPRP ELECT VDW BOUNDARY MISC KINETIC TOTAL TEMP POTENTIAL TOTALAVG TEMPAVG PRESSURE GPRESSURE VOLUME PRESSAVG GPRESSAVG
ENERGY: 0 0.7235 7.5144 3.9799 0.0000 -10725.3255 1426.6168 0.0000 0.0000 1727.4589 -7559.0321 291.2705 -9286.4910 -7559.0321 291.2705 -179.0760 -93.9883 30672.3693 -179.0760 -93.9883
ENERGY: 300000 3.1741 11.8625 3.9680 0.0000 -10793.2199 1416.4313 0.0000 0.0000 1821.6766 -7536.1074 307.1568 -9357.7840 -7513.6814 298.8100 -567.5840 -464.0226 30677.8060 -437.9144 -368.4913
ENERGY: 600000 6.6212 12.1974 6.6033 0.0000 -10686.5960 1403.4194 0.0000 0.0000 1765.5646 -7492.1901 297.6956 -9257.7547 -7521.0967 299.3301 -454.5288 -336.2884 30773.8134 -338.6205 -266.3987
ENERGY: 900000 3.9192 10.6455 4.5888 0.0000 -10719.9551 1445.5039 0.0000 0.0000 1735.5841 -7519.7137 292.6405 -9255.2977 -7520.5625 299.0045 93.6121 84.6245 30737.6129 -178.1147 -120.6676
ENERGY: 1200000 6.7720 12.4420 4.5448 0.0000 -10842.6138 1455.9587 0.0000 0.0000 1752.8637 -7610.0325 295.5541 -9362.8962 -7518.2862 299.4599 -273.6656 -266.8800 30517.4744 -128.0982 -71.4736
ENERGY: 1500000 1.0271 11.8436 5.0081 0.0000 -10602.2020 1339.7529 0.0000 0.0000 1796.7312 -7447.8391 302.9507 -9244.5703 -7508.9383 299.8956 -552.4826 -514.2304 30609.7470 -113.3158 -60.8442
TCL: Running FEP window  13: Lambda1 0.39999999999999963 Lambda2 0.34999999999999964 [dLambda -0.04999999999999999]
TCL: Setting parameter firsttimestep to 0
TCL: Setting parameter alchLambda to 0.39999999999999963
Info: NONBONDED TABLE R-SQUARED SPACING: 0.0625
Info: NONBONDED TABLE SIZE: 705 POINTS
TCL: Setting parameter alchLambda2 to 0.34999999999999964
Info: NONBONDED TABLE R-SQUARED SPACING: 0.0625
Info: NONBONDED TABLE SIZE: 705 POINTS
TCL: Running for 1500000 steps
ETITLE: TS BOND ANGLE DIHED IMPRP ELECT VDW BOUNDARY MISC KINETIC TOTAL TEMP POTENTIAL TOTALAVG TEMPAVG PRESSURE GPRESSURE VOLUME PRESSAVG GPRESSAVG
ENERGY: 0 1.0271 11.8436 5.0081 0.0000 -10602.2023 1340.0303 0.0000 0.0000 1795.8368 -7448.4564 302.7999 -9244.2932 -7448.4564 302.7999 -584.1650 -517.2296 30609.7470 -584.1650 -517.2296
ENERGY: 300000 0.6603 14.7204 4.9909 0.0000 -10808.3040 1522.7155 0.0000 0.0000 1798.5645 -7466.6524 303.2598 -9265.2168 -7492.1209 301.0351 675.2962 789.1127 30642.1011 -2.6983 63.7386
ENERGY: 600000 1.7051 12.5113 7.9550 0.0000 -10738.2455 1419.7840 0.0000 0.0000 1836.1415 -7460.1486 309.5957 -9296.2901 -7490.7687 302.8724 -269.1736 -178.7301 30770.4638 -128.9066 -50.9343
ENERGY: 900000 1.8253 10.5912 5.5350 0.0000 -10713.7055 1495.5005 0.0000 0.0000 1820.3973 -7379.8561 306.9411 -9200.2534 -7483.6556 302.4275 316.0594 378.9181 31291.7348 -82.5518 -11.5260
ENERGY: 1200000 1.4646 11.5589 5.0869 0.0000 -10759.8715 1423.4185 0.0000 0.0000 1779.7939 -7538.5487 300.0948 -9318.3426 -7489.3595 302.4666 -503.5410 -463.0018 31076.6655 -151.7299 -81.5130
ENERGY: 1500000 0.7841 10.9464 3.5183 0.0000 -10773.8110 1448.8623 0.0000 0.0000 1841.3538 -7468.3462 310.4746 -9309.7000 -7486.2085 303.5778 -36.1870 14.5777 30734.7661 -108.5603 -37.9452
TCL: Running FEP window  14: Lambda1 0.34999999999999964 Lambda2 0.29999999999999966 [dLambda -0.04999999999999999]
TCL: Setting parameter firsttimestep to 0
TCL: Setting parameter alchLambda to 0.34999999999999964
Info: NONBONDED TABLE R-SQUARED SPACING: 0.0625
Info: NONBONDED TABLE SIZE: 705 POINTS
TCL: Setting parameter alchLambda2 to 0.29999999999999966
Info: NONBONDED TABLE R-SQUARED SPACING: 0.0625
Info: NONBONDED TABLE SIZE: 705 POINTS
TCL: Running for 1500000 steps
ETITLE: TS BOND ANGLE DIHED IMPRP ELECT VDW BOUNDARY MISC KINETIC TOTAL TEMP POTENTIAL TOTALAVG TEMPAVG PRESSURE GPRESSURE VOLUME PRESSAVG GPRESSAVG
ENERGY: 0 0.7841 10.9464 3.5183 0.0000 -10773.8117 1448.8140 0.0000 0.0000 1840.4759 -7469.2731 310.3266 -9309.7490 -7469.2731 310.3266 -75.7397 13.7189 30734.7661 -75.7397 13.7189
ENERGY: 300000 2.9178 14.4760 5.2571 0.0000 -10754.0927 1367.7057 0.0000 0.0000 1795.3487 -7568.3875 302.7176 -9363.7362 -7509.1536 302.6832 -894.8686 -823.1056 30410.0661 -557.9199 -480.9470
ENERGY: 600000 2.7733 9.3917 4.2607 0.0000 -10847.2333 1491.0668 0.0000 0.0000 1783.7350 -7556.0057 300.7594 -9339.7408 -7506.5169 300.3246 215.3668 337.6975 30359.5320 -404.3499 -338.1742
ENERGY: 900000 2.2600 10.6211 4.3470 0.0000 -10575.9395 1378.3665 0.0000 0.0000 1847.5633 -7332.7817 311.5216 -9180.3450 -7506.5523 300.3239 -150.6317 -128.7647 30691.7027 -196.6879 -146.1783
ENERGY: 1200000 1.8365 12.0860 3.9003 0.0000 -10580.3471 1362.3574 0.0000 0.0000 1821.8482 -7378.3187 307.1857 -9200.1669 -7495.7122 300.5795 -415.1080 -377.5858 31000.7536 -250.4891 -193.1665
ENERGY: 1500000 1.2917 13.5029 6.2638 0.0000 -10887.4936 1517.2113 0.0000 0.0000 1762.8767 -7586.3473 297.2424 -9349.2240 -7499.1397 301.1755 176.1304 294.8884 30776.8242 -246.7990 -182.2087
TCL: Running FEP window  15: Lambda1 0.29999999999999966 Lambda2 0.24999999999999967 [dLambda -0.04999999999999999]
TCL: Setting parameter firsttimestep to 0
TCL: Setting parameter alchLambda to 0.29999999999999966
Info: NONBONDED TABLE R-SQUARED SPACING: 0.0625
Info: NONBONDED TABLE SIZE: 705 POINTS
TCL: Setting parameter alchLambda2 to 0.24999999999999967
Info: NONBONDED TABLE R-SQUARED SPACING: 0.0625
Info: NONBONDED TABLE SIZE: 705 POINTS
TCL: Running for 1500000 steps
ETITLE: TS BOND ANGLE DIHED IMPRP ELECT VDW BOUNDARY MISC KINETIC TOTAL TEMP POTENTIAL TOTALAVG TEMPAVG PRESSURE GPRESSURE VOLUME PRESSAVG GPRESSAVG
ENERGY: 0 1.2917 13.5029 6.2638 0.0000 -10887.4923 1517.0499 0.0000 0.0000 1761.9873 -7587.3967 297.0924 -9349.3840 -7587.3967 297.0924 216.7841 287.8999 30776.8242 216.7841 287.8999
ENERGY: 300000 3.2878 12.3208 4.2819 0.0000 -10720.9436 1394.1186 0.0000 0.0000 1733.1698 -7573.7648 292.2334 -9306.9346 -7549.5241 297.2701 -526.1839 -473.9175 30346.4573 -95.2307 -26.4766
ENERGY: 600000 2.8140 9.2025 3.6360 0.0000 -10771.5384 1403.0067 0.0000 0.0000 1735.9393 -7616.9398 292.7004 -9352.8791 -7550.4584 296.4601 -652.6174 -557.6133 30452.6672 -184.3675 -117.0490
ENERGY: 900000 1.9249 9.8019 7.6284 0.0000 -10828.5448 1488.3596 0.0000 0.0000 1778.3766 -7542.4535 299.8559 -9320.8301 -7539.2728 297.6355 204.6838 287.9620 30482.3206 -201.9295 -133.1380
ENERGY: 1200000 1.1635 11.0179 6.1108 0.0000 -10717.8891 1442.8338 0.0000 0.0000 1722.3555 -7534.4075 290.4100 -9256.7630 -7532.0024 297.6204 87.7532 167.3156 30456.2300 -105.7910 -34.6118
ENERGY: 1500000 1.5526 15.4082 3.6388 0.0000 -10768.9555 1420.3288 0.0000 0.0000 1759.6479 -7568.3792 296.6980 -9328.0271 -7526.6645 298.1193 -253.0632 -132.9311 30231.3368 -59.2841 17.4029
TCL: Running FEP window  16: Lambda1 0.24999999999999967 Lambda2 0.19999999999999968 [dLambda -0.04999999999999999]
TCL: Setting parameter firsttimestep to 0
TCL: Setting parameter alchLambda to 0.24999999999999967
Info: NONBONDED TABLE R-SQUARED SPACING: 0.0625
Info: NONBONDED TABLE SIZE: 705 POINTS
TCL: Setting parameter alchLambda2 to 0.19999999999999968
Info: NONBONDED TABLE R-SQUARED SPACING: 0.0625
Info: NONBONDED TABLE SIZE: 705 POINTS
TCL: Running for 1500000 steps
ETITLE: TS BOND ANGLE DIHED IMPRP ELECT VDW BOUNDARY MISC KINETIC TOTAL TEMP POTENTIAL TOTALAVG TEMPAVG PRESSURE GPRESSURE VOLUME PRESSAVG GPRESSAVG
ENERGY: 0 1.5527 15.4082 3.6388 0.0000 -10768.9565 1420.5425 0.0000 0.0000 1758.7638 -7569.0506 296.5489 -9327.8144 -7569.0506 296.5489 -241.5163 -137.2101 30231.3368 -241.5163 -137.2101
ENERGY: 300000 5.4777 5.8937 6.5904 0.0000 -10855.6188 1538.5543 0.0000 0.0000 1792.5344 -7506.5683 302.2430 -9299.1028 -7550.9693 297.9659 599.3841 725.8202 29977.4523 -83.5618 4.0610
ENERGY: 600000 1.1646 10.6794 5.5820 0.0000 -10864.4364 1509.4457 0.0000 0.0000 1786.7797 -7550.7850 301.2727 -9337.5647 -7529.3210 299.1711 564.9165 569.6513 30026.1591 -31.4083 36.8019
ENERGY: 900000 1.9358 15.1147 4.2255 0.0000 -10681.2375 1419.0005 0.0000 0.0000 1777.9439 -7463.0172 299.7829 -9240.9610 -7504.0442 299.9898 -57.3310 -22.7319 30636.7973 5.6443 60.2392
ENERGY: 1200000 3.2487 12.7500 5.0356 0.0000 -10807.8587 1477.2382 0.0000 0.0000 1740.5347 -7569.0516 293.4752 -9309.5862 -7511.6106 299.6139 30.9234 172.3110 30477.9209 -51.2553 11.9594
ENERGY: 1500000 3.2428 10.3755 5.2921 0.0000 -10782.9105 1400.7164 0.0000 0.0000 1773.7328 -7589.5511 299.0729 -9363.2839 -7517.9046 299.2221 -477.8484 -380.4662 29938.9571 -56.7682 9.9284
TCL: Running FEP window  17: Lambda1 0.19999999999999968 Lambda2 0.1499999999999997 [dLambda -0.04999999999999999]
TCL: Setting parameter firsttimestep to 0
TCL: Setting parameter alchLambda to 0.19999999999999968
Info: NONBONDED TABLE R-SQUARED SPACING: 0.0625
Info: NONBONDED TABLE SIZE: 705 POINTS
TCL: Setting parameter alchLambda2 to 0.1499999999999997
Info: NONBONDED TABLE R-SQUARED SPACING: 0.0625
Info: NONBONDED TABLE SIZE: 705 POINTS
TCL: Running for 1500000 steps
ETITLE: TS BOND ANGLE DIHED IMPRP ELECT VDW BOUNDARY MISC KINETIC TOTAL TEMP POTENTIAL TOTALAVG TEMPAVG PRESSURE GPRESSURE VOLUME PRESSAVG GPRESSAVG
ENERGY: 0 3.2428 10.3755 5.2921 0.0000 -10782.9094 1400.9527 0.0000 0.0000 1772.8343 -7590.2121 298.9214 -9363.0464 -7590.2121 298.9214 -472.1722 -384.0500 29938.9571 -472.1722 -384.0500
ENERGY: 300000 1.4016 10.6255 4.5130 0.0000 -10702.1217 1352.5856 0.0000 0.0000 1781.9078 -7551.0882 300.4513 -9332.9960 -7563.0794 299.9737 -659.6889 -622.6918 30306.6741 -394.5735 -343.3338
ENERGY: 600000 1.0666 11.1564 5.3040 0.0000 -10652.3143 1396.1263 0.0000 0.0000 1834.0167 -7404.6444 309.2375 -9238.6611 -7526.7706 301.8520 -485.9099 -424.0546 31048.2346 -293.7863 -234.3407
ENERGY: 900000 1.9896 11.6491 4.7992 0.0000 -10659.5313 1441.4779 0.0000 0.0000 1768.7900 -7430.8254 298.2394 -9199.6155 -7510.8325 300.8493 58.2944 106.0626 30883.7784 -269.2103 -209.6940
ENERGY: 1200000 1.3383 15.2093 4.7715 0.0000 -10809.3876 1510.1884 0.0000 0.0000 1782.1107 -7495.7694 300.4855 -9277.8801 -7519.2369 299.8126 586.7547 602.3605 30145.7889 -218.8720 -158.7174
ENERGY: 1500000 3.4715 12.8311 6.0842 0.0000 -10737.8532 1377.9320 0.0000 0.0000 1857.4856 -7480.0488 313.1946 -9337.5344 -7514.1390 300.9347 -658.4269 -590.5343 30390.8313 -162.7359 -104.0426
TCL: Running FEP window  18: Lambda1 0.1499999999999997 Lambda2 0.09999999999999969 [dLambda -0.05 ]
TCL: Setting parameter firsttimestep to 0
TCL: Setting parameter alchLambda to 0.1499999999999997
Info: NONBONDED TABLE R-SQUARED SPACING: 0.0625
Info: NONBONDED TABLE SIZE: 705 POINTS
TCL: Setting parameter alchLambda2 to 0.09999999999999969
Info: NONBONDED TABLE R-SQUARED SPACING: 0.0625
Info: NONBONDED TABLE SIZE: 705 POINTS
TCL: Running for 1500000 steps
ETITLE: TS BOND ANGLE DIHED IMPRP ELECT VDW BOUNDARY MISC KINETIC TOTAL TEMP POTENTIAL TOTALAVG TEMPAVG PRESSURE GPRESSURE VOLUME PRESSAVG GPRESSAVG
ENERGY: 0 3.4715 12.8311 6.0842 0.0000 -10737.8535 1377.4583 0.0000 0.0000 1856.5951 -7481.4133 313.0444 -9338.0084 -7481.4133 313.0444 -681.0528 -595.4467 30390.8313 -681.0528 -595.4467
ENERGY: 300000 2.1259 12.9055 7.3239 0.0000 -10646.1061 1428.3356 0.0000 0.0000 1789.0204 -7406.3948 301.6505 -9195.4152 -7498.0291 300.4257 -34.9192 5.8146 30710.2218 -49.6852 11.0022
ENERGY: 600000 3.5036 13.0468 3.8896 0.0000 -10732.1328 1429.0657 0.0000 0.0000 1795.1392 -7487.4879 302.6822 -9282.6271 -7507.6584 300.1106 -293.6104 -275.1133 30945.1557 -135.3823 -78.8863
ENERGY: 900000 2.0850 12.9819 7.3152 0.0000 -10767.0856 1430.1035 0.0000 0.0000 1743.3925 -7571.2076 293.9571 -9314.6001 -7516.9363 298.9328 -557.9902 -513.1630 30972.1467 -323.4975 -273.3850
ENERGY: 1200000 1.5250 13.6644 4.8580 0.0000 -10797.0900 1504.8732 0.0000 0.0000 1809.8623 -7462.3072 305.1647 -9272.1694 -7514.4095 299.0056 756.2074 816.3819 30095.7215 -246.7089 -194.0370
ENERGY: 1500000 4.8175 14.2038 4.7474 0.0000 -10847.6270 1466.3770 0.0000 0.0000 1741.0989 -7616.3823 293.5704 -9357.4812 -7506.3707 299.2439 -64.7083 -12.1485 30324.2531 -279.8347 -229.7828
TCL: Running FEP window  19: Lambda1 0.09999999999999969 Lambda2 0.049999999999999684 [dLambda -0.05 ]
TCL: Setting parameter firsttimestep to 0
TCL: Setting parameter alchLambda to 0.09999999999999969
Info: NONBONDED TABLE R-SQUARED SPACING: 0.0625
Info: NONBONDED TABLE SIZE: 705 POINTS
TCL: Setting parameter alchLambda2 to 0.049999999999999684
Info: NONBONDED TABLE R-SQUARED SPACING: 0.0625
Info: NONBONDED TABLE SIZE: 705 POINTS
TCL: Running for 1500000 steps
ETITLE: TS BOND ANGLE DIHED IMPRP ELECT VDW BOUNDARY MISC KINETIC TOTAL TEMP POTENTIAL TOTALAVG TEMPAVG PRESSURE GPRESSURE VOLUME PRESSAVG GPRESSAVG
ENERGY: 0 4.8175 14.2038 4.7474 0.0000 -10847.6262 1465.8048 0.0000 0.0000 1740.2192 -7617.8334 293.4221 -9358.0527 -7617.8334 293.4221 -89.0496 -16.4922 30324.2531 -89.0496 -16.4922
ENERGY: 300000 5.2280 11.5058 6.1850 0.0000 -10821.7715 1472.2192 0.0000 0.0000 1801.2408 -7525.3927 303.7110 -9326.6335 -7507.0526 301.8107 94.6472 209.4420 30326.4883 -170.2044 -92.0602
ENERGY: 600000 3.1001 11.0976 5.0385 0.0000 -10663.6275 1407.3750 0.0000 0.0000 1819.3220 -7417.6944 306.7598 -9237.0164 -7488.2574 301.9872 -272.5572 -293.2820 30597.0080 -240.5759 -168.6968
ENERGY: 900000 5.5356 10.2117 4.0308 0.0000 -10751.2440 1435.2110 0.0000 0.0000 1725.6033 -7570.6515 290.9576 -9296.2548 -7506.7530 299.4954 -218.3702 -200.0392 30283.4062 -148.5988 -72.3736
ENERGY: 1200000 2.3636 7.2220 3.6890 0.0000 -10820.4787 1488.2038 0.0000 0.0000 1769.6363 -7549.3640 298.3821 -9319.0003 -7520.4338 299.1903 65.8313 138.1762 30451.5385 -150.6947 -70.9401
ENERGY: 1500000 3.7416 9.9199 4.1936 0.0000 -10913.5752 1512.4806 0.0000 0.0000 1804.8275 -7578.4120 304.3158 -9383.2396 -7517.4073 300.1383 381.1558 367.3763 30094.7626 -129.0814 -55.0740
TCL: Running FEP window  20: Lambda1 0.049999999999999684 Lambda2 0.0    [dLambda -0.049999999999999684]
TCL: Setting parameter firsttimestep to 0
TCL: Setting parameter alchLambda to 0.049999999999999684
Info: NONBONDED TABLE R-SQUARED SPACING: 0.0625
Info: NONBONDED TABLE SIZE: 705 POINTS
TCL: Setting parameter alchLambda2 to 0.0
Info: NONBONDED TABLE R-SQUARED SPACING: 0.0625
Info: NONBONDED TABLE SIZE: 705 POINTS
TCL: Running for 1500000 steps
ETITLE: TS BOND ANGLE DIHED IMPRP ELECT VDW BOUNDARY MISC KINETIC TOTAL TEMP POTENTIAL TOTALAVG TEMPAVG PRESSURE GPRESSURE VOLUME PRESSAVG GPRESSAVG
ENERGY: 0 3.7416 9.9199 4.1936 0.0000 -10913.5770 1512.3003 0.0000 0.0000 1803.9440 -7579.4776 304.1668 -9383.4217 -7579.4776 304.1668 282.8224 364.2395 30094.7626 282.8224 364.2395
ENERGY: 300000 0.9101 8.9850 4.4510 0.0000 -10798.7519 1458.0436 0.0000 0.0000 1786.6222 -7539.7400 301.2462 -9326.3621 -7541.9219 303.2691 188.0969 229.2108 30085.7372 -102.2231 -21.2759
ENERGY: 600000 0.7621 9.9656 5.4457 0.0000 -10877.6118 1504.0219 0.0000 0.0000 1778.1021 -7579.3144 299.8096 -9357.4165 -7540.1112 299.9529 312.3489 364.0978 30062.7503 -187.0059 -118.9522
ENERGY: 900000 4.8199 9.2422 6.5275 0.0000 -10888.4396 1520.9274 0.0000 0.0000 1788.1995 -7558.7230 301.5121 -9346.9226 -7541.6479 300.0628 353.5903 462.9028 30090.1965 -265.9303 -185.7663
ENERGY: 1200000 2.0254 15.1548 5.8068 0.0000 -10799.4595 1523.2607 0.0000 0.0000 1832.3549 -7420.8569 308.9573 -9253.2118 -7529.4084 300.4650 716.0608 747.0824 30604.1375 -125.8272 -54.6089
ENERGY: 1500000 1.2228 12.0317 6.5382 0.0000 -10754.6617 1487.0272 0.0000 0.0000 1778.6508 -7469.1910 299.9021 -9247.8418 -7519.8817 301.1025 524.9064 594.4256 30141.3983 -75.7090 -2.4689
TCL: Exiting due to exit command.
