Info: SIMULATION PARAMETERS:
Info: TIMESTEP               2
Info: NUMBER OF STEPS        0
Info: STEPS PER CYCLE        10
Info: PERIODIC CELL BASIS 1  30.2769 0 0
Info: PERIODIC CELL BASIS 2  0 29.5617 0
Info: PERIODIC CELL BASIS 3  0 0 33.1482
Info: PERIODIC CELL CENTER   0 0 0
Info: WRAPPING WATERS AROUND PERIODIC BOUNDARIES ON OUTPUT.
Info: WRAPPING ALL CLUSTERS AROUND PERIODIC BOUNDARIES ON OUTPUT.
Info: FIRST LDB TIMESTEP     50
Info: LAST LDB TIMESTEP     -1
Info: HOM BACKGROUND SCALING 1
Info: PME BACKGROUND SCALING 1
Info: MIN ATOMS PER PATCH    40
Info: EMPTY PATCH LOAD       40 ATOMS
Info: VELOCITY FILE          mobley_2859600_equil.vel
Info: CENTER OF MASS MOVING INITIALLY? NO
Info: DIELECTRIC             1
Info: EXCLUDE                SCALED ONE-FOUR
Info: 1-4 ELECTROSTATICS SCALED BY 0.833333
Info: MODIFIED 1-4 VDW PARAMETERS WILL BE USED
Info: DCD FILENAME           mobley_2859600_prod.dcd
Info: DCD FREQUENCY          100000
Info: DCD FIRST STEP         100000
Info: DCD FILE WILL CONTAIN UNIT CELL DATA
Info: XST FILENAME           mobley_2859600_prod.xst
Info: XST FREQUENCY          100000
Info: NO VELOCITY DCD OUTPUT
Info: NO FORCE DCD OUTPUT
Info: OUTPUT FILENAME        mobley_2859600_prod
Info: BINARY OUTPUT FILES WILL BE USED
Info: RESTART FILENAME       mobley_2859600_prod.restart
Info: RESTART FREQUENCY      100000
Info: BINARY RESTART FILES WILL BE USED
Info: CUTOFF                 9
Info: PAIRLIST DISTANCE      11
Info: PAIRLIST SHRINK RATE   0.01
Info: PAIRLIST GROW RATE     0.01
Info: PAIRLIST TRIGGER       0.3
Info: PAIRLISTS PER CYCLE    2
Info: PAIRLISTS ENABLED
Info: MARGIN                 2
Info: HYDROGEN GROUP CUTOFF  2.5
Info: PATCH DIMENSION        15.5
Info: ENERGY OUTPUT STEPS    100000
Info: ENERGY EVALUATION STEPS    100000
Info: OUTPUT ENERGY PRECISION 4
Info: CROSSTERM ENERGY INCLUDED IN DIHEDRAL
Info: TIMING OUTPUT STEPS    1000000
Info: PRESSURE OUTPUT STEPS  100000
Info: ALCHEMICAL FEP ON
Info: FEP CURRENT LAMBDA VALUE     1
Info: FEP COMPARISON LAMBDA VALUE  0.95
Info: FEP INTRA-ALCHEMICAL NON-BONDED INTERACTIONS WILL BE RETAINED
Info: FEP INTRA-ALCHEMICAL BONDED INTERACTIONS WILL BE RETAINED
Info: FEP VDW SHIFTING COEFFICIENT 5
Info: FEP ELEC. ACTIVE FOR ANNIHILATED PARTICLES BETWEEN LAMBDA = 0 AND LAMBDA = 0.5
Info: FEP ELEC. ACTIVE FOR EXNIHILATED PARTICLES BETWEEN LAMBDA = 0.5 AND LAMBDA = 1
Info: FEP VDW ACTIVE FOR ANNIHILATED PARTICLES BETWEEN LAMBDA = 0 AND LAMBDA = 1
Info: FEP VDW ACTIVE FOR EXNIHILATED PARTICLES BETWEEN LAMBDA = 0 AND LAMBDA = 1
Info: FEP BOND ACTIVE FOR ANNIHILATED PARTICLES BETWEEN LAMBDA = 1 AND LAMBDA = 1
Info: FEP BOND ACTIVE FOR EXNIHILATED PARTICLES BETWEEN LAMBDA = 0 AND LAMBDA = 0
Info: LANGEVIN DYNAMICS ACTIVE
Info: LANGEVIN TEMPERATURE   300
Info: LANGEVIN USING BBK INTEGRATOR
Info: LANGEVIN DAMPING COEFFICIENT IS 1 INVERSE PS
Info: LANGEVIN DYNAMICS APPLIED TO HYDROGENS
Info: LANGEVIN PISTON PRESSURE CONTROL ACTIVE
Info:        TARGET PRESSURE IS 1.01325 BAR
Info:     OSCILLATION PERIOD IS 50 FS
Info:             DECAY TIME IS 25 FS
Info:     PISTON TEMPERATURE IS 300 K
Info:       PRESSURE CONTROL IS GROUP-BASED
Info:    INITIAL STRAIN RATE IS 0.000276954 0.000276954 0.000276954
Info:       CELL FLUCTUATION IS ISOTROPIC
Info: PARTICLE MESH EWALD (PME) ACTIVE
Info: PME TOLERANCE               1e-06
Info: PME EWALD COEFFICIENT       0.348832
Info: PME INTERPOLATION ORDER     4
Info: PME GRID DIMENSIONS         32 32 36
Info: PME MAXIMUM GRID SPACING    1
Info: PME CALCULATION WILL BE PERFORMED ON GPU
Info: FULL ELECTROSTATIC EVALUATION FREQUENCY      2
Info: USING VERLET I (r-RESPA) MTS SCHEME.
Info: C1 SPLITTING OF LONG RANGE ELECTROSTATICS
Info: PLACING ATOMS IN PATCHES BY HYDROGEN GROUPS
Info: RIGID BONDS TO HYDROGEN : ALL
Info:         ERROR TOLERANCE : 1e-08
Info:          MAX ITERATIONS : 100
Info: RIGID WATER USING SETTLE ALGORITHM
Info: RANDOM NUMBER SEED     1743753984
Info: USE HYDROGEN BONDS?    NO
Info: Using AMBER format force field!
Info: AMBER PARM FILE        mobley_2859600.prmtop
Info: COORDINATE PDB         mobley_2859600.pdb
Info: Exclusions will be read from PARM file!
Info: SCNB (VDW SCALING)     2
Info: USING ARITHMETIC MEAN TO COMBINE L-J SIGMA PARAMETERS
Info: BINARY COORDINATES     mobley_2859600_equil.coor
Info: SUMMARY OF PARAMETERS:
Info: 8 BONDS
Info: 8 ANGLES
Info:   8 HARMONIC
Info:   0 COSINE-BASED
Info: 4 DIHEDRAL
Info: 0 IMPROPER
Info: 0 CROSSTERM
Info: 0 VDW
Info: 10 VDW_PAIRS
Info: 0 NBTHOLE_PAIRS
Info: To read alchdata from file: mobley_2859600.pdb
Info: To read alchflag data from column: 5
Info: STRUCTURE SUMMARY:
Info: 2908 ATOMS
Info: 2908 BONDS
Info: 24 ANGLES
Info: 40 DIHEDRALS
Info: 0 IMPROPERS
Info: 0 CROSSTERMS
Info: 2961 EXCLUSIONS
Info: 2900 RIGID BONDS
Info: ALCH: 0 ATOMS TO DISAPPEAR IN FINAL STATE
Info: ALCH: 16 ATOMS TO APPEAR IN FINAL STATE
Info: 5824 DEGREES OF FREEDOM
Info: 972 HYDROGEN GROUPS
Info: 3 ATOMS IN LARGEST HYDROGEN GROUP
Info: 972 MIGRATION GROUPS
Info: 3 ATOMS IN LARGEST MIGRATION GROUP
Info: TOTAL MASS = 17471.6 amu
Info: TOTAL CHARGE = 9.9998e-05 e
Info: MASS DENSITY = 0.977894 g/cm^3
Info: ATOM DENSITY = 0.0980155 atoms/A^3
Info: ADDED 0 IMPLICIT EXCLUSIONS
Info: NONBONDED TABLE R-SQUARED SPACING: 0.0625
Info: NONBONDED TABLE SIZE: 705 POINTS
Info: REMOVING COM VELOCITY 0.146907 0.143049 0.0591189
Info: Use 3D box decompostion in PME FFT.
Info: Updated CUDA force table with 4096 elements.
Info: Updated CUDA LJ table with 4 x 4 elements.
Info: Found 15 unique exclusion lists needing 36 bytes
TCL: Running for 1500000 steps
ETITLE: TS BOND ANGLE DIHED IMPRP ELECT VDW BOUNDARY MISC KINETIC TOTAL TEMP POTENTIAL TOTALAVG TEMPAVG PRESSURE GPRESSURE VOLUME PRESSAVG GPRESSAVG
ENERGY: 0 2.1451 4.6877 2.8265 0.0000 -10617.0387 1451.5202 0.0000 0.0000 1734.4441 -7421.4152 299.7294 -9155.8593 -7421.4152 299.7294 103.3155 192.1003 29668.7711 103.3155 192.1003
ENERGY: 300000 1.3908 4.9852 5.4386 0.0000 -10555.0220 1441.1649 0.0000 0.0000 1756.3945 -7345.6480 303.5226 -9102.0425 -7360.0260 300.6797 231.7393 301.0992 29829.2299 229.0368 316.0017
ENERGY: 600000 4.0886 4.6075 3.3237 0.0000 -10558.4337 1457.0585 0.0000 0.0000 1732.7643 -7356.5910 299.4391 -9089.3553 -7360.6649 299.0017 477.0405 552.0553 29796.7585 70.6963 149.6849
ENERGY: 900000 1.7705 3.4603 3.8044 0.0000 -10694.5620 1507.2789 0.0000 0.0000 1786.4109 -7391.8369 308.7098 -9178.2479 -7367.5452 300.4851 826.9268 934.3467 29268.0384 91.7842 158.4504
ENERGY: 1200000 1.7043 4.0838 2.5778 0.0000 -10553.1258 1418.4732 0.0000 0.0000 1720.3211 -7405.9656 297.2888 -9126.2866 -7375.9424 299.5803 266.4699 254.5140 29704.3257 124.0494 193.8998
ENERGY: 1500000 1.5680 5.5601 7.1977 0.0000 -10594.6070 1407.1564 0.0000 0.0000 1710.9403 -7462.1844 295.6677 -9173.1247 -7380.0910 299.1997 -236.9481 -181.7728 29965.0719 16.7063 84.3489
TCL: Running FEP window   2: Lambda1 0.95   Lambda2 0.8999999999999999 [dLambda -0.050000000000000044]
TCL: Setting parameter firsttimestep to 0
TCL: Setting parameter alchLambda to 0.95
Info: NONBONDED TABLE R-SQUARED SPACING: 0.0625
Info: NONBONDED TABLE SIZE: 705 POINTS
TCL: Setting parameter alchLambda2 to 0.8999999999999999
Info: NONBONDED TABLE R-SQUARED SPACING: 0.0625
Info: NONBONDED TABLE SIZE: 705 POINTS
TCL: Running for 1500000 steps
ETITLE: TS BOND ANGLE DIHED IMPRP ELECT VDW BOUNDARY MISC KINETIC TOTAL TEMP POTENTIAL TOTALAVG TEMPAVG PRESSURE GPRESSURE VOLUME PRESSAVG GPRESSAVG
ENERGY: 0 1.5680 5.5601 7.1977 0.0000 -10594.0591 1406.9170 0.0000 0.0000 1710.0384 -7462.7778 295.5118 -9172.8162 -7462.7778 295.5118 -278.6166 -194.4008 29965.0719 -278.6166 -194.4008
ENERGY: 300000 4.1973 8.1585 6.2199 0.0000 -10487.7455 1363.3163 0.0000 0.0000 1752.5692 -7353.2844 302.8616 -9105.8536 -7373.4012 303.0081 -25.6957 80.5282 29187.3799 -169.0542 -99.4464
ENERGY: 600000 3.3888 6.4977 4.3890 0.0000 -10538.6458 1462.1881 0.0000 0.0000 1729.6564 -7332.5258 298.9020 -9062.1822 -7370.8992 301.7868 748.8313 847.6962 29408.0578 -50.7368 1.0256
ENERGY: 900000 1.4760 4.2009 3.3560 0.0000 -10440.6021 1321.3193 0.0000 0.0000 1784.8612 -7325.3886 308.4420 -9110.2499 -7369.6130 302.3957 -694.0821 -654.3270 30114.9250 -104.0006 -53.4522
ENERGY: 1200000 4.6228 5.1236 3.8486 0.0000 -10556.9682 1408.9531 0.0000 0.0000 1798.4378 -7335.9824 310.7881 -9134.4202 -7372.8907 302.1030 -58.5746 6.5752 30044.3957 -91.1519 -40.2443
ENERGY: 1500000 1.6596 3.0671 10.3921 0.0000 -10604.3130 1430.7834 0.0000 0.0000 1789.1750 -7369.2358 309.1874 -9158.4109 -7373.8586 301.9203 296.7449 326.2744 29346.6639 -104.3147 -52.6982
TCL: Running FEP window   3: Lambda1 0.8999999999999999 Lambda2 0.8499999999999999 [dLambda -0.050000000000000044]
TCL: Setting parameter firsttimestep to 0
TCL: Setting parameter alchLambda to 0.8999999999999999
Info: NONBONDED TABLE R-SQUARED SPACING: 0.0625
Info: NONBONDED TABLE SIZE: 705 POINTS
TCL: Setting parameter alchLambda2 to 0.8499999999999999
Info: NONBONDED TABLE R-SQUARED SPACING: 0.0625
Info: NONBONDED TABLE SIZE: 705 POINTS
TCL: Running for 1500000 steps
ETITLE: TS BOND ANGLE DIHED IMPRP ELECT VDW BOUNDARY MISC KINETIC TOTAL TEMP POTENTIAL TOTALAVG TEMPAVG PRESSURE GPRESSURE VOLUME PRESSAVG GPRESSAVG
ENERGY: 0 1.6596 3.0671 10.3921 0.0000 -10603.7421 1431.0463 0.0000 0.0000 1788.3142 -7369.2628 309.0387 -9157.5770 -7369.2628 309.0387 233.1226 317.6201 29346.6639 233.1226 317.6201
ENERGY: 300000 1.8297 8.2315 7.1187 0.0000 -10465.9975 1358.8966 0.0000 0.0000 1737.5634 -7352.3576 300.2684 -9089.9209 -7375.0119 301.6025 -306.4532 -266.2431 29743.6655 207.5787 296.7794
ENERGY: 600000 3.4876 5.9140 8.1055 0.0000 -10429.0159 1399.4902 0.0000 0.0000 1785.8016 -7226.2170 308.6045 -9012.0186 -7344.4650 303.8830 31.6014 114.0381 29968.2708 89.1136 167.6057
ENERGY: 900000 4.0384 5.3822 3.5480 0.0000 -10385.0004 1325.6390 0.0000 0.0000 1711.4992 -7334.8935 295.7643 -9046.3927 -7328.2021 303.8627 -805.7305 -744.0962 30269.6736 -84.3859 -11.8989
ENERGY: 1200000 1.6415 4.1465 5.3668 0.0000 -10650.5770 1424.9602 0.0000 0.0000 1698.7601 -7515.7019 293.5628 -9214.4620 -7342.6334 303.2634 -366.9372 -304.5402 29933.2833 -65.0370 4.9652
ENERGY: 1500000 0.9402 5.4472 7.3535 0.0000 -10554.5202 1439.0178 0.0000 0.0000 1759.7726 -7341.9889 304.1064 -9101.7615 -7348.6148 303.0330 281.8971 361.9632 29652.2390 -52.2571 12.8423
TCL: Running FEP window   4: Lambda1 0.8499999999999999 Lambda2 0.7999999999999998 [dLambda -0.050000000000000044]
TCL: Setting parameter firsttimestep to 0
TCL: Setting parameter alchLambda to 0.8499999999999999
Info: NONBONDED TABLE R-SQUARED SPACING: 0.0625
Info: NONBONDED TABLE SIZE: 705 POINTS
TCL: Setting parameter alchLambda2 to 0.7999999999999998
Info: NONBONDED TABLE R-SQUARED SPACING: 0.0625
Info: NONBONDED TABLE SIZE: 705 POINTS
TCL: Running for 1500000 steps
ETITLE: TS BOND ANGLE DIHED IMPRP ELECT VDW BOUNDARY MISC KINETIC TOTAL TEMP POTENTIAL TOTALAVG TEMPAVG PRESSURE GPRESSURE VOLUME PRESSAVG GPRESSAVG
ENERGY: 0 0.9402 5.4472 7.3535 0.0000 -10553.9671 1439.0287 0.0000 0.0000 1758.9188 -7342.2788 303.9589 -9101.1976 -7342.2788 303.9589 267.2553 348.2954 29652.2390 267.2553 348.2954
ENERGY: 300000 5.1665 4.1173 3.5262 0.0000 -10547.3583 1407.6488 0.0000 0.0000 1688.3100 -7438.5897 291.7569 -9126.8996 -7366.7713 299.4247 53.1380 60.1829 29416.1573 213.7174 265.5216
ENERGY: 600000 2.0746 5.0247 4.6721 0.0000 -10548.9075 1486.6182 0.0000 0.0000 1741.6915 -7308.8263 300.9818 -9050.5178 -7335.7319 301.9834 584.2497 629.7023 29891.3699 123.9186 171.8054
ENERGY: 900000 1.8167 4.2119 4.5603 0.0000 -10551.9302 1388.5369 0.0000 0.0000 1707.7585 -7445.0458 295.1178 -9152.8043 -7356.2276 301.5848 -320.6185 -258.7082 29772.2811 119.6555 175.5175
ENERGY: 1200000 2.9231 6.7878 4.2880 0.0000 -10533.5220 1447.2276 0.0000 0.0000 1780.5144 -7291.7811 307.6908 -9072.2955 -7356.9740 301.1890 185.1725 245.0276 29884.4226 -14.1190 44.5005
ENERGY: 1500000 0.8494 8.0000 6.7392 0.0000 -10668.3477 1479.6295 0.0000 0.0000 1697.7104 -7475.4194 293.3814 -9173.1298 -7361.8998 300.6029 212.7152 319.5069 29780.5778 -31.4183 32.8051
TCL: Running FEP window   5: Lambda1 0.7999999999999998 Lambda2 0.7499999999999998 [dLambda -0.050000000000000044]
TCL: Setting parameter firsttimestep to 0
TCL: Setting parameter alchLambda to 0.7999999999999998
Info: NONBONDED TABLE R-SQUARED SPACING: 0.0625
Info: NONBONDED TABLE SIZE: 705 POINTS
TCL: Setting parameter alchLambda2 to 0.7499999999999998
Info: NONBONDED TABLE R-SQUARED SPACING: 0.0625
Info: NONBONDED TABLE SIZE: 705 POINTS
TCL: Running for 1500000 steps
ETITLE: TS BOND ANGLE DIHED IMPRP ELECT VDW BOUNDARY MISC KINETIC TOTAL TEMP POTENTIAL TOTALAVG TEMPAVG PRESSURE GPRESSURE VOLUME PRESSAVG GPRESSAVG
ENERGY: 0 0.8494 8.0000 6.7392 0.0000 -10666.7960 1479.6219 0.0000 0.0000 1696.8292 -7474.7564 293.2292 -9171.5856 -7474.7564 293.2292 226.2089 312.3519 29780.5778 226.2089 312.3519
ENERGY: 300000 4.3941 1.5735 7.2496 0.0000 -10624.2883 1464.7324 0.0000 0.0000 1754.5110 -7391.8276 303.1971 -9146.3386 -7415.4560 298.5848 275.3445 337.3680 29642.5881 180.1883 280.5163
ENERGY: 600000 5.3826 5.7357 3.9604 0.0000 -10392.9166 1312.6593 0.0000 0.0000 1770.5687 -7294.6100 305.9721 -9065.1787 -7390.3761 299.3757 -873.5714 -805.9617 30195.0799 -20.0097 56.5856
ENERGY: 900000 2.3547 3.2983 5.0107 0.0000 -10526.0357 1351.6531 0.0000 0.0000 1711.2746 -7452.4442 295.7255 -9163.7189 -7377.1616 299.5552 -759.3933 -706.0021 30078.8418 9.4182 80.1735
ENERGY: 1200000 2.2926 4.2328 5.8124 0.0000 -10513.6019 1447.3599 0.0000 0.0000 1788.7419 -7265.1622 309.1126 -9053.9042 -7363.6332 300.2065 372.7645 457.1402 29990.0476 137.5076 206.3857
ENERGY: 1500000 1.6886 2.2212 6.1305 0.0000 -10561.3400 1470.2330 0.0000 0.0000 1732.6802 -7348.3866 299.4246 -9081.0668 -7367.3640 299.9377 771.0347 835.7778 29703.3046 175.1336 245.3904
TCL: Running FEP window   6: Lambda1 0.7499999999999998 Lambda2 0.6999999999999997 [dLambda -0.050000000000000044]
TCL: Setting parameter firsttimestep to 0
TCL: Setting parameter alchLambda to 0.7499999999999998
Info: NONBONDED TABLE R-SQUARED SPACING: 0.0625
Info: NONBONDED TABLE SIZE: 705 POINTS
TCL: Setting parameter alchLambda2 to 0.6999999999999997
Info: NONBONDED TABLE R-SQUARED SPACING: 0.0625
Info: NONBONDED TABLE SIZE: 705 POINTS
TCL: Running for 1500000 steps
ETITLE: TS BOND ANGLE DIHED IMPRP ELECT VDW BOUNDARY MISC KINETIC TOTAL TEMP POTENTIAL TOTALAVG TEMPAVG PRESSURE GPRESSURE VOLUME PRESSAVG GPRESSAVG
ENERGY: 0 1.6885 2.2212 6.1305 0.0000 -10560.8165 1470.2149 0.0000 0.0000 1731.8314 -7348.7300 299.2779 -9080.5614 -7348.7300 299.2779 740.8691 825.8921 29703.3046 740.8691 825.8921
ENERGY: 300000 5.0461 3.5597 6.0533 0.0000 -10658.5979 1489.1937 0.0000 0.0000 1746.4169 -7408.3281 301.7984 -9154.7450 -7367.8130 299.4139 633.6111 640.8219 29328.0571 330.8855 377.3934
ENERGY: 600000 0.5781 3.6005 4.8113 0.0000 -10443.7283 1385.9052 0.0000 0.0000 1677.2411 -7371.5921 289.8441 -9048.8333 -7375.9313 298.5070 -138.9914 -82.4651 29933.9281 156.9996 212.8122
ENERGY: 900000 0.2925 4.4092 2.5075 0.0000 -10484.1624 1393.9986 0.0000 0.0000 1738.3605 -7344.5941 300.4062 -9082.9546 -7381.8868 297.5114 99.1330 200.7317 29662.3180 92.1136 147.0065
ENERGY: 1200000 2.2973 3.5364 6.2673 0.0000 -10594.3341 1503.4643 0.0000 0.0000 1751.6229 -7327.1459 302.6981 -9078.7688 -7367.6626 298.4825 1037.6470 1086.8676 29678.6298 141.7709 199.8022
ENERGY: 1500000 2.8810 1.1347 5.3399 0.0000 -10401.6944 1334.1097 0.0000 0.0000 1709.3664 -7348.8628 295.3957 -9058.2291 -7372.0153 298.4829 -291.8367 -321.7136 29710.5352 81.9550 129.8236
TCL: Running FEP window   7: Lambda1 0.6999999999999997 Lambda2 0.6499999999999997 [dLambda -0.050000000000000044]
TCL: Setting parameter firsttimestep to 0
TCL: Setting parameter alchLambda to 0.6999999999999997
Info: NONBONDED TABLE R-SQUARED SPACING: 0.0625
Info: NONBONDED TABLE SIZE: 705 POINTS
TCL: Setting parameter alchLambda2 to 0.6499999999999997
Info: NONBONDED TABLE R-SQUARED SPACING: 0.0625
Info: NONBONDED TABLE SIZE: 705 POINTS
TCL: Running for 1500000 steps
ETITLE: TS BOND ANGLE DIHED IMPRP ELECT VDW BOUNDARY MISC KINETIC TOTAL TEMP POTENTIAL TOTALAVG TEMPAVG PRESSURE GPRESSURE VOLUME PRESSAVG GPRESSAVG
ENERGY: 0 2.8810 1.1347 5.3399 0.0000 -10401.1321 1334.4466 0.0000 0.0000 1708.5229 -7348.8071 295.2499 -9057.3300 -7348.8071 295.2499 -372.8432 -325.8131 29710.5352 -372.8432 -325.8131
ENERGY: 300000 2.1862 4.6713 2.9583 0.0000 -10493.2111 1396.0351 0.0000 0.0000 1749.6650 -7337.6951 302.3597 -9087.3602 -7372.2602 297.5120 -35.4034 -25.9701 29876.5646 -288.0502 -239.6122
ENERGY: 600000 3.7798 5.3629 5.4848 0.0000 -10494.1191 1405.3053 0.0000 0.0000 1735.2358 -7338.9505 299.8662 -9074.1863 -7359.0997 300.1979 -382.4364 -279.1393 30246.9336 -71.0048 -12.1257
ENERGY: 900000 4.5195 5.2129 3.9044 0.0000 -10603.7686 1498.8780 0.0000 0.0000 1715.0594 -7376.1943 296.3795 -9091.2537 -7347.9103 300.2939 485.1410 501.5646 30207.9989 -133.6211 -77.7122
ENERGY: 1200000 2.7400 6.3255 3.2668 0.0000 -10515.9698 1359.0673 0.0000 0.0000 1728.2745 -7416.2956 298.6632 -9144.5701 -7357.6713 300.0530 -682.4853 -638.9467 30124.2800 -222.7822 -161.1561
ENERGY: 1500000 4.5928 3.5469 5.3068 0.0000 -10600.6732 1411.9057 0.0000 0.0000 1726.8018 -7448.5192 298.4087 -9175.3210 -7372.4308 299.7080 -279.2337 -242.3682 29607.5678 -148.2420 -100.0272
TCL: Running FEP window   8: Lambda1 0.6499999999999997 Lambda2 0.5999999999999996 [dLambda -0.050000000000000044]
TCL: Setting parameter firsttimestep to 0
TCL: Setting parameter alchLambda to 0.6499999999999997
Info: NONBONDED TABLE R-SQUARED SPACING: 0.0625
Info: NONBONDED TABLE SIZE: 705 POINTS
TCL: Setting parameter alchLambda2 to 0.5999999999999996
Info: NONBONDED TABLE R-SQUARED SPACING: 0.0625
Info: NONBONDED TABLE SIZE: 705 POINTS
TCL: Running for 1500000 steps
ETITLE: TS BOND ANGLE DIHED IMPRP ELECT VDW BOUNDARY MISC KINETIC TOTAL TEMP POTENTIAL TOTALAVG TEMPAVG PRESSURE GPRESSURE VOLUME PRESSAVG GPRESSAVG
ENERGY: 0 4.5928 3.5469 5.3068 0.0000 -10599.8686 1412.0448 0.0000 0.0000 1725.9569 -7448.4204 298.2627 -9174.3773 -7448.4204 298.2627 -328.1729 -246.6849 29607.5678 -328.1729 -246.6849
ENERGY: 300000 2.7320 2.3494 3.6242 0.0000 -10497.1935 1386.7750 0.0000 0.0000 1762.2995 -7339.4133 304.5431 -9101.7128 -7351.9074 302.7880 -474.5106 -444.4613 30112.8953 -35.9186 4.2706
ENERGY: 600000 1.1522 8.1777 2.7757 0.0000 -10560.4894 1453.1977 0.0000 0.0000 1754.3440 -7340.8420 303.1683 -9095.1859 -7378.4061 300.8452 344.2719 425.7268 29809.8242 -21.0160 29.8487
ENERGY: 900000 5.1302 6.5877 1.5258 0.0000 -10527.9328 1408.6821 0.0000 0.0000 1759.7044 -7346.3025 304.0946 -9106.0069 -7371.9442 300.5518 -462.0831 -341.2876 30415.6382 -214.6285 -160.1337
ENERGY: 1200000 1.4850 3.9751 5.5283 0.0000 -10500.3129 1396.2401 0.0000 0.0000 1732.5785 -7360.5058 299.4070 -9093.0843 -7365.6045 300.7440 -66.5863 -24.9700 29658.7944 -109.1782 -54.0707
ENERGY: 1500000 5.4203 4.7885 3.8685 0.0000 -10667.4876 1501.0162 0.0000 0.0000 1768.7465 -7383.6476 305.6572 -9152.3941 -7362.5040 300.6569 646.3133 712.9651 29585.1932 -19.1344 42.1953
TCL: Running FEP window   9: Lambda1 0.5999999999999996 Lambda2 0.5499999999999996 [dLambda -0.050000000000000044]
TCL: Setting parameter firsttimestep to 0
TCL: Setting parameter alchLambda to 0.5999999999999996
Info: NONBONDED TABLE R-SQUARED SPACING: 0.0625
Info: NONBONDED TABLE SIZE: 705 POINTS
TCL: Setting parameter alchLambda2 to 0.5499999999999996
Info: NONBONDED TABLE R-SQUARED SPACING: 0.0625
Info: NONBONDED TABLE SIZE: 705 POINTS
TCL: Running for 1500000 steps
ETITLE: TS BOND ANGLE DIHED IMPRP ELECT VDW BOUNDARY MISC KINETIC TOTAL TEMP POTENTIAL TOTALAVG TEMPAVG PRESSURE GPRESSURE VOLUME PRESSAVG GPRESSAVG
ENERGY: 0 5.4203 4.7886 3.8685 0.0000 -10667.0297 1501.1166 0.0000 0.0000 1767.8612 -7383.9745 305.5042 -9151.8357 -7383.9745 305.5042 618.7392 707.3149 29585.1932 618.7392 707.3149
ENERGY: 300000 2.1083 4.6795 5.3244 0.0000 -10454.1282 1383.2791 0.0000 0.0000 1755.0261 -7303.7109 303.2862 -9058.7369 -7326.4924 302.4971 -575.0758 -550.6568 30906.5333 108.5085 171.4403
ENERGY: 600000 3.7856 3.9345 2.5782 0.0000 -10592.7394 1418.9594 0.0000 0.0000 1735.8519 -7427.6298 299.9727 -9163.4817 -7345.2706 303.1927 -292.3819 -143.5336 29752.4303 112.7846 182.0843
ENERGY: 900000 3.9605 4.8233 6.7699 0.0000 -10547.1698 1459.9818 0.0000 0.0000 1681.7413 -7389.8930 290.6218 -9071.6343 -7347.3367 301.7857 491.7562 528.4001 29813.9339 125.1387 192.4315
ENERGY: 1200000 2.1401 3.4059 3.2238 0.0000 -10444.3859 1369.6682 0.0000 0.0000 1740.8336 -7325.1143 300.8336 -9065.9478 -7348.0956 301.6643 -283.7203 -281.0783 29850.6246 44.6270 104.5044
ENERGY: 1500000 5.3719 2.4096 6.2764 0.0000 -10546.3356 1463.4876 0.0000 0.0000 1735.8225 -7332.9675 299.9676 -9068.7901 -7348.9416 301.7837 20.4067 106.3285 30233.9535 -48.3194 11.4474
TCL: Running FEP window  10: Lambda1 0.5499999999999996 Lambda2 0.4999999999999996 [dLambda -0.04999999999999999]
TCL: Setting parameter firsttimestep to 0
TCL: Setting parameter alchLambda to 0.5499999999999996
Info: NONBONDED TABLE R-SQUARED SPACING: 0.0625
Info: NONBONDED TABLE SIZE: 705 POINTS
TCL: Setting parameter alchLambda2 to 0.4999999999999996
Info: NONBONDED TABLE R-SQUARED SPACING: 0.0625
Info: NONBONDED TABLE SIZE: 705 POINTS
TCL: Running for 1500000 steps
ETITLE: TS BOND ANGLE DIHED IMPRP ELECT VDW BOUNDARY MISC KINETIC TOTAL TEMP POTENTIAL TOTALAVG TEMPAVG PRESSURE GPRESSURE VOLUME PRESSAVG GPRESSAVG
ENERGY: 0 5.3719 2.4096 6.2763 0.0000 -10546.0255 1463.4121 0.0000 0.0000 1734.9454 -7333.6101 299.8160 -9068.5555 -7333.6101 299.8160 10.1435 99.1646 30233.9535 10.1435 99.1646
ENERGY: 300000 1.6513 4.5085 3.9305 0.0000 -10551.0642 1456.7938 0.0000 0.0000 1740.3422 -7343.8379 300.7486 -9084.1801 -7358.9970 301.0840 536.3719 593.7278 29392.5464 308.5451 352.2564
ENERGY: 600000 1.3129 4.0768 4.6348 0.0000 -10601.9149 1460.5476 0.0000 0.0000 1680.9264 -7450.4165 290.4810 -9131.3428 -7353.2587 300.1904 361.9228 443.0917 29499.5091 44.1308 102.3233
ENERGY: 900000 2.8061 5.6209 2.6327 0.0000 -10477.9531 1381.3083 0.0000 0.0000 1781.3335 -7304.2515 307.8324 -9085.5850 -7360.1643 300.1183 -384.4424 -300.4008 30068.3141 13.4067 75.6950
ENERGY: 1200000 1.8360 7.8624 3.4799 0.0000 -10403.7872 1365.5282 0.0000 0.0000 1749.4883 -7275.5923 302.3292 -9025.0806 -7356.3153 300.7728 13.3456 12.8014 29605.2266 5.0075 69.2121
ENERGY: 1500000 2.1510 3.6005 6.8970 0.0000 -10512.3146 1409.5609 0.0000 0.0000 1723.4562 -7366.6490 297.8306 -9090.1052 -7359.4751 300.6532 245.5596 295.8123 29546.3613 74.4783 137.4311
TCL: Running FEP window  11: Lambda1 0.4999999999999996 Lambda2 0.4499999999999996 [dLambda -0.04999999999999999]
TCL: Setting parameter firsttimestep to 0
TCL: Setting parameter alchLambda to 0.4999999999999996
Info: NONBONDED TABLE R-SQUARED SPACING: 0.0625
Info: NONBONDED TABLE SIZE: 705 POINTS
TCL: Setting parameter alchLambda2 to 0.4499999999999996
Info: NONBONDED TABLE R-SQUARED SPACING: 0.0625
Info: NONBONDED TABLE SIZE: 705 POINTS
TCL: Running for 1500000 steps
ETITLE: TS BOND ANGLE DIHED IMPRP ELECT VDW BOUNDARY MISC KINETIC TOTAL TEMP POTENTIAL TOTALAVG TEMPAVG PRESSURE GPRESSURE VOLUME PRESSAVG GPRESSAVG
ENERGY: 0 2.1510 3.6005 6.8970 0.0000 -10511.9843 1409.2400 0.0000 0.0000 1722.5759 -7367.5198 297.6784 -9090.0957 -7367.5198 297.6784 206.7393 288.7983 29546.3613 206.7393 288.7983
ENERGY: 300000 4.9059 3.2879 5.3970 0.0000 -10509.5774 1412.7040 0.0000 0.0000 1759.0669 -7324.2157 303.9845 -9083.2826 -7342.9391 300.6009 138.0727 206.1514 29498.0263 196.9009 266.0360
ENERGY: 600000 1.9501 3.9115 5.9502 0.0000 -10440.3473 1369.5907 0.0000 0.0000 1778.3116 -7280.6332 307.3101 -9058.9448 -7354.1117 301.4441 -241.9918 -115.2917 29840.1685 -9.1631 56.1926
ENERGY: 900000 2.4796 6.3910 4.8486 0.0000 -10449.8310 1377.2321 0.0000 0.0000 1764.6277 -7294.2520 304.9454 -9058.8797 -7359.2197 300.8460 -448.9519 -341.7672 30484.8444 -117.5621 -47.4672
ENERGY: 1200000 2.5402 3.1361 2.1407 0.0000 -10588.6526 1426.7547 0.0000 0.0000 1751.3941 -7402.6869 302.6585 -9154.0811 -7369.0731 300.0651 -90.4029 -51.8424 29863.3662 -25.7793 46.9238
ENERGY: 1500000 2.1333 4.0031 2.4769 0.0000 -10493.1388 1389.0954 0.0000 0.0000 1691.8991 -7403.5310 292.3772 -9095.4301 -7362.6526 299.9846 -511.8275 -438.5170 30292.2608 -43.4820 23.8572
TCL: Running FEP window  12: Lambda1 0.4499999999999996 Lambda2 0.39999999999999963 [dLambda -0.04999999999999999]
TCL: Setting parameter firsttimestep to 0
TCL: Setting parameter alchLambda to 0.4499999999999996
Info: NONBONDED TABLE R-SQUARED SPACING: 0.0625
Info: NONBONDED TABLE SIZE: 705 POINTS
TCL: Setting parameter alchLambda2 to 0.39999999999999963
Info: NONBONDED TABLE R-SQUARED SPACING: 0.0625
Info: NONBONDED TABLE SIZE: 705 POINTS
TCL: Running for 1500000 steps
ETITLE: TS BOND ANGLE DIHED IMPRP ELECT VDW BOUNDARY MISC KINETIC TOTAL TEMP POTENTIAL TOTALAVG TEMPAVG PRESSURE GPRESSURE VOLUME PRESSAVG GPRESSAVG
ENERGY: 0 2.1333 4.0031 2.4769 0.0000 -10493.1381 1389.2630 0.0000 0.0000 1691.0436 -7404.2182 292.2293 -9095.2618 -7404.2182 292.2293 -530.7683 -442.1557 30292.2608 -530.7683 -442.1557
ENERGY: 300000 2.4887 4.3973 4.2562 0.0000 -10386.6285 1302.5379 0.0000 0.0000 1740.7529 -7332.1956 300.8196 -9072.9485 -7401.2105 294.1736 -953.1307 -877.4030 29889.3256 -677.8573 -607.0690
ENERGY: 600000 2.5048 1.7037 2.5658 0.0000 -10602.4619 1459.9220 0.0000 0.0000 1769.2361 -7366.5294 305.7418 -9135.7655 -7394.9641 296.3834 148.8649 172.7970 30099.5575 -485.3861 -427.8403
ENERGY: 900000 1.5654 5.4532 7.8529 0.0000 -10384.9827 1342.6677 0.0000 0.0000 1768.3879 -7259.0555 305.5952 -9027.4434 -7369.4941 297.6764 -300.5297 -188.1078 29858.8252 -484.1908 -422.4337
ENERGY: 1200000 3.5206 5.2978 6.8381 0.0000 -10464.1043 1353.5849 0.0000 0.0000 1767.5840 -7327.2789 305.4563 -9094.8628 -7365.5244 298.5877 -637.9993 -592.9284 30035.9613 -434.8917 -371.6186
ENERGY: 1500000 2.2103 4.4049 3.0770 0.0000 -10448.5132 1375.6404 0.0000 0.0000 1742.4157 -7320.7649 301.1070 -9063.1806 -7357.4807 299.0617 -342.5027 -248.2249 30131.8379 -395.7979 -334.6677
TCL: Running FEP window  13: Lambda1 0.39999999999999963 Lambda2 0.34999999999999964 [dLambda -0.04999999999999999]
TCL: Setting parameter firsttimestep to 0
TCL: Setting parameter alchLambda to 0.39999999999999963
Info: NONBONDED TABLE R-SQUARED SPACING: 0.0625
Info: NONBONDED TABLE SIZE: 705 POINTS
TCL: Setting parameter alchLambda2 to 0.34999999999999964
Info: NONBONDED TABLE R-SQUARED SPACING: 0.0625
Info: NONBONDED TABLE SIZE: 705 POINTS
TCL: Running for 1500000 steps
ETITLE: TS BOND ANGLE DIHED IMPRP ELECT VDW BOUNDARY MISC KINETIC TOTAL TEMP POTENTIAL TOTALAVG TEMPAVG PRESSURE GPRESSURE VOLUME PRESSAVG GPRESSAVG
ENERGY: 0 2.2103 4.4049 3.0770 0.0000 -10448.5147 1376.0945 0.0000 0.0000 1741.5360 -7321.1920 300.9549 -9062.7280 -7321.1920 300.9549 -334.0883 -249.3395 30131.8379 -334.0883 -249.3395
ENERGY: 300000 1.2253 3.2244 5.6379 0.0000 -10438.1238 1333.1048 0.0000 0.0000 1800.9583 -7293.9730 311.2237 -9094.9313 -7323.3873 304.7428 -772.9024 -660.1305 29994.0212 -680.0661 -623.0538
ENERGY: 600000 2.6826 5.5536 4.9362 0.0000 -10609.6449 1457.1306 0.0000 0.0000 1778.5106 -7360.8313 307.3445 -9139.3419 -7340.6923 304.3512 143.9230 152.9077 29809.0875 -255.2813 -213.7530
ENERGY: 900000 1.1410 5.1373 2.8359 0.0000 -10444.7130 1344.5597 0.0000 0.0000 1770.5312 -7320.5079 305.9656 -9091.0391 -7328.6038 304.4937 -742.6700 -676.0377 30334.0523 -343.3978 -292.7510
ENERGY: 1200000 1.9810 4.5185 3.8336 0.0000 -10528.9677 1410.0534 0.0000 0.0000 1740.2742 -7368.3070 300.7369 -9108.5812 -7339.1288 302.8359 -227.7802 -139.1244 30089.0329 -242.2829 -184.7321
ENERGY: 1500000 2.8673 6.9528 2.9862 0.0000 -10453.8169 1411.8479 0.0000 0.0000 1753.8445 -7275.3182 303.0820 -9029.1627 -7347.9682 301.8825 -143.9049 -31.3733 30167.1356 -220.9326 -160.8054
TCL: Running FEP window  14: Lambda1 0.34999999999999964 Lambda2 0.29999999999999966 [dLambda -0.04999999999999999]
TCL: Setting parameter firsttimestep to 0
TCL: Setting parameter alchLambda to 0.34999999999999964
Info: NONBONDED TABLE R-SQUARED SPACING: 0.0625
Info: NONBONDED TABLE SIZE: 705 POINTS
TCL: Setting parameter alchLambda2 to 0.29999999999999966
Info: NONBONDED TABLE R-SQUARED SPACING: 0.0625
Info: NONBONDED TABLE SIZE: 705 POINTS
TCL: Running for 1500000 steps
ETITLE: TS BOND ANGLE DIHED IMPRP ELECT VDW BOUNDARY MISC KINETIC TOTAL TEMP POTENTIAL TOTALAVG TEMPAVG PRESSURE GPRESSURE VOLUME PRESSAVG GPRESSAVG
ENERGY: 0 2.8673 6.9528 2.9862 0.0000 -10453.8167 1411.8477 0.0000 0.0000 1753.0015 -7276.1611 302.9363 -9029.1627 -7276.1611 302.9363 -127.2427 -33.4343 30167.1356 -127.2427 -33.4343
ENERGY: 300000 2.5741 3.6773 4.5394 0.0000 -10481.4058 1380.4805 0.0000 0.0000 1682.5729 -7407.5616 290.7655 -9090.1345 -7338.8776 299.9997 -689.8899 -586.3948 30062.3725 -274.3779 -164.9669
ENERGY: 600000 2.9891 3.4105 4.6497 0.0000 -10624.5919 1452.7421 0.0000 0.0000 1736.8804 -7423.9201 300.1504 -9160.8005 -7345.6118 301.4383 452.3939 517.3819 29360.0669 68.3713 155.1679
ENERGY: 900000 1.6451 2.6072 6.1418 0.0000 -10541.9142 1342.4703 0.0000 0.0000 1739.4678 -7449.5820 300.5975 -9189.0498 -7359.2592 300.9918 -807.1447 -721.8605 29812.8027 -77.7339 3.7297
ENERGY: 1200000 3.4146 3.1848 8.6214 0.0000 -10478.3118 1388.0263 0.0000 0.0000 1749.8719 -7325.1928 302.3955 -9075.0646 -7355.3374 300.5149 21.2781 -29.3477 29646.2541 -132.7609 -62.9978
ENERGY: 1500000 3.6440 5.2359 5.6636 0.0000 -10338.8104 1310.0884 0.0000 0.0000 1737.1791 -7276.9995 300.2020 -9014.1786 -7347.0704 300.3971 -876.3040 -799.6424 30124.7224 -203.5611 -133.1062
TCL: Running FEP window  15: Lambda1 0.29999999999999966 Lambda2 0.24999999999999967 [dLambda -0.04999999999999999]
TCL: Setting parameter firsttimestep to 0
TCL: Setting parameter alchLambda to 0.29999999999999966
Info: NONBONDED TABLE R-SQUARED SPACING: 0.0625
Info: NONBONDED TABLE SIZE: 705 POINTS
TCL: Setting parameter alchLambda2 to 0.24999999999999967
Info: NONBONDED TABLE R-SQUARED SPACING: 0.0625
Info: NONBONDED TABLE SIZE: 705 POINTS
TCL: Running for 1500000 steps
ETITLE: TS BOND ANGLE DIHED IMPRP ELECT VDW BOUNDARY MISC KINETIC TOTAL TEMP POTENTIAL TOTALAVG TEMPAVG PRESSURE GPRESSURE VOLUME PRESSAVG GPRESSAVG
ENERGY: 0 3.6440 5.2359 5.6636 0.0000 -10338.8101 1309.7191 0.0000 0.0000 1736.3139 -7278.2336 300.0525 -9014.5475 -7278.2336 300.0525 -886.6274 -804.2249 30124.7224 -886.6274 -804.2249
ENERGY: 300000 4.1571 6.0140 4.0832 0.0000 -10600.3291 1405.9025 0.0000 0.0000 1776.8853 -7403.2871 307.0637 -9180.1723 -7346.4307 305.4357 -463.5378 -382.5924 29766.2755 -173.1032 -120.8335
ENERGY: 600000 2.0898 3.8489 6.5007 0.0000 -10506.4110 1386.1357 0.0000 0.0000 1754.1475 -7353.6884 303.1343 -9107.8359 -7353.9857 304.7949 -329.7548 -297.4246 30044.9908 -72.1427 -29.9164
ENERGY: 900000 5.2241 6.2182 2.9668 0.0000 -10499.9220 1390.6761 0.0000 0.0000 1727.6080 -7367.2288 298.5480 -9094.8368 -7348.9299 303.7570 -189.6897 -169.0654 29661.6561 -0.4327 47.4311
ENERGY: 1200000 1.2623 3.7285 3.0526 0.0000 -10521.3608 1471.7640 0.0000 0.0000 1768.9709 -7272.5825 305.6960 -9041.5534 -7350.1461 303.5726 515.6230 582.0766 29989.3546 61.8604 114.0650
ENERGY: 1500000 2.0877 5.7892 5.4436 0.0000 -10479.4469 1401.1488 0.0000 0.0000 1749.6263 -7315.3513 302.3530 -9064.9776 -7341.0921 303.7734 -213.2342 -51.9516 29905.5935 116.8554 176.1903
TCL: Running FEP window  16: Lambda1 0.24999999999999967 Lambda2 0.19999999999999968 [dLambda -0.04999999999999999]
TCL: Setting parameter firsttimestep to 0
TCL: Setting parameter alchLambda to 0.24999999999999967
Info: NONBONDED TABLE R-SQUARED SPACING: 0.0625
Info: NONBONDED TABLE SIZE: 705 POINTS
TCL: Setting parameter alchLambda2 to 0.19999999999999968
Info: NONBONDED TABLE R-SQUARED SPACING: 0.0625
Info: NONBONDED TABLE SIZE: 705 POINTS
TCL: Running for 1500000 steps
ETITLE: TS BOND ANGLE DIHED IMPRP ELECT VDW BOUNDARY MISC KINETIC TOTAL TEMP POTENTIAL TOTALAVG TEMPAVG PRESSURE GPRESSURE VOLUME PRESSAVG GPRESSAVG
ENERGY: 0 2.0877 5.7892 5.4435 0.0000 -10479.4481 1401.1818 0.0000 0.0000 1748.7695 -7316.1763 302.2050 -9064.9458 -7316.1763 302.2050 -142.5117 -54.1885 29905.5935 -142.5117 -54.1885
ENERGY: 300000 2.6888 4.0641 2.2696 0.0000 -10509.9986 1457.0578 0.0000 0.0000 1768.7362 -7275.1821 305.6554 -9043.9183 -7328.0760 302.7935 507.1322 530.0953 29892.5811 354.0991 394.8133
ENERGY: 600000 3.1479 4.0603 4.1659 0.0000 -10551.3935 1479.3152 0.0000 0.0000 1724.4577 -7336.2466 298.0036 -9060.7042 -7334.7473 301.5624 670.4734 699.0672 30028.4747 225.5484 274.4546
ENERGY: 900000 1.4963 2.2295 5.5443 0.0000 -10447.3655 1394.3790 0.0000 0.0000 1791.2273 -7252.4891 309.5421 -9043.7164 -7327.5864 302.4948 -91.4506 -57.7429 30264.9201 95.2008 155.4015
ENERGY: 1200000 1.2845 6.6335 5.6723 0.0000 -10624.1002 1457.2252 0.0000 0.0000 1762.1393 -7391.1454 304.5154 -9153.2847 -7340.8603 302.4877 226.0557 377.2509 29626.2067 102.2504 170.3391
ENERGY: 1500000 0.5649 4.4766 3.2298 0.0000 -10447.4025 1379.1391 0.0000 0.0000 1765.2793 -7294.7127 305.0580 -9059.9920 -7339.6564 302.1717 -372.2105 -310.2687 30401.6349 8.5758 75.6314
TCL: Running FEP window  17: Lambda1 0.19999999999999968 Lambda2 0.1499999999999997 [dLambda -0.04999999999999999]
TCL: Setting parameter firsttimestep to 0
TCL: Setting parameter alchLambda to 0.19999999999999968
Info: NONBONDED TABLE R-SQUARED SPACING: 0.0625
Info: NONBONDED TABLE SIZE: 705 POINTS
TCL: Setting parameter alchLambda2 to 0.1499999999999997
Info: NONBONDED TABLE R-SQUARED SPACING: 0.0625
Info: NONBONDED TABLE SIZE: 705 POINTS
TCL: Running for 1500000 steps
ETITLE: TS BOND ANGLE DIHED IMPRP ELECT VDW BOUNDARY MISC KINETIC TOTAL TEMP POTENTIAL TOTALAVG TEMPAVG PRESSURE GPRESSURE VOLUME PRESSAVG GPRESSAVG
ENERGY: 0 0.5649 4.4766 3.2298 0.0000 -10447.4020 1379.3842 0.0000 0.0000 1764.3960 -7295.3504 304.9054 -9059.7464 -7295.3504 304.9054 -406.1376 -314.8546 30401.6349 -406.1376 -314.8546
ENERGY: 300000 3.1408 2.5382 2.3204 0.0000 -10550.7200 1453.0579 0.0000 0.0000 1766.3881 -7323.2745 305.2496 -9089.6626 -7381.4762 300.8467 293.2248 381.2036 29641.7036 168.0805 255.7353
ENERGY: 600000 1.5865 4.2606 4.1831 0.0000 -10651.4588 1550.2917 0.0000 0.0000 1686.8436 -7404.2933 291.5035 -9091.1369 -7363.6116 299.5616 912.3283 1055.8418 29698.0723 283.2534 382.1029
ENERGY: 900000 4.4210 6.7679 5.2662 0.0000 -10511.4460 1418.7962 0.0000 0.0000 1758.9400 -7317.2548 303.9625 -9076.1948 -7369.1700 300.4131 122.0393 152.6923 29955.1360 112.9954 196.0868
ENERGY: 1200000 2.3276 4.4931 4.5080 0.0000 -10673.8187 1490.7038 0.0000 0.0000 1808.9729 -7362.8133 312.6087 -9171.7862 -7374.1854 300.7541 646.1960 730.5948 29210.7352 108.2725 183.0475
ENERGY: 1500000 1.3499 4.9999 5.2316 0.0000 -10534.1460 1410.1792 0.0000 0.0000 1725.9055 -7386.4800 298.2538 -9112.3855 -7373.7803 300.1746 -336.6365 -261.1433 30147.8835 63.6738 136.9177
TCL: Running FEP window  18: Lambda1 0.1499999999999997 Lambda2 0.09999999999999969 [dLambda -0.05 ]
TCL: Setting parameter firsttimestep to 0
TCL: Setting parameter alchLambda to 0.1499999999999997
Info: NONBONDED TABLE R-SQUARED SPACING: 0.0625
Info: NONBONDED TABLE SIZE: 705 POINTS
TCL: Setting parameter alchLambda2 to 0.09999999999999969
Info: NONBONDED TABLE R-SQUARED SPACING: 0.0625
Info: NONBONDED TABLE SIZE: 705 POINTS
TCL: Running for 1500000 steps
ETITLE: TS BOND ANGLE DIHED IMPRP ELECT VDW BOUNDARY MISC KINETIC TOTAL TEMP POTENTIAL TOTALAVG TEMPAVG PRESSURE GPRESSURE VOLUME PRESSAVG GPRESSAVG
ENERGY: 0 1.3499 4.9999 5.2316 0.0000 -10534.1452 1410.4410 0.0000 0.0000 1724.9896 -7387.1333 298.0956 -9112.1229 -7387.1333 298.0956 -356.5204 -261.8483 30147.8835 -356.5204 -261.8483
ENERGY: 300000 1.2069 4.6027 4.1747 0.0000 -10483.0365 1317.2631 0.0000 0.0000 1767.7786 -7388.0106 305.4899 -9155.7892 -7384.3968 299.9297 -954.4434 -911.8783 29608.1658 -497.2878 -401.4605
ENERGY: 600000 7.8214 3.6964 6.2391 0.0000 -10586.6413 1470.6692 0.0000 0.0000 1736.1477 -7362.0675 300.0238 -9098.2152 -7339.0482 302.9887 514.3373 498.0496 29238.0273 -168.8596 -98.5260
ENERGY: 900000 1.8924 3.7591 7.9249 0.0000 -10493.2679 1360.6057 0.0000 0.0000 1776.5132 -7342.5726 306.9994 -9119.0858 -7346.3009 302.3089 -482.1918 -350.4251 29361.2660 -192.2050 -119.6409
ENERGY: 1200000 2.4961 2.1509 7.6717 0.0000 -10631.7383 1461.8320 0.0000 0.0000 1765.2413 -7392.3463 305.0515 -9157.5876 -7356.6296 302.5932 -29.6711 -60.9365 29973.4081 -131.6640 -67.7139
ENERGY: 1500000 0.8415 4.2459 6.9060 0.0000 -10523.5469 1445.7416 0.0000 0.0000 1736.1711 -7329.6408 300.0278 -9065.8119 -7345.9884 302.5741 328.1327 392.9483 29744.3502 -190.8643 -125.7772
TCL: Running FEP window  19: Lambda1 0.09999999999999969 Lambda2 0.049999999999999684 [dLambda -0.05 ]
TCL: Setting parameter firsttimestep to 0
TCL: Setting parameter alchLambda to 0.09999999999999969
Info: NONBONDED TABLE R-SQUARED SPACING: 0.0625
Info: NONBONDED TABLE SIZE: 705 POINTS
TCL: Setting parameter alchLambda2 to 0.049999999999999684
Info: NONBONDED TABLE R-SQUARED SPACING: 0.0625
Info: NONBONDED TABLE SIZE: 705 POINTS
TCL: Running for 1500000 steps
ETITLE: TS BOND ANGLE DIHED IMPRP ELECT VDW BOUNDARY MISC KINETIC TOTAL TEMP POTENTIAL TOTALAVG TEMPAVG PRESSURE GPRESSURE VOLUME PRESSAVG GPRESSAVG
ENERGY: 0 0.8414 4.2459 6.9060 0.0000 -10523.5458 1445.9688 0.0000 0.0000 1735.2951 -7330.2884 299.8764 -9065.5836 -7330.2884 299.8764 306.2867 392.5699 29744.3502 306.2867 392.5699
ENERGY: 300000 1.9086 5.1664 4.9515 0.0000 -10637.4143 1494.4317 0.0000 0.0000 1768.1075 -7362.8486 305.5468 -9130.9560 -7377.5453 301.9424 626.1581 747.1929 29471.2684 410.4518 467.6618
ENERGY: 600000 5.8576 3.4496 2.6673 0.0000 -10503.2864 1361.0591 0.0000 0.0000 1775.3465 -7354.9063 306.7977 -9130.2528 -7381.8401 300.0932 -720.3871 -694.2337 29819.2126 156.2312 212.2651
ENERGY: 900000 1.1238 4.1896 5.6595 0.0000 -10549.1109 1449.1010 0.0000 0.0000 1759.3888 -7329.6482 304.0401 -9089.0370 -7356.3724 300.9650 102.6086 180.0141 30133.1054 201.0157 256.5381
ENERGY: 1200000 1.1155 5.7359 2.6281 0.0000 -10523.2373 1391.9977 0.0000 0.0000 1751.6015 -7370.1587 302.6944 -9121.7602 -7357.9364 300.8413 -316.0425 -266.4088 30087.5716 100.1081 154.6753
ENERGY: 1500000 3.1121 3.2885 3.1530 0.0000 -10402.1595 1370.1690 0.0000 0.0000 1734.0397 -7288.3972 299.6595 -9022.4368 -7352.7806 301.0629 -181.8817 -120.0101 29679.1061 55.4320 108.3252
TCL: Running FEP window  20: Lambda1 0.049999999999999684 Lambda2 0.0    [dLambda -0.049999999999999684]
TCL: Setting parameter firsttimestep to 0
TCL: Setting parameter alchLambda to 0.049999999999999684
Info: NONBONDED TABLE R-SQUARED SPACING: 0.0625
Info: NONBONDED TABLE SIZE: 705 POINTS
TCL: Setting parameter alchLambda2 to 0.0
Info: NONBONDED TABLE R-SQUARED SPACING: 0.0625
Info: NONBONDED TABLE SIZE: 705 POINTS
TCL: Running for 1500000 steps
ETITLE: TS BOND ANGLE DIHED IMPRP ELECT VDW BOUNDARY MISC KINETIC TOTAL TEMP POTENTIAL TOTALAVG TEMPAVG PRESSURE GPRESSURE VOLUME PRESSAVG GPRESSAVG
ENERGY: 0 3.1121 3.2885 3.1530 0.0000 -10402.1581 1370.1021 0.0000 0.0000 1733.1906 -7289.3117 299.5128 -9022.5024 -7289.3117 299.5128 -227.8127 -123.8388 29679.1061 -227.8127 -123.8388
ENERGY: 300000 1.3859 3.1999 7.0821 0.0000 -10545.6692 1447.4909 0.0000 0.0000 1740.8186 -7345.6918 300.8310 -9086.5104 -7328.6174 300.3695 354.4610 359.2952 29505.8140 243.3589 294.4215
ENERGY: 600000 4.1864 5.6082 10.0980 0.0000 -10372.9887 1303.1719 0.0000 0.0000 1661.2861 -7388.6381 287.0870 -9049.9242 -7351.3638 297.7774 -1347.7650 -1249.2932 30259.6023 -125.7292 -76.9958
ENERGY: 900000 1.4700 3.7974 4.4050 0.0000 -10536.6417 1411.0104 0.0000 0.0000 1668.1583 -7447.8006 288.2745 -9115.9589 -7351.6058 298.4143 -252.0490 -194.7846 29954.0838 -69.4037 -11.5003
ENERGY: 1200000 0.9116 3.4556 5.4056 0.0000 -10538.3888 1390.5145 0.0000 0.0000 1694.6668 -7443.4347 292.8555 -9138.1015 -7358.1171 298.8132 -601.9916 -542.6195 29853.8682 -48.8235 8.7922
ENERGY: 1500000 1.3475 3.9175 4.5843 0.0000 -10568.0490 1412.8853 0.0000 0.0000 1731.9229 -7413.3915 299.2937 -9145.3144 -7358.9547 299.8819 -345.9572 -239.6423 29713.0745 -136.3826 -76.8541
TCL: Exiting due to exit command.
