Info: SIMULATION PARAMETERS:
Info: TIMESTEP               2
Info: NUMBER OF STEPS        0
Info: STEPS PER CYCLE        10
Info: PERIODIC CELL BASIS 1  30.2458 0 0
Info: PERIODIC CELL BASIS 2  0 31.6357 0
Info: PERIODIC CELL BASIS 3  0 0 31.7038
Info: PERIODIC CELL CENTER   0 0 0
Info: WRAPPING WATERS AROUND PERIODIC BOUNDARIES ON OUTPUT.
Info: WRAPPING ALL CLUSTERS AROUND PERIODIC BOUNDARIES ON OUTPUT.
Info: FIRST LDB TIMESTEP     50
Info: LAST LDB TIMESTEP     -1
Info: HOM BACKGROUND SCALING 1
Info: PME BACKGROUND SCALING 1
Info: MIN ATOMS PER PATCH    40
Info: EMPTY PATCH LOAD       40 ATOMS
Info: VELOCITY FILE          mobley_627267_equil.vel
Info: CENTER OF MASS MOVING INITIALLY? NO
Info: DIELECTRIC             1
Info: EXCLUDE                SCALED ONE-FOUR
Info: 1-4 ELECTROSTATICS SCALED BY 0.833333
Info: MODIFIED 1-4 VDW PARAMETERS WILL BE USED
Info: DCD FILENAME           mobley_627267_prod.dcd
Info: DCD FREQUENCY          100000
Info: DCD FIRST STEP         100000
Info: DCD FILE WILL CONTAIN UNIT CELL DATA
Info: XST FILENAME           mobley_627267_prod.xst
Info: XST FREQUENCY          100000
Info: NO VELOCITY DCD OUTPUT
Info: NO FORCE DCD OUTPUT
Info: OUTPUT FILENAME        mobley_627267_prod
Info: BINARY OUTPUT FILES WILL BE USED
Info: RESTART FILENAME       mobley_627267_prod.restart
Info: RESTART FREQUENCY      100000
Info: BINARY RESTART FILES WILL BE USED
Info: CUTOFF                 9
Info: PAIRLIST DISTANCE      11
Info: PAIRLIST SHRINK RATE   0.01
Info: PAIRLIST GROW RATE     0.01
Info: PAIRLIST TRIGGER       0.3
Info: PAIRLISTS PER CYCLE    2
Info: PAIRLISTS ENABLED
Info: MARGIN                 2
Info: HYDROGEN GROUP CUTOFF  2.5
Info: PATCH DIMENSION        15.5
Info: ENERGY OUTPUT STEPS    100000
Info: ENERGY EVALUATION STEPS    100000
Info: OUTPUT ENERGY PRECISION 4
Info: CROSSTERM ENERGY INCLUDED IN DIHEDRAL
Info: TIMING OUTPUT STEPS    1000000
Info: PRESSURE OUTPUT STEPS  100000
Info: ALCHEMICAL FEP ON
Info: FEP CURRENT LAMBDA VALUE     0
Info: FEP COMPARISON LAMBDA VALUE  0.05
Info: FEP INTRA-ALCHEMICAL NON-BONDED INTERACTIONS WILL BE RETAINED
Info: FEP INTRA-ALCHEMICAL BONDED INTERACTIONS WILL BE RETAINED
Info: FEP VDW SHIFTING COEFFICIENT 5
Info: FEP ELEC. ACTIVE FOR ANNIHILATED PARTICLES BETWEEN LAMBDA = 0 AND LAMBDA = 0.5
Info: FEP ELEC. ACTIVE FOR EXNIHILATED PARTICLES BETWEEN LAMBDA = 0.5 AND LAMBDA = 1
Info: FEP VDW ACTIVE FOR ANNIHILATED PARTICLES BETWEEN LAMBDA = 0 AND LAMBDA = 1
Info: FEP VDW ACTIVE FOR EXNIHILATED PARTICLES BETWEEN LAMBDA = 0 AND LAMBDA = 1
Info: FEP BOND ACTIVE FOR ANNIHILATED PARTICLES BETWEEN LAMBDA = 1 AND LAMBDA = 1
Info: FEP BOND ACTIVE FOR EXNIHILATED PARTICLES BETWEEN LAMBDA = 0 AND LAMBDA = 0
Info: LANGEVIN DYNAMICS ACTIVE
Info: LANGEVIN TEMPERATURE   300
Info: LANGEVIN USING BBK INTEGRATOR
Info: LANGEVIN DAMPING COEFFICIENT IS 1 INVERSE PS
Info: LANGEVIN DYNAMICS APPLIED TO HYDROGENS
Info: LANGEVIN PISTON PRESSURE CONTROL ACTIVE
Info:        TARGET PRESSURE IS 1.01325 BAR
Info:     OSCILLATION PERIOD IS 50 FS
Info:             DECAY TIME IS 25 FS
Info:     PISTON TEMPERATURE IS 300 K
Info:       PRESSURE CONTROL IS GROUP-BASED
Info:    INITIAL STRAIN RATE IS -0.000353648 -0.000353648 -0.000353648
Info:       CELL FLUCTUATION IS ISOTROPIC
Info: PARTICLE MESH EWALD (PME) ACTIVE
Info: PME TOLERANCE               1e-06
Info: PME EWALD COEFFICIENT       0.348832
Info: PME INTERPOLATION ORDER     4
Info: PME GRID DIMENSIONS         32 32 32
Info: PME MAXIMUM GRID SPACING    1
Info: PME CALCULATION WILL BE PERFORMED ON GPU
Info: FULL ELECTROSTATIC EVALUATION FREQUENCY      2
Info: USING VERLET I (r-RESPA) MTS SCHEME.
Info: C1 SPLITTING OF LONG RANGE ELECTROSTATICS
Info: PLACING ATOMS IN PATCHES BY HYDROGEN GROUPS
Info: RIGID BONDS TO HYDROGEN : ALL
Info:         ERROR TOLERANCE : 1e-08
Info:          MAX ITERATIONS : 100
Info: RIGID WATER USING SETTLE ALGORITHM
Info: RANDOM NUMBER SEED     1743741229
Info: USE HYDROGEN BONDS?    NO
Info: Using AMBER format force field!
Info: AMBER PARM FILE        mobley_627267.prmtop
Info: COORDINATE PDB         mobley_627267.pdb
Info: Exclusions will be read from PARM file!
Info: SCNB (VDW SCALING)     2
Info: USING ARITHMETIC MEAN TO COMBINE L-J SIGMA PARAMETERS
Info: BINARY COORDINATES     mobley_627267_equil.coor
Info: SUMMARY OF PARAMETERS:
Info: 6 BONDS
Info: 7 ANGLES
Info:   7 HARMONIC
Info:   0 COSINE-BASED
Info: 5 DIHEDRAL
Info: 0 IMPROPER
Info: 0 CROSSTERM
Info: 0 VDW
Info: 21 VDW_PAIRS
Info: 0 NBTHOLE_PAIRS
Info: To read alchdata from file: mobley_627267.pdb
Info: To read alchflag data from column: 5
Info: STRUCTURE SUMMARY:
Info: 2945 ATOMS
Info: 2944 BONDS
Info: 24 ANGLES
Info: 28 DIHEDRALS
Info: 0 IMPROPERS
Info: 0 CROSSTERMS
Info: 2995 EXCLUSIONS
Info: 2940 RIGID BONDS
Info: ALCH: 0 ATOMS TO DISAPPEAR IN FINAL STATE
Info: ALCH: 14 ATOMS TO APPEAR IN FINAL STATE
Info: 5895 DEGREES OF FREEDOM
Info: 982 HYDROGEN GROUPS
Info: 4 ATOMS IN LARGEST HYDROGEN GROUP
Info: 982 MIGRATION GROUPS
Info: 4 ATOMS IN LARGEST MIGRATION GROUP
Info: TOTAL MASS = 17738.6 amu
Info: TOTAL CHARGE = 0.000100003 e
Info: MASS DENSITY = 0.971016 g/cm^3
Info: ATOM DENSITY = 0.0970805 atoms/A^3
Info: ADDED 0 IMPLICIT EXCLUSIONS
Info: NONBONDED TABLE R-SQUARED SPACING: 0.0625
Info: NONBONDED TABLE SIZE: 705 POINTS
Info: REMOVING COM VELOCITY 0.0402187 -0.219785 -0.0101486
Info: Use 3D box decompostion in PME FFT.
Info: Updated CUDA force table with 4096 elements.
Info: Updated CUDA LJ table with 6 x 6 elements.
Info: Found 17 unique exclusion lists needing 36 bytes
TCL: Running for 1500000 steps
ETITLE: TS BOND ANGLE DIHED IMPRP ELECT VDW BOUNDARY MISC KINETIC TOTAL TEMP POTENTIAL TOTALAVG TEMPAVG PRESSURE GPRESSURE VOLUME PRESSAVG GPRESSAVG
ENERGY: 0 1.4209 5.9997 0.4068 0.0000 -10738.7529 1492.5232 0.0000 0.0000 1791.2423 -7447.1600 305.8165 -9238.4023 -7447.1600 305.8165 408.3258 491.8635 30335.6608 408.3258 491.8635
ENERGY: 300000 2.9894 4.5522 1.4718 0.0000 -10717.7593 1462.6746 0.0000 0.0000 1812.1665 -7433.9047 309.3889 -9246.0712 -7469.8779 301.1646 253.5123 220.8487 29927.6910 80.8745 153.5807
ENERGY: 600000 2.6579 4.2298 1.0312 0.0000 -10661.2312 1514.1079 0.0000 0.0000 1756.0371 -7383.1672 299.8060 -9139.2043 -7433.6951 301.4395 853.7503 938.0087 30205.6585 54.9150 133.4631
ENERGY: 900000 0.6109 6.1398 1.5948 0.0000 -10604.2194 1385.0717 0.0000 0.0000 1790.5233 -7420.2790 305.6937 -9210.8023 -7436.5488 302.1813 -319.3427 -280.8042 30449.0292 19.9072 86.9182
ENERGY: 1200000 0.3136 4.9008 1.3271 0.0000 -10770.3872 1500.6959 0.0000 0.0000 1752.6833 -7510.4665 299.2334 -9263.1498 -7444.5748 301.9472 274.0865 337.1713 30281.5999 111.1663 181.0281
ENERGY: 1500000 1.1045 6.1315 2.7541 0.0000 -10780.4289 1458.6991 0.0000 0.0000 1770.0532 -7541.6865 302.1989 -9311.7397 -7450.6132 302.1199 -326.3656 -218.7846 30650.9825 2.2419 80.8349
TCL: Running FEP window   2: Lambda1 0.05   Lambda2 0.1    [dLambda 0.05  ]
TCL: Setting parameter firsttimestep to 0
TCL: Setting parameter alchLambda to 0.05
Info: NONBONDED TABLE R-SQUARED SPACING: 0.0625
Info: NONBONDED TABLE SIZE: 705 POINTS
TCL: Setting parameter alchLambda2 to 0.1
Info: NONBONDED TABLE R-SQUARED SPACING: 0.0625
Info: NONBONDED TABLE SIZE: 705 POINTS
TCL: Running for 1500000 steps
ETITLE: TS BOND ANGLE DIHED IMPRP ELECT VDW BOUNDARY MISC KINETIC TOTAL TEMP POTENTIAL TOTALAVG TEMPAVG PRESSURE GPRESSURE VOLUME PRESSAVG GPRESSAVG
ENERGY: 0 1.1045 6.1315 2.7541 0.0000 -10780.4286 1461.9531 0.0000 0.0000 1769.1782 -7539.3072 302.0495 -9308.4854 -7539.3072 302.0495 -290.7432 -209.9128 30650.9825 -290.7432 -209.9128
ENERGY: 300000 0.5229 5.9185 0.3538 0.0000 -10561.4201 1360.1229 0.0000 0.0000 1737.1539 -7457.3481 296.5821 -9194.5020 -7468.7610 299.4545 -710.1649 -664.5118 30459.0836 -486.6083 -431.3070
ENERGY: 600000 2.0392 5.7563 0.6927 0.0000 -10524.3110 1327.9167 0.0000 0.0000 1742.5523 -7445.3538 297.5037 -9187.9061 -7460.5547 299.7908 -776.8099 -720.4609 30291.6421 -367.2439 -318.4645
ENERGY: 900000 0.1300 5.5202 1.4900 0.0000 -10701.0182 1517.1643 0.0000 0.0000 1755.2144 -7421.4993 299.6655 -9176.7137 -7467.9522 298.4413 871.3498 941.9271 30217.4316 -105.8508 -55.9253
ENERGY: 1200000 1.9416 5.7413 1.6966 0.0000 -10708.7271 1510.3826 0.0000 0.0000 1766.9145 -7422.0506 301.6630 -9188.9650 -7466.1577 299.6571 360.1741 441.6200 30324.0311 -38.6531 17.6129
ENERGY: 1500000 1.0640 4.4724 1.8781 0.0000 -10915.9298 1602.3372 0.0000 0.0000 1767.8765 -7538.3015 301.8273 -9306.1780 -7479.2764 299.0116 1094.5988 1115.1419 29980.2915 34.4702 88.2536
TCL: Running FEP window   3: Lambda1 0.1    Lambda2 0.15000000000000002 [dLambda 0.05000000000000002]
TCL: Setting parameter firsttimestep to 0
TCL: Setting parameter alchLambda to 0.1
Info: NONBONDED TABLE R-SQUARED SPACING: 0.0625
Info: NONBONDED TABLE SIZE: 705 POINTS
TCL: Setting parameter alchLambda2 to 0.15000000000000002
Info: NONBONDED TABLE R-SQUARED SPACING: 0.0625
Info: NONBONDED TABLE SIZE: 705 POINTS
TCL: Running for 1500000 steps
ETITLE: TS BOND ANGLE DIHED IMPRP ELECT VDW BOUNDARY MISC KINETIC TOTAL TEMP POTENTIAL TOTALAVG TEMPAVG PRESSURE GPRESSURE VOLUME PRESSAVG GPRESSAVG
ENERGY: 0 1.0640 4.4724 1.8781 0.0000 -10915.9307 1602.9265 0.0000 0.0000 1767.0100 -7538.5797 301.6793 -9305.5897 -7538.5797 301.6793 1036.8039 1121.4039 29980.2915 1036.8039 1121.4039
ENERGY: 300000 0.5895 6.8430 1.4456 0.0000 -10737.6413 1482.5864 0.0000 0.0000 1809.9542 -7436.2225 309.0112 -9246.1768 -7492.6697 298.7746 459.7805 512.3645 29927.7076 111.4436 146.0156
ENERGY: 600000 3.2601 5.4808 1.0147 0.0000 -10719.8839 1540.6699 0.0000 0.0000 1739.1698 -7430.2886 296.9262 -9169.4585 -7483.2952 296.2529 604.5422 721.7771 30274.6234 181.4061 232.9955
ENERGY: 900000 2.0718 7.4897 2.3580 0.0000 -10613.2285 1446.5698 0.0000 0.0000 1752.8381 -7401.9012 299.2598 -9154.7393 -7478.6014 296.4106 350.9181 399.7585 30086.0747 124.0684 175.1138
ENERGY: 1200000 1.8238 5.1454 1.5563 0.0000 -10501.6914 1352.3933 0.0000 0.0000 1728.4468 -7412.3257 295.0955 -9140.7725 -7466.8981 297.5778 -743.8128 -649.1177 30590.3675 -34.4139 24.5479
ENERGY: 1500000 0.6451 6.9424 2.8230 0.0000 -10665.2217 1442.1002 0.0000 0.0000 1695.0875 -7517.6236 289.4001 -9212.7111 -7470.3525 296.8429 -29.1491 -15.3448 30235.0004 -10.1171 46.1901
TCL: Running FEP window   4: Lambda1 0.15000000000000002 Lambda2 0.2    [dLambda 0.04999999999999999]
TCL: Setting parameter firsttimestep to 0
TCL: Setting parameter alchLambda to 0.15000000000000002
Info: NONBONDED TABLE R-SQUARED SPACING: 0.0625
Info: NONBONDED TABLE SIZE: 705 POINTS
TCL: Setting parameter alchLambda2 to 0.2
Info: NONBONDED TABLE R-SQUARED SPACING: 0.0625
Info: NONBONDED TABLE SIZE: 705 POINTS
TCL: Running for 1500000 steps
ETITLE: TS BOND ANGLE DIHED IMPRP ELECT VDW BOUNDARY MISC KINETIC TOTAL TEMP POTENTIAL TOTALAVG TEMPAVG PRESSURE GPRESSURE VOLUME PRESSAVG GPRESSAVG
ENERGY: 0 0.6451 6.9424 2.8230 0.0000 -10665.2220 1443.1690 0.0000 0.0000 1694.2058 -7517.4367 289.2496 -9211.6426 -7517.4367 289.2496 -93.3843 -7.7954 30235.0004 -93.3843 -7.7954
ENERGY: 300000 0.9058 3.8873 1.8129 0.0000 -10680.6029 1426.4342 0.0000 0.0000 1729.8761 -7517.6866 295.3395 -9247.5627 -7478.8264 297.1615 -68.5417 -2.5020 30171.1784 -139.0313 -66.5439
ENERGY: 600000 1.3177 6.0219 1.2501 0.0000 -10682.9417 1412.4289 0.0000 0.0000 1756.6568 -7505.2664 299.9118 -9261.9232 -7500.9887 298.3528 -207.7397 -53.6391 29802.9108 -6.7188 79.5078
ENERGY: 900000 2.7434 6.1703 1.4709 0.0000 -10570.9298 1393.1965 0.0000 0.0000 1729.1593 -7438.1894 295.2171 -9167.3488 -7483.5092 299.4713 90.7639 145.1542 29920.7705 -6.0058 74.3789
ENERGY: 1200000 1.0425 10.7275 0.5322 0.0000 -10685.6589 1460.1935 0.0000 0.0000 1744.8933 -7468.2698 297.9034 -9213.1631 -7469.4293 299.7181 175.8504 217.1157 30336.6585 57.5844 129.3669
ENERGY: 1500000 1.7979 6.9307 0.5440 0.0000 -10783.9341 1473.8109 0.0000 0.0000 1767.8050 -7533.0457 301.8151 -9300.8507 -7472.9295 299.7034 -197.0505 -143.6500 30257.8945 -18.0635 48.3492
TCL: Running FEP window   5: Lambda1 0.2    Lambda2 0.25   [dLambda 0.04999999999999999]
TCL: Setting parameter firsttimestep to 0
TCL: Setting parameter alchLambda to 0.2
Info: NONBONDED TABLE R-SQUARED SPACING: 0.0625
Info: NONBONDED TABLE SIZE: 705 POINTS
TCL: Setting parameter alchLambda2 to 0.25
Info: NONBONDED TABLE R-SQUARED SPACING: 0.0625
Info: NONBONDED TABLE SIZE: 705 POINTS
TCL: Running for 1500000 steps
ETITLE: TS BOND ANGLE DIHED IMPRP ELECT VDW BOUNDARY MISC KINETIC TOTAL TEMP POTENTIAL TOTALAVG TEMPAVG PRESSURE GPRESSURE VOLUME PRESSAVG GPRESSAVG
ENERGY: 0 1.7979 6.9307 0.5440 0.0000 -10783.9361 1475.5569 0.0000 0.0000 1766.8737 -7532.2329 301.6561 -9299.1067 -7532.2329 301.6561 -218.3086 -132.1570 30257.8945 -218.3086 -132.1570
ENERGY: 300000 0.8923 7.5887 1.1402 0.0000 -10617.5259 1358.6127 0.0000 0.0000 1712.9724 -7536.3196 292.4536 -9249.2920 -7492.9073 298.1522 -983.6083 -942.6507 30787.5775 -190.9728 -125.1620
ENERGY: 600000 1.8063 6.7821 2.8212 0.0000 -10596.6745 1436.6610 0.0000 0.0000 1719.9324 -7428.6715 293.6418 -9148.6039 -7456.3189 299.0903 240.3599 303.7715 30339.5873 -143.3761 -79.1556
ENERGY: 900000 0.3978 8.0542 2.8543 0.0000 -10605.0896 1384.4376 0.0000 0.0000 1724.8718 -7484.4740 294.4852 -9209.3458 -7446.4177 299.2657 -537.7775 -467.7442 30397.0219 -166.6109 -110.6909
ENERGY: 1200000 0.2360 4.8162 2.0409 0.0000 -10524.8548 1280.8136 0.0000 0.0000 1766.7573 -7470.1908 301.6362 -9236.9481 -7442.5845 299.8691 -1296.4555 -1242.4020 30627.8027 -178.0988 -118.5945
ENERGY: 1500000 0.6275 8.5317 1.6484 0.0000 -10605.9855 1378.0469 0.0000 0.0000 1837.4331 -7379.6979 313.7026 -9217.1310 -7432.5052 301.2250 -509.5113 -455.8627 30670.9280 -190.1734 -130.1970
TCL: Running FEP window   6: Lambda1 0.25   Lambda2 0.3    [dLambda 0.04999999999999999]
TCL: Setting parameter firsttimestep to 0
TCL: Setting parameter alchLambda to 0.25
Info: NONBONDED TABLE R-SQUARED SPACING: 0.0625
Info: NONBONDED TABLE SIZE: 705 POINTS
TCL: Setting parameter alchLambda2 to 0.3
Info: NONBONDED TABLE R-SQUARED SPACING: 0.0625
Info: NONBONDED TABLE SIZE: 705 POINTS
TCL: Running for 1500000 steps
ETITLE: TS BOND ANGLE DIHED IMPRP ELECT VDW BOUNDARY MISC KINETIC TOTAL TEMP POTENTIAL TOTALAVG TEMPAVG PRESSURE GPRESSURE VOLUME PRESSAVG GPRESSAVG
ENERGY: 0 0.6275 8.5317 1.6484 0.0000 -10605.9868 1378.1403 0.0000 0.0000 1836.5759 -7380.4630 313.5562 -9217.0390 -7380.4630 313.5562 -544.7446 -454.6224 30670.9280 -544.7446 -454.6224
ENERGY: 300000 0.8967 5.5230 1.5326 0.0000 -10720.5811 1508.1576 0.0000 0.0000 1763.5808 -7440.8906 301.0939 -9204.4714 -7415.4325 304.2803 479.5409 443.1371 30568.9018 -51.5095 -19.2854
ENERGY: 600000 0.3523 5.4376 1.7218 0.0000 -10666.4375 1435.8271 0.0000 0.0000 1698.3593 -7524.7393 289.9587 -9223.0986 -7436.7288 301.2976 -127.4605 -14.3100 30596.3893 -137.0775 -84.7498
ENERGY: 900000 1.9610 7.2779 2.5335 0.0000 -10660.6245 1398.0618 0.0000 0.0000 1754.8002 -7495.9901 299.5948 -9250.7903 -7465.2036 299.9251 -476.0182 -385.9831 30345.2056 -148.9009 -88.5707
ENERGY: 1200000 1.0340 2.8644 0.3946 0.0000 -10749.3640 1417.3075 0.0000 0.0000 1772.7857 -7554.9779 302.6654 -9327.7635 -7477.3252 300.3642 -211.3541 -107.5451 29536.6193 -139.3769 -77.4245
ENERGY: 1500000 2.0285 6.2919 1.0486 0.0000 -10690.5621 1463.3904 0.0000 0.0000 1790.4033 -7427.3994 305.6732 -9217.8026 -7472.6853 300.5964 94.2654 195.6222 30419.8539 -43.2343 15.8047
TCL: Running FEP window   7: Lambda1 0.3    Lambda2 0.35   [dLambda 0.04999999999999999]
TCL: Setting parameter firsttimestep to 0
TCL: Setting parameter alchLambda to 0.3
Info: NONBONDED TABLE R-SQUARED SPACING: 0.0625
Info: NONBONDED TABLE SIZE: 705 POINTS
TCL: Setting parameter alchLambda2 to 0.35
Info: NONBONDED TABLE R-SQUARED SPACING: 0.0625
Info: NONBONDED TABLE SIZE: 705 POINTS
TCL: Running for 1500000 steps
ETITLE: TS BOND ANGLE DIHED IMPRP ELECT VDW BOUNDARY MISC KINETIC TOTAL TEMP POTENTIAL TOTALAVG TEMPAVG PRESSURE GPRESSURE VOLUME PRESSAVG GPRESSAVG
ENERGY: 0 2.0285 6.2919 1.0486 0.0000 -10690.5634 1463.9383 0.0000 0.0000 1789.5597 -7427.6964 305.5292 -9217.2561 -7427.6964 305.5292 126.2776 204.4528 30419.8539 126.2776 204.4528
ENERGY: 300000 2.5175 4.8630 1.2896 0.0000 -10724.2438 1462.0184 0.0000 0.0000 1709.9978 -7543.5575 291.9457 -9253.5553 -7483.9267 299.5309 -16.5260 111.0507 30161.7819 -141.5324 -74.2999
ENERGY: 600000 0.4907 8.6430 0.6439 0.0000 -10709.6632 1517.4597 0.0000 0.0000 1769.8396 -7412.5863 302.1624 -9182.4259 -7471.5413 300.7383 660.2724 845.6240 30024.1897 64.2864 135.7877
ENERGY: 900000 1.2051 6.9492 1.2841 0.0000 -10931.6956 1567.7166 0.0000 0.0000 1752.6722 -7601.8684 299.2315 -9354.5406 -7480.8935 300.3301 736.8864 802.4814 29986.8993 119.4692 184.6432
ENERGY: 1200000 1.6165 5.9361 0.4821 0.0000 -10591.8821 1416.4242 0.0000 0.0000 1813.4482 -7353.9749 309.6077 -9167.4231 -7459.8952 301.3683 -292.6148 -267.1824 30891.2731 -67.8220 -6.0064
ENERGY: 1500000 0.6227 3.7137 1.0248 0.0000 -10754.4519 1488.1168 0.0000 0.0000 1773.8635 -7487.1105 302.8494 -9260.9739 -7462.1637 301.1131 272.3363 278.7350 30351.8160 -35.0810 18.9415
TCL: Running FEP window   8: Lambda1 0.35   Lambda2 0.39999999999999997 [dLambda 0.04999999999999999]
TCL: Setting parameter firsttimestep to 0
TCL: Setting parameter alchLambda to 0.35
Info: NONBONDED TABLE R-SQUARED SPACING: 0.0625
Info: NONBONDED TABLE SIZE: 705 POINTS
TCL: Setting parameter alchLambda2 to 0.39999999999999997
Info: NONBONDED TABLE R-SQUARED SPACING: 0.0625
Info: NONBONDED TABLE SIZE: 705 POINTS
TCL: Running for 1500000 steps
ETITLE: TS BOND ANGLE DIHED IMPRP ELECT VDW BOUNDARY MISC KINETIC TOTAL TEMP POTENTIAL TOTALAVG TEMPAVG PRESSURE GPRESSURE VOLUME PRESSAVG GPRESSAVG
ENERGY: 0 0.6227 3.7137 1.0248 0.0000 -10754.4509 1488.3698 0.0000 0.0000 1773.0164 -7487.7035 302.7048 -9260.7199 -7487.7035 302.7048 207.2388 283.3885 30351.8160 207.2388 283.3885
ENERGY: 300000 1.3717 5.8459 1.6532 0.0000 -10511.5371 1375.4286 0.0000 0.0000 1746.2871 -7380.9506 298.1414 -9127.2377 -7461.7904 299.9765 -357.4886 -361.9877 30810.1275 73.3557 115.7846
ENERGY: 600000 1.5110 8.6878 4.0053 0.0000 -10647.1317 1404.2713 0.0000 0.0000 1739.9791 -7488.6772 297.0644 -9228.6563 -7467.2126 299.0250 -544.9346 -417.4999 30560.6691 20.7188 79.2707
ENERGY: 900000 0.7788 9.1156 2.6526 0.0000 -10807.7146 1527.3304 0.0000 0.0000 1841.1240 -7426.7131 314.3327 -9267.8372 -7459.9549 300.7726 623.9635 712.0384 30114.8401 -2.5088 55.7322
ENERGY: 1200000 3.3351 3.6370 1.3013 0.0000 -10694.0226 1403.1426 0.0000 0.0000 1748.3347 -7534.2719 298.4909 -9282.6066 -7464.3533 300.5239 -392.1153 -302.0920 30116.5259 15.4735 81.8195
ENERGY: 1500000 2.4366 11.3960 1.5596 0.0000 -10534.9441 1358.9588 0.0000 0.0000 1786.7827 -7373.8103 305.0551 -9160.5930 -7450.0274 301.0486 -686.5944 -633.9353 30877.4775 -48.1404 18.7927
TCL: Running FEP window   9: Lambda1 0.39999999999999997 Lambda2 0.44999999999999996 [dLambda 0.04999999999999999]
TCL: Setting parameter firsttimestep to 0
TCL: Setting parameter alchLambda to 0.39999999999999997
Info: NONBONDED TABLE R-SQUARED SPACING: 0.0625
Info: NONBONDED TABLE SIZE: 705 POINTS
TCL: Setting parameter alchLambda2 to 0.44999999999999996
Info: NONBONDED TABLE R-SQUARED SPACING: 0.0625
Info: NONBONDED TABLE SIZE: 705 POINTS
TCL: Running for 1500000 steps
ETITLE: TS BOND ANGLE DIHED IMPRP ELECT VDW BOUNDARY MISC KINETIC TOTAL TEMP POTENTIAL TOTALAVG TEMPAVG PRESSURE GPRESSURE VOLUME PRESSAVG GPRESSAVG
ENERGY: 0 2.4366 11.3960 1.5596 0.0000 -10534.9430 1359.4409 0.0000 0.0000 1785.8949 -7374.2149 304.9035 -9160.1098 -7374.2149 304.9035 -691.4618 -626.3828 30877.4775 -691.4618 -626.3828
ENERGY: 300000 2.6039 3.4938 1.1265 0.0000 -10724.0067 1500.5699 0.0000 0.0000 1726.7346 -7489.4779 294.8032 -9216.2125 -7419.5874 299.3618 557.0507 595.8691 30219.3596 -358.1077 -325.9547
ENERGY: 600000 0.4555 4.8068 1.4252 0.0000 -10697.2231 1411.0606 0.0000 0.0000 1790.0162 -7489.4588 305.6072 -9279.4750 -7442.9275 300.9155 -152.7677 -65.0717 29983.9551 -269.3743 -213.7333
ENERGY: 900000 1.2936 4.3349 2.7857 0.0000 -10615.8808 1384.8971 0.0000 0.0000 1835.9343 -7386.6352 313.4467 -9222.5695 -7439.4749 302.3668 -373.4970 -382.1335 30236.7376 -136.9563 -86.6732
ENERGY: 1200000 1.9657 8.5123 0.4487 0.0000 -10676.3451 1410.7044 0.0000 0.0000 1780.8374 -7473.8767 304.0401 -9254.7141 -7430.5700 303.2385 -144.5611 -138.3846 30262.9291 -114.7387 -67.9922
ENERGY: 1500000 2.2921 8.2367 1.3700 0.0000 -10691.5841 1435.2596 0.0000 0.0000 1791.2935 -7453.1322 305.8252 -9244.4257 -7441.5726 302.0127 -292.0264 -182.3397 30281.2463 -118.9772 -73.4150
TCL: Running FEP window  10: Lambda1 0.44999999999999996 Lambda2 0.49999999999999994 [dLambda 0.04999999999999999]
TCL: Setting parameter firsttimestep to 0
TCL: Setting parameter alchLambda to 0.44999999999999996
Info: NONBONDED TABLE R-SQUARED SPACING: 0.0625
Info: NONBONDED TABLE SIZE: 705 POINTS
TCL: Setting parameter alchLambda2 to 0.49999999999999994
Info: NONBONDED TABLE R-SQUARED SPACING: 0.0625
Info: NONBONDED TABLE SIZE: 705 POINTS
TCL: Running for 1500000 steps
ETITLE: TS BOND ANGLE DIHED IMPRP ELECT VDW BOUNDARY MISC KINETIC TOTAL TEMP POTENTIAL TOTALAVG TEMPAVG PRESSURE GPRESSURE VOLUME PRESSAVG GPRESSAVG
ENERGY: 0 2.2921 8.2367 1.3700 0.0000 -10691.5836 1434.8050 0.0000 0.0000 1790.3780 -7454.5019 305.6689 -9244.8798 -7454.5019 305.6689 -282.4992 -182.8634 30281.2463 -282.4992 -182.8634
ENERGY: 300000 0.9728 3.5294 1.8644 0.0000 -10682.0996 1470.9725 0.0000 0.0000 1784.8835 -7419.8770 304.7309 -9204.7605 -7394.0492 306.8084 126.9042 192.5411 30508.4368 -143.3547 -54.3944
ENERGY: 600000 1.3122 10.5295 1.4811 0.0000 -10762.7785 1469.1408 0.0000 0.0000 1680.4874 -7599.8274 286.9075 -9280.3149 -7441.6485 301.0298 92.8533 123.5442 30240.4032 43.0256 111.5571
ENERGY: 900000 0.3914 8.6235 1.9087 0.0000 -10576.1148 1442.7470 0.0000 0.0000 1781.0125 -7341.4316 304.0700 -9122.4441 -7429.9531 302.4192 38.8411 70.8949 30715.6654 62.1686 118.2147
ENERGY: 1200000 0.6091 7.1891 1.0489 0.0000 -10573.6139 1351.4331 0.0000 0.0000 1764.9411 -7448.3926 301.3261 -9213.3337 -7450.3628 301.6276 -547.3619 -400.6248 30140.4983 21.7194 90.1467
ENERGY: 1500000 1.4673 8.3584 1.3052 0.0000 -10641.8070 1410.0485 0.0000 0.0000 1744.0365 -7476.5911 297.7571 -9220.6276 -7457.8461 301.0665 -316.6818 -272.7420 30385.2921 -66.6340 2.1791
TCL: Running FEP window  11: Lambda1 0.49999999999999994 Lambda2 0.5499999999999999 [dLambda 0.04999999999999999]
TCL: Setting parameter firsttimestep to 0
TCL: Setting parameter alchLambda to 0.49999999999999994
Info: NONBONDED TABLE R-SQUARED SPACING: 0.0625
Info: NONBONDED TABLE SIZE: 705 POINTS
TCL: Setting parameter alchLambda2 to 0.5499999999999999
Info: NONBONDED TABLE R-SQUARED SPACING: 0.0625
Info: NONBONDED TABLE SIZE: 705 POINTS
TCL: Running for 1500000 steps
ETITLE: TS BOND ANGLE DIHED IMPRP ELECT VDW BOUNDARY MISC KINETIC TOTAL TEMP POTENTIAL TOTALAVG TEMPAVG PRESSURE GPRESSURE VOLUME PRESSAVG GPRESSAVG
ENERGY: 0 1.4673 8.3584 1.3052 0.0000 -10641.8076 1410.6760 0.0000 0.0000 1743.1936 -7476.8071 297.6132 -9220.0007 -7476.8071 297.6132 -348.4050 -264.2227 30385.2921 -348.4050 -264.2227
ENERGY: 300000 2.7724 10.0343 1.9547 0.0000 -10657.5551 1427.1693 0.0000 0.0000 1754.7227 -7460.9017 299.5816 -9215.6244 -7498.5884 298.2714 -279.1420 -231.4930 30804.6635 -275.8078 -226.5420
ENERGY: 600000 1.7710 6.9121 1.3636 0.0000 -10662.1837 1437.4354 0.0000 0.0000 1701.9690 -7512.7326 290.5750 -9214.7016 -7498.4932 295.8738 -24.5383 49.2664 30121.8755 -216.8203 -158.4598
ENERGY: 900000 0.4561 7.4502 0.5885 0.0000 -10607.4828 1415.4438 0.0000 0.0000 1756.9561 -7426.5879 299.9629 -9183.5441 -7476.2363 298.1187 -10.4877 63.8564 30216.8583 -214.4606 -157.1611
ENERGY: 1200000 1.6898 6.3155 1.6784 0.0000 -10776.3458 1488.3517 0.0000 0.0000 1780.9177 -7497.3926 304.0538 -9278.3103 -7476.8654 299.2568 498.1053 555.3595 30017.7273 -10.5709 42.1983
ENERGY: 1500000 1.1358 8.4337 0.6141 0.0000 -10751.1122 1457.1199 0.0000 0.0000 1791.3881 -7492.4206 305.8414 -9283.8087 -7483.8004 299.8860 2.2143 76.6809 30231.3157 13.5201 67.4254
TCL: Running FEP window  12: Lambda1 0.5499999999999999 Lambda2 0.6    [dLambda 0.050000000000000044]
TCL: Setting parameter firsttimestep to 0
TCL: Setting parameter alchLambda to 0.5499999999999999
Info: NONBONDED TABLE R-SQUARED SPACING: 0.0625
Info: NONBONDED TABLE SIZE: 705 POINTS
TCL: Setting parameter alchLambda2 to 0.6
Info: NONBONDED TABLE R-SQUARED SPACING: 0.0625
Info: NONBONDED TABLE SIZE: 705 POINTS
TCL: Running for 1500000 steps
ETITLE: TS BOND ANGLE DIHED IMPRP ELECT VDW BOUNDARY MISC KINETIC TOTAL TEMP POTENTIAL TOTALAVG TEMPAVG PRESSURE GPRESSURE VOLUME PRESSAVG GPRESSAVG
ENERGY: 0 1.1358 8.4337 0.6141 0.0000 -10750.8236 1457.4545 0.0000 0.0000 1790.5086 -7492.6768 305.6912 -9283.1854 -7492.6768 305.6912 7.6095 90.2002 30231.3157 7.6095 90.2002
ENERGY: 300000 1.8221 8.1993 0.9817 0.0000 -10633.9291 1469.6448 0.0000 0.0000 1699.9305 -7453.3507 290.2269 -9153.2811 -7462.8607 301.8277 114.7258 147.5647 30648.5292 108.7003 157.2679
ENERGY: 600000 0.4754 10.3997 1.8911 0.0000 -10579.7810 1355.6367 0.0000 0.0000 1712.2156 -7499.1626 292.3244 -9211.3782 -7470.4147 301.1889 -680.5222 -591.2965 30414.6599 -106.5125 -42.2873
ENERGY: 900000 1.5460 5.0189 1.5930 0.0000 -10766.1798 1500.9192 0.0000 0.0000 1825.8713 -7431.2314 311.7287 -9257.1027 -7473.0472 302.4229 540.2408 579.3668 30027.5098 -89.5771 -17.6135
ENERGY: 1200000 1.9413 7.7925 0.4173 0.0000 -10694.0808 1463.8172 0.0000 0.0000 1700.2582 -7519.8543 290.2829 -9220.1125 -7490.6208 301.2358 135.5289 226.2539 30109.9823 -6.0153 59.9476
ENERGY: 1500000 2.8360 12.8770 0.3162 0.0000 -10732.7760 1471.1479 0.0000 0.0000 1726.5171 -7519.0818 294.7660 -9245.5989 -7490.5778 300.7727 157.1479 169.9416 30202.8494 42.7043 106.7607
TCL: Running FEP window  13: Lambda1 0.6    Lambda2 0.65   [dLambda 0.050000000000000044]
TCL: Setting parameter firsttimestep to 0
TCL: Setting parameter alchLambda to 0.6
Info: NONBONDED TABLE R-SQUARED SPACING: 0.0625
Info: NONBONDED TABLE SIZE: 705 POINTS
TCL: Setting parameter alchLambda2 to 0.65
Info: NONBONDED TABLE R-SQUARED SPACING: 0.0625
Info: NONBONDED TABLE SIZE: 705 POINTS
TCL: Running for 1500000 steps
ETITLE: TS BOND ANGLE DIHED IMPRP ELECT VDW BOUNDARY MISC KINETIC TOTAL TEMP POTENTIAL TOTALAVG TEMPAVG PRESSURE GPRESSURE VOLUME PRESSAVG GPRESSAVG
ENERGY: 0 2.8360 12.8770 0.3162 0.0000 -10732.9504 1471.3621 0.0000 0.0000 1725.6212 -7519.9379 294.6131 -9245.5591 -7519.9379 294.6131 100.6458 177.3092 30202.8494 100.6458 177.3092
ENERGY: 300000 1.5622 5.0105 2.4012 0.0000 -10654.4900 1371.7572 0.0000 0.0000 1772.8133 -7500.9456 302.6701 -9273.7589 -7451.4574 299.7560 -817.8797 -790.1900 30493.3136 120.1835 190.6105
ENERGY: 600000 1.2516 9.0149 1.8330 0.0000 -10653.1862 1418.2724 0.0000 0.0000 1801.9303 -7420.8841 307.6412 -9222.8143 -7467.5438 301.0073 18.7647 35.7900 30321.0594 4.7875 65.5409
ENERGY: 900000 1.9684 6.2290 0.3239 0.0000 -10670.3010 1412.8102 0.0000 0.0000 1766.5450 -7482.4245 301.6000 -9248.9695 -7480.3729 300.4562 65.4177 102.3353 29944.4693 18.8370 84.1586
ENERGY: 1200000 0.5330 7.2285 2.1537 0.0000 -10670.4654 1431.9535 0.0000 0.0000 1772.1016 -7456.4951 302.5486 -9228.5967 -7478.4914 300.3123 186.2918 247.5395 29961.0192 26.0828 89.9707
ENERGY: 1500000 1.7189 8.1634 1.7450 0.0000 -10534.3598 1385.6129 0.0000 0.0000 1768.7960 -7368.3236 301.9843 -9137.1196 -7468.2901 300.8719 -25.5485 73.1703 30174.0088 37.4218 95.2570
TCL: Running FEP window  14: Lambda1 0.65   Lambda2 0.7000000000000001 [dLambda 0.050000000000000044]
TCL: Setting parameter firsttimestep to 0
TCL: Setting parameter alchLambda to 0.65
Info: NONBONDED TABLE R-SQUARED SPACING: 0.0625
Info: NONBONDED TABLE SIZE: 705 POINTS
TCL: Setting parameter alchLambda2 to 0.7000000000000001
Info: NONBONDED TABLE R-SQUARED SPACING: 0.0625
Info: NONBONDED TABLE SIZE: 705 POINTS
TCL: Running for 1500000 steps
ETITLE: TS BOND ANGLE DIHED IMPRP ELECT VDW BOUNDARY MISC KINETIC TOTAL TEMP POTENTIAL TOTALAVG TEMPAVG PRESSURE GPRESSURE VOLUME PRESSAVG GPRESSAVG
ENERGY: 0 1.7189 8.1634 1.7450 0.0000 -10534.2733 1385.5637 0.0000 0.0000 1767.9287 -7369.1536 301.8362 -9137.0823 -7369.1536 301.8362 -3.8948 80.1395 30174.0088 -3.8948 80.1395
ENERGY: 300000 1.0539 5.2140 2.7575 0.0000 -10699.1338 1427.0146 0.0000 0.0000 1773.7673 -7489.3264 302.8330 -9263.0937 -7451.5720 298.3040 -131.0068 -142.4706 30104.5277 -127.6929 -82.3788
ENERGY: 600000 1.5697 7.5048 0.6168 0.0000 -10716.0756 1487.1488 0.0000 0.0000 1729.0714 -7490.1641 295.2021 -9219.2355 -7467.4348 297.3070 564.1130 586.8336 29992.1626 -192.2545 -151.2168
ENERGY: 900000 0.8284 6.5231 1.4583 0.0000 -10748.7944 1521.6694 0.0000 0.0000 1778.5726 -7439.7426 303.6534 -9218.3152 -7450.9230 299.2225 807.9786 857.5224 30054.6144 -174.5599 -127.2868
ENERGY: 1200000 0.5642 9.4967 0.7010 0.0000 -10707.1021 1451.8715 0.0000 0.0000 1854.9902 -7389.4786 316.7001 -9244.4688 -7449.4711 301.2632 273.3242 316.9785 29934.6305 -165.3968 -125.8374
ENERGY: 1500000 1.1542 6.7344 0.2238 0.0000 -10701.2125 1463.2933 0.0000 0.0000 1748.5362 -7481.2704 298.5253 -9229.8066 -7457.8467 300.4487 391.6560 351.7121 30144.8028 -110.3331 -72.3045
TCL: Running FEP window  15: Lambda1 0.7000000000000001 Lambda2 0.7500000000000001 [dLambda 0.050000000000000044]
TCL: Setting parameter firsttimestep to 0
TCL: Setting parameter alchLambda to 0.7000000000000001
Info: NONBONDED TABLE R-SQUARED SPACING: 0.0625
Info: NONBONDED TABLE SIZE: 705 POINTS
TCL: Setting parameter alchLambda2 to 0.7500000000000001
Info: NONBONDED TABLE R-SQUARED SPACING: 0.0625
Info: NONBONDED TABLE SIZE: 705 POINTS
TCL: Running for 1500000 steps
ETITLE: TS BOND ANGLE DIHED IMPRP ELECT VDW BOUNDARY MISC KINETIC TOTAL TEMP POTENTIAL TOTALAVG TEMPAVG PRESSURE GPRESSURE VOLUME PRESSAVG GPRESSAVG
ENERGY: 0 1.1542 6.7344 0.2238 0.0000 -10701.2709 1463.4755 0.0000 0.0000 1747.6608 -7482.0221 298.3759 -9229.6829 -7482.0221 298.3759 269.7257 361.5589 30144.8028 269.7257 361.5589
ENERGY: 300000 0.1026 6.0287 1.2287 0.0000 -10643.3179 1489.9387 0.0000 0.0000 1761.9915 -7384.0278 300.8225 -9146.0192 -7450.2893 301.2464 528.0912 612.9050 30687.0148 374.2414 443.3279
ENERGY: 600000 0.8918 4.7300 1.4924 0.0000 -10738.5115 1513.7052 0.0000 0.0000 1830.6848 -7387.0074 312.5505 -9217.6921 -7475.5070 300.6602 566.0302 620.5530 30307.7300 327.8450 409.7903
ENERGY: 900000 0.6633 10.3687 1.3554 0.0000 -10764.7831 1428.3282 0.0000 0.0000 1745.7781 -7578.2893 298.0545 -9324.0674 -7483.7425 300.8476 -339.8282 -259.6053 30088.0928 129.8834 215.0448
ENERGY: 1200000 0.2079 7.1539 2.5383 0.0000 -10747.8165 1474.2476 0.0000 0.0000 1778.3882 -7485.2807 303.6219 -9263.6689 -7487.4452 301.4507 190.4522 218.6005 30306.1342 153.2820 226.4366
ENERGY: 1500000 0.6224 5.9924 1.4043 0.0000 -10621.4975 1393.0225 0.0000 0.0000 1744.4186 -7476.0373 297.8223 -9220.4559 -7480.5413 301.1347 -377.5113 -302.4578 30448.8587 75.2296 147.1444
TCL: Running FEP window  16: Lambda1 0.7500000000000001 Lambda2 0.8000000000000002 [dLambda 0.050000000000000044]
TCL: Setting parameter firsttimestep to 0
TCL: Setting parameter alchLambda to 0.7500000000000001
Info: NONBONDED TABLE R-SQUARED SPACING: 0.0625
Info: NONBONDED TABLE SIZE: 705 POINTS
TCL: Setting parameter alchLambda2 to 0.8000000000000002
Info: NONBONDED TABLE R-SQUARED SPACING: 0.0625
Info: NONBONDED TABLE SIZE: 705 POINTS
TCL: Running for 1500000 steps
ETITLE: TS BOND ANGLE DIHED IMPRP ELECT VDW BOUNDARY MISC KINETIC TOTAL TEMP POTENTIAL TOTALAVG TEMPAVG PRESSURE GPRESSURE VOLUME PRESSAVG GPRESSAVG
ENERGY: 0 0.6224 5.9924 1.4043 0.0000 -10621.5384 1392.5804 0.0000 0.0000 1743.5618 -7477.3772 297.6761 -9220.9389 -7477.3772 297.6761 -374.7587 -295.2269 30448.8587 -374.7587 -295.2269
ENERGY: 300000 0.9367 5.0092 0.3047 0.0000 -10749.4389 1483.1677 0.0000 0.0000 1774.2349 -7485.7856 302.9129 -9260.0205 -7460.7142 300.2250 594.0062 640.3293 29783.3691 -10.4965 51.0840
ENERGY: 600000 0.7441 4.5246 0.2360 0.0000 -10720.3323 1468.2458 0.0000 0.0000 1697.5340 -7549.0478 289.8178 -9246.5818 -7478.1367 299.0335 -104.9546 -40.9870 30652.4426 -81.8145 -14.6534
ENERGY: 900000 0.5182 6.6439 1.5639 0.0000 -10559.9470 1353.8062 0.0000 0.0000 1798.1646 -7399.2502 306.9983 -9197.4148 -7475.5303 298.5917 -454.2991 -395.8105 30563.9155 -58.9654 13.8514
ENERGY: 1200000 0.9108 6.0979 1.3580 0.0000 -10793.3602 1467.6886 0.0000 0.0000 1754.7622 -7562.5427 299.5883 -9317.3049 -7478.5283 299.3409 -112.4900 -15.3622 30427.6857 -6.8167 63.7218
ENERGY: 1500000 1.7589 4.4080 1.3108 0.0000 -10600.7532 1371.7618 0.0000 0.0000 1738.2259 -7483.2878 296.7651 -9221.5138 -7475.9530 299.6674 -514.9104 -483.5001 30408.1382 -63.8835 -0.2093
TCL: Running FEP window  17: Lambda1 0.8000000000000002 Lambda2 0.8500000000000002 [dLambda 0.050000000000000044]
TCL: Setting parameter firsttimestep to 0
TCL: Setting parameter alchLambda to 0.8000000000000002
Info: NONBONDED TABLE R-SQUARED SPACING: 0.0625
Info: NONBONDED TABLE SIZE: 705 POINTS
TCL: Setting parameter alchLambda2 to 0.8500000000000002
Info: NONBONDED TABLE R-SQUARED SPACING: 0.0625
Info: NONBONDED TABLE SIZE: 705 POINTS
TCL: Running for 1500000 steps
ETITLE: TS BOND ANGLE DIHED IMPRP ELECT VDW BOUNDARY MISC KINETIC TOTAL TEMP POTENTIAL TOTALAVG TEMPAVG PRESSURE GPRESSURE VOLUME PRESSAVG GPRESSAVG
ENERGY: 0 1.7589 4.4080 1.3108 0.0000 -10600.9922 1372.2065 0.0000 0.0000 1737.3339 -7483.9741 296.6128 -9221.3080 -7483.9741 296.6128 -559.3357 -466.3910 30408.1382 -559.3357 -466.3910
ENERGY: 300000 1.8346 8.3657 1.6499 0.0000 -10706.6435 1452.8045 0.0000 0.0000 1792.0839 -7449.9050 305.9602 -9241.9889 -7434.5547 299.1570 -73.0744 -48.9209 30582.1707 2.3316 68.3453
ENERGY: 600000 0.3171 5.9460 1.1663 0.0000 -10652.4089 1446.4604 0.0000 0.0000 1736.6724 -7461.8467 296.4999 -9198.5191 -7445.0461 299.6643 8.7007 15.4329 30483.9365 -46.4101 4.2764
ENERGY: 900000 2.4371 4.1970 1.0652 0.0000 -10741.0405 1478.0169 0.0000 0.0000 1735.4698 -7519.8545 296.2945 -9255.3243 -7481.0169 299.0102 437.1428 517.2335 30001.6409 27.0241 87.3126
ENERGY: 1200000 1.6629 9.1753 0.4850 0.0000 -10745.4047 1519.8243 0.0000 0.0000 1753.6419 -7460.6153 299.3970 -9214.2572 -7471.4657 300.5837 761.3302 827.2462 30191.1278 52.4812 111.2341
ENERGY: 1500000 1.3379 8.8943 2.4598 0.0000 -10623.1990 1399.8131 0.0000 0.0000 1725.4395 -7485.2544 294.5821 -9210.6940 -7479.6570 300.4670 -30.4498 26.5211 29870.1003 68.8698 128.2080
TCL: Running FEP window  18: Lambda1 0.8500000000000002 Lambda2 0.9000000000000002 [dLambda 0.050000000000000044]
TCL: Setting parameter firsttimestep to 0
TCL: Setting parameter alchLambda to 0.8500000000000002
Info: NONBONDED TABLE R-SQUARED SPACING: 0.0625
Info: NONBONDED TABLE SIZE: 705 POINTS
TCL: Setting parameter alchLambda2 to 0.9000000000000002
Info: NONBONDED TABLE R-SQUARED SPACING: 0.0625
Info: NONBONDED TABLE SIZE: 705 POINTS
TCL: Running for 1500000 steps
ETITLE: TS BOND ANGLE DIHED IMPRP ELECT VDW BOUNDARY MISC KINETIC TOTAL TEMP POTENTIAL TOTALAVG TEMPAVG PRESSURE GPRESSURE VOLUME PRESSAVG GPRESSAVG
ENERGY: 0 1.3379 8.8943 2.4598 0.0000 -10623.4762 1399.7494 0.0000 0.0000 1724.6112 -7486.4236 294.4407 -9211.0347 -7486.4236 294.4407 -45.2073 34.1450 29870.1003 -45.2073 34.1450
ENERGY: 300000 0.2349 6.6475 0.8444 0.0000 -10631.6816 1399.9886 0.0000 0.0000 1688.2426 -7535.7235 288.2315 -9223.9661 -7478.9811 295.4124 -396.0041 -345.5267 30669.2472 -86.5014 -23.3335
ENERGY: 600000 0.8564 11.0799 2.2187 0.0000 -10625.6922 1376.9733 0.0000 0.0000 1736.7010 -7497.8629 296.5047 -9234.5640 -7449.0329 299.5829 -538.1469 -446.9496 30467.0814 -11.1949 55.7936
ENERGY: 900000 2.4970 3.5171 0.7038 0.0000 -10539.3466 1379.3786 0.0000 0.0000 1743.8417 -7409.4085 297.7238 -9153.2501 -7465.6027 298.3124 -429.1425 -380.4133 30612.7012 -57.5202 1.2449
ENERGY: 1200000 1.2262 7.7734 1.0984 0.0000 -10569.3893 1353.2432 0.0000 0.0000 1746.6015 -7459.4466 298.1950 -9206.0481 -7459.9984 298.5361 -470.6222 -362.9421 30118.5167 -92.6549 -32.1005
ENERGY: 1500000 2.8933 6.1546 1.2398 0.0000 -10635.4178 1387.2465 0.0000 0.0000 1784.0879 -7453.7956 304.5950 -9237.8836 -7466.2245 299.0520 -476.8409 -436.8144 30715.1253 -71.7322 -5.5531
TCL: Running FEP window  19: Lambda1 0.9000000000000002 Lambda2 0.9500000000000003 [dLambda 0.050000000000000044]
TCL: Setting parameter firsttimestep to 0
TCL: Setting parameter alchLambda to 0.9000000000000002
Info: NONBONDED TABLE R-SQUARED SPACING: 0.0625
Info: NONBONDED TABLE SIZE: 705 POINTS
TCL: Setting parameter alchLambda2 to 0.9500000000000003
Info: NONBONDED TABLE R-SQUARED SPACING: 0.0625
Info: NONBONDED TABLE SIZE: 705 POINTS
TCL: Running for 1500000 steps
ETITLE: TS BOND ANGLE DIHED IMPRP ELECT VDW BOUNDARY MISC KINETIC TOTAL TEMP POTENTIAL TOTALAVG TEMPAVG PRESSURE GPRESSURE VOLUME PRESSAVG GPRESSAVG
ENERGY: 0 2.8933 6.1546 1.2398 0.0000 -10635.6313 1387.4069 0.0000 0.0000 1783.2081 -7454.7286 304.4448 -9237.9366 -7454.7286 304.4448 -508.7877 -428.7354 30715.1253 -508.7877 -428.7354
ENERGY: 300000 2.3523 6.9747 1.0174 0.0000 -10632.1040 1387.5925 0.0000 0.0000 1827.9014 -7406.2657 312.0753 -9234.1671 -7413.2701 308.7476 -147.6475 -188.4917 30234.2942 0.5557 28.5092
ENERGY: 600000 0.5918 5.0262 0.3249 0.0000 -10560.8881 1346.5981 0.0000 0.0000 1744.2237 -7464.1233 297.7891 -9208.3470 -7439.2735 305.3562 -620.0960 -530.3122 30524.0492 -90.6429 -32.7118
ENERGY: 900000 1.4365 6.0705 0.2899 0.0000 -10719.0444 1477.9131 0.0000 0.0000 1787.9969 -7445.3375 305.2624 -9233.3344 -7437.4707 303.9283 420.8646 463.6323 30255.3777 -33.0469 25.2262
ENERGY: 1200000 0.4005 3.9790 2.2994 0.0000 -10658.3494 1389.1181 0.0000 0.0000 1746.6400 -7515.9124 298.2016 -9262.5524 -7443.7308 303.2628 -491.4296 -447.8887 30472.9676 -38.7698 15.8690
ENERGY: 1500000 1.8618 8.6571 1.3120 0.0000 -10645.3272 1455.7532 0.0000 0.0000 1754.7673 -7422.9760 299.5892 -9177.7432 -7449.3987 302.0792 319.5192 371.2554 30141.3024 -20.7148 32.1105
TCL: Running FEP window  20: Lambda1 0.9500000000000003 Lambda2 1.0    [dLambda 0.04999999999999971]
TCL: Setting parameter firsttimestep to 0
TCL: Setting parameter alchLambda to 0.9500000000000003
Info: NONBONDED TABLE R-SQUARED SPACING: 0.0625
Info: NONBONDED TABLE SIZE: 705 POINTS
TCL: Setting parameter alchLambda2 to 1.0
Info: NONBONDED TABLE R-SQUARED SPACING: 0.0625
Info: NONBONDED TABLE SIZE: 705 POINTS
TCL: Running for 1500000 steps
ETITLE: TS BOND ANGLE DIHED IMPRP ELECT VDW BOUNDARY MISC KINETIC TOTAL TEMP POTENTIAL TOTALAVG TEMPAVG PRESSURE GPRESSURE VOLUME PRESSAVG GPRESSAVG
ENERGY: 0 1.8618 8.6571 1.3120 0.0000 -10645.2945 1455.4334 0.0000 0.0000 1753.9102 -7424.1199 299.4428 -9178.0302 -7424.1199 299.4428 291.0816 377.8725 30141.3024 291.0816 377.8725
ENERGY: 300000 1.4259 5.7985 0.3678 0.0000 -10642.1321 1376.5471 0.0000 0.0000 1703.2161 -7554.7767 290.7879 -9257.9928 -7483.7331 298.5075 -719.8664 -644.3381 30624.6207 74.7913 128.6524
ENERGY: 600000 1.3678 5.1956 2.4775 0.0000 -10642.2435 1410.6299 0.0000 0.0000 1766.9853 -7455.5874 301.6751 -9222.5727 -7472.6875 301.2658 -101.4563 -34.8667 30174.6556 -15.0296 38.3823
ENERGY: 900000 0.3203 6.2953 0.9112 0.0000 -10740.2464 1475.1751 0.0000 0.0000 1744.9905 -7512.5539 297.9200 -9257.5444 -7450.1618 302.4768 538.1780 657.4309 29925.3093 67.0646 123.8361
ENERGY: 1200000 3.7374 6.7308 1.6170 0.0000 -10709.0071 1435.0264 0.0000 0.0000 1743.1614 -7518.7341 297.6077 -9261.8956 -7458.0891 302.4024 4.3378 69.8879 30093.0118 71.5924 133.6211
ENERGY: 1500000 1.3441 7.6060 0.9339 0.0000 -10491.7996 1338.5537 0.0000 0.0000 1792.3529 -7351.0090 306.0061 -9143.3619 -7458.1701 301.6648 -657.1000 -669.6616 30971.0010 23.5398 83.7594
TCL: Exiting due to exit command.
