Info: SIMULATION PARAMETERS:
Info: TIMESTEP               2
Info: NUMBER OF STEPS        0
Info: STEPS PER CYCLE        10
Info: PERIODIC CELL BASIS 1  30.6792 0 0
Info: PERIODIC CELL BASIS 2  0 29.5741 0
Info: PERIODIC CELL BASIS 3  0 0 33.1621
Info: PERIODIC CELL CENTER   0 0 0
Info: WRAPPING WATERS AROUND PERIODIC BOUNDARIES ON OUTPUT.
Info: WRAPPING ALL CLUSTERS AROUND PERIODIC BOUNDARIES ON OUTPUT.
Info: FIRST LDB TIMESTEP     50
Info: LAST LDB TIMESTEP     -1
Info: HOM BACKGROUND SCALING 1
Info: PME BACKGROUND SCALING 1
Info: MIN ATOMS PER PATCH    40
Info: EMPTY PATCH LOAD       40 ATOMS
Info: VELOCITY FILE          mobley_7295828_equil.vel
Info: CENTER OF MASS MOVING INITIALLY? NO
Info: DIELECTRIC             1
Info: EXCLUDE                SCALED ONE-FOUR
Info: 1-4 ELECTROSTATICS SCALED BY 0.833333
Info: MODIFIED 1-4 VDW PARAMETERS WILL BE USED
Info: DCD FILENAME           mobley_7295828_prod.dcd
Info: DCD FREQUENCY          100000
Info: DCD FIRST STEP         100000
Info: DCD FILE WILL CONTAIN UNIT CELL DATA
Info: XST FILENAME           mobley_7295828_prod.xst
Info: XST FREQUENCY          100000
Info: NO VELOCITY DCD OUTPUT
Info: NO FORCE DCD OUTPUT
Info: OUTPUT FILENAME        mobley_7295828_prod
Info: BINARY OUTPUT FILES WILL BE USED
Info: RESTART FILENAME       mobley_7295828_prod.restart
Info: RESTART FREQUENCY      100000
Info: BINARY RESTART FILES WILL BE USED
Info: CUTOFF                 9
Info: PAIRLIST DISTANCE      11
Info: PAIRLIST SHRINK RATE   0.01
Info: PAIRLIST GROW RATE     0.01
Info: PAIRLIST TRIGGER       0.3
Info: PAIRLISTS PER CYCLE    2
Info: PAIRLISTS ENABLED
Info: MARGIN                 2
Info: HYDROGEN GROUP CUTOFF  2.5
Info: PATCH DIMENSION        15.5
Info: ENERGY OUTPUT STEPS    100000
Info: ENERGY EVALUATION STEPS    100000
Info: OUTPUT ENERGY PRECISION 4
Info: CROSSTERM ENERGY INCLUDED IN DIHEDRAL
Info: TIMING OUTPUT STEPS    1000000
Info: PRESSURE OUTPUT STEPS  100000
Info: ALCHEMICAL FEP ON
Info: FEP CURRENT LAMBDA VALUE     1
Info: FEP COMPARISON LAMBDA VALUE  0.95
Info: FEP INTRA-ALCHEMICAL NON-BONDED INTERACTIONS WILL BE RETAINED
Info: FEP INTRA-ALCHEMICAL BONDED INTERACTIONS WILL BE RETAINED
Info: FEP VDW SHIFTING COEFFICIENT 5
Info: FEP ELEC. ACTIVE FOR ANNIHILATED PARTICLES BETWEEN LAMBDA = 0 AND LAMBDA = 0.5
Info: FEP ELEC. ACTIVE FOR EXNIHILATED PARTICLES BETWEEN LAMBDA = 0.5 AND LAMBDA = 1
Info: FEP VDW ACTIVE FOR ANNIHILATED PARTICLES BETWEEN LAMBDA = 0 AND LAMBDA = 1
Info: FEP VDW ACTIVE FOR EXNIHILATED PARTICLES BETWEEN LAMBDA = 0 AND LAMBDA = 1
Info: FEP BOND ACTIVE FOR ANNIHILATED PARTICLES BETWEEN LAMBDA = 1 AND LAMBDA = 1
Info: FEP BOND ACTIVE FOR EXNIHILATED PARTICLES BETWEEN LAMBDA = 0 AND LAMBDA = 0
Info: LANGEVIN DYNAMICS ACTIVE
Info: LANGEVIN TEMPERATURE   300
Info: LANGEVIN USING BBK INTEGRATOR
Info: LANGEVIN DAMPING COEFFICIENT IS 1 INVERSE PS
Info: LANGEVIN DYNAMICS APPLIED TO HYDROGENS
Info: LANGEVIN PISTON PRESSURE CONTROL ACTIVE
Info:        TARGET PRESSURE IS 1.01325 BAR
Info:     OSCILLATION PERIOD IS 50 FS
Info:             DECAY TIME IS 25 FS
Info:     PISTON TEMPERATURE IS 300 K
Info:       PRESSURE CONTROL IS GROUP-BASED
Info:    INITIAL STRAIN RATE IS 0.000122567 0.000122567 0.000122567
Info:       CELL FLUCTUATION IS ISOTROPIC
Info: PARTICLE MESH EWALD (PME) ACTIVE
Info: PME TOLERANCE               1e-06
Info: PME EWALD COEFFICIENT       0.348832
Info: PME INTERPOLATION ORDER     4
Info: PME GRID DIMENSIONS         32 32 36
Info: PME MAXIMUM GRID SPACING    1
Info: PME CALCULATION WILL BE PERFORMED ON GPU
Info: FULL ELECTROSTATIC EVALUATION FREQUENCY      2
Info: USING VERLET I (r-RESPA) MTS SCHEME.
Info: C1 SPLITTING OF LONG RANGE ELECTROSTATICS
Info: PLACING ATOMS IN PATCHES BY HYDROGEN GROUPS
Info: RIGID BONDS TO HYDROGEN : ALL
Info:         ERROR TOLERANCE : 1e-08
Info:          MAX ITERATIONS : 100
Info: RIGID WATER USING SETTLE ALGORITHM
Info: RANDOM NUMBER SEED     1743763719
Info: USE HYDROGEN BONDS?    NO
Info: Using AMBER format force field!
Info: AMBER PARM FILE        mobley_7295828.prmtop
Info: COORDINATE PDB         mobley_7295828.pdb
Info: Exclusions will be read from PARM file!
Info: SCNB (VDW SCALING)     2
Info: USING ARITHMETIC MEAN TO COMBINE L-J SIGMA PARAMETERS
Info: BINARY COORDINATES     mobley_7295828_equil.coor
Info: SUMMARY OF PARAMETERS:
Info: 7 BONDS
Info: 6 ANGLES
Info:   6 HARMONIC
Info:   0 COSINE-BASED
Info: 4 DIHEDRAL
Info: 0 IMPROPER
Info: 0 CROSSTERM
Info: 0 VDW
Info: 28 VDW_PAIRS
Info: 0 NBTHOLE_PAIRS
Info: To read alchdata from file: mobley_7295828.pdb
Info: To read alchflag data from column: 5
Info: STRUCTURE SUMMARY:
Info: 2935 ATOMS
Info: 2935 BONDS
Info: 25 ANGLES
Info: 35 DIHEDRALS
Info: 0 IMPROPERS
Info: 0 CROSSTERMS
Info: 2986 EXCLUSIONS
Info: 2927 RIGID BONDS
Info: ALCH: 0 ATOMS TO DISAPPEAR IN FINAL STATE
Info: ALCH: 16 ATOMS TO APPEAR IN FINAL STATE
Info: 5878 DEGREES OF FREEDOM
Info: 981 HYDROGEN GROUPS
Info: 4 ATOMS IN LARGEST HYDROGEN GROUP
Info: 981 MIGRATION GROUPS
Info: 4 ATOMS IN LARGEST MIGRATION GROUP
Info: TOTAL MASS = 17637.7 amu
Info: TOTAL CHARGE = -0.000100031 e
Info: MASS DENSITY = 0.973428 g/cm^3
Info: ATOM DENSITY = 0.0975463 atoms/A^3
Info: ADDED 0 IMPLICIT EXCLUSIONS
Info: NONBONDED TABLE R-SQUARED SPACING: 0.0625
Info: NONBONDED TABLE SIZE: 705 POINTS
Info: REMOVING COM VELOCITY 0.0910198 0.145116 0.189306
Info: Use 3D box decompostion in PME FFT.
Info: Updated CUDA force table with 4096 elements.
Info: Updated CUDA LJ table with 7 x 7 elements.
Info: Found 15 unique exclusion lists needing 36 bytes
TCL: Running for 1500000 steps
ETITLE: TS BOND ANGLE DIHED IMPRP ELECT VDW BOUNDARY MISC KINETIC TOTAL TEMP POTENTIAL TOTALAVG TEMPAVG PRESSURE GPRESSURE VOLUME PRESSAVG GPRESSAVG
ENERGY: 0 2.5863 5.4308 1.2559 0.0000 -10547.2188 1355.5768 0.0000 0.0000 1769.5025 -7412.8665 302.9786 -9182.3690 -7412.8665 302.9786 -340.1610 -262.2936 30088.2885 -340.1610 -262.2936
ENERGY: 300000 1.1701 8.2105 1.0696 0.0000 -10689.3032 1539.8596 0.0000 0.0000 1808.9662 -7330.0271 309.7357 -9138.9933 -7409.7344 303.2914 1118.6325 1134.9721 29946.7973 496.6963 547.8610
ENERGY: 600000 1.6901 9.6570 2.1878 0.0000 -10747.0618 1514.4850 0.0000 0.0000 1790.9217 -7428.1203 306.6461 -9219.0419 -7414.3320 302.6205 730.8810 750.8151 29921.7716 233.5440 289.7283
ENERGY: 900000 2.0742 3.9614 3.7352 0.0000 -10460.6649 1332.7129 0.0000 0.0000 1753.9677 -7364.2134 300.3187 -9118.1811 -7411.4842 302.7826 -779.1366 -709.7083 30619.5009 -9.4009 53.1193
ENERGY: 1200000 1.3302 4.9702 5.8161 0.0000 -10620.1065 1436.1188 0.0000 0.0000 1749.8873 -7421.9839 299.6201 -9171.8712 -7415.8913 301.6605 191.6533 258.9792 30150.5058 5.7580 70.5558
ENERGY: 1500000 2.3877 5.8961 4.7193 0.0000 -10527.8578 1360.3435 0.0000 0.0000 1711.3035 -7443.2077 293.0136 -9154.5112 -7417.5489 301.7879 -664.0100 -621.3642 30726.5000 -46.6823 11.4342
TCL: Running FEP window   2: Lambda1 0.95   Lambda2 0.8999999999999999 [dLambda -0.050000000000000044]
TCL: Setting parameter firsttimestep to 0
TCL: Setting parameter alchLambda to 0.95
Info: NONBONDED TABLE R-SQUARED SPACING: 0.0625
Info: NONBONDED TABLE SIZE: 705 POINTS
TCL: Setting parameter alchLambda2 to 0.8999999999999999
Info: NONBONDED TABLE R-SQUARED SPACING: 0.0625
Info: NONBONDED TABLE SIZE: 705 POINTS
TCL: Running for 1500000 steps
ETITLE: TS BOND ANGLE DIHED IMPRP ELECT VDW BOUNDARY MISC KINETIC TOTAL TEMP POTENTIAL TOTALAVG TEMPAVG PRESSURE GPRESSURE VOLUME PRESSAVG GPRESSAVG
ENERGY: 0 2.3877 5.8961 4.7193 0.0000 -10527.1409 1360.9625 0.0000 0.0000 1710.4667 -7442.7085 292.8704 -9153.1753 -7442.7085 292.8704 -716.8665 -625.4131 30726.5000 -716.8665 -625.4131
ENERGY: 300000 2.0871 5.6962 6.0758 0.0000 -10570.8591 1382.3021 0.0000 0.0000 1713.9185 -7460.7793 293.4614 -9174.6978 -7476.2379 294.5748 -599.9050 -484.2928 30656.8100 -282.7043 -177.0407
ENERGY: 600000 2.2549 5.2272 8.4619 0.0000 -10530.5725 1333.8116 0.0000 0.0000 1726.8407 -7453.9761 295.6740 -9180.8168 -7468.2555 294.4866 -656.7025 -559.4346 30106.9108 -238.8249 -155.7427
ENERGY: 900000 3.2610 4.1603 2.9935 0.0000 -10641.8445 1405.7742 0.0000 0.0000 1713.0238 -7512.6318 293.3082 -9225.6556 -7468.6232 296.1443 -514.5689 -417.0439 30453.0810 -300.2706 -228.6486
ENERGY: 1200000 3.0253 4.7617 8.0303 0.0000 -10554.8339 1414.7679 0.0000 0.0000 1762.4760 -7361.7726 301.7755 -9124.2486 -7453.4419 297.4615 97.7598 140.0076 30172.3248 -183.5541 -120.1993
ENERGY: 1500000 1.9073 3.3872 7.5461 0.0000 -10526.8232 1342.3236 0.0000 0.0000 1750.4635 -7421.1955 299.7187 -9171.6590 -7449.8582 298.2259 -787.9491 -696.6931 30420.9054 -192.2423 -126.5624
TCL: Running FEP window   3: Lambda1 0.8999999999999999 Lambda2 0.8499999999999999 [dLambda -0.050000000000000044]
TCL: Setting parameter firsttimestep to 0
TCL: Setting parameter alchLambda to 0.8999999999999999
Info: NONBONDED TABLE R-SQUARED SPACING: 0.0625
Info: NONBONDED TABLE SIZE: 705 POINTS
TCL: Setting parameter alchLambda2 to 0.8499999999999999
Info: NONBONDED TABLE R-SQUARED SPACING: 0.0625
Info: NONBONDED TABLE SIZE: 705 POINTS
TCL: Running for 1500000 steps
ETITLE: TS BOND ANGLE DIHED IMPRP ELECT VDW BOUNDARY MISC KINETIC TOTAL TEMP POTENTIAL TOTALAVG TEMPAVG PRESSURE GPRESSURE VOLUME PRESSAVG GPRESSAVG
ENERGY: 0 1.9073 3.3872 7.5461 0.0000 -10525.7328 1341.9898 0.0000 0.0000 1749.5920 -7421.3104 299.5695 -9170.9024 -7421.3104 299.5695 -788.5392 -707.1108 30420.9054 -788.5392 -707.1108
ENERGY: 300000 2.6750 3.9410 1.9727 0.0000 -10725.2483 1462.9718 0.0000 0.0000 1737.9211 -7515.7666 297.5712 -9253.6877 -7431.7260 297.5189 220.3762 209.6240 30342.0326 -215.9155 -193.1962
ENERGY: 600000 2.9170 3.1914 4.0067 0.0000 -10440.9476 1293.7958 0.0000 0.0000 1761.3825 -7375.6542 301.5883 -9137.0367 -7441.7560 297.4379 -1188.6006 -1120.8175 30673.3520 -149.8260 -92.9965
ENERGY: 900000 2.5728 2.1853 2.7670 0.0000 -10726.2637 1427.9804 0.0000 0.0000 1747.8291 -7542.9292 299.2676 -9290.7583 -7460.2695 297.3980 -35.5565 -23.6383 29646.4472 -114.4562 -55.3393
ENERGY: 1200000 4.8623 6.9816 0.9502 0.0000 -10607.4120 1390.7508 0.0000 0.0000 1755.6762 -7448.1910 300.6112 -9203.8672 -7459.1289 298.2178 -356.3679 -259.3669 30436.0938 -119.8736 -56.0810
ENERGY: 1500000 3.3684 2.5188 5.1634 0.0000 -10495.2401 1347.8535 0.0000 0.0000 1773.5573 -7362.7787 303.6729 -9136.3360 -7449.4505 299.1697 -475.8057 -390.3955 30158.7519 -105.7236 -40.7016
TCL: Running FEP window   4: Lambda1 0.8499999999999999 Lambda2 0.7999999999999998 [dLambda -0.050000000000000044]
TCL: Setting parameter firsttimestep to 0
TCL: Setting parameter alchLambda to 0.8499999999999999
Info: NONBONDED TABLE R-SQUARED SPACING: 0.0625
Info: NONBONDED TABLE SIZE: 705 POINTS
TCL: Setting parameter alchLambda2 to 0.7999999999999998
Info: NONBONDED TABLE R-SQUARED SPACING: 0.0625
Info: NONBONDED TABLE SIZE: 705 POINTS
TCL: Running for 1500000 steps
ETITLE: TS BOND ANGLE DIHED IMPRP ELECT VDW BOUNDARY MISC KINETIC TOTAL TEMP POTENTIAL TOTALAVG TEMPAVG PRESSURE GPRESSURE VOLUME PRESSAVG GPRESSAVG
ENERGY: 0 3.3684 2.5188 5.1634 0.0000 -10494.6631 1348.3250 0.0000 0.0000 1772.6925 -7362.5950 303.5248 -9135.2875 -7362.5950 303.5248 -486.8518 -394.2256 30158.7519 -486.8518 -394.2256
ENERGY: 300000 4.3626 5.3149 3.9913 0.0000 -10397.8531 1318.3424 0.0000 0.0000 1739.9790 -7325.8629 297.9235 -9065.8419 -7410.3518 298.6805 -775.1310 -676.5382 30429.7569 -621.9415 -532.1315
ENERGY: 600000 6.7461 5.3919 3.4810 0.0000 -10692.5256 1430.6430 0.0000 0.0000 1713.7824 -7532.4813 293.4381 -9246.2637 -7425.3764 299.9253 -213.4785 -149.8938 29999.4320 -357.5637 -275.9473
ENERGY: 900000 3.4728 3.7772 7.0705 0.0000 -10666.9653 1417.7858 0.0000 0.0000 1766.4317 -7468.4273 302.4528 -9234.8590 -7430.8768 299.4800 -90.4434 4.1711 29754.6994 -225.7146 -154.3215
ENERGY: 1200000 1.7636 4.1967 2.1233 0.0000 -10538.2143 1382.2321 0.0000 0.0000 1773.7439 -7374.1547 303.7049 -9147.8986 -7416.1815 300.0633 -282.2439 -237.8973 30651.9685 -190.7779 -119.4845
ENERGY: 1500000 2.5659 7.4988 5.2577 0.0000 -10668.9139 1404.0349 0.0000 0.0000 1740.4096 -7509.1470 297.9973 -9249.5566 -7422.7511 301.0749 -188.1807 -126.1630 30074.2628 -126.5313 -55.5752
TCL: Running FEP window   5: Lambda1 0.7999999999999998 Lambda2 0.7499999999999998 [dLambda -0.050000000000000044]
TCL: Setting parameter firsttimestep to 0
TCL: Setting parameter alchLambda to 0.7999999999999998
Info: NONBONDED TABLE R-SQUARED SPACING: 0.0625
Info: NONBONDED TABLE SIZE: 705 POINTS
TCL: Setting parameter alchLambda2 to 0.7499999999999998
Info: NONBONDED TABLE R-SQUARED SPACING: 0.0625
Info: NONBONDED TABLE SIZE: 705 POINTS
TCL: Running for 1500000 steps
ETITLE: TS BOND ANGLE DIHED IMPRP ELECT VDW BOUNDARY MISC KINETIC TOTAL TEMP POTENTIAL TOTALAVG TEMPAVG PRESSURE GPRESSURE VOLUME PRESSAVG GPRESSAVG
ENERGY: 0 2.5659 7.4988 5.2577 0.0000 -10668.1910 1404.2847 0.0000 0.0000 1739.5550 -7509.0289 297.8509 -9248.5840 -7509.0289 297.8509 -231.4755 -133.0012 30074.2628 -231.4755 -133.0012
ENERGY: 300000 4.6974 4.2365 4.2229 0.0000 -10674.2282 1430.9621 0.0000 0.0000 1788.3968 -7441.7124 306.2137 -9230.1092 -7481.1274 300.1124 -73.5711 -59.4058 30310.5863 -284.8038 -222.2434
ENERGY: 600000 2.4965 6.9741 3.6743 0.0000 -10594.4390 1470.2193 0.0000 0.0000 1768.4839 -7342.5910 302.8042 -9111.0749 -7439.4970 300.8819 711.6231 778.1643 30095.5527 -28.9077 41.6466
ENERGY: 900000 2.5460 4.2694 4.1546 0.0000 -10812.9170 1602.3728 0.0000 0.0000 1705.4458 -7494.1284 292.0107 -9199.5742 -7449.3490 300.6789 1427.5750 1455.1899 30140.6906 130.9702 190.8149
ENERGY: 1200000 2.2360 4.8878 3.9016 0.0000 -10699.1975 1445.4011 0.0000 0.0000 1790.1576 -7452.6134 306.5152 -9242.7710 -7448.8126 300.6689 84.2568 166.2562 30132.5207 120.8632 182.9441
ENERGY: 1500000 1.3988 4.5868 3.6161 0.0000 -10501.6194 1332.6842 0.0000 0.0000 1765.1511 -7394.1824 302.2336 -9159.3335 -7436.5289 301.0394 -685.1662 -648.3558 30614.8823 -16.2195 50.3177
TCL: Running FEP window   6: Lambda1 0.7499999999999998 Lambda2 0.6999999999999997 [dLambda -0.050000000000000044]
TCL: Setting parameter firsttimestep to 0
TCL: Setting parameter alchLambda to 0.7499999999999998
Info: NONBONDED TABLE R-SQUARED SPACING: 0.0625
Info: NONBONDED TABLE SIZE: 705 POINTS
TCL: Setting parameter alchLambda2 to 0.6999999999999997
Info: NONBONDED TABLE R-SQUARED SPACING: 0.0625
Info: NONBONDED TABLE SIZE: 705 POINTS
TCL: Running for 1500000 steps
ETITLE: TS BOND ANGLE DIHED IMPRP ELECT VDW BOUNDARY MISC KINETIC TOTAL TEMP POTENTIAL TOTALAVG TEMPAVG PRESSURE GPRESSURE VOLUME PRESSAVG GPRESSAVG
ENERGY: 0 1.3988 4.5868 3.6161 0.0000 -10501.0778 1332.5041 0.0000 0.0000 1764.2624 -7394.7096 302.0814 -9158.9720 -7394.7096 302.0814 -742.3955 -660.7029 30614.8823 -742.3955 -660.7029
ENERGY: 300000 1.4666 6.6234 4.9824 0.0000 -10633.2404 1475.2971 0.0000 0.0000 1746.7396 -7398.1314 299.0811 -9144.8710 -7453.0187 297.2954 361.0519 455.6067 30121.1944 -105.6151 -25.8731
ENERGY: 600000 4.1886 3.4918 8.4814 0.0000 -10548.6152 1392.1045 0.0000 0.0000 1796.2247 -7344.1241 307.5541 -9140.3488 -7424.6290 299.7527 -405.0807 -309.3062 30518.2066 -43.3613 33.5990
ENERGY: 900000 1.1117 3.6113 4.5419 0.0000 -10708.0135 1486.6994 0.0000 0.0000 1697.9517 -7514.0975 290.7275 -9212.0492 -7434.9276 299.5257 429.0277 542.8883 29899.3302 -35.0338 34.5252
ENERGY: 1200000 3.7921 1.7559 5.9914 0.0000 -10607.9004 1427.6090 0.0000 0.0000 1770.5709 -7398.1813 303.1615 -9168.7521 -7434.9229 299.8926 0.7065 66.4907 30124.9009 30.2555 100.3619
ENERGY: 1500000 2.8313 4.5580 6.0392 0.0000 -10655.8181 1409.2983 0.0000 0.0000 1737.4301 -7495.6613 297.4871 -9233.0914 -7437.3842 299.8068 -273.7275 -256.2332 30114.4976 -42.3767 22.1747
TCL: Running FEP window   7: Lambda1 0.6999999999999997 Lambda2 0.6499999999999997 [dLambda -0.050000000000000044]
TCL: Setting parameter firsttimestep to 0
TCL: Setting parameter alchLambda to 0.6999999999999997
Info: NONBONDED TABLE R-SQUARED SPACING: 0.0625
Info: NONBONDED TABLE SIZE: 705 POINTS
TCL: Setting parameter alchLambda2 to 0.6499999999999997
Info: NONBONDED TABLE R-SQUARED SPACING: 0.0625
Info: NONBONDED TABLE SIZE: 705 POINTS
TCL: Running for 1500000 steps
ETITLE: TS BOND ANGLE DIHED IMPRP ELECT VDW BOUNDARY MISC KINETIC TOTAL TEMP POTENTIAL TOTALAVG TEMPAVG PRESSURE GPRESSURE VOLUME PRESSAVG GPRESSAVG
ENERGY: 0 2.8313 4.5580 6.0392 0.0000 -10655.3616 1409.4472 0.0000 0.0000 1736.5223 -7495.9635 297.3317 -9232.4859 -7495.9635 297.3317 -335.8546 -259.6451 30114.4976 -335.8546 -259.6451
ENERGY: 300000 3.1889 4.1011 7.5511 0.0000 -10595.3135 1403.6319 0.0000 0.0000 1780.4988 -7396.3416 304.8614 -9176.8405 -7465.4106 300.7297 -338.9580 -270.1198 30244.5117 -144.4737 -79.8298
ENERGY: 600000 3.6908 4.1230 11.1990 0.0000 -10557.4229 1333.4689 0.0000 0.0000 1767.0441 -7437.8971 302.5577 -9204.9412 -7474.6023 300.4402 -990.4265 -888.3050 30451.8288 -112.4997 -43.7612
ENERGY: 900000 2.9370 9.3159 2.8248 0.0000 -10688.2553 1445.7781 0.0000 0.0000 1777.6566 -7449.7430 304.3748 -9227.3996 -7455.2196 301.3337 -27.1827 49.6721 30147.1865 -17.5200 38.7156
ENERGY: 1200000 2.2960 3.1562 8.7735 0.0000 -10769.0496 1481.6306 0.0000 0.0000 1727.5257 -7545.6676 295.7912 -9273.1933 -7460.7780 301.1485 38.7518 74.5907 30040.8792 -5.9152 52.0645
ENERGY: 1500000 1.5312 3.9060 2.1321 0.0000 -10611.5033 1403.8012 0.0000 0.0000 1729.3646 -7470.7681 296.1061 -9200.1327 -7462.3716 301.0761 -145.6900 -67.2864 30365.8783 -45.9682 5.5615
TCL: Running FEP window   8: Lambda1 0.6499999999999997 Lambda2 0.5999999999999996 [dLambda -0.050000000000000044]
TCL: Setting parameter firsttimestep to 0
TCL: Setting parameter alchLambda to 0.6499999999999997
Info: NONBONDED TABLE R-SQUARED SPACING: 0.0625
Info: NONBONDED TABLE SIZE: 705 POINTS
TCL: Setting parameter alchLambda2 to 0.5999999999999996
Info: NONBONDED TABLE R-SQUARED SPACING: 0.0625
Info: NONBONDED TABLE SIZE: 705 POINTS
TCL: Running for 1500000 steps
ETITLE: TS BOND ANGLE DIHED IMPRP ELECT VDW BOUNDARY MISC KINETIC TOTAL TEMP POTENTIAL TOTALAVG TEMPAVG PRESSURE GPRESSURE VOLUME PRESSAVG GPRESSAVG
ENERGY: 0 1.5312 3.9060 2.1321 0.0000 -10610.6551 1404.0333 0.0000 0.0000 1728.4947 -7470.5577 295.9572 -9199.0525 -7470.5577 295.9572 -150.4301 -70.0327 30365.8783 -150.4301 -70.0327
ENERGY: 300000 1.5503 4.5783 3.0768 0.0000 -10540.5306 1420.1581 0.0000 0.0000 1724.9465 -7386.2206 295.3496 -9111.1671 -7438.4477 295.6761 264.1222 303.6721 30321.1385 -105.5921 -58.1617
ENERGY: 600000 4.2271 7.8562 6.7832 0.0000 -10683.7610 1527.8788 0.0000 0.0000 1770.1555 -7366.8601 303.0904 -9137.0157 -7419.8744 298.5544 825.2775 857.0062 30259.9905 -3.3031 27.1839
ENERGY: 900000 1.2851 5.5253 7.4545 0.0000 -10475.8734 1282.7317 0.0000 0.0000 1826.6842 -7352.1925 312.7694 -9178.8768 -7407.1530 301.2872 -1064.1361 -1013.9079 30247.4502 -65.4496 -26.0796
ENERGY: 1200000 2.5941 5.5176 1.9217 0.0000 -10793.6808 1531.8901 0.0000 0.0000 1779.1040 -7472.6533 304.6226 -9251.7573 -7405.9081 302.1264 667.4735 729.1534 30134.8800 -78.5434 -40.7590
ENERGY: 1500000 0.9779 6.5552 4.7416 0.0000 -10566.1478 1428.1671 0.0000 0.0000 1770.3084 -7355.3975 303.1166 -9125.7059 -7405.0168 302.4307 17.9494 87.5837 30596.9962 -44.8508 0.2277
TCL: Running FEP window   9: Lambda1 0.5999999999999996 Lambda2 0.5499999999999996 [dLambda -0.050000000000000044]
TCL: Setting parameter firsttimestep to 0
TCL: Setting parameter alchLambda to 0.5999999999999996
Info: NONBONDED TABLE R-SQUARED SPACING: 0.0625
Info: NONBONDED TABLE SIZE: 705 POINTS
TCL: Setting parameter alchLambda2 to 0.5499999999999996
Info: NONBONDED TABLE R-SQUARED SPACING: 0.0625
Info: NONBONDED TABLE SIZE: 705 POINTS
TCL: Running for 1500000 steps
ETITLE: TS BOND ANGLE DIHED IMPRP ELECT VDW BOUNDARY MISC KINETIC TOTAL TEMP POTENTIAL TOTALAVG TEMPAVG PRESSURE GPRESSURE VOLUME PRESSAVG GPRESSAVG
ENERGY: 0 0.9779 6.5552 4.7416 0.0000 -10565.5343 1428.6473 0.0000 0.0000 1769.4287 -7355.1835 302.9660 -9124.6122 -7355.1835 302.9660 -7.1885 83.3248 30596.9962 -7.1885 83.3248
ENERGY: 300000 0.7858 5.3395 6.0444 0.0000 -10675.1089 1465.8671 0.0000 0.0000 1711.8416 -7485.2305 293.1058 -9197.0721 -7408.1401 299.0393 438.3362 503.3419 29689.5506 9.0079 64.9002
ENERGY: 600000 2.2597 4.2964 5.0714 0.0000 -10586.0991 1421.7953 0.0000 0.0000 1758.1023 -7394.5740 301.0267 -9152.6763 -7424.0529 300.1013 70.3931 151.8933 30207.1950 -146.3386 -85.2646
ENERGY: 900000 2.1041 5.1633 2.9703 0.0000 -10512.1892 1374.5105 0.0000 0.0000 1808.6634 -7318.7776 309.6838 -9127.4410 -7405.4658 301.9831 -340.6563 -289.8071 30438.8185 -168.2150 -100.9061
ENERGY: 1200000 2.3945 3.7558 4.1059 0.0000 -10668.5380 1403.7951 0.0000 0.0000 1725.9594 -7528.5274 295.5231 -9254.4868 -7410.5937 301.6489 -395.7108 -363.0165 30255.6219 -51.4600 7.1760
ENERGY: 1500000 2.8214 3.0015 4.5619 0.0000 -10750.9648 1498.3229 0.0000 0.0000 1845.5470 -7396.7101 315.9991 -9242.2571 -7417.5978 302.4481 436.5058 548.9875 30315.2827 -108.9749 -45.1012
TCL: Running FEP window  10: Lambda1 0.5499999999999996 Lambda2 0.4999999999999996 [dLambda -0.04999999999999999]
TCL: Setting parameter firsttimestep to 0
TCL: Setting parameter alchLambda to 0.5499999999999996
Info: NONBONDED TABLE R-SQUARED SPACING: 0.0625
Info: NONBONDED TABLE SIZE: 705 POINTS
TCL: Setting parameter alchLambda2 to 0.4999999999999996
Info: NONBONDED TABLE R-SQUARED SPACING: 0.0625
Info: NONBONDED TABLE SIZE: 705 POINTS
TCL: Running for 1500000 steps
ETITLE: TS BOND ANGLE DIHED IMPRP ELECT VDW BOUNDARY MISC KINETIC TOTAL TEMP POTENTIAL TOTALAVG TEMPAVG PRESSURE GPRESSURE VOLUME PRESSAVG GPRESSAVG
ENERGY: 0 2.8214 3.0015 4.5619 0.0000 -10750.9339 1498.5515 0.0000 0.0000 1844.7329 -7397.2647 315.8598 -9241.9976 -7397.2647 315.8598 465.2033 543.8698 30315.2827 465.2033 543.8698
ENERGY: 300000 1.9788 3.5500 2.9124 0.0000 -10691.5667 1429.5763 0.0000 0.0000 1711.6578 -7541.8914 293.0743 -9253.5492 -7455.4057 302.6328 -329.3124 -244.2432 30466.6881 -87.3688 -41.5153
ENERGY: 600000 2.5212 5.1544 3.7199 0.0000 -10528.2537 1421.0137 0.0000 0.0000 1724.3796 -7371.4648 295.2526 -9095.8445 -7422.4728 301.0409 285.5440 297.2468 30220.9899 -10.7948 36.2173
ENERGY: 900000 2.6792 5.8687 6.0856 0.0000 -10621.6453 1373.9157 0.0000 0.0000 1721.1343 -7511.9618 294.6969 -9233.0961 -7442.3720 299.4087 -689.2237 -573.1602 30213.8305 -78.2040 -31.0109
ENERGY: 1200000 2.4718 4.4974 5.2100 0.0000 -10618.6249 1448.3134 0.0000 0.0000 1733.8185 -7424.3138 296.8687 -9158.1323 -7438.6535 299.2087 -117.6415 -18.3691 30675.7797 -32.2472 21.3036
ENERGY: 1500000 1.5903 6.2486 5.8604 0.0000 -10453.3873 1332.1711 0.0000 0.0000 1760.9588 -7346.5582 301.5157 -9107.5170 -7426.5650 300.7543 -559.8124 -528.2590 30270.7072 -108.1331 -49.7603
TCL: Running FEP window  11: Lambda1 0.4999999999999996 Lambda2 0.4499999999999996 [dLambda -0.04999999999999999]
TCL: Setting parameter firsttimestep to 0
TCL: Setting parameter alchLambda to 0.4999999999999996
Info: NONBONDED TABLE R-SQUARED SPACING: 0.0625
Info: NONBONDED TABLE SIZE: 705 POINTS
TCL: Setting parameter alchLambda2 to 0.4499999999999996
Info: NONBONDED TABLE R-SQUARED SPACING: 0.0625
Info: NONBONDED TABLE SIZE: 705 POINTS
TCL: Running for 1500000 steps
ETITLE: TS BOND ANGLE DIHED IMPRP ELECT VDW BOUNDARY MISC KINETIC TOTAL TEMP POTENTIAL TOTALAVG TEMPAVG PRESSURE GPRESSURE VOLUME PRESSAVG GPRESSAVG
ENERGY: 0 1.5903 6.2485 5.8603 0.0000 -10453.1458 1332.6374 0.0000 0.0000 1760.0502 -7346.7590 301.3602 -9106.8092 -7346.7590 301.3602 -618.2192 -533.8333 30270.7072 -618.2192 -533.8333
ENERGY: 300000 0.5220 3.7705 5.9881 0.0000 -10606.4798 1413.5534 0.0000 0.0000 1777.5253 -7405.1205 304.3523 -9182.6458 -7419.8655 302.1995 -140.5380 -106.8781 30344.3568 -370.7649 -307.1120
ENERGY: 600000 3.2197 6.1757 3.7920 0.0000 -10654.3952 1430.7241 0.0000 0.0000 1793.4800 -7417.0037 307.0841 -9210.4836 -7416.4409 302.3140 -120.9796 -87.8028 29906.9514 -378.8615 -330.5777
ENERGY: 900000 1.8677 4.7581 7.5978 0.0000 -10648.6322 1468.7405 0.0000 0.0000 1775.2688 -7390.3994 303.9659 -9165.6682 -7427.4194 300.3130 82.4596 120.0431 30527.2416 -325.5260 -271.1294
ENERGY: 1200000 1.3122 4.1363 4.4438 0.0000 -10523.3873 1404.7056 0.0000 0.0000 1747.7653 -7361.0240 299.2567 -9108.7894 -7420.7577 300.8473 221.0006 245.4401 29805.7253 -136.8823 -88.1077
ENERGY: 1500000 2.3882 5.4376 2.6576 0.0000 -10674.5683 1424.9319 0.0000 0.0000 1775.4036 -7463.7494 303.9890 -9239.1530 -7423.7506 300.5484 -296.8177 -168.8986 30225.7679 -108.4506 -56.7393
TCL: Running FEP window  12: Lambda1 0.4499999999999996 Lambda2 0.39999999999999963 [dLambda -0.04999999999999999]
TCL: Setting parameter firsttimestep to 0
TCL: Setting parameter alchLambda to 0.4499999999999996
Info: NONBONDED TABLE R-SQUARED SPACING: 0.0625
Info: NONBONDED TABLE SIZE: 705 POINTS
TCL: Setting parameter alchLambda2 to 0.39999999999999963
Info: NONBONDED TABLE R-SQUARED SPACING: 0.0625
Info: NONBONDED TABLE SIZE: 705 POINTS
TCL: Running for 1500000 steps
ETITLE: TS BOND ANGLE DIHED IMPRP ELECT VDW BOUNDARY MISC KINETIC TOTAL TEMP POTENTIAL TOTALAVG TEMPAVG PRESSURE GPRESSURE VOLUME PRESSAVG GPRESSAVG
ENERGY: 0 2.3882 5.4376 2.6576 0.0000 -10674.5666 1425.5094 0.0000 0.0000 1774.5231 -7464.0507 303.8383 -9238.5739 -7464.0507 303.8383 -260.0003 -168.4782 30225.7679 -260.0003 -168.4782
ENERGY: 300000 0.2996 4.5729 5.6256 0.0000 -10571.2386 1452.5475 0.0000 0.0000 1739.5823 -7368.6107 297.8556 -9108.1930 -7406.1789 301.9770 98.1739 157.5653 30734.2260 -33.9775 43.8219
ENERGY: 600000 3.0063 3.2270 3.3080 0.0000 -10608.5434 1421.6469 0.0000 0.0000 1806.8304 -7370.5248 309.3700 -9177.3551 -7405.2746 302.3742 -59.1863 5.3969 30022.1679 149.8706 196.6728
ENERGY: 900000 1.6952 5.8882 4.6397 0.0000 -10704.5731 1441.4432 0.0000 0.0000 1743.8198 -7507.0871 298.5812 -9250.9068 -7425.6113 301.7677 -295.9484 -218.2851 30251.0453 -59.3494 1.7409
ENERGY: 1200000 1.5634 3.4820 3.2255 0.0000 -10728.8530 1505.0174 0.0000 0.0000 1750.9714 -7464.5933 299.8057 -9215.5647 -7420.1996 301.6792 556.4756 632.2409 30107.8707 -62.6416 -2.7818
ENERGY: 1500000 2.2905 4.2990 6.2468 0.0000 -10772.3673 1510.7963 0.0000 0.0000 1782.6805 -7466.0543 305.2350 -9248.7348 -7431.7880 301.3630 846.1603 968.8842 29311.4154 -24.6593 38.2770
TCL: Running FEP window  13: Lambda1 0.39999999999999963 Lambda2 0.34999999999999964 [dLambda -0.04999999999999999]
TCL: Setting parameter firsttimestep to 0
TCL: Setting parameter alchLambda to 0.39999999999999963
Info: NONBONDED TABLE R-SQUARED SPACING: 0.0625
Info: NONBONDED TABLE SIZE: 705 POINTS
TCL: Setting parameter alchLambda2 to 0.34999999999999964
Info: NONBONDED TABLE R-SQUARED SPACING: 0.0625
Info: NONBONDED TABLE SIZE: 705 POINTS
TCL: Running for 1500000 steps
ETITLE: TS BOND ANGLE DIHED IMPRP ELECT VDW BOUNDARY MISC KINETIC TOTAL TEMP POTENTIAL TOTALAVG TEMPAVG PRESSURE GPRESSURE VOLUME PRESSAVG GPRESSAVG
ENERGY: 0 2.2905 4.2990 6.2468 0.0000 -10772.3663 1510.7022 0.0000 0.0000 1781.8288 -7466.9990 305.0892 -9248.8278 -7466.9990 305.0892 866.3179 960.1514 29311.4154 866.3179 960.1514
ENERGY: 300000 3.7893 3.0989 4.6176 0.0000 -10826.1168 1545.9279 0.0000 0.0000 1764.9178 -7503.7653 302.1936 -9268.6831 -7466.7998 303.3007 896.2932 943.4317 29657.7340 166.7088 245.1777
ENERGY: 600000 2.4830 5.7266 3.0736 0.0000 -10536.1194 1401.7285 0.0000 0.0000 1726.9318 -7396.1760 295.6896 -9123.1078 -7468.7503 300.1598 -454.6905 -389.4256 30802.0561 -90.4656 -16.8152
ENERGY: 900000 2.3687 2.8761 4.7286 0.0000 -10713.3149 1492.7705 0.0000 0.0000 1782.4640 -7428.1068 305.1979 -9210.5709 -7468.2085 300.9469 566.0269 600.7726 29842.7483 62.3386 127.6535
ENERGY: 1200000 3.1822 7.9392 5.4888 0.0000 -10659.5278 1520.7459 0.0000 0.0000 1735.8266 -7386.3451 297.2126 -9122.1717 -7443.7013 301.4928 669.6383 679.1505 30354.8358 41.6941 107.3710
ENERGY: 1500000 1.4750 7.0572 3.3435 0.0000 -10670.3576 1411.0406 0.0000 0.0000 1750.3242 -7497.1170 299.6949 -9247.4412 -7447.7782 301.2757 -350.9150 -311.7624 30062.6250 -1.6949 67.1126
TCL: Running FEP window  14: Lambda1 0.34999999999999964 Lambda2 0.29999999999999966 [dLambda -0.04999999999999999]
TCL: Setting parameter firsttimestep to 0
TCL: Setting parameter alchLambda to 0.34999999999999964
Info: NONBONDED TABLE R-SQUARED SPACING: 0.0625
Info: NONBONDED TABLE SIZE: 705 POINTS
TCL: Setting parameter alchLambda2 to 0.29999999999999966
Info: NONBONDED TABLE R-SQUARED SPACING: 0.0625
Info: NONBONDED TABLE SIZE: 705 POINTS
TCL: Running for 1500000 steps
ETITLE: TS BOND ANGLE DIHED IMPRP ELECT VDW BOUNDARY MISC KINETIC TOTAL TEMP POTENTIAL TOTALAVG TEMPAVG PRESSURE GPRESSURE VOLUME PRESSAVG GPRESSAVG
ENERGY: 0 1.4750 7.0572 3.3435 0.0000 -10670.3580 1411.5888 0.0000 0.0000 1749.4730 -7497.4204 299.5491 -9246.8934 -7497.4204 299.5491 -387.6673 -311.1164 30062.6250 -387.6673 -311.1164
ENERGY: 300000 3.2041 3.0977 7.6350 0.0000 -10452.7715 1328.8959 0.0000 0.0000 1670.3860 -7439.5528 286.0076 -9109.9388 -7459.2636 296.6162 -892.3900 -794.6232 30413.3929 -371.3339 -273.3190
ENERGY: 600000 0.7196 1.5143 1.8391 0.0000 -10594.2675 1402.3901 0.0000 0.0000 1745.1113 -7442.6932 298.8023 -9187.8045 -7464.7989 296.8302 -112.7025 -94.7936 30116.3252 -209.7241 -136.4905
ENERGY: 900000 1.3510 5.4277 5.5242 0.0000 -10594.7890 1371.4735 0.0000 0.0000 1751.4993 -7459.5133 299.8961 -9211.0126 -7453.8205 296.7519 -640.2284 -544.1432 30372.7220 -334.9072 -257.6910
ENERGY: 1200000 0.7712 4.7655 4.0955 0.0000 -10529.2180 1365.7667 0.0000 0.0000 1773.7118 -7380.1073 303.6993 -9153.8191 -7458.5000 296.8436 -512.0073 -491.5181 30380.4549 -274.9047 -203.2688
ENERGY: 1500000 2.7250 2.2686 9.0242 0.0000 -10709.4276 1480.7272 0.0000 0.0000 1711.4932 -7503.1895 293.0461 -9214.6827 -7458.7323 296.7740 111.1895 132.1134 30103.4944 -208.5959 -139.9994
TCL: Running FEP window  15: Lambda1 0.29999999999999966 Lambda2 0.24999999999999967 [dLambda -0.04999999999999999]
TCL: Setting parameter firsttimestep to 0
TCL: Setting parameter alchLambda to 0.29999999999999966
Info: NONBONDED TABLE R-SQUARED SPACING: 0.0625
Info: NONBONDED TABLE SIZE: 705 POINTS
TCL: Setting parameter alchLambda2 to 0.24999999999999967
Info: NONBONDED TABLE R-SQUARED SPACING: 0.0625
Info: NONBONDED TABLE SIZE: 705 POINTS
TCL: Running for 1500000 steps
ETITLE: TS BOND ANGLE DIHED IMPRP ELECT VDW BOUNDARY MISC KINETIC TOTAL TEMP POTENTIAL TOTALAVG TEMPAVG PRESSURE GPRESSURE VOLUME PRESSAVG GPRESSAVG
ENERGY: 0 2.7250 2.2686 9.0242 0.0000 -10709.4266 1481.0594 0.0000 0.0000 1710.6112 -7503.7382 292.8951 -9214.3494 -7503.7382 292.8951 42.1094 129.1467 30103.4944 42.1094 129.1467
ENERGY: 300000 0.7283 7.3961 2.8545 0.0000 -10716.0051 1457.1379 0.0000 0.0000 1750.8739 -7497.0144 299.7890 -9247.8883 -7460.8695 300.2709 -54.7236 2.6727 30356.7267 45.8987 93.6035
ENERGY: 600000 3.1659 3.8670 2.6356 0.0000 -10774.4312 1489.4516 0.0000 0.0000 1737.7992 -7537.5119 297.5503 -9275.3111 -7480.0548 298.8838 84.2716 76.9419 30128.6260 96.3349 144.8277
ENERGY: 900000 3.0373 5.9014 4.7097 0.0000 -10543.2574 1405.8056 0.0000 0.0000 1742.3702 -7381.4331 298.3330 -9123.8033 -7450.9308 299.9506 50.6111 130.8423 29873.1627 28.6862 87.5957
ENERGY: 1200000 3.9413 5.3799 4.1421 0.0000 -10791.3636 1492.5780 0.0000 0.0000 1752.5635 -7532.7588 300.0783 -9285.3223 -7456.4428 299.6850 293.6724 378.1935 29826.8303 -25.0566 35.2988
ENERGY: 1500000 1.5921 3.4540 6.9765 0.0000 -10648.9713 1507.3508 0.0000 0.0000 1795.6629 -7333.9350 307.4579 -9129.5979 -7447.3061 299.4864 424.4416 503.7823 30900.9974 -2.6554 60.0909
TCL: Running FEP window  16: Lambda1 0.24999999999999967 Lambda2 0.19999999999999968 [dLambda -0.04999999999999999]
TCL: Setting parameter firsttimestep to 0
TCL: Setting parameter alchLambda to 0.24999999999999967
Info: NONBONDED TABLE R-SQUARED SPACING: 0.0625
Info: NONBONDED TABLE SIZE: 705 POINTS
TCL: Setting parameter alchLambda2 to 0.19999999999999968
Info: NONBONDED TABLE R-SQUARED SPACING: 0.0625
Info: NONBONDED TABLE SIZE: 705 POINTS
TCL: Running for 1500000 steps
ETITLE: TS BOND ANGLE DIHED IMPRP ELECT VDW BOUNDARY MISC KINETIC TOTAL TEMP POTENTIAL TOTALAVG TEMPAVG PRESSURE GPRESSURE VOLUME PRESSAVG GPRESSAVG
ENERGY: 0 1.5921 3.4540 6.9765 0.0000 -10648.9698 1507.4675 0.0000 0.0000 1794.7577 -7334.7220 307.3029 -9129.4798 -7334.7220 307.3029 421.2636 501.4813 30900.9974 421.2636 501.4813
ENERGY: 300000 0.7783 3.3576 3.7380 0.0000 -10471.2298 1352.0106 0.0000 0.0000 1728.9461 -7382.3992 296.0345 -9111.3454 -7374.4678 299.9273 -568.6587 -475.3602 30188.8266 -103.2560 -43.0448
ENERGY: 600000 3.2776 5.8211 3.0888 0.0000 -10701.0887 1446.0939 0.0000 0.0000 1783.5089 -7459.2985 305.3768 -9242.8074 -7403.7738 299.9661 -151.3455 -52.3588 29945.0943 -167.5679 -109.7649
ENERGY: 900000 1.1034 4.6442 2.8949 0.0000 -10572.3629 1370.2660 0.0000 0.0000 1755.7851 -7437.6692 300.6299 -9193.4544 -7413.0754 299.9354 -429.1156 -371.4866 30190.5686 -234.0201 -180.1989
ENERGY: 1200000 1.3919 5.5375 7.4260 0.0000 -10734.8292 1485.8053 0.0000 0.0000 1769.7560 -7464.9124 303.0220 -9234.6684 -7422.7129 299.7874 441.4105 515.8548 29959.7991 -139.2344 -86.1202
ENERGY: 1500000 3.4547 3.3235 1.6387 0.0000 -10594.4450 1405.4330 0.0000 0.0000 1719.6889 -7460.9063 294.4494 -9180.5951 -7432.8689 298.6321 -398.0204 -359.7197 30295.9089 -139.7126 -83.6655
TCL: Running FEP window  17: Lambda1 0.19999999999999968 Lambda2 0.1499999999999997 [dLambda -0.04999999999999999]
TCL: Setting parameter firsttimestep to 0
TCL: Setting parameter alchLambda to 0.19999999999999968
Info: NONBONDED TABLE R-SQUARED SPACING: 0.0625
Info: NONBONDED TABLE SIZE: 705 POINTS
TCL: Setting parameter alchLambda2 to 0.1499999999999997
Info: NONBONDED TABLE R-SQUARED SPACING: 0.0625
Info: NONBONDED TABLE SIZE: 705 POINTS
TCL: Running for 1500000 steps
ETITLE: TS BOND ANGLE DIHED IMPRP ELECT VDW BOUNDARY MISC KINETIC TOTAL TEMP POTENTIAL TOTALAVG TEMPAVG PRESSURE GPRESSURE VOLUME PRESSAVG GPRESSAVG
ENERGY: 0 3.4547 3.3235 1.6387 0.0000 -10594.4443 1405.6739 0.0000 0.0000 1718.8207 -7461.5328 294.3008 -9180.3535 -7461.5328 294.3008 -453.7988 -362.8786 30295.9089 -453.7988 -362.8786
ENERGY: 300000 3.1511 4.5805 2.6664 0.0000 -10709.1784 1467.1916 0.0000 0.0000 1772.0965 -7459.4923 303.4228 -9231.5888 -7463.0361 297.5126 -30.8363 29.3766 30159.0527 -50.8495 34.3110
ENERGY: 600000 1.9052 6.9157 1.6371 0.0000 -10644.3111 1462.6248 0.0000 0.0000 1768.6281 -7402.6002 302.8289 -9171.2283 -7448.4179 298.0681 424.4929 540.3565 29778.5446 50.1685 118.9668
ENERGY: 900000 1.8041 2.2645 5.4641 0.0000 -10728.5633 1508.5808 0.0000 0.0000 1766.4603 -7443.9896 302.4577 -9210.4499 -7441.6632 298.2898 581.4066 638.8773 30133.5258 -28.4830 39.5503
ENERGY: 1200000 3.2101 6.1468 3.1165 0.0000 -10696.2107 1467.0258 0.0000 0.0000 1769.3904 -7447.3211 302.9594 -9216.7116 -7442.6741 298.6454 69.9960 106.8092 30341.7577 37.1109 104.7289
ENERGY: 1500000 0.5042 3.4078 9.2518 0.0000 -10548.5694 1380.5905 0.0000 0.0000 1806.3171 -7348.4980 309.2821 -9154.8151 -7435.8847 299.3522 -353.6729 -308.5783 30416.2644 -32.5197 33.3758
TCL: Running FEP window  18: Lambda1 0.1499999999999997 Lambda2 0.09999999999999969 [dLambda -0.05 ]
TCL: Setting parameter firsttimestep to 0
TCL: Setting parameter alchLambda to 0.1499999999999997
Info: NONBONDED TABLE R-SQUARED SPACING: 0.0625
Info: NONBONDED TABLE SIZE: 705 POINTS
TCL: Setting parameter alchLambda2 to 0.09999999999999969
Info: NONBONDED TABLE R-SQUARED SPACING: 0.0625
Info: NONBONDED TABLE SIZE: 705 POINTS
TCL: Running for 1500000 steps
ETITLE: TS BOND ANGLE DIHED IMPRP ELECT VDW BOUNDARY MISC KINETIC TOTAL TEMP POTENTIAL TOTALAVG TEMPAVG PRESSURE GPRESSURE VOLUME PRESSAVG GPRESSAVG
ENERGY: 0 0.5042 3.4078 9.2518 0.0000 -10548.5687 1380.2113 0.0000 0.0000 1805.4164 -7349.7772 309.1279 -9155.1936 -7349.7772 309.1279 -392.7208 -313.5014 30416.2644 -392.7208 -313.5014
ENERGY: 300000 1.2127 6.8558 5.2627 0.0000 -10690.2544 1473.1652 0.0000 0.0000 1733.0964 -7470.6615 296.7451 -9203.7579 -7423.2111 302.5473 124.2087 222.6514 30369.1073 -96.9139 -43.4733
ENERGY: 600000 5.1240 2.9501 2.0843 0.0000 -10685.8250 1425.5698 0.0000 0.0000 1755.9610 -7494.1358 300.6600 -9250.0968 -7428.9386 301.6126 -267.8014 -162.9413 29713.7581 -2.9680 45.6129
ENERGY: 900000 1.3507 6.4591 5.6729 0.0000 -10585.9946 1395.6369 0.0000 0.0000 1744.8297 -7432.0454 298.7541 -9176.8751 -7424.4574 302.0437 -384.4614 -371.6384 30305.3918 2.4574 57.0783
ENERGY: 1200000 3.0100 4.0136 2.8664 0.0000 -10444.9456 1293.6260 0.0000 0.0000 1789.4247 -7352.0049 306.3897 -9141.4296 -7422.4159 301.7105 -1001.0246 -961.8617 30294.9428 -106.7313 -50.4968
ENERGY: 1500000 4.5852 2.8078 5.0854 0.0000 -10573.0854 1405.9038 0.0000 0.0000 1671.6875 -7483.0157 286.2305 -9154.7032 -7421.6122 301.1674 -234.8563 -128.0487 30195.4901 -99.2475 -33.7783
TCL: Running FEP window  19: Lambda1 0.09999999999999969 Lambda2 0.049999999999999684 [dLambda -0.05 ]
TCL: Setting parameter firsttimestep to 0
TCL: Setting parameter alchLambda to 0.09999999999999969
Info: NONBONDED TABLE R-SQUARED SPACING: 0.0625
Info: NONBONDED TABLE SIZE: 705 POINTS
TCL: Setting parameter alchLambda2 to 0.049999999999999684
Info: NONBONDED TABLE R-SQUARED SPACING: 0.0625
Info: NONBONDED TABLE SIZE: 705 POINTS
TCL: Running for 1500000 steps
ETITLE: TS BOND ANGLE DIHED IMPRP ELECT VDW BOUNDARY MISC KINETIC TOTAL TEMP POTENTIAL TOTALAVG TEMPAVG PRESSURE GPRESSURE VOLUME PRESSAVG GPRESSAVG
ENERGY: 0 4.5852 2.8078 5.0854 0.0000 -10573.0844 1405.1957 0.0000 0.0000 1670.8335 -7484.5768 286.0843 -9155.4104 -7484.5768 286.0843 -235.5928 -134.0032 30195.4901 -235.5928 -134.0032
ENERGY: 300000 3.3620 2.7430 5.8717 0.0000 -10605.2926 1426.3906 0.0000 0.0000 1722.4562 -7444.4691 294.9232 -9166.9253 -7424.0274 296.5619 -144.8077 -34.6491 29966.7555 -16.0552 82.0156
ENERGY: 600000 3.6961 4.2667 5.2498 0.0000 -10725.5693 1487.1308 0.0000 0.0000 1745.4631 -7479.7629 298.8625 -9225.2259 -7427.2482 298.0731 497.7992 545.9269 29604.8846 33.0683 120.9250
ENERGY: 900000 3.2326 9.6116 2.6624 0.0000 -10644.6043 1389.5557 0.0000 0.0000 1697.7484 -7541.7937 290.6927 -9239.5421 -7446.3194 298.1681 -554.2901 -465.4579 29790.8774 45.6297 125.5340
ENERGY: 1200000 1.5292 4.7607 2.8904 0.0000 -10657.2034 1460.2441 0.0000 0.0000 1783.0917 -7404.6873 305.3054 -9187.7790 -7441.4126 299.5104 453.9013 485.3044 29768.3372 95.1804 162.3593
ENERGY: 1500000 1.7105 3.3906 3.1364 0.0000 -10707.9920 1488.5248 0.0000 0.0000 1719.4239 -7491.8059 294.4040 -9211.2298 -7442.4528 299.1894 -18.0454 128.2473 30413.1786 -13.4043 57.3375
TCL: Running FEP window  20: Lambda1 0.049999999999999684 Lambda2 0.0    [dLambda -0.049999999999999684]
TCL: Setting parameter firsttimestep to 0
TCL: Setting parameter alchLambda to 0.049999999999999684
Info: NONBONDED TABLE R-SQUARED SPACING: 0.0625
Info: NONBONDED TABLE SIZE: 705 POINTS
TCL: Setting parameter alchLambda2 to 0.0
Info: NONBONDED TABLE R-SQUARED SPACING: 0.0625
Info: NONBONDED TABLE SIZE: 705 POINTS
TCL: Running for 1500000 steps
ETITLE: TS BOND ANGLE DIHED IMPRP ELECT VDW BOUNDARY MISC KINETIC TOTAL TEMP POTENTIAL TOTALAVG TEMPAVG PRESSURE GPRESSURE VOLUME PRESSAVG GPRESSAVG
ENERGY: 0 1.7105 3.3906 3.1364 0.0000 -10707.9923 1488.0659 0.0000 0.0000 1718.5560 -7493.1329 294.2554 -9211.6889 -7493.1329 294.2554 39.5367 125.1315 30413.1786 39.5367 125.1315
ENERGY: 300000 1.0287 6.9766 3.4296 0.0000 -10762.1429 1471.9654 0.0000 0.0000 1752.2648 -7526.4778 300.0271 -9278.7426 -7467.3881 299.7724 76.9968 81.4565 30236.9371 -44.4395 -28.0605
ENERGY: 600000 2.9004 6.1629 8.1318 0.0000 -10666.2472 1427.1368 0.0000 0.0000 1719.4806 -7502.4348 294.4137 -9221.9153 -7463.1666 297.3390 -133.0681 -43.0202 29725.3543 -34.6891 -8.4129
ENERGY: 900000 2.8421 6.2288 2.9913 0.0000 -10598.9786 1423.5092 0.0000 0.0000 1783.8279 -7379.5792 305.4315 -9163.4071 -7444.1535 299.2877 -120.2171 -35.6016 30170.5289 -28.9802 7.5601
ENERGY: 1200000 3.6045 7.3904 4.1634 0.0000 -10732.4659 1469.8317 0.0000 0.0000 1734.4295 -7513.0464 296.9733 -9247.4759 -7453.6613 299.5376 -108.9776 -38.9489 29999.0892 38.5292 79.8446
ENERGY: 1500000 4.7828 4.8827 1.5125 0.0000 -10633.4805 1415.3396 0.0000 0.0000 1819.2273 -7387.7357 311.4926 -9206.9630 -7447.5086 300.1433 -355.4551 -270.0120 30433.9418 10.3510 60.9194
TCL: Exiting due to exit command.
