Info: SIMULATION PARAMETERS:
Info: TIMESTEP               2
Info: NUMBER OF STEPS        0
Info: STEPS PER CYCLE        10
Info: PERIODIC CELL BASIS 1  30.1785 0 0
Info: PERIODIC CELL BASIS 2  0 28.9919 0
Info: PERIODIC CELL BASIS 3  0 0 33.8591
Info: PERIODIC CELL CENTER   0 0 0
Info: WRAPPING WATERS AROUND PERIODIC BOUNDARIES ON OUTPUT.
Info: WRAPPING ALL CLUSTERS AROUND PERIODIC BOUNDARIES ON OUTPUT.
Info: FIRST LDB TIMESTEP     50
Info: LAST LDB TIMESTEP     -1
Info: HOM BACKGROUND SCALING 1
Info: PME BACKGROUND SCALING 1
Info: MIN ATOMS PER PATCH    40
Info: EMPTY PATCH LOAD       40 ATOMS
Info: VELOCITY FILE          mobley_6843802_equil.vel
Info: CENTER OF MASS MOVING INITIALLY? NO
Info: DIELECTRIC             1
Info: EXCLUDE                SCALED ONE-FOUR
Info: 1-4 ELECTROSTATICS SCALED BY 0.833333
Info: MODIFIED 1-4 VDW PARAMETERS WILL BE USED
Info: DCD FILENAME           mobley_6843802_prod.dcd
Info: DCD FREQUENCY          100000
Info: DCD FIRST STEP         100000
Info: DCD FILE WILL CONTAIN UNIT CELL DATA
Info: XST FILENAME           mobley_6843802_prod.xst
Info: XST FREQUENCY          100000
Info: NO VELOCITY DCD OUTPUT
Info: NO FORCE DCD OUTPUT
Info: OUTPUT FILENAME        mobley_6843802_prod
Info: BINARY OUTPUT FILES WILL BE USED
Info: RESTART FILENAME       mobley_6843802_prod.restart
Info: RESTART FREQUENCY      100000
Info: BINARY RESTART FILES WILL BE USED
Info: CUTOFF                 9
Info: PAIRLIST DISTANCE      11
Info: PAIRLIST SHRINK RATE   0.01
Info: PAIRLIST GROW RATE     0.01
Info: PAIRLIST TRIGGER       0.3
Info: PAIRLISTS PER CYCLE    2
Info: PAIRLISTS ENABLED
Info: MARGIN                 2
Info: HYDROGEN GROUP CUTOFF  2.5
Info: PATCH DIMENSION        15.5
Info: ENERGY OUTPUT STEPS    100000
Info: ENERGY EVALUATION STEPS    100000
Info: OUTPUT ENERGY PRECISION 4
Info: CROSSTERM ENERGY INCLUDED IN DIHEDRAL
Info: TIMING OUTPUT STEPS    1000000
Info: PRESSURE OUTPUT STEPS  100000
Info: ALCHEMICAL FEP ON
Info: FEP CURRENT LAMBDA VALUE     1
Info: FEP COMPARISON LAMBDA VALUE  0.95
Info: FEP INTRA-ALCHEMICAL NON-BONDED INTERACTIONS WILL BE RETAINED
Info: FEP INTRA-ALCHEMICAL BONDED INTERACTIONS WILL BE RETAINED
Info: FEP VDW SHIFTING COEFFICIENT 5
Info: FEP ELEC. ACTIVE FOR ANNIHILATED PARTICLES BETWEEN LAMBDA = 0 AND LAMBDA = 0.5
Info: FEP ELEC. ACTIVE FOR EXNIHILATED PARTICLES BETWEEN LAMBDA = 0.5 AND LAMBDA = 1
Info: FEP VDW ACTIVE FOR ANNIHILATED PARTICLES BETWEEN LAMBDA = 0 AND LAMBDA = 1
Info: FEP VDW ACTIVE FOR EXNIHILATED PARTICLES BETWEEN LAMBDA = 0 AND LAMBDA = 1
Info: FEP BOND ACTIVE FOR ANNIHILATED PARTICLES BETWEEN LAMBDA = 1 AND LAMBDA = 1
Info: FEP BOND ACTIVE FOR EXNIHILATED PARTICLES BETWEEN LAMBDA = 0 AND LAMBDA = 0
Info: LANGEVIN DYNAMICS ACTIVE
Info: LANGEVIN TEMPERATURE   300
Info: LANGEVIN USING BBK INTEGRATOR
Info: LANGEVIN DAMPING COEFFICIENT IS 1 INVERSE PS
Info: LANGEVIN DYNAMICS APPLIED TO HYDROGENS
Info: LANGEVIN PISTON PRESSURE CONTROL ACTIVE
Info:        TARGET PRESSURE IS 1.01325 BAR
Info:     OSCILLATION PERIOD IS 50 FS
Info:             DECAY TIME IS 25 FS
Info:     PISTON TEMPERATURE IS 300 K
Info:       PRESSURE CONTROL IS GROUP-BASED
Info:    INITIAL STRAIN RATE IS 0.000446411 0.000446411 0.000446411
Info:       CELL FLUCTUATION IS ISOTROPIC
Info: PARTICLE MESH EWALD (PME) ACTIVE
Info: PME TOLERANCE               1e-06
Info: PME EWALD COEFFICIENT       0.348832
Info: PME INTERPOLATION ORDER     4
Info: PME GRID DIMENSIONS         32 32 36
Info: PME MAXIMUM GRID SPACING    1
Info: PME CALCULATION WILL BE PERFORMED ON GPU
Info: FULL ELECTROSTATIC EVALUATION FREQUENCY      2
Info: USING VERLET I (r-RESPA) MTS SCHEME.
Info: C1 SPLITTING OF LONG RANGE ELECTROSTATICS
Info: PLACING ATOMS IN PATCHES BY HYDROGEN GROUPS
Info: RIGID BONDS TO HYDROGEN : ALL
Info:         ERROR TOLERANCE : 1e-08
Info:          MAX ITERATIONS : 100
Info: RIGID WATER USING SETTLE ALGORITHM
Info: RANDOM NUMBER SEED     1743930719
Info: USE HYDROGEN BONDS?    NO
Info: Using AMBER format force field!
Info: AMBER PARM FILE        mobley_6843802.prmtop
Info: COORDINATE PDB         mobley_6843802.pdb
Info: Exclusions will be read from PARM file!
Info: SCNB (VDW SCALING)     2
Info: USING ARITHMETIC MEAN TO COMBINE L-J SIGMA PARAMETERS
Info: BINARY COORDINATES     mobley_6843802_equil.coor
Info: SUMMARY OF PARAMETERS:
Info: 9 BONDS
Info: 11 ANGLES
Info:   11 HARMONIC
Info:   0 COSINE-BASED
Info: 7 DIHEDRAL
Info: 0 IMPROPER
Info: 0 CROSSTERM
Info: 0 VDW
Info: 36 VDW_PAIRS
Info: 0 NBTHOLE_PAIRS
Info: To read alchdata from file: mobley_6843802.pdb
Info: To read alchflag data from column: 5
Info: STRUCTURE SUMMARY:
Info: 2902 ATOMS
Info: 2902 BONDS
Info: 31 ANGLES
Info: 46 DIHEDRALS
Info: 0 IMPROPERS
Info: 0 CROSSTERMS
Info: 2968 EXCLUSIONS
Info: 2890 RIGID BONDS
Info: ALCH: 0 ATOMS TO DISAPPEAR IN FINAL STATE
Info: ALCH: 19 ATOMS TO APPEAR IN FINAL STATE
Info: 5816 DEGREES OF FREEDOM
Info: 973 HYDROGEN GROUPS
Info: 3 ATOMS IN LARGEST HYDROGEN GROUP
Info: 973 MIGRATION GROUPS
Info: 3 ATOMS IN LARGEST MIGRATION GROUP
Info: TOTAL MASS = 17489.5 amu
Info: TOTAL CHARGE = 0.000100009 e
Info: MASS DENSITY = 0.980365 g/cm^3
Info: ATOM DENSITY = 0.0979599 atoms/A^3
Info: ADDED 0 IMPLICIT EXCLUSIONS
Info: NONBONDED TABLE R-SQUARED SPACING: 0.0625
Info: NONBONDED TABLE SIZE: 705 POINTS
Info: REMOVING COM VELOCITY 0.0901302 0.0240239 0.0333362
Info: Use 3D box decompostion in PME FFT.
Info: Updated CUDA force table with 4096 elements.
Info: Updated CUDA LJ table with 8 x 8 elements.
Info: Found 21 unique exclusion lists needing 56 bytes
TCL: Running for 1500000 steps
ETITLE: TS BOND ANGLE DIHED IMPRP ELECT VDW BOUNDARY MISC KINETIC TOTAL TEMP POTENTIAL TOTALAVG TEMPAVG PRESSURE GPRESSURE VOLUME PRESSAVG GPRESSAVG
ENERGY: 0 2.4972 5.5372 4.9959 0.0000 -10528.7199 1418.9062 0.0000 0.0000 1806.0849 -7290.6986 312.5390 -9096.7835 -7290.6986 312.5390 259.2497 335.2209 29624.3752 259.2497 335.2209
ENERGY: 300000 5.3291 12.5054 6.1326 0.0000 -10479.9047 1406.4138 0.0000 0.0000 1745.9682 -7303.5556 302.1359 -9049.5238 -7313.0369 305.8701 172.2148 292.3076 29537.1237 55.4340 125.4311
ENERGY: 600000 3.1640 4.8937 5.8676 0.0000 -10365.5239 1334.6621 0.0000 0.0000 1685.8101 -7331.1263 291.7257 -9016.9365 -7323.5763 302.3377 -606.0029 -546.6927 30112.1998 -122.2638 -49.7705
ENERGY: 900000 4.6068 5.3965 6.3396 0.0000 -10479.8360 1419.3175 0.0000 0.0000 1696.2610 -7347.9147 293.5342 -9044.1757 -7320.7137 301.0020 -188.8423 -68.5883 30410.3363 -197.1325 -121.5792
ENERGY: 1200000 3.5291 4.3309 8.0525 0.0000 -10462.7573 1377.1106 0.0000 0.0000 1747.3974 -7322.3368 302.3832 -9069.7342 -7311.8571 300.9348 -559.5682 -440.7263 29950.4898 -250.5677 -171.5029
ENERGY: 1500000 4.5253 6.4567 4.1434 0.0000 -10388.6259 1361.0720 0.0000 0.0000 1727.9170 -7284.5115 299.0122 -9012.4285 -7312.8803 301.0758 30.5964 21.5004 29751.6038 -137.4358 -70.4777
TCL: Running FEP window   2: Lambda1 0.95   Lambda2 0.8999999999999999 [dLambda -0.050000000000000044]
TCL: Setting parameter firsttimestep to 0
TCL: Setting parameter alchLambda to 0.95
Info: NONBONDED TABLE R-SQUARED SPACING: 0.0625
Info: NONBONDED TABLE SIZE: 705 POINTS
TCL: Setting parameter alchLambda2 to 0.8999999999999999
Info: NONBONDED TABLE R-SQUARED SPACING: 0.0625
Info: NONBONDED TABLE SIZE: 705 POINTS
TCL: Running for 1500000 steps
ETITLE: TS BOND ANGLE DIHED IMPRP ELECT VDW BOUNDARY MISC KINETIC TOTAL TEMP POTENTIAL TOTALAVG TEMPAVG PRESSURE GPRESSURE VOLUME PRESSAVG GPRESSAVG
ENERGY: 0 4.5253 6.4567 4.1434 0.0000 -10387.0563 1360.4229 0.0000 0.0000 1727.0522 -7284.4558 298.8625 -9011.5080 -7284.4558 298.8625 -90.7149 -1.1298 29751.6038 -90.7149 -1.1298
ENERGY: 300000 3.7265 9.5451 6.3236 0.0000 -10637.6253 1545.1334 0.0000 0.0000 1797.2559 -7275.6408 311.0111 -9072.8967 -7274.2344 304.3248 1120.3422 1184.2238 29755.3383 203.2329 277.0180
ENERGY: 600000 5.5202 5.1237 9.2557 0.0000 -10365.3432 1333.8761 0.0000 0.0000 1703.5443 -7308.0233 294.7945 -9011.5676 -7295.6967 301.5043 -713.3948 -579.3275 30137.5591 9.6615 84.1920
ENERGY: 900000 0.9755 5.6564 6.8511 0.0000 -10424.8093 1364.0768 0.0000 0.0000 1753.9451 -7293.3045 303.5163 -9047.2496 -7307.8968 302.2510 -486.6263 -438.2243 30409.1012 -170.0052 -93.0372
ENERGY: 1200000 2.3789 6.1883 5.0954 0.0000 -10644.9263 1507.6852 0.0000 0.0000 1797.0255 -7326.5532 310.9712 -9123.5786 -7317.5925 301.6082 801.2351 909.4091 29533.0458 -87.5456 -6.8344
ENERGY: 1500000 2.6776 5.7698 4.6059 0.0000 -10394.5956 1359.8415 0.0000 0.0000 1743.7720 -7277.9288 301.7558 -9021.7008 -7307.6144 300.8683 -241.7294 -135.6138 30075.5766 -193.6224 -115.1671
TCL: Running FEP window   3: Lambda1 0.8999999999999999 Lambda2 0.8499999999999999 [dLambda -0.050000000000000044]
TCL: Setting parameter firsttimestep to 0
TCL: Setting parameter alchLambda to 0.8999999999999999
Info: NONBONDED TABLE R-SQUARED SPACING: 0.0625
Info: NONBONDED TABLE SIZE: 705 POINTS
TCL: Setting parameter alchLambda2 to 0.8499999999999999
Info: NONBONDED TABLE R-SQUARED SPACING: 0.0625
Info: NONBONDED TABLE SIZE: 705 POINTS
TCL: Running for 1500000 steps
ETITLE: TS BOND ANGLE DIHED IMPRP ELECT VDW BOUNDARY MISC KINETIC TOTAL TEMP POTENTIAL TOTALAVG TEMPAVG PRESSURE GPRESSURE VOLUME PRESSAVG GPRESSAVG
ENERGY: 0 2.6776 5.7698 4.6059 0.0000 -10393.2128 1359.6166 0.0000 0.0000 1742.9283 -7277.6146 301.6098 -9020.5430 -7277.6146 301.6098 -239.0539 -147.3914 30075.5766 -239.0539 -147.3914
ENERGY: 300000 4.9253 7.7994 8.0672 0.0000 -10487.9135 1377.7528 0.0000 0.0000 1732.8315 -7356.5373 299.8626 -9089.3688 -7300.7512 298.6246 -28.3586 -24.8566 29567.2253 271.8108 323.5636
ENERGY: 600000 5.9058 6.5935 3.8917 0.0000 -10489.6519 1397.7814 0.0000 0.0000 1725.3223 -7350.1572 298.5632 -9075.4796 -7313.0356 298.0222 -364.4759 -350.4612 30313.8271 75.5689 115.0233
ENERGY: 900000 2.6888 4.9856 6.7823 0.0000 -10452.9498 1361.3136 0.0000 0.0000 1735.9182 -7341.2613 300.3968 -9077.1795 -7321.1156 298.0753 -586.0000 -568.3042 30058.0558 89.4320 133.8834
ENERGY: 1200000 4.8641 3.5344 7.3399 0.0000 -10571.2451 1479.4624 0.0000 0.0000 1692.7763 -7383.2680 292.9311 -9076.0443 -7326.4742 298.2978 629.7472 702.0181 29768.2535 164.2564 212.3328
ENERGY: 1500000 3.1540 3.3417 8.0424 0.0000 -10476.6871 1428.0544 0.0000 0.0000 1712.8233 -7321.2713 296.4002 -9034.0946 -7326.1509 298.7520 101.8010 176.6921 30025.4110 149.0771 202.6558
TCL: Running FEP window   4: Lambda1 0.8499999999999999 Lambda2 0.7999999999999998 [dLambda -0.050000000000000044]
TCL: Setting parameter firsttimestep to 0
TCL: Setting parameter alchLambda to 0.8499999999999999
Info: NONBONDED TABLE R-SQUARED SPACING: 0.0625
Info: NONBONDED TABLE SIZE: 705 POINTS
TCL: Setting parameter alchLambda2 to 0.7999999999999998
Info: NONBONDED TABLE R-SQUARED SPACING: 0.0625
Info: NONBONDED TABLE SIZE: 705 POINTS
TCL: Running for 1500000 steps
ETITLE: TS BOND ANGLE DIHED IMPRP ELECT VDW BOUNDARY MISC KINETIC TOTAL TEMP POTENTIAL TOTALAVG TEMPAVG PRESSURE GPRESSURE VOLUME PRESSAVG GPRESSAVG
ENERGY: 0 3.1540 3.3417 8.0424 0.0000 -10475.4361 1427.8122 0.0000 0.0000 1711.9549 -7321.1309 296.2500 -9033.0858 -7321.1309 296.2500 84.4406 160.2952 30025.4110 84.4406 160.2952
ENERGY: 300000 4.9717 5.7542 6.1657 0.0000 -10492.5037 1380.5798 0.0000 0.0000 1760.0205 -7335.0117 304.5676 -9095.0322 -7300.8563 300.8281 -180.7250 -136.1303 29889.2857 -170.1764 -110.3918
ENERGY: 600000 7.5252 4.7794 8.3928 0.0000 -10518.9868 1392.0963 0.0000 0.0000 1717.8178 -7388.3752 297.2645 -9106.1930 -7321.4894 300.5722 -451.3929 -322.1793 29758.6763 39.0973 108.9407
ENERGY: 900000 3.6575 8.2455 3.4706 0.0000 -10325.0199 1305.0219 0.0000 0.0000 1712.7391 -7291.8852 296.3857 -9004.6243 -7320.1576 299.4861 -1065.3798 -945.1020 30480.6973 -158.1996 -83.8440
ENERGY: 1200000 6.8456 9.7565 2.7650 0.0000 -10298.5190 1261.6803 0.0000 0.0000 1683.7447 -7333.7269 291.3683 -9017.4717 -7324.4026 298.2108 -1304.1833 -1242.9251 30009.0295 -219.4393 -143.8740
ENERGY: 1500000 2.9477 9.5483 9.9486 0.0000 -10517.9075 1433.9202 0.0000 0.0000 1679.2334 -7382.3092 290.5876 -9061.5427 -7326.2968 297.2716 125.4761 177.8322 29715.7276 -183.5872 -109.3106
TCL: Running FEP window   5: Lambda1 0.7999999999999998 Lambda2 0.7499999999999998 [dLambda -0.050000000000000044]
TCL: Setting parameter firsttimestep to 0
TCL: Setting parameter alchLambda to 0.7999999999999998
Info: NONBONDED TABLE R-SQUARED SPACING: 0.0625
Info: NONBONDED TABLE SIZE: 705 POINTS
TCL: Setting parameter alchLambda2 to 0.7499999999999998
Info: NONBONDED TABLE R-SQUARED SPACING: 0.0625
Info: NONBONDED TABLE SIZE: 705 POINTS
TCL: Running for 1500000 steps
ETITLE: TS BOND ANGLE DIHED IMPRP ELECT VDW BOUNDARY MISC KINETIC TOTAL TEMP POTENTIAL TOTALAVG TEMPAVG PRESSURE GPRESSURE VOLUME PRESSAVG GPRESSAVG
ENERGY: 0 2.9477 9.5483 9.9486 0.0000 -10516.5912 1433.9443 0.0000 0.0000 1678.4054 -7381.7969 290.4443 -9060.2023 -7381.7969 290.4443 95.7516 170.1336 29715.7276 95.7516 170.1336
ENERGY: 300000 3.3334 9.4675 9.5779 0.0000 -10428.2442 1385.1164 0.0000 0.0000 1702.8883 -7317.8605 294.6810 -9020.7489 -7334.9368 297.0762 -110.0333 -17.4601 30028.6686 -243.7732 -189.5952
ENERGY: 600000 1.8788 6.3337 7.8786 0.0000 -10328.5634 1364.9347 0.0000 0.0000 1759.8510 -7187.6866 304.5383 -8947.5376 -7302.3160 299.3113 -99.9234 -120.6774 30466.6776 -216.8622 -164.1777
ENERGY: 900000 3.3542 5.7796 6.9197 0.0000 -10390.5218 1314.9453 0.0000 0.0000 1691.6454 -7367.8776 292.7355 -9059.5230 -7309.0622 299.0743 -945.9676 -898.6780 30184.0709 -79.5795 -30.6270
ENERGY: 1200000 5.6159 3.7437 7.3000 0.0000 -10629.0985 1536.5021 0.0000 0.0000 1744.9699 -7330.9669 301.9631 -9075.9368 -7311.6337 299.5769 649.9047 693.3956 29970.7474 -38.0329 4.1546
ENERGY: 1500000 4.4028 9.0834 5.4782 0.0000 -10430.0805 1365.5809 0.0000 0.0000 1735.2619 -7310.2732 300.2832 -9045.5351 -7320.2005 299.6524 -473.1537 -468.2889 30074.8177 -32.9020 9.8339
TCL: Running FEP window   6: Lambda1 0.7499999999999998 Lambda2 0.6999999999999997 [dLambda -0.050000000000000044]
TCL: Setting parameter firsttimestep to 0
TCL: Setting parameter alchLambda to 0.7499999999999998
Info: NONBONDED TABLE R-SQUARED SPACING: 0.0625
Info: NONBONDED TABLE SIZE: 705 POINTS
TCL: Setting parameter alchLambda2 to 0.6999999999999997
Info: NONBONDED TABLE R-SQUARED SPACING: 0.0625
Info: NONBONDED TABLE SIZE: 705 POINTS
TCL: Running for 1500000 steps
ETITLE: TS BOND ANGLE DIHED IMPRP ELECT VDW BOUNDARY MISC KINETIC TOTAL TEMP POTENTIAL TOTALAVG TEMPAVG PRESSURE GPRESSURE VOLUME PRESSAVG GPRESSAVG
ENERGY: 0 4.4028 9.0834 5.4782 0.0000 -10429.4218 1366.0907 0.0000 0.0000 1734.3877 -7309.9789 300.1319 -9044.3666 -7309.9789 300.1319 -543.6487 -469.5992 30074.8177 -543.6487 -469.5992
ENERGY: 300000 2.9727 10.4914 4.6030 0.0000 -10520.0094 1438.0265 0.0000 0.0000 1727.4046 -7336.5113 298.9235 -9063.9159 -7331.6092 298.4206 405.7308 508.8579 29660.7958 -45.0744 35.0978
ENERGY: 600000 3.1264 4.2279 7.7966 0.0000 -10447.4553 1391.1073 0.0000 0.0000 1682.2348 -7358.9624 291.1070 -9041.1971 -7331.9127 297.4698 -210.4331 -167.8484 30337.7902 -142.4733 -86.7457
ENERGY: 900000 4.0422 8.3946 8.1290 0.0000 -10624.7196 1439.9551 0.0000 0.0000 1696.8900 -7467.3088 293.6430 -9164.1988 -7347.8886 296.6395 -152.2775 -6.6808 29684.4251 -159.1803 -84.8109
ENERGY: 1200000 1.6351 9.4316 4.2374 0.0000 -10237.5307 1265.0199 0.0000 0.0000 1764.5512 -7192.6555 305.3516 -8957.2067 -7327.1432 298.7411 -1127.8768 -1058.5030 30590.4626 -172.6810 -99.2969
ENERGY: 1500000 2.7269 5.3646 9.2119 0.0000 -10365.6726 1363.1366 0.0000 0.0000 1785.2404 -7199.9922 308.9319 -8985.2326 -7313.0774 299.9412 -171.6940 -105.7707 30012.6167 -56.5870 10.9711
TCL: Running FEP window   7: Lambda1 0.6999999999999997 Lambda2 0.6499999999999997 [dLambda -0.050000000000000044]
TCL: Setting parameter firsttimestep to 0
TCL: Setting parameter alchLambda to 0.6999999999999997
Info: NONBONDED TABLE R-SQUARED SPACING: 0.0625
Info: NONBONDED TABLE SIZE: 705 POINTS
TCL: Setting parameter alchLambda2 to 0.6499999999999997
Info: NONBONDED TABLE R-SQUARED SPACING: 0.0625
Info: NONBONDED TABLE SIZE: 705 POINTS
TCL: Running for 1500000 steps
ETITLE: TS BOND ANGLE DIHED IMPRP ELECT VDW BOUNDARY MISC KINETIC TOTAL TEMP POTENTIAL TOTALAVG TEMPAVG PRESSURE GPRESSURE VOLUME PRESSAVG GPRESSAVG
ENERGY: 0 2.7269 5.3646 9.2119 0.0000 -10364.7360 1363.2430 0.0000 0.0000 1784.3672 -7199.8225 308.7807 -8984.1896 -7199.8225 308.7807 -189.1160 -114.5374 30012.6167 -189.1160 -114.5374
ENERGY: 300000 1.7387 7.1277 4.8171 0.0000 -10496.5577 1354.9223 0.0000 0.0000 1747.0381 -7380.9138 302.3210 -9127.9519 -7297.0051 303.4264 -451.1796 -384.1065 29490.1189 72.4850 130.0860
ENERGY: 600000 2.4949 6.7234 8.7310 0.0000 -10481.2392 1399.4632 0.0000 0.0000 1729.8864 -7333.9403 299.3530 -9063.8267 -7317.2510 301.3211 -149.9820 -75.9626 30061.2632 95.5017 143.9625
ENERGY: 900000 3.4644 5.1596 9.8287 0.0000 -10455.6450 1382.8081 0.0000 0.0000 1722.6011 -7331.7831 298.0923 -9054.3842 -7299.5108 301.8149 -439.4824 -312.3438 29951.5949 -40.2592 14.0327
ENERGY: 1200000 4.6689 4.8459 7.9559 0.0000 -10362.0201 1381.4694 0.0000 0.0000 1757.1291 -7205.9510 304.0673 -8963.0801 -7285.7519 302.8723 -107.8308 -71.7836 30037.0298 -42.9432 4.3279
ENERGY: 1500000 4.1306 9.7486 8.7338 0.0000 -10371.7377 1332.8616 0.0000 0.0000 1717.3197 -7298.9433 297.1783 -9016.2630 -7294.3283 302.0259 -710.0556 -642.8170 30023.4508 -115.9469 -67.4524
TCL: Running FEP window   8: Lambda1 0.6499999999999997 Lambda2 0.5999999999999996 [dLambda -0.050000000000000044]
TCL: Setting parameter firsttimestep to 0
TCL: Setting parameter alchLambda to 0.6499999999999997
Info: NONBONDED TABLE R-SQUARED SPACING: 0.0625
Info: NONBONDED TABLE SIZE: 705 POINTS
TCL: Setting parameter alchLambda2 to 0.5999999999999996
Info: NONBONDED TABLE R-SQUARED SPACING: 0.0625
Info: NONBONDED TABLE SIZE: 705 POINTS
TCL: Running for 1500000 steps
ETITLE: TS BOND ANGLE DIHED IMPRP ELECT VDW BOUNDARY MISC KINETIC TOTAL TEMP POTENTIAL TOTALAVG TEMPAVG PRESSURE GPRESSURE VOLUME PRESSAVG GPRESSAVG
ENERGY: 0 4.1306 9.7486 8.7338 0.0000 -10370.0954 1332.5564 0.0000 0.0000 1716.5033 -7298.4227 297.0370 -9014.9259 -7298.4227 297.0370 -726.3020 -654.5296 30023.4508 -726.3020 -654.5296
ENERGY: 300000 2.2350 4.1736 11.7448 0.0000 -10514.5110 1464.1082 0.0000 0.0000 1785.3562 -7246.8934 308.9519 -9032.2496 -7304.7119 301.6246 783.6441 826.6707 29411.2383 -125.3094 -76.7037
ENERGY: 600000 2.9244 7.5346 6.9309 0.0000 -10401.3998 1319.9619 0.0000 0.0000 1699.6657 -7364.3822 294.1234 -9064.0480 -7308.1610 300.2637 -874.9320 -837.0616 29902.4915 -137.8365 -92.4120
ENERGY: 900000 2.2961 7.8744 7.5435 0.0000 -10648.0640 1485.1411 0.0000 0.0000 1709.4984 -7435.7104 295.8249 -9145.2088 -7330.7942 299.5523 463.2580 578.2766 29654.8468 -16.4623 41.6955
ENERGY: 1200000 3.8199 4.8875 7.9670 0.0000 -10352.3272 1303.9408 0.0000 0.0000 1748.2015 -7283.5105 302.5224 -9031.7120 -7333.1338 299.6546 -359.8935 -332.0544 29163.1871 3.8674 63.0250
ENERGY: 1500000 5.4879 5.8725 5.4038 0.0000 -10492.6409 1397.4305 0.0000 0.0000 1630.7649 -7447.6814 282.2002 -9078.4462 -7341.5112 299.7254 -518.3245 -431.7444 30058.8355 -102.0042 -41.9233
TCL: Running FEP window   9: Lambda1 0.5999999999999996 Lambda2 0.5499999999999996 [dLambda -0.050000000000000044]
TCL: Setting parameter firsttimestep to 0
TCL: Setting parameter alchLambda to 0.5999999999999996
Info: NONBONDED TABLE R-SQUARED SPACING: 0.0625
Info: NONBONDED TABLE SIZE: 705 POINTS
TCL: Setting parameter alchLambda2 to 0.5499999999999996
Info: NONBONDED TABLE R-SQUARED SPACING: 0.0625
Info: NONBONDED TABLE SIZE: 705 POINTS
TCL: Running for 1500000 steps
ETITLE: TS BOND ANGLE DIHED IMPRP ELECT VDW BOUNDARY MISC KINETIC TOTAL TEMP POTENTIAL TOTALAVG TEMPAVG PRESSURE GPRESSURE VOLUME PRESSAVG GPRESSAVG
ENERGY: 0 5.4879 5.8725 5.4038 0.0000 -10491.7757 1397.4871 0.0000 0.0000 1629.9147 -7447.6097 282.0531 -9077.5245 -7447.6097 282.0531 -533.7341 -437.8166 30058.8355 -533.7341 -437.8166
ENERGY: 300000 3.9408 6.9216 6.5123 0.0000 -10458.3583 1389.7114 0.0000 0.0000 1702.4740 -7348.7982 294.6093 -9051.2723 -7352.3338 293.6058 -426.6348 -361.4069 30134.1831 -261.8076 -189.4401
ENERGY: 600000 4.8512 11.0385 7.5098 0.0000 -10401.6255 1373.1856 0.0000 0.0000 1726.4684 -7278.5719 298.7615 -9005.0404 -7332.4440 296.4584 -140.1548 -132.9617 29851.0185 -170.5954 -106.3748
ENERGY: 900000 7.1945 11.2373 7.4065 0.0000 -10392.7639 1320.1106 0.0000 0.0000 1731.7101 -7315.1048 299.6686 -9046.8149 -7334.8019 296.7731 -977.3934 -934.6882 30143.5506 -159.7977 -96.2676
ENERGY: 1200000 2.5108 4.7889 4.3284 0.0000 -10440.9122 1395.2082 0.0000 0.0000 1783.5854 -7250.4906 308.6455 -9034.0760 -7318.4875 298.0952 94.5740 155.4144 29740.0999 -187.3350 -117.6952
ENERGY: 1500000 2.3783 3.6702 7.3802 0.0000 -10539.3020 1451.4125 0.0000 0.0000 1670.4810 -7403.9798 289.0730 -9074.4608 -7327.8097 298.2676 263.0490 283.2407 29771.5502 -174.9023 -114.1760
TCL: Running FEP window  10: Lambda1 0.5499999999999996 Lambda2 0.4999999999999996 [dLambda -0.04999999999999999]
TCL: Setting parameter firsttimestep to 0
TCL: Setting parameter alchLambda to 0.5499999999999996
Info: NONBONDED TABLE R-SQUARED SPACING: 0.0625
Info: NONBONDED TABLE SIZE: 705 POINTS
TCL: Setting parameter alchLambda2 to 0.4999999999999996
Info: NONBONDED TABLE R-SQUARED SPACING: 0.0625
Info: NONBONDED TABLE SIZE: 705 POINTS
TCL: Running for 1500000 steps
ETITLE: TS BOND ANGLE DIHED IMPRP ELECT VDW BOUNDARY MISC KINETIC TOTAL TEMP POTENTIAL TOTALAVG TEMPAVG PRESSURE GPRESSURE VOLUME PRESSAVG GPRESSAVG
ENERGY: 0 2.3783 3.6702 7.3802 0.0000 -10538.6263 1451.9811 0.0000 0.0000 1669.6386 -7403.5780 288.9272 -9073.2165 -7403.5780 288.9272 195.0302 279.7620 29771.5502 195.0302 279.7620
ENERGY: 300000 2.1669 7.8162 5.9112 0.0000 -10452.5748 1381.6382 0.0000 0.0000 1710.3712 -7344.6712 295.9759 -9055.0424 -7289.7109 298.3984 -397.7176 -371.4046 29968.1736 54.2367 111.7512
ENERGY: 600000 1.3409 8.7064 9.5463 0.0000 -10494.6634 1420.4717 0.0000 0.0000 1651.2013 -7403.3969 285.7367 -9054.5982 -7304.4095 299.0935 35.3946 65.6118 29795.6064 152.6386 205.1816
ENERGY: 900000 2.4840 8.1388 8.4998 0.0000 -10483.0993 1437.7582 0.0000 0.0000 1732.7235 -7293.4950 299.8439 -9026.2185 -7316.9921 299.5489 314.1646 383.3947 29729.8083 260.1932 306.9966
ENERGY: 1200000 3.3004 6.6871 5.8583 0.0000 -10507.2416 1396.0224 0.0000 0.0000 1794.3697 -7301.0038 310.5117 -9095.3735 -7303.7665 300.6869 -93.8151 -29.3327 29704.8471 158.5462 212.7555
ENERGY: 1500000 4.8165 6.4259 5.4681 0.0000 -10481.5341 1344.3260 0.0000 0.0000 1753.7653 -7366.7323 303.4852 -9120.4976 -7295.6654 301.1765 -866.9977 -814.3883 30121.1129 45.5877 99.7438
TCL: Running FEP window  11: Lambda1 0.4999999999999996 Lambda2 0.4499999999999996 [dLambda -0.04999999999999999]
TCL: Setting parameter firsttimestep to 0
TCL: Setting parameter alchLambda to 0.4999999999999996
Info: NONBONDED TABLE R-SQUARED SPACING: 0.0625
Info: NONBONDED TABLE SIZE: 705 POINTS
TCL: Setting parameter alchLambda2 to 0.4499999999999996
Info: NONBONDED TABLE R-SQUARED SPACING: 0.0625
Info: NONBONDED TABLE SIZE: 705 POINTS
TCL: Running for 1500000 steps
ETITLE: TS BOND ANGLE DIHED IMPRP ELECT VDW BOUNDARY MISC KINETIC TOTAL TEMP POTENTIAL TOTALAVG TEMPAVG PRESSURE GPRESSURE VOLUME PRESSAVG GPRESSAVG
ENERGY: 0 4.8165 6.4259 5.4681 0.0000 -10481.6432 1344.3639 0.0000 0.0000 1752.8990 -7367.6697 303.3353 -9120.5687 -7367.6697 303.3353 -896.4014 -823.6613 30121.1129 -896.4014 -823.6613
ENERGY: 300000 2.4139 7.5312 9.5122 0.0000 -10528.3795 1458.0145 0.0000 0.0000 1742.1552 -7308.7526 301.4761 -9050.9077 -7349.4272 301.1281 376.1877 426.3533 29840.7780 -102.0116 -20.4073
ENERGY: 600000 7.3944 4.7333 11.8454 0.0000 -10490.4095 1358.8359 0.0000 0.0000 1724.3086 -7383.2918 298.3878 -9107.6005 -7333.7549 300.7939 -679.4338 -653.5075 30106.4779 -154.6445 -87.4412
ENERGY: 900000 2.6356 4.8085 12.7996 0.0000 -10601.5437 1458.0644 0.0000 0.0000 1773.4830 -7349.7526 306.8973 -9123.2356 -7337.4536 301.6751 249.3611 289.4394 29798.6863 -136.1639 -72.7613
ENERGY: 1200000 4.7863 7.5009 7.6668 0.0000 -10626.9560 1483.8422 0.0000 0.0000 1747.7849 -7375.3749 302.4503 -9123.1598 -7336.5074 301.3839 381.2868 490.0504 29554.5692 1.9220 71.0075
ENERGY: 1500000 4.6729 7.1727 6.3665 0.0000 -10546.4987 1392.7658 0.0000 0.0000 1709.4868 -7426.0340 295.8229 -9135.5208 -7347.0275 300.7949 -487.2327 -413.1210 29778.8071 -69.2195 0.2182
TCL: Running FEP window  12: Lambda1 0.4499999999999996 Lambda2 0.39999999999999963 [dLambda -0.04999999999999999]
TCL: Setting parameter firsttimestep to 0
TCL: Setting parameter alchLambda to 0.4499999999999996
Info: NONBONDED TABLE R-SQUARED SPACING: 0.0625
Info: NONBONDED TABLE SIZE: 705 POINTS
TCL: Setting parameter alchLambda2 to 0.39999999999999963
Info: NONBONDED TABLE R-SQUARED SPACING: 0.0625
Info: NONBONDED TABLE SIZE: 705 POINTS
TCL: Running for 1500000 steps
ETITLE: TS BOND ANGLE DIHED IMPRP ELECT VDW BOUNDARY MISC KINETIC TOTAL TEMP POTENTIAL TOTALAVG TEMPAVG PRESSURE GPRESSURE VOLUME PRESSAVG GPRESSAVG
ENERGY: 0 4.6729 7.1727 6.3665 0.0000 -10546.5005 1392.7461 0.0000 0.0000 1708.6295 -7426.9128 295.6745 -9135.5423 -7426.9128 295.6745 -506.1162 -421.7905 29778.8071 -506.1162 -421.7905
ENERGY: 300000 3.7682 5.6329 9.1097 0.0000 -10394.0760 1351.2936 0.0000 0.0000 1731.6816 -7292.5899 299.6636 -9024.2715 -7331.9186 298.1919 -169.7827 -170.5200 29900.0472 -375.3893 -332.7361
ENERGY: 600000 1.0305 4.1320 10.1240 0.0000 -10413.2071 1374.8646 0.0000 0.0000 1717.7976 -7305.2584 297.2610 -9023.0560 -7328.9175 297.6739 -449.3227 -371.6031 30169.5079 -218.3996 -165.0690
ENERGY: 900000 5.7315 11.5640 8.8614 0.0000 -10561.8509 1443.3784 0.0000 0.0000 1762.4754 -7329.8401 304.9924 -9092.3156 -7323.9318 300.0604 276.4205 350.8631 29716.0117 -137.7062 -74.7858
ENERGY: 1200000 8.1399 4.5224 4.4199 0.0000 -10436.9283 1328.8176 0.0000 0.0000 1732.7223 -7358.3060 299.8437 -9091.0284 -7324.1861 299.2862 -874.4623 -822.4982 29845.4008 -228.6840 -167.1101
ENERGY: 1500000 3.1202 5.0686 6.7832 0.0000 -10532.0479 1444.7008 0.0000 0.0000 1728.6607 -7343.7145 299.1409 -9072.3752 -7337.4303 298.5776 492.5492 539.8976 29469.4598 -160.5647 -101.6014
TCL: Running FEP window  13: Lambda1 0.39999999999999963 Lambda2 0.34999999999999964 [dLambda -0.04999999999999999]
TCL: Setting parameter firsttimestep to 0
TCL: Setting parameter alchLambda to 0.39999999999999963
Info: NONBONDED TABLE R-SQUARED SPACING: 0.0625
Info: NONBONDED TABLE SIZE: 705 POINTS
TCL: Setting parameter alchLambda2 to 0.34999999999999964
Info: NONBONDED TABLE R-SQUARED SPACING: 0.0625
Info: NONBONDED TABLE SIZE: 705 POINTS
TCL: Running for 1500000 steps
ETITLE: TS BOND ANGLE DIHED IMPRP ELECT VDW BOUNDARY MISC KINETIC TOTAL TEMP POTENTIAL TOTALAVG TEMPAVG PRESSURE GPRESSURE VOLUME PRESSAVG GPRESSAVG
ENERGY: 0 3.1202 5.0686 6.7832 0.0000 -10532.0475 1444.6429 0.0000 0.0000 1727.7600 -7344.6726 298.9850 -9072.4326 -7344.6726 298.9850 453.7428 531.4199 29469.4598 453.7428 531.4199
ENERGY: 300000 5.5832 7.4864 6.0977 0.0000 -10488.6410 1444.6530 0.0000 0.0000 1799.1397 -7225.6810 311.3371 -9024.8206 -7330.0120 302.7287 98.9835 182.9857 30100.7292 574.1931 635.5679
ENERGY: 600000 2.2412 8.0409 6.5740 0.0000 -10449.0104 1429.3615 0.0000 0.0000 1783.8383 -7218.9544 308.6892 -9002.7927 -7294.7717 302.8893 227.5733 301.3550 30091.9470 348.6670 411.2608
ENERGY: 900000 3.4949 7.2131 3.2077 0.0000 -10301.5662 1243.2496 0.0000 0.0000 1734.5806 -7309.8202 300.1653 -9044.4008 -7305.2100 301.7532 -1392.9775 -1336.7455 30015.8198 111.7747 181.5493
ENERGY: 1200000 5.9656 7.1504 8.9130 0.0000 -10570.5096 1497.5899 0.0000 0.0000 1764.2490 -7286.6417 305.2993 -9050.8907 -7298.8506 302.0027 840.3796 898.9891 29606.9474 165.7710 230.5605
ENERGY: 1500000 3.2591 9.2722 13.0955 0.0000 -10476.0668 1362.6520 0.0000 0.0000 1735.2169 -7352.5712 300.2754 -9087.7881 -7300.7715 301.9636 -270.5296 -208.7449 29643.1567 128.2163 189.0034
TCL: Running FEP window  14: Lambda1 0.34999999999999964 Lambda2 0.29999999999999966 [dLambda -0.04999999999999999]
TCL: Setting parameter firsttimestep to 0
TCL: Setting parameter alchLambda to 0.34999999999999964
Info: NONBONDED TABLE R-SQUARED SPACING: 0.0625
Info: NONBONDED TABLE SIZE: 705 POINTS
TCL: Setting parameter alchLambda2 to 0.29999999999999966
Info: NONBONDED TABLE R-SQUARED SPACING: 0.0625
Info: NONBONDED TABLE SIZE: 705 POINTS
TCL: Running for 1500000 steps
ETITLE: TS BOND ANGLE DIHED IMPRP ELECT VDW BOUNDARY MISC KINETIC TOTAL TEMP POTENTIAL TOTALAVG TEMPAVG PRESSURE GPRESSURE VOLUME PRESSAVG GPRESSAVG
ENERGY: 0 3.2591 9.2722 13.0955 0.0000 -10476.0663 1363.1148 0.0000 0.0000 1734.3449 -7352.9798 300.1245 -9087.3247 -7352.9798 300.1245 -276.5599 -212.1997 29643.1567 -276.5599 -212.1997
ENERGY: 300000 2.1990 6.7447 11.7825 0.0000 -10430.6871 1360.2244 0.0000 0.0000 1723.2380 -7326.4985 298.2025 -9049.7366 -7341.2939 298.1546 -248.0885 -163.6748 29764.3393 208.6005 286.5861
ENERGY: 600000 3.4589 7.5756 5.7966 0.0000 -10386.5669 1403.3448 0.0000 0.0000 1686.6841 -7279.7069 291.8769 -8966.3910 -7322.8352 297.4575 59.9835 118.3364 30201.9048 83.4685 157.8987
ENERGY: 900000 4.0799 3.9069 8.7114 0.0000 -10502.9734 1436.5054 0.0000 0.0000 1715.0554 -7334.7144 296.7865 -9049.7698 -7319.5414 297.7066 130.7905 208.9099 29709.1950 13.1376 90.9282
ENERGY: 1200000 1.6044 8.6441 8.3276 0.0000 -10362.0463 1419.4990 0.0000 0.0000 1739.1827 -7184.7885 300.9617 -8923.9712 -7311.0171 298.0049 367.7714 455.3409 30008.0954 66.2389 136.4027
ENERGY: 1500000 3.5246 4.5759 5.4786 0.0000 -10600.4006 1509.6835 0.0000 0.0000 1773.7273 -7303.4106 306.9395 -9077.1379 -7306.6233 299.5415 739.7049 824.1889 29528.8831 98.1879 170.1334
TCL: Running FEP window  15: Lambda1 0.29999999999999966 Lambda2 0.24999999999999967 [dLambda -0.04999999999999999]
TCL: Setting parameter firsttimestep to 0
TCL: Setting parameter alchLambda to 0.29999999999999966
Info: NONBONDED TABLE R-SQUARED SPACING: 0.0625
Info: NONBONDED TABLE SIZE: 705 POINTS
TCL: Setting parameter alchLambda2 to 0.24999999999999967
Info: NONBONDED TABLE R-SQUARED SPACING: 0.0625
Info: NONBONDED TABLE SIZE: 705 POINTS
TCL: Running for 1500000 steps
ETITLE: TS BOND ANGLE DIHED IMPRP ELECT VDW BOUNDARY MISC KINETIC TOTAL TEMP POTENTIAL TOTALAVG TEMPAVG PRESSURE GPRESSURE VOLUME PRESSAVG GPRESSAVG
ENERGY: 0 3.5246 4.5759 5.4786 0.0000 -10600.4003 1510.4735 0.0000 0.0000 1772.8840 -7303.4637 306.7936 -9076.3477 -7303.4637 306.7936 735.5660 823.6400 29528.8831 735.5660 823.6400
ENERGY: 300000 4.3181 10.2842 9.2258 0.0000 -10434.5428 1356.6534 0.0000 0.0000 1735.5945 -7318.4668 300.3407 -9054.0613 -7312.0145 303.0375 -360.2167 -312.8217 29634.4008 16.8334 61.4992
ENERGY: 600000 5.8569 10.6506 5.7347 0.0000 -10567.2674 1480.9968 0.0000 0.0000 1766.9352 -7297.0932 305.7642 -9064.0284 -7296.5981 303.8758 583.4533 579.8452 29912.7933 90.7615 122.5162
ENERGY: 900000 2.0677 5.9611 7.4797 0.0000 -10604.2618 1485.6550 0.0000 0.0000 1742.0096 -7361.0886 301.4509 -9103.0982 -7300.5334 303.1845 567.2257 558.8150 29348.8842 43.5813 80.1251
ENERGY: 1200000 3.1359 6.6444 7.2996 0.0000 -10527.0775 1371.5266 0.0000 0.0000 1717.3617 -7421.1093 297.1856 -9138.4710 -7314.1153 301.2647 -467.5539 -439.3695 29447.1302 -56.3432 -17.2191
ENERGY: 1500000 2.6844 11.6900 8.4478 0.0000 -10509.8541 1463.2939 0.0000 0.0000 1714.7601 -7308.9779 296.7354 -9023.7380 -7317.6722 301.3454 275.1135 331.3592 30079.2903 -16.7339 26.0209
TCL: Running FEP window  16: Lambda1 0.24999999999999967 Lambda2 0.19999999999999968 [dLambda -0.04999999999999999]
TCL: Setting parameter firsttimestep to 0
TCL: Setting parameter alchLambda to 0.24999999999999967
Info: NONBONDED TABLE R-SQUARED SPACING: 0.0625
Info: NONBONDED TABLE SIZE: 705 POINTS
TCL: Setting parameter alchLambda2 to 0.19999999999999968
Info: NONBONDED TABLE R-SQUARED SPACING: 0.0625
Info: NONBONDED TABLE SIZE: 705 POINTS
TCL: Running for 1500000 steps
ETITLE: TS BOND ANGLE DIHED IMPRP ELECT VDW BOUNDARY MISC KINETIC TOTAL TEMP POTENTIAL TOTALAVG TEMPAVG PRESSURE GPRESSURE VOLUME PRESSAVG GPRESSAVG
ENERGY: 0 2.6844 11.6900 8.4478 0.0000 -10509.8532 1463.5635 0.0000 0.0000 1713.8519 -7309.6157 296.5782 -9023.4675 -7309.6157 296.5782 243.4563 328.8066 30079.2903 243.4563 328.8066
ENERGY: 300000 2.3768 8.8763 4.7917 0.0000 -10578.3508 1496.9100 0.0000 0.0000 1716.7562 -7348.6397 297.0808 -9065.3959 -7317.7327 298.2796 809.6080 854.3624 29517.1425 341.6510 387.6294
ENERGY: 600000 2.6335 4.8209 5.2726 0.0000 -10446.1589 1423.2168 0.0000 0.0000 1784.8448 -7225.3703 308.8634 -9010.2152 -7331.0094 299.7008 -155.1980 -120.9229 30296.7294 144.9672 191.1869
ENERGY: 900000 4.1557 6.1030 3.0103 0.0000 -10524.1131 1466.1512 0.0000 0.0000 1758.7503 -7285.9427 304.3478 -9044.6930 -7309.7695 301.0789 420.6793 480.5914 29619.6953 68.7856 111.3001
ENERGY: 1200000 4.4182 7.0939 13.2362 0.0000 -10456.9727 1351.7291 0.0000 0.0000 1757.1991 -7323.2961 304.0794 -9080.4952 -7319.0874 300.6103 -481.7994 -482.6413 29888.5907 11.3102 60.1146
ENERGY: 1500000 7.3237 6.5885 8.2631 0.0000 -10479.6885 1422.5020 0.0000 0.0000 1678.2594 -7356.7518 290.4190 -9035.0112 -7325.4662 299.4179 60.6078 145.6467 29559.3134 -25.8847 24.2839
TCL: Running FEP window  17: Lambda1 0.19999999999999968 Lambda2 0.1499999999999997 [dLambda -0.04999999999999999]
TCL: Setting parameter firsttimestep to 0
TCL: Setting parameter alchLambda to 0.19999999999999968
Info: NONBONDED TABLE R-SQUARED SPACING: 0.0625
Info: NONBONDED TABLE SIZE: 705 POINTS
TCL: Setting parameter alchLambda2 to 0.1499999999999997
Info: NONBONDED TABLE R-SQUARED SPACING: 0.0625
Info: NONBONDED TABLE SIZE: 705 POINTS
TCL: Running for 1500000 steps
ETITLE: TS BOND ANGLE DIHED IMPRP ELECT VDW BOUNDARY MISC KINETIC TOTAL TEMP POTENTIAL TOTALAVG TEMPAVG PRESSURE GPRESSURE VOLUME PRESSAVG GPRESSAVG
ENERGY: 0 7.3238 6.5884 8.2631 0.0000 -10479.6872 1423.0227 0.0000 0.0000 1677.3553 -7357.1339 290.2626 -9034.4892 -7357.1339 290.2626 67.0970 145.5082 29559.3134 67.0970 145.5082
ENERGY: 300000 5.6484 6.3187 9.7369 0.0000 -10439.1394 1371.1639 0.0000 0.0000 1725.7936 -7320.4779 298.6447 -9046.2715 -7315.6054 299.0830 -476.7780 -425.1969 29849.8645 -3.7891 67.4120
ENERGY: 600000 1.9241 6.9305 10.0820 0.0000 -10420.7614 1401.8454 0.0000 0.0000 1723.7495 -7276.2299 298.2910 -8999.9794 -7285.1096 300.4593 73.5204 160.3937 29826.2056 -132.6663 -67.3033
ENERGY: 900000 1.9762 5.2119 7.9142 0.0000 -10397.1427 1313.4240 0.0000 0.0000 1693.4083 -7375.2080 293.0405 -9068.6163 -7297.6350 300.4550 -746.4646 -689.3642 29647.8259 -181.7061 -125.6667
ENERGY: 1200000 6.6754 4.1068 6.0503 0.0000 -10480.2041 1406.0560 0.0000 0.0000 1745.0982 -7312.2173 301.9853 -9057.3155 -7302.1239 299.8346 184.6763 235.3968 29339.2637 -289.6663 -234.9333
ENERGY: 1500000 2.2744 7.0223 8.9955 0.0000 -10673.7627 1498.1925 0.0000 0.0000 1747.7250 -7409.5530 302.4399 -9157.2780 -7315.8210 299.1530 489.4329 582.5040 29237.4029 -207.5425 -147.3961
TCL: Running FEP window  18: Lambda1 0.1499999999999997 Lambda2 0.09999999999999969 [dLambda -0.05 ]
TCL: Setting parameter firsttimestep to 0
TCL: Setting parameter alchLambda to 0.1499999999999997
Info: NONBONDED TABLE R-SQUARED SPACING: 0.0625
Info: NONBONDED TABLE SIZE: 705 POINTS
TCL: Setting parameter alchLambda2 to 0.09999999999999969
Info: NONBONDED TABLE R-SQUARED SPACING: 0.0625
Info: NONBONDED TABLE SIZE: 705 POINTS
TCL: Running for 1500000 steps
ETITLE: TS BOND ANGLE DIHED IMPRP ELECT VDW BOUNDARY MISC KINETIC TOTAL TEMP POTENTIAL TOTALAVG TEMPAVG PRESSURE GPRESSURE VOLUME PRESSAVG GPRESSAVG
ENERGY: 0 2.2745 7.0223 8.9955 0.0000 -10673.7616 1497.3546 0.0000 0.0000 1746.8590 -7411.2557 302.2900 -9158.1148 -7411.2557 302.2900 486.0336 574.4989 29237.4029 486.0336 574.4989
ENERGY: 300000 4.8094 6.4328 6.0239 0.0000 -10408.5857 1352.6217 0.0000 0.0000 1783.0929 -7255.6049 308.5602 -9038.6978 -7336.6462 303.0158 -333.5588 -286.0503 29681.1953 -232.4168 -168.4395
ENERGY: 600000 3.0657 4.6951 6.2615 0.0000 -10436.9021 1372.4761 0.0000 0.0000 1712.7041 -7337.6996 296.3796 -9050.4036 -7336.4144 300.2925 -352.5516 -289.2032 29929.2508 -418.3951 -354.1506
ENERGY: 900000 6.2548 9.6368 9.3052 0.0000 -10552.1746 1420.5920 0.0000 0.0000 1744.9372 -7361.4487 301.9575 -9106.3859 -7330.4267 300.6624 -7.3301 70.1961 29370.4233 -329.9112 -255.1063
ENERGY: 1200000 2.7005 5.6510 6.4361 0.0000 -10606.0142 1477.2082 0.0000 0.0000 1756.1054 -7357.9131 303.8901 -9114.0185 -7327.7593 300.4141 660.7721 738.1951 29372.3331 -239.0604 -167.9824
ENERGY: 1500000 4.5926 8.9133 5.6148 0.0000 -10515.7437 1380.3908 0.0000 0.0000 1739.5583 -7376.6739 301.0267 -9116.2323 -7323.0742 300.6365 -598.4872 -480.5963 29464.7320 -240.5111 -172.8003
TCL: Running FEP window  19: Lambda1 0.09999999999999969 Lambda2 0.049999999999999684 [dLambda -0.05 ]
TCL: Setting parameter firsttimestep to 0
TCL: Setting parameter alchLambda to 0.09999999999999969
Info: NONBONDED TABLE R-SQUARED SPACING: 0.0625
Info: NONBONDED TABLE SIZE: 705 POINTS
TCL: Setting parameter alchLambda2 to 0.049999999999999684
Info: NONBONDED TABLE R-SQUARED SPACING: 0.0625
Info: NONBONDED TABLE SIZE: 705 POINTS
TCL: Running for 1500000 steps
ETITLE: TS BOND ANGLE DIHED IMPRP ELECT VDW BOUNDARY MISC KINETIC TOTAL TEMP POTENTIAL TOTALAVG TEMPAVG PRESSURE GPRESSURE VOLUME PRESSAVG GPRESSAVG
ENERGY: 0 4.5926 8.9133 5.6148 0.0000 -10515.7442 1379.9068 0.0000 0.0000 1738.7054 -7378.0113 300.8791 -9116.7167 -7378.0113 300.8791 -575.4237 -487.5423 29464.7320 -575.4237 -487.5423
ENERGY: 300000 3.9750 4.6231 10.3848 0.0000 -10548.2813 1405.9368 0.0000 0.0000 1694.6975 -7428.6642 293.2636 -9123.3616 -7386.5000 295.8965 -252.0138 -181.8609 29461.6248 -101.5364 -30.1374
ENERGY: 600000 5.9280 7.8869 10.8693 0.0000 -10521.2439 1400.9699 0.0000 0.0000 1775.4489 -7320.1409 307.2375 -9095.5898 -7357.4131 298.5087 -155.5234 -82.7325 29476.0540 -156.5442 -80.2679
ENERGY: 900000 4.9025 10.1609 5.9172 0.0000 -10545.1586 1479.0489 0.0000 0.0000 1731.8502 -7313.2789 299.6928 -9045.1291 -7349.4761 298.5843 399.8175 462.5902 29904.1368 -32.0990 39.8094
ENERGY: 1200000 4.2318 8.0652 8.7657 0.0000 -10429.1357 1386.4555 0.0000 0.0000 1772.4129 -7249.2047 306.7121 -9021.6175 -7338.8658 299.0187 -112.9890 -30.7081 29490.8725 -86.8968 -16.2505
ENERGY: 1500000 5.2203 3.5383 5.8891 0.0000 -10595.2851 1500.7541 0.0000 0.0000 1688.7328 -7391.1505 292.2314 -9079.8833 -7336.9212 299.3073 602.4358 623.9704 29619.6873 9.3190 73.4763
TCL: Running FEP window  20: Lambda1 0.049999999999999684 Lambda2 0.0    [dLambda -0.049999999999999684]
TCL: Setting parameter firsttimestep to 0
TCL: Setting parameter alchLambda to 0.049999999999999684
Info: NONBONDED TABLE R-SQUARED SPACING: 0.0625
Info: NONBONDED TABLE SIZE: 705 POINTS
TCL: Setting parameter alchLambda2 to 0.0
Info: NONBONDED TABLE R-SQUARED SPACING: 0.0625
Info: NONBONDED TABLE SIZE: 705 POINTS
TCL: Running for 1500000 steps
ETITLE: TS BOND ANGLE DIHED IMPRP ELECT VDW BOUNDARY MISC KINETIC TOTAL TEMP POTENTIAL TOTALAVG TEMPAVG PRESSURE GPRESSURE VOLUME PRESSAVG GPRESSAVG
ENERGY: 0 5.2203 3.5382 5.8891 0.0000 -10595.2855 1500.4036 0.0000 0.0000 1687.8808 -7392.3534 292.0840 -9080.2342 -7392.3534 292.0840 540.1449 619.5188 29619.6873 540.1449 619.5188
ENERGY: 300000 1.6038 6.8065 4.2050 0.0000 -10607.5857 1542.2859 0.0000 0.0000 1759.5243 -7293.1602 304.4817 -9052.6845 -7324.8943 299.6356 1151.8016 1210.4980 29386.3831 517.5817 570.6234
ENERGY: 600000 3.5398 4.4547 8.3470 0.0000 -10485.2145 1405.7055 0.0000 0.0000 1709.4917 -7353.6757 295.8237 -9063.1675 -7311.9436 298.7730 -38.4345 -27.8477 29689.8480 220.7966 277.7688
ENERGY: 900000 2.8671 3.7111 5.4992 0.0000 -10570.4293 1468.2485 0.0000 0.0000 1748.7511 -7341.3524 302.6175 -9090.1035 -7309.9846 300.1189 292.1638 363.5587 29443.6727 182.9926 235.8060
ENERGY: 1200000 1.6321 8.4983 9.3733 0.0000 -10557.4610 1405.4235 0.0000 0.0000 1696.9072 -7435.6266 293.6460 -9132.5338 -7329.1967 299.6585 -178.1239 -113.0168 29359.3072 176.1887 228.4236
ENERGY: 1500000 3.8296 7.3778 12.5991 0.0000 -10436.8446 1340.8295 0.0000 0.0000 1760.9624 -7311.2463 304.7306 -9072.2087 -7338.0888 298.5858 -853.8963 -765.5318 29755.3006 131.3141 181.2365
TCL: Exiting due to exit command.
