Info: SIMULATION PARAMETERS:
Info: TIMESTEP               2
Info: NUMBER OF STEPS        0
Info: STEPS PER CYCLE        10
Info: PERIODIC CELL BASIS 1  29.2831 0 0
Info: PERIODIC CELL BASIS 2  0 29.6777 0
Info: PERIODIC CELL BASIS 3  0 0 34.8954
Info: PERIODIC CELL CENTER   0 0 0
Info: WRAPPING WATERS AROUND PERIODIC BOUNDARIES ON OUTPUT.
Info: WRAPPING ALL CLUSTERS AROUND PERIODIC BOUNDARIES ON OUTPUT.
Info: FIRST LDB TIMESTEP     50
Info: LAST LDB TIMESTEP     -1
Info: HOM BACKGROUND SCALING 1
Info: PME BACKGROUND SCALING 1
Info: MIN ATOMS PER PATCH    40
Info: EMPTY PATCH LOAD       40 ATOMS
Info: VELOCITY FILE          mobley_5456566_equil.vel
Info: CENTER OF MASS MOVING INITIALLY? NO
Info: DIELECTRIC             1
Info: EXCLUDE                SCALED ONE-FOUR
Info: 1-4 ELECTROSTATICS SCALED BY 0.833333
Info: MODIFIED 1-4 VDW PARAMETERS WILL BE USED
Info: DCD FILENAME           mobley_5456566_prod.dcd
Info: DCD FREQUENCY          100000
Info: DCD FIRST STEP         100000
Info: DCD FILE WILL CONTAIN UNIT CELL DATA
Info: XST FILENAME           mobley_5456566_prod.xst
Info: XST FREQUENCY          100000
Info: NO VELOCITY DCD OUTPUT
Info: NO FORCE DCD OUTPUT
Info: OUTPUT FILENAME        mobley_5456566_prod
Info: BINARY OUTPUT FILES WILL BE USED
Info: RESTART FILENAME       mobley_5456566_prod.restart
Info: RESTART FREQUENCY      100000
Info: BINARY RESTART FILES WILL BE USED
Info: CUTOFF                 9
Info: PAIRLIST DISTANCE      11
Info: PAIRLIST SHRINK RATE   0.01
Info: PAIRLIST GROW RATE     0.01
Info: PAIRLIST TRIGGER       0.3
Info: PAIRLISTS PER CYCLE    2
Info: PAIRLISTS ENABLED
Info: MARGIN                 2
Info: HYDROGEN GROUP CUTOFF  2.5
Info: PATCH DIMENSION        15.5
Info: ENERGY OUTPUT STEPS    100000
Info: ENERGY EVALUATION STEPS    100000
Info: OUTPUT ENERGY PRECISION 4
Info: CROSSTERM ENERGY INCLUDED IN DIHEDRAL
Info: TIMING OUTPUT STEPS    1000000
Info: PRESSURE OUTPUT STEPS  100000
Info: ALCHEMICAL FEP ON
Info: FEP CURRENT LAMBDA VALUE     0
Info: FEP COMPARISON LAMBDA VALUE  0.05
Info: FEP INTRA-ALCHEMICAL NON-BONDED INTERACTIONS WILL BE RETAINED
Info: FEP INTRA-ALCHEMICAL BONDED INTERACTIONS WILL BE RETAINED
Info: FEP VDW SHIFTING COEFFICIENT 5
Info: FEP ELEC. ACTIVE FOR ANNIHILATED PARTICLES BETWEEN LAMBDA = 0 AND LAMBDA = 0.5
Info: FEP ELEC. ACTIVE FOR EXNIHILATED PARTICLES BETWEEN LAMBDA = 0.5 AND LAMBDA = 1
Info: FEP VDW ACTIVE FOR ANNIHILATED PARTICLES BETWEEN LAMBDA = 0 AND LAMBDA = 1
Info: FEP VDW ACTIVE FOR EXNIHILATED PARTICLES BETWEEN LAMBDA = 0 AND LAMBDA = 1
Info: FEP BOND ACTIVE FOR ANNIHILATED PARTICLES BETWEEN LAMBDA = 1 AND LAMBDA = 1
Info: FEP BOND ACTIVE FOR EXNIHILATED PARTICLES BETWEEN LAMBDA = 0 AND LAMBDA = 0
Info: LANGEVIN DYNAMICS ACTIVE
Info: LANGEVIN TEMPERATURE   300
Info: LANGEVIN USING BBK INTEGRATOR
Info: LANGEVIN DAMPING COEFFICIENT IS 1 INVERSE PS
Info: LANGEVIN DYNAMICS APPLIED TO HYDROGENS
Info: LANGEVIN PISTON PRESSURE CONTROL ACTIVE
Info:        TARGET PRESSURE IS 1.01325 BAR
Info:     OSCILLATION PERIOD IS 50 FS
Info:             DECAY TIME IS 25 FS
Info:     PISTON TEMPERATURE IS 300 K
Info:       PRESSURE CONTROL IS GROUP-BASED
Info:    INITIAL STRAIN RATE IS -0.000266075 -0.000266075 -0.000266075
Info:       CELL FLUCTUATION IS ISOTROPIC
Info: PARTICLE MESH EWALD (PME) ACTIVE
Info: PME TOLERANCE               1e-06
Info: PME EWALD COEFFICIENT       0.348832
Info: PME INTERPOLATION ORDER     4
Info: PME GRID DIMENSIONS         32 32 36
Info: PME MAXIMUM GRID SPACING    1
Info: PME CALCULATION WILL BE PERFORMED ON GPU
Info: FULL ELECTROSTATIC EVALUATION FREQUENCY      2
Info: USING VERLET I (r-RESPA) MTS SCHEME.
Info: C1 SPLITTING OF LONG RANGE ELECTROSTATICS
Info: PLACING ATOMS IN PATCHES BY HYDROGEN GROUPS
Info: RIGID BONDS TO HYDROGEN : ALL
Info:         ERROR TOLERANCE : 1e-08
Info:          MAX ITERATIONS : 100
Info: RIGID WATER USING SETTLE ALGORITHM
Info: RANDOM NUMBER SEED     1743803523
Info: USE HYDROGEN BONDS?    NO
Info: Using AMBER format force field!
Info: AMBER PARM FILE        mobley_5456566.prmtop
Info: COORDINATE PDB         mobley_5456566.pdb
Info: Exclusions will be read from PARM file!
Info: SCNB (VDW SCALING)     2
Info: USING ARITHMETIC MEAN TO COMBINE L-J SIGMA PARAMETERS
Info: BINARY COORDINATES     mobley_5456566_equil.coor
Info: SUMMARY OF PARAMETERS:
Info: 6 BONDS
Info: 6 ANGLES
Info:   6 HARMONIC
Info:   0 COSINE-BASED
Info: 3 DIHEDRAL
Info: 0 IMPROPER
Info: 0 CROSSTERM
Info: 0 VDW
Info: 10 VDW_PAIRS
Info: 0 NBTHOLE_PAIRS
Info: To read alchdata from file: mobley_5456566.pdb
Info: To read alchflag data from column: 5
Info: STRUCTURE SUMMARY:
Info: 2926 ATOMS
Info: 2927 BONDS
Info: 36 ANGLES
Info: 64 DIHEDRALS
Info: 0 IMPROPERS
Info: 0 CROSSTERMS
Info: 3009 EXCLUSIONS
Info: 2904 RIGID BONDS
Info: ALCH: 0 ATOMS TO DISAPPEAR IN FINAL STATE
Info: ALCH: 22 ATOMS TO APPEAR IN FINAL STATE
Info: 5874 DEGREES OF FREEDOM
Info: 990 HYDROGEN GROUPS
Info: 3 ATOMS IN LARGEST HYDROGEN GROUP
Info: 990 MIGRATION GROUPS
Info: 3 ATOMS IN LARGEST MIGRATION GROUP
Info: TOTAL MASS = 17938.1 amu
Info: TOTAL CHARGE = 0.000100011 e
Info: MASS DENSITY = 0.982245 g/cm^3
Info: ATOM DENSITY = 0.0964847 atoms/A^3
Info: ADDED 0 IMPLICIT EXCLUSIONS
Info: NONBONDED TABLE R-SQUARED SPACING: 0.0625
Info: NONBONDED TABLE SIZE: 705 POINTS
Info: REMOVING COM VELOCITY -0.277839 0.216557 0.0294595
Info: Use 3D box decompostion in PME FFT.
Info: Updated CUDA force table with 4096 elements.
Info: Updated CUDA LJ table with 4 x 4 elements.
Info: Found 17 unique exclusion lists needing 36 bytes
TCL: Running for 1500000 steps
ETITLE: TS BOND ANGLE DIHED IMPRP ELECT VDW BOUNDARY MISC KINETIC TOTAL TEMP POTENTIAL TOTALAVG TEMPAVG PRESSURE GPRESSURE VOLUME PRESSAVG GPRESSAVG
ENERGY: 0 11.6195 3.8499 11.6322 0.0000 -10411.5058 1375.2515 0.0000 0.0000 1802.4119 -7206.7408 308.8236 -9009.1527 -7206.7408 308.8236 -165.8516 -65.6909 30326.0510 -165.8516 -65.6909
ENERGY: 300000 8.4049 4.8752 11.8003 0.0000 -10631.3128 1502.7199 0.0000 0.0000 1702.2671 -7401.2453 291.6649 -9103.5124 -7313.7454 300.8507 1085.3010 1141.4925 29504.3137 261.4307 318.0531
ENERGY: 600000 9.2564 4.7521 12.7882 0.0000 -10391.9422 1334.6208 0.0000 0.0000 1764.3922 -7266.1326 302.3093 -9030.5248 -7327.1258 301.0793 -796.7601 -737.8836 30053.4405 -10.1421 62.3072
ENERGY: 900000 8.0765 4.7210 13.5350 0.0000 -10514.1718 1397.9940 0.0000 0.0000 1756.0113 -7333.8340 300.8734 -9089.8453 -7331.9897 300.6061 109.8512 111.4320 29648.0926 39.3414 100.3661
ENERGY: 1200000 7.1770 3.9635 16.4775 0.0000 -10642.0709 1471.3278 0.0000 0.0000 1730.8803 -7412.2450 296.5674 -9143.1252 -7352.8812 300.4062 323.8228 399.0880 29620.8730 -3.0356 56.1621
ENERGY: 1500000 9.5568 5.9924 10.7624 0.0000 -10637.4791 1431.3134 0.0000 0.0000 1718.5983 -7461.2558 294.4631 -9179.8542 -7350.3529 300.8254 -63.2096 -37.3623 29723.7593 -8.0164 50.5464
TCL: Running FEP window   2: Lambda1 0.05   Lambda2 0.1    [dLambda 0.05  ]
TCL: Setting parameter firsttimestep to 0
TCL: Setting parameter alchLambda to 0.05
Info: NONBONDED TABLE R-SQUARED SPACING: 0.0625
Info: NONBONDED TABLE SIZE: 705 POINTS
TCL: Setting parameter alchLambda2 to 0.1
Info: NONBONDED TABLE R-SQUARED SPACING: 0.0625
Info: NONBONDED TABLE SIZE: 705 POINTS
TCL: Running for 1500000 steps
ETITLE: TS BOND ANGLE DIHED IMPRP ELECT VDW BOUNDARY MISC KINETIC TOTAL TEMP POTENTIAL TOTALAVG TEMPAVG PRESSURE GPRESSURE VOLUME PRESSAVG GPRESSAVG
ENERGY: 0 9.5567 5.9924 10.7624 0.0000 -10637.4790 1443.2498 0.0000 0.0000 1717.7449 -7450.1727 294.3168 -9167.9177 -7450.1727 294.3168 -113.5488 -15.2976 29723.7593 -113.5488 -15.2976
ENERGY: 300000 5.0018 4.9093 12.4897 0.0000 -10496.1301 1378.4162 0.0000 0.0000 1743.1536 -7352.1594 298.6703 -9095.3130 -7401.4059 303.1405 -87.2975 -71.4396 29739.4885 112.6623 178.4819
ENERGY: 600000 8.7801 9.3370 11.9476 0.0000 -10426.5107 1361.4442 0.0000 0.0000 1707.4458 -7327.5559 292.5522 -9035.0018 -7387.7068 299.4599 -839.4842 -790.0063 30769.4344 -110.5663 -51.2427
ENERGY: 900000 6.5267 4.3362 14.4162 0.0000 -10512.2287 1364.0044 0.0000 0.0000 1775.4498 -7347.4954 304.2039 -9122.9452 -7379.0268 299.9468 -295.2483 -299.4332 29368.7070 -134.9318 -84.9946
ENERGY: 1200000 6.2658 4.5733 10.6408 0.0000 -10676.5987 1478.4182 0.0000 0.0000 1769.8392 -7406.8615 303.2426 -9176.7006 -7385.7502 300.2246 153.0952 176.0507 29894.4887 -89.9737 -39.4248
ENERGY: 1500000 7.9568 5.7265 12.4293 0.0000 -10487.2326 1380.3200 0.0000 0.0000 1744.5905 -7336.2095 298.9165 -9080.7999 -7377.8965 300.7267 -509.6860 -347.9206 29788.1557 -75.5677 -21.6436
TCL: Running FEP window   3: Lambda1 0.1    Lambda2 0.15000000000000002 [dLambda 0.05000000000000002]
TCL: Setting parameter firsttimestep to 0
TCL: Setting parameter alchLambda to 0.1
Info: NONBONDED TABLE R-SQUARED SPACING: 0.0625
Info: NONBONDED TABLE SIZE: 705 POINTS
TCL: Setting parameter alchLambda2 to 0.15000000000000002
Info: NONBONDED TABLE R-SQUARED SPACING: 0.0625
Info: NONBONDED TABLE SIZE: 705 POINTS
TCL: Running for 1500000 steps
ETITLE: TS BOND ANGLE DIHED IMPRP ELECT VDW BOUNDARY MISC KINETIC TOTAL TEMP POTENTIAL TOTALAVG TEMPAVG PRESSURE GPRESSURE VOLUME PRESSAVG GPRESSAVG
ENERGY: 0 7.9568 5.7265 12.4293 0.0000 -10487.2321 1383.4634 0.0000 0.0000 1743.7436 -7333.9125 298.7714 -9077.6561 -7333.9125 298.7714 -425.6814 -326.1153 29788.1557 -425.6814 -326.1153
ENERGY: 300000 9.2509 2.8292 11.6823 0.0000 -10504.6468 1441.3278 0.0000 0.0000 1730.4892 -7309.0674 296.5004 -9039.5566 -7366.9871 292.4295 47.8746 110.0920 30471.2237 32.8281 111.5419
ENERGY: 600000 9.4728 2.6759 11.8753 0.0000 -10589.9455 1418.7151 0.0000 0.0000 1759.2527 -7387.9537 301.4287 -9147.2064 -7374.9002 295.2942 -443.5354 -412.6997 29925.8416 -21.8776 30.2676
ENERGY: 900000 5.1380 3.9507 14.5129 0.0000 -10565.1333 1403.4635 0.0000 0.0000 1793.3273 -7344.7409 307.2671 -9138.0682 -7370.2142 296.9682 -143.3599 -76.7053 29743.9667 -33.8603 21.0947
ENERGY: 1200000 8.5277 5.8083 15.3539 0.0000 -10602.6357 1441.0999 0.0000 0.0000 1762.0522 -7369.7936 301.9084 -9131.8458 -7371.6695 297.1342 -229.0983 -124.2244 29871.1363 -84.7549 -29.6362
ENERGY: 1500000 10.1836 3.8878 11.6680 0.0000 -10637.9608 1548.9500 0.0000 0.0000 1767.5887 -7295.6828 302.8570 -9063.2715 -7366.2574 297.1658 795.2083 812.2915 30257.2538 -22.9910 31.5919
TCL: Running FEP window   4: Lambda1 0.15000000000000002 Lambda2 0.2    [dLambda 0.04999999999999999]
TCL: Setting parameter firsttimestep to 0
TCL: Setting parameter alchLambda to 0.15000000000000002
Info: NONBONDED TABLE R-SQUARED SPACING: 0.0625
Info: NONBONDED TABLE SIZE: 705 POINTS
TCL: Setting parameter alchLambda2 to 0.2
Info: NONBONDED TABLE R-SQUARED SPACING: 0.0625
Info: NONBONDED TABLE SIZE: 705 POINTS
TCL: Running for 1500000 steps
ETITLE: TS BOND ANGLE DIHED IMPRP ELECT VDW BOUNDARY MISC KINETIC TOTAL TEMP POTENTIAL TOTALAVG TEMPAVG PRESSURE GPRESSURE VOLUME PRESSAVG GPRESSAVG
ENERGY: 0 10.1836 3.8878 11.6680 0.0000 -10637.9583 1552.7568 0.0000 0.0000 1766.7330 -7292.7292 302.7104 -9059.4622 -7292.7292 302.7104 762.7788 831.6886 30257.2538 762.7788 831.6886
ENERGY: 300000 5.5346 5.6316 11.5351 0.0000 -10634.6896 1535.2384 0.0000 0.0000 1765.6036 -7311.1463 302.5169 -9076.7499 -7332.2704 298.3642 805.3894 863.0430 30150.1313 627.3670 684.9585
ENERGY: 600000 8.4099 2.5192 10.6174 0.0000 -10637.6644 1412.0216 0.0000 0.0000 1714.3645 -7489.7317 293.7376 -9204.0962 -7357.3900 296.3376 -478.4297 -444.5852 30306.2543 239.5115 303.2277
ENERGY: 900000 9.0053 2.9579 11.4934 0.0000 -10561.5689 1441.6360 0.0000 0.0000 1752.7407 -7343.7355 300.3130 -9096.4762 -7360.7982 296.8148 328.1655 426.2350 29837.5247 243.9681 315.0510
ENERGY: 1200000 4.3372 3.8587 11.3675 0.0000 -10717.5497 1502.8785 0.0000 0.0000 1744.0644 -7451.0435 298.8264 -9195.1079 -7365.9709 297.2863 568.8608 655.5726 29762.2201 226.4178 294.5807
ENERGY: 1500000 7.2432 4.7420 12.3976 0.0000 -10485.5271 1350.8780 0.0000 0.0000 1743.9197 -7366.3467 298.8016 -9110.2664 -7371.9505 297.2138 -713.8939 -622.5372 30126.4469 132.0640 205.3436
TCL: Running FEP window   5: Lambda1 0.2    Lambda2 0.25   [dLambda 0.04999999999999999]
TCL: Setting parameter firsttimestep to 0
TCL: Setting parameter alchLambda to 0.2
Info: NONBONDED TABLE R-SQUARED SPACING: 0.0625
Info: NONBONDED TABLE SIZE: 705 POINTS
TCL: Setting parameter alchLambda2 to 0.25
Info: NONBONDED TABLE R-SQUARED SPACING: 0.0625
Info: NONBONDED TABLE SIZE: 705 POINTS
TCL: Running for 1500000 steps
ETITLE: TS BOND ANGLE DIHED IMPRP ELECT VDW BOUNDARY MISC KINETIC TOTAL TEMP POTENTIAL TOTALAVG TEMPAVG PRESSURE GPRESSURE VOLUME PRESSAVG GPRESSAVG
ENERGY: 0 7.2433 4.7420 12.3976 0.0000 -10485.5272 1352.4335 0.0000 0.0000 1743.0381 -7365.6728 298.6505 -9108.7109 -7365.6728 298.6505 -681.4247 -610.4483 30126.4469 -681.4247 -610.4483
ENERGY: 300000 7.1635 6.1041 12.5407 0.0000 -10587.5493 1409.2733 0.0000 0.0000 1738.6667 -7413.8010 297.9016 -9152.4676 -7407.7914 296.6235 -284.4554 -227.8261 30023.4613 -22.0065 80.0477
ENERGY: 600000 11.9627 3.5489 12.7474 0.0000 -10461.0714 1359.2601 0.0000 0.0000 1738.7813 -7334.7711 297.9212 -9073.5524 -7369.9604 298.2063 -371.9501 -374.5945 30131.9280 -103.4507 -11.5230
ENERGY: 900000 5.9778 4.4599 12.9346 0.0000 -10482.0693 1376.3748 0.0000 0.0000 1735.6679 -7346.6543 297.3878 -9082.3222 -7366.4808 298.4055 -289.7832 -190.4017 30376.7571 -170.6100 -79.8940
ENERGY: 1200000 7.9528 4.8023 12.9008 0.0000 -10461.2364 1420.6214 0.0000 0.0000 1736.0408 -7278.9182 297.4516 -9014.9590 -7362.6691 297.9667 63.5508 100.5018 30188.6097 -195.5864 -110.4064
ENERGY: 1500000 8.4593 2.6432 11.0290 0.0000 -10772.1435 1596.7931 0.0000 0.0000 1751.9207 -7401.2981 300.1725 -9153.2188 -7360.8570 298.1538 1088.4696 1246.1428 29768.2185 -100.8516 -9.7701
TCL: Running FEP window   6: Lambda1 0.25   Lambda2 0.3    [dLambda 0.04999999999999999]
TCL: Setting parameter firsttimestep to 0
TCL: Setting parameter alchLambda to 0.25
Info: NONBONDED TABLE R-SQUARED SPACING: 0.0625
Info: NONBONDED TABLE SIZE: 705 POINTS
TCL: Setting parameter alchLambda2 to 0.3
Info: NONBONDED TABLE R-SQUARED SPACING: 0.0625
Info: NONBONDED TABLE SIZE: 705 POINTS
TCL: Running for 1500000 steps
ETITLE: TS BOND ANGLE DIHED IMPRP ELECT VDW BOUNDARY MISC KINETIC TOTAL TEMP POTENTIAL TOTALAVG TEMPAVG PRESSURE GPRESSURE VOLUME PRESSAVG GPRESSAVG
ENERGY: 0 8.4593 2.6432 11.0290 0.0000 -10772.1428 1597.4247 0.0000 0.0000 1751.0280 -7401.5585 300.0195 -9152.5865 -7401.5585 300.0195 1176.6804 1259.7319 29768.2185 1176.6804 1259.7319
ENERGY: 300000 8.5619 3.9214 19.9309 0.0000 -10441.1897 1349.9947 0.0000 0.0000 1726.2786 -7332.5023 295.7790 -9058.7809 -7338.0384 301.4031 -500.2222 -507.9630 29956.4917 79.4245 149.0027
ENERGY: 600000 12.8616 2.2915 13.0831 0.0000 -10543.3255 1411.2561 0.0000 0.0000 1726.0557 -7377.7774 295.7408 -9103.8331 -7341.9191 300.5023 -603.6937 -567.9774 30485.6827 19.0233 79.3622
ENERGY: 900000 5.7409 4.8730 14.7014 0.0000 -10636.2479 1487.1093 0.0000 0.0000 1766.0968 -7357.7265 302.6014 -9123.8233 -7345.0570 300.6592 361.5710 445.9403 29989.6198 -41.7038 19.6554
ENERGY: 1200000 5.5192 4.6132 14.4126 0.0000 -10585.1881 1410.7043 0.0000 0.0000 1785.6092 -7364.3297 305.9446 -9149.9389 -7334.9543 301.6340 -316.4419 -269.8140 30576.7717 -155.9470 -99.1308
ENERGY: 1500000 6.1835 6.4959 11.5231 0.0000 -10476.0525 1332.4836 0.0000 0.0000 1708.8254 -7410.5410 292.7886 -9119.3664 -7345.9118 300.5695 -433.8319 -420.9428 29453.3939 -136.9621 -78.0497
TCL: Running FEP window   7: Lambda1 0.3    Lambda2 0.35   [dLambda 0.04999999999999999]
TCL: Setting parameter firsttimestep to 0
TCL: Setting parameter alchLambda to 0.3
Info: NONBONDED TABLE R-SQUARED SPACING: 0.0625
Info: NONBONDED TABLE SIZE: 705 POINTS
TCL: Setting parameter alchLambda2 to 0.35
Info: NONBONDED TABLE R-SQUARED SPACING: 0.0625
Info: NONBONDED TABLE SIZE: 705 POINTS
TCL: Running for 1500000 steps
ETITLE: TS BOND ANGLE DIHED IMPRP ELECT VDW BOUNDARY MISC KINETIC TOTAL TEMP POTENTIAL TOTALAVG TEMPAVG PRESSURE GPRESSURE VOLUME PRESSAVG GPRESSAVG
ENERGY: 0 6.1835 6.4959 11.5231 0.0000 -10476.0534 1333.6395 0.0000 0.0000 1707.9498 -7410.2616 292.6386 -9118.2114 -7410.2616 292.6386 -492.2527 -401.0132 29453.3939 -492.2527 -401.0132
ENERGY: 300000 10.2200 4.8369 14.9772 0.0000 -10537.2999 1422.2193 0.0000 0.0000 1762.5018 -7322.5447 301.9854 -9085.0465 -7351.4724 300.1587 -216.1539 -181.2805 30365.1737 -72.9684 18.3171
ENERGY: 600000 4.1443 4.2290 14.8610 0.0000 -10595.9548 1477.0617 0.0000 0.0000 1744.5676 -7351.0912 298.9126 -9095.6588 -7352.8684 298.9961 660.6709 747.5417 29803.0682 2.5975 88.6890
ENERGY: 900000 14.4345 7.6246 10.7732 0.0000 -10581.1250 1469.9595 0.0000 0.0000 1743.8082 -7334.5251 298.7825 -9078.3333 -7346.7127 300.1516 355.7178 445.8685 29854.3765 -110.8420 -40.6391
ENERGY: 1200000 9.2243 3.4246 13.6039 0.0000 -10557.4450 1391.2772 0.0000 0.0000 1730.2619 -7409.6531 296.4615 -9139.9151 -7347.9088 299.8916 -81.6636 -36.2962 29777.4748 -141.0076 -69.5179
ENERGY: 1500000 5.0938 5.4413 11.2295 0.0000 -10592.3521 1418.3019 0.0000 0.0000 1768.0292 -7384.2563 302.9325 -9152.2855 -7356.4498 300.0698 -114.0991 -83.8663 30461.0814 -144.3404 -77.4788
TCL: Running FEP window   8: Lambda1 0.35   Lambda2 0.39999999999999997 [dLambda 0.04999999999999999]
TCL: Setting parameter firsttimestep to 0
TCL: Setting parameter alchLambda to 0.35
Info: NONBONDED TABLE R-SQUARED SPACING: 0.0625
Info: NONBONDED TABLE SIZE: 705 POINTS
TCL: Setting parameter alchLambda2 to 0.39999999999999997
Info: NONBONDED TABLE R-SQUARED SPACING: 0.0625
Info: NONBONDED TABLE SIZE: 705 POINTS
TCL: Running for 1500000 steps
ETITLE: TS BOND ANGLE DIHED IMPRP ELECT VDW BOUNDARY MISC KINETIC TOTAL TEMP POTENTIAL TOTALAVG TEMPAVG PRESSURE GPRESSURE VOLUME PRESSAVG GPRESSAVG
ENERGY: 0 5.0938 5.4413 11.2295 0.0000 -10592.3527 1417.6254 0.0000 0.0000 1767.1462 -7385.8165 302.7812 -9152.9627 -7385.8165 302.7812 -166.1196 -79.8138 30461.0814 -166.1196 -79.8138
ENERGY: 300000 9.0543 2.5064 12.1822 0.0000 -10662.2746 1546.6728 0.0000 0.0000 1820.1488 -7271.7100 311.8626 -9091.8588 -7336.7897 302.9827 1008.3982 1081.4815 30138.3474 256.6044 321.6959
ENERGY: 600000 10.9547 3.1625 12.4454 0.0000 -10451.9931 1307.6308 0.0000 0.0000 1734.7623 -7383.0374 297.2326 -9117.7997 -7334.3199 302.1978 -1120.8446 -1082.2512 30338.3419 -99.5279 -47.9759
ENERGY: 900000 6.6037 5.3201 14.0066 0.0000 -10464.0321 1398.2113 0.0000 0.0000 1771.5047 -7268.3857 303.5280 -9039.8904 -7329.1354 302.4572 -104.7964 -30.3389 30347.7882 98.0339 149.5407
ENERGY: 1200000 6.0888 3.0981 13.8355 0.0000 -10445.8502 1305.1098 0.0000 0.0000 1749.0162 -7368.7018 299.6748 -9117.7180 -7333.4625 301.4449 -833.9832 -773.1143 29916.4111 -125.9486 -70.3779
ENERGY: 1500000 11.9780 7.1097 13.5346 0.0000 -10801.9573 1576.7442 0.0000 0.0000 1793.0967 -7399.4942 307.2275 -9192.5909 -7331.4055 302.2999 865.4744 964.0840 29689.2814 -56.9925 2.0583
TCL: Running FEP window   9: Lambda1 0.39999999999999997 Lambda2 0.44999999999999996 [dLambda 0.04999999999999999]
TCL: Setting parameter firsttimestep to 0
TCL: Setting parameter alchLambda to 0.39999999999999997
Info: NONBONDED TABLE R-SQUARED SPACING: 0.0625
Info: NONBONDED TABLE SIZE: 705 POINTS
TCL: Setting parameter alchLambda2 to 0.44999999999999996
Info: NONBONDED TABLE R-SQUARED SPACING: 0.0625
Info: NONBONDED TABLE SIZE: 705 POINTS
TCL: Running for 1500000 steps
ETITLE: TS BOND ANGLE DIHED IMPRP ELECT VDW BOUNDARY MISC KINETIC TOTAL TEMP POTENTIAL TOTALAVG TEMPAVG PRESSURE GPRESSURE VOLUME PRESSAVG GPRESSAVG
ENERGY: 0 11.9780 7.1097 13.5346 0.0000 -10801.9541 1576.1985 0.0000 0.0000 1792.2071 -7400.9262 307.0751 -9193.1333 -7400.9262 307.0751 885.8954 970.4532 29689.2814 885.8954 970.4532
ENERGY: 300000 5.8278 5.0443 16.9001 0.0000 -10657.7703 1505.1849 0.0000 0.0000 1779.0108 -7345.8024 304.8141 -9124.8132 -7416.0616 301.1202 646.6036 668.9470 30340.9495 340.9289 414.3417
ENERGY: 600000 11.2732 4.4748 14.7682 0.0000 -10657.2869 1466.2351 0.0000 0.0000 1721.4685 -7439.0671 294.9548 -9160.5356 -7377.4829 301.6658 -47.8838 4.7699 29972.2374 324.2392 385.1857
ENERGY: 900000 5.9925 5.6396 15.4277 0.0000 -10567.0433 1465.8018 0.0000 0.0000 1739.4407 -7334.7410 298.0342 -9074.1817 -7347.6550 302.9904 528.4055 587.7070 30056.6399 320.2414 373.5816
ENERGY: 1200000 10.2051 3.7800 13.5352 0.0000 -10455.0236 1388.5052 0.0000 0.0000 1731.3867 -7307.6114 296.6542 -9038.9981 -7349.9658 302.6254 -83.1763 -77.2589 30235.2109 207.9656 259.5526
ENERGY: 1500000 13.6564 4.5753 10.3981 0.0000 -10400.2723 1299.4937 0.0000 0.0000 1719.8968 -7352.2519 294.6856 -9072.1488 -7344.9793 301.8458 -1005.9848 -889.7863 30311.3087 94.2589 153.8549
TCL: Running FEP window  10: Lambda1 0.44999999999999996 Lambda2 0.49999999999999994 [dLambda 0.04999999999999999]
TCL: Setting parameter firsttimestep to 0
TCL: Setting parameter alchLambda to 0.44999999999999996
Info: NONBONDED TABLE R-SQUARED SPACING: 0.0625
Info: NONBONDED TABLE SIZE: 705 POINTS
TCL: Setting parameter alchLambda2 to 0.49999999999999994
Info: NONBONDED TABLE R-SQUARED SPACING: 0.0625
Info: NONBONDED TABLE SIZE: 705 POINTS
TCL: Running for 1500000 steps
ETITLE: TS BOND ANGLE DIHED IMPRP ELECT VDW BOUNDARY MISC KINETIC TOTAL TEMP POTENTIAL TOTALAVG TEMPAVG PRESSURE GPRESSURE VOLUME PRESSAVG GPRESSAVG
ENERGY: 0 13.6564 4.5753 10.3981 0.0000 -10400.2718 1299.2648 0.0000 0.0000 1719.0259 -7353.3513 294.5363 -9072.3771 -7353.3513 294.5363 -952.0574 -877.2578 30311.3087 -952.0574 -877.2578
ENERGY: 300000 8.1429 7.2050 14.6296 0.0000 -10592.1555 1477.4570 0.0000 0.0000 1786.0811 -7298.6398 306.0255 -9084.7209 -7301.6912 301.1123 485.0712 550.0404 29868.4111 -114.4378 -69.3883
ENERGY: 600000 6.8721 4.6712 11.7722 0.0000 -10604.3676 1452.7371 0.0000 0.0000 1733.3769 -7394.9381 296.9952 -9128.3150 -7307.9006 302.6124 145.9492 204.8565 30368.7909 -77.7706 -27.5468
ENERGY: 900000 10.1073 5.4584 11.7494 0.0000 -10550.2254 1403.5299 0.0000 0.0000 1733.6671 -7385.7133 297.0449 -9119.3804 -7329.5007 301.2282 -338.1367 -255.0806 30085.8601 -238.7722 -182.0020
ENERGY: 1200000 7.2220 4.7757 15.7262 0.0000 -10549.9076 1433.4919 0.0000 0.0000 1791.5244 -7297.1672 306.9582 -9088.6917 -7332.4125 301.1965 -42.0328 8.1409 30513.3440 -192.5911 -133.2655
ENERGY: 1500000 7.2286 5.4346 14.9853 0.0000 -10527.8781 1385.8976 0.0000 0.0000 1759.4986 -7354.8333 301.4709 -9114.3320 -7341.3302 301.1303 -579.6565 -487.8545 30596.2958 -274.4553 -220.4020
TCL: Running FEP window  11: Lambda1 0.49999999999999994 Lambda2 0.5499999999999999 [dLambda 0.04999999999999999]
TCL: Setting parameter firsttimestep to 0
TCL: Setting parameter alchLambda to 0.49999999999999994
Info: NONBONDED TABLE R-SQUARED SPACING: 0.0625
Info: NONBONDED TABLE SIZE: 705 POINTS
TCL: Setting parameter alchLambda2 to 0.5499999999999999
Info: NONBONDED TABLE R-SQUARED SPACING: 0.0625
Info: NONBONDED TABLE SIZE: 705 POINTS
TCL: Running for 1500000 steps
ETITLE: TS BOND ANGLE DIHED IMPRP ELECT VDW BOUNDARY MISC KINETIC TOTAL TEMP POTENTIAL TOTALAVG TEMPAVG PRESSURE GPRESSURE VOLUME PRESSAVG GPRESSAVG
ENERGY: 0 7.2286 5.4346 14.9853 0.0000 -10527.8773 1386.7330 0.0000 0.0000 1758.5687 -7354.9270 301.3116 -9113.4957 -7354.9270 301.3116 -555.5193 -469.5327 30596.2958 -555.5193 -469.5327
ENERGY: 300000 8.4709 3.2279 10.5227 0.0000 -10593.3868 1410.9283 0.0000 0.0000 1746.8471 -7413.3900 299.3032 -9160.2371 -7351.6550 300.6151 -95.4198 -5.5217 30389.2471 -239.9326 -171.8773
ENERGY: 600000 6.9570 4.8142 14.1158 0.0000 -10464.5598 1346.8085 0.0000 0.0000 1771.3138 -7320.5506 303.4953 -9091.8643 -7366.8606 301.5240 -448.2819 -417.2469 30318.4142 -48.8180 17.6469
ENERGY: 900000 5.7354 5.6251 13.5207 0.0000 -10611.2948 1462.7382 0.0000 0.0000 1705.0553 -7418.6200 292.1426 -9123.6753 -7365.9415 301.8794 -5.1610 44.5610 30721.0048 -31.2704 37.0864
ENERGY: 1200000 6.5285 5.8737 17.1131 0.0000 -10501.6726 1393.7429 0.0000 0.0000 1728.8722 -7349.5423 296.2234 -9078.4145 -7359.6626 300.8054 -503.9998 -456.8002 30618.7412 -127.3274 -60.2597
ENERGY: 1500000 7.6686 5.0206 14.5411 0.0000 -10615.8653 1494.3437 0.0000 0.0000 1748.6516 -7345.6396 299.6124 -9094.2912 -7363.3579 299.7928 328.6546 397.0988 30415.2730 -85.0735 -13.4508
TCL: Running FEP window  12: Lambda1 0.5499999999999999 Lambda2 0.6    [dLambda 0.050000000000000044]
TCL: Setting parameter firsttimestep to 0
TCL: Setting parameter alchLambda to 0.5499999999999999
Info: NONBONDED TABLE R-SQUARED SPACING: 0.0625
Info: NONBONDED TABLE SIZE: 705 POINTS
TCL: Setting parameter alchLambda2 to 0.6
Info: NONBONDED TABLE R-SQUARED SPACING: 0.0625
Info: NONBONDED TABLE SIZE: 705 POINTS
TCL: Running for 1500000 steps
ETITLE: TS BOND ANGLE DIHED IMPRP ELECT VDW BOUNDARY MISC KINETIC TOTAL TEMP POTENTIAL TOTALAVG TEMPAVG PRESSURE GPRESSURE VOLUME PRESSAVG GPRESSAVG
ENERGY: 0 7.6686 5.0206 14.5411 0.0000 -10616.0611 1495.3114 0.0000 0.0000 1747.8043 -7345.7149 299.4672 -9093.5192 -7345.7149 299.4672 335.0987 420.8373 30415.2730 335.0987 420.8373
ENERGY: 300000 9.5976 3.8400 11.4522 0.0000 -10597.1411 1471.8998 0.0000 0.0000 1708.5782 -7391.7732 292.7462 -9100.3515 -7382.7660 297.1056 139.0901 166.4153 30529.8142 255.7702 329.6621
ENERGY: 600000 7.0493 5.7407 11.4858 0.0000 -10490.6650 1394.6989 0.0000 0.0000 1805.9796 -7265.7106 309.4349 -9071.6903 -7358.8658 300.1666 -346.2021 -280.1901 30352.6034 3.5275 83.8136
ENERGY: 900000 8.1763 5.2652 11.8589 0.0000 -10447.2233 1322.2874 0.0000 0.0000 1807.6129 -7292.0227 309.7147 -9099.6356 -7350.4345 300.4377 -872.2697 -772.9673 30201.7833 -10.2219 64.7563
ENERGY: 1200000 5.1360 3.9974 15.1972 0.0000 -10645.6343 1458.3023 0.0000 0.0000 1781.9390 -7381.0624 305.3158 -9163.0014 -7362.8761 300.2076 27.6668 104.5885 30341.2403 96.0003 166.3369
ENERGY: 1500000 7.1882 6.2059 14.0567 0.0000 -10556.5071 1417.7621 0.0000 0.0000 1675.2125 -7436.0816 287.0294 -9111.2941 -7363.9121 299.5092 -303.1141 -211.6733 30739.3743 53.1334 128.6418
TCL: Running FEP window  13: Lambda1 0.6    Lambda2 0.65   [dLambda 0.050000000000000044]
TCL: Setting parameter firsttimestep to 0
TCL: Setting parameter alchLambda to 0.6
Info: NONBONDED TABLE R-SQUARED SPACING: 0.0625
Info: NONBONDED TABLE SIZE: 705 POINTS
TCL: Setting parameter alchLambda2 to 0.65
Info: NONBONDED TABLE R-SQUARED SPACING: 0.0625
Info: NONBONDED TABLE SIZE: 705 POINTS
TCL: Running for 1500000 steps
ETITLE: TS BOND ANGLE DIHED IMPRP ELECT VDW BOUNDARY MISC KINETIC TOTAL TEMP POTENTIAL TOTALAVG TEMPAVG PRESSURE GPRESSURE VOLUME PRESSAVG GPRESSAVG
ENERGY: 0 7.1882 6.2059 14.0567 0.0000 -10556.5981 1417.0556 0.0000 0.0000 1674.3230 -7437.7687 286.8770 -9112.0917 -7437.7687 286.8770 -305.8761 -204.8920 30739.3743 -305.8761 -204.8920
ENERGY: 300000 4.6043 3.5133 11.2899 0.0000 -10505.9075 1404.7908 0.0000 0.0000 1781.6023 -7300.1070 305.2581 -9081.7093 -7374.0041 298.9436 68.5557 130.4584 30328.6818 37.6264 96.1457
ENERGY: 600000 6.4388 4.6352 12.8198 0.0000 -10591.3970 1474.6962 0.0000 0.0000 1725.8990 -7366.9080 295.7140 -9092.8070 -7369.8408 298.0995 176.7566 298.9917 30619.3945 93.3221 161.1241
ENERGY: 900000 9.5702 4.7648 17.3123 0.0000 -10432.9622 1324.8631 0.0000 0.0000 1714.0234 -7362.4285 293.6792 -9076.4519 -7368.0342 297.9461 -458.4529 -414.8837 30063.2434 -96.2785 -29.4393
ENERGY: 1200000 6.1936 4.7609 13.9382 0.0000 -10597.3721 1486.8610 0.0000 0.0000 1714.5121 -7371.1063 293.7629 -9085.6184 -7366.8678 298.1504 725.4819 742.4971 30615.9500 55.7122 115.2022
ENERGY: 1500000 5.2617 4.5740 12.4967 0.0000 -10597.2483 1449.0776 0.0000 0.0000 1756.7434 -7369.0950 300.9988 -9125.8384 -7370.6285 298.1111 431.6666 517.4203 30052.5489 25.0396 83.6596
TCL: Running FEP window  14: Lambda1 0.65   Lambda2 0.7000000000000001 [dLambda 0.050000000000000044]
TCL: Setting parameter firsttimestep to 0
TCL: Setting parameter alchLambda to 0.65
Info: NONBONDED TABLE R-SQUARED SPACING: 0.0625
Info: NONBONDED TABLE SIZE: 705 POINTS
TCL: Setting parameter alchLambda2 to 0.7000000000000001
Info: NONBONDED TABLE R-SQUARED SPACING: 0.0625
Info: NONBONDED TABLE SIZE: 705 POINTS
TCL: Running for 1500000 steps
ETITLE: TS BOND ANGLE DIHED IMPRP ELECT VDW BOUNDARY MISC KINETIC TOTAL TEMP POTENTIAL TOTALAVG TEMPAVG PRESSURE GPRESSURE VOLUME PRESSAVG GPRESSAVG
ENERGY: 0 5.2617 4.5740 12.4967 0.0000 -10597.2003 1448.6719 0.0000 0.0000 1755.8962 -7370.2999 300.8536 -9126.1961 -7370.2999 300.8536 457.0910 531.5211 30052.5489 457.0910 531.5211
ENERGY: 300000 9.7675 6.9192 11.8663 0.0000 -10721.9437 1497.1562 0.0000 0.0000 1718.8997 -7477.3348 294.5147 -9196.2345 -7423.2958 299.2753 534.6495 486.2192 29926.8406 483.1866 506.1401
ENERGY: 600000 5.2338 6.3049 20.2270 0.0000 -10607.8321 1542.9744 0.0000 0.0000 1741.9866 -7291.1054 298.4704 -9033.0920 -7384.5748 300.1053 992.7869 1063.9964 30546.5595 673.4640 714.7223
ENERGY: 900000 6.5017 4.4603 10.8092 0.0000 -10602.6297 1432.5537 0.0000 0.0000 1735.0235 -7413.2814 297.2773 -9148.3049 -7374.9016 299.6896 -6.6167 17.7174 30492.4576 548.8459 590.4246
ENERGY: 1200000 8.3197 3.4916 12.0867 0.0000 -10653.2138 1479.3952 0.0000 0.0000 1771.9521 -7377.9684 303.6047 -9149.9206 -7375.2902 300.7407 257.3352 294.7930 30626.4543 446.3834 486.2972
ENERGY: 1500000 4.4365 3.0225 12.8536 0.0000 -10339.9659 1342.7045 0.0000 0.0000 1716.8414 -7260.1075 294.1620 -8976.9489 -7373.5172 299.7531 -206.8184 -97.2465 30524.2327 484.3542 528.2728
TCL: Running FEP window  15: Lambda1 0.7000000000000001 Lambda2 0.7500000000000001 [dLambda 0.050000000000000044]
TCL: Setting parameter firsttimestep to 0
TCL: Setting parameter alchLambda to 0.7000000000000001
Info: NONBONDED TABLE R-SQUARED SPACING: 0.0625
Info: NONBONDED TABLE SIZE: 705 POINTS
TCL: Setting parameter alchLambda2 to 0.7500000000000001
Info: NONBONDED TABLE R-SQUARED SPACING: 0.0625
Info: NONBONDED TABLE SIZE: 705 POINTS
TCL: Running for 1500000 steps
ETITLE: TS BOND ANGLE DIHED IMPRP ELECT VDW BOUNDARY MISC KINETIC TOTAL TEMP POTENTIAL TOTALAVG TEMPAVG PRESSURE GPRESSURE VOLUME PRESSAVG GPRESSAVG
ENERGY: 0 4.4365 3.0225 12.8536 0.0000 -10339.8389 1342.4160 0.0000 0.0000 1715.9762 -7261.1342 294.0138 -8977.1104 -7261.1342 294.0138 -156.1515 -79.4259 30524.2327 -156.1515 -79.4259
ENERGY: 300000 9.3368 4.8449 11.6668 0.0000 -10516.7067 1397.4130 0.0000 0.0000 1782.3790 -7311.0661 305.3912 -9093.4451 -7306.7636 298.6274 -158.4316 -153.6193 30354.2627 -131.0663 -71.2650
ENERGY: 600000 10.6511 5.2793 12.9267 0.0000 -10683.3959 1443.8352 0.0000 0.0000 1759.9757 -7450.7278 301.5526 -9210.7036 -7353.5583 299.7576 -189.6744 -104.0381 30009.8162 -39.8751 30.9345
ENERGY: 900000 8.7815 2.7717 13.5200 0.0000 -10706.7495 1531.4695 0.0000 0.0000 1737.2099 -7412.9970 297.6520 -9150.2068 -7346.9840 300.7207 955.9308 1014.1651 29962.6686 2.5836 67.6503
ENERGY: 1200000 11.9438 3.5918 13.5065 0.0000 -10422.6209 1298.4030 0.0000 0.0000 1730.4078 -7364.7680 296.4865 -9095.1758 -7339.2870 301.4274 -856.5490 -818.2392 30297.4150 -85.5385 -26.0496
ENERGY: 1500000 5.5185 3.4132 12.0804 0.0000 -10450.3403 1357.2440 0.0000 0.0000 1750.8192 -7321.2651 299.9838 -9072.0843 -7341.3749 300.9499 -585.2334 -531.8126 30700.7567 -227.1231 -166.8713
TCL: Running FEP window  16: Lambda1 0.7500000000000001 Lambda2 0.8000000000000002 [dLambda 0.050000000000000044]
TCL: Setting parameter firsttimestep to 0
TCL: Setting parameter alchLambda to 0.7500000000000001
Info: NONBONDED TABLE R-SQUARED SPACING: 0.0625
Info: NONBONDED TABLE SIZE: 705 POINTS
TCL: Setting parameter alchLambda2 to 0.8000000000000002
Info: NONBONDED TABLE R-SQUARED SPACING: 0.0625
Info: NONBONDED TABLE SIZE: 705 POINTS
TCL: Running for 1500000 steps
ETITLE: TS BOND ANGLE DIHED IMPRP ELECT VDW BOUNDARY MISC KINETIC TOTAL TEMP POTENTIAL TOTALAVG TEMPAVG PRESSURE GPRESSURE VOLUME PRESSAVG GPRESSAVG
ENERGY: 0 5.5185 3.4132 12.0804 0.0000 -10450.4212 1356.9191 0.0000 0.0000 1749.9793 -7322.5108 299.8399 -9072.4902 -7322.5108 299.8399 -596.4190 -515.0057 30700.7567 -596.4190 -515.0057
ENERGY: 300000 5.9003 4.9585 12.2711 0.0000 -10652.6245 1460.1649 0.0000 0.0000 1719.0947 -7450.2350 294.5481 -9169.3297 -7377.0890 300.5403 319.5368 317.1329 30047.5667 -69.1920 -19.8993
ENERGY: 600000 3.5029 4.0263 13.4594 0.0000 -10557.8176 1354.1629 0.0000 0.0000 1739.9734 -7442.6926 298.1255 -9182.6660 -7388.9533 298.3164 -661.0979 -631.7541 30313.6710 -211.5826 -165.6762
ENERGY: 900000 12.2915 3.9621 11.3946 0.0000 -10485.3735 1410.6708 0.0000 0.0000 1766.3448 -7280.7097 302.6439 -9047.0545 -7378.8216 298.9793 135.3147 230.5823 30192.8680 -181.3417 -118.2384
ENERGY: 1200000 7.9897 2.7422 11.5131 0.0000 -10520.7601 1334.5379 0.0000 0.0000 1796.2012 -7367.7761 307.7595 -9163.9773 -7375.0868 299.7943 -749.6783 -609.6585 30351.9349 -159.9320 -94.6779
ENERGY: 1500000 14.9596 4.4637 11.8795 0.0000 -10544.3098 1436.4656 0.0000 0.0000 1782.7119 -7293.8294 305.4482 -9076.5413 -7363.5424 300.4670 -388.8251 -303.9039 30887.0665 -176.6486 -115.4045
TCL: Running FEP window  17: Lambda1 0.8000000000000002 Lambda2 0.8500000000000002 [dLambda 0.050000000000000044]
TCL: Setting parameter firsttimestep to 0
TCL: Setting parameter alchLambda to 0.8000000000000002
Info: NONBONDED TABLE R-SQUARED SPACING: 0.0625
Info: NONBONDED TABLE SIZE: 705 POINTS
TCL: Setting parameter alchLambda2 to 0.8500000000000002
Info: NONBONDED TABLE R-SQUARED SPACING: 0.0625
Info: NONBONDED TABLE SIZE: 705 POINTS
TCL: Running for 1500000 steps
ETITLE: TS BOND ANGLE DIHED IMPRP ELECT VDW BOUNDARY MISC KINETIC TOTAL TEMP POTENTIAL TOTALAVG TEMPAVG PRESSURE GPRESSURE VOLUME PRESSAVG GPRESSAVG
ENERGY: 0 14.9596 4.4637 11.8795 0.0000 -10544.2558 1437.9277 0.0000 0.0000 1781.8358 -7293.1894 305.2981 -9075.0252 -7293.1894 305.2981 -367.5644 -269.4327 30887.0665 -367.5644 -269.4327
ENERGY: 300000 11.1256 4.7026 13.5759 0.0000 -10485.5233 1328.7980 0.0000 0.0000 1787.7708 -7339.5504 306.3150 -9127.3212 -7356.2920 303.5772 -1046.4234 -1018.8443 30482.2308 -362.3302 -300.3020
ENERGY: 600000 8.4285 7.1367 14.4055 0.0000 -10335.3358 1245.2780 0.0000 0.0000 1737.7222 -7322.3649 297.7397 -9060.0871 -7346.6523 301.3769 -1369.4426 -1338.2613 30475.1122 -363.6533 -302.7369
ENERGY: 900000 5.0474 2.7741 13.5882 0.0000 -10570.5151 1403.2168 0.0000 0.0000 1803.1634 -7342.7251 308.9524 -9145.8885 -7356.2508 300.9033 -150.6150 -124.6692 30625.0617 -359.4982 -295.3325
ENERGY: 1200000 12.2631 2.9893 13.7462 0.0000 -10713.1810 1534.7180 0.0000 0.0000 1762.6982 -7386.7662 302.0191 -9149.4644 -7360.1405 301.2285 924.2591 923.4608 30167.2360 -87.8643 -37.7008
ENERGY: 1500000 5.4426 4.4367 10.5046 0.0000 -10499.4183 1355.2846 0.0000 0.0000 1750.3611 -7373.3886 299.9053 -9123.7497 -7369.7349 300.9263 -173.3018 -91.9911 29904.1223 -48.9364 10.2816
TCL: Running FEP window  18: Lambda1 0.8500000000000002 Lambda2 0.9000000000000002 [dLambda 0.050000000000000044]
TCL: Setting parameter firsttimestep to 0
TCL: Setting parameter alchLambda to 0.8500000000000002
Info: NONBONDED TABLE R-SQUARED SPACING: 0.0625
Info: NONBONDED TABLE SIZE: 705 POINTS
TCL: Setting parameter alchLambda2 to 0.9000000000000002
Info: NONBONDED TABLE R-SQUARED SPACING: 0.0625
Info: NONBONDED TABLE SIZE: 705 POINTS
TCL: Running for 1500000 steps
ETITLE: TS BOND ANGLE DIHED IMPRP ELECT VDW BOUNDARY MISC KINETIC TOTAL TEMP POTENTIAL TOTALAVG TEMPAVG PRESSURE GPRESSURE VOLUME PRESSAVG GPRESSAVG
ENERGY: 0 5.4426 4.4367 10.5046 0.0000 -10499.4766 1354.8349 0.0000 0.0000 1749.4973 -7374.7605 299.7573 -9124.2578 -7374.7605 299.7573 -163.8919 -77.2245 29904.1223 -163.8919 -77.2245
ENERGY: 300000 6.7469 5.4309 15.6104 0.0000 -10580.4912 1471.3688 0.0000 0.0000 1766.8371 -7314.4971 302.7282 -9081.3342 -7333.8428 306.3906 440.2385 461.1881 30424.6963 190.3383 235.4592
ENERGY: 600000 9.2433 3.6638 13.9735 0.0000 -10446.2303 1373.9248 0.0000 0.0000 1804.7208 -7240.7042 309.2192 -9045.4250 -7322.7615 306.0719 -226.2471 -199.8799 30463.0063 191.0255 226.9517
ENERGY: 900000 7.2950 2.8459 12.3696 0.0000 -10485.3740 1350.3867 0.0000 0.0000 1740.3786 -7372.0982 298.1949 -9112.4768 -7342.8685 303.3817 -668.6264 -620.4633 30645.2517 44.4532 92.7257
ENERGY: 1200000 4.9866 5.9950 11.6387 0.0000 -10566.5435 1326.4394 0.0000 0.0000 1749.3263 -7468.1575 299.7280 -9217.4838 -7362.5650 301.8522 -883.6272 -802.7537 30196.8271 -119.6717 -69.7507
ENERGY: 1500000 6.4974 10.0411 10.4865 0.0000 -10805.8683 1564.7815 0.0000 0.0000 1776.4326 -7437.6293 304.3723 -9214.0618 -7370.8792 301.6067 1140.8574 1173.7419 29762.0769 -31.3154 22.7479
TCL: Running FEP window  19: Lambda1 0.9000000000000002 Lambda2 0.9500000000000003 [dLambda 0.050000000000000044]
TCL: Setting parameter firsttimestep to 0
TCL: Setting parameter alchLambda to 0.9000000000000002
Info: NONBONDED TABLE R-SQUARED SPACING: 0.0625
Info: NONBONDED TABLE SIZE: 705 POINTS
TCL: Setting parameter alchLambda2 to 0.9500000000000003
Info: NONBONDED TABLE R-SQUARED SPACING: 0.0625
Info: NONBONDED TABLE SIZE: 705 POINTS
TCL: Running for 1500000 steps
ETITLE: TS BOND ANGLE DIHED IMPRP ELECT VDW BOUNDARY MISC KINETIC TOTAL TEMP POTENTIAL TOTALAVG TEMPAVG PRESSURE GPRESSURE VOLUME PRESSAVG GPRESSAVG
ENERGY: 0 6.4974 10.0411 10.4865 0.0000 -10805.8627 1564.3686 0.0000 0.0000 1775.5682 -7438.9009 304.2242 -9214.4691 -7438.9009 304.2242 1106.6755 1191.6894 29762.0769 1106.6755 1191.6894
ENERGY: 300000 13.9003 4.9589 14.4979 0.0000 -10534.2119 1386.4161 0.0000 0.0000 1754.1883 -7360.2504 300.5610 -9114.4387 -7392.6575 297.8951 -236.2377 -249.1307 30316.4426 269.3201 334.0511
ENERGY: 600000 6.1616 3.3748 15.7560 0.0000 -10597.3787 1419.7284 0.0000 0.0000 1725.9433 -7426.4146 295.7215 -9152.3579 -7397.9386 300.0861 -50.2545 -38.4328 30500.3759 251.2004 307.1279
ENERGY: 900000 6.4184 4.8379 14.8720 0.0000 -10694.1499 1446.1781 0.0000 0.0000 1799.7510 -7422.0925 308.3677 -9221.8435 -7385.8242 302.1020 -5.6369 37.8609 30275.0872 145.1305 198.3008
ENERGY: 1200000 6.3894 4.7509 15.3808 0.0000 -10498.4509 1393.5180 0.0000 0.0000 1771.9901 -7306.4217 303.6112 -9078.4118 -7373.4244 302.5203 212.1580 241.5873 30502.4658 101.5545 162.2011
ENERGY: 1500000 8.3313 6.5687 12.5735 0.0000 -10501.8179 1323.5189 0.0000 0.0000 1689.7005 -7461.1251 289.5117 -9150.8256 -7375.9844 301.6981 -887.0299 -807.4888 30213.2673 25.4867 88.0104
TCL: Running FEP window  20: Lambda1 0.9500000000000003 Lambda2 1.0    [dLambda 0.04999999999999971]
TCL: Setting parameter firsttimestep to 0
TCL: Setting parameter alchLambda to 0.9500000000000003
Info: NONBONDED TABLE R-SQUARED SPACING: 0.0625
Info: NONBONDED TABLE SIZE: 705 POINTS
TCL: Setting parameter alchLambda2 to 1.0
Info: NONBONDED TABLE R-SQUARED SPACING: 0.0625
Info: NONBONDED TABLE SIZE: 705 POINTS
TCL: Running for 1500000 steps
ETITLE: TS BOND ANGLE DIHED IMPRP ELECT VDW BOUNDARY MISC KINETIC TOTAL TEMP POTENTIAL TOTALAVG TEMPAVG PRESSURE GPRESSURE VOLUME PRESSAVG GPRESSAVG
ENERGY: 0 8.3313 6.5688 12.5735 0.0000 -10501.9053 1323.2503 0.0000 0.0000 1688.8412 -7462.3402 289.3645 -9151.1815 -7462.3402 289.3645 -865.8239 -786.6906 30213.2673 -865.8239 -786.6906
ENERGY: 300000 10.6822 4.2837 12.7476 0.0000 -10538.1184 1461.7748 0.0000 0.0000 1761.8517 -7286.7784 301.8740 -9048.6301 -7371.4042 291.4951 540.3212 648.2852 30541.5441 -182.0434 -90.0156
ENERGY: 600000 7.7102 2.4309 12.1557 0.0000 -10693.1577 1473.0290 0.0000 0.0000 1777.4654 -7420.3666 304.5493 -9197.8320 -7373.5374 295.0135 338.0546 406.0649 30193.7264 -274.4452 -195.1029
ENERGY: 900000 7.9926 2.6240 15.6746 0.0000 -10667.1239 1497.1994 0.0000 0.0000 1757.0051 -7386.6282 301.0437 -9143.6333 -7369.4538 296.3587 802.8601 924.7271 29710.6116 -72.0158 2.5309
ENERGY: 1200000 10.1752 6.5072 9.3857 0.0000 -10489.8648 1348.3865 0.0000 0.0000 1743.5126 -7371.8976 298.7318 -9115.4102 -7357.8276 297.2604 -734.4754 -632.4830 30464.7223 -116.1985 -41.0841
ENERGY: 1500000 9.8841 2.2869 12.4950 0.0000 -10378.6016 1276.3731 0.0000 0.0000 1743.8790 -7333.6835 298.7946 -9077.5625 -7351.2256 298.0969 -688.1989 -693.5363 30207.2962 -168.7315 -97.7322
TCL: Exiting due to exit command.
