Info: SIMULATION PARAMETERS:
Info: TIMESTEP               2
Info: NUMBER OF STEPS        0
Info: STEPS PER CYCLE        10
Info: PERIODIC CELL BASIS 1  30.9105 0 0
Info: PERIODIC CELL BASIS 2  0 30.2691 0
Info: PERIODIC CELL BASIS 3  0 0 31.9822
Info: PERIODIC CELL CENTER   0 0 0
Info: WRAPPING WATERS AROUND PERIODIC BOUNDARIES ON OUTPUT.
Info: WRAPPING ALL CLUSTERS AROUND PERIODIC BOUNDARIES ON OUTPUT.
Info: FIRST LDB TIMESTEP     50
Info: LAST LDB TIMESTEP     -1
Info: HOM BACKGROUND SCALING 1
Info: PME BACKGROUND SCALING 1
Info: MIN ATOMS PER PATCH    40
Info: EMPTY PATCH LOAD       40 ATOMS
Info: VELOCITY FILE          mobley_820789_equil.vel
Info: CENTER OF MASS MOVING INITIALLY? NO
Info: DIELECTRIC             1
Info: EXCLUDE                SCALED ONE-FOUR
Info: 1-4 ELECTROSTATICS SCALED BY 0.833333
Info: MODIFIED 1-4 VDW PARAMETERS WILL BE USED
Info: DCD FILENAME           mobley_820789_prod.dcd
Info: DCD FREQUENCY          100000
Info: DCD FIRST STEP         100000
Info: DCD FILE WILL CONTAIN UNIT CELL DATA
Info: XST FILENAME           mobley_820789_prod.xst
Info: XST FREQUENCY          100000
Info: NO VELOCITY DCD OUTPUT
Info: NO FORCE DCD OUTPUT
Info: OUTPUT FILENAME        mobley_820789_prod
Info: BINARY OUTPUT FILES WILL BE USED
Info: RESTART FILENAME       mobley_820789_prod.restart
Info: RESTART FREQUENCY      100000
Info: BINARY RESTART FILES WILL BE USED
Info: CUTOFF                 9
Info: PAIRLIST DISTANCE      11
Info: PAIRLIST SHRINK RATE   0.01
Info: PAIRLIST GROW RATE     0.01
Info: PAIRLIST TRIGGER       0.3
Info: PAIRLISTS PER CYCLE    2
Info: PAIRLISTS ENABLED
Info: MARGIN                 2
Info: HYDROGEN GROUP CUTOFF  2.5
Info: PATCH DIMENSION        15.5
Info: ENERGY OUTPUT STEPS    100000
Info: ENERGY EVALUATION STEPS    100000
Info: OUTPUT ENERGY PRECISION 4
Info: CROSSTERM ENERGY INCLUDED IN DIHEDRAL
Info: TIMING OUTPUT STEPS    1000000
Info: PRESSURE OUTPUT STEPS  100000
Info: ALCHEMICAL FEP ON
Info: FEP CURRENT LAMBDA VALUE     1
Info: FEP COMPARISON LAMBDA VALUE  0.95
Info: FEP INTRA-ALCHEMICAL NON-BONDED INTERACTIONS WILL BE RETAINED
Info: FEP INTRA-ALCHEMICAL BONDED INTERACTIONS WILL BE RETAINED
Info: FEP VDW SHIFTING COEFFICIENT 5
Info: FEP ELEC. ACTIVE FOR ANNIHILATED PARTICLES BETWEEN LAMBDA = 0 AND LAMBDA = 0.5
Info: FEP ELEC. ACTIVE FOR EXNIHILATED PARTICLES BETWEEN LAMBDA = 0.5 AND LAMBDA = 1
Info: FEP VDW ACTIVE FOR ANNIHILATED PARTICLES BETWEEN LAMBDA = 0 AND LAMBDA = 1
Info: FEP VDW ACTIVE FOR EXNIHILATED PARTICLES BETWEEN LAMBDA = 0 AND LAMBDA = 1
Info: FEP BOND ACTIVE FOR ANNIHILATED PARTICLES BETWEEN LAMBDA = 1 AND LAMBDA = 1
Info: FEP BOND ACTIVE FOR EXNIHILATED PARTICLES BETWEEN LAMBDA = 0 AND LAMBDA = 0
Info: LANGEVIN DYNAMICS ACTIVE
Info: LANGEVIN TEMPERATURE   300
Info: LANGEVIN USING BBK INTEGRATOR
Info: LANGEVIN DAMPING COEFFICIENT IS 1 INVERSE PS
Info: LANGEVIN DYNAMICS APPLIED TO HYDROGENS
Info: LANGEVIN PISTON PRESSURE CONTROL ACTIVE
Info:        TARGET PRESSURE IS 1.01325 BAR
Info:     OSCILLATION PERIOD IS 50 FS
Info:             DECAY TIME IS 25 FS
Info:     PISTON TEMPERATURE IS 300 K
Info:       PRESSURE CONTROL IS GROUP-BASED
Info:    INITIAL STRAIN RATE IS -0.000137688 -0.000137688 -0.000137688
Info:       CELL FLUCTUATION IS ISOTROPIC
Info: PARTICLE MESH EWALD (PME) ACTIVE
Info: PME TOLERANCE               1e-06
Info: PME EWALD COEFFICIENT       0.348832
Info: PME INTERPOLATION ORDER     4
Info: PME GRID DIMENSIONS         32 32 32
Info: PME MAXIMUM GRID SPACING    1
Info: PME CALCULATION WILL BE PERFORMED ON GPU
Info: FULL ELECTROSTATIC EVALUATION FREQUENCY      2
Info: USING VERLET I (r-RESPA) MTS SCHEME.
Info: C1 SPLITTING OF LONG RANGE ELECTROSTATICS
Info: PLACING ATOMS IN PATCHES BY HYDROGEN GROUPS
Info: RIGID BONDS TO HYDROGEN : ALL
Info:         ERROR TOLERANCE : 1e-08
Info:          MAX ITERATIONS : 100
Info: RIGID WATER USING SETTLE ALGORITHM
Info: RANDOM NUMBER SEED     1743832844
Info: USE HYDROGEN BONDS?    NO
Info: Using AMBER format force field!
Info: AMBER PARM FILE        mobley_820789.prmtop
Info: COORDINATE PDB         mobley_820789.pdb
Info: Exclusions will be read from PARM file!
Info: SCNB (VDW SCALING)     2
Info: USING ARITHMETIC MEAN TO COMBINE L-J SIGMA PARAMETERS
Info: BINARY COORDINATES     mobley_820789_equil.coor
Info: SUMMARY OF PARAMETERS:
Info: 8 BONDS
Info: 9 ANGLES
Info:   9 HARMONIC
Info:   0 COSINE-BASED
Info: 10 DIHEDRAL
Info: 0 IMPROPER
Info: 0 CROSSTERM
Info: 0 VDW
Info: 28 VDW_PAIRS
Info: 0 NBTHOLE_PAIRS
Info: To read alchdata from file: mobley_820789.pdb
Info: To read alchflag data from column: 5
Info: STRUCTURE SUMMARY:
Info: 2930 ATOMS
Info: 2929 BONDS
Info: 22 ANGLES
Info: 32 DIHEDRALS
Info: 0 IMPROPERS
Info: 0 CROSSTERMS
Info: 2977 EXCLUSIONS
Info: 2924 RIGID BONDS
Info: ALCH: 0 ATOMS TO DISAPPEAR IN FINAL STATE
Info: ALCH: 14 ATOMS TO APPEAR IN FINAL STATE
Info: 5866 DEGREES OF FREEDOM
Info: 978 HYDROGEN GROUPS
Info: 4 ATOMS IN LARGEST HYDROGEN GROUP
Info: 978 MIGRATION GROUPS
Info: 4 ATOMS IN LARGEST MIGRATION GROUP
Info: TOTAL MASS = 17599.7 amu
Info: TOTAL CHARGE = 0.000199962 e
Info: MASS DENSITY = 0.976675 g/cm^3
Info: ATOM DENSITY = 0.0979161 atoms/A^3
Info: ADDED 0 IMPLICIT EXCLUSIONS
Info: NONBONDED TABLE R-SQUARED SPACING: 0.0625
Info: NONBONDED TABLE SIZE: 705 POINTS
Info: REMOVING COM VELOCITY -0.0545737 -0.0712204 0.193466
Info: Use 3D box decompostion in PME FFT.
Info: Updated CUDA force table with 4096 elements.
Info: Updated CUDA LJ table with 7 x 7 elements.
Info: Found 17 unique exclusion lists needing 36 bytes
TCL: Running for 1500000 steps
ETITLE: TS BOND ANGLE DIHED IMPRP ELECT VDW BOUNDARY MISC KINETIC TOTAL TEMP POTENTIAL TOTALAVG TEMPAVG PRESSURE GPRESSURE VOLUME PRESSAVG GPRESSAVG
ENERGY: 0 1.2256 9.1112 3.9459 0.0000 -10681.0216 1512.4910 0.0000 0.0000 1772.6252 -7381.6227 304.1342 -9154.2479 -7381.6227 304.1342 919.3249 997.7025 29923.5667 919.3249 997.7025
ENERGY: 300000 0.4634 4.7924 3.1202 0.0000 -10840.7316 1530.8325 0.0000 0.0000 1749.2618 -7552.2613 300.1257 -9301.5231 -7451.9117 302.8356 711.7836 799.9429 29920.5382 3.6965 84.2977
ENERGY: 600000 2.0462 4.5974 1.0246 0.0000 -10678.0239 1404.3843 0.0000 0.0000 1733.4886 -7532.4827 297.4194 -9265.9714 -7472.6723 302.0812 -518.3953 -445.8762 30364.5072 -219.9296 -152.8283
ENERGY: 900000 2.9782 6.8758 1.9987 0.0000 -10589.3767 1376.3956 0.0000 0.0000 1738.6169 -7462.5115 298.2993 -9201.1284 -7465.4325 301.1232 -170.0460 -84.5021 30154.9649 -217.2097 -155.1391
ENERGY: 1200000 1.7172 4.3215 2.9305 0.0000 -10668.1958 1456.3213 0.0000 0.0000 1761.6934 -7441.2119 302.2586 -9202.9053 -7466.2756 299.7059 237.8039 293.9548 30356.0039 -129.3162 -68.6095
ENERGY: 1500000 2.7810 5.7604 2.3202 0.0000 -10578.0807 1337.3299 0.0000 0.0000 1764.1173 -7465.7719 302.6745 -9229.8892 -7464.1006 299.8265 -786.8112 -775.4099 30282.2921 -125.1743 -72.3148
TCL: Running FEP window   2: Lambda1 0.95   Lambda2 0.8999999999999999 [dLambda -0.050000000000000044]
TCL: Setting parameter firsttimestep to 0
TCL: Setting parameter alchLambda to 0.95
Info: NONBONDED TABLE R-SQUARED SPACING: 0.0625
Info: NONBONDED TABLE SIZE: 705 POINTS
TCL: Setting parameter alchLambda2 to 0.8999999999999999
Info: NONBONDED TABLE R-SQUARED SPACING: 0.0625
Info: NONBONDED TABLE SIZE: 705 POINTS
TCL: Running for 1500000 steps
ETITLE: TS BOND ANGLE DIHED IMPRP ELECT VDW BOUNDARY MISC KINETIC TOTAL TEMP POTENTIAL TOTALAVG TEMPAVG PRESSURE GPRESSURE VOLUME PRESSAVG GPRESSAVG
ENERGY: 0 2.7810 5.7604 2.3202 0.0000 -10575.8555 1336.3547 0.0000 0.0000 1763.2559 -7465.3833 302.5267 -9228.6392 -7465.3833 302.5267 -870.1718 -790.9777 30282.2921 -870.1718 -790.9777
ENERGY: 300000 0.5171 6.9984 3.0361 0.0000 -10757.8875 1463.1152 0.0000 0.0000 1713.3269 -7570.8938 293.9602 -9284.2207 -7513.1524 297.1168 130.0838 240.2300 30001.1471 -189.9771 -108.6580
ENERGY: 600000 2.0040 6.3227 1.3209 0.0000 -10703.2473 1459.6443 0.0000 0.0000 1754.6422 -7479.3132 301.0488 -9233.9554 -7512.4885 299.4625 232.7533 260.8640 29976.8470 -151.3696 -80.3303
ENERGY: 900000 0.6360 8.6024 2.4795 0.0000 -10643.8393 1419.3450 0.0000 0.0000 1792.8905 -7419.8858 307.6112 -9212.7763 -7490.3156 300.7648 -61.1003 -0.7078 30372.5114 -71.2364 -13.4371
ENERGY: 1200000 1.7317 8.2130 2.9699 0.0000 -10700.7561 1438.2000 0.0000 0.0000 1757.7937 -7491.8478 301.5895 -9249.6415 -7492.2095 301.4619 -232.1052 -84.8808 30466.9910 -67.5760 -3.8607
ENERGY: 1500000 0.4538 9.1333 4.3891 0.0000 -10547.1227 1350.7720 0.0000 0.0000 1773.4461 -7408.9284 304.2750 -9182.3745 -7484.7816 301.9982 -500.7227 -452.2590 30275.8518 -114.6384 -53.0084
TCL: Running FEP window   3: Lambda1 0.8999999999999999 Lambda2 0.8499999999999999 [dLambda -0.050000000000000044]
TCL: Setting parameter firsttimestep to 0
TCL: Setting parameter alchLambda to 0.8999999999999999
Info: NONBONDED TABLE R-SQUARED SPACING: 0.0625
Info: NONBONDED TABLE SIZE: 705 POINTS
TCL: Setting parameter alchLambda2 to 0.8499999999999999
Info: NONBONDED TABLE R-SQUARED SPACING: 0.0625
Info: NONBONDED TABLE SIZE: 705 POINTS
TCL: Running for 1500000 steps
ETITLE: TS BOND ANGLE DIHED IMPRP ELECT VDW BOUNDARY MISC KINETIC TOTAL TEMP POTENTIAL TOTALAVG TEMPAVG PRESSURE GPRESSURE VOLUME PRESSAVG GPRESSAVG
ENERGY: 0 0.4538 9.1333 4.3891 0.0000 -10545.5326 1350.7325 0.0000 0.0000 1772.5983 -7408.2256 304.1296 -9180.8240 -7408.2256 304.1296 -546.4252 -458.8070 30275.8518 -546.4252 -458.8070
ENERGY: 300000 0.3847 2.1146 1.1346 0.0000 -10545.6939 1282.3252 0.0000 0.0000 1783.2640 -7476.4708 305.9595 -9259.7348 -7461.3603 302.1794 -1416.8878 -1420.5898 30842.9838 -905.2650 -847.5920
ENERGY: 600000 0.8589 2.6892 2.5317 0.0000 -10650.0253 1435.6232 0.0000 0.0000 1769.1842 -7439.1381 303.5438 -9208.3223 -7451.9560 302.5268 -14.6395 96.9193 30370.9013 -411.4658 -352.1174
ENERGY: 900000 1.6429 3.2519 2.0546 0.0000 -10782.8331 1491.0839 0.0000 0.0000 1710.5070 -7574.2928 293.4764 -9284.7998 -7472.6599 300.4119 306.9437 325.5335 30441.5437 -359.8770 -307.0194
ENERGY: 1200000 1.8341 4.0723 4.0476 0.0000 -10641.6231 1353.7000 0.0000 0.0000 1769.8885 -7508.0805 303.6646 -9277.9690 -7483.8342 300.6378 -477.0780 -415.4983 30086.5829 -360.4519 -309.1827
ENERGY: 1500000 1.4572 2.9146 2.3916 0.0000 -10806.7780 1535.5928 0.0000 0.0000 1754.5639 -7509.8579 301.0354 -9264.4218 -7482.3162 300.6452 1066.2945 1130.5459 29626.2425 -276.0366 -220.7232
TCL: Running FEP window   4: Lambda1 0.8499999999999999 Lambda2 0.7999999999999998 [dLambda -0.050000000000000044]
TCL: Setting parameter firsttimestep to 0
TCL: Setting parameter alchLambda to 0.8499999999999999
Info: NONBONDED TABLE R-SQUARED SPACING: 0.0625
Info: NONBONDED TABLE SIZE: 705 POINTS
TCL: Setting parameter alchLambda2 to 0.7999999999999998
Info: NONBONDED TABLE R-SQUARED SPACING: 0.0625
Info: NONBONDED TABLE SIZE: 705 POINTS
TCL: Running for 1500000 steps
ETITLE: TS BOND ANGLE DIHED IMPRP ELECT VDW BOUNDARY MISC KINETIC TOTAL TEMP POTENTIAL TOTALAVG TEMPAVG PRESSURE GPRESSURE VOLUME PRESSAVG GPRESSAVG
ENERGY: 0 1.4572 2.9146 2.3916 0.0000 -10804.0766 1535.3289 0.0000 0.0000 1753.6952 -7508.2892 300.8863 -9261.9843 -7508.2892 300.8863 1035.1160 1120.5775 29626.2425 1035.1160 1120.5775
ENERGY: 300000 1.7045 6.5372 3.4605 0.0000 -10720.5479 1412.1040 0.0000 0.0000 1765.5852 -7531.1565 302.9263 -9296.7417 -7526.6026 302.8872 -348.0284 -248.9157 30211.5170 -200.4681 -136.2535
ENERGY: 600000 0.7515 7.7324 4.4391 0.0000 -10644.7805 1450.7858 0.0000 0.0000 1746.6092 -7434.4626 299.6705 -9181.0718 -7512.2126 300.0906 574.5809 613.5528 29667.3414 -105.1422 -38.2510
ENERGY: 900000 1.7984 5.7154 2.9211 0.0000 -10497.8746 1368.3261 0.0000 0.0000 1756.2291 -7362.8844 301.3211 -9119.1135 -7488.1204 300.0760 -615.0889 -523.6518 30906.5861 -112.0384 -44.6442
ENERGY: 1200000 0.4146 6.1646 1.4398 0.0000 -10555.2370 1408.5604 0.0000 0.0000 1782.8024 -7355.8552 305.8803 -9138.6575 -7474.3345 300.9807 191.7960 253.4670 29931.5502 -143.7744 -82.9464
ENERGY: 1500000 3.6403 5.1636 1.2997 0.0000 -10693.7183 1514.9368 0.0000 0.0000 1768.7025 -7399.9755 303.4612 -9168.6780 -7472.3530 300.8464 416.9321 501.2588 30588.9834 -67.0165 -4.0750
TCL: Running FEP window   5: Lambda1 0.7999999999999998 Lambda2 0.7499999999999998 [dLambda -0.050000000000000044]
TCL: Setting parameter firsttimestep to 0
TCL: Setting parameter alchLambda to 0.7999999999999998
Info: NONBONDED TABLE R-SQUARED SPACING: 0.0625
Info: NONBONDED TABLE SIZE: 705 POINTS
TCL: Setting parameter alchLambda2 to 0.7499999999999998
Info: NONBONDED TABLE R-SQUARED SPACING: 0.0625
Info: NONBONDED TABLE SIZE: 705 POINTS
TCL: Running for 1500000 steps
ETITLE: TS BOND ANGLE DIHED IMPRP ELECT VDW BOUNDARY MISC KINETIC TOTAL TEMP POTENTIAL TOTALAVG TEMPAVG PRESSURE GPRESSURE VOLUME PRESSAVG GPRESSAVG
ENERGY: 0 3.6403 5.1636 1.2997 0.0000 -10691.3107 1514.7215 0.0000 0.0000 1767.7747 -7398.7110 303.3020 -9166.4856 -7398.7110 303.3020 418.8944 496.3438 30588.9834 418.8944 496.3438
ENERGY: 300000 0.5306 6.1543 0.8971 0.0000 -10554.1118 1309.1575 0.0000 0.0000 1696.1100 -7541.2623 291.0063 -9237.3723 -7451.6754 298.9042 -884.0701 -821.6762 30014.2202 -81.2005 -23.3015
ENERGY: 600000 2.5122 6.8005 4.1688 0.0000 -10625.2137 1366.3097 0.0000 0.0000 1754.0813 -7491.3411 300.9526 -9245.4224 -7461.7710 298.5194 -625.5017 -507.5234 30286.8507 -74.2555 -18.7594
ENERGY: 900000 0.0521 3.3046 3.9313 0.0000 -10703.8076 1495.4406 0.0000 0.0000 1695.7227 -7505.3563 290.9398 -9201.0790 -7462.0685 298.7738 692.0840 749.7882 29891.6712 30.6289 91.1093
ENERGY: 1200000 0.2549 10.4553 6.4189 0.0000 -10808.6905 1469.5930 0.0000 0.0000 1752.6141 -7569.3543 300.7008 -9321.9684 -7472.5049 297.9453 156.6608 229.8430 29831.6627 -36.3200 28.0751
ENERGY: 1500000 0.4318 7.1947 7.7092 0.0000 -10766.7475 1449.8865 0.0000 0.0000 1727.1270 -7574.3984 296.3279 -9301.5254 -7472.5850 298.0046 49.8894 66.8278 29967.1525 -74.9004 -19.2820
TCL: Running FEP window   6: Lambda1 0.7499999999999998 Lambda2 0.6999999999999997 [dLambda -0.050000000000000044]
TCL: Setting parameter firsttimestep to 0
TCL: Setting parameter alchLambda to 0.7499999999999998
Info: NONBONDED TABLE R-SQUARED SPACING: 0.0625
Info: NONBONDED TABLE SIZE: 705 POINTS
TCL: Setting parameter alchLambda2 to 0.6999999999999997
Info: NONBONDED TABLE R-SQUARED SPACING: 0.0625
Info: NONBONDED TABLE SIZE: 705 POINTS
TCL: Running for 1500000 steps
ETITLE: TS BOND ANGLE DIHED IMPRP ELECT VDW BOUNDARY MISC KINETIC TOTAL TEMP POTENTIAL TOTALAVG TEMPAVG PRESSURE GPRESSURE VOLUME PRESSAVG GPRESSAVG
ENERGY: 0 0.4318 7.1947 7.7092 0.0000 -10765.2222 1448.8785 0.0000 0.0000 1726.2725 -7574.7356 296.1813 -9301.0081 -7574.7356 296.1813 -32.5439 50.5992 29967.1525 -32.5439 50.5992
ENERGY: 300000 0.1281 7.4970 6.7362 0.0000 -10650.0658 1422.9338 0.0000 0.0000 1762.3962 -7450.3744 302.3792 -9212.7707 -7477.4386 299.3818 150.0479 278.8133 29938.8956 -258.0895 -156.3763
ENERGY: 600000 1.8811 6.7036 5.2032 0.0000 -10644.6957 1439.4464 0.0000 0.0000 1720.1519 -7471.3094 295.1312 -9191.4613 -7467.5032 300.3351 -121.1506 -5.6408 30454.9191 -195.4343 -110.8122
ENERGY: 900000 3.2478 6.2511 4.9126 0.0000 -10785.2649 1472.1086 0.0000 0.0000 1763.8407 -7534.9040 302.6270 -9298.7447 -7469.7680 300.0937 220.6020 227.9343 29783.5166 -132.1984 -71.1245
ENERGY: 1200000 2.3463 8.5818 5.9044 0.0000 -10734.4096 1431.8059 0.0000 0.0000 1691.6681 -7594.1031 290.2442 -9285.7712 -7486.0402 299.5629 -78.3237 -80.1177 29683.2514 -103.5765 -46.3739
ENERGY: 1500000 0.5834 5.3853 5.3832 0.0000 -10601.4498 1367.1216 0.0000 0.0000 1772.6740 -7450.3022 304.1426 -9222.9762 -7478.6490 299.9792 -615.3731 -519.7951 30331.1991 -132.8644 -70.3878
TCL: Running FEP window   7: Lambda1 0.6999999999999997 Lambda2 0.6499999999999997 [dLambda -0.050000000000000044]
TCL: Setting parameter firsttimestep to 0
TCL: Setting parameter alchLambda to 0.6999999999999997
Info: NONBONDED TABLE R-SQUARED SPACING: 0.0625
Info: NONBONDED TABLE SIZE: 705 POINTS
TCL: Setting parameter alchLambda2 to 0.6499999999999997
Info: NONBONDED TABLE R-SQUARED SPACING: 0.0625
Info: NONBONDED TABLE SIZE: 705 POINTS
TCL: Running for 1500000 steps
ETITLE: TS BOND ANGLE DIHED IMPRP ELECT VDW BOUNDARY MISC KINETIC TOTAL TEMP POTENTIAL TOTALAVG TEMPAVG PRESSURE GPRESSURE VOLUME PRESSAVG GPRESSAVG
ENERGY: 0 0.5834 5.3853 5.3832 0.0000 -10600.4961 1367.1645 0.0000 0.0000 1771.8132 -7450.1664 303.9949 -9221.9796 -7450.1664 303.9949 -615.5284 -523.9802 30331.1991 -615.5284 -523.9802
ENERGY: 300000 1.2962 11.0398 6.5231 0.0000 -10666.2745 1428.0885 0.0000 0.0000 1758.9367 -7460.3903 301.7856 -9219.3270 -7476.6824 300.3892 -55.7448 17.1214 30178.4925 -78.2587 -25.6886
ENERGY: 600000 4.5172 7.4464 5.8943 0.0000 -10674.3902 1510.6315 0.0000 0.0000 1782.2111 -7363.6897 305.7789 -9145.9008 -7466.0972 300.7480 609.7934 623.7352 30437.8268 -63.6929 -9.1122
ENERGY: 900000 3.3990 6.1438 6.0789 0.0000 -10569.4825 1358.1772 0.0000 0.0000 1762.5529 -7433.1308 302.4061 -9195.6837 -7451.6908 301.5380 -395.4905 -440.9679 30401.3253 6.2124 51.7987
ENERGY: 1200000 1.6344 6.9655 6.0162 0.0000 -10709.6100 1452.4162 0.0000 0.0000 1745.9495 -7496.6282 299.5574 -9242.5776 -7455.2931 301.3759 175.6590 140.7406 30180.9109 -53.3763 -9.1534
ENERGY: 1500000 1.9841 8.9818 6.3021 0.0000 -10728.6923 1493.7837 0.0000 0.0000 1713.7440 -7503.8967 294.0318 -9217.6406 -7453.0705 301.0585 687.5857 706.1839 29828.2176 -38.9048 1.3623
TCL: Running FEP window   8: Lambda1 0.6499999999999997 Lambda2 0.5999999999999996 [dLambda -0.050000000000000044]
TCL: Setting parameter firsttimestep to 0
TCL: Setting parameter alchLambda to 0.6499999999999997
Info: NONBONDED TABLE R-SQUARED SPACING: 0.0625
Info: NONBONDED TABLE SIZE: 705 POINTS
TCL: Setting parameter alchLambda2 to 0.5999999999999996
Info: NONBONDED TABLE R-SQUARED SPACING: 0.0625
Info: NONBONDED TABLE SIZE: 705 POINTS
TCL: Running for 1500000 steps
ETITLE: TS BOND ANGLE DIHED IMPRP ELECT VDW BOUNDARY MISC KINETIC TOTAL TEMP POTENTIAL TOTALAVG TEMPAVG PRESSURE GPRESSURE VOLUME PRESSAVG GPRESSAVG
ENERGY: 0 1.9841 8.9818 6.3021 0.0000 -10727.8038 1493.8299 0.0000 0.0000 1712.8978 -7503.8082 293.8866 -9216.7059 -7503.8082 293.8866 608.6313 698.5170 29828.2176 608.6313 698.5170
ENERGY: 300000 2.0374 7.1459 5.6933 0.0000 -10756.1147 1488.3278 0.0000 0.0000 1750.6399 -7502.2703 300.3621 -9252.9102 -7477.0165 300.2179 293.4455 356.4750 30279.2560 282.6810 347.7374
ENERGY: 600000 1.4782 8.3773 6.9820 0.0000 -10629.0134 1430.4795 0.0000 0.0000 1733.2593 -7448.4371 297.3801 -9181.6964 -7487.9386 298.0626 -166.2964 -59.1381 30669.3006 75.2190 144.8094
ENERGY: 900000 3.3219 4.6965 6.7654 0.0000 -10551.4444 1361.2189 0.0000 0.0000 1761.3940 -7414.0478 302.2072 -9175.4418 -7495.4738 298.9053 -179.6136 -125.5231 30018.5159 64.6275 132.2621
ENERGY: 1200000 0.8533 5.4632 6.9225 0.0000 -10705.4521 1479.1792 0.0000 0.0000 1792.0735 -7420.9604 307.4710 -9213.0339 -7487.5035 300.4677 706.1091 720.6532 29802.0483 82.7423 147.6769
ENERGY: 1500000 1.2691 13.2917 7.4474 0.0000 -10462.3333 1353.8119 0.0000 0.0000 1768.5623 -7317.9510 303.4371 -9086.5133 -7470.4933 300.4128 -154.2751 -155.5409 30167.6488 45.4006 104.6269
TCL: Running FEP window   9: Lambda1 0.5999999999999996 Lambda2 0.5499999999999996 [dLambda -0.050000000000000044]
TCL: Setting parameter firsttimestep to 0
TCL: Setting parameter alchLambda to 0.5999999999999996
Info: NONBONDED TABLE R-SQUARED SPACING: 0.0625
Info: NONBONDED TABLE SIZE: 705 POINTS
TCL: Setting parameter alchLambda2 to 0.5499999999999996
Info: NONBONDED TABLE R-SQUARED SPACING: 0.0625
Info: NONBONDED TABLE SIZE: 705 POINTS
TCL: Running for 1500000 steps
ETITLE: TS BOND ANGLE DIHED IMPRP ELECT VDW BOUNDARY MISC KINETIC TOTAL TEMP POTENTIAL TOTALAVG TEMPAVG PRESSURE GPRESSURE VOLUME PRESSAVG GPRESSAVG
ENERGY: 0 1.2691 13.2917 7.4474 0.0000 -10460.9071 1353.7848 0.0000 0.0000 1767.6778 -7317.4363 303.2853 -9085.1141 -7317.4363 303.2853 -235.7299 -157.3617 30167.6488 -235.7299 -157.3617
ENERGY: 300000 2.4508 5.6418 5.5235 0.0000 -10475.3598 1307.7211 0.0000 0.0000 1753.3930 -7400.6296 300.8345 -9154.0226 -7398.8389 305.0947 -795.1955 -691.3030 30045.2778 -280.7690 -172.9101
ENERGY: 600000 3.0097 5.8833 6.7124 0.0000 -10688.6141 1404.9210 0.0000 0.0000 1705.2851 -7562.8026 292.5805 -9268.0877 -7429.0483 301.3788 -528.0376 -488.9249 30177.1322 -233.7792 -141.7326
ENERGY: 900000 3.1699 6.5230 8.3667 0.0000 -10689.2979 1472.8787 0.0000 0.0000 1820.3420 -7378.0176 312.3211 -9198.3596 -7436.0576 301.5043 360.3842 423.9243 30230.1961 -240.3451 -156.2458
ENERGY: 1200000 1.2724 9.0702 5.4854 0.0000 -10691.7696 1387.4793 0.0000 0.0000 1714.6898 -7573.7725 294.1941 -9288.4623 -7445.3547 301.2231 -556.9321 -496.6451 30037.5207 -253.2322 -170.7424
ENERGY: 1500000 1.6271 6.7709 6.1083 0.0000 -10697.2034 1448.6689 0.0000 0.0000 1775.4087 -7458.6195 304.6118 -9234.0282 -7452.7138 300.9175 -12.6637 49.9928 30173.0974 -312.8657 -234.0204
TCL: Running FEP window  10: Lambda1 0.5499999999999996 Lambda2 0.4999999999999996 [dLambda -0.04999999999999999]
TCL: Setting parameter firsttimestep to 0
TCL: Setting parameter alchLambda to 0.5499999999999996
Info: NONBONDED TABLE R-SQUARED SPACING: 0.0625
Info: NONBONDED TABLE SIZE: 705 POINTS
TCL: Setting parameter alchLambda2 to 0.4999999999999996
Info: NONBONDED TABLE R-SQUARED SPACING: 0.0625
Info: NONBONDED TABLE SIZE: 705 POINTS
TCL: Running for 1500000 steps
ETITLE: TS BOND ANGLE DIHED IMPRP ELECT VDW BOUNDARY MISC KINETIC TOTAL TEMP POTENTIAL TOTALAVG TEMPAVG PRESSURE GPRESSURE VOLUME PRESSAVG GPRESSAVG
ENERGY: 0 1.6271 6.7709 6.1083 0.0000 -10696.0698 1448.4285 0.0000 0.0000 1774.5412 -7458.5937 304.4629 -9233.1349 -7458.5937 304.4629 -29.3885 41.5769 30173.0974 -29.3885 41.5769
ENERGY: 300000 2.1770 7.5022 6.0646 0.0000 -10698.7823 1440.6456 0.0000 0.0000 1806.9175 -7435.4754 310.0178 -9242.3929 -7496.1149 301.8203 250.1544 317.4320 29807.9350 13.2193 84.7905
ENERGY: 600000 3.9861 8.7185 7.0114 0.0000 -10647.6932 1424.1976 0.0000 0.0000 1738.3324 -7465.4473 298.2505 -9203.7796 -7474.7975 302.1976 -49.6874 -11.9782 30336.6920 -60.4891 1.7942
ENERGY: 900000 1.5309 9.0153 8.0838 0.0000 -10738.0939 1457.3868 0.0000 0.0000 1730.4350 -7531.6420 296.8955 -9262.0770 -7475.9532 300.5595 -157.6365 -77.2334 30308.9796 -87.9612 -17.0006
ENERGY: 1200000 0.5688 6.2060 5.3482 0.0000 -10583.1310 1396.7383 0.0000 0.0000 1795.7209 -7378.5487 308.0968 -9174.2696 -7464.2839 301.1686 -323.7669 -246.7230 30407.7770 -29.0324 42.9878
ENERGY: 1500000 4.0901 6.0343 5.2881 0.0000 -10617.2060 1446.4666 0.0000 0.0000 1734.6922 -7420.6347 297.6259 -9155.3269 -7456.7359 300.8858 126.3950 174.0672 30742.5403 -85.2215 -14.2872
TCL: Running FEP window  11: Lambda1 0.4999999999999996 Lambda2 0.4499999999999996 [dLambda -0.04999999999999999]
TCL: Setting parameter firsttimestep to 0
TCL: Setting parameter alchLambda to 0.4999999999999996
Info: NONBONDED TABLE R-SQUARED SPACING: 0.0625
Info: NONBONDED TABLE SIZE: 705 POINTS
TCL: Setting parameter alchLambda2 to 0.4499999999999996
Info: NONBONDED TABLE R-SQUARED SPACING: 0.0625
Info: NONBONDED TABLE SIZE: 705 POINTS
TCL: Running for 1500000 steps
ETITLE: TS BOND ANGLE DIHED IMPRP ELECT VDW BOUNDARY MISC KINETIC TOTAL TEMP POTENTIAL TOTALAVG TEMPAVG PRESSURE GPRESSURE VOLUME PRESSAVG GPRESSAVG
ENERGY: 0 4.0901 6.0343 5.2881 0.0000 -10616.8355 1446.9505 0.0000 0.0000 1733.8278 -7420.6447 297.4776 -9154.4725 -7420.6447 297.4776 93.5603 174.6131 30742.5403 93.5603 174.6131
ENERGY: 300000 1.6726 11.9364 7.6429 0.0000 -10775.2388 1508.0425 0.0000 0.0000 1789.0985 -7456.8459 306.9606 -9245.9443 -7441.4795 303.0593 651.9558 717.5017 29635.6580 238.0597 313.3016
ENERGY: 600000 1.1712 5.0938 5.6318 0.0000 -10722.7246 1484.3801 0.0000 0.0000 1757.7925 -7468.6553 301.5893 -9226.4478 -7436.3009 303.3987 703.6952 714.6298 29737.2067 112.2817 183.6217
ENERGY: 900000 2.5627 9.3379 6.3976 0.0000 -10707.2201 1461.7283 0.0000 0.0000 1732.9192 -7494.2745 297.3217 -9227.1936 -7441.0771 301.7591 360.8848 449.8208 29666.3082 157.7634 239.8499
ENERGY: 1200000 2.5193 7.8392 7.3202 0.0000 -10686.7468 1471.5943 0.0000 0.0000 1796.8374 -7400.6364 308.2883 -9197.4737 -7440.7078 302.6124 428.2639 425.6838 30287.1997 197.8170 264.6031
ENERGY: 1500000 0.1497 8.5395 7.3594 0.0000 -10619.8460 1397.7495 0.0000 0.0000 1765.5939 -7440.4540 302.9278 -9206.0479 -7439.5116 302.8705 -407.8742 -291.5549 30358.3351 93.6816 164.0907
TCL: Running FEP window  12: Lambda1 0.4499999999999996 Lambda2 0.39999999999999963 [dLambda -0.04999999999999999]
TCL: Setting parameter firsttimestep to 0
TCL: Setting parameter alchLambda to 0.4499999999999996
Info: NONBONDED TABLE R-SQUARED SPACING: 0.0625
Info: NONBONDED TABLE SIZE: 705 POINTS
TCL: Setting parameter alchLambda2 to 0.39999999999999963
Info: NONBONDED TABLE R-SQUARED SPACING: 0.0625
Info: NONBONDED TABLE SIZE: 705 POINTS
TCL: Running for 1500000 steps
ETITLE: TS BOND ANGLE DIHED IMPRP ELECT VDW BOUNDARY MISC KINETIC TOTAL TEMP POTENTIAL TOTALAVG TEMPAVG PRESSURE GPRESSURE VOLUME PRESSAVG GPRESSAVG
ENERGY: 0 0.1497 8.5395 7.3594 0.0000 -10619.8440 1397.9161 0.0000 0.0000 1764.7329 -7441.1464 302.7801 -9205.8793 -7441.1464 302.7801 -388.2342 -294.3682 30358.3351 -388.2342 -294.3682
ENERGY: 300000 0.7858 8.0237 7.1028 0.0000 -10648.9457 1414.7781 0.0000 0.0000 1697.1773 -7521.0780 291.1894 -9218.2553 -7458.8008 299.1664 -13.2311 42.6404 30076.2380 -68.8688 3.8128
ENERGY: 600000 1.1672 8.0717 5.9226 0.0000 -10703.7858 1433.5359 0.0000 0.0000 1747.1160 -7507.9724 299.7575 -9255.0884 -7454.7555 298.7373 -189.9961 -105.1331 30361.1063 -119.2916 -49.1246
ENERGY: 900000 2.5468 8.1709 5.1890 0.0000 -10645.4710 1473.0563 0.0000 0.0000 1749.4461 -7407.0620 300.1573 -9156.5081 -7456.9822 297.9570 732.1606 734.2461 30073.6057 -98.2582 -38.3822
ENERGY: 1200000 1.4447 8.8162 6.2131 0.0000 -10652.2391 1508.0823 0.0000 0.0000 1730.3646 -7397.3183 296.8834 -9127.6829 -7450.6748 297.8412 683.6458 818.6142 30215.2295 4.2572 77.1783
ENERGY: 1500000 1.2225 8.4275 6.3557 0.0000 -10687.9374 1441.1588 0.0000 0.0000 1761.0857 -7469.6873 302.1543 -9230.7729 -7446.9175 298.6524 303.6830 339.8380 29723.8072 -31.1765 36.7616
TCL: Running FEP window  13: Lambda1 0.39999999999999963 Lambda2 0.34999999999999964 [dLambda -0.04999999999999999]
TCL: Setting parameter firsttimestep to 0
TCL: Setting parameter alchLambda to 0.39999999999999963
Info: NONBONDED TABLE R-SQUARED SPACING: 0.0625
Info: NONBONDED TABLE SIZE: 705 POINTS
TCL: Setting parameter alchLambda2 to 0.34999999999999964
Info: NONBONDED TABLE R-SQUARED SPACING: 0.0625
Info: NONBONDED TABLE SIZE: 705 POINTS
TCL: Running for 1500000 steps
ETITLE: TS BOND ANGLE DIHED IMPRP ELECT VDW BOUNDARY MISC KINETIC TOTAL TEMP POTENTIAL TOTALAVG TEMPAVG PRESSURE GPRESSURE VOLUME PRESSAVG GPRESSAVG
ENERGY: 0 1.2225 8.4275 6.3557 0.0000 -10687.9353 1440.8951 0.0000 0.0000 1760.2362 -7470.7984 302.0086 -9231.0346 -7470.7984 302.0086 247.2998 331.3857 29723.8072 247.2998 331.3857
ENERGY: 300000 3.3657 5.8686 6.2153 0.0000 -10548.4391 1339.0551 0.0000 0.0000 1778.4403 -7415.4942 305.1319 -9193.9345 -7453.7388 301.5235 -835.6501 -811.6986 30172.6212 -158.8364 -110.0538
ENERGY: 600000 1.4630 7.1662 5.6921 0.0000 -10525.7086 1354.5387 0.0000 0.0000 1818.4953 -7338.3533 312.0042 -9156.8486 -7430.6094 302.2849 -384.6646 -332.1280 30323.1644 -474.7171 -423.7724
ENERGY: 900000 1.6306 7.3845 5.2826 0.0000 -10738.2812 1456.4979 0.0000 0.0000 1707.7047 -7559.7808 292.9956 -9267.4855 -7456.9374 300.0014 -243.1999 -126.4665 30163.2276 -287.3482 -232.1664
ENERGY: 1200000 1.2609 7.4932 7.4593 0.0000 -10581.4366 1420.5376 0.0000 0.0000 1736.7484 -7407.9373 297.9787 -9144.6856 -7454.6643 299.3810 192.7043 275.8455 29820.6546 -257.6331 -199.3960
ENERGY: 1500000 0.3740 2.8698 6.1978 0.0000 -10704.3272 1414.1746 0.0000 0.0000 1743.3463 -7537.3648 299.1107 -9280.7111 -7463.5693 299.3269 -518.4915 -417.4858 30384.3078 -194.6532 -128.6994
TCL: Running FEP window  14: Lambda1 0.34999999999999964 Lambda2 0.29999999999999966 [dLambda -0.04999999999999999]
TCL: Setting parameter firsttimestep to 0
TCL: Setting parameter alchLambda to 0.34999999999999964
Info: NONBONDED TABLE R-SQUARED SPACING: 0.0625
Info: NONBONDED TABLE SIZE: 705 POINTS
TCL: Setting parameter alchLambda2 to 0.29999999999999966
Info: NONBONDED TABLE R-SQUARED SPACING: 0.0625
Info: NONBONDED TABLE SIZE: 705 POINTS
TCL: Running for 1500000 steps
ETITLE: TS BOND ANGLE DIHED IMPRP ELECT VDW BOUNDARY MISC KINETIC TOTAL TEMP POTENTIAL TOTALAVG TEMPAVG PRESSURE GPRESSURE VOLUME PRESSAVG GPRESSAVG
ENERGY: 0 0.3740 2.8697 6.1978 0.0000 -10704.3268 1414.5666 0.0000 0.0000 1742.4453 -7537.8733 298.9561 -9280.3186 -7537.8733 298.9561 -499.7606 -418.4411 30384.3078 -499.7606 -418.4411
ENERGY: 300000 1.0775 4.8379 5.6648 0.0000 -10773.2463 1484.8911 0.0000 0.0000 1815.6959 -7461.0791 311.5240 -9276.7750 -7475.4774 306.2999 37.6044 63.5499 30279.0269 -276.1335 -193.1941
ENERGY: 600000 2.5370 11.2235 6.2410 0.0000 -10623.9800 1455.2173 0.0000 0.0000 1714.2906 -7434.4706 294.1256 -9148.7612 -7491.6808 301.3718 613.1825 622.8569 29686.2309 -22.0081 43.2249
ENERGY: 900000 0.2695 10.4580 5.3921 0.0000 -10750.9175 1458.0029 0.0000 0.0000 1716.5351 -7560.2599 294.5107 -9276.7950 -7488.2169 300.4296 42.7321 102.1540 29977.2301 -67.8906 -5.0649
ENERGY: 1200000 0.7682 2.6468 6.8654 0.0000 -10640.1008 1416.9247 0.0000 0.0000 1768.5701 -7444.3256 303.4384 -9212.8957 -7483.4370 301.0765 -18.3902 36.3187 30103.0511 -37.7024 31.9279
ENERGY: 1500000 1.8273 9.7237 5.4255 0.0000 -10598.4454 1415.8916 0.0000 0.0000 1748.1845 -7417.3928 299.9408 -9165.5772 -7472.9335 301.1826 11.9081 101.8738 30130.8037 -34.9496 29.9078
TCL: Running FEP window  15: Lambda1 0.29999999999999966 Lambda2 0.24999999999999967 [dLambda -0.04999999999999999]
TCL: Setting parameter firsttimestep to 0
TCL: Setting parameter alchLambda to 0.29999999999999966
Info: NONBONDED TABLE R-SQUARED SPACING: 0.0625
Info: NONBONDED TABLE SIZE: 705 POINTS
TCL: Setting parameter alchLambda2 to 0.24999999999999967
Info: NONBONDED TABLE R-SQUARED SPACING: 0.0625
Info: NONBONDED TABLE SIZE: 705 POINTS
TCL: Running for 1500000 steps
ETITLE: TS BOND ANGLE DIHED IMPRP ELECT VDW BOUNDARY MISC KINETIC TOTAL TEMP POTENTIAL TOTALAVG TEMPAVG PRESSURE GPRESSURE VOLUME PRESSAVG GPRESSAVG
ENERGY: 0 1.8273 9.7237 5.4255 0.0000 -10598.4455 1416.2741 0.0000 0.0000 1747.3239 -7417.8709 299.7932 -9165.1949 -7417.8709 299.7932 12.2151 100.1311 30130.8037 12.2151 100.1311
ENERGY: 300000 0.9470 6.5093 5.9214 0.0000 -10512.3274 1302.1453 0.0000 0.0000 1797.2385 -7399.5658 308.3572 -9196.8043 -7427.5084 303.7749 -911.4914 -923.7183 30220.7376 -253.6304 -209.2962
ENERGY: 600000 2.4362 5.2821 6.2936 0.0000 -10622.5224 1384.8100 0.0000 0.0000 1748.7714 -7474.9292 300.0415 -9223.7006 -7447.6362 303.2744 -177.7526 -103.5003 30093.6597 -137.3537 -74.1570
ENERGY: 900000 2.6733 6.7109 6.7735 0.0000 -10789.1687 1514.6164 0.0000 0.0000 1841.3522 -7417.0425 315.9259 -9258.3947 -7452.9289 303.5628 835.4801 934.9912 29754.2354 -90.4929 -26.4175
ENERGY: 1200000 2.4447 6.0205 6.3258 0.0000 -10730.1364 1415.9873 0.0000 0.0000 1761.5124 -7537.8457 302.2275 -9299.3582 -7464.2138 302.7566 -600.2928 -529.3222 30302.1106 -182.6736 -117.3076
ENERGY: 1500000 1.5785 7.1061 5.8450 0.0000 -10583.8656 1390.0040 0.0000 0.0000 1747.1230 -7432.2092 299.7587 -9179.3321 -7467.4825 301.3337 -278.6530 -222.0942 30334.7991 -243.2060 -175.5121
TCL: Running FEP window  16: Lambda1 0.24999999999999967 Lambda2 0.19999999999999968 [dLambda -0.04999999999999999]
TCL: Setting parameter firsttimestep to 0
TCL: Setting parameter alchLambda to 0.24999999999999967
Info: NONBONDED TABLE R-SQUARED SPACING: 0.0625
Info: NONBONDED TABLE SIZE: 705 POINTS
TCL: Setting parameter alchLambda2 to 0.19999999999999968
Info: NONBONDED TABLE R-SQUARED SPACING: 0.0625
Info: NONBONDED TABLE SIZE: 705 POINTS
TCL: Running for 1500000 steps
ETITLE: TS BOND ANGLE DIHED IMPRP ELECT VDW BOUNDARY MISC KINETIC TOTAL TEMP POTENTIAL TOTALAVG TEMPAVG PRESSURE GPRESSURE VOLUME PRESSAVG GPRESSAVG
ENERGY: 0 1.5785 7.1060 5.8450 0.0000 -10583.8666 1389.8634 0.0000 0.0000 1746.2848 -7433.1889 299.6149 -9179.4737 -7433.1889 299.6149 -305.0846 -223.1444 30334.7991 -305.0846 -223.1444
ENERGY: 300000 0.6633 5.2607 5.4520 0.0000 -10607.1404 1411.1302 0.0000 0.0000 1770.0664 -7414.5678 303.6952 -9184.6343 -7409.3084 301.2887 -175.4712 -98.1524 30013.4714 -153.2903 -77.5497
ENERGY: 600000 1.0698 4.2889 5.4679 0.0000 -10579.9900 1375.0594 0.0000 0.0000 1742.3877 -7451.7163 298.9463 -9194.1039 -7451.1297 298.0940 -668.1425 -586.3885 30678.4207 -252.0177 -180.7199
ENERGY: 900000 3.3833 2.8137 6.7699 0.0000 -10786.5763 1534.5031 0.0000 0.0000 1767.6477 -7471.4587 303.2802 -9239.1064 -7455.8180 299.6833 1048.3539 1123.5932 29451.9056 37.3223 96.9753
ENERGY: 1200000 1.1338 6.9416 7.2296 0.0000 -10606.8338 1368.2380 0.0000 0.0000 1746.8707 -7476.4201 299.7154 -9223.2908 -7457.9642 299.7888 -331.7341 -255.8747 29543.8118 -8.7040 45.2343
ENERGY: 1500000 0.9147 4.8259 4.9561 0.0000 -10757.8972 1515.3543 0.0000 0.0000 1752.9605 -7478.8857 300.7603 -9231.8462 -7459.0277 299.2937 421.0157 549.3844 30047.9321 125.4389 182.3083
TCL: Running FEP window  17: Lambda1 0.19999999999999968 Lambda2 0.1499999999999997 [dLambda -0.04999999999999999]
TCL: Setting parameter firsttimestep to 0
TCL: Setting parameter alchLambda to 0.19999999999999968
Info: NONBONDED TABLE R-SQUARED SPACING: 0.0625
Info: NONBONDED TABLE SIZE: 705 POINTS
TCL: Setting parameter alchLambda2 to 0.1499999999999997
Info: NONBONDED TABLE R-SQUARED SPACING: 0.0625
Info: NONBONDED TABLE SIZE: 705 POINTS
TCL: Running for 1500000 steps
ETITLE: TS BOND ANGLE DIHED IMPRP ELECT VDW BOUNDARY MISC KINETIC TOTAL TEMP POTENTIAL TOTALAVG TEMPAVG PRESSURE GPRESSURE VOLUME PRESSAVG GPRESSAVG
ENERGY: 0 0.9147 4.8259 4.9561 0.0000 -10757.8965 1515.2236 0.0000 0.0000 1752.1300 -7479.8462 300.6178 -9231.9762 -7479.8462 300.6178 461.9398 547.4490 30047.9321 461.9398 547.4490
ENERGY: 300000 0.7247 3.0791 6.2201 0.0000 -10625.2909 1430.5355 0.0000 0.0000 1722.5312 -7462.2004 295.5394 -9184.7316 -7472.6162 298.3447 -118.8106 -101.5779 30491.8091 -9.1365 46.3749
ENERGY: 600000 1.2502 5.6451 4.9380 0.0000 -10623.7868 1423.3991 0.0000 0.0000 1741.7761 -7446.7782 298.8413 -9188.5543 -7450.0743 301.9371 -134.1988 -64.6261 30193.9449 -6.8564 76.1537
ENERGY: 900000 2.5383 6.8825 6.6288 0.0000 -10718.0999 1489.8057 0.0000 0.0000 1696.2770 -7515.9676 291.0349 -9212.2446 -7454.9498 300.4549 584.1980 654.6330 29784.2615 14.9679 95.7631
ENERGY: 1200000 0.8909 12.4295 6.0300 0.0000 -10486.7045 1333.9377 0.0000 0.0000 1736.1918 -7397.2246 297.8832 -9133.4164 -7448.0208 300.9771 -680.5499 -655.7849 30527.3618 -144.5570 -68.5608
ENERGY: 1500000 4.1584 7.5272 5.9665 0.0000 -10581.3020 1403.2437 0.0000 0.0000 1723.0760 -7437.3303 295.6329 -9160.4063 -7458.5171 299.6331 -137.6076 -88.4521 30185.7538 -184.2740 -109.4082
TCL: Running FEP window  18: Lambda1 0.1499999999999997 Lambda2 0.09999999999999969 [dLambda -0.05 ]
TCL: Setting parameter firsttimestep to 0
TCL: Setting parameter alchLambda to 0.1499999999999997
Info: NONBONDED TABLE R-SQUARED SPACING: 0.0625
Info: NONBONDED TABLE SIZE: 705 POINTS
TCL: Setting parameter alchLambda2 to 0.09999999999999969
Info: NONBONDED TABLE R-SQUARED SPACING: 0.0625
Info: NONBONDED TABLE SIZE: 705 POINTS
TCL: Running for 1500000 steps
ETITLE: TS BOND ANGLE DIHED IMPRP ELECT VDW BOUNDARY MISC KINETIC TOTAL TEMP POTENTIAL TOTALAVG TEMPAVG PRESSURE GPRESSURE VOLUME PRESSAVG GPRESSAVG
ENERGY: 0 4.1584 7.5272 5.9665 0.0000 -10581.3028 1403.0076 0.0000 0.0000 1722.2317 -7438.4114 295.4880 -9160.6431 -7438.4114 295.4880 -183.8887 -91.9503 30185.7538 -183.8887 -91.9503
ENERGY: 300000 2.3303 6.9039 5.5055 0.0000 -10698.2295 1484.1283 0.0000 0.0000 1733.4982 -7465.8633 297.4211 -9199.3615 -7479.5084 299.6178 229.3949 326.4642 30094.0854 226.9528 301.0146
ENERGY: 600000 0.3090 8.3958 6.3722 0.0000 -10473.6153 1341.5618 0.0000 0.0000 1784.2437 -7332.7329 306.1276 -9116.9766 -7464.1073 299.0076 -529.6071 -465.9839 30415.0324 -33.1790 23.0709
ENERGY: 900000 1.7221 8.5230 9.0962 0.0000 -10691.0084 1450.3711 0.0000 0.0000 1759.4781 -7461.8179 301.8785 -9221.2961 -7457.5893 300.2207 394.8676 455.4754 29667.4330 -14.3852 43.8659
ENERGY: 1200000 0.8563 3.0853 9.1005 0.0000 -10538.6835 1401.2692 0.0000 0.0000 1753.2810 -7371.0912 300.8153 -9124.3722 -7461.9124 299.1716 -43.8261 77.5603 30102.3840 -72.4564 -3.6879
ENERGY: 1500000 1.1167 9.7151 5.6369 0.0000 -10596.6107 1354.5048 0.0000 0.0000 1748.3105 -7477.3267 299.9624 -9225.6372 -7449.0802 300.2918 -692.4936 -582.0025 30086.1426 -142.7553 -65.7315
TCL: Running FEP window  19: Lambda1 0.09999999999999969 Lambda2 0.049999999999999684 [dLambda -0.05 ]
TCL: Setting parameter firsttimestep to 0
TCL: Setting parameter alchLambda to 0.09999999999999969
Info: NONBONDED TABLE R-SQUARED SPACING: 0.0625
Info: NONBONDED TABLE SIZE: 705 POINTS
TCL: Setting parameter alchLambda2 to 0.049999999999999684
Info: NONBONDED TABLE R-SQUARED SPACING: 0.0625
Info: NONBONDED TABLE SIZE: 705 POINTS
TCL: Running for 1500000 steps
ETITLE: TS BOND ANGLE DIHED IMPRP ELECT VDW BOUNDARY MISC KINETIC TOTAL TEMP POTENTIAL TOTALAVG TEMPAVG PRESSURE GPRESSURE VOLUME PRESSAVG GPRESSAVG
ENERGY: 0 1.1167 9.7151 5.6369 0.0000 -10596.6109 1354.4760 0.0000 0.0000 1747.4166 -7478.2496 299.8091 -9225.6662 -7478.2496 299.8091 -656.1885 -584.3793 30086.1426 -656.1885 -584.3793
ENERGY: 300000 0.6035 8.2875 8.5975 0.0000 -10684.1356 1407.5303 0.0000 0.0000 1722.1210 -7536.9957 295.4690 -9259.1166 -7485.2405 299.1506 -264.8667 -231.2718 29829.2574 -139.8714 -63.3592
ENERGY: 600000 1.8334 13.6363 5.8990 0.0000 -10564.0478 1401.8339 0.0000 0.0000 1717.7603 -7423.0849 294.7209 -9140.8451 -7482.9881 296.6529 -206.7932 -110.8727 30188.2413 -138.5509 -57.6606
ENERGY: 900000 0.7168 6.9541 6.8942 0.0000 -10422.2668 1351.1707 0.0000 0.0000 1754.3905 -7302.1406 301.0056 -9056.5311 -7445.0062 298.4624 -465.5175 -362.4209 30460.2415 -315.4928 -241.5083
ENERGY: 1200000 2.9503 2.9977 5.9843 0.0000 -10536.9070 1387.1550 0.0000 0.0000 1737.2501 -7400.5695 298.0648 -9137.8195 -7456.8737 298.2946 -100.1037 -59.3372 30112.4899 -254.7766 -186.6857
ENERGY: 1500000 1.7013 12.5706 5.3608 0.0000 -10850.7837 1536.5298 0.0000 0.0000 1754.7883 -7539.8328 301.0739 -9294.6211 -7460.5962 298.6934 788.1089 824.6770 29545.7117 -186.2865 -120.8033
TCL: Running FEP window  20: Lambda1 0.049999999999999684 Lambda2 0.0    [dLambda -0.049999999999999684]
TCL: Setting parameter firsttimestep to 0
TCL: Setting parameter alchLambda to 0.049999999999999684
Info: NONBONDED TABLE R-SQUARED SPACING: 0.0625
Info: NONBONDED TABLE SIZE: 705 POINTS
TCL: Setting parameter alchLambda2 to 0.0
Info: NONBONDED TABLE R-SQUARED SPACING: 0.0625
Info: NONBONDED TABLE SIZE: 705 POINTS
TCL: Running for 1500000 steps
ETITLE: TS BOND ANGLE DIHED IMPRP ELECT VDW BOUNDARY MISC KINETIC TOTAL TEMP POTENTIAL TOTALAVG TEMPAVG PRESSURE GPRESSURE VOLUME PRESSAVG GPRESSAVG
ENERGY: 0 1.7013 12.5706 5.3608 0.0000 -10850.7844 1536.6830 0.0000 0.0000 1753.8875 -7540.5811 300.9193 -9294.4686 -7540.5811 300.9193 745.2272 824.5194 29545.7117 745.2272 824.5194
ENERGY: 300000 1.6851 8.2720 6.1152 0.0000 -10554.7617 1385.7857 0.0000 0.0000 1728.4327 -7424.4711 296.5520 -9152.9038 -7496.6992 298.0482 -193.6078 -142.8734 30154.1078 -55.2459 11.8462
ENERGY: 600000 4.3341 5.4574 7.2761 0.0000 -10453.0282 1365.4130 0.0000 0.0000 1736.6001 -7333.9475 297.9533 -9070.5476 -7451.8594 300.6990 -339.3814 -336.1768 30444.5544 -135.6760 -93.4213
ENERGY: 900000 0.7513 5.7485 6.1694 0.0000 -10685.2940 1516.6374 0.0000 0.0000 1781.5503 -7374.4370 305.6655 -9155.9874 -7433.6404 301.7867 940.3636 1012.6277 29826.3632 -71.5935 -25.7438
ENERGY: 1200000 0.2564 7.3314 7.0013 0.0000 -10553.2776 1376.2574 0.0000 0.0000 1765.7598 -7396.6714 302.9563 -9162.4312 -7430.5522 301.7198 -436.2597 -454.2135 30440.2820 -109.1019 -60.0863
ENERGY: 1500000 1.0410 7.7144 6.0642 0.0000 -10533.1762 1350.0499 0.0000 0.0000 1677.9692 -7490.3376 287.8938 -9168.3068 -7434.3837 300.3404 -803.6751 -799.5267 30735.9681 -117.4023 -71.8504
TCL: Exiting due to exit command.
