Info: SIMULATION PARAMETERS:
Info: TIMESTEP               2
Info: NUMBER OF STEPS        0
Info: STEPS PER CYCLE        10
Info: PERIODIC CELL BASIS 1  31.8841 0 0
Info: PERIODIC CELL BASIS 2  0 32.9332 0
Info: PERIODIC CELL BASIS 3  0 0 28.831
Info: PERIODIC CELL CENTER   0 0 0
Info: WRAPPING WATERS AROUND PERIODIC BOUNDARIES ON OUTPUT.
Info: WRAPPING ALL CLUSTERS AROUND PERIODIC BOUNDARIES ON OUTPUT.
Info: FIRST LDB TIMESTEP     50
Info: LAST LDB TIMESTEP     -1
Info: HOM BACKGROUND SCALING 1
Info: PME BACKGROUND SCALING 1
Info: MIN ATOMS PER PATCH    40
Info: EMPTY PATCH LOAD       40 ATOMS
Info: VELOCITY FILE          mobley_5890803_equil.vel
Info: CENTER OF MASS MOVING INITIALLY? NO
Info: DIELECTRIC             1
Info: EXCLUDE                SCALED ONE-FOUR
Info: 1-4 ELECTROSTATICS SCALED BY 0.833333
Info: MODIFIED 1-4 VDW PARAMETERS WILL BE USED
Info: DCD FILENAME           mobley_5890803_prod.dcd
Info: DCD FREQUENCY          100000
Info: DCD FIRST STEP         100000
Info: DCD FILE WILL CONTAIN UNIT CELL DATA
Info: XST FILENAME           mobley_5890803_prod.xst
Info: XST FREQUENCY          100000
Info: NO VELOCITY DCD OUTPUT
Info: NO FORCE DCD OUTPUT
Info: OUTPUT FILENAME        mobley_5890803_prod
Info: BINARY OUTPUT FILES WILL BE USED
Info: RESTART FILENAME       mobley_5890803_prod.restart
Info: RESTART FREQUENCY      100000
Info: BINARY RESTART FILES WILL BE USED
Info: CUTOFF                 9
Info: PAIRLIST DISTANCE      11
Info: PAIRLIST SHRINK RATE   0.01
Info: PAIRLIST GROW RATE     0.01
Info: PAIRLIST TRIGGER       0.3
Info: PAIRLISTS PER CYCLE    2
Info: PAIRLISTS ENABLED
Info: MARGIN                 2
Info: HYDROGEN GROUP CUTOFF  2.5
Info: PATCH DIMENSION        15.5
Info: ENERGY OUTPUT STEPS    100000
Info: ENERGY EVALUATION STEPS    100000
Info: OUTPUT ENERGY PRECISION 4
Info: CROSSTERM ENERGY INCLUDED IN DIHEDRAL
Info: TIMING OUTPUT STEPS    1000000
Info: PRESSURE OUTPUT STEPS  100000
Info: ALCHEMICAL FEP ON
Info: FEP CURRENT LAMBDA VALUE     0
Info: FEP COMPARISON LAMBDA VALUE  0.05
Info: FEP INTRA-ALCHEMICAL NON-BONDED INTERACTIONS WILL BE RETAINED
Info: FEP INTRA-ALCHEMICAL BONDED INTERACTIONS WILL BE RETAINED
Info: FEP VDW SHIFTING COEFFICIENT 5
Info: FEP ELEC. ACTIVE FOR ANNIHILATED PARTICLES BETWEEN LAMBDA = 0 AND LAMBDA = 0.5
Info: FEP ELEC. ACTIVE FOR EXNIHILATED PARTICLES BETWEEN LAMBDA = 0.5 AND LAMBDA = 1
Info: FEP VDW ACTIVE FOR ANNIHILATED PARTICLES BETWEEN LAMBDA = 0 AND LAMBDA = 1
Info: FEP VDW ACTIVE FOR EXNIHILATED PARTICLES BETWEEN LAMBDA = 0 AND LAMBDA = 1
Info: FEP BOND ACTIVE FOR ANNIHILATED PARTICLES BETWEEN LAMBDA = 1 AND LAMBDA = 1
Info: FEP BOND ACTIVE FOR EXNIHILATED PARTICLES BETWEEN LAMBDA = 0 AND LAMBDA = 0
Info: LANGEVIN DYNAMICS ACTIVE
Info: LANGEVIN TEMPERATURE   300
Info: LANGEVIN USING BBK INTEGRATOR
Info: LANGEVIN DAMPING COEFFICIENT IS 1 INVERSE PS
Info: LANGEVIN DYNAMICS APPLIED TO HYDROGENS
Info: LANGEVIN PISTON PRESSURE CONTROL ACTIVE
Info:        TARGET PRESSURE IS 1.01325 BAR
Info:     OSCILLATION PERIOD IS 50 FS
Info:             DECAY TIME IS 25 FS
Info:     PISTON TEMPERATURE IS 300 K
Info:       PRESSURE CONTROL IS GROUP-BASED
Info:    INITIAL STRAIN RATE IS -0.00070634 -0.00070634 -0.00070634
Info:       CELL FLUCTUATION IS ISOTROPIC
Info: PARTICLE MESH EWALD (PME) ACTIVE
Info: PME TOLERANCE               1e-06
Info: PME EWALD COEFFICIENT       0.348832
Info: PME INTERPOLATION ORDER     4
Info: PME GRID DIMENSIONS         32 36 32
Info: PME MAXIMUM GRID SPACING    1
Info: PME CALCULATION WILL BE PERFORMED ON GPU
Info: FULL ELECTROSTATIC EVALUATION FREQUENCY      2
Info: USING VERLET I (r-RESPA) MTS SCHEME.
Info: C1 SPLITTING OF LONG RANGE ELECTROSTATICS
Info: PLACING ATOMS IN PATCHES BY HYDROGEN GROUPS
Info: RIGID BONDS TO HYDROGEN : ALL
Info:         ERROR TOLERANCE : 1e-08
Info:          MAX ITERATIONS : 100
Info: RIGID WATER USING SETTLE ALGORITHM
Info: RANDOM NUMBER SEED     1743927306
Info: USE HYDROGEN BONDS?    NO
Info: Using AMBER format force field!
Info: AMBER PARM FILE        mobley_5890803.prmtop
Info: COORDINATE PDB         mobley_5890803.pdb
Info: Exclusions will be read from PARM file!
Info: SCNB (VDW SCALING)     2
Info: USING ARITHMETIC MEAN TO COMBINE L-J SIGMA PARAMETERS
Info: BINARY COORDINATES     mobley_5890803_equil.coor
Info: SUMMARY OF PARAMETERS:
Info: 9 BONDS
Info: 13 ANGLES
Info:   13 HARMONIC
Info:   0 COSINE-BASED
Info: 17 DIHEDRAL
Info: 0 IMPROPER
Info: 0 CROSSTERM
Info: 0 VDW
Info: 36 VDW_PAIRS
Info: 0 NBTHOLE_PAIRS
Info: To read alchdata from file: mobley_5890803.pdb
Info: To read alchflag data from column: 5
Info: STRUCTURE SUMMARY:
Info: 2945 ATOMS
Info: 2944 BONDS
Info: 34 ANGLES
Info: 49 DIHEDRALS
Info: 0 IMPROPERS
Info: 0 CROSSTERMS
Info: 3016 EXCLUSIONS
Info: 2937 RIGID BONDS
Info: ALCH: 0 ATOMS TO DISAPPEAR IN FINAL STATE
Info: ALCH: 20 ATOMS TO APPEAR IN FINAL STATE
Info: 5898 DEGREES OF FREEDOM
Info: 983 HYDROGEN GROUPS
Info: 4 ATOMS IN LARGEST HYDROGEN GROUP
Info: 983 MIGRATION GROUPS
Info: 4 ATOMS IN LARGEST MIGRATION GROUP
Info: TOTAL MASS = 17681.8 amu
Info: TOTAL CHARGE = 0.000100039 e
Info: MASS DENSITY = 0.969876 g/cm^3
Info: ATOM DENSITY = 0.0972785 atoms/A^3
Info: ADDED 0 IMPLICIT EXCLUSIONS
Info: NONBONDED TABLE R-SQUARED SPACING: 0.0625
Info: NONBONDED TABLE SIZE: 705 POINTS
Info: REDUCING NUMBER OF PATCHES TO IMPROVE LOAD BALANCE
Info: REMOVING COM VELOCITY -0.00590077 -0.00903804 0.110381
Info: Use 3D box decompostion in PME FFT.
Info: Updated CUDA force table with 4096 elements.
Info: Updated CUDA LJ table with 8 x 8 elements.
Info: Found 23 unique exclusion lists needing 60 bytes
TCL: Running for 1500000 steps
ETITLE: TS BOND ANGLE DIHED IMPRP ELECT VDW BOUNDARY MISC KINETIC TOTAL TEMP POTENTIAL TOTALAVG TEMPAVG PRESSURE GPRESSURE VOLUME PRESSAVG GPRESSAVG
ENERGY: 0 3.2351 8.1466 5.0837 0.0000 -10770.3860 1498.5542 0.0000 0.0000 1786.9079 -7468.4585 304.9213 -9255.3664 -7468.4585 304.9213 319.0309 388.9139 30273.9008 319.0309 388.9139
ENERGY: 300000 1.1066 7.6391 5.2923 0.0000 -10733.0643 1491.6933 0.0000 0.0000 1791.9963 -7435.3367 305.7896 -9227.3331 -7454.1335 298.2328 385.4819 412.7258 30184.7980 237.3445 287.3743
ENERGY: 600000 2.5680 10.5236 4.0983 0.0000 -10637.9999 1418.5619 0.0000 0.0000 1742.9634 -7459.2847 297.4225 -9202.2481 -7455.7124 298.1871 -268.4331 -201.8089 30270.8214 219.2061 279.2382
ENERGY: 900000 2.3956 13.3545 4.2716 0.0000 -10593.6481 1385.8030 0.0000 0.0000 1765.0521 -7422.7714 301.1918 -9187.8234 -7456.8969 299.9747 -366.5556 -369.6192 30192.5299 20.0420 71.6166
ENERGY: 1200000 5.1799 4.4462 3.4765 0.0000 -10848.3187 1600.6422 0.0000 0.0000 1713.6497 -7520.9243 292.4204 -9234.5740 -7466.5700 299.6614 1431.5545 1626.3377 29621.2239 281.2212 344.0473
ENERGY: 1500000 2.6804 9.6711 3.1314 0.0000 -10679.9260 1414.9622 0.0000 0.0000 1725.4629 -7524.0179 294.4362 -9249.4808 -7481.6788 298.1824 -104.2865 -93.8267 29756.1183 245.2816 303.1088
TCL: Running FEP window   2: Lambda1 0.05   Lambda2 0.1    [dLambda 0.05  ]
TCL: Setting parameter firsttimestep to 0
TCL: Setting parameter alchLambda to 0.05
Info: NONBONDED TABLE R-SQUARED SPACING: 0.0625
Info: NONBONDED TABLE SIZE: 705 POINTS
TCL: Setting parameter alchLambda2 to 0.1
Info: NONBONDED TABLE R-SQUARED SPACING: 0.0625
Info: NONBONDED TABLE SIZE: 705 POINTS
TCL: Running for 1500000 steps
ETITLE: TS BOND ANGLE DIHED IMPRP ELECT VDW BOUNDARY MISC KINETIC TOTAL TEMP POTENTIAL TOTALAVG TEMPAVG PRESSURE GPRESSURE VOLUME PRESSAVG GPRESSAVG
ENERGY: 0 2.6804 9.6711 3.1314 0.0000 -10679.9244 1417.9871 0.0000 0.0000 1724.5823 -7521.8721 294.2860 -9246.4544 -7521.8721 294.2860 -171.4533 -85.6343 29756.1183 -171.4533 -85.6343
ENERGY: 300000 4.2897 4.3170 3.0993 0.0000 -10612.1657 1332.0305 0.0000 0.0000 1739.3675 -7529.0617 296.8089 -9268.4291 -7481.7853 301.3801 -1244.4438 -1175.0432 30492.7371 -610.4441 -553.0819
ENERGY: 600000 3.5674 7.7011 6.4132 0.0000 -10458.5434 1321.6985 0.0000 0.0000 1736.8638 -7382.2993 296.3817 -9119.1632 -7462.5488 300.7166 -681.0401 -684.6571 30495.1523 -431.3054 -380.1862
ENERGY: 900000 3.3725 12.9703 3.9164 0.0000 -10655.0571 1396.5239 0.0000 0.0000 1717.8326 -7520.4414 293.1342 -9238.2740 -7462.3060 299.5146 -384.5840 -353.5426 30059.4884 -480.0093 -427.9846
ENERGY: 1200000 5.2700 7.0428 4.5153 0.0000 -10508.0804 1376.2154 0.0000 0.0000 1791.5748 -7323.4621 305.7177 -9115.0369 -7438.9173 300.7784 -263.3638 -170.3218 30345.2392 -477.2305 -416.9196
ENERGY: 1500000 0.9011 10.7257 3.7863 0.0000 -10590.2885 1377.8592 0.0000 0.0000 1748.2028 -7448.8135 298.3166 -9197.0163 -7438.0542 300.5706 -464.9491 -319.7667 30336.1184 -462.2274 -394.7769
TCL: Running FEP window   3: Lambda1 0.1    Lambda2 0.15000000000000002 [dLambda 0.05000000000000002]
TCL: Setting parameter firsttimestep to 0
TCL: Setting parameter alchLambda to 0.1
Info: NONBONDED TABLE R-SQUARED SPACING: 0.0625
Info: NONBONDED TABLE SIZE: 705 POINTS
TCL: Setting parameter alchLambda2 to 0.15000000000000002
Info: NONBONDED TABLE R-SQUARED SPACING: 0.0625
Info: NONBONDED TABLE SIZE: 705 POINTS
TCL: Running for 1500000 steps
ETITLE: TS BOND ANGLE DIHED IMPRP ELECT VDW BOUNDARY MISC KINETIC TOTAL TEMP POTENTIAL TOTALAVG TEMPAVG PRESSURE GPRESSURE VOLUME PRESSAVG GPRESSAVG
ENERGY: 0 0.9011 10.7257 3.7863 0.0000 -10590.2900 1384.6813 0.0000 0.0000 1747.3293 -7442.8664 298.1676 -9190.1957 -7442.8664 298.1676 -390.2446 -308.2595 30336.1184 -390.2446 -308.2595
ENERGY: 300000 3.2874 6.7269 4.4906 0.0000 -10633.7612 1444.0219 0.0000 0.0000 1772.0246 -7403.2098 302.3816 -9175.2344 -7432.1680 298.1909 -13.9943 -21.3497 30198.4388 -1.0276 26.0060
ENERGY: 600000 3.1136 5.4524 5.2217 0.0000 -10652.0709 1445.3726 0.0000 0.0000 1783.2035 -7409.7071 304.2892 -9192.9106 -7439.0756 299.7070 107.7469 198.0429 30153.8382 73.1627 113.7568
ENERGY: 900000 1.2319 7.8286 4.5088 0.0000 -10637.6087 1416.5080 0.0000 0.0000 1768.4044 -7439.1269 301.7638 -9207.5313 -7442.8733 300.1102 28.9264 96.2649 29776.7040 104.5476 150.2255
ENERGY: 1200000 1.5946 9.5902 7.7014 0.0000 -10687.4357 1409.3877 0.0000 0.0000 1728.0260 -7531.1357 294.8736 -9259.1617 -7456.3960 299.6682 -343.6229 -284.4417 30028.2317 43.9672 99.3594
ENERGY: 1500000 2.8771 13.8708 5.7232 0.0000 -10635.0255 1385.5654 0.0000 0.0000 1735.8096 -7491.1794 296.2018 -9226.9890 -7460.0310 299.1606 -574.0192 -615.1244 30544.1156 -88.5522 -40.2736
TCL: Running FEP window   4: Lambda1 0.15000000000000002 Lambda2 0.2    [dLambda 0.04999999999999999]
TCL: Setting parameter firsttimestep to 0
TCL: Setting parameter alchLambda to 0.15000000000000002
Info: NONBONDED TABLE R-SQUARED SPACING: 0.0625
Info: NONBONDED TABLE SIZE: 705 POINTS
TCL: Setting parameter alchLambda2 to 0.2
Info: NONBONDED TABLE R-SQUARED SPACING: 0.0625
Info: NONBONDED TABLE SIZE: 705 POINTS
TCL: Running for 1500000 steps
ETITLE: TS BOND ANGLE DIHED IMPRP ELECT VDW BOUNDARY MISC KINETIC TOTAL TEMP POTENTIAL TOTALAVG TEMPAVG PRESSURE GPRESSURE VOLUME PRESSAVG GPRESSAVG
ENERGY: 0 2.8771 13.8708 5.7232 0.0000 -10635.0254 1387.6413 0.0000 0.0000 1734.9388 -7489.9742 296.0532 -9224.9129 -7489.9742 296.0532 -678.0077 -602.5472 30544.1156 -678.0077 -602.5472
ENERGY: 300000 2.1375 5.7575 6.0565 0.0000 -10737.3184 1478.0497 0.0000 0.0000 1769.6530 -7475.6642 301.9769 -9245.3172 -7482.8882 299.5661 -68.2299 10.6720 30449.0851 -293.8837 -238.0454
ENERGY: 600000 1.5915 9.1404 4.3551 0.0000 -10687.1172 1473.8193 0.0000 0.0000 1795.8819 -7402.3289 306.4527 -9198.2108 -7458.3866 302.3746 220.0097 348.0559 30110.2193 -75.9535 -5.8838
ENERGY: 900000 0.9787 10.1470 3.7769 0.0000 -10709.7681 1532.4235 0.0000 0.0000 1767.7402 -7394.7018 301.6505 -9162.4420 -7447.7985 302.4401 672.3628 743.7846 30419.2192 -83.0227 -11.0634
ENERGY: 1200000 1.6538 8.5202 6.3061 0.0000 -10840.3365 1548.4060 0.0000 0.0000 1777.1890 -7498.2616 303.2629 -9275.4506 -7445.1065 303.2791 481.9462 602.3094 30174.1104 -51.0352 29.1472
ENERGY: 1500000 1.6674 8.2875 4.3175 0.0000 -10666.2378 1423.0366 0.0000 0.0000 1823.2675 -7405.6614 311.1258 -9228.9288 -7440.7396 303.9546 283.7346 352.2884 29688.2721 2.0750 77.9030
TCL: Running FEP window   5: Lambda1 0.2    Lambda2 0.25   [dLambda 0.04999999999999999]
TCL: Setting parameter firsttimestep to 0
TCL: Setting parameter alchLambda to 0.2
Info: NONBONDED TABLE R-SQUARED SPACING: 0.0625
Info: NONBONDED TABLE SIZE: 705 POINTS
TCL: Setting parameter alchLambda2 to 0.25
Info: NONBONDED TABLE R-SQUARED SPACING: 0.0625
Info: NONBONDED TABLE SIZE: 705 POINTS
TCL: Running for 1500000 steps
ETITLE: TS BOND ANGLE DIHED IMPRP ELECT VDW BOUNDARY MISC KINETIC TOTAL TEMP POTENTIAL TOTALAVG TEMPAVG PRESSURE GPRESSURE VOLUME PRESSAVG GPRESSAVG
ENERGY: 0 1.6674 8.2875 4.3175 0.0000 -10666.2372 1423.5512 0.0000 0.0000 1822.3649 -7406.0487 310.9718 -9228.4137 -7406.0487 310.9718 264.3200 358.1757 29688.2721 264.3200 358.1757
ENERGY: 300000 0.9350 12.8545 6.5848 0.0000 -10694.3872 1435.5098 0.0000 0.0000 1803.7080 -7434.7951 307.7881 -9238.5031 -7418.3016 303.7256 -64.0006 14.8306 29944.0040 -3.4839 68.3074
ENERGY: 600000 1.6174 7.3049 5.9118 0.0000 -10674.0232 1426.7343 0.0000 0.0000 1765.8077 -7466.6470 301.3207 -9232.4548 -7429.0023 302.9573 -78.5225 -39.7039 30021.8603 -22.9479 47.3789
ENERGY: 900000 1.0807 5.5696 5.6224 0.0000 -10749.1659 1463.2515 0.0000 0.0000 1718.9488 -7554.6929 293.3246 -9273.6416 -7457.8046 300.7748 -23.8265 54.9249 30233.6140 49.7534 122.0917
ENERGY: 1200000 5.0843 5.8123 4.6117 0.0000 -10581.2827 1457.8383 0.0000 0.0000 1765.2743 -7342.6618 301.2297 -9107.9360 -7454.4914 300.7594 144.0515 160.7894 30582.2057 13.1719 72.5027
ENERGY: 1500000 3.4477 9.9010 5.5699 0.0000 -10780.0963 1490.9444 0.0000 0.0000 1756.0225 -7514.2109 299.6510 -9270.2334 -7467.4405 299.8029 345.6351 348.1178 30045.3044 36.4615 94.1246
TCL: Running FEP window   6: Lambda1 0.25   Lambda2 0.3    [dLambda 0.04999999999999999]
TCL: Setting parameter firsttimestep to 0
TCL: Setting parameter alchLambda to 0.25
Info: NONBONDED TABLE R-SQUARED SPACING: 0.0625
Info: NONBONDED TABLE SIZE: 705 POINTS
TCL: Setting parameter alchLambda2 to 0.3
Info: NONBONDED TABLE R-SQUARED SPACING: 0.0625
Info: NONBONDED TABLE SIZE: 705 POINTS
TCL: Running for 1500000 steps
ETITLE: TS BOND ANGLE DIHED IMPRP ELECT VDW BOUNDARY MISC KINETIC TOTAL TEMP POTENTIAL TOTALAVG TEMPAVG PRESSURE GPRESSURE VOLUME PRESSAVG GPRESSAVG
ENERGY: 0 3.4477 9.9010 5.5699 0.0000 -10780.0945 1491.5870 0.0000 0.0000 1755.1754 -7514.4135 299.5064 -9269.5889 -7514.4135 299.5064 266.6041 356.0308 30045.3044 266.6041 356.0308
ENERGY: 300000 1.5149 10.2540 4.0374 0.0000 -10640.2886 1426.0812 0.0000 0.0000 1782.3860 -7416.0152 304.1497 -9198.4012 -7492.3943 296.1189 243.8155 249.9631 29776.3585 328.9568 353.1696
ENERGY: 600000 0.8924 10.7681 3.1955 0.0000 -10556.1212 1371.5890 0.0000 0.0000 1764.0858 -7405.5904 301.0269 -9169.6762 -7474.9077 298.0707 -477.1848 -417.5282 30348.5720 104.2384 145.3867
ENERGY: 900000 3.0294 8.9838 6.6592 0.0000 -10736.5301 1425.9528 0.0000 0.0000 1708.8515 -7583.0534 291.6016 -9291.9048 -7485.2980 297.8477 -165.4738 -93.8631 29658.5994 62.5110 110.9133
ENERGY: 1200000 1.6101 7.6322 4.3814 0.0000 -10748.9762 1482.7089 0.0000 0.0000 1771.8836 -7480.7600 302.3575 -9252.6436 -7481.3705 297.7545 69.6572 124.3214 30258.3760 83.1184 132.2266
ENERGY: 1500000 1.3452 7.0731 4.7338 0.0000 -10664.3292 1399.0449 0.0000 0.0000 1712.7010 -7539.4313 292.2585 -9252.1323 -7480.7278 298.1834 -355.8129 -295.1931 29965.0728 -14.4024 41.8810
TCL: Running FEP window   7: Lambda1 0.3    Lambda2 0.35   [dLambda 0.04999999999999999]
TCL: Setting parameter firsttimestep to 0
TCL: Setting parameter alchLambda to 0.3
Info: NONBONDED TABLE R-SQUARED SPACING: 0.0625
Info: NONBONDED TABLE SIZE: 705 POINTS
TCL: Setting parameter alchLambda2 to 0.35
Info: NONBONDED TABLE R-SQUARED SPACING: 0.0625
Info: NONBONDED TABLE SIZE: 705 POINTS
TCL: Running for 1500000 steps
ETITLE: TS BOND ANGLE DIHED IMPRP ELECT VDW BOUNDARY MISC KINETIC TOTAL TEMP POTENTIAL TOTALAVG TEMPAVG PRESSURE GPRESSURE VOLUME PRESSAVG GPRESSAVG
ENERGY: 0 1.3452 7.0731 4.7338 0.0000 -10664.3307 1399.7893 0.0000 0.0000 1711.8162 -7539.5732 292.1075 -9251.3894 -7539.5732 292.1075 -375.9680 -284.5374 29965.0728 -375.9680 -284.5374
ENERGY: 300000 2.0972 9.0754 3.6271 0.0000 -10568.4665 1433.2986 0.0000 0.0000 1825.4037 -7294.9644 311.4903 -9120.3680 -7444.3445 297.4887 166.4347 230.4486 30528.7407 -147.0543 -78.8031
ENERGY: 600000 1.7439 13.9452 3.9719 0.0000 -10735.4620 1477.5506 0.0000 0.0000 1725.4763 -7512.7741 294.4385 -9238.2504 -7479.7819 298.1654 182.2180 242.1035 30173.2350 96.2313 151.0199
ENERGY: 900000 0.6858 8.8980 4.4324 0.0000 -10744.4635 1463.3747 0.0000 0.0000 1765.5813 -7501.4912 301.2821 -9267.0725 -7471.3197 299.9153 300.9741 352.6489 29738.1542 146.4695 201.3871
ENERGY: 1200000 2.0894 7.4540 3.9694 0.0000 -10675.7480 1450.0905 0.0000 0.0000 1803.3900 -7408.7546 307.7338 -9212.1445 -7469.1862 299.8724 11.0776 41.0005 30552.4590 148.8140 205.6368
ENERGY: 1500000 0.9566 10.9395 4.0320 0.0000 -10657.3788 1400.9438 0.0000 0.0000 1738.4808 -7502.0261 296.6576 -9240.5069 -7474.5064 299.3059 -392.3501 -370.1448 30307.3834 38.2152 89.5438
TCL: Running FEP window   8: Lambda1 0.35   Lambda2 0.39999999999999997 [dLambda 0.04999999999999999]
TCL: Setting parameter firsttimestep to 0
TCL: Setting parameter alchLambda to 0.35
Info: NONBONDED TABLE R-SQUARED SPACING: 0.0625
Info: NONBONDED TABLE SIZE: 705 POINTS
TCL: Setting parameter alchLambda2 to 0.39999999999999997
Info: NONBONDED TABLE R-SQUARED SPACING: 0.0625
Info: NONBONDED TABLE SIZE: 705 POINTS
TCL: Running for 1500000 steps
ETITLE: TS BOND ANGLE DIHED IMPRP ELECT VDW BOUNDARY MISC KINETIC TOTAL TEMP POTENTIAL TOTALAVG TEMPAVG PRESSURE GPRESSURE VOLUME PRESSAVG GPRESSAVG
ENERGY: 0 0.9566 10.9395 4.0320 0.0000 -10657.3786 1401.7925 0.0000 0.0000 1737.5982 -7502.0598 296.5070 -9239.6580 -7502.0598 296.5070 -442.1834 -357.7764 30307.3834 -442.1834 -357.7764
ENERGY: 300000 1.6999 11.2202 5.9363 0.0000 -10741.9986 1415.8765 0.0000 0.0000 1751.4942 -7555.7715 298.8783 -9307.2658 -7436.8855 300.8406 -559.8845 -449.8046 30158.0714 1.2617 72.7706
ENERGY: 600000 1.5874 14.4534 3.3613 0.0000 -10552.7879 1320.6949 0.0000 0.0000 1762.5925 -7450.0985 300.7721 -9212.6909 -7461.1711 300.1754 -1074.2206 -996.7013 30541.3767 -86.9867 -21.5355
ENERGY: 900000 1.1178 8.3613 4.2208 0.0000 -10611.3237 1413.2312 0.0000 0.0000 1835.9950 -7348.3977 313.2976 -9184.3926 -7445.1542 302.1449 -382.4940 -339.9591 30874.0549 -70.8487 -10.6680
ENERGY: 1200000 2.0128 5.3268 7.9632 0.0000 -10579.2258 1366.9550 0.0000 0.0000 1740.3046 -7456.6634 296.9688 -9196.9680 -7452.5755 300.7066 -712.8050 -653.1857 30456.7406 -66.2057 -7.9589
ENERGY: 1500000 0.6256 9.0376 3.7873 0.0000 -10607.2046 1396.2278 0.0000 0.0000 1781.8781 -7415.6481 304.0630 -9197.5263 -7448.8379 301.2690 -465.1073 -304.1876 30641.2429 -85.9654 -19.0207
TCL: Running FEP window   9: Lambda1 0.39999999999999997 Lambda2 0.44999999999999996 [dLambda 0.04999999999999999]
TCL: Setting parameter firsttimestep to 0
TCL: Setting parameter alchLambda to 0.39999999999999997
Info: NONBONDED TABLE R-SQUARED SPACING: 0.0625
Info: NONBONDED TABLE SIZE: 705 POINTS
TCL: Setting parameter alchLambda2 to 0.44999999999999996
Info: NONBONDED TABLE R-SQUARED SPACING: 0.0625
Info: NONBONDED TABLE SIZE: 705 POINTS
TCL: Running for 1500000 steps
ETITLE: TS BOND ANGLE DIHED IMPRP ELECT VDW BOUNDARY MISC KINETIC TOTAL TEMP POTENTIAL TOTALAVG TEMPAVG PRESSURE GPRESSURE VOLUME PRESSAVG GPRESSAVG
ENERGY: 0 0.6256 9.0376 3.7873 0.0000 -10607.2053 1396.6649 0.0000 0.0000 1780.9949 -7416.0949 303.9123 -9197.0898 -7416.0949 303.9123 -375.3228 -295.4284 30641.2429 -375.3228 -295.4284
ENERGY: 300000 0.9065 8.0470 4.5042 0.0000 -10721.5094 1476.6201 0.0000 0.0000 1774.5134 -7456.9182 302.8063 -9231.4316 -7465.2549 300.4569 532.2734 572.0424 29886.7149 -151.2193 -97.6425
ENERGY: 600000 1.5330 6.5884 4.7597 0.0000 -10749.4719 1499.9811 0.0000 0.0000 1765.1958 -7471.4138 301.2163 -9236.6096 -7472.4107 300.3599 500.2499 575.2271 29923.5434 -125.7394 -67.3726
ENERGY: 900000 2.5341 10.3367 4.4877 0.0000 -10770.4522 1536.8771 0.0000 0.0000 1745.9694 -7470.2471 297.9355 -9216.2165 -7469.0388 299.9002 684.9744 692.4707 30243.3081 109.8077 161.3706
ENERGY: 1200000 1.0986 11.6327 5.4588 0.0000 -10590.1873 1393.2127 0.0000 0.0000 1746.8197 -7431.9647 298.0806 -9178.7844 -7464.7058 300.1234 -495.2823 -486.9626 30994.2559 81.5015 129.3788
ENERGY: 1500000 3.9743 11.3471 5.0111 0.0000 -10707.4183 1433.3005 0.0000 0.0000 1734.4062 -7519.3791 295.9623 -9253.7853 -7463.3744 300.3133 -155.3064 -59.9909 30261.9218 15.2544 67.0712
TCL: Running FEP window  10: Lambda1 0.44999999999999996 Lambda2 0.49999999999999994 [dLambda 0.04999999999999999]
TCL: Setting parameter firsttimestep to 0
TCL: Setting parameter alchLambda to 0.44999999999999996
Info: NONBONDED TABLE R-SQUARED SPACING: 0.0625
Info: NONBONDED TABLE SIZE: 705 POINTS
TCL: Setting parameter alchLambda2 to 0.49999999999999994
Info: NONBONDED TABLE R-SQUARED SPACING: 0.0625
Info: NONBONDED TABLE SIZE: 705 POINTS
TCL: Running for 1500000 steps
ETITLE: TS BOND ANGLE DIHED IMPRP ELECT VDW BOUNDARY MISC KINETIC TOTAL TEMP POTENTIAL TOTALAVG TEMPAVG PRESSURE GPRESSURE VOLUME PRESSAVG GPRESSAVG
ENERGY: 0 3.9743 11.3471 5.0111 0.0000 -10707.4168 1433.8889 0.0000 0.0000 1733.5706 -7519.6248 295.8197 -9253.1954 -7519.6248 295.8197 -144.0421 -47.9286 30261.9218 -144.0421 -47.9286
ENERGY: 300000 1.1841 9.6892 3.8203 0.0000 -10694.9786 1451.1674 0.0000 0.0000 1733.4631 -7495.6546 295.8014 -9229.1177 -7457.2751 299.2870 105.4507 143.3848 30103.8989 65.0230 127.3524
ENERGY: 600000 1.1280 6.5032 5.3981 0.0000 -10649.3302 1442.5717 0.0000 0.0000 1774.1205 -7419.6087 302.7393 -9193.7292 -7458.1477 299.4027 -142.2699 -56.5123 30813.7464 226.4988 285.9184
ENERGY: 900000 1.5398 9.3338 5.6434 0.0000 -10552.3614 1348.1408 0.0000 0.0000 1762.2410 -7425.4626 300.7121 -9187.7036 -7434.1688 301.0030 -652.6441 -570.9838 30385.4817 134.8519 192.9597
ENERGY: 1200000 2.6661 11.4668 3.2507 0.0000 -10717.0519 1504.7924 0.0000 0.0000 1769.4645 -7425.4114 301.9447 -9194.8759 -7438.9034 301.4041 687.7409 732.9382 30380.8605 136.7808 194.7498
ENERGY: 1500000 1.0402 7.7149 2.8860 0.0000 -10616.7303 1416.3892 0.0000 0.0000 1817.2902 -7371.4098 310.1058 -9188.7000 -7445.3513 301.2945 -142.6527 -157.1183 30601.3619 151.7943 205.0345
TCL: Running FEP window  11: Lambda1 0.49999999999999994 Lambda2 0.5499999999999999 [dLambda 0.04999999999999999]
TCL: Setting parameter firsttimestep to 0
TCL: Setting parameter alchLambda to 0.49999999999999994
Info: NONBONDED TABLE R-SQUARED SPACING: 0.0625
Info: NONBONDED TABLE SIZE: 705 POINTS
TCL: Setting parameter alchLambda2 to 0.5499999999999999
Info: NONBONDED TABLE R-SQUARED SPACING: 0.0625
Info: NONBONDED TABLE SIZE: 705 POINTS
TCL: Running for 1500000 steps
ETITLE: TS BOND ANGLE DIHED IMPRP ELECT VDW BOUNDARY MISC KINETIC TOTAL TEMP POTENTIAL TOTALAVG TEMPAVG PRESSURE GPRESSURE VOLUME PRESSAVG GPRESSAVG
ENERGY: 0 1.0402 7.7149 2.8860 0.0000 -10616.7314 1416.2825 0.0000 0.0000 1816.4105 -7372.3972 309.9557 -9188.8077 -7372.3972 309.9557 -227.0106 -150.5063 30601.3619 -227.0106 -150.5063
ENERGY: 300000 3.8139 7.4957 6.8273 0.0000 -10664.8203 1484.0698 0.0000 0.0000 1798.7856 -7363.8280 306.9481 -9162.6136 -7398.5314 303.9052 636.5525 666.1914 30306.2085 276.6567 341.3984
ENERGY: 600000 0.5224 12.9996 5.1823 0.0000 -10608.7067 1375.9303 0.0000 0.0000 1836.9326 -7377.1395 313.4576 -9214.0721 -7420.5229 303.7945 -379.8435 -327.1567 30560.3786 210.8478 272.5131
ENERGY: 900000 2.2576 8.8246 3.1668 0.0000 -10598.7392 1472.0629 0.0000 0.0000 1718.0128 -7394.4144 293.1649 -9112.4272 -7423.4035 303.1766 705.6392 774.9627 30126.1268 271.3622 343.6640
ENERGY: 1200000 0.7839 7.5843 5.7677 0.0000 -10713.4503 1464.5268 0.0000 0.0000 1757.5389 -7477.2487 299.9097 -9234.7876 -7424.1287 303.5485 235.9779 302.4519 30235.7653 156.8757 225.8616
ENERGY: 1500000 1.9636 9.5518 6.3672 0.0000 -10739.2472 1440.1810 0.0000 0.0000 1776.8780 -7504.3055 303.2098 -9281.1835 -7431.1848 303.5058 -374.8597 -342.1677 30501.5965 45.8780 110.4521
TCL: Running FEP window  12: Lambda1 0.5499999999999999 Lambda2 0.6    [dLambda 0.050000000000000044]
TCL: Setting parameter firsttimestep to 0
TCL: Setting parameter alchLambda to 0.5499999999999999
Info: NONBONDED TABLE R-SQUARED SPACING: 0.0625
Info: NONBONDED TABLE SIZE: 705 POINTS
TCL: Setting parameter alchLambda2 to 0.6
Info: NONBONDED TABLE R-SQUARED SPACING: 0.0625
Info: NONBONDED TABLE SIZE: 705 POINTS
TCL: Running for 1500000 steps
ETITLE: TS BOND ANGLE DIHED IMPRP ELECT VDW BOUNDARY MISC KINETIC TOTAL TEMP POTENTIAL TOTALAVG TEMPAVG PRESSURE GPRESSURE VOLUME PRESSAVG GPRESSAVG
ENERGY: 0 1.9636 9.5518 6.3672 0.0000 -10739.2396 1441.6153 0.0000 0.0000 1775.9967 -7503.7449 303.0594 -9279.7416 -7503.7449 303.0594 -404.9757 -321.9844 30501.5965 -404.9757 -321.9844
ENERGY: 300000 1.3109 14.7590 5.4567 0.0000 -10641.5163 1446.0803 0.0000 0.0000 1752.8791 -7421.0302 299.1146 -9173.9093 -7476.2056 299.3195 175.9177 297.4809 30513.0440 -54.2382 52.5267
ENERGY: 600000 0.4257 7.7328 3.8474 0.0000 -10667.1953 1469.2282 0.0000 0.0000 1828.5067 -7357.4544 312.0198 -9185.9612 -7444.3476 301.4822 473.6836 551.1503 30332.5417 21.0312 107.4007
ENERGY: 900000 2.5132 11.9551 4.8979 0.0000 -10598.8766 1349.5613 0.0000 0.0000 1762.6782 -7467.2709 300.7867 -9229.9491 -7447.0277 302.2737 -824.9863 -818.5414 30665.0877 15.3491 84.1199
ENERGY: 1200000 1.2514 8.3833 4.2173 0.0000 -10679.3337 1460.0158 0.0000 0.0000 1732.8469 -7472.6190 295.6962 -9205.4659 -7458.3083 301.2735 206.6512 345.3721 30078.3200 -41.5428 25.9445
ENERGY: 1500000 2.3741 8.5696 9.4185 0.0000 -10726.6762 1406.1671 0.0000 0.0000 1799.7302 -7500.4167 307.1093 -9300.1469 -7456.4913 301.7721 -564.7881 -502.5178 30456.7189 -82.6780 -18.3396
TCL: Running FEP window  13: Lambda1 0.6    Lambda2 0.65   [dLambda 0.050000000000000044]
TCL: Setting parameter firsttimestep to 0
TCL: Setting parameter alchLambda to 0.6
Info: NONBONDED TABLE R-SQUARED SPACING: 0.0625
Info: NONBONDED TABLE SIZE: 705 POINTS
TCL: Setting parameter alchLambda2 to 0.65
Info: NONBONDED TABLE R-SQUARED SPACING: 0.0625
Info: NONBONDED TABLE SIZE: 705 POINTS
TCL: Running for 1500000 steps
ETITLE: TS BOND ANGLE DIHED IMPRP ELECT VDW BOUNDARY MISC KINETIC TOTAL TEMP POTENTIAL TOTALAVG TEMPAVG PRESSURE GPRESSURE VOLUME PRESSAVG GPRESSAVG
ENERGY: 0 2.3741 8.5696 9.4185 0.0000 -10727.7557 1406.5624 0.0000 0.0000 1798.8643 -7501.9668 306.9616 -9300.8311 -7501.9668 306.9616 -572.3539 -492.6020 30456.7189 -572.3539 -492.6020
ENERGY: 300000 1.7778 10.1429 4.8735 0.0000 -10712.2912 1498.5625 0.0000 0.0000 1776.9137 -7420.0209 303.2159 -9196.9346 -7499.9046 299.4763 439.8081 572.3580 30390.6277 93.8446 185.5145
ENERGY: 600000 1.3941 8.5444 4.1921 0.0000 -10722.4677 1443.8185 0.0000 0.0000 1743.5230 -7520.9955 297.5180 -9264.5185 -7493.8115 300.6275 122.5174 208.1987 29792.6967 -4.7746 70.3094
ENERGY: 900000 1.2934 10.5075 6.0427 0.0000 -10830.9843 1546.1263 0.0000 0.0000 1736.0526 -7530.9617 296.2433 -9267.0143 -7489.7300 299.1730 646.7686 722.3990 30179.8163 109.8084 181.1581
ENERGY: 1200000 4.4162 7.4401 4.0848 0.0000 -10624.1302 1451.9230 0.0000 0.0000 1737.0012 -7419.2647 296.4051 -9156.2659 -7480.7556 298.4060 183.8437 211.4705 30548.8987 126.5768 192.5818
ENERGY: 1500000 1.7435 6.9203 3.2202 0.0000 -10761.8427 1505.8324 0.0000 0.0000 1712.9031 -7531.2231 292.2930 -9244.1262 -7485.1553 297.7253 429.8384 430.7563 30383.3496 136.4693 201.9637
TCL: Running FEP window  14: Lambda1 0.65   Lambda2 0.7000000000000001 [dLambda 0.050000000000000044]
TCL: Setting parameter firsttimestep to 0
TCL: Setting parameter alchLambda to 0.65
Info: NONBONDED TABLE R-SQUARED SPACING: 0.0625
Info: NONBONDED TABLE SIZE: 705 POINTS
TCL: Setting parameter alchLambda2 to 0.7000000000000001
Info: NONBONDED TABLE R-SQUARED SPACING: 0.0625
Info: NONBONDED TABLE SIZE: 705 POINTS
TCL: Running for 1500000 steps
ETITLE: TS BOND ANGLE DIHED IMPRP ELECT VDW BOUNDARY MISC KINETIC TOTAL TEMP POTENTIAL TOTALAVG TEMPAVG PRESSURE GPRESSURE VOLUME PRESSAVG GPRESSAVG
ENERGY: 0 1.7435 6.9203 3.2202 0.0000 -10762.2637 1505.4257 0.0000 0.0000 1712.0259 -7532.9280 292.1433 -9244.9540 -7532.9280 292.1433 369.8163 438.3184 30383.3496 369.8163 438.3184
ENERGY: 300000 1.7238 5.7441 5.1274 0.0000 -10795.2754 1539.9123 0.0000 0.0000 1767.6338 -7475.1340 301.6324 -9242.7678 -7499.7772 297.3543 774.9197 860.6816 30112.3924 518.7644 567.1170
ENERGY: 600000 1.2221 9.5602 2.9568 0.0000 -10642.3572 1447.3508 0.0000 0.0000 1766.2077 -7415.0595 301.3890 -9181.2672 -7461.0705 298.4983 40.9690 5.8237 30744.1092 391.5432 410.4821
ENERGY: 900000 1.9275 8.5400 3.9085 0.0000 -10655.5194 1471.9842 0.0000 0.0000 1757.1660 -7411.9933 299.8461 -9169.1593 -7469.4415 298.2226 289.0017 344.4368 30405.8135 399.3578 438.2174
ENERGY: 1200000 1.8838 11.2547 5.0252 0.0000 -10635.9360 1410.0179 0.0000 0.0000 1786.9648 -7420.7896 304.9310 -9207.7544 -7472.3363 297.7891 -147.7022 -86.6913 30215.5633 260.3336 310.5175
ENERGY: 1500000 4.4646 8.3678 4.8662 0.0000 -10727.5890 1471.7318 0.0000 0.0000 1743.0854 -7495.0732 297.4434 -9238.1586 -7469.0286 298.9037 317.6663 317.0044 29944.5462 150.1500 195.2467
TCL: Running FEP window  15: Lambda1 0.7000000000000001 Lambda2 0.7500000000000001 [dLambda 0.050000000000000044]
TCL: Setting parameter firsttimestep to 0
TCL: Setting parameter alchLambda to 0.7000000000000001
Info: NONBONDED TABLE R-SQUARED SPACING: 0.0625
Info: NONBONDED TABLE SIZE: 705 POINTS
TCL: Setting parameter alchLambda2 to 0.7500000000000001
Info: NONBONDED TABLE R-SQUARED SPACING: 0.0625
Info: NONBONDED TABLE SIZE: 705 POINTS
TCL: Running for 1500000 steps
ETITLE: TS BOND ANGLE DIHED IMPRP ELECT VDW BOUNDARY MISC KINETIC TOTAL TEMP POTENTIAL TOTALAVG TEMPAVG PRESSURE GPRESSURE VOLUME PRESSAVG GPRESSAVG
ENERGY: 0 4.4646 8.3678 4.8662 0.0000 -10727.5683 1470.9644 0.0000 0.0000 1742.2076 -7496.6978 297.2936 -9238.9054 -7496.6978 297.2936 239.3962 319.0654 29944.5462 239.3962 319.0654
ENERGY: 300000 2.5054 8.6513 4.4774 0.0000 -10611.3180 1390.8965 0.0000 0.0000 1767.1935 -7437.5938 301.5572 -9204.7873 -7484.9633 297.2557 -534.6863 -474.6320 30599.4228 23.1026 61.5987
ENERGY: 600000 1.5903 10.1462 3.3314 0.0000 -10807.5345 1523.0895 0.0000 0.0000 1756.1889 -7513.1883 299.6794 -9269.3771 -7464.0067 300.0049 763.4465 816.1168 30021.5177 -54.0513 -5.6537
ENERGY: 900000 3.4328 7.8672 3.8014 0.0000 -10653.0660 1420.1564 0.0000 0.0000 1800.3561 -7417.4521 307.2161 -9217.8082 -7465.3415 300.4470 -151.8982 -89.6902 30260.0236 -32.3643 15.8650
ENERGY: 1200000 2.3735 12.3197 5.8448 0.0000 -10670.0158 1423.9728 0.0000 0.0000 1761.3097 -7464.1954 300.5532 -9225.5051 -7460.7035 300.4946 -286.4895 -225.9862 30418.8085 -60.7467 -11.5293
ENERGY: 1500000 2.3031 8.4647 4.6627 0.0000 -10650.4718 1430.8490 0.0000 0.0000 1765.5675 -7438.6247 301.2798 -9204.1922 -7463.3866 300.5795 161.6191 221.2450 30097.6973 -17.9249 35.1153
TCL: Running FEP window  16: Lambda1 0.7500000000000001 Lambda2 0.8000000000000002 [dLambda 0.050000000000000044]
TCL: Setting parameter firsttimestep to 0
TCL: Setting parameter alchLambda to 0.7500000000000001
Info: NONBONDED TABLE R-SQUARED SPACING: 0.0625
Info: NONBONDED TABLE SIZE: 705 POINTS
TCL: Setting parameter alchLambda2 to 0.8000000000000002
Info: NONBONDED TABLE R-SQUARED SPACING: 0.0625
Info: NONBONDED TABLE SIZE: 705 POINTS
TCL: Running for 1500000 steps
ETITLE: TS BOND ANGLE DIHED IMPRP ELECT VDW BOUNDARY MISC KINETIC TOTAL TEMP POTENTIAL TOTALAVG TEMPAVG PRESSURE GPRESSURE VOLUME PRESSAVG GPRESSAVG
ENERGY: 0 2.3031 8.4647 4.6627 0.0000 -10650.7544 1430.7327 0.0000 0.0000 1764.6951 -7439.8960 301.1309 -9204.5911 -7439.8960 301.1309 140.4909 232.1040 30097.6973 140.4909 232.1040
ENERGY: 300000 3.0404 7.8761 4.7294 0.0000 -10702.2046 1424.2291 0.0000 0.0000 1779.2529 -7483.0767 303.6150 -9262.3295 -7481.7574 299.5955 -324.5684 -261.7065 30378.3152 154.3432 230.9978
ENERGY: 600000 1.5695 7.7459 4.1793 0.0000 -10704.2828 1458.5177 0.0000 0.0000 1723.9517 -7508.3188 294.1783 -9232.2705 -7476.8652 299.4334 261.6665 294.7006 29977.8710 142.3754 207.6011
ENERGY: 900000 1.9452 8.0599 6.8245 0.0000 -10652.8207 1394.9109 0.0000 0.0000 1808.2623 -7432.8181 308.5653 -9241.0803 -7467.6867 300.2044 -348.2163 -277.0506 30305.9436 70.4408 139.0271
ENERGY: 1200000 0.5040 7.7812 3.0571 0.0000 -10561.1972 1360.5540 0.0000 0.0000 1822.4566 -7366.8443 310.9874 -9189.3009 -7460.7844 301.0071 -687.8636 -615.8318 30787.0544 -6.6941 61.1065
ENERGY: 1500000 1.3879 8.7529 8.6245 0.0000 -10593.0551 1372.6118 0.0000 0.0000 1761.8250 -7439.8529 300.6411 -9201.6779 -7458.0091 300.3820 -640.1625 -497.7059 30625.9249 -68.2237 5.4453
TCL: Running FEP window  17: Lambda1 0.8000000000000002 Lambda2 0.8500000000000002 [dLambda 0.050000000000000044]
TCL: Setting parameter firsttimestep to 0
TCL: Setting parameter alchLambda to 0.8000000000000002
Info: NONBONDED TABLE R-SQUARED SPACING: 0.0625
Info: NONBONDED TABLE SIZE: 705 POINTS
TCL: Setting parameter alchLambda2 to 0.8500000000000002
Info: NONBONDED TABLE R-SQUARED SPACING: 0.0625
Info: NONBONDED TABLE SIZE: 705 POINTS
TCL: Running for 1500000 steps
ETITLE: TS BOND ANGLE DIHED IMPRP ELECT VDW BOUNDARY MISC KINETIC TOTAL TEMP POTENTIAL TOTALAVG TEMPAVG PRESSURE GPRESSURE VOLUME PRESSAVG GPRESSAVG
ENERGY: 0 1.3879 8.7529 8.6245 0.0000 -10594.4365 1373.5046 0.0000 0.0000 1760.9853 -7441.1811 300.4978 -9202.1665 -7441.1811 300.4978 -571.0674 -478.8050 30625.9249 -571.0674 -478.8050
ENERGY: 300000 1.6477 13.9396 3.9702 0.0000 -10500.5030 1336.1613 0.0000 0.0000 1750.6690 -7394.1151 298.7374 -9144.7841 -7445.9142 300.7612 -470.5012 -367.8951 30145.9376 61.1932 160.5732
ENERGY: 600000 3.4251 7.8362 4.5058 0.0000 -10629.8123 1440.3714 0.0000 0.0000 1823.7906 -7349.8832 311.2151 -9173.6739 -7453.7588 300.0989 -62.6460 83.6993 30348.2989 -124.8689 -28.7844
ENERGY: 900000 0.3320 2.8010 4.3477 0.0000 -10586.6057 1394.5982 0.0000 0.0000 1766.2134 -7418.3134 301.3900 -9184.5268 -7466.2068 298.2569 -438.6360 -377.9018 30839.4318 -58.3412 23.3654
ENERGY: 1200000 2.4766 11.5378 3.6956 0.0000 -10711.2670 1423.3096 0.0000 0.0000 1745.5354 -7524.7120 297.8614 -9270.2473 -7467.2681 298.7938 -397.8643 -336.8294 30392.3133 -137.3767 -57.6464
ENERGY: 1500000 3.2017 11.9522 5.0833 0.0000 -10550.3135 1403.5159 0.0000 0.0000 1724.7670 -7401.7934 294.3175 -9126.5603 -7454.5256 299.3184 -281.3140 -268.5960 30880.9920 -179.6550 -101.3171
TCL: Running FEP window  18: Lambda1 0.8500000000000002 Lambda2 0.9000000000000002 [dLambda 0.050000000000000044]
TCL: Setting parameter firsttimestep to 0
TCL: Setting parameter alchLambda to 0.8500000000000002
Info: NONBONDED TABLE R-SQUARED SPACING: 0.0625
Info: NONBONDED TABLE SIZE: 705 POINTS
TCL: Setting parameter alchLambda2 to 0.9000000000000002
Info: NONBONDED TABLE R-SQUARED SPACING: 0.0625
Info: NONBONDED TABLE SIZE: 705 POINTS
TCL: Running for 1500000 steps
ETITLE: TS BOND ANGLE DIHED IMPRP ELECT VDW BOUNDARY MISC KINETIC TOTAL TEMP POTENTIAL TOTALAVG TEMPAVG PRESSURE GPRESSURE VOLUME PRESSAVG GPRESSAVG
ENERGY: 0 3.2018 11.9522 5.0833 0.0000 -10551.0753 1403.0691 0.0000 0.0000 1723.8992 -7403.8696 294.1694 -9127.7688 -7403.8696 294.1694 -332.8638 -262.7657 30880.9920 -332.8638 -262.7657
ENERGY: 300000 1.5257 10.4920 4.2968 0.0000 -10684.9230 1395.0550 0.0000 0.0000 1741.7183 -7531.8351 297.2101 -9273.5535 -7459.4694 298.3230 -531.0587 -414.8203 30348.5276 -201.0332 -115.1167
ENERGY: 600000 1.2919 9.9876 3.7155 0.0000 -10675.1595 1451.7948 0.0000 0.0000 1796.0235 -7412.3460 306.4768 -9208.3695 -7445.0694 301.6834 126.9455 209.9176 30469.2508 -5.9359 73.0232
ENERGY: 900000 3.5190 8.2594 3.7487 0.0000 -10647.0890 1466.2197 0.0000 0.0000 1753.5969 -7411.7453 299.2371 -9165.3423 -7453.2326 300.3899 508.7286 581.2356 30215.3683 54.2600 119.0734
ENERGY: 1200000 1.9547 9.2463 4.9297 0.0000 -10728.0944 1429.8255 0.0000 0.0000 1734.5692 -7547.5690 295.9901 -9282.1382 -7454.0931 299.8668 -5.2273 -48.8131 30168.9828 14.2968 68.2693
ENERGY: 1500000 1.2058 7.0573 6.2289 0.0000 -10713.1032 1456.3409 0.0000 0.0000 1736.0682 -7506.2021 296.2459 -9242.2704 -7448.9153 299.7858 301.2679 344.5061 29789.7535 62.7447 112.6496
TCL: Running FEP window  19: Lambda1 0.9000000000000002 Lambda2 0.9500000000000003 [dLambda 0.050000000000000044]
TCL: Setting parameter firsttimestep to 0
TCL: Setting parameter alchLambda to 0.9000000000000002
Info: NONBONDED TABLE R-SQUARED SPACING: 0.0625
Info: NONBONDED TABLE SIZE: 705 POINTS
TCL: Setting parameter alchLambda2 to 0.9500000000000003
Info: NONBONDED TABLE R-SQUARED SPACING: 0.0625
Info: NONBONDED TABLE SIZE: 705 POINTS
TCL: Running for 1500000 steps
ETITLE: TS BOND ANGLE DIHED IMPRP ELECT VDW BOUNDARY MISC KINETIC TOTAL TEMP POTENTIAL TOTALAVG TEMPAVG PRESSURE GPRESSURE VOLUME PRESSAVG GPRESSAVG
ENERGY: 0 1.2058 7.0573 6.2289 0.0000 -10713.2910 1455.8127 0.0000 0.0000 1735.1916 -7507.7948 296.0963 -9242.9863 -7507.7948 296.0963 260.4895 351.2201 29789.7535 260.4895 351.2201
ENERGY: 300000 2.7536 13.1029 5.1086 0.0000 -10659.3764 1428.2651 0.0000 0.0000 1758.4563 -7451.6899 300.0663 -9210.1462 -7470.2105 299.3611 4.7596 69.7871 30271.7196 109.9429 173.0601
ENERGY: 600000 2.8705 11.2493 4.4227 0.0000 -10664.9317 1420.9870 0.0000 0.0000 1776.1110 -7449.2912 303.0789 -9225.4022 -7463.3828 300.4602 -33.0846 51.0359 30055.2186 24.3748 84.9227
ENERGY: 900000 2.4497 6.1088 7.4116 0.0000 -10544.7165 1343.9721 0.0000 0.0000 1717.5925 -7467.1819 293.0932 -9184.7744 -7452.4135 300.6272 -677.4731 -596.3909 30455.0203 -108.0590 -44.4382
ENERGY: 1200000 1.9114 10.3859 7.1115 0.0000 -10648.2507 1410.4687 0.0000 0.0000 1744.1272 -7474.2460 297.6211 -9218.3732 -7454.1424 300.5016 -42.7247 -26.0658 30159.8413 6.1395 65.5233
ENERGY: 1500000 1.6025 8.1530 5.4631 0.0000 -10568.2373 1365.8805 0.0000 0.0000 1737.3828 -7449.7554 296.4703 -9187.1381 -7450.0375 300.3836 -472.3638 -438.0757 30573.7219 -47.2228 12.0412
TCL: Running FEP window  20: Lambda1 0.9500000000000003 Lambda2 1.0    [dLambda 0.04999999999999971]
TCL: Setting parameter firsttimestep to 0
TCL: Setting parameter alchLambda to 0.9500000000000003
Info: NONBONDED TABLE R-SQUARED SPACING: 0.0625
Info: NONBONDED TABLE SIZE: 705 POINTS
TCL: Setting parameter alchLambda2 to 1.0
Info: NONBONDED TABLE R-SQUARED SPACING: 0.0625
Info: NONBONDED TABLE SIZE: 705 POINTS
TCL: Running for 1500000 steps
ETITLE: TS BOND ANGLE DIHED IMPRP ELECT VDW BOUNDARY MISC KINETIC TOTAL TEMP POTENTIAL TOTALAVG TEMPAVG PRESSURE GPRESSURE VOLUME PRESSAVG GPRESSAVG
ENERGY: 0 1.6025 8.1530 5.4631 0.0000 -10569.5227 1367.5245 0.0000 0.0000 1736.4994 -7450.2801 296.3195 -9186.7796 -7450.2801 296.3195 -490.8652 -405.6904 30573.7219 -490.8652 -405.6904
ENERGY: 300000 3.1275 7.5729 4.5056 0.0000 -10698.0788 1451.6822 0.0000 0.0000 1769.5433 -7461.6473 301.9582 -9231.1906 -7491.9168 297.1334 167.7631 251.9342 30295.0867 -267.8887 -225.6336
ENERGY: 600000 1.2728 8.0203 4.3311 0.0000 -10560.8004 1383.6259 0.0000 0.0000 1678.4601 -7485.0902 286.4156 -9163.5503 -7473.6875 295.6529 -377.1709 -279.8057 31008.0343 -234.6595 -182.4983
ENERGY: 900000 1.6134 10.3150 3.8241 0.0000 -10593.6892 1342.5549 0.0000 0.0000 1784.2183 -7451.1634 304.4624 -9235.3818 -7469.5504 297.3597 -452.3010 -348.3678 30071.6169 -92.2072 -39.1793
ENERGY: 1200000 1.9565 7.1358 4.9878 0.0000 -10690.1357 1435.6419 0.0000 0.0000 1765.8112 -7474.6025 301.3213 -9240.4137 -7466.0595 297.9425 33.9490 161.7108 30453.8581 -84.4381 -22.2319
ENERGY: 1500000 1.5703 7.3052 5.8732 0.0000 -10842.6513 1492.0365 0.0000 0.0000 1745.0626 -7590.8035 297.7807 -9335.8660 -7464.2268 299.0381 405.3979 473.6436 29846.3245 -51.2363 10.2398
TCL: Exiting due to exit command.
