Info: SIMULATION PARAMETERS:
Info: TIMESTEP               2
Info: NUMBER OF STEPS        0
Info: STEPS PER CYCLE        10
Info: PERIODIC CELL BASIS 1  30.9379 0 0
Info: PERIODIC CELL BASIS 2  0 31.2923 0
Info: PERIODIC CELL BASIS 3  0 0 31.568
Info: PERIODIC CELL CENTER   0 0 0
Info: WRAPPING WATERS AROUND PERIODIC BOUNDARIES ON OUTPUT.
Info: WRAPPING ALL CLUSTERS AROUND PERIODIC BOUNDARIES ON OUTPUT.
Info: FIRST LDB TIMESTEP     50
Info: LAST LDB TIMESTEP     -1
Info: HOM BACKGROUND SCALING 1
Info: PME BACKGROUND SCALING 1
Info: MIN ATOMS PER PATCH    40
Info: EMPTY PATCH LOAD       40 ATOMS
Info: VELOCITY FILE          mobley_1563176_equil.vel
Info: CENTER OF MASS MOVING INITIALLY? NO
Info: DIELECTRIC             1
Info: EXCLUDE                SCALED ONE-FOUR
Info: 1-4 ELECTROSTATICS SCALED BY 0.833333
Info: MODIFIED 1-4 VDW PARAMETERS WILL BE USED
Info: DCD FILENAME           mobley_1563176_prod.dcd
Info: DCD FREQUENCY          100000
Info: DCD FIRST STEP         100000
Info: DCD FILE WILL CONTAIN UNIT CELL DATA
Info: XST FILENAME           mobley_1563176_prod.xst
Info: XST FREQUENCY          100000
Info: NO VELOCITY DCD OUTPUT
Info: NO FORCE DCD OUTPUT
Info: OUTPUT FILENAME        mobley_1563176_prod
Info: BINARY OUTPUT FILES WILL BE USED
Info: RESTART FILENAME       mobley_1563176_prod.restart
Info: RESTART FREQUENCY      100000
Info: BINARY RESTART FILES WILL BE USED
Info: CUTOFF                 9
Info: PAIRLIST DISTANCE      11
Info: PAIRLIST SHRINK RATE   0.01
Info: PAIRLIST GROW RATE     0.01
Info: PAIRLIST TRIGGER       0.3
Info: PAIRLISTS PER CYCLE    2
Info: PAIRLISTS ENABLED
Info: MARGIN                 2
Info: HYDROGEN GROUP CUTOFF  2.5
Info: PATCH DIMENSION        15.5
Info: ENERGY OUTPUT STEPS    100000
Info: ENERGY EVALUATION STEPS    100000
Info: OUTPUT ENERGY PRECISION 4
Info: CROSSTERM ENERGY INCLUDED IN DIHEDRAL
Info: TIMING OUTPUT STEPS    1000000
Info: PRESSURE OUTPUT STEPS  100000
Info: ALCHEMICAL FEP ON
Info: FEP CURRENT LAMBDA VALUE     0
Info: FEP COMPARISON LAMBDA VALUE  0.05
Info: FEP INTRA-ALCHEMICAL NON-BONDED INTERACTIONS WILL BE RETAINED
Info: FEP INTRA-ALCHEMICAL BONDED INTERACTIONS WILL BE RETAINED
Info: FEP VDW SHIFTING COEFFICIENT 5
Info: FEP ELEC. ACTIVE FOR ANNIHILATED PARTICLES BETWEEN LAMBDA = 0 AND LAMBDA = 0.5
Info: FEP ELEC. ACTIVE FOR EXNIHILATED PARTICLES BETWEEN LAMBDA = 0.5 AND LAMBDA = 1
Info: FEP VDW ACTIVE FOR ANNIHILATED PARTICLES BETWEEN LAMBDA = 0 AND LAMBDA = 1
Info: FEP VDW ACTIVE FOR EXNIHILATED PARTICLES BETWEEN LAMBDA = 0 AND LAMBDA = 1
Info: FEP BOND ACTIVE FOR ANNIHILATED PARTICLES BETWEEN LAMBDA = 1 AND LAMBDA = 1
Info: FEP BOND ACTIVE FOR EXNIHILATED PARTICLES BETWEEN LAMBDA = 0 AND LAMBDA = 0
Info: LANGEVIN DYNAMICS ACTIVE
Info: LANGEVIN TEMPERATURE   300
Info: LANGEVIN USING BBK INTEGRATOR
Info: LANGEVIN DAMPING COEFFICIENT IS 1 INVERSE PS
Info: LANGEVIN DYNAMICS APPLIED TO HYDROGENS
Info: LANGEVIN PISTON PRESSURE CONTROL ACTIVE
Info:        TARGET PRESSURE IS 1.01325 BAR
Info:     OSCILLATION PERIOD IS 50 FS
Info:             DECAY TIME IS 25 FS
Info:     PISTON TEMPERATURE IS 300 K
Info:       PRESSURE CONTROL IS GROUP-BASED
Info:    INITIAL STRAIN RATE IS 8.40272e-05 8.40272e-05 8.40272e-05
Info:       CELL FLUCTUATION IS ISOTROPIC
Info: PARTICLE MESH EWALD (PME) ACTIVE
Info: PME TOLERANCE               1e-06
Info: PME EWALD COEFFICIENT       0.348832
Info: PME INTERPOLATION ORDER     4
Info: PME GRID DIMENSIONS         32 32 32
Info: PME MAXIMUM GRID SPACING    1
Info: PME CALCULATION WILL BE PERFORMED ON GPU
Info: FULL ELECTROSTATIC EVALUATION FREQUENCY      2
Info: USING VERLET I (r-RESPA) MTS SCHEME.
Info: C1 SPLITTING OF LONG RANGE ELECTROSTATICS
Info: PLACING ATOMS IN PATCHES BY HYDROGEN GROUPS
Info: RIGID BONDS TO HYDROGEN : ALL
Info:         ERROR TOLERANCE : 1e-08
Info:          MAX ITERATIONS : 100
Info: RIGID WATER USING SETTLE ALGORITHM
Info: RANDOM NUMBER SEED     1743838968
Info: USE HYDROGEN BONDS?    NO
Info: Using AMBER format force field!
Info: AMBER PARM FILE        mobley_1563176.prmtop
Info: COORDINATE PDB         mobley_1563176.pdb
Info: Exclusions will be read from PARM file!
Info: SCNB (VDW SCALING)     2
Info: USING ARITHMETIC MEAN TO COMBINE L-J SIGMA PARAMETERS
Info: BINARY COORDINATES     mobley_1563176_equil.coor
Info: SUMMARY OF PARAMETERS:
Info: 7 BONDS
Info: 8 ANGLES
Info:   8 HARMONIC
Info:   0 COSINE-BASED
Info: 7 DIHEDRAL
Info: 0 IMPROPER
Info: 0 CROSSTERM
Info: 0 VDW
Info: 28 VDW_PAIRS
Info: 0 NBTHOLE_PAIRS
Info: To read alchdata from file: mobley_1563176.pdb
Info: To read alchflag data from column: 5
Info: STRUCTURE SUMMARY:
Info: 2973 ATOMS
Info: 2972 BONDS
Info: 25 ANGLES
Info: 32 DIHEDRALS
Info: 0 IMPROPERS
Info: 0 CROSSTERMS
Info: 3027 EXCLUSIONS
Info: 2968 RIGID BONDS
Info: ALCH: 0 ATOMS TO DISAPPEAR IN FINAL STATE
Info: ALCH: 15 ATOMS TO APPEAR IN FINAL STATE
Info: 5951 DEGREES OF FREEDOM
Info: 991 HYDROGEN GROUPS
Info: 4 ATOMS IN LARGEST HYDROGEN GROUP
Info: 991 MIGRATION GROUPS
Info: 4 ATOMS IN LARGEST MIGRATION GROUP
Info: TOTAL MASS = 17854 amu
Info: TOTAL CHARGE = 6.98492e-09 e
Info: MASS DENSITY = 0.970105 g/cm^3
Info: ATOM DENSITY = 0.0972792 atoms/A^3
Info: ADDED 0 IMPLICIT EXCLUSIONS
Info: NONBONDED TABLE R-SQUARED SPACING: 0.0625
Info: NONBONDED TABLE SIZE: 705 POINTS
Info: REMOVING COM VELOCITY -0.0436246 -0.177797 -0.0970353
Info: Use 3D box decompostion in PME FFT.
Info: Updated CUDA force table with 4096 elements.
Info: Updated CUDA LJ table with 7 x 7 elements.
Info: Found 18 unique exclusion lists needing 40 bytes
TCL: Running for 1500000 steps
ETITLE: TS BOND ANGLE DIHED IMPRP ELECT VDW BOUNDARY MISC KINETIC TOTAL TEMP POTENTIAL TOTALAVG TEMPAVG PRESSURE GPRESSURE VOLUME PRESSAVG GPRESSAVG
ENERGY: 0 1.6321 6.6586 2.7982 0.0000 -10819.3616 1420.2804 0.0000 0.0000 1760.3345 -7627.6577 297.7115 -9387.9923 -7627.6577 297.7115 -421.3256 -358.3525 30561.5184 -421.3256 -358.3525
ENERGY: 300000 0.7653 4.7978 2.4206 0.0000 -10858.5229 1487.6652 0.0000 0.0000 1718.3051 -7644.5688 290.6034 -9362.8739 -7596.0827 296.2506 47.6574 104.8901 30728.9281 -94.3099 -41.0565
ENERGY: 600000 0.4886 7.9125 0.9575 0.0000 -10863.3359 1515.8744 0.0000 0.0000 1826.9671 -7511.1358 308.9806 -9338.1029 -7533.9750 300.7325 286.9985 333.3010 30650.9406 21.6150 63.8461
ENERGY: 900000 0.9317 5.5751 3.3914 0.0000 -10700.7528 1456.4476 0.0000 0.0000 1774.8399 -7459.5671 300.1647 -9234.4070 -7521.4567 301.4009 182.0617 214.1000 30622.7665 -24.1825 27.3688
ENERGY: 1200000 2.6365 6.1845 0.8911 0.0000 -10735.1678 1484.8506 0.0000 0.0000 1703.6094 -7536.9958 288.1180 -9240.6051 -7524.7942 299.2303 178.6174 267.2732 30931.5333 68.0699 118.9644
ENERGY: 1500000 0.9769 6.8548 1.1190 0.0000 -10742.2396 1392.8268 0.0000 0.0000 1744.2794 -7596.1826 294.9963 -9340.4621 -7537.8654 298.6397 -729.5704 -632.0768 30490.6534 -22.5453 30.7372
TCL: Running FEP window   2: Lambda1 0.05   Lambda2 0.1    [dLambda 0.05  ]
TCL: Setting parameter firsttimestep to 0
TCL: Setting parameter alchLambda to 0.05
Info: NONBONDED TABLE R-SQUARED SPACING: 0.0625
Info: NONBONDED TABLE SIZE: 705 POINTS
TCL: Setting parameter alchLambda2 to 0.1
Info: NONBONDED TABLE R-SQUARED SPACING: 0.0625
Info: NONBONDED TABLE SIZE: 705 POINTS
TCL: Running for 1500000 steps
ETITLE: TS BOND ANGLE DIHED IMPRP ELECT VDW BOUNDARY MISC KINETIC TOTAL TEMP POTENTIAL TOTALAVG TEMPAVG PRESSURE GPRESSURE VOLUME PRESSAVG GPRESSAVG
ENERGY: 0 0.9769 6.8548 1.1190 0.0000 -10742.2403 1396.4355 0.0000 0.0000 1743.4490 -7593.4051 294.8558 -9336.8541 -7593.4051 294.8558 -713.5878 -626.4569 30490.6534 -713.5878 -626.4569
ENERGY: 300000 1.3984 7.7878 1.2333 0.0000 -10735.7754 1436.1363 0.0000 0.0000 1796.6504 -7492.5692 303.8533 -9289.2195 -7529.9018 299.1391 -466.1280 -309.8920 30643.5779 -427.3927 -360.2544
ENERGY: 600000 0.3696 4.5298 0.9770 0.0000 -10650.6782 1385.5999 0.0000 0.0000 1828.1245 -7431.0774 309.1763 -9259.2019 -7514.5756 300.4342 -748.5372 -625.1549 31178.7903 -395.6023 -319.7283
ENERGY: 900000 2.7906 7.6492 1.3730 0.0000 -10813.9730 1474.8655 0.0000 0.0000 1803.1551 -7524.1396 304.9534 -9327.2947 -7530.6695 299.7729 143.8675 164.2488 30331.5748 -248.2147 -174.6048
ENERGY: 1200000 4.4197 7.4727 1.6396 0.0000 -10771.7200 1436.3242 0.0000 0.0000 1781.3289 -7540.5348 301.2621 -9321.8637 -7534.6139 299.9274 -265.3214 -218.2930 30483.5726 -339.6657 -262.3452
ENERGY: 1500000 0.8355 8.1943 1.6828 0.0000 -10834.3295 1438.7668 0.0000 0.0000 1750.9726 -7633.8774 296.1282 -9384.8500 -7542.2973 298.9395 -273.3286 -244.5154 30374.1524 -275.0335 -202.1036
TCL: Running FEP window   3: Lambda1 0.1    Lambda2 0.15000000000000002 [dLambda 0.05000000000000002]
TCL: Setting parameter firsttimestep to 0
TCL: Setting parameter alchLambda to 0.1
Info: NONBONDED TABLE R-SQUARED SPACING: 0.0625
Info: NONBONDED TABLE SIZE: 705 POINTS
TCL: Setting parameter alchLambda2 to 0.15000000000000002
Info: NONBONDED TABLE R-SQUARED SPACING: 0.0625
Info: NONBONDED TABLE SIZE: 705 POINTS
TCL: Running for 1500000 steps
ETITLE: TS BOND ANGLE DIHED IMPRP ELECT VDW BOUNDARY MISC KINETIC TOTAL TEMP POTENTIAL TOTALAVG TEMPAVG PRESSURE GPRESSURE VOLUME PRESSAVG GPRESSAVG
ENERGY: 0 0.8355 8.1943 1.6828 0.0000 -10834.3282 1439.3965 0.0000 0.0000 1750.0736 -7634.1456 295.9762 -9384.2192 -7634.1456 295.9762 -322.1852 -241.2650 30374.1524 -322.1852 -241.2650
ENERGY: 300000 0.1118 6.6320 3.3651 0.0000 -10777.4426 1433.5803 0.0000 0.0000 1798.3930 -7535.3604 304.1480 -9333.7534 -7531.5380 300.0672 -63.8857 8.8722 30183.2182 -338.5512 -270.0926
ENERGY: 600000 1.8942 6.1773 1.3701 0.0000 -10692.9749 1434.0633 0.0000 0.0000 1776.9691 -7472.5010 300.5248 -9249.4701 -7498.5145 301.7584 -13.2532 24.2033 30675.8758 -166.1766 -103.2057
ENERGY: 900000 0.5007 7.8351 1.9795 0.0000 -10746.9581 1434.6880 0.0000 0.0000 1732.2377 -7569.7171 292.9597 -9301.9548 -7497.2888 301.7383 -90.6658 68.2595 30171.2773 -164.1023 -91.4206
ENERGY: 1200000 1.1245 6.0408 1.3341 0.0000 -10887.4385 1548.4487 0.0000 0.0000 1759.2471 -7571.2432 297.5276 -9330.4903 -7502.6320 301.7598 817.4599 852.8305 30139.1420 -155.5358 -81.1776
ENERGY: 1500000 1.6812 6.4125 1.8799 0.0000 -10681.7238 1468.2648 0.0000 0.0000 1779.8690 -7423.6164 301.0152 -9203.4854 -7502.9439 300.9466 394.1381 500.7187 30675.3565 -114.5670 -37.0308
TCL: Running FEP window   4: Lambda1 0.15000000000000002 Lambda2 0.2    [dLambda 0.04999999999999999]
TCL: Setting parameter firsttimestep to 0
TCL: Setting parameter alchLambda to 0.15000000000000002
Info: NONBONDED TABLE R-SQUARED SPACING: 0.0625
Info: NONBONDED TABLE SIZE: 705 POINTS
TCL: Setting parameter alchLambda2 to 0.2
Info: NONBONDED TABLE R-SQUARED SPACING: 0.0625
Info: NONBONDED TABLE SIZE: 705 POINTS
TCL: Running for 1500000 steps
ETITLE: TS BOND ANGLE DIHED IMPRP ELECT VDW BOUNDARY MISC KINETIC TOTAL TEMP POTENTIAL TOTALAVG TEMPAVG PRESSURE GPRESSURE VOLUME PRESSAVG GPRESSAVG
ENERGY: 0 1.6812 6.4125 1.8799 0.0000 -10681.7238 1468.8043 0.0000 0.0000 1779.0065 -7423.9394 300.8694 -9202.9459 -7423.9394 300.8694 439.0087 506.8136 30675.3565 439.0087 506.8136
ENERGY: 300000 3.7304 6.7950 2.6264 0.0000 -10731.4460 1488.6027 0.0000 0.0000 1762.8960 -7466.7956 298.1447 -9229.6916 -7500.6006 300.0387 578.5181 617.1898 30316.9677 278.6807 330.4680
ENERGY: 600000 0.3906 5.4418 3.1925 0.0000 -10804.6285 1494.3276 0.0000 0.0000 1778.8275 -7522.4486 300.8391 -9301.2760 -7531.2877 297.5846 516.3441 610.9275 30182.2894 204.1696 278.7143
ENERGY: 900000 2.7104 7.1960 1.6864 0.0000 -10576.6431 1389.5585 0.0000 0.0000 1836.5085 -7338.9833 310.5942 -9175.4918 -7532.4476 297.4333 -434.9309 -380.9489 31113.7069 54.1216 116.6602
ENERGY: 1200000 2.1703 10.2727 2.2260 0.0000 -10661.4497 1423.6927 0.0000 0.0000 1776.0507 -7447.0371 300.3695 -9223.0879 -7535.4855 296.8060 -182.5316 -85.0419 30580.0806 26.5610 94.2167
ENERGY: 1500000 0.3874 9.4194 1.7736 0.0000 -10815.7054 1483.1424 0.0000 0.0000 1743.9540 -7577.0286 294.9412 -9320.9826 -7535.9496 296.8114 424.6746 450.4207 30213.8532 55.6405 123.0120
TCL: Running FEP window   5: Lambda1 0.2    Lambda2 0.25   [dLambda 0.04999999999999999]
TCL: Setting parameter firsttimestep to 0
TCL: Setting parameter alchLambda to 0.2
Info: NONBONDED TABLE R-SQUARED SPACING: 0.0625
Info: NONBONDED TABLE SIZE: 705 POINTS
TCL: Setting parameter alchLambda2 to 0.25
Info: NONBONDED TABLE R-SQUARED SPACING: 0.0625
Info: NONBONDED TABLE SIZE: 705 POINTS
TCL: Running for 1500000 steps
ETITLE: TS BOND ANGLE DIHED IMPRP ELECT VDW BOUNDARY MISC KINETIC TOTAL TEMP POTENTIAL TOTALAVG TEMPAVG PRESSURE GPRESSURE VOLUME PRESSAVG GPRESSAVG
ENERGY: 0 0.3874 9.4194 1.7736 0.0000 -10815.7064 1483.5671 0.0000 0.0000 1743.0865 -7577.4724 294.7945 -9320.5589 -7577.4724 294.7945 388.2313 455.9764 30213.8532 388.2313 455.9764
ENERGY: 300000 1.3304 9.4475 3.3093 0.0000 -10720.1485 1383.0173 0.0000 0.0000 1817.2044 -7505.8396 307.3295 -9323.0440 -7540.7510 300.1948 -722.2144 -668.8949 30986.8986 -320.2894 -275.6712
ENERGY: 600000 1.4585 10.1669 2.4493 0.0000 -10838.4550 1472.0261 0.0000 0.0000 1800.9058 -7551.4484 304.5730 -9352.3542 -7543.3118 300.4787 -21.5927 38.8917 30477.8330 -194.0511 -150.4002
ENERGY: 900000 1.3735 3.7563 3.8152 0.0000 -10851.4961 1534.7134 0.0000 0.0000 1797.1742 -7510.6636 303.9419 -9307.8378 -7534.6645 301.1451 598.5599 644.2059 30723.7162 -43.4275 8.4570
ENERGY: 1200000 2.9239 4.5734 1.7499 0.0000 -10697.2663 1424.2346 0.0000 0.0000 1767.6828 -7496.1018 298.9543 -9263.7845 -7527.0663 300.6814 -15.8216 21.2847 30202.5777 -86.6489 -43.0213
ENERGY: 1500000 0.7489 6.5849 1.4324 0.0000 -10672.2085 1355.1682 0.0000 0.0000 1783.8059 -7524.4682 301.6811 -9308.2741 -7520.4061 301.9830 -802.3222 -732.2069 30692.8276 -180.2823 -129.6514
TCL: Running FEP window   6: Lambda1 0.25   Lambda2 0.3    [dLambda 0.04999999999999999]
TCL: Setting parameter firsttimestep to 0
TCL: Setting parameter alchLambda to 0.25
Info: NONBONDED TABLE R-SQUARED SPACING: 0.0625
Info: NONBONDED TABLE SIZE: 705 POINTS
TCL: Setting parameter alchLambda2 to 0.3
Info: NONBONDED TABLE R-SQUARED SPACING: 0.0625
Info: NONBONDED TABLE SIZE: 705 POINTS
TCL: Running for 1500000 steps
ETITLE: TS BOND ANGLE DIHED IMPRP ELECT VDW BOUNDARY MISC KINETIC TOTAL TEMP POTENTIAL TOTALAVG TEMPAVG PRESSURE GPRESSURE VOLUME PRESSAVG GPRESSAVG
ENERGY: 0 0.7489 6.5849 1.4324 0.0000 -10672.2093 1355.7778 0.0000 0.0000 1782.9107 -7524.7546 301.5296 -9307.6652 -7524.7546 301.5296 -813.4660 -720.8463 30692.8276 -813.4660 -720.8463
ENERGY: 300000 2.3722 5.5469 1.7243 0.0000 -10779.0254 1474.7913 0.0000 0.0000 1811.1523 -7483.4384 306.3059 -9294.5907 -7535.9759 302.1877 183.8625 310.4401 30628.7640 12.9724 108.5207
ENERGY: 600000 1.7427 9.7187 2.8452 0.0000 -10722.3240 1418.3389 0.0000 0.0000 1748.3273 -7541.3512 295.6808 -9289.6784 -7544.0665 300.2139 -181.9239 -79.8336 30476.0442 -171.5129 -82.7076
ENERGY: 900000 1.3094 3.8971 1.6485 0.0000 -10787.4553 1427.2776 0.0000 0.0000 1754.9935 -7598.3292 296.8082 -9353.3227 -7540.4739 301.1242 -188.7361 -178.2115 30244.5978 -260.3687 -184.2369
ENERGY: 1200000 1.2750 5.2777 1.0541 0.0000 -10736.0452 1412.6295 0.0000 0.0000 1797.8470 -7517.9620 304.0557 -9315.8090 -7538.3037 301.6182 -217.4019 -69.9957 30307.0741 -177.4666 -103.4301
ENERGY: 1500000 0.7182 7.4585 1.5215 0.0000 -10708.5341 1412.3676 0.0000 0.0000 1764.8723 -7521.5960 298.4790 -9286.4683 -7532.3674 301.5992 -185.6224 -140.8142 30444.9778 -113.6018 -41.9279
TCL: Running FEP window   7: Lambda1 0.3    Lambda2 0.35   [dLambda 0.04999999999999999]
TCL: Setting parameter firsttimestep to 0
TCL: Setting parameter alchLambda to 0.3
Info: NONBONDED TABLE R-SQUARED SPACING: 0.0625
Info: NONBONDED TABLE SIZE: 705 POINTS
TCL: Setting parameter alchLambda2 to 0.35
Info: NONBONDED TABLE R-SQUARED SPACING: 0.0625
Info: NONBONDED TABLE SIZE: 705 POINTS
TCL: Running for 1500000 steps
ETITLE: TS BOND ANGLE DIHED IMPRP ELECT VDW BOUNDARY MISC KINETIC TOTAL TEMP POTENTIAL TOTALAVG TEMPAVG PRESSURE GPRESSURE VOLUME PRESSAVG GPRESSAVG
ENERGY: 0 0.7182 7.4585 1.5215 0.0000 -10708.5342 1412.9611 0.0000 0.0000 1763.9686 -7521.9063 298.3261 -9285.8749 -7521.9063 298.3261 -205.3443 -132.6006 30444.9778 -205.3443 -132.6006
ENERGY: 300000 1.6960 4.6112 1.4582 0.0000 -10706.1978 1378.2387 0.0000 0.0000 1752.6517 -7567.5421 296.4122 -9320.1937 -7551.7120 296.7536 -473.9776 -460.7633 30111.2861 -211.2604 -177.7648
ENERGY: 600000 0.4382 9.5533 2.4336 0.0000 -10593.8980 1376.4712 0.0000 0.0000 1743.6676 -7461.3342 294.8928 -9205.0018 -7536.7608 297.5090 -655.2169 -515.6895 30902.3603 -154.5842 -96.8048
ENERGY: 900000 0.7732 7.4728 1.5618 0.0000 -10778.8349 1444.0269 0.0000 0.0000 1728.0160 -7596.9841 292.2457 -9325.0001 -7553.5526 297.1720 -198.7310 -96.8890 30712.2196 -74.3708 -26.1144
ENERGY: 1200000 3.1322 7.0591 1.2297 0.0000 -10809.3462 1481.8262 0.0000 0.0000 1743.3711 -7572.7279 294.8426 -9316.0990 -7551.5292 297.4685 245.1038 363.7617 30159.9709 37.7315 95.4171
ENERGY: 1500000 0.9992 6.0449 2.0630 0.0000 -10614.8563 1427.5117 0.0000 0.0000 1757.4772 -7420.7603 297.2283 -9178.2375 -7548.0057 297.7705 -155.7486 -60.6879 31527.0222 -6.1347 54.6956
TCL: Running FEP window   8: Lambda1 0.35   Lambda2 0.39999999999999997 [dLambda 0.04999999999999999]
TCL: Setting parameter firsttimestep to 0
TCL: Setting parameter alchLambda to 0.35
Info: NONBONDED TABLE R-SQUARED SPACING: 0.0625
Info: NONBONDED TABLE SIZE: 705 POINTS
TCL: Setting parameter alchLambda2 to 0.39999999999999997
Info: NONBONDED TABLE R-SQUARED SPACING: 0.0625
Info: NONBONDED TABLE SIZE: 705 POINTS
TCL: Running for 1500000 steps
ETITLE: TS BOND ANGLE DIHED IMPRP ELECT VDW BOUNDARY MISC KINETIC TOTAL TEMP POTENTIAL TOTALAVG TEMPAVG PRESSURE GPRESSURE VOLUME PRESSAVG GPRESSAVG
ENERGY: 0 0.9992 6.0449 2.0630 0.0000 -10614.8559 1427.3088 0.0000 0.0000 1756.5652 -7421.8748 297.0740 -9178.4400 -7421.8748 297.0740 -144.9945 -56.1560 31527.0222 -144.9945 -56.1560
ENERGY: 300000 0.6132 6.3842 1.9697 0.0000 -10935.1479 1539.6682 0.0000 0.0000 1834.9059 -7551.6067 310.3232 -9386.5126 -7546.0985 302.8699 434.7716 474.9030 30565.9181 75.3908 121.5784
ENERGY: 600000 0.9921 3.5818 1.4511 0.0000 -10832.9434 1497.7326 0.0000 0.0000 1772.6541 -7556.5318 299.7950 -9329.1859 -7530.2072 302.4966 616.3889 589.9488 29941.4782 47.2771 89.4351
ENERGY: 900000 0.6954 5.1456 0.7611 0.0000 -10756.4972 1438.2537 0.0000 0.0000 1747.9693 -7563.6721 295.6203 -9311.6415 -7532.0967 302.0665 -101.4942 -122.8292 30618.7523 67.2345 110.7840
ENERGY: 1200000 0.1254 5.4021 1.4266 0.0000 -11038.8073 1668.1790 0.0000 0.0000 1758.7239 -7604.9504 297.4391 -9363.6743 -7537.8712 300.7854 1634.0920 1707.5408 30034.1961 196.0177 242.8585
ENERGY: 1500000 0.2381 4.5418 1.1309 0.0000 -10768.8901 1488.3892 0.0000 0.0000 1744.6156 -7529.9745 295.0531 -9274.5901 -7532.7894 301.2081 70.8646 191.6791 30803.6092 151.1993 209.8364
TCL: Running FEP window   9: Lambda1 0.39999999999999997 Lambda2 0.44999999999999996 [dLambda 0.04999999999999999]
TCL: Setting parameter firsttimestep to 0
TCL: Setting parameter alchLambda to 0.39999999999999997
Info: NONBONDED TABLE R-SQUARED SPACING: 0.0625
Info: NONBONDED TABLE SIZE: 705 POINTS
TCL: Setting parameter alchLambda2 to 0.44999999999999996
Info: NONBONDED TABLE R-SQUARED SPACING: 0.0625
Info: NONBONDED TABLE SIZE: 705 POINTS
TCL: Running for 1500000 steps
ETITLE: TS BOND ANGLE DIHED IMPRP ELECT VDW BOUNDARY MISC KINETIC TOTAL TEMP POTENTIAL TOTALAVG TEMPAVG PRESSURE GPRESSURE VOLUME PRESSAVG GPRESSAVG
ENERGY: 0 0.2381 4.5418 1.1309 0.0000 -10768.8886 1488.4423 0.0000 0.0000 1743.7208 -7530.8148 294.9018 -9274.5355 -7530.8148 294.9018 103.0159 196.2967 30803.6092 103.0159 196.2967
ENERGY: 300000 0.7013 7.0877 0.9964 0.0000 -10799.2882 1454.2939 0.0000 0.0000 1804.5245 -7531.6844 305.1850 -9336.2089 -7511.7287 304.0916 -8.7366 70.0328 30385.5896 -130.2507 -56.8971
ENERGY: 600000 0.6174 12.1939 1.1299 0.0000 -10714.8790 1375.5718 0.0000 0.0000 1740.2302 -7585.1359 294.3114 -9325.3660 -7503.0180 302.5288 -618.0044 -603.3425 30553.7449 -312.6509 -250.8882
ENERGY: 900000 2.6566 6.2956 1.2920 0.0000 -10782.6726 1454.4440 0.0000 0.0000 1730.7482 -7587.2363 292.7078 -9317.9845 -7526.9531 299.2953 -91.7367 -29.9221 30558.7151 -239.2035 -177.5746
ENERGY: 1200000 1.2663 8.5687 1.6274 0.0000 -10721.4757 1438.7394 0.0000 0.0000 1756.5148 -7514.7591 297.0655 -9271.2739 -7522.1194 299.2116 -112.7764 -35.5698 30753.3296 -292.1878 -235.1302
ENERGY: 1500000 1.2429 8.5521 3.9038 0.0000 -10869.7685 1491.3908 0.0000 0.0000 1761.7303 -7602.9485 297.9476 -9364.6789 -7526.4106 299.5872 50.0574 142.2846 30545.8330 -244.1643 -185.1472
TCL: Running FEP window  10: Lambda1 0.44999999999999996 Lambda2 0.49999999999999994 [dLambda 0.04999999999999999]
TCL: Setting parameter firsttimestep to 0
TCL: Setting parameter alchLambda to 0.44999999999999996
Info: NONBONDED TABLE R-SQUARED SPACING: 0.0625
Info: NONBONDED TABLE SIZE: 705 POINTS
TCL: Setting parameter alchLambda2 to 0.49999999999999994
Info: NONBONDED TABLE R-SQUARED SPACING: 0.0625
Info: NONBONDED TABLE SIZE: 705 POINTS
TCL: Running for 1500000 steps
ETITLE: TS BOND ANGLE DIHED IMPRP ELECT VDW BOUNDARY MISC KINETIC TOTAL TEMP POTENTIAL TOTALAVG TEMPAVG PRESSURE GPRESSURE VOLUME PRESSAVG GPRESSAVG
ENERGY: 0 1.2429 8.5521 3.9038 0.0000 -10869.7679 1491.0938 0.0000 0.0000 1760.8452 -7604.1301 297.7979 -9364.9753 -7604.1301 297.7979 63.4080 145.2603 30545.8330 63.4080 145.2603
ENERGY: 300000 0.7800 9.7163 2.0334 0.0000 -10847.9220 1461.4408 0.0000 0.0000 1788.3563 -7585.5953 302.4506 -9373.9516 -7516.3947 301.7738 188.5149 268.9244 29717.0426 -307.5920 -214.7264
ENERGY: 600000 1.1076 8.0359 1.4912 0.0000 -10826.4490 1492.8114 0.0000 0.0000 1822.8345 -7500.1683 308.2816 -9323.0028 -7517.1765 303.5711 357.3215 430.7146 30270.5134 8.9501 97.7546
ENERGY: 900000 2.0302 5.3931 0.8388 0.0000 -10667.1803 1423.8933 0.0000 0.0000 1712.2055 -7522.8194 289.5718 -9235.0249 -7525.3278 301.5060 -208.9719 -110.2163 30665.2612 19.9443 96.8837
ENERGY: 1200000 0.4569 10.7642 1.4130 0.0000 -10691.6456 1427.0715 0.0000 0.0000 1793.0590 -7458.8811 303.2460 -9251.9401 -7527.5467 301.6504 4.1898 35.6034 30762.5187 86.8894 159.4122
ENERGY: 1500000 3.5733 9.3787 2.0851 0.0000 -10757.8048 1487.7772 0.0000 0.0000 1782.0113 -7472.9792 301.3775 -9254.9905 -7521.4772 301.7122 495.8609 576.2279 30291.1897 121.6056 194.3131
TCL: Running FEP window  11: Lambda1 0.49999999999999994 Lambda2 0.5499999999999999 [dLambda 0.04999999999999999]
TCL: Setting parameter firsttimestep to 0
TCL: Setting parameter alchLambda to 0.49999999999999994
Info: NONBONDED TABLE R-SQUARED SPACING: 0.0625
Info: NONBONDED TABLE SIZE: 705 POINTS
TCL: Setting parameter alchLambda2 to 0.5499999999999999
Info: NONBONDED TABLE R-SQUARED SPACING: 0.0625
Info: NONBONDED TABLE SIZE: 705 POINTS
TCL: Running for 1500000 steps
ETITLE: TS BOND ANGLE DIHED IMPRP ELECT VDW BOUNDARY MISC KINETIC TOTAL TEMP POTENTIAL TOTALAVG TEMPAVG PRESSURE GPRESSURE VOLUME PRESSAVG GPRESSAVG
ENERGY: 0 3.5733 9.3787 2.0851 0.0000 -10757.8028 1488.2166 0.0000 0.0000 1781.0922 -7473.4568 301.2221 -9254.5490 -7473.4568 301.2221 500.4179 585.5742 30291.1897 500.4179 585.5742
ENERGY: 300000 0.1745 7.4728 1.7238 0.0000 -10914.0878 1510.9787 0.0000 0.0000 1732.9144 -7660.8236 293.0742 -9393.7380 -7576.9165 296.8138 328.2907 389.9833 30175.9354 54.2430 121.6588
ENERGY: 600000 0.8044 2.9683 1.0682 0.0000 -10726.6473 1425.8529 0.0000 0.0000 1737.2749 -7558.6787 293.8116 -9295.9536 -7555.2600 296.7439 -164.4266 -133.0131 30688.9533 -184.8684 -127.2565
ENERGY: 900000 1.1202 4.2512 0.8790 0.0000 -10757.6021 1469.5771 0.0000 0.0000 1802.9916 -7478.7829 304.9258 -9281.7745 -7537.9218 298.4210 429.5417 511.9552 30230.5163 2.3856 52.3884
ENERGY: 1200000 4.8745 7.0890 2.5289 0.0000 -10819.6954 1481.7505 0.0000 0.0000 1751.5101 -7571.9425 296.2191 -9323.4525 -7540.7645 298.2460 123.4602 158.8165 30131.6191 -2.2511 53.5422
ENERGY: 1500000 0.6774 3.9918 1.3161 0.0000 -10829.8963 1513.6296 0.0000 0.0000 1776.4290 -7533.8524 300.4335 -9310.2815 -7543.4087 298.2193 260.0102 315.3065 30658.7720 34.3629 86.8775
TCL: Running FEP window  12: Lambda1 0.5499999999999999 Lambda2 0.6    [dLambda 0.050000000000000044]
TCL: Setting parameter firsttimestep to 0
TCL: Setting parameter alchLambda to 0.5499999999999999
Info: NONBONDED TABLE R-SQUARED SPACING: 0.0625
Info: NONBONDED TABLE SIZE: 705 POINTS
TCL: Setting parameter alchLambda2 to 0.6
Info: NONBONDED TABLE R-SQUARED SPACING: 0.0625
Info: NONBONDED TABLE SIZE: 705 POINTS
TCL: Running for 1500000 steps
ETITLE: TS BOND ANGLE DIHED IMPRP ELECT VDW BOUNDARY MISC KINETIC TOTAL TEMP POTENTIAL TOTALAVG TEMPAVG PRESSURE GPRESSURE VOLUME PRESSAVG GPRESSAVG
ENERGY: 0 0.6774 3.9918 1.3161 0.0000 -10829.7959 1513.4422 0.0000 0.0000 1775.5497 -7534.8188 300.2847 -9310.3684 -7534.8188 300.2847 231.7416 319.3390 30658.7720 231.7416 319.3390
ENERGY: 300000 1.0568 6.9054 1.3143 0.0000 -10743.8792 1469.7441 0.0000 0.0000 1814.1412 -7450.7174 306.8114 -9264.8586 -7504.3695 302.9662 164.1787 206.0652 30621.0015 79.9683 134.2291
ENERGY: 600000 0.9108 7.7377 1.4901 0.0000 -10613.2179 1396.5617 0.0000 0.0000 1781.2346 -7425.2829 301.2462 -9206.5176 -7480.0916 303.9272 -177.6608 -151.0227 30967.1394 -260.6589 -219.1134
ENERGY: 900000 2.2892 9.5173 2.0536 0.0000 -10712.3893 1383.5568 0.0000 0.0000 1780.2493 -7534.7232 301.0795 -9314.9725 -7492.5051 303.4880 -508.7299 -471.7847 30490.4006 -212.9469 -168.8407
ENERGY: 1200000 0.9766 10.6111 1.9500 0.0000 -10776.7906 1509.3135 0.0000 0.0000 1780.5766 -7473.3627 301.1349 -9253.9393 -7491.5438 304.0903 499.6901 538.2913 30630.6133 -75.2367 -33.0432
ENERGY: 1500000 4.6468 4.6007 1.1201 0.0000 -10907.6193 1521.3656 0.0000 0.0000 1793.0570 -7582.8291 303.2456 -9375.8861 -7508.3012 303.2177 262.6688 358.1779 30491.4994 -159.5839 -113.2904
TCL: Running FEP window  13: Lambda1 0.6    Lambda2 0.65   [dLambda 0.050000000000000044]
TCL: Setting parameter firsttimestep to 0
TCL: Setting parameter alchLambda to 0.6
Info: NONBONDED TABLE R-SQUARED SPACING: 0.0625
Info: NONBONDED TABLE SIZE: 705 POINTS
TCL: Setting parameter alchLambda2 to 0.65
Info: NONBONDED TABLE R-SQUARED SPACING: 0.0625
Info: NONBONDED TABLE SIZE: 705 POINTS
TCL: Running for 1500000 steps
ETITLE: TS BOND ANGLE DIHED IMPRP ELECT VDW BOUNDARY MISC KINETIC TOTAL TEMP POTENTIAL TOTALAVG TEMPAVG PRESSURE GPRESSURE VOLUME PRESSAVG GPRESSAVG
ENERGY: 0 4.6468 4.6007 1.1201 0.0000 -10907.5116 1522.5991 0.0000 0.0000 1792.1085 -7582.4363 303.0852 -9374.5449 -7582.4363 303.0852 294.0034 380.5090 30491.4994 294.0034 380.5090
ENERGY: 300000 0.7603 5.6062 1.1271 0.0000 -10818.7460 1536.9315 0.0000 0.0000 1844.2311 -7430.0898 311.9003 -9274.3209 -7542.5039 301.0829 684.0266 742.7795 30701.2478 182.6499 267.2576
ENERGY: 600000 0.5637 7.2311 1.6782 0.0000 -10916.7230 1513.9908 0.0000 0.0000 1760.4664 -7632.7927 297.7338 -9393.2591 -7547.9453 300.9452 228.0927 307.0554 30547.7748 193.0940 259.8944
ENERGY: 900000 0.8391 5.9659 2.3258 0.0000 -10654.1248 1355.2108 0.0000 0.0000 1795.8762 -7493.9071 303.7224 -9289.7832 -7514.4043 301.9744 -846.7095 -776.5325 30690.3514 46.4032 117.3918
ENERGY: 1200000 2.7478 10.8749 1.0194 0.0000 -10868.0596 1481.6379 0.0000 0.0000 1719.9623 -7651.8173 290.8837 -9371.7796 -7532.2976 300.4295 240.7505 287.7416 30218.6467 -61.3003 10.4987
ENERGY: 1500000 0.8965 4.4332 0.7718 0.0000 -10662.0346 1352.6480 0.0000 0.0000 1743.1337 -7560.1514 294.8025 -9303.2850 -7538.9781 300.0350 -735.1118 -728.2217 30441.2702 -104.5087 -42.0025
TCL: Running FEP window  14: Lambda1 0.65   Lambda2 0.7000000000000001 [dLambda 0.050000000000000044]
TCL: Setting parameter firsttimestep to 0
TCL: Setting parameter alchLambda to 0.65
Info: NONBONDED TABLE R-SQUARED SPACING: 0.0625
Info: NONBONDED TABLE SIZE: 705 POINTS
TCL: Setting parameter alchLambda2 to 0.7000000000000001
Info: NONBONDED TABLE R-SQUARED SPACING: 0.0625
Info: NONBONDED TABLE SIZE: 705 POINTS
TCL: Running for 1500000 steps
ETITLE: TS BOND ANGLE DIHED IMPRP ELECT VDW BOUNDARY MISC KINETIC TOTAL TEMP POTENTIAL TOTALAVG TEMPAVG PRESSURE GPRESSURE VOLUME PRESSAVG GPRESSAVG
ENERGY: 0 0.8966 4.4332 0.7718 0.0000 -10662.1783 1353.7801 0.0000 0.0000 1742.2243 -7560.0723 294.6487 -9302.2966 -7560.0723 294.6487 -797.0339 -709.8863 30441.2702 -797.0339 -709.8863
ENERGY: 300000 0.5580 6.8453 2.7252 0.0000 -10804.4485 1488.8247 0.0000 0.0000 1779.6827 -7525.8127 300.9837 -9305.4953 -7532.9878 299.5084 134.4589 182.0510 30747.3682 -491.4112 -429.6034
ENERGY: 600000 0.0587 3.3897 1.4897 0.0000 -10691.2909 1437.0551 0.0000 0.0000 1752.5223 -7496.7754 296.3903 -9249.2977 -7522.0561 297.4856 80.8358 168.4733 30519.7661 -235.0345 -176.8211
ENERGY: 900000 1.7894 6.6750 1.8771 0.0000 -10677.4138 1386.3785 0.0000 0.0000 1706.0241 -7574.6697 288.5264 -9280.6938 -7522.9122 298.2463 -498.8027 -394.1304 30756.2593 -158.6692 -85.6521
ENERGY: 1200000 0.0610 7.0702 1.4344 0.0000 -10608.2607 1343.3629 0.0000 0.0000 1804.6936 -7451.6385 305.2136 -9256.3322 -7524.9185 299.1782 -666.1966 -565.0257 30670.7274 -175.7955 -98.3055
ENERGY: 1500000 0.3582 8.0859 2.0533 0.0000 -10718.8102 1396.8083 0.0000 0.0000 1767.4232 -7544.0813 298.9104 -9311.5045 -7528.0929 299.1850 -604.1073 -521.6292 30882.2220 -103.3131 -27.3048
TCL: Running FEP window  15: Lambda1 0.7000000000000001 Lambda2 0.7500000000000001 [dLambda 0.050000000000000044]
TCL: Setting parameter firsttimestep to 0
TCL: Setting parameter alchLambda to 0.7000000000000001
Info: NONBONDED TABLE R-SQUARED SPACING: 0.0625
Info: NONBONDED TABLE SIZE: 705 POINTS
TCL: Setting parameter alchLambda2 to 0.7500000000000001
Info: NONBONDED TABLE R-SQUARED SPACING: 0.0625
Info: NONBONDED TABLE SIZE: 705 POINTS
TCL: Running for 1500000 steps
ETITLE: TS BOND ANGLE DIHED IMPRP ELECT VDW BOUNDARY MISC KINETIC TOTAL TEMP POTENTIAL TOTALAVG TEMPAVG PRESSURE GPRESSURE VOLUME PRESSAVG GPRESSAVG
ENERGY: 0 0.3582 8.0859 2.0533 0.0000 -10718.9502 1396.5845 0.0000 0.0000 1766.5096 -7545.3588 298.7559 -9311.8683 -7545.3588 298.7559 -591.6637 -518.2578 30882.2220 -591.6637 -518.2578
ENERGY: 300000 0.9585 5.3341 0.5683 0.0000 -10951.0682 1546.0861 0.0000 0.0000 1790.9346 -7607.1867 302.8867 -9398.1213 -7526.5191 301.1946 530.5406 598.1147 30607.9843 55.4320 113.6290
ENERGY: 600000 0.4050 4.7779 3.2702 0.0000 -10785.4111 1494.5751 0.0000 0.0000 1844.1015 -7438.2815 311.8784 -9282.3830 -7496.4498 301.9246 647.2860 705.9242 30235.3222 205.2922 272.4383
ENERGY: 900000 2.1540 5.7475 1.0920 0.0000 -10647.6611 1419.1303 0.0000 0.0000 1804.4604 -7415.0770 305.1742 -9219.5374 -7504.9938 301.4660 -55.1659 51.2909 30749.5877 143.5332 223.1967
ENERGY: 1200000 1.4800 6.6771 2.1472 0.0000 -10719.8270 1432.6148 0.0000 0.0000 1773.2188 -7503.6890 299.8905 -9276.9078 -7510.1900 300.8713 -326.7711 -244.5644 31150.3539 137.0389 211.1673
ENERGY: 1500000 1.4212 5.7380 2.3558 0.0000 -10861.9952 1434.4713 0.0000 0.0000 1781.8101 -7636.1989 301.3435 -9418.0090 -7515.8753 301.5081 -230.0411 -201.2870 30234.4799 101.0056 171.9150
TCL: Running FEP window  16: Lambda1 0.7500000000000001 Lambda2 0.8000000000000002 [dLambda 0.050000000000000044]
TCL: Setting parameter firsttimestep to 0
TCL: Setting parameter alchLambda to 0.7500000000000001
Info: NONBONDED TABLE R-SQUARED SPACING: 0.0625
Info: NONBONDED TABLE SIZE: 705 POINTS
TCL: Setting parameter alchLambda2 to 0.8000000000000002
Info: NONBONDED TABLE R-SQUARED SPACING: 0.0625
Info: NONBONDED TABLE SIZE: 705 POINTS
TCL: Running for 1500000 steps
ETITLE: TS BOND ANGLE DIHED IMPRP ELECT VDW BOUNDARY MISC KINETIC TOTAL TEMP POTENTIAL TOTALAVG TEMPAVG PRESSURE GPRESSURE VOLUME PRESSAVG GPRESSAVG
ENERGY: 0 1.4212 5.7380 2.3558 0.0000 -10862.4947 1434.7693 0.0000 0.0000 1780.9239 -7637.2866 301.1936 -9418.2105 -7637.2866 301.1936 -270.5959 -191.5540 30234.4799 -270.5959 -191.5540
ENERGY: 300000 1.2753 6.4371 2.9640 0.0000 -10702.3716 1416.9387 0.0000 0.0000 1779.5056 -7495.2508 300.9538 -9274.7564 -7536.6192 303.2570 -272.3246 -212.0105 30833.0373 -137.4155 -65.2818
ENERGY: 600000 1.8319 5.9836 1.2323 0.0000 -10755.5491 1434.5937 0.0000 0.0000 1776.6553 -7535.2523 300.4717 -9311.9076 -7524.5234 303.1865 -33.3473 35.0496 30521.7827 -63.3771 2.3854
ENERGY: 900000 3.0850 6.8393 2.1955 0.0000 -10824.8666 1486.1112 0.0000 0.0000 1819.7198 -7506.9156 307.7549 -9326.6354 -7520.6271 303.2464 216.6998 325.2677 30395.8344 -56.2461 7.2148
ENERGY: 1200000 1.0600 4.2380 1.2386 0.0000 -10879.9218 1507.9455 0.0000 0.0000 1769.9475 -7595.4922 299.3373 -9365.4397 -7533.8691 302.2042 303.2552 425.4587 30552.3131 -68.5431 10.0430
ENERGY: 1500000 1.5914 6.3024 2.2106 0.0000 -10755.4721 1472.3043 0.0000 0.0000 1740.8786 -7532.1849 294.4211 -9273.0634 -7539.5339 301.0096 219.4276 317.4430 30557.1959 -29.1259 43.9497
TCL: Running FEP window  17: Lambda1 0.8000000000000002 Lambda2 0.8500000000000002 [dLambda 0.050000000000000044]
TCL: Setting parameter firsttimestep to 0
TCL: Setting parameter alchLambda to 0.8000000000000002
Info: NONBONDED TABLE R-SQUARED SPACING: 0.0625
Info: NONBONDED TABLE SIZE: 705 POINTS
TCL: Setting parameter alchLambda2 to 0.8500000000000002
Info: NONBONDED TABLE R-SQUARED SPACING: 0.0625
Info: NONBONDED TABLE SIZE: 705 POINTS
TCL: Running for 1500000 steps
ETITLE: TS BOND ANGLE DIHED IMPRP ELECT VDW BOUNDARY MISC KINETIC TOTAL TEMP POTENTIAL TOTALAVG TEMPAVG PRESSURE GPRESSURE VOLUME PRESSAVG GPRESSAVG
ENERGY: 0 1.5914 6.3024 2.2106 0.0000 -10755.5091 1472.1470 0.0000 0.0000 1739.9868 -7533.2709 294.2703 -9273.2577 -7533.2709 294.2703 250.4007 325.2393 30557.1959 250.4007 325.2393
ENERGY: 300000 1.7730 5.1630 0.9327 0.0000 -10882.4275 1587.1547 0.0000 0.0000 1788.0172 -7499.3870 302.3933 -9287.4041 -7509.9914 302.3703 1514.9725 1574.2324 30049.6245 636.3740 716.6372
ENERGY: 600000 0.0267 6.3148 2.1751 0.0000 -10751.7266 1436.0803 0.0000 0.0000 1761.2396 -7545.8901 297.8646 -9307.1297 -7539.2544 301.2930 -16.3718 64.2021 30391.2312 523.5562 592.0827
ENERGY: 900000 1.8680 3.4711 1.6666 0.0000 -10723.0155 1411.2642 0.0000 0.0000 1710.0314 -7594.7143 289.2041 -9304.7457 -7547.1433 299.5474 -390.6800 -312.3451 30697.6939 337.3144 416.2149
ENERGY: 1200000 0.9848 7.8562 1.3960 0.0000 -10837.8957 1508.2169 0.0000 0.0000 1753.7291 -7565.7126 296.5944 -9319.4418 -7532.9695 299.8631 541.1346 604.1321 30351.2057 251.0248 321.9663
ENERGY: 1500000 1.4041 4.2284 1.9222 0.0000 -10835.3830 1453.9857 0.0000 0.0000 1808.7747 -7565.0680 305.9038 -9373.8427 -7535.6975 300.5576 -128.5208 -40.1713 30262.6603 250.8928 322.0172
TCL: Running FEP window  18: Lambda1 0.8500000000000002 Lambda2 0.9000000000000002 [dLambda 0.050000000000000044]
TCL: Setting parameter firsttimestep to 0
TCL: Setting parameter alchLambda to 0.8500000000000002
Info: NONBONDED TABLE R-SQUARED SPACING: 0.0625
Info: NONBONDED TABLE SIZE: 705 POINTS
TCL: Setting parameter alchLambda2 to 0.9000000000000002
Info: NONBONDED TABLE R-SQUARED SPACING: 0.0625
Info: NONBONDED TABLE SIZE: 705 POINTS
TCL: Running for 1500000 steps
ETITLE: TS BOND ANGLE DIHED IMPRP ELECT VDW BOUNDARY MISC KINETIC TOTAL TEMP POTENTIAL TOTALAVG TEMPAVG PRESSURE GPRESSURE VOLUME PRESSAVG GPRESSAVG
ENERGY: 0 1.4041 4.2284 1.9222 0.0000 -10835.7448 1453.9052 0.0000 0.0000 1807.9068 -7566.3782 305.7570 -9374.2849 -7566.3782 305.7570 -112.5496 -32.0361 30262.6603 -112.5496 -32.0361
ENERGY: 300000 0.1305 6.1266 1.9410 0.0000 -10777.3518 1489.1203 0.0000 0.0000 1704.3354 -7575.6981 288.2408 -9280.0335 -7544.0896 297.9611 64.6557 101.8147 31446.1572 20.4326 69.3797
ENERGY: 600000 1.1042 6.2044 2.0537 0.0000 -10671.5129 1327.0052 0.0000 0.0000 1725.0753 -7610.0702 291.7484 -9335.1455 -7544.9260 298.1928 -977.9174 -894.1801 30328.5241 -76.8548 -14.3637
ENERGY: 900000 1.1036 7.4384 2.5747 0.0000 -10812.0874 1500.7052 0.0000 0.0000 1772.4772 -7527.7883 299.7651 -9300.2655 -7534.4899 298.9189 486.3174 545.1823 30229.9270 24.0340 83.9798
ENERGY: 1200000 1.7719 9.0035 0.8501 0.0000 -10723.9548 1443.1563 0.0000 0.0000 1760.0882 -7509.0848 297.6699 -9269.1730 -7544.0388 297.4346 62.1122 154.8382 30704.2864 50.8522 115.7542
ENERGY: 1500000 1.0702 5.6008 1.1271 0.0000 -10726.8046 1458.8317 0.0000 0.0000 1781.7419 -7478.4328 301.3320 -9260.1747 -7532.8446 298.4809 132.9783 249.6889 30702.1010 -30.7219 42.2837
TCL: Running FEP window  19: Lambda1 0.9000000000000002 Lambda2 0.9500000000000003 [dLambda 0.050000000000000044]
TCL: Setting parameter firsttimestep to 0
TCL: Setting parameter alchLambda to 0.9000000000000002
Info: NONBONDED TABLE R-SQUARED SPACING: 0.0625
Info: NONBONDED TABLE SIZE: 705 POINTS
TCL: Setting parameter alchLambda2 to 0.9500000000000003
Info: NONBONDED TABLE R-SQUARED SPACING: 0.0625
Info: NONBONDED TABLE SIZE: 705 POINTS
TCL: Running for 1500000 steps
ETITLE: TS BOND ANGLE DIHED IMPRP ELECT VDW BOUNDARY MISC KINETIC TOTAL TEMP POTENTIAL TOTALAVG TEMPAVG PRESSURE GPRESSURE VOLUME PRESSAVG GPRESSAVG
ENERGY: 0 1.0702 5.6008 1.1271 0.0000 -10727.6102 1459.0812 0.0000 0.0000 1780.8611 -7479.8698 301.1830 -9260.7309 -7479.8698 301.1830 170.5149 258.6677 30702.1010 170.5149 258.6677
ENERGY: 300000 1.5671 4.8840 1.5249 0.0000 -10772.8642 1427.9422 0.0000 0.0000 1729.4054 -7607.5405 292.4807 -9336.9460 -7582.4218 295.2658 -93.3707 -5.5706 30390.8557 -64.7119 18.8921
ENERGY: 600000 1.0351 6.1100 0.9673 0.0000 -10850.4437 1490.0340 0.0000 0.0000 1730.2976 -7621.9996 292.6316 -9352.2973 -7561.3411 297.6104 286.5262 351.6697 30381.8334 -37.7304 31.2985
ENERGY: 900000 1.1240 6.8826 0.8136 0.0000 -10830.3824 1430.2285 0.0000 0.0000 1741.4473 -7649.8864 294.5173 -9391.3337 -7576.1692 296.9949 -384.8074 -270.3177 30666.9302 -62.4546 5.1949
ENERGY: 1200000 2.2633 4.6252 0.7997 0.0000 -10619.6040 1380.3749 0.0000 0.0000 1813.5751 -7417.9658 306.7157 -9231.5409 -7562.6082 298.1568 -438.7157 -413.8593 31083.1814 -165.7418 -98.6184
ENERGY: 1500000 0.8865 7.2231 1.9325 0.0000 -10810.5376 1430.7541 0.0000 0.0000 1755.6505 -7614.0909 296.9193 -9369.7414 -7563.8802 298.9880 -187.3303 -115.0930 30238.6100 -120.9497 -57.7528
TCL: Running FEP window  20: Lambda1 0.9500000000000003 Lambda2 1.0    [dLambda 0.04999999999999971]
TCL: Setting parameter firsttimestep to 0
TCL: Setting parameter alchLambda to 0.9500000000000003
Info: NONBONDED TABLE R-SQUARED SPACING: 0.0625
Info: NONBONDED TABLE SIZE: 705 POINTS
TCL: Setting parameter alchLambda2 to 1.0
Info: NONBONDED TABLE R-SQUARED SPACING: 0.0625
Info: NONBONDED TABLE SIZE: 705 POINTS
TCL: Running for 1500000 steps
ETITLE: TS BOND ANGLE DIHED IMPRP ELECT VDW BOUNDARY MISC KINETIC TOTAL TEMP POTENTIAL TOTALAVG TEMPAVG PRESSURE GPRESSURE VOLUME PRESSAVG GPRESSAVG
ENERGY: 0 0.8865 7.2231 1.9325 0.0000 -10810.8554 1431.2971 0.0000 0.0000 1754.7780 -7614.7382 296.7718 -9369.5162 -7614.7382 296.7718 -187.2964 -98.4041 30238.6100 -187.2964 -98.4041
ENERGY: 300000 0.9096 7.8813 3.2370 0.0000 -10773.1634 1463.0102 0.0000 0.0000 1800.0832 -7498.0421 304.4339 -9298.1253 -7577.6737 297.6464 231.3929 234.1360 30713.1838 -43.9575 13.7281
ENERGY: 600000 0.5343 4.0446 1.9856 0.0000 -10638.2497 1355.6592 0.0000 0.0000 1776.4854 -7499.5407 300.4430 -9276.0261 -7568.0103 297.8486 -859.3705 -738.2650 30994.8342 -211.8103 -141.6780
ENERGY: 900000 2.2787 7.2105 1.6920 0.0000 -10802.5723 1471.8558 0.0000 0.0000 1775.2865 -7544.2490 300.2402 -9319.5354 -7555.4023 299.3679 -26.3139 21.1910 30768.0939 -65.7931 -4.2609
ENERGY: 1200000 2.3677 8.5157 0.9176 0.0000 -10814.3486 1540.3761 0.0000 0.0000 1816.1915 -7445.9799 307.1582 -9262.1714 -7541.9054 299.7206 429.8776 525.1474 31309.7065 -19.8289 45.6126
ENERGY: 1500000 1.0604 5.8221 1.0595 0.0000 -10748.9150 1481.6180 0.0000 0.0000 1766.6767 -7492.6782 298.7841 -9259.3549 -7526.4041 300.5458 434.5385 492.2968 30761.4929 70.7723 142.5202
TCL: Exiting due to exit command.
