Info: SIMULATION PARAMETERS:
Info: TIMESTEP               2
Info: NUMBER OF STEPS        0
Info: STEPS PER CYCLE        10
Info: PERIODIC CELL BASIS 1  30.9927 0 0
Info: PERIODIC CELL BASIS 2  0 30.3495 0
Info: PERIODIC CELL BASIS 3  0 0 32.9495
Info: PERIODIC CELL CENTER   0 0 0
Info: WRAPPING WATERS AROUND PERIODIC BOUNDARIES ON OUTPUT.
Info: WRAPPING ALL CLUSTERS AROUND PERIODIC BOUNDARIES ON OUTPUT.
Info: FIRST LDB TIMESTEP     50
Info: LAST LDB TIMESTEP     -1
Info: HOM BACKGROUND SCALING 1
Info: PME BACKGROUND SCALING 1
Info: MIN ATOMS PER PATCH    40
Info: EMPTY PATCH LOAD       40 ATOMS
Info: VELOCITY FILE          mobley_6812653_equil.vel
Info: CENTER OF MASS MOVING INITIALLY? NO
Info: DIELECTRIC             1
Info: EXCLUDE                SCALED ONE-FOUR
Info: 1-4 ELECTROSTATICS SCALED BY 0.833333
Info: MODIFIED 1-4 VDW PARAMETERS WILL BE USED
Info: DCD FILENAME           mobley_6812653_prod.dcd
Info: DCD FREQUENCY          100000
Info: DCD FIRST STEP         100000
Info: DCD FILE WILL CONTAIN UNIT CELL DATA
Info: XST FILENAME           mobley_6812653_prod.xst
Info: XST FREQUENCY          100000
Info: NO VELOCITY DCD OUTPUT
Info: NO FORCE DCD OUTPUT
Info: OUTPUT FILENAME        mobley_6812653_prod
Info: BINARY OUTPUT FILES WILL BE USED
Info: RESTART FILENAME       mobley_6812653_prod.restart
Info: RESTART FREQUENCY      100000
Info: BINARY RESTART FILES WILL BE USED
Info: CUTOFF                 9
Info: PAIRLIST DISTANCE      11
Info: PAIRLIST SHRINK RATE   0.01
Info: PAIRLIST GROW RATE     0.01
Info: PAIRLIST TRIGGER       0.3
Info: PAIRLISTS PER CYCLE    2
Info: PAIRLISTS ENABLED
Info: MARGIN                 2
Info: HYDROGEN GROUP CUTOFF  2.5
Info: PATCH DIMENSION        15.5
Info: ENERGY OUTPUT STEPS    100000
Info: ENERGY EVALUATION STEPS    100000
Info: OUTPUT ENERGY PRECISION 4
Info: CROSSTERM ENERGY INCLUDED IN DIHEDRAL
Info: TIMING OUTPUT STEPS    1000000
Info: PRESSURE OUTPUT STEPS  100000
Info: ALCHEMICAL FEP ON
Info: FEP CURRENT LAMBDA VALUE     0
Info: FEP COMPARISON LAMBDA VALUE  0.05
Info: FEP INTRA-ALCHEMICAL NON-BONDED INTERACTIONS WILL BE RETAINED
Info: FEP INTRA-ALCHEMICAL BONDED INTERACTIONS WILL BE RETAINED
Info: FEP VDW SHIFTING COEFFICIENT 5
Info: FEP ELEC. ACTIVE FOR ANNIHILATED PARTICLES BETWEEN LAMBDA = 0 AND LAMBDA = 0.5
Info: FEP ELEC. ACTIVE FOR EXNIHILATED PARTICLES BETWEEN LAMBDA = 0.5 AND LAMBDA = 1
Info: FEP VDW ACTIVE FOR ANNIHILATED PARTICLES BETWEEN LAMBDA = 0 AND LAMBDA = 1
Info: FEP VDW ACTIVE FOR EXNIHILATED PARTICLES BETWEEN LAMBDA = 0 AND LAMBDA = 1
Info: FEP BOND ACTIVE FOR ANNIHILATED PARTICLES BETWEEN LAMBDA = 1 AND LAMBDA = 1
Info: FEP BOND ACTIVE FOR EXNIHILATED PARTICLES BETWEEN LAMBDA = 0 AND LAMBDA = 0
Info: LANGEVIN DYNAMICS ACTIVE
Info: LANGEVIN TEMPERATURE   300
Info: LANGEVIN USING BBK INTEGRATOR
Info: LANGEVIN DAMPING COEFFICIENT IS 1 INVERSE PS
Info: LANGEVIN DYNAMICS APPLIED TO HYDROGENS
Info: LANGEVIN PISTON PRESSURE CONTROL ACTIVE
Info:        TARGET PRESSURE IS 1.01325 BAR
Info:     OSCILLATION PERIOD IS 50 FS
Info:             DECAY TIME IS 25 FS
Info:     PISTON TEMPERATURE IS 300 K
Info:       PRESSURE CONTROL IS GROUP-BASED
Info:    INITIAL STRAIN RATE IS 0.000208915 0.000208915 0.000208915
Info:       CELL FLUCTUATION IS ISOTROPIC
Info: PARTICLE MESH EWALD (PME) ACTIVE
Info: PME TOLERANCE               1e-06
Info: PME EWALD COEFFICIENT       0.348832
Info: PME INTERPOLATION ORDER     4
Info: PME GRID DIMENSIONS         32 32 36
Info: PME MAXIMUM GRID SPACING    1
Info: PME CALCULATION WILL BE PERFORMED ON GPU
Info: FULL ELECTROSTATIC EVALUATION FREQUENCY      2
Info: USING VERLET I (r-RESPA) MTS SCHEME.
Info: C1 SPLITTING OF LONG RANGE ELECTROSTATICS
Info: PLACING ATOMS IN PATCHES BY HYDROGEN GROUPS
Info: RIGID BONDS TO HYDROGEN : ALL
Info:         ERROR TOLERANCE : 1e-08
Info:          MAX ITERATIONS : 100
Info: RIGID WATER USING SETTLE ALGORITHM
Info: RANDOM NUMBER SEED     1743930715
Info: USE HYDROGEN BONDS?    NO
Info: Using AMBER format force field!
Info: AMBER PARM FILE        mobley_6812653.prmtop
Info: COORDINATE PDB         mobley_6812653.pdb
Info: Exclusions will be read from PARM file!
Info: SCNB (VDW SCALING)     2
Info: USING ARITHMETIC MEAN TO COMBINE L-J SIGMA PARAMETERS
Info: BINARY COORDINATES     mobley_6812653_equil.coor
Info: SUMMARY OF PARAMETERS:
Info: 4 BONDS
Info: 3 ANGLES
Info:   3 HARMONIC
Info:   0 COSINE-BASED
Info: 5 DIHEDRAL
Info: 0 IMPROPER
Info: 0 CROSSTERM
Info: 0 VDW
Info: 10 VDW_PAIRS
Info: 0 NBTHOLE_PAIRS
Info: To read alchdata from file: mobley_6812653.pdb
Info: To read alchflag data from column: 5
Info: STRUCTURE SUMMARY:
Info: 2987 ATOMS
Info: 2986 BONDS
Info: 36 ANGLES
Info: 51 DIHEDRALS
Info: 0 IMPROPERS
Info: 0 CROSSTERMS
Info: 3067 EXCLUSIONS
Info: 2981 RIGID BONDS
Info: ALCH: 0 ATOMS TO DISAPPEAR IN FINAL STATE
Info: ALCH: 20 ATOMS TO APPEAR IN FINAL STATE
Info: 5980 DEGREES OF FREEDOM
Info: 995 HYDROGEN GROUPS
Info: 4 ATOMS IN LARGEST HYDROGEN GROUP
Info: 995 MIGRATION GROUPS
Info: 4 ATOMS IN LARGEST MIGRATION GROUP
Info: TOTAL MASS = 17904 amu
Info: TOTAL CHARGE = 0.000399999 e
Info: MASS DENSITY = 0.959289 g/cm^3
Info: ATOM DENSITY = 0.0963775 atoms/A^3
Info: ADDED 0 IMPLICIT EXCLUSIONS
Info: NONBONDED TABLE R-SQUARED SPACING: 0.0625
Info: NONBONDED TABLE SIZE: 705 POINTS
Info: REMOVING COM VELOCITY 0.136749 -0.0529881 -0.22169
Info: Use 3D box decompostion in PME FFT.
Info: Updated CUDA force table with 4096 elements.
Info: Updated CUDA LJ table with 4 x 4 elements.
Info: Found 23 unique exclusion lists needing 64 bytes
TCL: Running for 1500000 steps
ETITLE: TS BOND ANGLE DIHED IMPRP ELECT VDW BOUNDARY MISC KINETIC TOTAL TEMP POTENTIAL TOTALAVG TEMPAVG PRESSURE GPRESSURE VOLUME PRESSAVG GPRESSAVG
ENERGY: 0 0.5532 7.6877 2.0538 0.0000 -10793.1527 1400.7776 0.0000 0.0000 1742.0670 -7640.0135 293.1933 -9382.0805 -7640.0135 293.1933 -767.8510 -693.2852 30992.7249 -767.8510 -693.2852
ENERGY: 300000 1.3191 4.6611 2.8870 0.0000 -10956.7253 1627.3524 0.0000 0.0000 1773.2864 -7547.2194 298.4476 -9320.5058 -7568.2354 299.1757 1481.1402 1520.7200 30246.1742 450.1384 524.6489
ENERGY: 600000 4.3081 9.4297 2.6590 0.0000 -10842.4898 1447.3073 0.0000 0.0000 1724.9049 -7653.8808 290.3049 -9378.7857 -7572.5559 299.6868 -228.9934 -197.5395 30403.7756 222.8422 279.7190
ENERGY: 900000 1.5248 8.2655 2.2937 0.0000 -10782.7235 1474.5204 0.0000 0.0000 1767.6282 -7528.4909 297.4953 -9296.1190 -7571.7429 298.9145 348.2675 380.7985 30339.9138 192.5394 254.4323
ENERGY: 1200000 1.9022 11.5419 2.7706 0.0000 -10817.9194 1460.2742 0.0000 0.0000 1787.0522 -7554.3781 300.7644 -9341.4304 -7565.3623 299.4772 22.0398 146.4962 30314.0765 124.9437 190.7290
ENERGY: 1500000 2.2605 9.7173 3.1843 0.0000 -10711.8274 1413.9279 0.0000 0.0000 1815.7602 -7466.9771 305.5960 -9282.7373 -7564.0275 299.2658 -264.7709 -237.0001 30568.0546 1.4059 63.5460
TCL: Running FEP window   2: Lambda1 0.05   Lambda2 0.1    [dLambda 0.05  ]
TCL: Setting parameter firsttimestep to 0
TCL: Setting parameter alchLambda to 0.05
Info: NONBONDED TABLE R-SQUARED SPACING: 0.0625
Info: NONBONDED TABLE SIZE: 705 POINTS
TCL: Setting parameter alchLambda2 to 0.1
Info: NONBONDED TABLE R-SQUARED SPACING: 0.0625
Info: NONBONDED TABLE SIZE: 705 POINTS
TCL: Running for 1500000 steps
ETITLE: TS BOND ANGLE DIHED IMPRP ELECT VDW BOUNDARY MISC KINETIC TOTAL TEMP POTENTIAL TOTALAVG TEMPAVG PRESSURE GPRESSURE VOLUME PRESSAVG GPRESSAVG
ENERGY: 0 2.2605 9.7173 3.1843 0.0000 -10711.8294 1415.7506 0.0000 0.0000 1814.8737 -7466.0429 305.4468 -9280.9167 -7466.0429 305.4468 -301.9770 -228.9250 30568.0546 -301.9770 -228.9250
ENERGY: 300000 0.8744 6.8212 2.2956 0.0000 -10663.2882 1423.4267 0.0000 0.0000 1763.7859 -7466.0843 296.8486 -9229.8702 -7506.8944 298.8865 -165.4862 -126.1975 30784.9246 -171.4553 -87.9979
ENERGY: 600000 4.4906 9.9095 2.0144 0.0000 -10698.1547 1421.5978 0.0000 0.0000 1820.7762 -7439.3662 306.4402 -9260.1424 -7496.8473 299.6955 -130.0855 -73.0421 30385.5318 -161.9304 -99.2271
ENERGY: 900000 0.4394 9.5389 1.7808 0.0000 -10845.9004 1470.9450 0.0000 0.0000 1773.1081 -7590.0882 298.4176 -9363.1963 -7520.1147 300.0287 -426.4875 -329.0729 31356.7128 -199.9381 -131.7949
ENERGY: 1200000 1.4837 6.8285 1.9733 0.0000 -10733.3925 1437.3354 0.0000 0.0000 1771.0530 -7514.7186 298.0717 -9285.7716 -7521.8678 299.6218 -43.7338 16.3141 30552.0764 -155.1405 -90.5136
ENERGY: 1500000 2.5480 7.1230 1.8630 0.0000 -10745.6632 1443.5269 0.0000 0.0000 1826.4383 -7464.1640 307.3932 -9290.6023 -7521.7498 300.0253 100.6232 186.2936 30354.8718 -152.8698 -87.4989
TCL: Running FEP window   3: Lambda1 0.1    Lambda2 0.15000000000000002 [dLambda 0.05000000000000002]
TCL: Setting parameter firsttimestep to 0
TCL: Setting parameter alchLambda to 0.1
Info: NONBONDED TABLE R-SQUARED SPACING: 0.0625
Info: NONBONDED TABLE SIZE: 705 POINTS
TCL: Setting parameter alchLambda2 to 0.15000000000000002
Info: NONBONDED TABLE R-SQUARED SPACING: 0.0625
Info: NONBONDED TABLE SIZE: 705 POINTS
TCL: Running for 1500000 steps
ETITLE: TS BOND ANGLE DIHED IMPRP ELECT VDW BOUNDARY MISC KINETIC TOTAL TEMP POTENTIAL TOTALAVG TEMPAVG PRESSURE GPRESSURE VOLUME PRESSAVG GPRESSAVG
ENERGY: 0 2.5480 7.1230 1.8630 0.0000 -10745.6638 1447.5621 0.0000 0.0000 1825.5207 -7461.0469 307.2387 -9286.5677 -7461.0469 307.2387 117.1330 196.4358 30354.8718 117.1330 196.4358
ENERGY: 300000 0.8267 11.4041 1.9786 0.0000 -10775.7465 1439.9389 0.0000 0.0000 1757.5247 -7564.0736 295.7949 -9321.5983 -7481.9132 303.4569 100.4551 226.2541 30111.9031 62.1543 163.7122
ENERGY: 600000 0.3413 7.1682 2.6559 0.0000 -10823.7011 1521.3014 0.0000 0.0000 1818.8473 -7473.3871 306.1156 -9292.2343 -7505.2406 302.4087 946.1232 952.5213 30342.4464 346.9645 419.3136
ENERGY: 900000 1.5025 9.9150 2.2303 0.0000 -10782.7502 1453.9461 0.0000 0.0000 1756.6537 -7558.5026 295.6483 -9315.1563 -7524.3327 299.7937 -130.2947 -96.8100 30847.2966 169.2527 238.7927
ENERGY: 1200000 1.4127 10.3022 4.0343 0.0000 -10906.3148 1532.7275 0.0000 0.0000 1799.0738 -7558.7643 302.7877 -9357.8381 -7526.8237 299.9675 230.2193 334.4078 30741.9635 -10.3108 63.5750
ENERGY: 1500000 1.6918 10.5395 1.6584 0.0000 -10689.3294 1424.0338 0.0000 0.0000 1772.8754 -7478.5304 298.3784 -9251.4058 -7526.6919 299.9570 -120.8276 -41.0492 30608.3123 -16.0965 56.8517
TCL: Running FEP window   4: Lambda1 0.15000000000000002 Lambda2 0.2    [dLambda 0.04999999999999999]
TCL: Setting parameter firsttimestep to 0
TCL: Setting parameter alchLambda to 0.15000000000000002
Info: NONBONDED TABLE R-SQUARED SPACING: 0.0625
Info: NONBONDED TABLE SIZE: 705 POINTS
TCL: Setting parameter alchLambda2 to 0.2
Info: NONBONDED TABLE R-SQUARED SPACING: 0.0625
Info: NONBONDED TABLE SIZE: 705 POINTS
TCL: Running for 1500000 steps
ETITLE: TS BOND ANGLE DIHED IMPRP ELECT VDW BOUNDARY MISC KINETIC TOTAL TEMP POTENTIAL TOTALAVG TEMPAVG PRESSURE GPRESSURE VOLUME PRESSAVG GPRESSAVG
ENERGY: 0 1.6918 10.5395 1.6584 0.0000 -10689.3280 1424.0556 0.0000 0.0000 1771.9876 -7479.3950 298.2290 -9251.3826 -7479.3950 298.2290 -128.3980 -37.4737 30608.3123 -128.3980 -37.4737
ENERGY: 300000 1.5637 8.9274 3.2353 0.0000 -10887.1714 1532.4201 0.0000 0.0000 1773.5759 -7567.4492 298.4963 -9341.0250 -7545.5359 298.5797 497.1346 584.5596 30388.5687 -88.1397 -18.0537
ENERGY: 600000 1.8638 9.3547 2.1438 0.0000 -10864.2524 1440.0059 0.0000 0.0000 1744.8711 -7666.0131 293.6652 -9410.8842 -7582.9782 295.8055 -95.0981 24.7094 29920.3354 105.2296 167.3197
ENERGY: 900000 0.4595 6.7946 1.8158 0.0000 -10929.2566 1516.1460 0.0000 0.0000 1710.0830 -7693.9578 287.8103 -9404.0408 -7579.2915 295.9411 120.2337 140.1795 30738.2084 -1.1929 57.0540
ENERGY: 1200000 0.5965 9.9774 1.6340 0.0000 -10842.8166 1434.1131 0.0000 0.0000 1777.9183 -7618.5773 299.2272 -9396.4956 -7577.2479 296.8617 -156.2090 -141.8494 30281.9384 -128.8917 -70.2287
ENERGY: 1500000 2.8369 7.2983 3.2979 0.0000 -10655.4563 1333.2906 0.0000 0.0000 1759.5599 -7549.1726 296.1374 -9308.7325 -7573.1941 297.3478 -893.6305 -791.2491 30483.5873 -82.0031 -25.4853
TCL: Running FEP window   5: Lambda1 0.2    Lambda2 0.25   [dLambda 0.04999999999999999]
TCL: Setting parameter firsttimestep to 0
TCL: Setting parameter alchLambda to 0.2
Info: NONBONDED TABLE R-SQUARED SPACING: 0.0625
Info: NONBONDED TABLE SIZE: 705 POINTS
TCL: Setting parameter alchLambda2 to 0.25
Info: NONBONDED TABLE R-SQUARED SPACING: 0.0625
Info: NONBONDED TABLE SIZE: 705 POINTS
TCL: Running for 1500000 steps
ETITLE: TS BOND ANGLE DIHED IMPRP ELECT VDW BOUNDARY MISC KINETIC TOTAL TEMP POTENTIAL TOTALAVG TEMPAVG PRESSURE GPRESSURE VOLUME PRESSAVG GPRESSAVG
ENERGY: 0 2.8369 7.2983 3.2979 0.0000 -10655.4573 1334.6425 0.0000 0.0000 1758.6854 -7548.6963 295.9902 -9307.3817 -7548.6963 295.9902 -863.2432 -782.2662 30483.5873 -863.2432 -782.2662
ENERGY: 300000 1.9594 10.1612 3.1692 0.0000 -10568.9524 1311.3246 0.0000 0.0000 1870.1342 -7372.2038 314.7473 -9242.3381 -7486.5157 301.1597 -1324.5841 -1253.7441 31847.1736 -846.8857 -799.4971
ENERGY: 600000 0.7000 7.2956 2.6885 0.0000 -10779.2905 1483.9784 0.0000 0.0000 1782.2655 -7502.3625 299.9588 -9284.6280 -7501.1322 301.4428 -144.9427 -54.6846 31311.5901 -496.2927 -434.7126
ENERGY: 900000 2.9807 9.5207 3.5586 0.0000 -10828.6570 1482.5029 0.0000 0.0000 1816.0957 -7513.9984 305.6525 -9330.0940 -7509.2834 302.6048 174.3535 235.7633 30408.1158 -230.3996 -179.2410
ENERGY: 1200000 3.0538 9.5085 2.6179 0.0000 -10835.7178 1470.2340 0.0000 0.0000 1740.4395 -7609.8642 292.9194 -9350.3037 -7537.2892 301.2133 -1.0986 17.7205 30630.6964 -283.1463 -233.0478
ENERGY: 1500000 2.8389 7.7308 3.1974 0.0000 -10811.3549 1499.7334 0.0000 0.0000 1754.5108 -7543.3436 295.2876 -9297.8544 -7536.4426 300.5920 448.1015 582.2222 30197.1367 -216.1979 -157.0344
TCL: Running FEP window   6: Lambda1 0.25   Lambda2 0.3    [dLambda 0.04999999999999999]
TCL: Setting parameter firsttimestep to 0
TCL: Setting parameter alchLambda to 0.25
Info: NONBONDED TABLE R-SQUARED SPACING: 0.0625
Info: NONBONDED TABLE SIZE: 705 POINTS
TCL: Setting parameter alchLambda2 to 0.3
Info: NONBONDED TABLE R-SQUARED SPACING: 0.0625
Info: NONBONDED TABLE SIZE: 705 POINTS
TCL: Running for 1500000 steps
ETITLE: TS BOND ANGLE DIHED IMPRP ELECT VDW BOUNDARY MISC KINETIC TOTAL TEMP POTENTIAL TOTALAVG TEMPAVG PRESSURE GPRESSURE VOLUME PRESSAVG GPRESSAVG
ENERGY: 0 2.8389 7.7308 3.1974 0.0000 -10811.3543 1500.5128 0.0000 0.0000 1753.6290 -7543.4454 295.1392 -9297.0743 -7543.4454 295.1392 495.9659 587.7625 30197.1367 495.9659 587.7625
ENERGY: 300000 1.4721 9.0554 4.8684 0.0000 -10687.1782 1418.9577 0.0000 0.0000 1816.2910 -7436.5336 305.6854 -9252.8246 -7497.7291 301.6826 52.3313 108.0664 30545.8080 -136.8164 -55.5627
ENERGY: 600000 0.6356 7.5576 2.0435 0.0000 -10804.8102 1412.7660 0.0000 0.0000 1771.3452 -7610.4622 298.1209 -9381.8075 -7550.4426 298.9764 -385.8284 -329.3870 30441.0230 -214.8841 -141.3965
ENERGY: 900000 1.9928 8.9286 1.8472 0.0000 -10898.4599 1543.0405 0.0000 0.0000 1721.5228 -7621.1280 289.7357 -9342.6508 -7560.0116 298.5252 450.1470 446.8850 30776.1158 -163.5099 -98.4925
ENERGY: 1200000 1.6340 8.7617 2.7149 0.0000 -10826.3268 1513.5984 0.0000 0.0000 1798.7075 -7500.9104 302.7260 -9299.6179 -7555.0218 299.0981 769.8549 826.1662 30071.2810 -70.8925 -8.3266
ENERGY: 1500000 3.4888 5.1052 1.8727 0.0000 -10912.0491 1550.7913 0.0000 0.0000 1807.0843 -7543.7067 304.1358 -9350.7909 -7549.9846 299.8946 615.4376 717.1512 30516.8364 -89.9071 -22.4373
TCL: Running FEP window   7: Lambda1 0.3    Lambda2 0.35   [dLambda 0.04999999999999999]
TCL: Setting parameter firsttimestep to 0
TCL: Setting parameter alchLambda to 0.3
Info: NONBONDED TABLE R-SQUARED SPACING: 0.0625
Info: NONBONDED TABLE SIZE: 705 POINTS
TCL: Setting parameter alchLambda2 to 0.35
Info: NONBONDED TABLE R-SQUARED SPACING: 0.0625
Info: NONBONDED TABLE SIZE: 705 POINTS
TCL: Running for 1500000 steps
ETITLE: TS BOND ANGLE DIHED IMPRP ELECT VDW BOUNDARY MISC KINETIC TOTAL TEMP POTENTIAL TOTALAVG TEMPAVG PRESSURE GPRESSURE VOLUME PRESSAVG GPRESSAVG
ENERGY: 0 3.4888 5.1052 1.8727 0.0000 -10912.0488 1551.3310 0.0000 0.0000 1806.1991 -7544.0519 303.9869 -9350.2510 -7544.0519 303.9869 646.2225 725.5437 30516.8364 646.2225 725.5437
ENERGY: 300000 1.1146 8.0370 3.0709 0.0000 -10711.1830 1417.7474 0.0000 0.0000 1786.7541 -7494.4590 300.7142 -9281.2131 -7524.7226 301.5282 3.8328 17.5668 30524.0742 251.4959 315.7415
ENERGY: 600000 2.7638 12.1008 1.8960 0.0000 -10782.3388 1469.4405 0.0000 0.0000 1744.3589 -7551.7788 293.5790 -9296.1378 -7516.4555 300.3268 194.7788 248.9304 30411.6976 147.7930 206.6131
ENERGY: 900000 1.1253 9.3503 4.4137 0.0000 -10824.2269 1476.1182 0.0000 0.0000 1767.9995 -7565.2199 297.5578 -9333.2194 -7519.3868 300.0206 206.1703 216.0550 30546.0289 204.9340 253.2716
ENERGY: 1200000 0.6895 11.6923 4.3689 0.0000 -10660.8714 1438.5885 0.0000 0.0000 1786.8508 -7418.6815 300.7305 -9205.5323 -7524.5585 300.3611 207.5280 223.5273 30809.1332 210.0950 252.6367
ENERGY: 1500000 1.5267 9.3708 4.4508 0.0000 -10875.9977 1466.6758 0.0000 0.0000 1773.4572 -7620.5164 298.4763 -9393.9736 -7526.7925 300.5958 -17.0458 54.3441 30480.9609 179.8063 229.7753
TCL: Running FEP window   8: Lambda1 0.35   Lambda2 0.39999999999999997 [dLambda 0.04999999999999999]
TCL: Setting parameter firsttimestep to 0
TCL: Setting parameter alchLambda to 0.35
Info: NONBONDED TABLE R-SQUARED SPACING: 0.0625
Info: NONBONDED TABLE SIZE: 705 POINTS
TCL: Setting parameter alchLambda2 to 0.39999999999999997
Info: NONBONDED TABLE R-SQUARED SPACING: 0.0625
Info: NONBONDED TABLE SIZE: 705 POINTS
TCL: Running for 1500000 steps
ETITLE: TS BOND ANGLE DIHED IMPRP ELECT VDW BOUNDARY MISC KINETIC TOTAL TEMP POTENTIAL TOTALAVG TEMPAVG PRESSURE GPRESSURE VOLUME PRESSAVG GPRESSAVG
ENERGY: 0 1.5267 9.3708 4.4508 0.0000 -10875.9971 1466.6037 0.0000 0.0000 1772.5816 -7621.4634 298.3290 -9394.0450 -7621.4634 298.3290 -30.9846 57.4694 30480.9609 -30.9846 57.4694
ENERGY: 300000 2.7863 11.8267 2.1822 0.0000 -10991.1839 1609.6729 0.0000 0.0000 1803.0069 -7561.7089 303.4496 -9364.7158 -7605.8704 298.5685 1457.5253 1470.0734 30040.9626 327.6344 394.0433
ENERGY: 600000 0.3107 8.1141 2.3747 0.0000 -10739.5339 1434.8006 0.0000 0.0000 1807.2177 -7486.7160 304.1583 -9293.9337 -7563.2949 300.4389 -102.0048 8.5263 30731.6159 112.4958 187.0894
ENERGY: 900000 1.2109 7.5198 2.2319 0.0000 -10748.2380 1418.0808 0.0000 0.0000 1774.7596 -7544.4349 298.6955 -9319.1945 -7559.5596 300.1233 -452.2089 -370.0372 30803.5997 -21.1613 53.2152
ENERGY: 1200000 2.1204 10.0545 4.2512 0.0000 -10805.8572 1493.5276 0.0000 0.0000 1844.5710 -7451.3325 310.4449 -9295.9035 -7548.7255 301.3835 137.7008 222.2314 31188.9142 23.8284 92.4788
ENERGY: 1500000 1.2414 7.3075 4.5210 0.0000 -10765.4966 1430.6619 0.0000 0.0000 1776.7207 -7545.0441 299.0256 -9321.7648 -7552.8341 301.3813 -242.2433 -223.0516 30676.8533 1.1109 60.6973
TCL: Running FEP window   9: Lambda1 0.39999999999999997 Lambda2 0.44999999999999996 [dLambda 0.04999999999999999]
TCL: Setting parameter firsttimestep to 0
TCL: Setting parameter alchLambda to 0.39999999999999997
Info: NONBONDED TABLE R-SQUARED SPACING: 0.0625
Info: NONBONDED TABLE SIZE: 705 POINTS
TCL: Setting parameter alchLambda2 to 0.44999999999999996
Info: NONBONDED TABLE R-SQUARED SPACING: 0.0625
Info: NONBONDED TABLE SIZE: 705 POINTS
TCL: Running for 1500000 steps
ETITLE: TS BOND ANGLE DIHED IMPRP ELECT VDW BOUNDARY MISC KINETIC TOTAL TEMP POTENTIAL TOTALAVG TEMPAVG PRESSURE GPRESSURE VOLUME PRESSAVG GPRESSAVG
ENERGY: 0 1.2414 7.3075 4.5210 0.0000 -10765.4968 1433.4790 0.0000 0.0000 1775.8227 -7543.1252 298.8745 -9318.9479 -7543.1252 298.8745 -272.2275 -199.9831 30676.8533 -272.2275 -199.9831
ENERGY: 300000 1.7376 10.2218 3.9210 0.0000 -10740.7742 1445.6964 0.0000 0.0000 1785.2563 -7493.9410 300.4622 -9279.1974 -7514.5797 301.7640 -147.7854 -102.2882 30912.2266 -4.9104 65.5174
ENERGY: 600000 2.4429 11.2651 3.0028 0.0000 -10751.5689 1444.5288 0.0000 0.0000 1753.2049 -7537.1244 295.0678 -9290.3293 -7527.8411 300.5509 168.9259 181.3981 30712.4953 -10.7225 39.8779
ENERGY: 900000 1.6791 10.0944 2.7387 0.0000 -10842.0365 1507.7674 0.0000 0.0000 1859.8469 -7459.9100 313.0159 -9319.7569 -7533.8931 301.3372 657.6107 702.4720 30182.3427 -38.7690 23.4668
ENERGY: 1200000 3.1624 13.7801 2.8990 0.0000 -10731.2783 1395.8681 0.0000 0.0000 1793.0860 -7522.4827 301.7799 -9315.5687 -7548.4092 301.2219 -553.8756 -514.8645 30871.9815 -79.2501 -16.1588
ENERGY: 1500000 2.2513 11.7316 3.6798 0.0000 -10858.0077 1469.9332 0.0000 0.0000 1752.2952 -7618.1166 294.9147 -9370.4119 -7550.0805 300.1713 -213.1919 -123.8030 30976.4605 -136.9305 -73.8144
TCL: Running FEP window  10: Lambda1 0.44999999999999996 Lambda2 0.49999999999999994 [dLambda 0.04999999999999999]
TCL: Setting parameter firsttimestep to 0
TCL: Setting parameter alchLambda to 0.44999999999999996
Info: NONBONDED TABLE R-SQUARED SPACING: 0.0625
Info: NONBONDED TABLE SIZE: 705 POINTS
TCL: Setting parameter alchLambda2 to 0.49999999999999994
Info: NONBONDED TABLE R-SQUARED SPACING: 0.0625
Info: NONBONDED TABLE SIZE: 705 POINTS
TCL: Running for 1500000 steps
ETITLE: TS BOND ANGLE DIHED IMPRP ELECT VDW BOUNDARY MISC KINETIC TOTAL TEMP POTENTIAL TOTALAVG TEMPAVG PRESSURE GPRESSURE VOLUME PRESSAVG GPRESSAVG
ENERGY: 0 2.2513 11.7316 3.6798 0.0000 -10858.0102 1469.3773 0.0000 0.0000 1751.3740 -7619.5963 294.7597 -9370.9703 -7619.5963 294.7597 -212.8601 -125.9219 30976.4605 -212.8601 -125.9219
ENERGY: 300000 0.2016 8.4275 1.7229 0.0000 -10706.8685 1385.0979 0.0000 0.0000 1783.0954 -7528.3232 300.0985 -9311.4186 -7567.5974 299.4891 -510.3362 -439.8069 30818.5263 -151.7749 -93.5795
ENERGY: 600000 2.2632 7.5690 3.7196 0.0000 -10665.6913 1355.5455 0.0000 0.0000 1825.2463 -7471.3477 307.1925 -9296.5940 -7552.5129 300.2243 -665.6769 -601.0265 30827.2451 -199.2117 -140.3909
ENERGY: 900000 2.6970 6.9658 4.0829 0.0000 -10641.0540 1434.0516 0.0000 0.0000 1771.5578 -7421.6990 298.1567 -9193.2567 -7537.6195 300.5536 -114.5660 -30.8375 31171.0439 -83.6065 -29.7818
ENERGY: 1200000 0.7115 7.6341 2.8507 0.0000 -10764.4504 1439.3900 0.0000 0.0000 1745.5969 -7568.2672 293.7874 -9313.8641 -7542.8015 299.6604 -343.6003 -269.2029 31006.4212 -114.5482 -63.8630
ENERGY: 1500000 2.1270 11.9847 2.8052 0.0000 -10704.9327 1354.1139 0.0000 0.0000 1822.4627 -7511.4392 306.7241 -9333.9019 -7538.2933 299.8473 -450.3358 -466.9144 30248.7120 -152.2865 -105.3445
TCL: Running FEP window  11: Lambda1 0.49999999999999994 Lambda2 0.5499999999999999 [dLambda 0.04999999999999999]
TCL: Setting parameter firsttimestep to 0
TCL: Setting parameter alchLambda to 0.49999999999999994
Info: NONBONDED TABLE R-SQUARED SPACING: 0.0625
Info: NONBONDED TABLE SIZE: 705 POINTS
TCL: Setting parameter alchLambda2 to 0.5499999999999999
Info: NONBONDED TABLE R-SQUARED SPACING: 0.0625
Info: NONBONDED TABLE SIZE: 705 POINTS
TCL: Running for 1500000 steps
ETITLE: TS BOND ANGLE DIHED IMPRP ELECT VDW BOUNDARY MISC KINETIC TOTAL TEMP POTENTIAL TOTALAVG TEMPAVG PRESSURE GPRESSURE VOLUME PRESSAVG GPRESSAVG
ENERGY: 0 2.1270 11.9847 2.8052 0.0000 -10704.9324 1355.1541 0.0000 0.0000 1821.5342 -7511.3272 306.5678 -9332.8614 -7511.3272 306.5678 -541.4607 -450.0443 30248.7120 -541.4607 -450.0443
ENERGY: 300000 1.2314 8.1382 2.3880 0.0000 -10787.0002 1509.2420 0.0000 0.0000 1773.3180 -7492.6826 298.4529 -9266.0007 -7500.5691 305.3270 686.3748 797.5889 30338.3739 -127.7229 -39.6626
ENERGY: 600000 1.0760 8.1815 2.0526 0.0000 -10888.7927 1469.5256 0.0000 0.0000 1712.5957 -7695.3614 288.2332 -9407.9571 -7524.6168 301.5550 -390.1698 -311.1073 30926.8813 -147.0763 -62.8083
ENERGY: 900000 1.9498 11.9306 1.8763 0.0000 -10857.9180 1511.8139 0.0000 0.0000 1803.2941 -7527.0533 303.4979 -9330.3473 -7518.8805 301.9348 270.0928 370.1196 30636.8907 8.7051 98.8375
ENERGY: 1200000 1.0353 8.4395 4.4493 0.0000 -10668.4333 1340.1640 0.0000 0.0000 1806.8379 -7507.5071 304.0944 -9314.3450 -7515.0796 302.5030 -804.4696 -720.2679 30812.3983 -73.9248 10.2648
ENERGY: 1500000 0.6294 7.8697 2.5976 0.0000 -10823.9570 1435.1820 0.0000 0.0000 1789.9069 -7587.7715 301.2448 -9377.6783 -7529.9142 301.8313 -228.7892 -178.1451 30671.7310 -97.5086 -14.2480
TCL: Running FEP window  12: Lambda1 0.5499999999999999 Lambda2 0.6    [dLambda 0.050000000000000044]
TCL: Setting parameter firsttimestep to 0
TCL: Setting parameter alchLambda to 0.5499999999999999
Info: NONBONDED TABLE R-SQUARED SPACING: 0.0625
Info: NONBONDED TABLE SIZE: 705 POINTS
TCL: Setting parameter alchLambda2 to 0.6
Info: NONBONDED TABLE R-SQUARED SPACING: 0.0625
Info: NONBONDED TABLE SIZE: 705 POINTS
TCL: Running for 1500000 steps
ETITLE: TS BOND ANGLE DIHED IMPRP ELECT VDW BOUNDARY MISC KINETIC TOTAL TEMP POTENTIAL TOTALAVG TEMPAVG PRESSURE GPRESSURE VOLUME PRESSAVG GPRESSAVG
ENERGY: 0 0.6294 7.8697 2.5976 0.0000 -10823.9581 1435.2858 0.0000 0.0000 1789.0341 -7588.5415 301.0980 -9377.5755 -7588.5415 301.0980 -251.5450 -169.1248 30671.7310 -251.5450 -169.1248
ENERGY: 300000 1.6626 7.7975 1.7143 0.0000 -10828.3364 1479.9030 0.0000 0.0000 1790.9285 -7546.3305 301.4168 -9337.2590 -7549.8304 299.8620 -8.0545 54.9645 30852.1219 -257.7008 -185.8948
ENERGY: 600000 0.1947 8.4247 3.1105 0.0000 -10989.3413 1565.5537 0.0000 0.0000 1821.1691 -7590.8887 306.5064 -9412.0578 -7571.4652 300.3327 838.3137 939.6400 30271.2888 81.3696 138.9547
ENERGY: 900000 2.1712 11.1017 2.2726 0.0000 -10761.1826 1443.7265 0.0000 0.0000 1811.4864 -7490.4243 304.8767 -9301.9107 -7565.3569 300.6093 41.2864 212.9621 30708.9323 140.9198 205.9950
ENERGY: 1200000 2.5656 9.8039 1.7443 0.0000 -10788.0867 1494.6776 0.0000 0.0000 1797.1175 -7482.1779 302.4584 -9279.2954 -7554.7503 301.2702 256.7452 320.4927 31099.7624 51.8719 121.3868
ENERGY: 1500000 0.2492 8.3401 3.6510 0.0000 -10757.6229 1371.7111 0.0000 0.0000 1774.6909 -7598.9805 298.6840 -9373.6715 -7552.9547 302.0115 -690.6660 -614.7294 30407.3238 -77.1596 -8.9194
TCL: Running FEP window  13: Lambda1 0.6    Lambda2 0.65   [dLambda 0.050000000000000044]
TCL: Setting parameter firsttimestep to 0
TCL: Setting parameter alchLambda to 0.6
Info: NONBONDED TABLE R-SQUARED SPACING: 0.0625
Info: NONBONDED TABLE SIZE: 705 POINTS
TCL: Setting parameter alchLambda2 to 0.65
Info: NONBONDED TABLE R-SQUARED SPACING: 0.0625
Info: NONBONDED TABLE SIZE: 705 POINTS
TCL: Running for 1500000 steps
ETITLE: TS BOND ANGLE DIHED IMPRP ELECT VDW BOUNDARY MISC KINETIC TOTAL TEMP POTENTIAL TOTALAVG TEMPAVG PRESSURE GPRESSURE VOLUME PRESSAVG GPRESSAVG
ENERGY: 0 0.2492 8.3401 3.6510 0.0000 -10757.6254 1372.2751 0.0000 0.0000 1773.7864 -7599.3236 298.5317 -9373.1100 -7599.3236 298.5317 -680.8459 -600.2913 30407.3238 -680.8459 -600.2913
ENERGY: 300000 2.5267 10.7116 2.7674 0.0000 -10856.6507 1486.1757 0.0000 0.0000 1742.0877 -7612.3816 293.1968 -9354.4693 -7603.3217 295.9039 187.3437 269.4620 30444.6039 -72.7231 -21.6724
ENERGY: 600000 1.2487 8.6380 2.1011 0.0000 -10812.5605 1474.2629 0.0000 0.0000 1771.1711 -7555.1386 298.0916 -9326.3098 -7557.2755 298.7078 -83.8094 11.1356 31251.8124 -72.6221 -15.3194
ENERGY: 900000 0.3724 11.5129 2.2466 0.0000 -10916.5873 1540.6042 0.0000 0.0000 1782.0365 -7579.8148 299.9202 -9361.8513 -7566.4047 298.8432 522.2274 568.8727 31096.3662 51.7798 110.2138
ENERGY: 1200000 0.7658 10.2508 2.2511 0.0000 -10723.2393 1386.7104 0.0000 0.0000 1774.4176 -7548.8436 298.6380 -9323.2611 -7553.9707 299.0971 -575.2156 -546.8860 31142.9012 -58.2223 -5.3761
ENERGY: 1500000 0.9518 12.1161 3.7923 0.0000 -10615.6596 1348.4195 0.0000 0.0000 1729.9310 -7520.4489 291.1508 -9250.3799 -7548.8384 298.8232 -882.3702 -840.7996 31282.4189 -69.2554 -16.0013
TCL: Running FEP window  14: Lambda1 0.65   Lambda2 0.7000000000000001 [dLambda 0.050000000000000044]
TCL: Setting parameter firsttimestep to 0
TCL: Setting parameter alchLambda to 0.65
Info: NONBONDED TABLE R-SQUARED SPACING: 0.0625
Info: NONBONDED TABLE SIZE: 705 POINTS
TCL: Setting parameter alchLambda2 to 0.7000000000000001
Info: NONBONDED TABLE R-SQUARED SPACING: 0.0625
Info: NONBONDED TABLE SIZE: 705 POINTS
TCL: Running for 1500000 steps
ETITLE: TS BOND ANGLE DIHED IMPRP ELECT VDW BOUNDARY MISC KINETIC TOTAL TEMP POTENTIAL TOTALAVG TEMPAVG PRESSURE GPRESSURE VOLUME PRESSAVG GPRESSAVG
ENERGY: 0 0.9518 12.1161 3.7923 0.0000 -10615.6467 1348.2181 0.0000 0.0000 1729.0699 -7521.4985 291.0059 -9250.5685 -7521.4985 291.0059 -910.2282 -836.4652 31282.4189 -910.2282 -836.4652
ENERGY: 300000 1.2799 9.4377 3.5095 0.0000 -10652.8948 1405.7362 0.0000 0.0000 1836.2863 -7396.6453 309.0506 -9232.9315 -7472.6863 302.0070 -230.0594 -182.3200 31241.8251 -483.9721 -422.9531
ENERGY: 600000 1.3917 9.4012 3.6744 0.0000 -10865.0994 1451.2961 0.0000 0.0000 1801.1914 -7598.1445 303.1441 -9399.3359 -7500.3758 303.4137 -141.1892 -89.1333 30482.2617 -338.3989 -288.1056
ENERGY: 900000 1.0148 11.1252 4.7922 0.0000 -10754.8771 1392.1851 0.0000 0.0000 1812.4993 -7533.2605 305.0472 -9345.7598 -7499.3582 303.9388 -523.2312 -448.6516 30619.2423 -318.0226 -257.4688
ENERGY: 1200000 0.6896 11.2589 2.5939 0.0000 -10803.0254 1398.7525 0.0000 0.0000 1800.7301 -7589.0005 303.0664 -9389.7306 -7516.6625 303.1303 -527.2251 -507.3500 30788.9325 -361.8838 -306.0760
ENERGY: 1500000 2.0257 10.3235 2.1263 0.0000 -10629.8777 1363.3922 0.0000 0.0000 1779.1774 -7472.8326 299.4391 -9252.0100 -7519.9693 302.3272 -759.7087 -671.5314 31282.1035 -335.5872 -278.0635
TCL: Running FEP window  15: Lambda1 0.7000000000000001 Lambda2 0.7500000000000001 [dLambda 0.050000000000000044]
TCL: Setting parameter firsttimestep to 0
TCL: Setting parameter alchLambda to 0.7000000000000001
Info: NONBONDED TABLE R-SQUARED SPACING: 0.0625
Info: NONBONDED TABLE SIZE: 705 POINTS
TCL: Setting parameter alchLambda2 to 0.7500000000000001
Info: NONBONDED TABLE R-SQUARED SPACING: 0.0625
Info: NONBONDED TABLE SIZE: 705 POINTS
TCL: Running for 1500000 steps
ETITLE: TS BOND ANGLE DIHED IMPRP ELECT VDW BOUNDARY MISC KINETIC TOTAL TEMP POTENTIAL TOTALAVG TEMPAVG PRESSURE GPRESSURE VOLUME PRESSAVG GPRESSAVG
ENERGY: 0 2.0257 10.3235 2.1263 0.0000 -10629.8562 1362.8386 0.0000 0.0000 1778.2640 -7474.2782 299.2853 -9252.5422 -7474.2782 299.2853 -761.6577 -672.6831 31282.1035 -761.6577 -672.6831
ENERGY: 300000 1.1690 10.4912 2.6550 0.0000 -10609.4516 1306.7148 0.0000 0.0000 1784.9371 -7503.4846 300.4084 -9288.4216 -7503.8026 300.3969 -1130.2516 -1090.2589 31075.4421 -366.9522 -287.3270
ENERGY: 600000 0.9553 10.1064 2.4900 0.0000 -10731.0681 1404.9578 0.0000 0.0000 1735.2714 -7577.2872 292.0496 -9312.5585 -7539.0980 301.1759 -368.7315 -297.2663 30804.2662 -90.0443 -5.9391
ENERGY: 900000 0.7805 8.6187 1.8721 0.0000 -10774.9956 1462.0591 0.0000 0.0000 1777.5740 -7524.0912 299.1692 -9301.6652 -7544.6751 301.3996 13.0875 107.3039 30950.7753 -44.4441 42.8876
ENERGY: 1200000 1.0924 11.1310 2.9230 0.0000 -10861.4197 1487.4420 0.0000 0.0000 1794.6083 -7564.2231 302.0361 -9358.8314 -7544.2672 301.5933 386.3990 411.3246 30410.0111 9.0408 86.3581
ENERGY: 1500000 0.5053 6.4912 3.2246 0.0000 -10711.3205 1372.6857 0.0000 0.0000 1798.8711 -7529.5427 302.7535 -9328.4138 -7547.4009 300.5624 -716.2913 -638.8724 31327.7677 98.0095 172.9952
TCL: Running FEP window  16: Lambda1 0.7500000000000001 Lambda2 0.8000000000000002 [dLambda 0.050000000000000044]
TCL: Setting parameter firsttimestep to 0
TCL: Setting parameter alchLambda to 0.7500000000000001
Info: NONBONDED TABLE R-SQUARED SPACING: 0.0625
Info: NONBONDED TABLE SIZE: 705 POINTS
TCL: Setting parameter alchLambda2 to 0.8000000000000002
Info: NONBONDED TABLE R-SQUARED SPACING: 0.0625
Info: NONBONDED TABLE SIZE: 705 POINTS
TCL: Running for 1500000 steps
ETITLE: TS BOND ANGLE DIHED IMPRP ELECT VDW BOUNDARY MISC KINETIC TOTAL TEMP POTENTIAL TOTALAVG TEMPAVG PRESSURE GPRESSURE VOLUME PRESSAVG GPRESSAVG
ENERGY: 0 0.5053 6.4912 3.2246 0.0000 -10711.3361 1372.5092 0.0000 0.0000 1797.9804 -7530.6254 302.6037 -9328.6058 -7530.6254 302.6037 -723.1804 -634.6417 31327.7677 -723.1804 -634.6417
ENERGY: 300000 0.3748 6.0078 5.3326 0.0000 -10785.8172 1451.6550 0.0000 0.0000 1797.1177 -7525.3294 302.4585 -9322.4471 -7534.7594 304.2497 61.7686 131.9377 30933.9347 -299.5328 -239.8179
ENERGY: 600000 2.0756 10.3740 2.3277 0.0000 -10772.6098 1413.0087 0.0000 0.0000 1828.3913 -7516.4325 307.7219 -9344.8238 -7542.2932 303.6094 -201.4717 -114.0540 30518.1257 -87.0240 -25.6013
ENERGY: 900000 1.6677 9.5285 3.0243 0.0000 -10675.8586 1314.6645 0.0000 0.0000 1776.5267 -7570.4470 298.9929 -9346.9737 -7556.3407 302.1730 -1047.1043 -1016.6088 30692.0952 -136.5412 -74.2108
ENERGY: 1200000 1.1467 10.4397 3.3794 0.0000 -10936.9792 1555.5823 0.0000 0.0000 1771.8141 -7594.6169 298.1998 -9366.4311 -7554.3289 301.7856 606.0425 642.6421 30837.3478 -4.4509 55.5049
ENERGY: 1500000 0.4621 7.7296 3.6056 0.0000 -10938.6155 1494.2695 0.0000 0.0000 1796.2150 -7636.3338 302.3065 -9432.5489 -7558.9338 301.7542 77.8058 156.3104 30600.7155 -2.6255 60.0180
TCL: Running FEP window  17: Lambda1 0.8000000000000002 Lambda2 0.8500000000000002 [dLambda 0.050000000000000044]
TCL: Setting parameter firsttimestep to 0
TCL: Setting parameter alchLambda to 0.8000000000000002
Info: NONBONDED TABLE R-SQUARED SPACING: 0.0625
Info: NONBONDED TABLE SIZE: 705 POINTS
TCL: Setting parameter alchLambda2 to 0.8500000000000002
Info: NONBONDED TABLE R-SQUARED SPACING: 0.0625
Info: NONBONDED TABLE SIZE: 705 POINTS
TCL: Running for 1500000 steps
ETITLE: TS BOND ANGLE DIHED IMPRP ELECT VDW BOUNDARY MISC KINETIC TOTAL TEMP POTENTIAL TOTALAVG TEMPAVG PRESSURE GPRESSURE VOLUME PRESSAVG GPRESSAVG
ENERGY: 0 0.4621 7.7296 3.6056 0.0000 -10938.6481 1495.2642 0.0000 0.0000 1795.3236 -7636.2630 302.1565 -9431.5866 -7636.2630 302.1565 91.4981 178.7162 30600.7155 91.4981 178.7162
ENERGY: 300000 0.2000 9.4061 2.7061 0.0000 -10671.5516 1375.4664 0.0000 0.0000 1788.7524 -7495.0206 301.0506 -9283.7730 -7538.4071 301.6137 -584.1172 -492.3770 31027.1152 -266.0243 -184.1641
ENERGY: 600000 3.3532 9.4927 2.6930 0.0000 -10921.3295 1570.5180 0.0000 0.0000 1789.3711 -7545.9016 301.1547 -9335.2727 -7523.0043 302.6340 646.6174 737.6659 30799.5191 16.0840 102.9130
ENERGY: 900000 4.7727 6.4351 3.7526 0.0000 -10671.1282 1427.0466 0.0000 0.0000 1734.3754 -7494.7458 291.8988 -9229.1212 -7534.0784 301.0100 -41.8057 1.9242 30996.2994 -35.6538 42.9503
ENERGY: 1200000 2.8423 10.1295 2.2444 0.0000 -10776.8335 1395.9370 0.0000 0.0000 1787.0043 -7578.6760 300.7563 -9365.6803 -7544.5924 300.6232 -768.4767 -670.7884 30895.7114 -58.3843 14.6127
ENERGY: 1500000 0.1670 10.4901 2.6560 0.0000 -10602.9839 1378.4311 0.0000 0.0000 1803.0824 -7408.1573 303.4623 -9211.2397 -7524.7629 301.2233 -244.4683 -199.3466 30940.4250 -62.5714 6.3317
TCL: Running FEP window  18: Lambda1 0.8500000000000002 Lambda2 0.9000000000000002 [dLambda 0.050000000000000044]
TCL: Setting parameter firsttimestep to 0
TCL: Setting parameter alchLambda to 0.8500000000000002
Info: NONBONDED TABLE R-SQUARED SPACING: 0.0625
Info: NONBONDED TABLE SIZE: 705 POINTS
TCL: Setting parameter alchLambda2 to 0.9000000000000002
Info: NONBONDED TABLE R-SQUARED SPACING: 0.0625
Info: NONBONDED TABLE SIZE: 705 POINTS
TCL: Running for 1500000 steps
ETITLE: TS BOND ANGLE DIHED IMPRP ELECT VDW BOUNDARY MISC KINETIC TOTAL TEMP POTENTIAL TOTALAVG TEMPAVG PRESSURE GPRESSURE VOLUME PRESSAVG GPRESSAVG
ENERGY: 0 0.1670 10.4901 2.6560 0.0000 -10603.0050 1378.0001 0.0000 0.0000 1802.2020 -7409.4898 303.3141 -9211.6918 -7409.4898 303.3141 -260.9068 -197.1215 30940.4250 -260.9068 -197.1215
ENERGY: 300000 0.9116 13.7842 3.0312 0.0000 -10743.8768 1471.4541 0.0000 0.0000 1775.9979 -7478.6979 298.9039 -9254.6957 -7505.0576 302.7359 189.4146 351.7995 30825.9126 49.3130 135.3408
ENERGY: 600000 1.7685 13.6579 3.8320 0.0000 -10787.2470 1391.9081 0.0000 0.0000 1794.7463 -7581.3343 302.0593 -9376.0806 -7517.4807 303.2657 -714.7642 -678.5758 31201.9465 -193.8287 -119.3485
ENERGY: 900000 2.8078 15.3734 3.7184 0.0000 -10766.3243 1462.2192 0.0000 0.0000 1785.1373 -7497.0682 300.4421 -9282.2055 -7535.9614 300.5541 51.1380 83.2205 30997.2414 -67.9608 -7.2947
ENERGY: 1200000 1.0039 8.5076 1.9749 0.0000 -10830.4163 1394.5237 0.0000 0.0000 1756.8221 -7667.5841 295.6766 -9424.4061 -7556.3912 299.4365 -783.4751 -692.9337 30780.6891 -105.2576 -41.3306
ENERGY: 1500000 1.0885 9.1830 5.5347 0.0000 -10733.8263 1386.2807 0.0000 0.0000 1764.3131 -7567.4264 296.9374 -9331.7395 -7567.3559 298.9706 -640.6481 -651.5227 30792.4015 -93.5179 -35.9252
TCL: Running FEP window  19: Lambda1 0.9000000000000002 Lambda2 0.9500000000000003 [dLambda 0.050000000000000044]
TCL: Setting parameter firsttimestep to 0
TCL: Setting parameter alchLambda to 0.9000000000000002
Info: NONBONDED TABLE R-SQUARED SPACING: 0.0625
Info: NONBONDED TABLE SIZE: 705 POINTS
TCL: Setting parameter alchLambda2 to 0.9500000000000003
Info: NONBONDED TABLE R-SQUARED SPACING: 0.0625
Info: NONBONDED TABLE SIZE: 705 POINTS
TCL: Running for 1500000 steps
ETITLE: TS BOND ANGLE DIHED IMPRP ELECT VDW BOUNDARY MISC KINETIC TOTAL TEMP POTENTIAL TOTALAVG TEMPAVG PRESSURE GPRESSURE VOLUME PRESSAVG GPRESSAVG
ENERGY: 0 1.0885 9.1830 5.5347 0.0000 -10733.8487 1385.8052 0.0000 0.0000 1763.3923 -7568.8451 296.7824 -9332.2374 -7568.8451 296.7824 -727.6883 -650.7413 30792.4015 -727.6883 -650.7413
ENERGY: 300000 0.3882 9.7285 3.2224 0.0000 -10753.8921 1425.3994 0.0000 0.0000 1790.7979 -7524.3557 301.3948 -9315.1535 -7538.1019 301.0018 16.0735 73.2507 30448.9462 -108.4035 -39.3042
ENERGY: 600000 1.0641 14.0682 2.9832 0.0000 -10731.4710 1401.7435 0.0000 0.0000 1789.0476 -7522.5644 301.1002 -9311.6120 -7532.7477 299.9032 -478.9617 -445.5976 31044.4623 -146.3615 -94.4310
ENERGY: 900000 2.6723 10.1069 3.9695 0.0000 -10790.9393 1426.1530 0.0000 0.0000 1809.6044 -7538.4333 304.5600 -9348.0376 -7526.9553 300.4746 -44.1600 -87.6092 30782.2131 -212.6207 -177.3618
ENERGY: 1200000 0.2420 11.2445 2.5025 0.0000 -10753.1941 1411.8133 0.0000 0.0000 1734.9483 -7592.4435 291.9952 -9327.3917 -7547.8671 298.7441 -218.2244 -159.0310 30541.7089 -153.0789 -117.2802
ENERGY: 1500000 2.2037 11.7458 1.7274 0.0000 -10684.0257 1431.0330 0.0000 0.0000 1765.8065 -7471.5093 297.1887 -9237.3158 -7550.3472 298.4251 42.6278 195.5536 30894.5522 -84.5668 -41.9486
TCL: Running FEP window  20: Lambda1 0.9500000000000003 Lambda2 1.0    [dLambda 0.04999999999999971]
TCL: Setting parameter firsttimestep to 0
TCL: Setting parameter alchLambda to 0.9500000000000003
Info: NONBONDED TABLE R-SQUARED SPACING: 0.0625
Info: NONBONDED TABLE SIZE: 705 POINTS
TCL: Setting parameter alchLambda2 to 1.0
Info: NONBONDED TABLE R-SQUARED SPACING: 0.0625
Info: NONBONDED TABLE SIZE: 705 POINTS
TCL: Running for 1500000 steps
ETITLE: TS BOND ANGLE DIHED IMPRP ELECT VDW BOUNDARY MISC KINETIC TOTAL TEMP POTENTIAL TOTALAVG TEMPAVG PRESSURE GPRESSURE VOLUME PRESSAVG GPRESSAVG
ENERGY: 0 2.2037 11.7458 1.7274 0.0000 -10684.0268 1431.5260 0.0000 0.0000 1764.9140 -7471.9099 297.0385 -9236.8239 -7471.9099 297.0385 130.7210 212.2711 30894.5522 130.7210 212.2711
ENERGY: 300000 2.7182 6.0996 2.0459 0.0000 -10621.4771 1282.4679 0.0000 0.0000 1760.8880 -7567.2574 296.3609 -9328.1455 -7584.5341 296.4032 -1190.1654 -1145.5822 30549.6465 -150.6412 -102.9390
ENERGY: 600000 0.7539 8.5515 4.6767 0.0000 -10760.4269 1389.0278 0.0000 0.0000 1809.7721 -7547.6450 304.5882 -9357.4171 -7581.5312 298.8062 -410.3641 -345.4886 30742.1065 -269.9408 -221.2364
ENERGY: 900000 0.4807 9.7362 3.1562 0.0000 -10927.1235 1566.5735 0.0000 0.0000 1790.9567 -7556.2201 301.4215 -9347.1768 -7588.2710 298.6164 1009.1392 1102.8829 30364.1138 -81.6622 -31.3868
ENERGY: 1200000 1.8386 6.3451 2.5005 0.0000 -10692.3104 1350.1353 0.0000 0.0000 1797.2553 -7534.2356 302.4816 -9331.4909 -7570.4548 299.7244 -749.5953 -674.2014 31003.8813 -116.8609 -61.3485
ENERGY: 1500000 3.6222 9.8273 2.3345 0.0000 -10866.6356 1448.1533 0.0000 0.0000 1777.0355 -7625.6628 299.0786 -9402.6983 -7573.4295 299.6601 -455.3663 -423.5190 31246.3605 -135.9690 -72.8116
TCL: Exiting due to exit command.
