Info: SIMULATION PARAMETERS:
Info: TIMESTEP               2
Info: NUMBER OF STEPS        0
Info: STEPS PER CYCLE        10
Info: PERIODIC CELL BASIS 1  30.7875 0 0
Info: PERIODIC CELL BASIS 2  0 28.6958 0
Info: PERIODIC CELL BASIS 3  0 0 35.1239
Info: PERIODIC CELL CENTER   0 0 0
Info: WRAPPING WATERS AROUND PERIODIC BOUNDARIES ON OUTPUT.
Info: WRAPPING ALL CLUSTERS AROUND PERIODIC BOUNDARIES ON OUTPUT.
Info: FIRST LDB TIMESTEP     50
Info: LAST LDB TIMESTEP     -1
Info: HOM BACKGROUND SCALING 1
Info: PME BACKGROUND SCALING 1
Info: MIN ATOMS PER PATCH    40
Info: EMPTY PATCH LOAD       40 ATOMS
Info: VELOCITY FILE          mobley_1328936_equil.vel
Info: CENTER OF MASS MOVING INITIALLY? NO
Info: DIELECTRIC             1
Info: EXCLUDE                SCALED ONE-FOUR
Info: 1-4 ELECTROSTATICS SCALED BY 0.833333
Info: MODIFIED 1-4 VDW PARAMETERS WILL BE USED
Info: DCD FILENAME           mobley_1328936_prod.dcd
Info: DCD FREQUENCY          100000
Info: DCD FIRST STEP         100000
Info: DCD FILE WILL CONTAIN UNIT CELL DATA
Info: XST FILENAME           mobley_1328936_prod.xst
Info: XST FREQUENCY          100000
Info: NO VELOCITY DCD OUTPUT
Info: NO FORCE DCD OUTPUT
Info: OUTPUT FILENAME        mobley_1328936_prod
Info: BINARY OUTPUT FILES WILL BE USED
Info: RESTART FILENAME       mobley_1328936_prod.restart
Info: RESTART FREQUENCY      100000
Info: BINARY RESTART FILES WILL BE USED
Info: CUTOFF                 9
Info: PAIRLIST DISTANCE      11
Info: PAIRLIST SHRINK RATE   0.01
Info: PAIRLIST GROW RATE     0.01
Info: PAIRLIST TRIGGER       0.3
Info: PAIRLISTS PER CYCLE    2
Info: PAIRLISTS ENABLED
Info: MARGIN                 2
Info: HYDROGEN GROUP CUTOFF  2.5
Info: PATCH DIMENSION        15.5
Info: ENERGY OUTPUT STEPS    100000
Info: ENERGY EVALUATION STEPS    100000
Info: OUTPUT ENERGY PRECISION 4
Info: CROSSTERM ENERGY INCLUDED IN DIHEDRAL
Info: TIMING OUTPUT STEPS    1000000
Info: PRESSURE OUTPUT STEPS  100000
Info: ALCHEMICAL FEP ON
Info: FEP CURRENT LAMBDA VALUE     0
Info: FEP COMPARISON LAMBDA VALUE  0.05
Info: FEP INTRA-ALCHEMICAL NON-BONDED INTERACTIONS WILL BE RETAINED
Info: FEP INTRA-ALCHEMICAL BONDED INTERACTIONS WILL BE RETAINED
Info: FEP VDW SHIFTING COEFFICIENT 5
Info: FEP ELEC. ACTIVE FOR ANNIHILATED PARTICLES BETWEEN LAMBDA = 0 AND LAMBDA = 0.5
Info: FEP ELEC. ACTIVE FOR EXNIHILATED PARTICLES BETWEEN LAMBDA = 0.5 AND LAMBDA = 1
Info: FEP VDW ACTIVE FOR ANNIHILATED PARTICLES BETWEEN LAMBDA = 0 AND LAMBDA = 1
Info: FEP VDW ACTIVE FOR EXNIHILATED PARTICLES BETWEEN LAMBDA = 0 AND LAMBDA = 1
Info: FEP BOND ACTIVE FOR ANNIHILATED PARTICLES BETWEEN LAMBDA = 1 AND LAMBDA = 1
Info: FEP BOND ACTIVE FOR EXNIHILATED PARTICLES BETWEEN LAMBDA = 0 AND LAMBDA = 0
Info: LANGEVIN DYNAMICS ACTIVE
Info: LANGEVIN TEMPERATURE   300
Info: LANGEVIN USING BBK INTEGRATOR
Info: LANGEVIN DAMPING COEFFICIENT IS 1 INVERSE PS
Info: LANGEVIN DYNAMICS APPLIED TO HYDROGENS
Info: LANGEVIN PISTON PRESSURE CONTROL ACTIVE
Info:        TARGET PRESSURE IS 1.01325 BAR
Info:     OSCILLATION PERIOD IS 50 FS
Info:             DECAY TIME IS 25 FS
Info:     PISTON TEMPERATURE IS 300 K
Info:       PRESSURE CONTROL IS GROUP-BASED
Info:    INITIAL STRAIN RATE IS -0.000319564 -0.000319564 -0.000319564
Info:       CELL FLUCTUATION IS ISOTROPIC
Info: PARTICLE MESH EWALD (PME) ACTIVE
Info: PME TOLERANCE               1e-06
Info: PME EWALD COEFFICIENT       0.348832
Info: PME INTERPOLATION ORDER     4
Info: PME GRID DIMENSIONS         32 32 36
Info: PME MAXIMUM GRID SPACING    1
Info: PME CALCULATION WILL BE PERFORMED ON GPU
Info: FULL ELECTROSTATIC EVALUATION FREQUENCY      2
Info: USING VERLET I (r-RESPA) MTS SCHEME.
Info: C1 SPLITTING OF LONG RANGE ELECTROSTATICS
Info: PLACING ATOMS IN PATCHES BY HYDROGEN GROUPS
Info: RIGID BONDS TO HYDROGEN : ALL
Info:         ERROR TOLERANCE : 1e-08
Info:          MAX ITERATIONS : 100
Info: RIGID WATER USING SETTLE ALGORITHM
Info: RANDOM NUMBER SEED     1743865206
Info: USE HYDROGEN BONDS?    NO
Info: Using AMBER format force field!
Info: AMBER PARM FILE        mobley_1328936.prmtop
Info: COORDINATE PDB         mobley_1328936.pdb
Info: Exclusions will be read from PARM file!
Info: SCNB (VDW SCALING)     2
Info: USING ARITHMETIC MEAN TO COMBINE L-J SIGMA PARAMETERS
Info: BINARY COORDINATES     mobley_1328936_equil.coor
Info: SUMMARY OF PARAMETERS:
Info: 11 BONDS
Info: 12 ANGLES
Info:   12 HARMONIC
Info:   0 COSINE-BASED
Info: 7 DIHEDRAL
Info: 0 IMPROPER
Info: 0 CROSSTERM
Info: 0 VDW
Info: 45 VDW_PAIRS
Info: 0 NBTHOLE_PAIRS
Info: To read alchdata from file: mobley_1328936.pdb
Info: To read alchflag data from column: 5
Info: STRUCTURE SUMMARY:
Info: 2984 ATOMS
Info: 2984 BONDS
Info: 31 ANGLES
Info: 45 DIHEDRALS
Info: 0 IMPROPERS
Info: 0 CROSSTERMS
Info: 3049 EXCLUSIONS
Info: 2971 RIGID BONDS
Info: ALCH: 0 ATOMS TO DISAPPEAR IN FINAL STATE
Info: ALCH: 20 ATOMS TO APPEAR IN FINAL STATE
Info: 5981 DEGREES OF FREEDOM
Info: 1001 HYDROGEN GROUPS
Info: 4 ATOMS IN LARGEST HYDROGEN GROUP
Info: 1001 MIGRATION GROUPS
Info: 4 ATOMS IN LARGEST MIGRATION GROUP
Info: TOTAL MASS = 17981 amu
Info: TOTAL CHARGE = 9.99682e-05 e
Info: MASS DENSITY = 0.962223 g/cm^3
Info: ATOM DENSITY = 0.0961618 atoms/A^3
Info: ADDED 0 IMPLICIT EXCLUSIONS
Info: NONBONDED TABLE R-SQUARED SPACING: 0.0625
Info: NONBONDED TABLE SIZE: 705 POINTS
Info: REMOVING COM VELOCITY 0.11567 0.0731424 0.0954513
Info: Use 3D box decompostion in PME FFT.
Info: Updated CUDA force table with 4096 elements.
Info: Updated CUDA LJ table with 9 x 9 elements.
Info: Found 22 unique exclusion lists needing 56 bytes
TCL: Running for 1500000 steps
ETITLE: TS BOND ANGLE DIHED IMPRP ELECT VDW BOUNDARY MISC KINETIC TOTAL TEMP POTENTIAL TOTALAVG TEMPAVG PRESSURE GPRESSURE VOLUME PRESSAVG GPRESSAVG
ENERGY: 0 5.6799 8.5489 2.3870 0.0000 -10694.2062 1410.5244 0.0000 0.0000 1808.0935 -7458.9725 304.2548 -9267.0660 -7458.9725 304.2548 -419.9831 -320.4340 31031.0180 -419.9831 -320.4340
ENERGY: 300000 2.4177 10.0017 6.1556 0.0000 -10740.8498 1415.6291 0.0000 0.0000 1809.9453 -7496.7003 304.5664 -9306.6456 -7481.6803 302.6464 -316.3089 -264.6754 30653.1390 0.2819 47.8358
ENERGY: 600000 3.7037 8.1271 2.5828 0.0000 -10577.7967 1321.5221 0.0000 0.0000 1720.1058 -7521.7553 289.4488 -9241.8611 -7484.4752 302.0001 -977.9552 -943.7103 30911.6541 -102.3373 -54.1305
ENERGY: 900000 5.8678 3.7929 2.9798 0.0000 -10878.8651 1500.4476 0.0000 0.0000 1756.2870 -7609.4899 295.5371 -9365.7769 -7512.3874 299.6410 -109.8107 -55.1327 30619.5348 -83.9328 -38.5921
ENERGY: 1200000 5.6986 8.6069 6.6561 0.0000 -10857.6839 1502.7308 0.0000 0.0000 1793.7624 -7540.2290 301.8433 -9333.9914 -7506.8494 300.1494 281.1577 341.4818 30194.6177 -48.8625 -1.9181
ENERGY: 1500000 3.9285 6.0180 3.6384 0.0000 -10829.7895 1511.0810 0.0000 0.0000 1772.1656 -7532.9580 298.2091 -9305.1236 -7508.1283 300.3710 458.3640 513.9896 30209.8550 -1.9521 45.1970
TCL: Running FEP window   2: Lambda1 0.05   Lambda2 0.1    [dLambda 0.05  ]
TCL: Setting parameter firsttimestep to 0
TCL: Setting parameter alchLambda to 0.05
Info: NONBONDED TABLE R-SQUARED SPACING: 0.0625
Info: NONBONDED TABLE SIZE: 705 POINTS
TCL: Setting parameter alchLambda2 to 0.1
Info: NONBONDED TABLE R-SQUARED SPACING: 0.0625
Info: NONBONDED TABLE SIZE: 705 POINTS
TCL: Running for 1500000 steps
ETITLE: TS BOND ANGLE DIHED IMPRP ELECT VDW BOUNDARY MISC KINETIC TOTAL TEMP POTENTIAL TOTALAVG TEMPAVG PRESSURE GPRESSURE VOLUME PRESSAVG GPRESSAVG
ENERGY: 0 3.9285 6.0180 3.6384 0.0000 -10829.7887 1514.8908 0.0000 0.0000 1771.3215 -7529.9916 298.0671 -9301.3131 -7529.9916 298.0671 451.2841 523.4836 30209.8550 451.2841 523.4836
ENERGY: 300000 3.8654 7.4983 1.7046 0.0000 -10814.2202 1532.7261 0.0000 0.0000 1819.8286 -7448.5974 306.2295 -9268.4260 -7516.0596 302.5228 499.8608 573.4799 30726.0052 416.1700 483.5245
ENERGY: 600000 6.8088 2.5881 3.2448 0.0000 -10973.3038 1573.6527 0.0000 0.0000 1831.9927 -7555.0168 308.2764 -9387.0095 -7548.4971 301.6531 850.1930 875.8880 30367.6048 294.4616 355.7505
ENERGY: 900000 5.3925 4.7796 4.5188 0.0000 -10769.0662 1437.0286 0.0000 0.0000 1789.6045 -7527.7422 301.1436 -9317.3467 -7551.9260 301.5899 -436.2117 -353.2692 30879.1441 186.9956 252.4734
ENERGY: 1200000 7.9352 6.5519 4.4031 0.0000 -10696.2141 1403.5391 0.0000 0.0000 1768.7693 -7505.0155 297.6376 -9273.7848 -7538.4990 302.2485 -703.7092 -608.7289 30898.9939 76.4138 145.3603
ENERGY: 1500000 3.5858 7.9678 4.5128 0.0000 -10860.5993 1533.5271 0.0000 0.0000 1765.4870 -7545.5189 297.0853 -9311.0059 -7534.3872 301.7305 261.0797 332.8008 30832.1793 26.0045 97.2262
TCL: Running FEP window   3: Lambda1 0.1    Lambda2 0.15000000000000002 [dLambda 0.05000000000000002]
TCL: Setting parameter firsttimestep to 0
TCL: Setting parameter alchLambda to 0.1
Info: NONBONDED TABLE R-SQUARED SPACING: 0.0625
Info: NONBONDED TABLE SIZE: 705 POINTS
TCL: Setting parameter alchLambda2 to 0.15000000000000002
Info: NONBONDED TABLE R-SQUARED SPACING: 0.0625
Info: NONBONDED TABLE SIZE: 705 POINTS
TCL: Running for 1500000 steps
ETITLE: TS BOND ANGLE DIHED IMPRP ELECT VDW BOUNDARY MISC KINETIC TOTAL TEMP POTENTIAL TOTALAVG TEMPAVG PRESSURE GPRESSURE VOLUME PRESSAVG GPRESSAVG
ENERGY: 0 3.5858 7.9678 4.5128 0.0000 -10860.6008 1537.9067 0.0000 0.0000 1764.5823 -7542.0454 296.9330 -9306.6277 -7542.0454 296.9330 254.8067 347.5104 30832.1793 254.8067 347.5104
ENERGY: 300000 7.2092 3.9043 4.9383 0.0000 -10701.6421 1367.3666 0.0000 0.0000 1789.9692 -7528.2546 301.2050 -9318.2238 -7531.1066 298.6024 -704.1415 -614.2225 30533.4145 -80.3299 -9.5511
ENERGY: 600000 5.8735 5.3766 4.9242 0.0000 -10823.1830 1479.6044 0.0000 0.0000 1780.3869 -7547.0174 299.5925 -9327.4043 -7520.7275 300.0864 341.7288 409.9793 30040.6164 -63.3785 -11.1898
ENERGY: 900000 3.2330 7.4732 3.3112 0.0000 -10828.7211 1476.4676 0.0000 0.0000 1785.7115 -7552.5246 300.4885 -9338.2362 -7524.8890 300.4897 55.9278 108.0778 30495.8573 -74.7996 -19.1643
ENERGY: 1200000 7.2444 5.6313 3.3073 0.0000 -10781.7633 1480.7759 0.0000 0.0000 1825.6076 -7459.1967 307.2020 -9284.8043 -7525.6297 300.7653 124.6389 214.3789 30597.9584 -40.1741 24.4573
ENERGY: 1500000 6.8313 5.3516 1.5722 0.0000 -10802.3336 1514.8109 0.0000 0.0000 1777.4066 -7496.3611 299.0910 -9273.7677 -7526.5544 300.3562 439.5033 458.5993 30745.9803 19.5016 80.7214
TCL: Running FEP window   4: Lambda1 0.15000000000000002 Lambda2 0.2    [dLambda 0.04999999999999999]
TCL: Setting parameter firsttimestep to 0
TCL: Setting parameter alchLambda to 0.15000000000000002
Info: NONBONDED TABLE R-SQUARED SPACING: 0.0625
Info: NONBONDED TABLE SIZE: 705 POINTS
TCL: Setting parameter alchLambda2 to 0.2
Info: NONBONDED TABLE R-SQUARED SPACING: 0.0625
Info: NONBONDED TABLE SIZE: 705 POINTS
TCL: Running for 1500000 steps
ETITLE: TS BOND ANGLE DIHED IMPRP ELECT VDW BOUNDARY MISC KINETIC TOTAL TEMP POTENTIAL TOTALAVG TEMPAVG PRESSURE GPRESSURE VOLUME PRESSAVG GPRESSAVG
ENERGY: 0 6.8313 5.3516 1.5722 0.0000 -10802.3327 1515.3753 0.0000 0.0000 1776.5544 -7496.6480 298.9476 -9273.2024 -7496.6480 298.9476 391.6569 467.3977 30745.9803 391.6569 467.3977
ENERGY: 300000 3.2561 10.0346 4.3732 0.0000 -10661.8599 1407.7040 0.0000 0.0000 1874.7329 -7361.7591 315.4685 -9236.4920 -7479.8281 304.8124 -132.0274 -78.6080 30560.0693 300.4769 391.9514
ENERGY: 600000 5.6766 3.8443 5.1967 0.0000 -10724.7761 1407.5263 0.0000 0.0000 1759.0227 -7543.5096 295.9975 -9302.5323 -7515.8911 301.1425 -555.7431 -522.8138 30902.7660 91.6905 162.2512
ENERGY: 900000 6.1457 6.4563 3.0090 0.0000 -10752.8430 1387.8321 0.0000 0.0000 1757.3792 -7592.0208 295.7209 -9349.4000 -7526.6389 300.8259 -483.0958 -429.2914 30277.0606 22.5755 92.7117
ENERGY: 1200000 3.6517 9.1300 8.6766 0.0000 -10829.7509 1510.8321 0.0000 0.0000 1837.9365 -7459.5241 309.2766 -9297.4607 -7524.0062 301.6783 436.1115 506.5686 30591.0612 57.4054 124.5211
ENERGY: 1500000 5.6141 4.3836 2.3926 0.0000 -10768.2633 1388.0435 0.0000 0.0000 1779.8908 -7587.9387 299.5090 -9367.8295 -7533.9750 301.3462 -845.1146 -844.6715 30629.9146 50.8923 112.7643
TCL: Running FEP window   5: Lambda1 0.2    Lambda2 0.25   [dLambda 0.04999999999999999]
TCL: Setting parameter firsttimestep to 0
TCL: Setting parameter alchLambda to 0.2
Info: NONBONDED TABLE R-SQUARED SPACING: 0.0625
Info: NONBONDED TABLE SIZE: 705 POINTS
TCL: Setting parameter alchLambda2 to 0.25
Info: NONBONDED TABLE R-SQUARED SPACING: 0.0625
Info: NONBONDED TABLE SIZE: 705 POINTS
TCL: Running for 1500000 steps
ETITLE: TS BOND ANGLE DIHED IMPRP ELECT VDW BOUNDARY MISC KINETIC TOTAL TEMP POTENTIAL TOTALAVG TEMPAVG PRESSURE GPRESSURE VOLUME PRESSAVG GPRESSAVG
ENERGY: 0 5.6141 4.3836 2.3926 0.0000 -10768.2647 1389.1324 0.0000 0.0000 1779.0111 -7587.7310 299.3610 -9366.7421 -7587.7310 299.3610 -906.7961 -832.6130 30629.9146 -906.7961 -832.6130
ENERGY: 300000 2.8032 9.6435 2.5200 0.0000 -10787.8576 1448.3288 0.0000 0.0000 1763.6282 -7560.9338 296.7725 -9324.5621 -7563.4827 298.7462 340.9567 403.7254 30000.7057 65.7273 120.4533
ENERGY: 600000 5.8734 7.4015 5.0010 0.0000 -10663.1921 1353.6266 0.0000 0.0000 1829.4575 -7461.8321 307.8498 -9291.2896 -7537.0088 299.8064 -968.1396 -964.6076 31058.0965 -232.3880 -178.3531
ENERGY: 900000 5.8054 4.5997 5.4908 0.0000 -10878.4337 1482.6132 0.0000 0.0000 1799.1251 -7580.7995 302.7457 -9379.9246 -7526.1189 301.1529 187.5833 257.6683 30054.7762 -68.8913 -13.2457
ENERGY: 1200000 7.8078 5.2839 4.4668 0.0000 -10720.8321 1390.6447 0.0000 0.0000 1812.8746 -7499.7543 305.0594 -9312.6289 -7519.9230 301.8164 -699.0517 -638.9390 30787.9943 46.1827 102.0240
ENERGY: 1500000 3.3605 5.7913 5.2268 0.0000 -10769.0716 1427.7211 0.0000 0.0000 1788.7135 -7538.2583 300.9937 -9326.9718 -7522.4897 301.8621 -284.0844 -156.7591 30377.9407 73.5176 136.5539
TCL: Running FEP window   6: Lambda1 0.25   Lambda2 0.3    [dLambda 0.04999999999999999]
TCL: Setting parameter firsttimestep to 0
TCL: Setting parameter alchLambda to 0.25
Info: NONBONDED TABLE R-SQUARED SPACING: 0.0625
Info: NONBONDED TABLE SIZE: 705 POINTS
TCL: Setting parameter alchLambda2 to 0.3
Info: NONBONDED TABLE R-SQUARED SPACING: 0.0625
Info: NONBONDED TABLE SIZE: 705 POINTS
TCL: Running for 1500000 steps
ETITLE: TS BOND ANGLE DIHED IMPRP ELECT VDW BOUNDARY MISC KINETIC TOTAL TEMP POTENTIAL TOTALAVG TEMPAVG PRESSURE GPRESSURE VOLUME PRESSAVG GPRESSAVG
ENERGY: 0 3.3605 5.7913 5.2268 0.0000 -10769.0710 1429.8845 0.0000 0.0000 1787.8277 -7536.9800 300.8446 -9324.8077 -7536.9800 300.8446 -232.8645 -143.2293 30377.9407 -232.8645 -143.2293
ENERGY: 300000 1.8801 5.0766 3.2906 0.0000 -10766.9595 1450.8049 0.0000 0.0000 1759.6834 -7546.2238 296.1087 -9305.9072 -7556.0032 298.0014 -87.1274 -78.9550 30670.3802 -20.4324 40.9063
ENERGY: 600000 5.3205 6.3973 9.3672 0.0000 -10791.6778 1476.9547 0.0000 0.0000 1813.1666 -7480.4716 305.1085 -9293.6382 -7535.1734 301.3633 234.6004 303.3312 30318.2523 -98.2222 -24.1969
ENERGY: 900000 4.7999 4.8566 5.7322 0.0000 -10800.2542 1465.3848 0.0000 0.0000 1784.5938 -7534.8869 300.3004 -9319.4807 -7528.1331 300.8422 379.0534 414.8613 30292.6446 -111.6084 -46.7791
ENERGY: 1200000 2.6236 5.4349 4.3199 0.0000 -10687.2731 1405.3135 0.0000 0.0000 1799.2193 -7470.3618 302.7615 -9269.5811 -7521.9463 300.9519 -167.0005 -183.8574 30693.3237 -105.0025 -43.5071
ENERGY: 1500000 4.0879 3.7090 4.3465 0.0000 -10783.3200 1457.3177 0.0000 0.0000 1772.0821 -7541.7769 298.1950 -9313.8590 -7526.9676 300.5586 -107.5110 -39.5461 30581.7089 -53.1048 6.0060
TCL: Running FEP window   7: Lambda1 0.3    Lambda2 0.35   [dLambda 0.04999999999999999]
TCL: Setting parameter firsttimestep to 0
TCL: Setting parameter alchLambda to 0.3
Info: NONBONDED TABLE R-SQUARED SPACING: 0.0625
Info: NONBONDED TABLE SIZE: 705 POINTS
TCL: Setting parameter alchLambda2 to 0.35
Info: NONBONDED TABLE R-SQUARED SPACING: 0.0625
Info: NONBONDED TABLE SIZE: 705 POINTS
TCL: Running for 1500000 steps
ETITLE: TS BOND ANGLE DIHED IMPRP ELECT VDW BOUNDARY MISC KINETIC TOTAL TEMP POTENTIAL TOTALAVG TEMPAVG PRESSURE GPRESSURE VOLUME PRESSAVG GPRESSAVG
ENERGY: 0 4.0878 3.7090 4.3465 0.0000 -10783.3181 1457.2488 0.0000 0.0000 1771.1870 -7542.7390 298.0444 -9313.9260 -7542.7390 298.0444 -127.1982 -35.8628 30581.7089 -127.1982 -35.8628
ENERGY: 300000 4.4878 8.6851 5.4136 0.0000 -10918.1012 1451.1659 0.0000 0.0000 1768.7207 -7679.6282 297.6294 -9448.3490 -7539.8788 302.0582 -24.5814 -2.4525 30067.5846 -283.9596 -219.3213
ENERGY: 600000 4.5567 5.0204 4.2066 0.0000 -10845.0764 1486.2477 0.0000 0.0000 1727.4071 -7617.6379 290.6774 -9345.0450 -7557.4261 299.4620 216.6991 228.8572 30680.1163 -188.1079 -130.2752
ENERGY: 900000 3.2065 4.2083 4.2558 0.0000 -10796.3641 1481.9283 0.0000 0.0000 1766.6359 -7536.1294 297.2786 -9302.7652 -7542.7316 300.3906 188.0446 202.5124 30932.2121 -123.4073 -71.6447
ENERGY: 1200000 1.6761 7.2081 5.1877 0.0000 -10890.5116 1541.3180 0.0000 0.0000 1782.4932 -7552.6284 299.9470 -9335.1217 -7532.8273 301.3799 883.9398 912.9121 30306.8366 -54.8159 -4.7147
ENERGY: 1500000 6.4423 7.7591 5.2030 0.0000 -10880.6494 1548.8158 0.0000 0.0000 1792.2317 -7520.1975 301.5857 -9312.4292 -7534.6188 300.2651 509.8712 544.0263 30763.2123 66.5706 119.0464
TCL: Running FEP window   8: Lambda1 0.35   Lambda2 0.39999999999999997 [dLambda 0.04999999999999999]
TCL: Setting parameter firsttimestep to 0
TCL: Setting parameter alchLambda to 0.35
Info: NONBONDED TABLE R-SQUARED SPACING: 0.0625
Info: NONBONDED TABLE SIZE: 705 POINTS
TCL: Setting parameter alchLambda2 to 0.39999999999999997
Info: NONBONDED TABLE R-SQUARED SPACING: 0.0625
Info: NONBONDED TABLE SIZE: 705 POINTS
TCL: Running for 1500000 steps
ETITLE: TS BOND ANGLE DIHED IMPRP ELECT VDW BOUNDARY MISC KINETIC TOTAL TEMP POTENTIAL TOTALAVG TEMPAVG PRESSURE GPRESSURE VOLUME PRESSAVG GPRESSAVG
ENERGY: 0 6.4423 7.7591 5.2030 0.0000 -10880.6493 1551.2299 0.0000 0.0000 1791.3346 -7518.6804 301.4347 -9310.0150 -7518.6804 301.4347 484.3381 567.0904 30763.2123 484.3381 567.0904
ENERGY: 300000 4.8922 2.6881 5.6078 0.0000 -10830.3404 1460.6474 0.0000 0.0000 1806.9674 -7549.5375 304.0653 -9356.5049 -7542.3619 300.6862 -197.8988 -125.5202 30856.8938 47.1615 122.3844
ENERGY: 600000 2.7568 10.0954 7.9162 0.0000 -10845.0189 1475.5131 0.0000 0.0000 1769.6093 -7579.1281 297.7789 -9348.7374 -7550.3524 301.3275 250.0071 267.3272 30358.9899 94.5308 148.9836
ENERGY: 900000 3.8114 7.3845 5.2464 0.0000 -10892.0265 1470.6487 0.0000 0.0000 1827.9681 -7576.9674 307.5992 -9404.9355 -7542.2454 301.7714 80.2970 159.9083 30296.4878 192.1879 254.0948
ENERGY: 1200000 5.5791 4.6937 3.4702 0.0000 -10861.0979 1471.8110 0.0000 0.0000 1794.3351 -7581.2088 301.9396 -9375.5439 -7540.9895 301.6631 -93.4762 -26.2668 30660.3874 114.3820 188.7191
ENERGY: 1500000 3.3816 5.7111 2.2208 0.0000 -10838.2039 1554.2955 0.0000 0.0000 1773.7536 -7498.8413 298.4763 -9272.5949 -7540.2717 301.1388 970.3636 1014.0846 30554.6523 252.3133 321.2477
TCL: Running FEP window   9: Lambda1 0.39999999999999997 Lambda2 0.44999999999999996 [dLambda 0.04999999999999999]
TCL: Setting parameter firsttimestep to 0
TCL: Setting parameter alchLambda to 0.39999999999999997
Info: NONBONDED TABLE R-SQUARED SPACING: 0.0625
Info: NONBONDED TABLE SIZE: 705 POINTS
TCL: Setting parameter alchLambda2 to 0.44999999999999996
Info: NONBONDED TABLE R-SQUARED SPACING: 0.0625
Info: NONBONDED TABLE SIZE: 705 POINTS
TCL: Running for 1500000 steps
ETITLE: TS BOND ANGLE DIHED IMPRP ELECT VDW BOUNDARY MISC KINETIC TOTAL TEMP POTENTIAL TOTALAVG TEMPAVG PRESSURE GPRESSURE VOLUME PRESSAVG GPRESSAVG
ENERGY: 0 3.3816 5.7111 2.2208 0.0000 -10838.2027 1554.0507 0.0000 0.0000 1772.8759 -7499.9627 298.3286 -9272.8386 -7499.9627 298.3286 930.3846 1021.9380 30554.6523 930.3846 1021.9380
ENERGY: 300000 3.1719 8.5639 5.5138 0.0000 -10941.5220 1557.8662 0.0000 0.0000 1786.2291 -7580.1771 300.5756 -9366.4062 -7502.9150 303.4886 913.7246 1045.8857 30016.8882 448.3587 546.4685
ENERGY: 600000 7.0624 9.2137 5.0816 0.0000 -10864.7513 1495.5099 0.0000 0.0000 1762.0993 -7585.7844 296.5152 -9347.8837 -7534.0623 299.5936 473.1638 499.6854 30430.4065 302.2808 390.9369
ENERGY: 900000 3.1431 5.1116 3.2582 0.0000 -10761.9085 1478.4524 0.0000 0.0000 1799.2500 -7472.6931 302.7667 -9271.9431 -7521.5465 300.3612 551.7434 639.6670 30370.8912 183.2469 265.7745
ENERGY: 1200000 2.9097 8.5767 9.5525 0.0000 -10857.4684 1488.3323 0.0000 0.0000 1827.3261 -7520.7712 307.4912 -9348.0973 -7515.8763 301.7068 326.6853 404.5054 30304.9002 216.2668 298.0506
ENERGY: 1500000 3.4351 3.9126 4.9529 0.0000 -10745.1982 1413.8035 0.0000 0.0000 1736.1018 -7582.9922 292.1405 -9319.0940 -7521.3651 301.2552 -193.5016 -119.8144 30685.7050 157.9359 234.1080
TCL: Running FEP window  10: Lambda1 0.44999999999999996 Lambda2 0.49999999999999994 [dLambda 0.04999999999999999]
TCL: Setting parameter firsttimestep to 0
TCL: Setting parameter alchLambda to 0.44999999999999996
Info: NONBONDED TABLE R-SQUARED SPACING: 0.0625
Info: NONBONDED TABLE SIZE: 705 POINTS
TCL: Setting parameter alchLambda2 to 0.49999999999999994
Info: NONBONDED TABLE R-SQUARED SPACING: 0.0625
Info: NONBONDED TABLE SIZE: 705 POINTS
TCL: Running for 1500000 steps
ETITLE: TS BOND ANGLE DIHED IMPRP ELECT VDW BOUNDARY MISC KINETIC TOTAL TEMP POTENTIAL TOTALAVG TEMPAVG PRESSURE GPRESSURE VOLUME PRESSAVG GPRESSAVG
ENERGY: 0 3.4351 3.9126 4.9529 0.0000 -10745.1958 1413.0104 0.0000 0.0000 1735.2324 -7584.6523 291.9942 -9319.8847 -7584.6523 291.9942 -203.7908 -119.0651 30685.7050 -203.7908 -119.0651
ENERGY: 300000 3.5777 11.3001 3.4499 0.0000 -10764.9218 1416.3434 0.0000 0.0000 1775.8819 -7554.3687 298.8345 -9330.2507 -7529.1044 297.2337 -340.0657 -327.5803 30584.1754 -50.0554 19.4767
ENERGY: 600000 5.4157 4.7303 1.7847 0.0000 -10840.8682 1519.6914 0.0000 0.0000 1802.9689 -7506.2772 303.3925 -9309.2461 -7528.0208 298.7546 78.9686 210.4160 30867.6032 -68.1046 -1.5484
ENERGY: 900000 5.6349 4.4732 3.3871 0.0000 -10766.0638 1427.5683 0.0000 0.0000 1788.9795 -7536.0208 301.0384 -9325.0003 -7517.3909 300.8535 94.1796 185.4715 29975.9347 2.6930 63.9005
ENERGY: 1200000 3.2958 6.0299 6.9813 0.0000 -10810.3598 1413.7500 0.0000 0.0000 1826.7841 -7553.5186 307.4000 -9380.3028 -7531.3213 301.4286 -431.8695 -372.0976 30631.6690 -45.9044 16.6926
ENERGY: 1500000 6.9543 4.5118 6.3453 0.0000 -10881.9161 1538.4148 0.0000 0.0000 1812.8705 -7512.8194 305.0587 -9325.6899 -7531.6208 300.8831 417.6087 502.5732 30816.5546 -74.4096 -5.3580
TCL: Running FEP window  11: Lambda1 0.49999999999999994 Lambda2 0.5499999999999999 [dLambda 0.04999999999999999]
TCL: Setting parameter firsttimestep to 0
TCL: Setting parameter alchLambda to 0.49999999999999994
Info: NONBONDED TABLE R-SQUARED SPACING: 0.0625
Info: NONBONDED TABLE SIZE: 705 POINTS
TCL: Setting parameter alchLambda2 to 0.5499999999999999
Info: NONBONDED TABLE R-SQUARED SPACING: 0.0625
Info: NONBONDED TABLE SIZE: 705 POINTS
TCL: Running for 1500000 steps
ETITLE: TS BOND ANGLE DIHED IMPRP ELECT VDW BOUNDARY MISC KINETIC TOTAL TEMP POTENTIAL TOTALAVG TEMPAVG PRESSURE GPRESSURE VOLUME PRESSAVG GPRESSAVG
ENERGY: 0 6.9544 4.5118 6.3453 0.0000 -10881.9172 1538.4940 0.0000 0.0000 1811.9818 -7513.6299 304.9091 -9325.6117 -7513.6299 304.9091 419.5850 509.5406 30816.5546 419.5850 509.5406
ENERGY: 300000 4.1052 10.3282 4.5510 0.0000 -10662.3869 1430.1815 0.0000 0.0000 1789.9639 -7423.2571 301.2041 -9213.2210 -7490.5468 301.1726 27.7438 87.8768 30620.3127 4.9342 76.0437
ENERGY: 600000 1.7544 6.0062 8.1143 0.0000 -10736.3156 1465.9286 0.0000 0.0000 1786.0695 -7468.4426 300.5488 -9254.5121 -7494.7473 302.4625 255.9550 338.0893 30841.5762 -83.2603 -11.9783
ENERGY: 900000 3.1125 7.7471 3.3850 0.0000 -10780.7862 1483.0496 0.0000 0.0000 1770.0099 -7513.4821 297.8464 -9283.4921 -7496.3311 301.7586 34.8494 90.4721 31047.1505 -197.6862 -139.2566
ENERGY: 1200000 2.5730 10.3196 5.8203 0.0000 -10858.2306 1492.0312 0.0000 0.0000 1818.0680 -7529.4185 305.9333 -9347.4865 -7510.6862 302.2130 268.1024 385.2122 30805.5089 -106.0223 -43.3499
ENERGY: 1500000 2.1460 7.4972 9.6670 0.0000 -10707.5584 1387.7889 0.0000 0.0000 1784.7614 -7515.6978 300.3286 -9300.4593 -7516.6598 301.5073 -729.3824 -689.4014 31348.4804 -175.0069 -109.4011
TCL: Running FEP window  12: Lambda1 0.5499999999999999 Lambda2 0.6    [dLambda 0.050000000000000044]
TCL: Setting parameter firsttimestep to 0
TCL: Setting parameter alchLambda to 0.5499999999999999
Info: NONBONDED TABLE R-SQUARED SPACING: 0.0625
Info: NONBONDED TABLE SIZE: 705 POINTS
TCL: Setting parameter alchLambda2 to 0.6
Info: NONBONDED TABLE R-SQUARED SPACING: 0.0625
Info: NONBONDED TABLE SIZE: 705 POINTS
TCL: Running for 1500000 steps
ETITLE: TS BOND ANGLE DIHED IMPRP ELECT VDW BOUNDARY MISC KINETIC TOTAL TEMP POTENTIAL TOTALAVG TEMPAVG PRESSURE GPRESSURE VOLUME PRESSAVG GPRESSAVG
ENERGY: 0 2.1460 7.4972 9.6670 0.0000 -10706.6444 1388.8839 0.0000 0.0000 1783.8999 -7514.5503 300.1837 -9298.4502 -7514.5503 300.1837 -744.0107 -668.5119 31348.4804 -744.0107 -668.5119
ENERGY: 300000 4.3969 5.6800 4.2350 0.0000 -10758.9118 1476.0690 0.0000 0.0000 1754.9426 -7513.5883 295.3109 -9268.5309 -7532.9956 297.8325 403.1786 443.1118 30558.5517 -262.4908 -186.8258
ENERGY: 600000 4.9499 2.5647 4.7100 0.0000 -10874.7879 1426.1179 0.0000 0.0000 1806.6420 -7629.8034 304.0106 -9436.4454 -7548.2843 299.1157 -517.2554 -437.7176 30418.4863 -247.0610 -181.0024
ENERGY: 900000 5.6568 5.9874 3.4186 0.0000 -10802.6133 1457.3823 0.0000 0.0000 1822.1745 -7507.9937 306.6243 -9330.1682 -7544.3862 300.9117 -103.0462 23.2656 30378.2278 -92.4438 -21.4284
ENERGY: 1200000 7.6563 5.7086 3.5043 0.0000 -10841.1451 1488.3299 0.0000 0.0000 1825.7428 -7510.2031 307.2247 -9335.9460 -7532.9205 301.6601 79.2293 183.1573 30623.1600 -23.6036 48.7360
ENERGY: 1500000 4.7747 6.7890 2.4776 0.0000 -10769.2679 1475.7516 0.0000 0.0000 1797.4559 -7482.0191 302.4648 -9279.4750 -7538.0368 300.8166 152.8685 144.9717 31040.9440 -16.4926 47.6236
TCL: Running FEP window  13: Lambda1 0.6    Lambda2 0.65   [dLambda 0.050000000000000044]
TCL: Setting parameter firsttimestep to 0
TCL: Setting parameter alchLambda to 0.6
Info: NONBONDED TABLE R-SQUARED SPACING: 0.0625
Info: NONBONDED TABLE SIZE: 705 POINTS
TCL: Setting parameter alchLambda2 to 0.65
Info: NONBONDED TABLE R-SQUARED SPACING: 0.0625
Info: NONBONDED TABLE SIZE: 705 POINTS
TCL: Running for 1500000 steps
ETITLE: TS BOND ANGLE DIHED IMPRP ELECT VDW BOUNDARY MISC KINETIC TOTAL TEMP POTENTIAL TOTALAVG TEMPAVG PRESSURE GPRESSURE VOLUME PRESSAVG GPRESSAVG
ENERGY: 0 4.7747 6.7891 2.4776 0.0000 -10769.0933 1476.1864 0.0000 0.0000 1796.4989 -7482.3666 302.3038 -9278.8655 -7482.3666 302.3038 72.7798 162.1247 31040.9440 72.7798 162.1247
ENERGY: 300000 3.1889 10.1566 6.3832 0.0000 -10885.6364 1513.4883 0.0000 0.0000 1774.5023 -7577.9171 298.6023 -9352.4194 -7530.5617 301.7418 403.7525 522.6308 30568.4961 134.1366 209.4799
ENERGY: 600000 5.0750 3.7545 2.5509 0.0000 -10708.2531 1381.0521 0.0000 0.0000 1801.7506 -7514.0701 303.1875 -9315.8207 -7547.1150 299.8088 -589.6000 -479.0635 30815.7829 -135.8365 -54.0809
ENERGY: 900000 3.3791 8.4158 2.7479 0.0000 -10803.9637 1467.0920 0.0000 0.0000 1795.3699 -7526.9590 302.1138 -9322.3289 -7538.1678 301.5494 161.3115 280.7672 30539.8700 -90.5115 -17.7355
ENERGY: 1200000 2.3104 7.1910 6.6979 0.0000 -10878.1396 1498.6850 0.0000 0.0000 1789.6789 -7573.5765 301.1561 -9363.2553 -7536.3274 301.2777 547.4670 591.3311 30424.1539 -63.3845 12.3676
ENERGY: 1500000 5.3784 6.0143 4.3732 0.0000 -10794.7269 1463.8093 0.0000 0.0000 1783.4390 -7531.7127 300.1061 -9315.1517 -7535.2480 300.9493 42.7012 101.4736 30961.5833 -76.5156 -8.5484
TCL: Running FEP window  14: Lambda1 0.65   Lambda2 0.7000000000000001 [dLambda 0.050000000000000044]
TCL: Setting parameter firsttimestep to 0
TCL: Setting parameter alchLambda to 0.65
Info: NONBONDED TABLE R-SQUARED SPACING: 0.0625
Info: NONBONDED TABLE SIZE: 705 POINTS
TCL: Setting parameter alchLambda2 to 0.7000000000000001
Info: NONBONDED TABLE R-SQUARED SPACING: 0.0625
Info: NONBONDED TABLE SIZE: 705 POINTS
TCL: Running for 1500000 steps
ETITLE: TS BOND ANGLE DIHED IMPRP ELECT VDW BOUNDARY MISC KINETIC TOTAL TEMP POTENTIAL TOTALAVG TEMPAVG PRESSURE GPRESSURE VOLUME PRESSAVG GPRESSAVG
ENERGY: 0 5.3784 6.0143 4.3732 0.0000 -10795.7654 1465.6773 0.0000 0.0000 1782.5675 -7531.7548 299.9595 -9314.3222 -7531.7548 299.9595 47.3305 128.6088 30961.5833 47.3305 128.6088
ENERGY: 300000 6.9210 9.6657 5.6653 0.0000 -10890.9351 1539.9936 0.0000 0.0000 1773.6136 -7555.0759 298.4528 -9328.6895 -7519.5852 301.0082 672.7637 710.4193 30593.8544 120.4770 188.7032
ENERGY: 600000 4.1956 3.5941 5.8470 0.0000 -10841.5911 1517.7093 0.0000 0.0000 1783.1488 -7527.0963 300.0573 -9310.2451 -7522.3832 300.7539 516.4855 515.7727 30738.0325 271.3667 326.3613
ENERGY: 900000 3.1130 6.2146 3.5755 0.0000 -10776.4395 1468.6420 0.0000 0.0000 1853.2077 -7441.6867 311.8464 -9294.8943 -7501.2537 302.8685 275.0662 290.3682 30655.2941 145.5402 202.6796
ENERGY: 1200000 4.2172 8.7019 5.9594 0.0000 -10742.4930 1461.5390 0.0000 0.0000 1792.5300 -7469.5456 301.6359 -9262.0756 -7504.3187 301.8743 306.0845 340.7078 30378.0897 214.1086 265.9072
ENERGY: 1500000 4.7695 4.2037 5.3070 0.0000 -10748.6073 1380.7761 0.0000 0.0000 1855.1949 -7498.3561 312.1808 -9353.5510 -7519.5262 301.9532 -377.9486 -363.2953 30476.4078 112.4004 161.3891
TCL: Running FEP window  15: Lambda1 0.7000000000000001 Lambda2 0.7500000000000001 [dLambda 0.050000000000000044]
TCL: Setting parameter firsttimestep to 0
TCL: Setting parameter alchLambda to 0.7000000000000001
Info: NONBONDED TABLE R-SQUARED SPACING: 0.0625
Info: NONBONDED TABLE SIZE: 705 POINTS
TCL: Setting parameter alchLambda2 to 0.7500000000000001
Info: NONBONDED TABLE R-SQUARED SPACING: 0.0625
Info: NONBONDED TABLE SIZE: 705 POINTS
TCL: Running for 1500000 steps
ETITLE: TS BOND ANGLE DIHED IMPRP ELECT VDW BOUNDARY MISC KINETIC TOTAL TEMP POTENTIAL TOTALAVG TEMPAVG PRESSURE GPRESSURE VOLUME PRESSAVG GPRESSAVG
ENERGY: 0 4.7695 4.2037 5.3070 0.0000 -10748.6025 1380.4734 0.0000 0.0000 1854.3364 -7499.5125 312.0363 -9353.8490 -7499.5125 312.0363 -449.7100 -352.8348 30476.4078 -449.7100 -352.8348
ENERGY: 300000 3.8594 3.5723 5.6657 0.0000 -10665.7995 1347.5509 0.0000 0.0000 1729.0650 -7576.0862 290.9564 -9305.1512 -7539.6848 301.5241 -753.6840 -660.6212 31000.5015 -400.6859 -329.8343
ENERGY: 600000 4.7337 5.8479 1.6758 0.0000 -10711.0791 1373.2273 0.0000 0.0000 1775.7258 -7549.8686 298.8082 -9325.5944 -7534.6969 300.7661 -688.3212 -631.7925 30823.9402 -423.9584 -368.2599
ENERGY: 900000 3.6680 5.6395 9.1454 0.0000 -10708.1896 1413.4407 0.0000 0.0000 1749.1580 -7527.1380 294.3375 -9276.2960 -7536.1176 299.8771 -112.4800 14.9273 30487.1412 -258.7705 -198.2625
ENERGY: 1200000 5.3794 5.8370 7.1424 0.0000 -10850.5854 1468.6992 0.0000 0.0000 1763.0319 -7600.4956 296.6721 -9363.5274 -7559.3552 299.0589 170.9564 254.3633 30450.5600 -295.8318 -228.9126
ENERGY: 1500000 4.9570 7.1046 3.6021 0.0000 -10751.3100 1490.3672 0.0000 0.0000 1774.6343 -7470.6447 298.6245 -9245.2790 -7547.3539 299.0475 283.2151 347.5655 30934.3703 -177.7160 -116.6615
TCL: Running FEP window  16: Lambda1 0.7500000000000001 Lambda2 0.8000000000000002 [dLambda 0.050000000000000044]
TCL: Setting parameter firsttimestep to 0
TCL: Setting parameter alchLambda to 0.7500000000000001
Info: NONBONDED TABLE R-SQUARED SPACING: 0.0625
Info: NONBONDED TABLE SIZE: 705 POINTS
TCL: Setting parameter alchLambda2 to 0.8000000000000002
Info: NONBONDED TABLE R-SQUARED SPACING: 0.0625
Info: NONBONDED TABLE SIZE: 705 POINTS
TCL: Running for 1500000 steps
ETITLE: TS BOND ANGLE DIHED IMPRP ELECT VDW BOUNDARY MISC KINETIC TOTAL TEMP POTENTIAL TOTALAVG TEMPAVG PRESSURE GPRESSURE VOLUME PRESSAVG GPRESSAVG
ENERGY: 0 4.9570 7.1046 3.6021 0.0000 -10752.2542 1491.0171 0.0000 0.0000 1773.7702 -7471.8032 298.4791 -9245.5733 -7471.8032 298.4791 293.5254 366.2762 30934.3703 293.5254 366.2762
ENERGY: 300000 7.1561 4.7652 3.3152 0.0000 -10882.3936 1505.8598 0.0000 0.0000 1780.0536 -7581.2437 299.5364 -9361.2973 -7533.9691 299.2452 170.8387 243.9703 30445.5402 76.4141 113.6803
ENERGY: 600000 2.7474 6.1623 4.8504 0.0000 -10954.1770 1574.6548 0.0000 0.0000 1755.5594 -7610.2027 295.4147 -9365.7620 -7548.0230 298.4618 809.2468 965.7545 30667.3513 65.8105 123.9635
ENERGY: 900000 5.2491 5.7603 5.2416 0.0000 -10770.5257 1471.4236 0.0000 0.0000 1712.6457 -7570.2054 288.1934 -9282.8510 -7544.1978 298.1077 207.9328 303.1170 30718.3407 116.6356 169.2973
ENERGY: 1200000 2.5628 14.2618 3.6188 0.0000 -10783.7079 1426.0930 0.0000 0.0000 1798.9374 -7538.2341 302.7141 -9337.1715 -7540.5642 300.6461 -278.8046 -265.0196 30877.9797 1.3453 49.6345
ENERGY: 1500000 6.3406 7.4540 9.0462 0.0000 -10631.5331 1392.1286 0.0000 0.0000 1823.8618 -7392.7018 306.9082 -9216.5636 -7525.8156 300.3738 -423.0501 -414.1907 31427.1337 -49.1820 -5.2988
TCL: Running FEP window  17: Lambda1 0.8000000000000002 Lambda2 0.8500000000000002 [dLambda 0.050000000000000044]
TCL: Setting parameter firsttimestep to 0
TCL: Setting parameter alchLambda to 0.8000000000000002
Info: NONBONDED TABLE R-SQUARED SPACING: 0.0625
Info: NONBONDED TABLE SIZE: 705 POINTS
TCL: Setting parameter alchLambda2 to 0.8500000000000002
Info: NONBONDED TABLE R-SQUARED SPACING: 0.0625
Info: NONBONDED TABLE SIZE: 705 POINTS
TCL: Running for 1500000 steps
ETITLE: TS BOND ANGLE DIHED IMPRP ELECT VDW BOUNDARY MISC KINETIC TOTAL TEMP POTENTIAL TOTALAVG TEMPAVG PRESSURE GPRESSURE VOLUME PRESSAVG GPRESSAVG
ENERGY: 0 6.3405 7.4540 9.0462 0.0000 -10632.7262 1392.1200 0.0000 0.0000 1822.9735 -7394.7920 306.7587 -9217.7655 -7394.7920 306.7587 -484.8463 -401.1813 31427.1337 -484.8463 -401.1813
ENERGY: 300000 7.4279 3.7677 6.0079 0.0000 -10786.6134 1506.3347 0.0000 0.0000 1773.7936 -7489.2816 298.4830 -9263.0752 -7494.0347 301.2792 963.2067 966.3099 30156.5122 244.6698 299.8992
ENERGY: 600000 3.0060 7.0018 6.7854 0.0000 -10750.1616 1440.4848 0.0000 0.0000 1723.7587 -7569.1249 290.0635 -9292.8836 -7523.0116 300.2824 -354.8884 -215.5795 31187.6391 255.8820 309.9474
ENERGY: 900000 3.3350 5.8767 5.3284 0.0000 -10901.1309 1561.7155 0.0000 0.0000 1805.5856 -7519.2897 303.8328 -9324.8753 -7522.7347 299.9497 866.6490 882.1647 30949.0992 331.1120 374.4911
ENERGY: 1200000 3.9044 5.1257 3.7841 0.0000 -10727.9548 1472.0996 0.0000 0.0000 1760.3340 -7482.7069 296.2182 -9243.0410 -7524.6257 298.5982 502.0434 575.1317 30434.2944 239.0757 285.3271
ENERGY: 1500000 2.9852 3.4444 5.1755 0.0000 -10924.1021 1582.0926 0.0000 0.0000 1733.6551 -7596.7492 291.7288 -9330.4043 -7530.7564 298.4177 1088.9992 1159.1158 30602.8547 228.1391 272.9340
TCL: Running FEP window  18: Lambda1 0.8500000000000002 Lambda2 0.9000000000000002 [dLambda 0.050000000000000044]
TCL: Setting parameter firsttimestep to 0
TCL: Setting parameter alchLambda to 0.8500000000000002
Info: NONBONDED TABLE R-SQUARED SPACING: 0.0625
Info: NONBONDED TABLE SIZE: 705 POINTS
TCL: Setting parameter alchLambda2 to 0.9000000000000002
Info: NONBONDED TABLE R-SQUARED SPACING: 0.0625
Info: NONBONDED TABLE SIZE: 705 POINTS
TCL: Running for 1500000 steps
ETITLE: TS BOND ANGLE DIHED IMPRP ELECT VDW BOUNDARY MISC KINETIC TOTAL TEMP POTENTIAL TOTALAVG TEMPAVG PRESSURE GPRESSURE VOLUME PRESSAVG GPRESSAVG
ENERGY: 0 2.9852 3.4445 5.1755 0.0000 -10924.6052 1582.3149 0.0000 0.0000 1732.7834 -7597.9016 291.5821 -9330.6851 -7597.9016 291.5821 1081.1633 1174.5876 30602.8547 1081.1633 1174.5876
ENERGY: 300000 5.6893 7.1063 3.3999 0.0000 -10861.7125 1426.9409 0.0000 0.0000 1787.2759 -7631.3002 300.7518 -9418.5761 -7584.7766 298.2583 -447.5068 -436.8617 30576.0621 321.7087 382.6863
ENERGY: 600000 3.5565 6.3464 6.5212 0.0000 -10837.7857 1505.5053 0.0000 0.0000 1762.2181 -7553.6381 296.5352 -9315.8562 -7544.9152 298.6675 536.2578 586.6145 30634.6169 233.4243 289.1798
ENERGY: 900000 2.5743 4.9143 10.5440 0.0000 -10825.1150 1508.3676 0.0000 0.0000 1764.4388 -7534.2761 296.9089 -9298.7148 -7542.5176 297.4802 611.8245 677.4848 30508.7119 174.2435 236.2820
ENERGY: 1200000 2.4631 7.4492 2.5610 0.0000 -10790.2033 1405.7304 0.0000 0.0000 1815.2361 -7556.7635 305.4567 -9371.9996 -7528.2749 299.2605 -285.7290 -227.2307 30462.2254 183.8555 237.9244
ENERGY: 1500000 4.6451 2.4717 2.8632 0.0000 -10939.7907 1590.5168 0.0000 0.0000 1764.7649 -7574.5290 296.9637 -9339.2938 -7532.6504 299.0148 977.7166 1023.4770 30583.8866 248.2273 297.6671
TCL: Running FEP window  19: Lambda1 0.9000000000000002 Lambda2 0.9500000000000003 [dLambda 0.050000000000000044]
TCL: Setting parameter firsttimestep to 0
TCL: Setting parameter alchLambda to 0.9000000000000002
Info: NONBONDED TABLE R-SQUARED SPACING: 0.0625
Info: NONBONDED TABLE SIZE: 705 POINTS
TCL: Setting parameter alchLambda2 to 0.9500000000000003
Info: NONBONDED TABLE R-SQUARED SPACING: 0.0625
Info: NONBONDED TABLE SIZE: 705 POINTS
TCL: Running for 1500000 steps
ETITLE: TS BOND ANGLE DIHED IMPRP ELECT VDW BOUNDARY MISC KINETIC TOTAL TEMP POTENTIAL TOTALAVG TEMPAVG PRESSURE GPRESSURE VOLUME PRESSAVG GPRESSAVG
ENERGY: 0 4.6451 2.4717 2.8632 0.0000 -10941.2056 1590.9036 0.0000 0.0000 1763.8772 -7576.4448 296.8144 -9340.3220 -7576.4448 296.8144 956.2772 1041.8575 30583.8866 956.2772 1041.8575
ENERGY: 300000 5.4676 3.6878 4.5686 0.0000 -10746.7193 1387.4565 0.0000 0.0000 1804.5392 -7540.9997 303.6567 -9345.5389 -7544.0899 301.4119 -726.7140 -638.2119 30918.2791 -112.9886 -37.7136
ENERGY: 600000 6.2468 8.7433 5.1519 0.0000 -10745.0773 1460.6849 0.0000 0.0000 1788.6971 -7475.5532 300.9909 -9264.2503 -7550.8374 301.5839 -26.1623 66.5312 30903.2905 -109.8442 -35.8323
ENERGY: 900000 2.6293 7.6511 3.1725 0.0000 -10710.6483 1437.5698 0.0000 0.0000 1815.6749 -7443.9507 305.5306 -9259.6257 -7536.4273 301.7777 230.8241 315.1596 30700.7161 -17.5165 54.1771
ENERGY: 1200000 6.0567 7.9442 4.6361 0.0000 -10731.9799 1362.7544 0.0000 0.0000 1754.4290 -7596.1596 295.2245 -9350.5885 -7543.9264 300.9116 -907.5362 -867.1106 31167.2482 -96.5612 -32.8894
ENERGY: 1500000 7.6619 2.6729 5.5305 0.0000 -10568.4834 1425.2385 0.0000 0.0000 1780.4632 -7346.9164 299.6054 -9127.3796 -7541.6414 300.3078 118.0465 166.8753 31123.8099 -44.4028 19.5117
TCL: Running FEP window  20: Lambda1 0.9500000000000003 Lambda2 1.0    [dLambda 0.04999999999999971]
TCL: Setting parameter firsttimestep to 0
TCL: Setting parameter alchLambda to 0.9500000000000003
Info: NONBONDED TABLE R-SQUARED SPACING: 0.0625
Info: NONBONDED TABLE SIZE: 705 POINTS
TCL: Setting parameter alchLambda2 to 1.0
Info: NONBONDED TABLE R-SQUARED SPACING: 0.0625
Info: NONBONDED TABLE SIZE: 705 POINTS
TCL: Running for 1500000 steps
ETITLE: TS BOND ANGLE DIHED IMPRP ELECT VDW BOUNDARY MISC KINETIC TOTAL TEMP POTENTIAL TOTALAVG TEMPAVG PRESSURE GPRESSURE VOLUME PRESSAVG GPRESSAVG
ENERGY: 0 7.6619 2.6729 5.5305 0.0000 -10570.5850 1426.9293 0.0000 0.0000 1779.5376 -7348.2528 299.4496 -9127.7904 -7348.2528 299.4496 122.0989 198.4731 31123.8099 122.0989 198.4731
ENERGY: 300000 2.7707 6.1080 3.6304 0.0000 -10700.5404 1428.5482 0.0000 0.0000 1785.1462 -7474.3369 300.3934 -9259.4831 -7425.1863 303.7602 -90.9972 30.1084 30890.8980 -216.5592 -135.0796
ENERGY: 600000 1.8202 4.4471 5.4658 0.0000 -10869.3535 1524.4168 0.0000 0.0000 1801.3313 -7531.8723 303.1169 -9333.2036 -7472.5566 303.4587 656.2238 747.0546 30730.0963 -73.7152 5.0904
ENERGY: 900000 2.8348 2.2363 3.6903 0.0000 -10847.8117 1467.9481 0.0000 0.0000 1806.2423 -7564.8599 303.9433 -9371.1022 -7490.0852 301.7739 393.5744 397.6436 30350.5255 -180.7076 -111.5264
ENERGY: 1200000 7.0149 6.9791 5.0538 0.0000 -10725.5478 1397.0121 0.0000 0.0000 1765.8606 -7543.6274 297.1481 -9309.4879 -7497.8631 302.6519 -244.2440 -200.1386 30452.7452 -149.5291 -80.1278
ENERGY: 1500000 6.1083 4.9889 3.6131 0.0000 -10831.7502 1447.1632 0.0000 0.0000 1728.9108 -7640.9660 290.9304 -9369.8767 -7520.9290 300.8157 -252.9248 -186.0387 30665.8303 -176.4091 -106.8504
TCL: Exiting due to exit command.
