Info: SIMULATION PARAMETERS:
Info: TIMESTEP               2
Info: NUMBER OF STEPS        0
Info: STEPS PER CYCLE        10
Info: PERIODIC CELL BASIS 1  31.7013 0 0
Info: PERIODIC CELL BASIS 2  0 29.9354 0
Info: PERIODIC CELL BASIS 3  0 0 31.6296
Info: PERIODIC CELL CENTER   0 0 0
Info: WRAPPING WATERS AROUND PERIODIC BOUNDARIES ON OUTPUT.
Info: WRAPPING ALL CLUSTERS AROUND PERIODIC BOUNDARIES ON OUTPUT.
Info: FIRST LDB TIMESTEP     50
Info: LAST LDB TIMESTEP     -1
Info: HOM BACKGROUND SCALING 1
Info: PME BACKGROUND SCALING 1
Info: MIN ATOMS PER PATCH    40
Info: EMPTY PATCH LOAD       40 ATOMS
Info: VELOCITY FILE          mobley_1417007_equil.vel
Info: CENTER OF MASS MOVING INITIALLY? NO
Info: DIELECTRIC             1
Info: EXCLUDE                SCALED ONE-FOUR
Info: 1-4 ELECTROSTATICS SCALED BY 0.833333
Info: MODIFIED 1-4 VDW PARAMETERS WILL BE USED
Info: DCD FILENAME           mobley_1417007_prod.dcd
Info: DCD FREQUENCY          100000
Info: DCD FIRST STEP         100000
Info: DCD FILE WILL CONTAIN UNIT CELL DATA
Info: XST FILENAME           mobley_1417007_prod.xst
Info: XST FREQUENCY          100000
Info: NO VELOCITY DCD OUTPUT
Info: NO FORCE DCD OUTPUT
Info: OUTPUT FILENAME        mobley_1417007_prod
Info: BINARY OUTPUT FILES WILL BE USED
Info: RESTART FILENAME       mobley_1417007_prod.restart
Info: RESTART FREQUENCY      100000
Info: BINARY RESTART FILES WILL BE USED
Info: CUTOFF                 9
Info: PAIRLIST DISTANCE      11
Info: PAIRLIST SHRINK RATE   0.01
Info: PAIRLIST GROW RATE     0.01
Info: PAIRLIST TRIGGER       0.3
Info: PAIRLISTS PER CYCLE    2
Info: PAIRLISTS ENABLED
Info: MARGIN                 2
Info: HYDROGEN GROUP CUTOFF  2.5
Info: PATCH DIMENSION        15.5
Info: ENERGY OUTPUT STEPS    100000
Info: ENERGY EVALUATION STEPS    100000
Info: OUTPUT ENERGY PRECISION 4
Info: CROSSTERM ENERGY INCLUDED IN DIHEDRAL
Info: TIMING OUTPUT STEPS    1000000
Info: PRESSURE OUTPUT STEPS  100000
Info: ALCHEMICAL FEP ON
Info: FEP CURRENT LAMBDA VALUE     0
Info: FEP COMPARISON LAMBDA VALUE  0.05
Info: FEP INTRA-ALCHEMICAL NON-BONDED INTERACTIONS WILL BE RETAINED
Info: FEP INTRA-ALCHEMICAL BONDED INTERACTIONS WILL BE RETAINED
Info: FEP VDW SHIFTING COEFFICIENT 5
Info: FEP ELEC. ACTIVE FOR ANNIHILATED PARTICLES BETWEEN LAMBDA = 0 AND LAMBDA = 0.5
Info: FEP ELEC. ACTIVE FOR EXNIHILATED PARTICLES BETWEEN LAMBDA = 0.5 AND LAMBDA = 1
Info: FEP VDW ACTIVE FOR ANNIHILATED PARTICLES BETWEEN LAMBDA = 0 AND LAMBDA = 1
Info: FEP VDW ACTIVE FOR EXNIHILATED PARTICLES BETWEEN LAMBDA = 0 AND LAMBDA = 1
Info: FEP BOND ACTIVE FOR ANNIHILATED PARTICLES BETWEEN LAMBDA = 1 AND LAMBDA = 1
Info: FEP BOND ACTIVE FOR EXNIHILATED PARTICLES BETWEEN LAMBDA = 0 AND LAMBDA = 0
Info: LANGEVIN DYNAMICS ACTIVE
Info: LANGEVIN TEMPERATURE   300
Info: LANGEVIN USING BBK INTEGRATOR
Info: LANGEVIN DAMPING COEFFICIENT IS 1 INVERSE PS
Info: LANGEVIN DYNAMICS APPLIED TO HYDROGENS
Info: LANGEVIN PISTON PRESSURE CONTROL ACTIVE
Info:        TARGET PRESSURE IS 1.01325 BAR
Info:     OSCILLATION PERIOD IS 50 FS
Info:             DECAY TIME IS 25 FS
Info:     PISTON TEMPERATURE IS 300 K
Info:       PRESSURE CONTROL IS GROUP-BASED
Info:    INITIAL STRAIN RATE IS 6.53733e-05 6.53733e-05 6.53733e-05
Info:       CELL FLUCTUATION IS ISOTROPIC
Info: PARTICLE MESH EWALD (PME) ACTIVE
Info: PME TOLERANCE               1e-06
Info: PME EWALD COEFFICIENT       0.348832
Info: PME INTERPOLATION ORDER     4
Info: PME GRID DIMENSIONS         32 32 32
Info: PME MAXIMUM GRID SPACING    1
Info: PME CALCULATION WILL BE PERFORMED ON GPU
Info: FULL ELECTROSTATIC EVALUATION FREQUENCY      2
Info: USING VERLET I (r-RESPA) MTS SCHEME.
Info: C1 SPLITTING OF LONG RANGE ELECTROSTATICS
Info: PLACING ATOMS IN PATCHES BY HYDROGEN GROUPS
Info: RIGID BONDS TO HYDROGEN : ALL
Info:         ERROR TOLERANCE : 1e-08
Info:          MAX ITERATIONS : 100
Info: RIGID WATER USING SETTLE ALGORITHM
Info: RANDOM NUMBER SEED     1743804068
Info: USE HYDROGEN BONDS?    NO
Info: Using AMBER format force field!
Info: AMBER PARM FILE        mobley_1417007.prmtop
Info: COORDINATE PDB         mobley_1417007.pdb
Info: Exclusions will be read from PARM file!
Info: SCNB (VDW SCALING)     2
Info: USING ARITHMETIC MEAN TO COMBINE L-J SIGMA PARAMETERS
Info: BINARY COORDINATES     mobley_1417007_equil.coor
Info: SUMMARY OF PARAMETERS:
Info: 13 BONDS
Info: 18 ANGLES
Info:   18 HARMONIC
Info:   0 COSINE-BASED
Info: 21 DIHEDRAL
Info: 0 IMPROPER
Info: 0 CROSSTERM
Info: 0 VDW
Info: 55 VDW_PAIRS
Info: 0 NBTHOLE_PAIRS
Info: To read alchdata from file: mobley_1417007.pdb
Info: To read alchflag data from column: 5
Info: STRUCTURE SUMMARY:
Info: 2940 ATOMS
Info: 2941 BONDS
Info: 46 ANGLES
Info: 92 DIHEDRALS
Info: 0 IMPROPERS
Info: 0 CROSSTERMS
Info: 3047 EXCLUSIONS
Info: 2924 RIGID BONDS
Info: ALCH: 0 ATOMS TO DISAPPEAR IN FINAL STATE
Info: ALCH: 24 ATOMS TO APPEAR IN FINAL STATE
Info: 5896 DEGREES OF FREEDOM
Info: 988 HYDROGEN GROUPS
Info: 3 ATOMS IN LARGEST HYDROGEN GROUP
Info: 988 MIGRATION GROUPS
Info: 3 ATOMS IN LARGEST MIGRATION GROUP
Info: TOTAL MASS = 17812.1 amu
Info: TOTAL CHARGE = -9.99868e-05 e
Info: MASS DENSITY = 0.985417 g/cm^3
Info: ATOM DENSITY = 0.0979473 atoms/A^3
Info: ADDED 0 IMPLICIT EXCLUSIONS
Info: NONBONDED TABLE R-SQUARED SPACING: 0.0625
Info: NONBONDED TABLE SIZE: 705 POINTS
Info: REMOVING COM VELOCITY 0.0617229 -0.155527 -0.256942
Info: Use 3D box decompostion in PME FFT.
Info: Updated CUDA force table with 4096 elements.
Info: Updated CUDA LJ table with 10 x 10 elements.
Info: Found 26 unique exclusion lists needing 76 bytes
TCL: Running for 1500000 steps
ETITLE: TS BOND ANGLE DIHED IMPRP ELECT VDW BOUNDARY MISC KINETIC TOTAL TEMP POTENTIAL TOTALAVG TEMPAVG PRESSURE GPRESSURE VOLUME PRESSAVG GPRESSAVG
ENERGY: 0 6.1969 27.9748 11.9849 0.0000 -10697.1775 1460.1364 0.0000 0.0000 1737.7564 -7453.1281 296.6346 -9190.8845 -7453.1281 296.6346 209.6770 276.4269 30016.1404 209.6770 276.4269
ENERGY: 300000 4.8820 23.9459 10.2574 0.0000 -10707.3908 1370.9058 0.0000 0.0000 1753.6779 -7543.7217 299.3524 -9297.3996 -7447.8291 301.4284 -666.1132 -595.5428 29497.3595 -312.3623 -259.6251
ENERGY: 600000 8.0072 28.0782 9.4660 0.0000 -10581.6811 1380.6372 0.0000 0.0000 1809.0169 -7346.4756 308.7988 -9155.4925 -7439.1325 300.7055 45.1101 110.3040 29765.3752 -361.2615 -309.6736
ENERGY: 900000 8.1963 24.5090 9.3582 0.0000 -10622.9796 1391.4600 0.0000 0.0000 1708.2801 -7481.1761 291.6030 -9189.4562 -7454.3977 298.3659 -182.2656 -161.1011 29914.6236 -330.9146 -276.7648
ENERGY: 1200000 5.0924 21.7096 11.4916 0.0000 -10844.6583 1543.8673 0.0000 0.0000 1732.5839 -7529.9135 295.7516 -9262.4973 -7445.3454 298.4521 476.0412 538.6895 29994.1661 -199.5323 -144.6993
ENERGY: 1500000 4.3877 22.3138 9.4739 0.0000 -10568.9724 1375.9383 0.0000 0.0000 1764.3986 -7392.4600 301.1824 -9156.8586 -7436.6010 299.0839 -248.1550 -159.5839 29879.1000 -173.8563 -113.3315
TCL: Running FEP window   2: Lambda1 0.05   Lambda2 0.1    [dLambda 0.05  ]
TCL: Setting parameter firsttimestep to 0
TCL: Setting parameter alchLambda to 0.05
Info: NONBONDED TABLE R-SQUARED SPACING: 0.0625
Info: NONBONDED TABLE SIZE: 705 POINTS
TCL: Setting parameter alchLambda2 to 0.1
Info: NONBONDED TABLE R-SQUARED SPACING: 0.0625
Info: NONBONDED TABLE SIZE: 705 POINTS
TCL: Running for 1500000 steps
ETITLE: TS BOND ANGLE DIHED IMPRP ELECT VDW BOUNDARY MISC KINETIC TOTAL TEMP POTENTIAL TOTALAVG TEMPAVG PRESSURE GPRESSURE VOLUME PRESSAVG GPRESSAVG
ENERGY: 0 4.3877 22.3138 9.4739 0.0000 -10568.9725 1382.1563 0.0000 0.0000 1763.5354 -7387.1053 301.0351 -9150.6407 -7387.1053 301.0351 -227.9920 -148.0003 29879.1000 -227.9920 -148.0003
ENERGY: 300000 4.6488 23.6204 11.4151 0.0000 -10655.0104 1384.1607 0.0000 0.0000 1782.4286 -7448.7368 304.2601 -9231.1654 -7400.6821 304.2406 -723.2900 -709.8657 30470.8121 -386.1674 -316.3096
ENERGY: 600000 9.0830 29.5536 11.3945 0.0000 -10697.4351 1473.0649 0.0000 0.0000 1774.9658 -7399.3732 302.9862 -9174.3390 -7423.8388 302.4610 -124.7082 -60.6213 30233.7731 -297.5318 -233.9834
ENERGY: 900000 6.6545 26.0267 11.9708 0.0000 -10601.9511 1366.6877 0.0000 0.0000 1710.8444 -7479.7670 292.0407 -9190.6114 -7434.5674 300.0756 -876.8893 -757.1992 30151.3693 -290.1054 -221.8024
ENERGY: 1200000 7.0857 31.8451 10.7500 0.0000 -10747.1966 1499.8453 0.0000 0.0000 1764.2494 -7433.4211 301.1569 -9197.6705 -7428.9042 301.3376 512.8997 510.2512 29957.4568 -212.7922 -153.6024
ENERGY: 1500000 4.0904 28.0264 12.5264 0.0000 -10708.4265 1469.8179 0.0000 0.0000 1748.7402 -7445.2251 298.5095 -9193.9653 -7435.4255 300.9088 453.7932 463.7805 29879.6073 -137.3168 -79.5974
TCL: Running FEP window   3: Lambda1 0.1    Lambda2 0.15000000000000002 [dLambda 0.05000000000000002]
TCL: Setting parameter firsttimestep to 0
TCL: Setting parameter alchLambda to 0.1
Info: NONBONDED TABLE R-SQUARED SPACING: 0.0625
Info: NONBONDED TABLE SIZE: 705 POINTS
TCL: Setting parameter alchLambda2 to 0.15000000000000002
Info: NONBONDED TABLE R-SQUARED SPACING: 0.0625
Info: NONBONDED TABLE SIZE: 705 POINTS
TCL: Running for 1500000 steps
ETITLE: TS BOND ANGLE DIHED IMPRP ELECT VDW BOUNDARY MISC KINETIC TOTAL TEMP POTENTIAL TOTALAVG TEMPAVG PRESSURE GPRESSURE VOLUME PRESSAVG GPRESSAVG
ENERGY: 0 4.0904 28.0264 12.5264 0.0000 -10708.4241 1476.7077 0.0000 0.0000 1747.8535 -7439.2196 298.3582 -9187.0731 -7439.2196 298.3582 394.2107 488.5546 29879.6073 394.2107 488.5546
ENERGY: 300000 2.6632 27.3397 12.0036 0.0000 -10767.0405 1460.7072 0.0000 0.0000 1744.9202 -7519.4068 297.8575 -9264.3270 -7480.8024 298.1537 93.7581 153.0185 30069.2912 60.0984 114.8710
ENERGY: 600000 5.7192 21.7871 11.4376 0.0000 -10773.2936 1526.0167 0.0000 0.0000 1801.3637 -7406.9693 307.4923 -9208.3330 -7447.1985 299.3240 936.0430 972.3325 30031.7853 155.6786 212.9816
ENERGY: 900000 4.6823 23.7562 10.8229 0.0000 -10635.6162 1354.5932 0.0000 0.0000 1733.2644 -7508.4971 295.8678 -9241.7616 -7454.0603 299.3797 -796.4785 -739.9331 29968.1156 32.6440 87.3961
ENERGY: 1200000 4.2978 27.5303 10.3825 0.0000 -10483.1490 1279.7074 0.0000 0.0000 1795.6578 -7365.5732 306.5184 -9161.2311 -7437.6188 300.7075 -1390.9194 -1328.5684 30663.7200 -127.1152 -71.3712
ENERGY: 1500000 7.5171 27.4470 11.1552 0.0000 -10678.4214 1476.4007 0.0000 0.0000 1793.0487 -7362.8529 306.0730 -9155.9016 -7441.1656 300.3645 477.7911 534.2231 30176.9660 -73.4776 -17.9076
TCL: Running FEP window   4: Lambda1 0.15000000000000002 Lambda2 0.2    [dLambda 0.04999999999999999]
TCL: Setting parameter firsttimestep to 0
TCL: Setting parameter alchLambda to 0.15000000000000002
Info: NONBONDED TABLE R-SQUARED SPACING: 0.0625
Info: NONBONDED TABLE SIZE: 705 POINTS
TCL: Setting parameter alchLambda2 to 0.2
Info: NONBONDED TABLE R-SQUARED SPACING: 0.0625
Info: NONBONDED TABLE SIZE: 705 POINTS
TCL: Running for 1500000 steps
ETITLE: TS BOND ANGLE DIHED IMPRP ELECT VDW BOUNDARY MISC KINETIC TOTAL TEMP POTENTIAL TOTALAVG TEMPAVG PRESSURE GPRESSURE VOLUME PRESSAVG GPRESSAVG
ENERGY: 0 7.5171 27.4470 11.1551 0.0000 -10678.4220 1476.6289 0.0000 0.0000 1792.1438 -7363.5301 305.9185 -9155.6739 -7363.5301 305.9185 476.0927 540.6535 30176.9660 476.0927 540.6535
ENERGY: 300000 5.6534 24.7484 14.1325 0.0000 -10632.6553 1396.6206 0.0000 0.0000 1762.4963 -7429.0041 300.8577 -9191.5004 -7397.6243 303.1276 -248.5410 -228.7062 30062.7098 -64.8028 -2.7563
ENERGY: 600000 6.8484 26.7322 8.8494 0.0000 -10513.6212 1336.1383 0.0000 0.0000 1763.2363 -7371.8164 300.9840 -9135.0528 -7406.1974 300.8276 -546.5444 -488.5777 30331.9103 -136.3199 -73.4916
ENERGY: 900000 6.3022 26.4054 11.6137 0.0000 -10565.6938 1335.9041 0.0000 0.0000 1719.8911 -7465.5773 293.5850 -9185.4684 -7413.7571 301.0884 -873.2565 -834.4948 30099.8038 -165.4980 -101.0910
ENERGY: 1200000 6.1732 29.6629 9.4615 0.0000 -10799.0387 1509.2644 0.0000 0.0000 1781.9442 -7462.5325 304.1775 -9244.4768 -7416.8617 302.3425 729.5588 778.2237 29930.1888 -104.3157 -48.0452
ENERGY: 1500000 6.2477 25.8320 8.9959 0.0000 -10649.0736 1453.8809 0.0000 0.0000 1722.6433 -7431.4736 294.0548 -9154.1170 -7414.3922 301.1662 270.6643 326.8279 30287.5937 -41.7857 14.1867
TCL: Running FEP window   5: Lambda1 0.2    Lambda2 0.25   [dLambda 0.04999999999999999]
TCL: Setting parameter firsttimestep to 0
TCL: Setting parameter alchLambda to 0.2
Info: NONBONDED TABLE R-SQUARED SPACING: 0.0625
Info: NONBONDED TABLE SIZE: 705 POINTS
TCL: Setting parameter alchLambda2 to 0.25
Info: NONBONDED TABLE R-SQUARED SPACING: 0.0625
Info: NONBONDED TABLE SIZE: 705 POINTS
TCL: Running for 1500000 steps
ETITLE: TS BOND ANGLE DIHED IMPRP ELECT VDW BOUNDARY MISC KINETIC TOTAL TEMP POTENTIAL TOTALAVG TEMPAVG PRESSURE GPRESSURE VOLUME PRESSAVG GPRESSAVG
ENERGY: 0 6.2477 25.8320 8.9959 0.0000 -10649.0747 1454.1734 0.0000 0.0000 1721.7690 -7432.0566 293.9056 -9153.8256 -7432.0566 293.9056 258.6814 332.6595 30287.5937 258.6814 332.6595
ENERGY: 300000 7.6295 20.7921 11.7770 0.0000 -10809.5816 1489.9089 0.0000 0.0000 1754.7605 -7524.7136 299.5372 -9279.4741 -7433.6446 298.9342 404.7674 481.9671 29663.7197 229.1028 283.9204
ENERGY: 600000 3.4207 26.3928 11.2127 0.0000 -10777.6929 1497.7347 0.0000 0.0000 1795.6816 -7443.2504 306.5224 -9238.9320 -7435.4953 300.9754 282.2864 357.9141 29877.9628 59.5584 115.9582
ENERGY: 900000 11.3895 26.5325 9.2043 0.0000 -10582.5776 1428.6389 0.0000 0.0000 1747.2942 -7359.5182 298.2627 -9106.8124 -7419.3079 300.6881 49.0267 107.1011 29729.3670 95.5488 157.8503
ENERGY: 1200000 7.6363 26.1880 9.5936 0.0000 -10658.7261 1484.3584 0.0000 0.0000 1808.7774 -7322.1724 308.7579 -9130.9498 -7414.2583 301.7180 152.9203 212.7346 30757.6351 200.4649 261.9621
ENERGY: 1500000 4.7416 26.7371 11.1709 0.0000 -10567.9236 1391.9703 0.0000 0.0000 1810.9045 -7322.3991 309.1210 -9133.3036 -7395.8074 302.3595 26.0092 129.4107 30047.1760 204.2603 271.4015
TCL: Running FEP window   6: Lambda1 0.25   Lambda2 0.3    [dLambda 0.04999999999999999]
TCL: Setting parameter firsttimestep to 0
TCL: Setting parameter alchLambda to 0.25
Info: NONBONDED TABLE R-SQUARED SPACING: 0.0625
Info: NONBONDED TABLE SIZE: 705 POINTS
TCL: Setting parameter alchLambda2 to 0.3
Info: NONBONDED TABLE R-SQUARED SPACING: 0.0625
Info: NONBONDED TABLE SIZE: 705 POINTS
TCL: Running for 1500000 steps
ETITLE: TS BOND ANGLE DIHED IMPRP ELECT VDW BOUNDARY MISC KINETIC TOTAL TEMP POTENTIAL TOTALAVG TEMPAVG PRESSURE GPRESSURE VOLUME PRESSAVG GPRESSAVG
ENERGY: 0 4.7416 26.7371 11.1709 0.0000 -10567.9248 1392.9431 0.0000 0.0000 1810.0299 -7322.3020 308.9717 -9132.3319 -7322.3020 308.9717 49.0968 141.2753 30047.1760 49.0968 141.2753
ENERGY: 300000 9.1682 25.3292 10.1572 0.0000 -10677.0947 1471.3303 0.0000 0.0000 1740.0103 -7421.0995 297.0193 -9161.1098 -7401.8436 303.4913 295.6467 338.7719 29556.7042 -4.7055 51.2508
ENERGY: 600000 5.9097 23.0515 9.3333 0.0000 -10657.0124 1393.5602 0.0000 0.0000 1792.2144 -7432.9433 305.9306 -9225.1577 -7407.0259 303.8772 -580.2217 -506.3896 30627.4482 -230.1255 -173.3045
ENERGY: 900000 5.1909 23.4580 9.5236 0.0000 -10685.9983 1486.1389 0.0000 0.0000 1783.6569 -7378.0301 304.4698 -9161.6870 -7405.8193 303.5357 555.1758 678.4520 30280.3371 -42.7239 11.6428
ENERGY: 1200000 7.5035 20.6866 13.8170 0.0000 -10617.9949 1418.0811 0.0000 0.0000 1737.8678 -7420.0388 296.6536 -9157.9066 -7405.3629 303.5510 -255.7204 -169.1741 30388.5321 -71.7920 -10.1742
ENERGY: 1500000 3.5740 22.1795 9.8587 0.0000 -10651.9169 1499.8081 0.0000 0.0000 1749.5541 -7366.9425 298.6485 -9116.4966 -7400.3473 302.8663 630.9246 697.1145 30409.2266 -41.1492 23.3208
TCL: Running FEP window   7: Lambda1 0.3    Lambda2 0.35   [dLambda 0.04999999999999999]
TCL: Setting parameter firsttimestep to 0
TCL: Setting parameter alchLambda to 0.3
Info: NONBONDED TABLE R-SQUARED SPACING: 0.0625
Info: NONBONDED TABLE SIZE: 705 POINTS
TCL: Setting parameter alchLambda2 to 0.35
Info: NONBONDED TABLE R-SQUARED SPACING: 0.0625
Info: NONBONDED TABLE SIZE: 705 POINTS
TCL: Running for 1500000 steps
ETITLE: TS BOND ANGLE DIHED IMPRP ELECT VDW BOUNDARY MISC KINETIC TOTAL TEMP POTENTIAL TOTALAVG TEMPAVG PRESSURE GPRESSURE VOLUME PRESSAVG GPRESSAVG
ENERGY: 0 3.5740 22.1795 9.8587 0.0000 -10651.9146 1499.0805 0.0000 0.0000 1748.7019 -7368.5200 298.5030 -9117.2219 -7368.5200 298.5030 617.2999 699.6266 30409.2266 617.2999 699.6266
ENERGY: 300000 6.7039 20.4630 11.4264 0.0000 -10632.5392 1417.0060 0.0000 0.0000 1724.4110 -7452.5289 294.3565 -9176.9399 -7440.8589 297.3253 -181.0325 -168.7180 29957.8235 47.6301 104.1170
ENERGY: 600000 7.7093 23.3037 11.5260 0.0000 -10566.9787 1334.1807 0.0000 0.0000 1703.4515 -7486.8073 290.7788 -9190.2588 -7459.5720 296.1257 -996.8544 -990.2797 30633.6033 -49.9552 5.6696
ENERGY: 900000 4.5749 22.6753 10.9709 0.0000 -10660.7617 1489.9889 0.0000 0.0000 1748.7410 -7383.8106 298.5097 -9132.5516 -7427.4570 297.4214 517.4112 537.5462 30458.6777 -146.1069 -89.7197
ENERGY: 1200000 3.0271 22.2875 10.9992 0.0000 -10629.5074 1368.9178 0.0000 0.0000 1804.7185 -7419.5574 308.0650 -9224.2759 -7423.3509 298.7233 -405.4907 -353.9091 30014.2216 -117.8981 -59.0787
ENERGY: 1500000 6.1769 24.9248 11.1809 0.0000 -10774.1301 1475.4130 0.0000 0.0000 1745.9723 -7510.4622 298.0371 -9256.4346 -7423.9854 299.3196 289.5116 354.5538 29991.3605 10.3790 68.0098
TCL: Running FEP window   8: Lambda1 0.35   Lambda2 0.39999999999999997 [dLambda 0.04999999999999999]
TCL: Setting parameter firsttimestep to 0
TCL: Setting parameter alchLambda to 0.35
Info: NONBONDED TABLE R-SQUARED SPACING: 0.0625
Info: NONBONDED TABLE SIZE: 705 POINTS
TCL: Setting parameter alchLambda2 to 0.39999999999999997
Info: NONBONDED TABLE R-SQUARED SPACING: 0.0625
Info: NONBONDED TABLE SIZE: 705 POINTS
TCL: Running for 1500000 steps
ETITLE: TS BOND ANGLE DIHED IMPRP ELECT VDW BOUNDARY MISC KINETIC TOTAL TEMP POTENTIAL TOTALAVG TEMPAVG PRESSURE GPRESSURE VOLUME PRESSAVG GPRESSAVG
ENERGY: 0 6.1769 24.9248 11.1809 0.0000 -10774.1307 1474.8843 0.0000 0.0000 1745.1247 -7511.8391 297.8924 -9256.9638 -7511.8391 297.8924 274.8510 358.9214 29991.3605 274.8510 358.9214
ENERGY: 300000 3.7775 26.3650 10.6563 0.0000 -10722.7301 1490.8629 0.0000 0.0000 1739.8219 -7451.2463 296.9872 -9191.0683 -7469.1409 298.2829 605.1052 665.9821 30177.6221 122.3200 183.3307
ENERGY: 600000 5.7010 22.2768 10.2769 0.0000 -10740.0941 1479.8663 0.0000 0.0000 1777.9213 -7444.0519 303.4907 -9221.9732 -7449.5861 301.4434 304.5906 426.3813 30255.5708 129.0295 204.8804
ENERGY: 900000 2.2723 23.9252 11.8961 0.0000 -10612.0918 1447.4513 0.0000 0.0000 1716.9559 -7409.5910 293.0840 -9126.5469 -7436.6279 299.7871 84.8375 109.4796 30668.1535 15.1917 90.0597
ENERGY: 1200000 8.8447 22.5026 10.9365 0.0000 -10675.8652 1366.8355 0.0000 0.0000 1775.4931 -7491.2527 303.0762 -9266.7458 -7442.6859 299.6095 -895.3716 -902.2017 30330.1308 -45.7457 20.7221
ENERGY: 1500000 6.4488 25.4767 10.5628 0.0000 -10564.2261 1399.6734 0.0000 0.0000 1749.2311 -7372.8333 298.5933 -9122.0644 -7432.1898 300.5515 -219.5561 -110.5767 30396.3624 -74.5832 -3.7092
TCL: Running FEP window   9: Lambda1 0.39999999999999997 Lambda2 0.44999999999999996 [dLambda 0.04999999999999999]
TCL: Setting parameter firsttimestep to 0
TCL: Setting parameter alchLambda to 0.39999999999999997
Info: NONBONDED TABLE R-SQUARED SPACING: 0.0625
Info: NONBONDED TABLE SIZE: 705 POINTS
TCL: Setting parameter alchLambda2 to 0.44999999999999996
Info: NONBONDED TABLE R-SQUARED SPACING: 0.0625
Info: NONBONDED TABLE SIZE: 705 POINTS
TCL: Running for 1500000 steps
ETITLE: TS BOND ANGLE DIHED IMPRP ELECT VDW BOUNDARY MISC KINETIC TOTAL TEMP POTENTIAL TOTALAVG TEMPAVG PRESSURE GPRESSURE VOLUME PRESSAVG GPRESSAVG
ENERGY: 0 6.4488 25.4767 10.5628 0.0000 -10564.2269 1399.7352 0.0000 0.0000 1748.3346 -7373.6689 298.4403 -9122.0035 -7373.6689 298.4403 -188.0967 -100.8814 30396.3624 -188.0967 -100.8814
ENERGY: 300000 6.6732 30.3708 10.5869 0.0000 -10634.6026 1421.9693 0.0000 0.0000 1807.7825 -7357.2199 308.5880 -9165.0025 -7398.4882 300.9593 118.6679 223.4768 29910.8277 -32.9216 56.3152
ENERGY: 600000 7.4618 22.9102 10.8534 0.0000 -10795.9141 1549.0967 0.0000 0.0000 1740.4063 -7465.1857 297.0869 -9205.5920 -7417.6701 300.9034 1090.3138 1097.8007 29922.8425 108.4713 180.4606
ENERGY: 900000 2.2632 31.4645 10.2709 0.0000 -10496.8539 1332.2254 0.0000 0.0000 1751.6843 -7368.9455 299.0121 -9120.6298 -7409.8170 300.2905 -728.6021 -691.4235 30447.5170 -63.5275 6.6348
ENERGY: 1200000 7.0069 25.2404 15.0441 0.0000 -10603.2830 1456.1110 0.0000 0.0000 1753.0424 -7346.8382 299.2439 -9099.8806 -7404.0710 300.2635 269.3458 330.8208 30325.9195 -26.9194 37.5962
ENERGY: 1500000 5.5497 24.7322 10.7169 0.0000 -10547.2934 1379.2837 0.0000 0.0000 1770.5644 -7356.4465 302.2349 -9127.0108 -7404.8042 300.1890 -354.6247 -346.4629 30558.9468 -51.2874 10.0522
TCL: Running FEP window  10: Lambda1 0.44999999999999996 Lambda2 0.49999999999999994 [dLambda 0.04999999999999999]
TCL: Setting parameter firsttimestep to 0
TCL: Setting parameter alchLambda to 0.44999999999999996
Info: NONBONDED TABLE R-SQUARED SPACING: 0.0625
Info: NONBONDED TABLE SIZE: 705 POINTS
TCL: Setting parameter alchLambda2 to 0.49999999999999994
Info: NONBONDED TABLE R-SQUARED SPACING: 0.0625
Info: NONBONDED TABLE SIZE: 705 POINTS
TCL: Running for 1500000 steps
ETITLE: TS BOND ANGLE DIHED IMPRP ELECT VDW BOUNDARY MISC KINETIC TOTAL TEMP POTENTIAL TOTALAVG TEMPAVG PRESSURE GPRESSURE VOLUME PRESSAVG GPRESSAVG
ENERGY: 0 5.5496 24.7322 10.7169 0.0000 -10547.2931 1378.8404 0.0000 0.0000 1769.6950 -7357.7589 302.0865 -9127.4539 -7357.7589 302.0865 -420.0802 -340.6522 30558.9468 -420.0802 -340.6522
ENERGY: 300000 6.8366 24.6205 8.1646 0.0000 -10673.4030 1466.0255 0.0000 0.0000 1743.5867 -7424.1691 297.6298 -9167.7558 -7390.6614 300.8481 539.0322 524.6315 29898.1196 12.9243 43.6794
ENERGY: 600000 5.7275 25.6228 12.3128 0.0000 -10654.2842 1422.2906 0.0000 0.0000 1737.7697 -7450.5607 296.6369 -9188.3304 -7400.8958 299.1316 100.5877 120.5228 30065.9462 -88.9724 -63.2767
ENERGY: 900000 7.7100 24.3335 10.8512 0.0000 -10702.2091 1436.2906 0.0000 0.0000 1816.5684 -7406.4553 310.0878 -9223.0237 -7417.2328 298.8254 35.8499 135.9690 30292.5176 -201.1982 -167.4899
ENERGY: 1200000 7.9100 26.9525 10.2393 0.0000 -10616.6839 1379.7530 0.0000 0.0000 1762.2279 -7429.6011 300.8119 -9191.8291 -7423.5132 299.0863 -494.8517 -473.2516 30405.6953 -213.8059 -172.7486
ENERGY: 1500000 7.2394 29.4425 11.1838 0.0000 -10660.5053 1442.9816 0.0000 0.0000 1780.2458 -7389.4121 303.8875 -9169.6579 -7426.5808 299.6977 43.4281 107.5445 30413.7986 -190.8672 -150.1949
TCL: Running FEP window  11: Lambda1 0.49999999999999994 Lambda2 0.5499999999999999 [dLambda 0.04999999999999999]
TCL: Setting parameter firsttimestep to 0
TCL: Setting parameter alchLambda to 0.49999999999999994
Info: NONBONDED TABLE R-SQUARED SPACING: 0.0625
Info: NONBONDED TABLE SIZE: 705 POINTS
TCL: Setting parameter alchLambda2 to 0.5499999999999999
Info: NONBONDED TABLE R-SQUARED SPACING: 0.0625
Info: NONBONDED TABLE SIZE: 705 POINTS
TCL: Running for 1500000 steps
ETITLE: TS BOND ANGLE DIHED IMPRP ELECT VDW BOUNDARY MISC KINETIC TOTAL TEMP POTENTIAL TOTALAVG TEMPAVG PRESSURE GPRESSURE VOLUME PRESSAVG GPRESSAVG
ENERGY: 0 7.2394 29.4425 11.1838 0.0000 -10660.5061 1443.1506 0.0000 0.0000 1779.3682 -7390.1216 303.7377 -9169.4898 -7390.1216 303.7377 27.1454 116.0067 30413.7986 27.1454 116.0067
ENERGY: 300000 8.5954 27.8479 11.4948 0.0000 -10630.6383 1426.8165 0.0000 0.0000 1796.2705 -7359.6132 306.6229 -9155.8837 -7409.5723 305.0799 -81.1393 20.9888 30175.3912 -167.8462 -90.4656
ENERGY: 600000 9.4248 26.6045 9.6006 0.0000 -10586.6569 1395.9336 0.0000 0.0000 1735.7081 -7409.3852 296.2850 -9145.0933 -7405.7878 302.9065 -98.5355 -43.2719 30156.2692 -14.3632 42.1654
ENERGY: 900000 6.3501 23.6959 10.8762 0.0000 -10564.8267 1359.6164 0.0000 0.0000 1768.5689 -7395.7191 301.8943 -9164.2881 -7410.7649 301.1774 -436.3868 -382.5209 30484.7216 -2.7872 58.8569
ENERGY: 1200000 7.1551 22.8747 12.1771 0.0000 -10699.3196 1497.4164 0.0000 0.0000 1796.9933 -7362.7030 306.7463 -9159.6963 -7407.9240 301.4038 733.1769 754.7910 30414.2326 60.3725 124.7304
ENERGY: 1500000 8.3957 21.4633 9.6663 0.0000 -10684.6550 1403.8876 0.0000 0.0000 1727.8283 -7513.4138 294.9399 -9241.2420 -7412.4000 301.0437 -381.7881 -362.5800 29969.6710 37.1571 98.7971
TCL: Running FEP window  12: Lambda1 0.5499999999999999 Lambda2 0.6    [dLambda 0.050000000000000044]
TCL: Setting parameter firsttimestep to 0
TCL: Setting parameter alchLambda to 0.5499999999999999
Info: NONBONDED TABLE R-SQUARED SPACING: 0.0625
Info: NONBONDED TABLE SIZE: 705 POINTS
TCL: Setting parameter alchLambda2 to 0.6
Info: NONBONDED TABLE R-SQUARED SPACING: 0.0625
Info: NONBONDED TABLE SIZE: 705 POINTS
TCL: Running for 1500000 steps
ETITLE: TS BOND ANGLE DIHED IMPRP ELECT VDW BOUNDARY MISC KINETIC TOTAL TEMP POTENTIAL TOTALAVG TEMPAVG PRESSURE GPRESSURE VOLUME PRESSAVG GPRESSAVG
ENERGY: 0 8.3957 21.4633 9.6663 0.0000 -10684.7481 1403.6370 0.0000 0.0000 1726.9492 -7514.6366 294.7898 -9241.5859 -7514.6366 294.7898 -445.6551 -352.9153 29969.6710 -445.6551 -352.9153
ENERGY: 300000 4.9738 29.8175 10.9578 0.0000 -10558.1825 1337.2263 0.0000 0.0000 1724.9427 -7450.2644 294.4473 -9175.2071 -7413.4466 297.7153 -672.4370 -590.4439 30344.5648 -213.2755 -133.4248
ENERGY: 600000 3.9558 22.3570 10.2258 0.0000 -10546.5772 1344.4549 0.0000 0.0000 1734.3476 -7431.2360 296.0527 -9165.5836 -7431.2344 298.1854 -443.3506 -485.6425 30256.0964 -58.4830 12.7100
ENERGY: 900000 4.1609 24.6292 11.5409 0.0000 -10843.9388 1561.7912 0.0000 0.0000 1746.1362 -7495.6804 298.0650 -9241.8165 -7442.7947 298.1366 1226.9784 1286.8735 29472.7705 34.2579 91.9533
ENERGY: 1200000 4.1746 26.1023 10.2313 0.0000 -10863.9183 1567.0546 0.0000 0.0000 1753.0853 -7503.2701 299.2512 -9256.3554 -7464.9188 296.6432 1077.7333 1125.8003 29959.8980 131.2640 187.7933
ENERGY: 1500000 4.1852 25.5033 9.9997 0.0000 -10596.8976 1392.4363 0.0000 0.0000 1836.9309 -7327.8421 313.5637 -9164.7731 -7450.5738 298.1370 -223.4044 -137.0050 30622.9325 76.6961 134.5962
TCL: Running FEP window  13: Lambda1 0.6    Lambda2 0.65   [dLambda 0.050000000000000044]
TCL: Setting parameter firsttimestep to 0
TCL: Setting parameter alchLambda to 0.6
Info: NONBONDED TABLE R-SQUARED SPACING: 0.0625
Info: NONBONDED TABLE SIZE: 705 POINTS
TCL: Setting parameter alchLambda2 to 0.65
Info: NONBONDED TABLE R-SQUARED SPACING: 0.0625
Info: NONBONDED TABLE SIZE: 705 POINTS
TCL: Running for 1500000 steps
ETITLE: TS BOND ANGLE DIHED IMPRP ELECT VDW BOUNDARY MISC KINETIC TOTAL TEMP POTENTIAL TOTALAVG TEMPAVG PRESSURE GPRESSURE VOLUME PRESSAVG GPRESSAVG
ENERGY: 0 4.1852 25.5033 9.9997 0.0000 -10596.7841 1392.5704 0.0000 0.0000 1836.0794 -7328.4461 313.4183 -9164.5255 -7328.4461 313.4183 -192.1210 -122.2152 30622.9325 -192.1210 -122.2152
ENERGY: 300000 4.3226 22.6180 11.7705 0.0000 -10763.3518 1436.6129 0.0000 0.0000 1785.1087 -7502.9192 304.7176 -9288.0278 -7415.6674 304.6587 -52.4669 14.3785 30037.4652 70.8332 127.0418
ENERGY: 600000 5.8910 26.9559 8.6834 0.0000 -10727.9771 1508.0628 0.0000 0.0000 1771.2197 -7407.1643 302.3468 -9178.3840 -7434.2911 302.1445 1027.5798 1121.3974 29773.1882 252.4920 315.2083
ENERGY: 900000 3.9457 22.3522 9.9955 0.0000 -10590.5640 1365.7302 0.0000 0.0000 1748.5535 -7439.9868 298.4777 -9188.5403 -7417.5287 301.7377 -506.7521 -453.5694 30307.4971 185.2086 254.4413
ENERGY: 1200000 3.8525 27.0448 11.1535 0.0000 -10591.6575 1411.8369 0.0000 0.0000 1786.8836 -7350.8862 305.0206 -9137.7698 -7417.5685 302.3162 12.7036 61.1761 30350.4535 23.2244 86.1467
ENERGY: 1500000 7.1447 24.4777 9.4110 0.0000 -10538.3793 1357.5448 0.0000 0.0000 1751.2552 -7388.5460 298.9388 -9139.8012 -7413.9992 301.6626 -534.0297 -541.3434 30328.1488 -28.2991 28.0486
TCL: Running FEP window  14: Lambda1 0.65   Lambda2 0.7000000000000001 [dLambda 0.050000000000000044]
TCL: Setting parameter firsttimestep to 0
TCL: Setting parameter alchLambda to 0.65
Info: NONBONDED TABLE R-SQUARED SPACING: 0.0625
Info: NONBONDED TABLE SIZE: 705 POINTS
TCL: Setting parameter alchLambda2 to 0.7000000000000001
Info: NONBONDED TABLE R-SQUARED SPACING: 0.0625
Info: NONBONDED TABLE SIZE: 705 POINTS
TCL: Running for 1500000 steps
ETITLE: TS BOND ANGLE DIHED IMPRP ELECT VDW BOUNDARY MISC KINETIC TOTAL TEMP POTENTIAL TOTALAVG TEMPAVG PRESSURE GPRESSURE VOLUME PRESSAVG GPRESSAVG
ENERGY: 0 7.1447 24.4777 9.4110 0.0000 -10539.0003 1357.2414 0.0000 0.0000 1750.3888 -7390.3368 298.7909 -9140.7255 -7390.3368 298.7909 -617.2346 -533.0648 30328.1488 -617.2346 -533.0648
ENERGY: 300000 5.2892 23.7948 9.6841 0.0000 -10559.7896 1382.6382 0.0000 0.0000 1716.4636 -7421.9198 292.9999 -9138.3834 -7430.3403 298.7542 -423.7837 -303.4922 30481.3353 -566.2188 -480.7201
ENERGY: 600000 7.8495 24.1363 8.4102 0.0000 -10609.2185 1447.9425 0.0000 0.0000 1771.8704 -7349.0097 302.4578 -9120.8800 -7418.8411 301.1464 483.8861 573.8412 30667.8107 -244.2215 -166.9528
ENERGY: 900000 6.2092 22.6939 11.5521 0.0000 -10487.1606 1353.4964 0.0000 0.0000 1694.7466 -7398.4624 289.2928 -9093.2090 -7424.1694 300.1387 -536.1372 -452.7629 30512.0845 -114.3493 -38.8598
ENERGY: 1200000 4.2631 22.9197 10.4206 0.0000 -10630.7755 1416.2302 0.0000 0.0000 1723.3969 -7453.5449 294.1834 -9176.9418 -7424.8701 300.9528 -115.4184 -90.9148 30626.9447 -121.3609 -60.5015
ENERGY: 1500000 4.0356 23.0039 10.1823 0.0000 -10780.1229 1521.1312 0.0000 0.0000 1745.7186 -7476.0513 297.9938 -9221.7699 -7431.7245 299.6494 1252.3253 1329.8832 29841.4963 -32.6790 29.1599
TCL: Running FEP window  15: Lambda1 0.7000000000000001 Lambda2 0.7500000000000001 [dLambda 0.050000000000000044]
TCL: Setting parameter firsttimestep to 0
TCL: Setting parameter alchLambda to 0.7000000000000001
Info: NONBONDED TABLE R-SQUARED SPACING: 0.0625
Info: NONBONDED TABLE SIZE: 705 POINTS
TCL: Setting parameter alchLambda2 to 0.7500000000000001
Info: NONBONDED TABLE R-SQUARED SPACING: 0.0625
Info: NONBONDED TABLE SIZE: 705 POINTS
TCL: Running for 1500000 steps
ETITLE: TS BOND ANGLE DIHED IMPRP ELECT VDW BOUNDARY MISC KINETIC TOTAL TEMP POTENTIAL TOTALAVG TEMPAVG PRESSURE GPRESSURE VOLUME PRESSAVG GPRESSAVG
ENERGY: 0 4.0356 23.0039 10.1823 0.0000 -10780.9422 1521.8288 0.0000 0.0000 1744.8552 -7477.0364 297.8464 -9221.8916 -7477.0364 297.8464 1260.1598 1350.8493 29841.4963 1260.1598 1350.8493
ENERGY: 300000 5.7072 24.5127 12.0905 0.0000 -10604.3940 1393.6393 0.0000 0.0000 1738.2909 -7430.1534 296.7258 -9168.4444 -7433.3361 298.9958 -36.0799 -30.1139 30145.3834 186.1290 255.7720
ENERGY: 600000 8.8572 26.9585 11.1303 0.0000 -10647.1217 1428.9279 0.0000 0.0000 1844.9726 -7326.2751 314.9364 -9171.2477 -7424.7731 301.9412 195.9533 329.2643 30320.0843 138.1352 230.3706
ENERGY: 900000 4.4452 24.7624 13.7041 0.0000 -10700.7666 1463.9158 0.0000 0.0000 1729.6691 -7464.2701 295.2541 -9193.9392 -7427.4085 301.0598 -27.3663 7.9445 30750.8824 216.2242 292.4984
ENERGY: 1200000 3.3279 25.2693 10.4324 0.0000 -10639.3707 1423.0182 0.0000 0.0000 1770.6452 -7406.6778 302.2487 -9177.3230 -7415.1429 302.0687 257.1663 266.5260 29994.8742 173.4772 245.7275
ENERGY: 1500000 7.0865 26.1727 14.0051 0.0000 -10638.0391 1350.1752 0.0000 0.0000 1808.2974 -7432.3021 308.6759 -9240.5995 -7408.7668 302.4402 -647.3758 -665.3859 30244.9632 107.4849 173.7510
TCL: Running FEP window  16: Lambda1 0.7500000000000001 Lambda2 0.8000000000000002 [dLambda 0.050000000000000044]
TCL: Setting parameter firsttimestep to 0
TCL: Setting parameter alchLambda to 0.7500000000000001
Info: NONBONDED TABLE R-SQUARED SPACING: 0.0625
Info: NONBONDED TABLE SIZE: 705 POINTS
TCL: Setting parameter alchLambda2 to 0.8000000000000002
Info: NONBONDED TABLE R-SQUARED SPACING: 0.0625
Info: NONBONDED TABLE SIZE: 705 POINTS
TCL: Running for 1500000 steps
ETITLE: TS BOND ANGLE DIHED IMPRP ELECT VDW BOUNDARY MISC KINETIC TOTAL TEMP POTENTIAL TOTALAVG TEMPAVG PRESSURE GPRESSURE VOLUME PRESSAVG GPRESSAVG
ENERGY: 0 7.0865 26.1727 14.0051 0.0000 -10639.3614 1349.5434 0.0000 0.0000 1807.4083 -7435.1455 308.5242 -9242.5537 -7435.1455 308.5242 -731.6024 -657.5793 30244.9632 -731.6024 -657.5793
ENERGY: 300000 3.0499 23.8259 9.0484 0.0000 -10403.8510 1309.0313 0.0000 0.0000 1766.8068 -7292.0886 301.5935 -9058.8954 -7417.9744 301.8171 -549.4987 -503.8912 30561.1076 -229.3255 -179.7516
ENERGY: 600000 4.3031 22.3381 9.7131 0.0000 -10621.0801 1417.6431 0.0000 0.0000 1755.3945 -7411.6882 299.6454 -9167.0827 -7432.0913 300.8086 175.9754 214.7219 30250.8807 -220.2766 -171.9768
ENERGY: 900000 5.8089 23.3630 12.2478 0.0000 -10538.4925 1414.7821 0.0000 0.0000 1790.2737 -7292.0169 305.5993 -9082.2906 -7427.9740 300.7662 -118.9512 -92.4696 30997.1141 -127.3617 -75.2271
ENERGY: 1200000 2.2799 32.0956 11.0892 0.0000 -10650.9294 1457.0856 0.0000 0.0000 1791.8785 -7356.5005 305.8732 -9148.3790 -7433.8843 300.5600 599.6535 639.0235 30166.3226 -105.5789 -58.4454
ENERGY: 1500000 4.4248 26.9622 10.2526 0.0000 -10817.4796 1498.4576 0.0000 0.0000 1763.6432 -7513.7392 301.0535 -9277.3824 -7431.7101 301.0824 57.1271 98.3136 30790.2373 -101.6442 -49.6514
TCL: Running FEP window  17: Lambda1 0.8000000000000002 Lambda2 0.8500000000000002 [dLambda 0.050000000000000044]
TCL: Setting parameter firsttimestep to 0
TCL: Setting parameter alchLambda to 0.8000000000000002
Info: NONBONDED TABLE R-SQUARED SPACING: 0.0625
Info: NONBONDED TABLE SIZE: 705 POINTS
TCL: Setting parameter alchLambda2 to 0.8500000000000002
Info: NONBONDED TABLE R-SQUARED SPACING: 0.0625
Info: NONBONDED TABLE SIZE: 705 POINTS
TCL: Running for 1500000 steps
ETITLE: TS BOND ANGLE DIHED IMPRP ELECT VDW BOUNDARY MISC KINETIC TOTAL TEMP POTENTIAL TOTALAVG TEMPAVG PRESSURE GPRESSURE VOLUME PRESSAVG GPRESSAVG
ENERGY: 0 4.4248 26.9622 10.2526 0.0000 -10818.4774 1498.7323 0.0000 0.0000 1762.7632 -7515.3424 300.9032 -9278.1055 -7515.3424 300.9032 38.7503 114.1792 30790.2373 38.7503 114.1792
ENERGY: 300000 4.4440 22.8946 11.9811 0.0000 -10670.3324 1429.4852 0.0000 0.0000 1806.2559 -7395.2716 308.3274 -9201.5275 -7443.6292 299.5851 306.5452 378.9511 29767.0774 200.4087 268.9082
ENERGY: 600000 7.1866 24.0686 11.9417 0.0000 -10760.3370 1467.5893 0.0000 0.0000 1742.9021 -7506.6487 297.5130 -9249.5508 -7459.8461 298.3097 -28.7999 -53.9779 30844.7195 23.1827 78.4329
ENERGY: 900000 2.2645 24.8783 9.9568 0.0000 -10812.5303 1529.5264 0.0000 0.0000 1787.6264 -7458.2779 305.1474 -9245.9044 -7452.6824 298.4663 826.3163 829.6909 30239.5455 79.8946 122.3745
ENERGY: 1200000 6.4759 26.5505 11.6080 0.0000 -10666.5003 1423.8456 0.0000 0.0000 1722.5602 -7475.4601 294.0406 -9198.0202 -7451.9380 297.8958 99.0431 209.1407 30006.7855 61.0690 106.1024
ENERGY: 1500000 4.1042 26.2019 10.4422 0.0000 -10694.4353 1441.2559 0.0000 0.0000 1728.5914 -7483.8397 295.0701 -9212.4311 -7451.4860 298.4295 326.1131 339.5032 30256.6009 84.3337 127.0621
TCL: Running FEP window  18: Lambda1 0.8500000000000002 Lambda2 0.9000000000000002 [dLambda 0.050000000000000044]
TCL: Setting parameter firsttimestep to 0
TCL: Setting parameter alchLambda to 0.8500000000000002
Info: NONBONDED TABLE R-SQUARED SPACING: 0.0625
Info: NONBONDED TABLE SIZE: 705 POINTS
TCL: Setting parameter alchLambda2 to 0.9000000000000002
Info: NONBONDED TABLE R-SQUARED SPACING: 0.0625
Info: NONBONDED TABLE SIZE: 705 POINTS
TCL: Running for 1500000 steps
ETITLE: TS BOND ANGLE DIHED IMPRP ELECT VDW BOUNDARY MISC KINETIC TOTAL TEMP POTENTIAL TOTALAVG TEMPAVG PRESSURE GPRESSURE VOLUME PRESSAVG GPRESSAVG
ENERGY: 0 4.1042 26.2019 10.4422 0.0000 -10696.3564 1442.1150 0.0000 0.0000 1727.7431 -7485.7500 294.9253 -9213.4931 -7485.7500 294.9253 283.7538 362.7090 30256.6009 283.7538 362.7090
ENERGY: 300000 5.3413 22.8894 8.9985 0.0000 -10635.6569 1388.0309 0.0000 0.0000 1746.5809 -7463.8159 298.1409 -9210.3968 -7474.3788 298.3428 -340.0645 -259.5599 30232.1374 -48.4154 21.5432
ENERGY: 600000 1.4871 22.8680 9.0282 0.0000 -10651.4201 1487.4226 0.0000 0.0000 1740.9638 -7389.6504 297.1821 -9130.6142 -7446.9379 300.4177 831.1453 917.4875 30231.6167 27.2266 98.1179
ENERGY: 900000 5.0949 25.8672 12.1896 0.0000 -10659.0441 1412.2052 0.0000 0.0000 1797.4439 -7406.2433 306.8232 -9203.6872 -7439.9595 300.6675 287.9416 251.7357 29899.5889 -42.1613 8.0832
ENERGY: 1200000 2.3187 29.9375 9.8371 0.0000 -10708.0768 1409.8435 0.0000 0.0000 1756.5406 -7499.5993 299.8411 -9256.1399 -7449.9327 300.2174 -176.9899 -58.4477 30007.3016 -85.1269 -29.7017
ENERGY: 1500000 4.3965 24.7292 12.0047 0.0000 -10756.6693 1551.4175 0.0000 0.0000 1779.6337 -7384.4876 303.7830 -9164.1213 -7443.3802 300.9437 1208.4639 1318.3896 30226.9023 43.6043 100.5469
TCL: Running FEP window  19: Lambda1 0.9000000000000002 Lambda2 0.9500000000000003 [dLambda 0.050000000000000044]
TCL: Setting parameter firsttimestep to 0
TCL: Setting parameter alchLambda to 0.9000000000000002
Info: NONBONDED TABLE R-SQUARED SPACING: 0.0625
Info: NONBONDED TABLE SIZE: 705 POINTS
TCL: Setting parameter alchLambda2 to 0.9500000000000003
Info: NONBONDED TABLE R-SQUARED SPACING: 0.0625
Info: NONBONDED TABLE SIZE: 705 POINTS
TCL: Running for 1500000 steps
ETITLE: TS BOND ANGLE DIHED IMPRP ELECT VDW BOUNDARY MISC KINETIC TOTAL TEMP POTENTIAL TOTALAVG TEMPAVG PRESSURE GPRESSURE VOLUME PRESSAVG GPRESSAVG
ENERGY: 0 4.3965 24.7292 12.0047 0.0000 -10758.2580 1551.5075 0.0000 0.0000 1778.7566 -7386.8634 303.6333 -9165.6200 -7386.8634 303.6333 1244.1560 1335.6620 30226.9023 1244.1560 1335.6620
ENERGY: 300000 5.3661 26.2551 11.0151 0.0000 -10556.7182 1326.7841 0.0000 0.0000 1760.8185 -7426.4793 300.5713 -9187.2978 -7415.4229 300.9973 -715.8960 -693.0586 30670.1693 121.2539 187.9049
ENERGY: 600000 9.2694 24.8267 11.2781 0.0000 -10460.9188 1305.6739 0.0000 0.0000 1721.8826 -7387.9880 293.9250 -9109.8707 -7417.6971 300.6141 -1047.2023 -1039.4897 31430.6978 -137.5666 -73.8656
ENERGY: 900000 6.9570 24.4398 9.5636 0.0000 -10773.7093 1504.4950 0.0000 0.0000 1775.7036 -7452.5503 303.1122 -9228.2539 -7435.2334 300.6490 622.6558 745.7956 30421.9396 35.6568 110.2263
ENERGY: 1200000 6.6639 26.9092 9.3595 0.0000 -10634.4762 1414.0539 0.0000 0.0000 1733.7278 -7443.7619 295.9469 -9177.4897 -7441.3111 299.7633 85.4910 154.7025 30549.8639 67.0311 138.9434
ENERGY: 1500000 4.4060 19.9730 10.0402 0.0000 -10683.2632 1409.0817 0.0000 0.0000 1753.9887 -7485.7735 299.4055 -9239.7622 -7439.6634 299.5945 -203.1102 -106.0799 30311.5170 -52.7586 19.8204
TCL: Running FEP window  20: Lambda1 0.9500000000000003 Lambda2 1.0    [dLambda 0.04999999999999971]
TCL: Setting parameter firsttimestep to 0
TCL: Setting parameter alchLambda to 0.9500000000000003
Info: NONBONDED TABLE R-SQUARED SPACING: 0.0625
Info: NONBONDED TABLE SIZE: 705 POINTS
TCL: Setting parameter alchLambda2 to 1.0
Info: NONBONDED TABLE R-SQUARED SPACING: 0.0625
Info: NONBONDED TABLE SIZE: 705 POINTS
TCL: Running for 1500000 steps
ETITLE: TS BOND ANGLE DIHED IMPRP ELECT VDW BOUNDARY MISC KINETIC TOTAL TEMP POTENTIAL TOTALAVG TEMPAVG PRESSURE GPRESSURE VOLUME PRESSAVG GPRESSAVG
ENERGY: 0 4.4060 19.9730 10.0402 0.0000 -10684.7919 1408.5392 0.0000 0.0000 1753.1379 -7488.6956 299.2602 -9241.8334 -7488.6956 299.2602 -190.4694 -99.7944 30311.5170 -190.4694 -99.7944
ENERGY: 300000 6.3950 23.5567 10.9321 0.0000 -10692.4252 1420.4558 0.0000 0.0000 1742.1922 -7488.8934 297.3918 -9231.0856 -7422.1084 301.1634 -269.4913 -267.8700 30653.2199 -73.4390 -32.9642
ENERGY: 600000 5.9200 28.1714 10.7962 0.0000 -10682.0894 1426.4793 0.0000 0.0000 1764.0139 -7446.7087 301.1167 -9210.7226 -7427.1450 299.4609 99.5469 201.8726 29947.4029 56.4148 123.6291
ENERGY: 900000 5.8709 24.5511 10.0950 0.0000 -10652.6046 1378.8157 0.0000 0.0000 1771.2961 -7461.9758 302.3598 -9233.2719 -7452.0952 299.0432 -573.7467 -545.9686 30421.4898 -39.6735 21.9002
ENERGY: 1200000 7.1503 27.1080 10.2344 0.0000 -10659.6730 1420.4621 0.0000 0.0000 1720.3293 -7474.3890 293.6598 -9194.7183 -7448.4111 298.7405 -396.9779 -249.9614 30642.0162 -9.9984 55.3012
ENERGY: 1500000 6.6183 27.8865 12.2495 0.0000 -10758.5372 1430.1023 0.0000 0.0000 1699.9697 -7581.7108 290.1844 -9281.6805 -7463.6430 298.1762 -164.6989 -111.2615 30152.8212 -58.7113 4.8021
TCL: Exiting due to exit command.
