Info: SIMULATION PARAMETERS:
Info: TIMESTEP               2
Info: NUMBER OF STEPS        0
Info: STEPS PER CYCLE        10
Info: PERIODIC CELL BASIS 1  31.9067 0 0
Info: PERIODIC CELL BASIS 2  0 30.4577 0
Info: PERIODIC CELL BASIS 3  0 0 32.1815
Info: PERIODIC CELL CENTER   0 0 0
Info: WRAPPING WATERS AROUND PERIODIC BOUNDARIES ON OUTPUT.
Info: WRAPPING ALL CLUSTERS AROUND PERIODIC BOUNDARIES ON OUTPUT.
Info: FIRST LDB TIMESTEP     50
Info: LAST LDB TIMESTEP     -1
Info: HOM BACKGROUND SCALING 1
Info: PME BACKGROUND SCALING 1
Info: MIN ATOMS PER PATCH    40
Info: EMPTY PATCH LOAD       40 ATOMS
Info: VELOCITY FILE          mobley_313406_equil.vel
Info: CENTER OF MASS MOVING INITIALLY? NO
Info: DIELECTRIC             1
Info: EXCLUDE                SCALED ONE-FOUR
Info: 1-4 ELECTROSTATICS SCALED BY 0.833333
Info: MODIFIED 1-4 VDW PARAMETERS WILL BE USED
Info: DCD FILENAME           mobley_313406_prod.dcd
Info: DCD FREQUENCY          100000
Info: DCD FIRST STEP         100000
Info: DCD FILE WILL CONTAIN UNIT CELL DATA
Info: XST FILENAME           mobley_313406_prod.xst
Info: XST FREQUENCY          100000
Info: NO VELOCITY DCD OUTPUT
Info: NO FORCE DCD OUTPUT
Info: OUTPUT FILENAME        mobley_313406_prod
Info: BINARY OUTPUT FILES WILL BE USED
Info: RESTART FILENAME       mobley_313406_prod.restart
Info: RESTART FREQUENCY      100000
Info: BINARY RESTART FILES WILL BE USED
Info: CUTOFF                 9
Info: PAIRLIST DISTANCE      11
Info: PAIRLIST SHRINK RATE   0.01
Info: PAIRLIST GROW RATE     0.01
Info: PAIRLIST TRIGGER       0.3
Info: PAIRLISTS PER CYCLE    2
Info: PAIRLISTS ENABLED
Info: MARGIN                 2
Info: HYDROGEN GROUP CUTOFF  2.5
Info: PATCH DIMENSION        15.5
Info: ENERGY OUTPUT STEPS    100000
Info: ENERGY EVALUATION STEPS    100000
Info: OUTPUT ENERGY PRECISION 4
Info: CROSSTERM ENERGY INCLUDED IN DIHEDRAL
Info: TIMING OUTPUT STEPS    1000000
Info: PRESSURE OUTPUT STEPS  100000
Info: ALCHEMICAL FEP ON
Info: FEP CURRENT LAMBDA VALUE     0
Info: FEP COMPARISON LAMBDA VALUE  0.05
Info: FEP INTRA-ALCHEMICAL NON-BONDED INTERACTIONS WILL BE RETAINED
Info: FEP INTRA-ALCHEMICAL BONDED INTERACTIONS WILL BE RETAINED
Info: FEP VDW SHIFTING COEFFICIENT 5
Info: FEP ELEC. ACTIVE FOR ANNIHILATED PARTICLES BETWEEN LAMBDA = 0 AND LAMBDA = 0.5
Info: FEP ELEC. ACTIVE FOR EXNIHILATED PARTICLES BETWEEN LAMBDA = 0.5 AND LAMBDA = 1
Info: FEP VDW ACTIVE FOR ANNIHILATED PARTICLES BETWEEN LAMBDA = 0 AND LAMBDA = 1
Info: FEP VDW ACTIVE FOR EXNIHILATED PARTICLES BETWEEN LAMBDA = 0 AND LAMBDA = 1
Info: FEP BOND ACTIVE FOR ANNIHILATED PARTICLES BETWEEN LAMBDA = 1 AND LAMBDA = 1
Info: FEP BOND ACTIVE FOR EXNIHILATED PARTICLES BETWEEN LAMBDA = 0 AND LAMBDA = 0
Info: LANGEVIN DYNAMICS ACTIVE
Info: LANGEVIN TEMPERATURE   300
Info: LANGEVIN USING BBK INTEGRATOR
Info: LANGEVIN DAMPING COEFFICIENT IS 1 INVERSE PS
Info: LANGEVIN DYNAMICS APPLIED TO HYDROGENS
Info: LANGEVIN PISTON PRESSURE CONTROL ACTIVE
Info:        TARGET PRESSURE IS 1.01325 BAR
Info:     OSCILLATION PERIOD IS 50 FS
Info:             DECAY TIME IS 25 FS
Info:     PISTON TEMPERATURE IS 300 K
Info:       PRESSURE CONTROL IS GROUP-BASED
Info:    INITIAL STRAIN RATE IS 0.000276702 0.000276702 0.000276702
Info:       CELL FLUCTUATION IS ISOTROPIC
Info: PARTICLE MESH EWALD (PME) ACTIVE
Info: PME TOLERANCE               1e-06
Info: PME EWALD COEFFICIENT       0.348832
Info: PME INTERPOLATION ORDER     4
Info: PME GRID DIMENSIONS         32 32 36
Info: PME MAXIMUM GRID SPACING    1
Info: PME CALCULATION WILL BE PERFORMED ON GPU
Info: FULL ELECTROSTATIC EVALUATION FREQUENCY      2
Info: USING VERLET I (r-RESPA) MTS SCHEME.
Info: C1 SPLITTING OF LONG RANGE ELECTROSTATICS
Info: PLACING ATOMS IN PATCHES BY HYDROGEN GROUPS
Info: RIGID BONDS TO HYDROGEN : ALL
Info:         ERROR TOLERANCE : 1e-08
Info:          MAX ITERATIONS : 100
Info: RIGID WATER USING SETTLE ALGORITHM
Info: RANDOM NUMBER SEED     1743712674
Info: USE HYDROGEN BONDS?    NO
Info: Using AMBER format force field!
Info: AMBER PARM FILE        mobley_313406.prmtop
Info: COORDINATE PDB         mobley_313406.pdb
Info: Exclusions will be read from PARM file!
Info: SCNB (VDW SCALING)     2
Info: USING ARITHMETIC MEAN TO COMBINE L-J SIGMA PARAMETERS
Info: BINARY COORDINATES     mobley_313406_equil.coor
Info: SUMMARY OF PARAMETERS:
Info: 7 BONDS
Info: 8 ANGLES
Info:   8 HARMONIC
Info:   0 COSINE-BASED
Info: 6 DIHEDRAL
Info: 0 IMPROPER
Info: 0 CROSSTERM
Info: 0 VDW
Info: 21 VDW_PAIRS
Info: 0 NBTHOLE_PAIRS
Info: To read alchdata from file: mobley_313406.pdb
Info: To read alchflag data from column: 5
Info: STRUCTURE SUMMARY:
Info: 2997 ATOMS
Info: 2996 BONDS
Info: 19 ANGLES
Info: 24 DIHEDRALS
Info: 0 IMPROPERS
Info: 0 CROSSTERMS
Info: 3036 EXCLUSIONS
Info: 2993 RIGID BONDS
Info: ALCH: 0 ATOMS TO DISAPPEAR IN FINAL STATE
Info: ALCH: 12 ATOMS TO APPEAR IN FINAL STATE
Info: 5998 DEGREES OF FREEDOM
Info: 999 HYDROGEN GROUPS
Info: 4 ATOMS IN LARGEST HYDROGEN GROUP
Info: 999 MIGRATION GROUPS
Info: 4 ATOMS IN LARGEST MIGRATION GROUP
Info: TOTAL MASS = 17986 amu
Info: TOTAL CHARGE = 9.99756e-05 e
Info: MASS DENSITY = 0.955014 g/cm^3
Info: ATOM DENSITY = 0.0958302 atoms/A^3
Info: ADDED 0 IMPLICIT EXCLUSIONS
Info: NONBONDED TABLE R-SQUARED SPACING: 0.0625
Info: NONBONDED TABLE SIZE: 705 POINTS
Info: REMOVING COM VELOCITY -0.207914 0.0474566 0.110954
Info: Use 3D box decompostion in PME FFT.
Info: Updated CUDA force table with 4096 elements.
Info: Updated CUDA LJ table with 6 x 6 elements.
Info: Found 15 unique exclusion lists needing 28 bytes
TCL: Running for 1500000 steps
ETITLE: TS BOND ANGLE DIHED IMPRP ELECT VDW BOUNDARY MISC KINETIC TOTAL TEMP POTENTIAL TOTALAVG TEMPAVG PRESSURE GPRESSURE VOLUME PRESSAVG GPRESSAVG
ENERGY: 0 0.7342 8.8660 1.6477 0.0000 -10796.7285 1402.3062 0.0000 0.0000 1834.3719 -7548.8024 307.8019 -9383.1744 -7548.8024 307.8019 -639.0693 -555.5767 31274.0770 -639.0693 -555.5767
ENERGY: 300000 3.3292 2.2578 2.0555 0.0000 -10867.5710 1457.4131 0.0000 0.0000 1792.5333 -7609.9821 300.7815 -9402.5154 -7613.6839 303.2764 21.1367 24.6755 30663.6444 86.9177 137.6992
ENERGY: 600000 1.0591 4.9490 1.2060 0.0000 -10878.2847 1447.6028 0.0000 0.0000 1775.7727 -7647.6951 297.9691 -9423.4678 -7621.1097 301.1192 -485.1807 -394.3850 31226.7975 -151.9292 -93.6472
ENERGY: 900000 0.3194 7.5494 1.4139 0.0000 -11037.7046 1592.1647 0.0000 0.0000 1771.2769 -7664.9804 297.2148 -9436.2573 -7621.2526 299.8506 998.2055 1003.5655 30773.0500 -153.2894 -92.0655
ENERGY: 1200000 0.5602 6.7889 1.9243 0.0000 -10960.6134 1491.1073 0.0000 0.0000 1780.5944 -7679.6384 298.7782 -9460.2328 -7619.9962 299.8064 -11.6347 55.6161 30542.0855 -76.4767 -21.6849
ENERGY: 1500000 0.5377 3.8119 3.0684 0.0000 -10809.0825 1472.5081 0.0000 0.0000 1779.3821 -7549.7743 298.5748 -9329.1564 -7610.7056 300.2342 148.8910 200.5425 30809.2001 -70.3865 -15.7526
TCL: Running FEP window   2: Lambda1 0.05   Lambda2 0.1    [dLambda 0.05  ]
TCL: Setting parameter firsttimestep to 0
TCL: Setting parameter alchLambda to 0.05
Info: NONBONDED TABLE R-SQUARED SPACING: 0.0625
Info: NONBONDED TABLE SIZE: 705 POINTS
TCL: Setting parameter alchLambda2 to 0.1
Info: NONBONDED TABLE R-SQUARED SPACING: 0.0625
Info: NONBONDED TABLE SIZE: 705 POINTS
TCL: Running for 1500000 steps
ETITLE: TS BOND ANGLE DIHED IMPRP ELECT VDW BOUNDARY MISC KINETIC TOTAL TEMP POTENTIAL TOTALAVG TEMPAVG PRESSURE GPRESSURE VOLUME PRESSAVG GPRESSAVG
ENERGY: 0 0.5377 3.8119 3.0684 0.0000 -10809.0836 1473.2343 0.0000 0.0000 1778.4847 -7549.9466 298.4242 -9328.4313 -7549.9466 298.4242 128.4918 202.4646 30809.2001 128.4918 202.4646
ENERGY: 300000 1.2943 4.3291 2.4277 0.0000 -10928.8419 1516.6962 0.0000 0.0000 1820.1996 -7583.8950 305.4238 -9404.0946 -7592.8860 300.4845 407.3626 450.2413 30744.2187 126.9586 191.8255
ENERGY: 600000 1.2543 6.6255 2.2827 0.0000 -10897.1863 1529.3296 0.0000 0.0000 1815.7597 -7541.9345 304.6788 -9357.6942 -7582.4745 300.9578 705.4334 799.2807 30463.4475 300.4529 369.2762
ENERGY: 900000 0.1937 4.8561 2.6519 0.0000 -10934.0605 1446.5900 0.0000 0.0000 1740.5828 -7739.1861 292.0644 -9479.7689 -7618.6410 298.8601 -362.2960 -257.9762 30322.4174 167.8529 240.3186
ENERGY: 1200000 0.3015 5.3525 2.4479 0.0000 -10829.7930 1428.9094 0.0000 0.0000 1762.6834 -7630.0983 295.7728 -9392.7816 -7616.4730 298.7580 -0.9939 51.5994 30460.8480 43.1656 118.6517
ENERGY: 1500000 0.1975 5.1241 1.4107 0.0000 -10991.6229 1542.6422 0.0000 0.0000 1804.0410 -7638.2075 302.7125 -9442.2485 -7621.7270 298.7540 574.0730 631.8400 30546.6061 111.5317 180.0297
TCL: Running FEP window   3: Lambda1 0.1    Lambda2 0.15000000000000002 [dLambda 0.05000000000000002]
TCL: Setting parameter firsttimestep to 0
TCL: Setting parameter alchLambda to 0.1
Info: NONBONDED TABLE R-SQUARED SPACING: 0.0625
Info: NONBONDED TABLE SIZE: 705 POINTS
TCL: Setting parameter alchLambda2 to 0.15000000000000002
Info: NONBONDED TABLE R-SQUARED SPACING: 0.0625
Info: NONBONDED TABLE SIZE: 705 POINTS
TCL: Running for 1500000 steps
ETITLE: TS BOND ANGLE DIHED IMPRP ELECT VDW BOUNDARY MISC KINETIC TOTAL TEMP POTENTIAL TOTALAVG TEMPAVG PRESSURE GPRESSURE VOLUME PRESSAVG GPRESSAVG
ENERGY: 0 0.1975 5.1241 1.4107 0.0000 -10991.6220 1543.5382 0.0000 0.0000 1803.1688 -7638.1828 302.5661 -9441.3516 -7638.1828 302.5661 553.1478 635.0695 30546.6061 553.1478 635.0695
ENERGY: 300000 0.8500 4.5998 2.3206 0.0000 -10813.4903 1397.2711 0.0000 0.0000 1737.4873 -7670.9615 291.5450 -9408.4488 -7645.3671 298.4079 -571.9301 -482.2311 30742.1590 -27.1558 41.6680
ENERGY: 600000 0.7793 4.5686 0.7013 0.0000 -10761.0756 1406.1457 0.0000 0.0000 1758.7482 -7590.1325 295.1125 -9348.8807 -7642.5632 296.7703 -95.0832 -120.9002 30509.5536 -85.7592 -36.7010
ENERGY: 900000 0.4099 6.6015 1.8760 0.0000 -10816.4682 1419.9599 0.0000 0.0000 1737.4888 -7650.1321 291.5452 -9387.6209 -7637.5056 296.2110 -353.0257 -303.2274 31006.1609 17.7062 69.2887
ENERGY: 1200000 3.7705 5.1995 1.1630 0.0000 -10851.0701 1461.5934 0.0000 0.0000 1775.4386 -7603.9051 297.9131 -9379.3438 -7619.9181 297.1120 -113.4042 -53.3712 30679.5488 43.3610 97.9720
ENERGY: 1500000 3.1014 7.2088 0.9514 0.0000 -10829.4833 1452.9849 0.0000 0.0000 1741.0844 -7624.1524 292.1486 -9365.2368 -7624.1749 297.2040 -53.4393 -55.9190 30557.6087 77.5187 123.2575
TCL: Running FEP window   4: Lambda1 0.15000000000000002 Lambda2 0.2    [dLambda 0.04999999999999999]
TCL: Setting parameter firsttimestep to 0
TCL: Setting parameter alchLambda to 0.15000000000000002
Info: NONBONDED TABLE R-SQUARED SPACING: 0.0625
Info: NONBONDED TABLE SIZE: 705 POINTS
TCL: Setting parameter alchLambda2 to 0.2
Info: NONBONDED TABLE R-SQUARED SPACING: 0.0625
Info: NONBONDED TABLE SIZE: 705 POINTS
TCL: Running for 1500000 steps
ETITLE: TS BOND ANGLE DIHED IMPRP ELECT VDW BOUNDARY MISC KINETIC TOTAL TEMP POTENTIAL TOTALAVG TEMPAVG PRESSURE GPRESSURE VOLUME PRESSAVG GPRESSAVG
ENERGY: 0 3.1014 7.2088 0.9514 0.0000 -10829.4834 1453.1303 0.0000 0.0000 1740.1584 -7624.9331 291.9932 -9365.0915 -7624.9331 291.9932 -134.6025 -54.0165 30557.6087 -134.6025 -54.0165
ENERGY: 300000 0.4334 5.8877 0.5768 0.0000 -10819.6951 1425.9784 0.0000 0.0000 1785.5814 -7601.2374 299.6150 -9386.8189 -7644.9744 294.1890 -158.7065 -136.6846 30563.0102 71.7601 140.1255
ENERGY: 600000 2.0165 5.3508 0.6593 0.0000 -10826.1371 1419.4186 0.0000 0.0000 1816.3750 -7582.3168 304.7821 -9398.6918 -7622.7945 295.5619 -530.1429 -475.3052 30931.0192 -37.7754 31.7574
ENERGY: 900000 0.7546 4.9414 3.3334 0.0000 -10949.1457 1510.8371 0.0000 0.0000 1757.1914 -7672.0877 294.8513 -9429.2792 -7622.8087 296.7315 176.9279 233.3411 30566.6922 7.1305 70.3925
ENERGY: 1200000 0.5651 5.3209 1.0079 0.0000 -11004.3727 1533.4711 0.0000 0.0000 1799.6937 -7664.3139 301.9830 -9464.0076 -7620.3876 298.1230 470.3160 529.6187 30409.2214 56.4416 121.9381
ENERGY: 1500000 0.2648 3.5373 1.6817 0.0000 -10989.5246 1518.7158 0.0000 0.0000 1792.9518 -7672.3732 300.8518 -9465.3250 -7616.0213 298.8602 266.6794 381.5195 30469.4936 60.5952 126.8178
TCL: Running FEP window   5: Lambda1 0.2    Lambda2 0.25   [dLambda 0.04999999999999999]
TCL: Setting parameter firsttimestep to 0
TCL: Setting parameter alchLambda to 0.2
Info: NONBONDED TABLE R-SQUARED SPACING: 0.0625
Info: NONBONDED TABLE SIZE: 705 POINTS
TCL: Setting parameter alchLambda2 to 0.25
Info: NONBONDED TABLE R-SQUARED SPACING: 0.0625
Info: NONBONDED TABLE SIZE: 705 POINTS
TCL: Running for 1500000 steps
ETITLE: TS BOND ANGLE DIHED IMPRP ELECT VDW BOUNDARY MISC KINETIC TOTAL TEMP POTENTIAL TOTALAVG TEMPAVG PRESSURE GPRESSURE VOLUME PRESSAVG GPRESSAVG
ENERGY: 0 0.2648 3.5373 1.6817 0.0000 -10989.5231 1518.5208 0.0000 0.0000 1792.0797 -7673.4388 300.7054 -9465.5185 -7673.4388 300.7054 288.6355 383.0108 30469.4936 288.6355 383.0108
ENERGY: 300000 0.9551 4.3117 1.9564 0.0000 -10924.1109 1453.7611 0.0000 0.0000 1736.5223 -7726.6042 291.3831 -9463.1266 -7655.7682 299.5284 -288.4530 -231.0941 30491.2236 -411.3982 -344.3965
ENERGY: 600000 3.0975 3.1628 1.1819 0.0000 -10771.7561 1375.3112 0.0000 0.0000 1804.0032 -7584.9995 302.7061 -9389.0027 -7626.7029 301.2065 -601.7444 -595.8246 30728.1343 -321.2225 -275.9241
ENERGY: 900000 0.3454 8.8840 1.3282 0.0000 -10985.7129 1566.1883 0.0000 0.0000 1808.7141 -7600.2528 303.4966 -9408.9669 -7614.4109 301.3764 771.7754 814.0414 30688.3352 -224.7178 -182.2987
ENERGY: 1200000 1.2067 6.6747 1.8780 0.0000 -10713.2408 1343.8695 0.0000 0.0000 1768.0347 -7591.5772 296.6707 -9359.6120 -7618.2596 300.6080 -957.2440 -897.2697 30810.9010 -190.6870 -145.1452
ENERGY: 1500000 0.1805 4.6071 1.4190 0.0000 -10833.5515 1469.1797 0.0000 0.0000 1731.3879 -7626.7774 290.5215 -9358.1653 -7615.1747 300.1328 82.9466 90.3339 31084.9664 -175.6150 -123.4764
TCL: Running FEP window   6: Lambda1 0.25   Lambda2 0.3    [dLambda 0.04999999999999999]
TCL: Setting parameter firsttimestep to 0
TCL: Setting parameter alchLambda to 0.25
Info: NONBONDED TABLE R-SQUARED SPACING: 0.0625
Info: NONBONDED TABLE SIZE: 705 POINTS
TCL: Setting parameter alchLambda2 to 0.3
Info: NONBONDED TABLE R-SQUARED SPACING: 0.0625
Info: NONBONDED TABLE SIZE: 705 POINTS
TCL: Running for 1500000 steps
ETITLE: TS BOND ANGLE DIHED IMPRP ELECT VDW BOUNDARY MISC KINETIC TOTAL TEMP POTENTIAL TOTALAVG TEMPAVG PRESSURE GPRESSURE VOLUME PRESSAVG GPRESSAVG
ENERGY: 0 0.1805 4.6071 1.4190 0.0000 -10833.5524 1469.4159 0.0000 0.0000 1730.4919 -7627.4381 290.3712 -9357.9300 -7627.4381 290.3712 7.6396 93.9365 31084.9664 7.6396 93.9365
ENERGY: 300000 0.8587 4.8377 1.0452 0.0000 -10837.5052 1490.1730 0.0000 0.0000 1744.3736 -7596.2169 292.7005 -9340.5905 -7628.0236 294.0932 319.1643 407.1056 30714.8641 -75.1641 -4.6694
ENERGY: 600000 0.7161 4.8659 1.2828 0.0000 -10921.6864 1521.2206 0.0000 0.0000 1793.0593 -7600.5416 300.8698 -9393.6009 -7613.0952 296.2856 498.8295 574.6606 30685.7320 -81.2968 -15.1878
ENERGY: 900000 2.5463 7.7236 1.1975 0.0000 -10768.6954 1427.2744 0.0000 0.0000 1762.3400 -7567.6137 295.7152 -9329.9537 -7605.0849 297.6011 -423.1666 -403.6846 30930.6007 -114.4480 -44.5851
ENERGY: 1200000 1.2948 6.9119 1.9100 0.0000 -10860.3261 1402.4735 0.0000 0.0000 1797.4753 -7650.2605 301.6108 -9447.7358 -7617.9998 297.2221 -523.3946 -443.7163 30719.0624 -166.9862 -95.1847
ENERGY: 1500000 0.0611 4.0473 1.4428 0.0000 -10966.1340 1564.3066 0.0000 0.0000 1780.7422 -7615.5340 298.8030 -9396.2763 -7616.7283 297.2250 695.2113 794.6558 30623.5358 -92.2423 -20.1727
TCL: Running FEP window   7: Lambda1 0.3    Lambda2 0.35   [dLambda 0.04999999999999999]
TCL: Setting parameter firsttimestep to 0
TCL: Setting parameter alchLambda to 0.3
Info: NONBONDED TABLE R-SQUARED SPACING: 0.0625
Info: NONBONDED TABLE SIZE: 705 POINTS
TCL: Setting parameter alchLambda2 to 0.35
Info: NONBONDED TABLE R-SQUARED SPACING: 0.0625
Info: NONBONDED TABLE SIZE: 705 POINTS
TCL: Running for 1500000 steps
ETITLE: TS BOND ANGLE DIHED IMPRP ELECT VDW BOUNDARY MISC KINETIC TOTAL TEMP POTENTIAL TOTALAVG TEMPAVG PRESSURE GPRESSURE VOLUME PRESSAVG GPRESSAVG
ENERGY: 0 0.0611 4.0473 1.4428 0.0000 -10966.1337 1564.5670 0.0000 0.0000 1779.9107 -7616.1049 298.6635 -9396.0156 -7616.1049 298.6635 707.6789 800.8861 30623.5358 707.6789 800.8861
ENERGY: 300000 0.0914 5.8437 1.4302 0.0000 -10856.6137 1472.3104 0.0000 0.0000 1748.4479 -7628.4901 293.3841 -9376.9380 -7568.5425 301.8006 -56.2665 37.8387 31109.4305 -50.0688 14.5623
ENERGY: 600000 0.3006 2.8458 0.9419 0.0000 -10840.8204 1420.9748 0.0000 0.0000 1808.0587 -7607.6984 303.3866 -9415.7572 -7594.8102 300.6152 -304.3344 -222.4507 30780.7857 -272.8947 -198.6374
ENERGY: 900000 1.6147 5.1044 2.0018 0.0000 -10716.0120 1383.2436 0.0000 0.0000 1737.5492 -7586.4983 291.5554 -9324.0475 -7593.2271 300.2077 -656.5429 -609.1631 31511.8099 -362.3479 -292.2010
ENERGY: 1200000 0.7281 2.4217 1.1186 0.0000 -10836.4368 1493.5338 0.0000 0.0000 1788.1775 -7550.4572 300.0506 -9338.6347 -7590.9414 300.1934 613.9892 665.6281 30492.8535 -292.7501 -223.0386
ENERGY: 1500000 4.0102 3.2256 3.0079 0.0000 -10963.4294 1541.3729 0.0000 0.0000 1759.4732 -7652.3396 295.2341 -9411.8128 -7590.9583 300.7987 404.7663 502.0370 30793.6845 -229.8517 -161.1839
TCL: Running FEP window   8: Lambda1 0.35   Lambda2 0.39999999999999997 [dLambda 0.04999999999999999]
TCL: Setting parameter firsttimestep to 0
TCL: Setting parameter alchLambda to 0.35
Info: NONBONDED TABLE R-SQUARED SPACING: 0.0625
Info: NONBONDED TABLE SIZE: 705 POINTS
TCL: Setting parameter alchLambda2 to 0.39999999999999997
Info: NONBONDED TABLE R-SQUARED SPACING: 0.0625
Info: NONBONDED TABLE SIZE: 705 POINTS
TCL: Running for 1500000 steps
ETITLE: TS BOND ANGLE DIHED IMPRP ELECT VDW BOUNDARY MISC KINETIC TOTAL TEMP POTENTIAL TOTALAVG TEMPAVG PRESSURE GPRESSURE VOLUME PRESSAVG GPRESSAVG
ENERGY: 0 4.0102 3.2256 3.0079 0.0000 -10963.4293 1541.7198 0.0000 0.0000 1758.5878 -7652.8780 295.0856 -9411.4658 -7652.8780 295.0856 432.8767 508.0447 30793.6845 432.8767 508.0447
ENERGY: 300000 3.5672 4.7321 1.1511 0.0000 -10923.8739 1443.8079 0.0000 0.0000 1832.8454 -7637.7701 307.5458 -9470.6155 -7609.7776 302.7709 -414.1903 -351.2633 30761.6054 4.3339 95.6136
ENERGY: 600000 0.3523 6.0216 1.5849 0.0000 -10914.6061 1437.4231 0.0000 0.0000 1780.2905 -7688.9337 298.7272 -9469.2242 -7629.7725 300.8638 -557.2414 -505.0441 31094.8004 -181.0783 -110.3428
ENERGY: 900000 1.3786 3.4154 2.7209 0.0000 -10840.2280 1463.7484 0.0000 0.0000 1811.5640 -7557.4008 303.9748 -9368.9647 -7622.4146 299.9008 37.1077 147.9310 30733.6213 -113.4129 -49.3599
ENERGY: 1200000 1.0696 3.3800 1.2338 0.0000 -10884.0234 1465.6866 0.0000 0.0000 1760.3994 -7652.2541 295.3896 -9412.6535 -7625.1935 299.1866 -180.0042 -149.7110 30893.7872 34.8730 100.8244
ENERGY: 1500000 0.4604 7.9454 0.7771 0.0000 -10810.9370 1379.9189 0.0000 0.0000 1749.4267 -7672.4084 293.5484 -9421.8351 -7629.4293 298.2879 -641.3061 -628.9438 30672.6968 59.0042 120.5079
TCL: Running FEP window   9: Lambda1 0.39999999999999997 Lambda2 0.44999999999999996 [dLambda 0.04999999999999999]
TCL: Setting parameter firsttimestep to 0
TCL: Setting parameter alchLambda to 0.39999999999999997
Info: NONBONDED TABLE R-SQUARED SPACING: 0.0625
Info: NONBONDED TABLE SIZE: 705 POINTS
TCL: Setting parameter alchLambda2 to 0.44999999999999996
Info: NONBONDED TABLE R-SQUARED SPACING: 0.0625
Info: NONBONDED TABLE SIZE: 705 POINTS
TCL: Running for 1500000 steps
ETITLE: TS BOND ANGLE DIHED IMPRP ELECT VDW BOUNDARY MISC KINETIC TOTAL TEMP POTENTIAL TOTALAVG TEMPAVG PRESSURE GPRESSURE VOLUME PRESSAVG GPRESSAVG
ENERGY: 0 0.4604 7.9454 0.7771 0.0000 -10810.9373 1379.7627 0.0000 0.0000 1748.5134 -7673.4782 293.3951 -9421.9916 -7673.4782 293.3951 -704.8357 -627.5935 30672.6968 -704.8357 -627.5935
ENERGY: 300000 0.9676 4.1098 2.6640 0.0000 -10774.8270 1457.0446 0.0000 0.0000 1786.6812 -7523.3598 299.7996 -9310.0410 -7561.6335 299.5415 155.9117 253.0237 30798.1099 -140.4282 -54.3075
ENERGY: 600000 0.5508 3.3888 2.3419 0.0000 -10976.9947 1555.7523 0.0000 0.0000 1796.8378 -7618.1232 301.5038 -9414.9609 -7606.4043 298.3762 802.0535 826.9334 30655.4192 162.9882 242.4824
ENERGY: 900000 0.8276 8.9562 1.8127 0.0000 -10938.3639 1535.6713 0.0000 0.0000 1767.2927 -7623.8033 296.5462 -9391.0960 -7605.3321 298.3635 560.9463 622.5306 30656.6586 154.3009 229.1704
ENERGY: 1200000 0.9427 4.0252 0.7317 0.0000 -10934.5928 1502.2776 0.0000 0.0000 1842.1687 -7584.4469 309.1102 -9426.6156 -7589.6155 300.9420 338.8047 488.7055 30525.9272 42.6773 119.7171
ENERGY: 1500000 0.7459 2.3938 1.8548 0.0000 -10891.2720 1492.7878 0.0000 0.0000 1804.3386 -7589.1512 302.7624 -9393.4898 -7585.9249 301.9923 71.0587 153.3559 31400.8851 20.7474 92.3460
TCL: Running FEP window  10: Lambda1 0.44999999999999996 Lambda2 0.49999999999999994 [dLambda 0.04999999999999999]
TCL: Setting parameter firsttimestep to 0
TCL: Setting parameter alchLambda to 0.44999999999999996
Info: NONBONDED TABLE R-SQUARED SPACING: 0.0625
Info: NONBONDED TABLE SIZE: 705 POINTS
TCL: Setting parameter alchLambda2 to 0.49999999999999994
Info: NONBONDED TABLE R-SQUARED SPACING: 0.0625
Info: NONBONDED TABLE SIZE: 705 POINTS
TCL: Running for 1500000 steps
ETITLE: TS BOND ANGLE DIHED IMPRP ELECT VDW BOUNDARY MISC KINETIC TOTAL TEMP POTENTIAL TOTALAVG TEMPAVG PRESSURE GPRESSURE VOLUME PRESSAVG GPRESSAVG
ENERGY: 0 0.7459 2.3938 1.8548 0.0000 -10891.2701 1492.6522 0.0000 0.0000 1803.5053 -7590.1181 302.6226 -9393.6235 -7590.1181 302.6226 77.2461 154.9743 31400.8851 77.2461 154.9743
ENERGY: 300000 1.4874 6.0552 1.0461 0.0000 -10787.9323 1462.9305 0.0000 0.0000 1766.0409 -7550.3723 296.3362 -9316.4132 -7610.8103 298.3292 87.7588 155.2777 30809.2407 57.5603 127.4483
ENERGY: 600000 0.7971 6.1940 1.8731 0.0000 -10897.9337 1524.9084 0.0000 0.0000 1724.2944 -7639.8668 289.3313 -9364.1612 -7615.0781 298.3258 586.3643 652.8035 30582.2412 132.6736 195.3501
ENERGY: 900000 2.8709 3.5306 2.3155 0.0000 -10836.3344 1406.4533 0.0000 0.0000 1807.5186 -7613.6454 303.2960 -9421.1640 -7621.2670 299.3525 -519.9532 -419.5785 30431.1496 43.4269 101.8795
ENERGY: 1200000 1.4273 6.3444 1.5885 0.0000 -10795.6842 1390.8791 0.0000 0.0000 1766.3607 -7629.0842 296.3898 -9395.4449 -7621.6460 299.3570 -450.4377 -382.4880 30562.7906 -8.5892 48.8045
ENERGY: 1500000 1.0685 2.9675 1.5212 0.0000 -10809.1582 1423.6300 0.0000 0.0000 1815.9413 -7564.0297 304.7093 -9379.9709 -7617.7563 299.9734 -315.9403 -207.4059 30871.3469 -74.5837 -15.8426
TCL: Running FEP window  11: Lambda1 0.49999999999999994 Lambda2 0.5499999999999999 [dLambda 0.04999999999999999]
TCL: Setting parameter firsttimestep to 0
TCL: Setting parameter alchLambda to 0.49999999999999994
Info: NONBONDED TABLE R-SQUARED SPACING: 0.0625
Info: NONBONDED TABLE SIZE: 705 POINTS
TCL: Setting parameter alchLambda2 to 0.5499999999999999
Info: NONBONDED TABLE R-SQUARED SPACING: 0.0625
Info: NONBONDED TABLE SIZE: 705 POINTS
TCL: Running for 1500000 steps
ETITLE: TS BOND ANGLE DIHED IMPRP ELECT VDW BOUNDARY MISC KINETIC TOTAL TEMP POTENTIAL TOTALAVG TEMPAVG PRESSURE GPRESSURE VOLUME PRESSAVG GPRESSAVG
ENERGY: 0 1.0685 2.9675 1.5212 0.0000 -10809.1593 1423.4302 0.0000 0.0000 1815.0515 -7565.1203 304.5600 -9380.1718 -7565.1203 304.5600 -297.6101 -204.4122 30871.3469 -297.6101 -204.4122
ENERGY: 300000 1.2319 5.2876 2.2881 0.0000 -10859.7700 1414.1291 0.0000 0.0000 1765.9947 -7670.8386 296.3284 -9436.8333 -7615.8682 304.6353 -524.8847 -464.8356 30722.2848 204.7637 279.8974
ENERGY: 600000 3.8912 6.4812 1.2608 0.0000 -10845.5717 1453.1846 0.0000 0.0000 1817.6981 -7563.0557 305.0041 -9380.7538 -7608.1094 303.1846 -239.3830 -153.3966 30888.1846 147.1545 217.0106
ENERGY: 900000 0.6106 5.0393 3.0956 0.0000 -10838.5516 1450.6566 0.0000 0.0000 1730.3195 -7648.8299 290.3422 -9379.1494 -7611.2801 302.4352 -237.5117 -181.5850 31043.6050 190.0209 258.1429
ENERGY: 1200000 1.3951 1.0377 0.8236 0.0000 -10752.5671 1391.7241 0.0000 0.0000 1786.0333 -7571.5534 299.6908 -9357.5866 -7602.6549 302.3814 -399.2311 -395.3219 30637.4430 46.7008 112.2059
ENERGY: 1500000 0.3017 2.4932 2.0651 0.0000 -10687.7282 1326.1997 0.0000 0.0000 1778.0037 -7578.6648 298.3435 -9356.6685 -7603.2285 301.5735 -894.4833 -760.7038 30669.9094 -39.4866 30.8599
TCL: Running FEP window  12: Lambda1 0.5499999999999999 Lambda2 0.6    [dLambda 0.050000000000000044]
TCL: Setting parameter firsttimestep to 0
TCL: Setting parameter alchLambda to 0.5499999999999999
Info: NONBONDED TABLE R-SQUARED SPACING: 0.0625
Info: NONBONDED TABLE SIZE: 705 POINTS
TCL: Setting parameter alchLambda2 to 0.6
Info: NONBONDED TABLE R-SQUARED SPACING: 0.0625
Info: NONBONDED TABLE SIZE: 705 POINTS
TCL: Running for 1500000 steps
ETITLE: TS BOND ANGLE DIHED IMPRP ELECT VDW BOUNDARY MISC KINETIC TOTAL TEMP POTENTIAL TOTALAVG TEMPAVG PRESSURE GPRESSURE VOLUME PRESSAVG GPRESSAVG
ENERGY: 0 0.3017 2.4932 2.0651 0.0000 -10687.4941 1326.5434 0.0000 0.0000 1777.1012 -7578.9895 298.1921 -9356.0907 -7578.9895 298.1921 -840.0323 -750.9215 30669.9094 -840.0323 -750.9215
ENERGY: 300000 0.4705 4.0253 3.8533 0.0000 -10867.3395 1448.2806 0.0000 0.0000 1779.8499 -7630.8598 298.6533 -9410.7097 -7601.8463 300.1612 -190.6915 -101.7179 30538.6802 -255.3361 -175.1186
ENERGY: 600000 1.4221 5.0422 1.1558 0.0000 -10829.8330 1436.7590 0.0000 0.0000 1778.7635 -7606.6903 298.4710 -9385.4539 -7613.4549 300.2386 -42.6588 -13.2282 30632.4545 -142.7241 -61.6722
ENERGY: 900000 1.7050 5.3649 1.1639 0.0000 -10716.3274 1427.2458 0.0000 0.0000 1772.4866 -7508.3612 297.4177 -9280.8477 -7606.4193 299.2669 87.6982 109.1263 30974.4678 -195.1841 -137.5563
ENERGY: 1200000 0.4147 5.4475 0.6537 0.0000 -10860.3197 1477.1941 0.0000 0.0000 1795.4681 -7581.1416 301.2740 -9376.6097 -7603.7480 299.4410 363.3159 473.6894 30386.6879 -162.5735 -102.2964
ENERGY: 1500000 0.6936 4.5156 2.1413 0.0000 -10851.6416 1407.6672 0.0000 0.0000 1831.8310 -7604.7929 307.3756 -9436.6239 -7603.5351 300.2414 -380.3757 -301.0158 30441.1810 -162.6162 -101.1014
TCL: Running FEP window  13: Lambda1 0.6    Lambda2 0.65   [dLambda 0.050000000000000044]
TCL: Setting parameter firsttimestep to 0
TCL: Setting parameter alchLambda to 0.6
Info: NONBONDED TABLE R-SQUARED SPACING: 0.0625
Info: NONBONDED TABLE SIZE: 705 POINTS
TCL: Setting parameter alchLambda2 to 0.65
Info: NONBONDED TABLE R-SQUARED SPACING: 0.0625
Info: NONBONDED TABLE SIZE: 705 POINTS
TCL: Running for 1500000 steps
ETITLE: TS BOND ANGLE DIHED IMPRP ELECT VDW BOUNDARY MISC KINETIC TOTAL TEMP POTENTIAL TOTALAVG TEMPAVG PRESSURE GPRESSURE VOLUME PRESSAVG GPRESSAVG
ENERGY: 0 0.6936 4.5156 2.1413 0.0000 -10851.5554 1407.4137 0.0000 0.0000 1830.9485 -7605.8427 307.2275 -9436.7912 -7605.8427 307.2275 -391.8671 -296.6935 30441.1810 -391.8671 -296.6935
ENERGY: 300000 0.2660 6.8660 1.3825 0.0000 -10787.7052 1417.6460 0.0000 0.0000 1790.5047 -7571.0400 300.4411 -9361.5447 -7597.2218 300.9672 -38.1924 -46.4856 30596.1875 3.1203 47.8497
ENERGY: 600000 0.2624 7.4681 1.4180 0.0000 -10782.8838 1416.3077 0.0000 0.0000 1802.6915 -7554.7360 302.4860 -9357.4275 -7597.6116 301.3556 -273.5937 -136.1897 30662.7732 -9.0490 67.6818
ENERGY: 900000 1.8141 5.6382 1.6160 0.0000 -10881.7525 1432.8732 0.0000 0.0000 1767.4392 -7672.3718 296.5708 -9439.8110 -7612.5871 300.5944 -403.5453 -368.6505 30864.1728 -128.5242 -55.4989
ENERGY: 1200000 1.5519 5.6263 1.5193 0.0000 -10851.3516 1446.2491 0.0000 0.0000 1843.6041 -7552.8010 309.3510 -9396.4051 -7614.9428 300.1630 210.6725 286.1635 30516.9839 -132.3517 -55.8791
ENERGY: 1500000 0.4959 5.8674 2.5599 0.0000 -10794.5912 1351.4612 0.0000 0.0000 1779.3062 -7654.9005 298.5621 -9434.2068 -7605.8804 300.7809 -1163.1956 -1062.5562 31313.4285 -216.0062 -135.1617
TCL: Running FEP window  14: Lambda1 0.65   Lambda2 0.7000000000000001 [dLambda 0.050000000000000044]
TCL: Setting parameter firsttimestep to 0
TCL: Setting parameter alchLambda to 0.65
Info: NONBONDED TABLE R-SQUARED SPACING: 0.0625
Info: NONBONDED TABLE SIZE: 705 POINTS
TCL: Setting parameter alchLambda2 to 0.7000000000000001
Info: NONBONDED TABLE R-SQUARED SPACING: 0.0625
Info: NONBONDED TABLE SIZE: 705 POINTS
TCL: Running for 1500000 steps
ETITLE: TS BOND ANGLE DIHED IMPRP ELECT VDW BOUNDARY MISC KINETIC TOTAL TEMP POTENTIAL TOTALAVG TEMPAVG PRESSURE GPRESSURE VOLUME PRESSAVG GPRESSAVG
ENERGY: 0 0.4959 5.8674 2.5599 0.0000 -10795.2648 1351.1850 0.0000 0.0000 1778.4259 -7656.7307 298.4143 -9435.1566 -7656.7307 298.4143 -1155.1940 -1059.0646 31313.4285 -1155.1940 -1059.0646
ENERGY: 300000 0.3113 2.4665 2.1269 0.0000 -10877.3405 1493.4099 0.0000 0.0000 1843.7973 -7535.2287 309.3835 -9379.0260 -7569.8275 304.9631 542.9947 622.0716 30456.8084 -332.3361 -269.6156
ENERGY: 600000 0.5852 4.4648 1.1182 0.0000 -10914.7045 1510.0716 0.0000 0.0000 1813.5749 -7584.8896 304.3122 -9398.4645 -7604.3669 301.7240 631.3804 673.3207 30370.2217 -94.4344 -43.7178
ENERGY: 900000 1.8171 4.6805 2.1441 0.0000 -10759.0059 1369.9371 0.0000 0.0000 1802.1999 -7578.2272 302.4036 -9380.4271 -7593.1529 301.4789 -709.2527 -621.2953 31040.6697 -336.1486 -276.6137
ENERGY: 1200000 4.8618 3.0677 0.8275 0.0000 -10971.3479 1501.0956 0.0000 0.0000 1776.2018 -7685.2934 298.0412 -9461.4953 -7615.0978 300.6670 137.5899 152.8507 30507.1710 -305.5398 -260.4285
ENERGY: 1500000 0.9116 4.5355 1.2148 0.0000 -10963.6234 1415.0118 0.0000 0.0000 1788.9139 -7753.0358 300.1742 -9541.9497 -7624.6854 300.3450 -655.0750 -619.0570 30615.7788 -304.3701 -259.8752
TCL: Running FEP window  15: Lambda1 0.7000000000000001 Lambda2 0.7500000000000001 [dLambda 0.050000000000000044]
TCL: Setting parameter firsttimestep to 0
TCL: Setting parameter alchLambda to 0.7000000000000001
Info: NONBONDED TABLE R-SQUARED SPACING: 0.0625
Info: NONBONDED TABLE SIZE: 705 POINTS
TCL: Setting parameter alchLambda2 to 0.7500000000000001
Info: NONBONDED TABLE R-SQUARED SPACING: 0.0625
Info: NONBONDED TABLE SIZE: 705 POINTS
TCL: Running for 1500000 steps
ETITLE: TS BOND ANGLE DIHED IMPRP ELECT VDW BOUNDARY MISC KINETIC TOTAL TEMP POTENTIAL TOTALAVG TEMPAVG PRESSURE GPRESSURE VOLUME PRESSAVG GPRESSAVG
ENERGY: 0 0.9116 4.5355 1.2148 0.0000 -10963.9516 1415.1063 0.0000 0.0000 1787.9751 -7754.2083 300.0167 -9542.1833 -7754.2083 300.0167 -703.7079 -612.3347 30615.7788 -703.7079 -612.3347
ENERGY: 300000 0.1997 4.6585 1.9789 0.0000 -10787.1790 1381.8707 0.0000 0.0000 1816.1916 -7582.2796 304.7513 -9398.4713 -7629.4292 304.3985 -587.9232 -557.0623 30847.2036 -213.7538 -155.4195
ENERGY: 600000 1.2056 7.0317 2.7142 0.0000 -10865.1515 1446.0279 0.0000 0.0000 1842.4724 -7565.6997 309.1611 -9408.1721 -7607.6977 303.6036 -32.0169 43.0028 30404.1242 -257.2289 -190.0923
ENERGY: 900000 1.5093 9.6024 1.2591 0.0000 -10833.0085 1451.7391 0.0000 0.0000 1772.2011 -7596.6975 297.3698 -9368.8987 -7612.2475 302.3938 -95.0943 -49.2044 30887.8109 -336.5251 -266.4910
ENERGY: 1200000 1.2035 3.0148 1.2024 0.0000 -10877.1432 1476.5890 0.0000 0.0000 1753.3448 -7641.7886 294.2058 -9395.1334 -7624.0088 301.6613 83.7775 102.5525 30675.0212 -273.3522 -205.0979
ENERGY: 1500000 0.5150 3.5522 2.3079 0.0000 -10744.9912 1407.3450 0.0000 0.0000 1739.5945 -7591.6765 291.8986 -9331.2711 -7621.0967 301.6705 -403.3815 -334.3415 31157.7461 -237.0933 -174.8628
TCL: Running FEP window  16: Lambda1 0.7500000000000001 Lambda2 0.8000000000000002 [dLambda 0.050000000000000044]
TCL: Setting parameter firsttimestep to 0
TCL: Setting parameter alchLambda to 0.7500000000000001
Info: NONBONDED TABLE R-SQUARED SPACING: 0.0625
Info: NONBONDED TABLE SIZE: 705 POINTS
TCL: Setting parameter alchLambda2 to 0.8000000000000002
Info: NONBONDED TABLE R-SQUARED SPACING: 0.0625
Info: NONBONDED TABLE SIZE: 705 POINTS
TCL: Running for 1500000 steps
ETITLE: TS BOND ANGLE DIHED IMPRP ELECT VDW BOUNDARY MISC KINETIC TOTAL TEMP POTENTIAL TOTALAVG TEMPAVG PRESSURE GPRESSURE VOLUME PRESSAVG GPRESSAVG
ENERGY: 0 0.5150 3.5522 2.3079 0.0000 -10745.8717 1407.2613 0.0000 0.0000 1738.6802 -7593.5550 291.7451 -9332.2353 -7593.5550 291.7451 -404.5993 -330.4466 31157.7461 -404.5993 -330.4466
ENERGY: 300000 0.3221 3.5104 2.4614 0.0000 -10926.7536 1473.0480 0.0000 0.0000 1811.2042 -7636.2076 303.9144 -9447.4118 -7600.6512 298.8016 -101.7470 43.1403 30610.2273 -220.1305 -135.0005
ENERGY: 600000 0.0779 3.6866 1.2367 0.0000 -10859.0362 1451.1316 0.0000 0.0000 1774.5865 -7628.3170 297.7701 -9402.9035 -7627.7072 297.4646 214.1206 184.3172 30399.2188 80.1094 131.5731
ENERGY: 900000 0.5891 5.1368 1.0547 0.0000 -10952.3102 1545.4206 0.0000 0.0000 1758.6279 -7641.4810 295.0923 -9400.1090 -7630.8250 298.3983 770.4622 805.0997 30323.6177 178.7681 226.7155
ENERGY: 1200000 1.3682 5.0419 2.0789 0.0000 -11056.9290 1547.1785 0.0000 0.0000 1847.3693 -7653.8922 309.9828 -9501.2615 -7629.0300 299.8070 585.1148 668.3538 30296.7424 267.9849 316.8219
ENERGY: 1500000 0.9002 7.0911 0.9358 0.0000 -10976.5838 1546.1843 0.0000 0.0000 1814.9036 -7606.5688 304.5352 -9421.4724 -7622.5029 299.9830 664.9917 737.8421 30444.7476 189.0758 239.6441
TCL: Running FEP window  17: Lambda1 0.8000000000000002 Lambda2 0.8500000000000002 [dLambda 0.050000000000000044]
TCL: Setting parameter firsttimestep to 0
TCL: Setting parameter alchLambda to 0.8000000000000002
Info: NONBONDED TABLE R-SQUARED SPACING: 0.0625
Info: NONBONDED TABLE SIZE: 705 POINTS
TCL: Setting parameter alchLambda2 to 0.8500000000000002
Info: NONBONDED TABLE R-SQUARED SPACING: 0.0625
Info: NONBONDED TABLE SIZE: 705 POINTS
TCL: Running for 1500000 steps
ETITLE: TS BOND ANGLE DIHED IMPRP ELECT VDW BOUNDARY MISC KINETIC TOTAL TEMP POTENTIAL TOTALAVG TEMPAVG PRESSURE GPRESSURE VOLUME PRESSAVG GPRESSAVG
ENERGY: 0 0.9002 7.0911 0.9358 0.0000 -10978.6792 1547.1971 0.0000 0.0000 1814.0293 -7608.5258 304.3885 -9422.5551 -7608.5258 304.3885 678.2605 753.3066 30444.7476 678.2605 753.3066
ENERGY: 300000 2.0229 2.7885 0.8905 0.0000 -10915.5968 1497.4859 0.0000 0.0000 1801.0068 -7611.4022 302.2033 -9412.4090 -7617.5601 301.3698 190.3321 282.0133 30765.9804 146.6899 214.2255
ENERGY: 600000 1.3986 4.6167 0.9933 0.0000 -10987.9607 1529.2673 0.0000 0.0000 1757.4508 -7694.2339 294.8948 -9451.6847 -7605.6236 300.9292 284.0296 343.8232 30661.0393 -4.7397 61.4828
ENERGY: 900000 0.3601 4.3845 1.7894 0.0000 -10806.7727 1445.7469 0.0000 0.0000 1846.9397 -7507.5522 309.9107 -9354.4918 -7601.8321 302.1059 244.2184 296.4840 30568.3383 39.0298 114.0991
ENERGY: 1200000 0.4000 2.9657 1.4259 0.0000 -10892.5715 1472.9342 0.0000 0.0000 1803.3783 -7611.4674 302.6013 -9414.8457 -7613.8075 302.7847 121.4783 104.3006 30739.4685 43.2373 104.0718
ENERGY: 1500000 1.4956 8.4173 3.8714 0.0000 -10664.8676 1313.6779 0.0000 0.0000 1805.0808 -7532.3246 302.8870 -9337.4054 -7602.5407 303.2178 -994.3353 -927.5814 30857.7802 -58.6556 3.7547
TCL: Running FEP window  18: Lambda1 0.8500000000000002 Lambda2 0.9000000000000002 [dLambda 0.050000000000000044]
TCL: Setting parameter firsttimestep to 0
TCL: Setting parameter alchLambda to 0.8500000000000002
Info: NONBONDED TABLE R-SQUARED SPACING: 0.0625
Info: NONBONDED TABLE SIZE: 705 POINTS
TCL: Setting parameter alchLambda2 to 0.9000000000000002
Info: NONBONDED TABLE R-SQUARED SPACING: 0.0625
Info: NONBONDED TABLE SIZE: 705 POINTS
TCL: Running for 1500000 steps
ETITLE: TS BOND ANGLE DIHED IMPRP ELECT VDW BOUNDARY MISC KINETIC TOTAL TEMP POTENTIAL TOTALAVG TEMPAVG PRESSURE GPRESSURE VOLUME PRESSAVG GPRESSAVG
ENERGY: 0 1.4956 8.4173 3.8714 0.0000 -10665.5054 1313.4324 0.0000 0.0000 1804.2012 -7534.0875 302.7394 -9338.2887 -7534.0875 302.7394 -1018.4884 -923.9709 30857.7802 -1018.4884 -923.9709
ENERGY: 300000 0.1430 3.3285 2.3977 0.0000 -10748.7063 1393.7784 0.0000 0.0000 1804.7141 -7544.3446 302.8254 -9349.0587 -7589.2656 300.7222 -416.0656 -374.0915 30780.5046 -575.3661 -511.2968
ENERGY: 600000 0.3062 3.6483 1.0023 0.0000 -10905.3816 1512.8412 0.0000 0.0000 1785.7898 -7601.7938 299.6500 -9387.5836 -7586.4680 301.3926 589.2256 692.5801 30439.3938 -386.7555 -323.8242
ENERGY: 900000 1.7824 4.5435 1.5090 0.0000 -10806.4044 1445.5032 0.0000 0.0000 1776.9422 -7576.1242 298.1654 -9353.0664 -7589.8225 300.4769 132.9515 150.1239 30790.8257 -289.7077 -234.2201
ENERGY: 1200000 2.0779 3.7130 1.1997 0.0000 -10931.0857 1471.7122 0.0000 0.0000 1811.9431 -7640.4398 304.0384 -9452.3829 -7595.2644 300.5642 153.5433 204.9013 30484.4740 -230.2369 -176.5546
ENERGY: 1500000 0.3923 3.0377 1.9986 0.0000 -10869.8264 1411.3710 0.0000 0.0000 1799.9851 -7653.0418 302.0319 -9453.0268 -7605.8195 299.9804 -344.5138 -332.1809 30609.3888 -162.6022 -106.5450
TCL: Running FEP window  19: Lambda1 0.9000000000000002 Lambda2 0.9500000000000003 [dLambda 0.050000000000000044]
TCL: Setting parameter firsttimestep to 0
TCL: Setting parameter alchLambda to 0.9000000000000002
Info: NONBONDED TABLE R-SQUARED SPACING: 0.0625
Info: NONBONDED TABLE SIZE: 705 POINTS
TCL: Setting parameter alchLambda2 to 0.9500000000000003
Info: NONBONDED TABLE R-SQUARED SPACING: 0.0625
Info: NONBONDED TABLE SIZE: 705 POINTS
TCL: Running for 1500000 steps
ETITLE: TS BOND ANGLE DIHED IMPRP ELECT VDW BOUNDARY MISC KINETIC TOTAL TEMP POTENTIAL TOTALAVG TEMPAVG PRESSURE GPRESSURE VOLUME PRESSAVG GPRESSAVG
ENERGY: 0 0.3923 3.0377 1.9986 0.0000 -10871.1301 1412.5740 0.0000 0.0000 1799.1042 -7654.0234 301.8841 -9453.1276 -7654.0234 301.8841 -393.9808 -311.2192 30609.3888 -393.9808 -311.2192
ENERGY: 300000 2.6530 2.6022 1.3808 0.0000 -10904.9160 1478.1438 0.0000 0.0000 1809.4540 -7610.6822 303.6208 -9420.1361 -7635.9838 299.1101 250.4198 293.2228 30449.8317 119.7055 185.8989
ENERGY: 600000 0.2111 2.5809 3.5575 0.0000 -10749.4929 1319.6655 0.0000 0.0000 1814.2066 -7609.2713 304.4182 -9423.4779 -7602.0565 302.5491 -1027.0533 -981.4837 30872.4113 -96.2675 -34.7818
ENERGY: 900000 0.4036 3.9243 2.0029 0.0000 -10721.0610 1384.4882 0.0000 0.0000 1853.8567 -7476.3853 311.0714 -9330.2420 -7589.6052 302.7934 -187.3425 -173.3943 31001.6854 -49.7726 3.9278
ENERGY: 1200000 0.1175 3.5906 1.1088 0.0000 -10939.5493 1483.7075 0.0000 0.0000 1811.9060 -7639.1189 304.0322 -9451.0249 -7605.0343 301.7867 -14.3334 -1.0139 31157.6167 -41.5845 15.3228
ENERGY: 1500000 1.9496 7.0343 0.5483 0.0000 -10956.3440 1481.9874 0.0000 0.0000 1797.5512 -7667.2731 301.6235 -9464.8244 -7614.9782 301.8314 63.3179 131.2960 30641.2415 -71.5083 -17.9107
TCL: Running FEP window  20: Lambda1 0.9500000000000003 Lambda2 1.0    [dLambda 0.04999999999999971]
TCL: Setting parameter firsttimestep to 0
TCL: Setting parameter alchLambda to 0.9500000000000003
Info: NONBONDED TABLE R-SQUARED SPACING: 0.0625
Info: NONBONDED TABLE SIZE: 705 POINTS
TCL: Setting parameter alchLambda2 to 1.0
Info: NONBONDED TABLE R-SQUARED SPACING: 0.0625
Info: NONBONDED TABLE SIZE: 705 POINTS
TCL: Running for 1500000 steps
ETITLE: TS BOND ANGLE DIHED IMPRP ELECT VDW BOUNDARY MISC KINETIC TOTAL TEMP POTENTIAL TOTALAVG TEMPAVG PRESSURE GPRESSURE VOLUME PRESSAVG GPRESSAVG
ENERGY: 0 1.9496 7.0343 0.5483 0.0000 -10957.7579 1482.3921 0.0000 0.0000 1796.6497 -7669.1839 301.4722 -9465.8336 -7669.1839 301.4722 47.2038 138.6756 30641.2415 47.2038 138.6756
ENERGY: 300000 0.6742 2.7263 3.1326 0.0000 -10909.0855 1516.0045 0.0000 0.0000 1820.9393 -7565.6085 305.5480 -9386.5479 -7617.7402 302.4709 346.5242 462.9302 30878.3739 24.0629 112.9039
ENERGY: 600000 0.4890 6.7161 1.6205 0.0000 -10937.9555 1484.0798 0.0000 0.0000 1800.1085 -7644.9416 302.0526 -9445.0502 -7628.3054 302.5862 440.7906 462.1169 30312.4701 -22.5810 49.9295
ENERGY: 900000 0.7417 6.8955 2.6764 0.0000 -10796.5863 1383.0726 0.0000 0.0000 1782.8236 -7620.3764 299.1523 -9403.2001 -7627.7136 300.8821 -621.1683 -529.0684 31051.4275 -209.1897 -139.7132
ENERGY: 1200000 0.6271 7.3342 1.4001 0.0000 -10718.0379 1365.3410 0.0000 0.0000 1799.6971 -7543.6383 301.9836 -9343.3354 -7622.8847 301.3609 -475.8470 -426.5837 30836.2414 -109.1371 -50.3525
ENERGY: 1500000 0.8858 4.9106 2.4709 0.0000 -10810.9827 1400.4851 0.0000 0.0000 1803.3488 -7598.8814 302.5963 -9402.2303 -7619.4222 301.9752 -523.5406 -434.7671 31206.1187 -77.4272 -14.8854
TCL: Exiting due to exit command.
