Info: SIMULATION PARAMETERS:
Info: TIMESTEP               2
Info: NUMBER OF STEPS        0
Info: STEPS PER CYCLE        10
Info: PERIODIC CELL BASIS 1  32.3001 0 0
Info: PERIODIC CELL BASIS 2  0 29.6079 0
Info: PERIODIC CELL BASIS 3  0 0 31.6505
Info: PERIODIC CELL CENTER   0 0 0
Info: WRAPPING WATERS AROUND PERIODIC BOUNDARIES ON OUTPUT.
Info: WRAPPING ALL CLUSTERS AROUND PERIODIC BOUNDARIES ON OUTPUT.
Info: FIRST LDB TIMESTEP     50
Info: LAST LDB TIMESTEP     -1
Info: HOM BACKGROUND SCALING 1
Info: PME BACKGROUND SCALING 1
Info: MIN ATOMS PER PATCH    40
Info: EMPTY PATCH LOAD       40 ATOMS
Info: VELOCITY FILE          mobley_194273_equil.vel
Info: CENTER OF MASS MOVING INITIALLY? NO
Info: DIELECTRIC             1
Info: EXCLUDE                SCALED ONE-FOUR
Info: 1-4 ELECTROSTATICS SCALED BY 0.833333
Info: MODIFIED 1-4 VDW PARAMETERS WILL BE USED
Info: DCD FILENAME           mobley_194273_prod.dcd
Info: DCD FREQUENCY          100000
Info: DCD FIRST STEP         100000
Info: DCD FILE WILL CONTAIN UNIT CELL DATA
Info: XST FILENAME           mobley_194273_prod.xst
Info: XST FREQUENCY          100000
Info: NO VELOCITY DCD OUTPUT
Info: NO FORCE DCD OUTPUT
Info: OUTPUT FILENAME        mobley_194273_prod
Info: BINARY OUTPUT FILES WILL BE USED
Info: RESTART FILENAME       mobley_194273_prod.restart
Info: RESTART FREQUENCY      100000
Info: BINARY RESTART FILES WILL BE USED
Info: CUTOFF                 9
Info: PAIRLIST DISTANCE      11
Info: PAIRLIST SHRINK RATE   0.01
Info: PAIRLIST GROW RATE     0.01
Info: PAIRLIST TRIGGER       0.3
Info: PAIRLISTS PER CYCLE    2
Info: PAIRLISTS ENABLED
Info: MARGIN                 2
Info: HYDROGEN GROUP CUTOFF  2.5
Info: PATCH DIMENSION        15.5
Info: ENERGY OUTPUT STEPS    100000
Info: ENERGY EVALUATION STEPS    100000
Info: OUTPUT ENERGY PRECISION 4
Info: CROSSTERM ENERGY INCLUDED IN DIHEDRAL
Info: TIMING OUTPUT STEPS    1000000
Info: PRESSURE OUTPUT STEPS  100000
Info: ALCHEMICAL FEP ON
Info: FEP CURRENT LAMBDA VALUE     1
Info: FEP COMPARISON LAMBDA VALUE  0.95
Info: FEP INTRA-ALCHEMICAL NON-BONDED INTERACTIONS WILL BE RETAINED
Info: FEP INTRA-ALCHEMICAL BONDED INTERACTIONS WILL BE RETAINED
Info: FEP VDW SHIFTING COEFFICIENT 5
Info: FEP ELEC. ACTIVE FOR ANNIHILATED PARTICLES BETWEEN LAMBDA = 0 AND LAMBDA = 0.5
Info: FEP ELEC. ACTIVE FOR EXNIHILATED PARTICLES BETWEEN LAMBDA = 0.5 AND LAMBDA = 1
Info: FEP VDW ACTIVE FOR ANNIHILATED PARTICLES BETWEEN LAMBDA = 0 AND LAMBDA = 1
Info: FEP VDW ACTIVE FOR EXNIHILATED PARTICLES BETWEEN LAMBDA = 0 AND LAMBDA = 1
Info: FEP BOND ACTIVE FOR ANNIHILATED PARTICLES BETWEEN LAMBDA = 1 AND LAMBDA = 1
Info: FEP BOND ACTIVE FOR EXNIHILATED PARTICLES BETWEEN LAMBDA = 0 AND LAMBDA = 0
Info: LANGEVIN DYNAMICS ACTIVE
Info: LANGEVIN TEMPERATURE   300
Info: LANGEVIN USING BBK INTEGRATOR
Info: LANGEVIN DAMPING COEFFICIENT IS 1 INVERSE PS
Info: LANGEVIN DYNAMICS APPLIED TO HYDROGENS
Info: LANGEVIN PISTON PRESSURE CONTROL ACTIVE
Info:        TARGET PRESSURE IS 1.01325 BAR
Info:     OSCILLATION PERIOD IS 50 FS
Info:             DECAY TIME IS 25 FS
Info:     PISTON TEMPERATURE IS 300 K
Info:       PRESSURE CONTROL IS GROUP-BASED
Info:    INITIAL STRAIN RATE IS 0.000271785 0.000271785 0.000271785
Info:       CELL FLUCTUATION IS ISOTROPIC
Info: PARTICLE MESH EWALD (PME) ACTIVE
Info: PME TOLERANCE               1e-06
Info: PME EWALD COEFFICIENT       0.348832
Info: PME INTERPOLATION ORDER     4
Info: PME GRID DIMENSIONS         36 32 32
Info: PME MAXIMUM GRID SPACING    1
Info: PME CALCULATION WILL BE PERFORMED ON GPU
Info: FULL ELECTROSTATIC EVALUATION FREQUENCY      2
Info: USING VERLET I (r-RESPA) MTS SCHEME.
Info: C1 SPLITTING OF LONG RANGE ELECTROSTATICS
Info: PLACING ATOMS IN PATCHES BY HYDROGEN GROUPS
Info: RIGID BONDS TO HYDROGEN : ALL
Info:         ERROR TOLERANCE : 1e-08
Info:          MAX ITERATIONS : 100
Info: RIGID WATER USING SETTLE ALGORITHM
Info: RANDOM NUMBER SEED     1743902660
Info: USE HYDROGEN BONDS?    NO
Info: Using AMBER format force field!
Info: AMBER PARM FILE        mobley_194273.prmtop
Info: COORDINATE PDB         mobley_194273.pdb
Info: Exclusions will be read from PARM file!
Info: SCNB (VDW SCALING)     2
Info: USING ARITHMETIC MEAN TO COMBINE L-J SIGMA PARAMETERS
Info: BINARY COORDINATES     mobley_194273_equil.coor
Info: SUMMARY OF PARAMETERS:
Info: 14 BONDS
Info: 22 ANGLES
Info:   22 HARMONIC
Info:   0 COSINE-BASED
Info: 18 DIHEDRAL
Info: 0 IMPROPER
Info: 0 CROSSTERM
Info: 0 VDW
Info: 55 VDW_PAIRS
Info: 0 NBTHOLE_PAIRS
Info: To read alchdata from file: mobley_194273.pdb
Info: To read alchflag data from column: 5
Info: STRUCTURE SUMMARY:
Info: 2925 ATOMS
Info: 2925 BONDS
Info: 48 ANGLES
Info: 84 DIHEDRALS
Info: 0 IMPROPERS
Info: 0 CROSSTERMS
Info: 3033 EXCLUSIONS
Info: 2911 RIGID BONDS
Info: ALCH: 0 ATOMS TO DISAPPEAR IN FINAL STATE
Info: ALCH: 27 ATOMS TO APPEAR IN FINAL STATE
Info: 5864 DEGREES OF FREEDOM
Info: 980 HYDROGEN GROUPS
Info: 4 ATOMS IN LARGEST HYDROGEN GROUP
Info: 980 MIGRATION GROUPS
Info: 4 ATOMS IN LARGEST MIGRATION GROUP
Info: TOTAL MASS = 17664.6 amu
Info: TOTAL CHARGE = -9.99859e-05 e
Info: MASS DENSITY = 0.969106 g/cm^3
Info: ATOM DENSITY = 0.0966351 atoms/A^3
Info: ADDED 0 IMPLICIT EXCLUSIONS
Info: NONBONDED TABLE R-SQUARED SPACING: 0.0625
Info: NONBONDED TABLE SIZE: 705 POINTS
Info: REMOVING COM VELOCITY 0.0746095 -0.0817266 0.233876
Info: Use 3D box decompostion in PME FFT.
Info: Updated CUDA force table with 4096 elements.
Info: Updated CUDA LJ table with 10 x 10 elements.
Info: Found 30 unique exclusion lists needing 100 bytes
TCL: Running for 1500000 steps
ETITLE: TS BOND ANGLE DIHED IMPRP ELECT VDW BOUNDARY MISC KINETIC TOTAL TEMP POTENTIAL TOTALAVG TEMPAVG PRESSURE GPRESSURE VOLUME PRESSAVG GPRESSAVG
ENERGY: 0 4.8971 11.4393 10.7722 0.0000 -10681.2221 1335.5015 0.0000 0.0000 1762.4530 -7556.1589 302.4921 -9318.6119 -7556.1589 302.4921 -675.0018 -612.0214 30268.5197 -675.0018 -612.0214
ENERGY: 300000 5.1819 16.6242 14.0971 0.0000 -10579.8707 1341.2195 0.0000 0.0000 1755.6777 -7447.0702 301.3292 -9202.7479 -7523.9104 298.3602 -684.0791 -690.7675 30662.3824 -310.7645 -276.4904
ENERGY: 600000 8.0333 9.3503 15.7950 0.0000 -10694.4884 1363.2718 0.0000 0.0000 1780.9994 -7517.0386 305.6752 -9298.0380 -7520.3593 298.6982 -380.1085 -319.1249 29812.5079 -127.1379 -79.7148
ENERGY: 900000 4.7225 16.1393 13.1762 0.0000 -10596.5842 1340.1865 0.0000 0.0000 1780.5661 -7441.7937 305.6008 -9222.3597 -7520.5456 300.1911 -588.2139 -420.8215 30255.6947 -48.3949 8.2229
ENERGY: 1200000 6.0636 18.1778 12.7080 0.0000 -10616.9243 1359.7346 0.0000 0.0000 1754.9710 -7465.2692 301.2079 -9220.2402 -7513.1825 300.9234 -431.1659 -409.8884 30479.3814 -117.7170 -61.5188
ENERGY: 1500000 5.8664 11.8723 12.6785 0.0000 -10692.0554 1358.4403 0.0000 0.0000 1771.9240 -7531.2740 304.1176 -9303.1980 -7525.6403 300.3143 -552.4131 -499.4663 30070.7657 -123.9933 -61.7581
TCL: Running FEP window   2: Lambda1 0.95   Lambda2 0.8999999999999999 [dLambda -0.050000000000000044]
TCL: Setting parameter firsttimestep to 0
TCL: Setting parameter alchLambda to 0.95
Info: NONBONDED TABLE R-SQUARED SPACING: 0.0625
Info: NONBONDED TABLE SIZE: 705 POINTS
TCL: Setting parameter alchLambda2 to 0.8999999999999999
Info: NONBONDED TABLE R-SQUARED SPACING: 0.0625
Info: NONBONDED TABLE SIZE: 705 POINTS
TCL: Running for 1500000 steps
ETITLE: TS BOND ANGLE DIHED IMPRP ELECT VDW BOUNDARY MISC KINETIC TOTAL TEMP POTENTIAL TOTALAVG TEMPAVG PRESSURE GPRESSURE VOLUME PRESSAVG GPRESSAVG
ENERGY: 0 5.8664 11.8723 12.6785 0.0000 -10689.1443 1359.1448 0.0000 0.0000 1771.0553 -7528.5271 303.9685 -9299.5824 -7528.5271 303.9685 -583.6494 -503.2205 30070.7657 -583.6494 -503.2205
ENERGY: 300000 5.4291 12.5102 12.8783 0.0000 -10764.8134 1461.0498 0.0000 0.0000 1778.3103 -7494.6358 305.2137 -9272.9462 -7472.2053 305.6244 253.1527 356.9867 30011.2120 -306.9817 -248.7663
ENERGY: 600000 4.6404 9.7542 14.5702 0.0000 -10672.9469 1429.6939 0.0000 0.0000 1773.1636 -7441.1245 304.3303 -9214.2881 -7477.4890 304.2148 245.1498 237.1350 30090.9721 -247.2433 -171.3595
ENERGY: 900000 9.2459 13.6554 14.8752 0.0000 -10753.2001 1473.1010 0.0000 0.0000 1775.8391 -7466.4835 304.7895 -9242.3226 -7478.3162 303.9593 163.7711 196.7787 30354.1933 -91.3066 -18.3284
ENERGY: 1200000 3.2682 18.3246 11.8634 0.0000 -10739.8456 1437.2048 0.0000 0.0000 1738.8055 -7530.3792 298.4334 -9269.1847 -7486.1544 303.8219 105.6077 199.3003 30147.3696 -24.2964 51.2931
ENERGY: 1500000 8.2024 11.6686 10.6211 0.0000 -10693.9917 1409.0283 0.0000 0.0000 1756.9814 -7497.4898 301.5530 -9254.4712 -7487.6197 304.4328 -411.8960 -354.7834 30183.1221 -80.2057 -4.9585
TCL: Running FEP window   3: Lambda1 0.8999999999999999 Lambda2 0.8499999999999999 [dLambda -0.050000000000000044]
TCL: Setting parameter firsttimestep to 0
TCL: Setting parameter alchLambda to 0.8999999999999999
Info: NONBONDED TABLE R-SQUARED SPACING: 0.0625
Info: NONBONDED TABLE SIZE: 705 POINTS
TCL: Setting parameter alchLambda2 to 0.8499999999999999
Info: NONBONDED TABLE R-SQUARED SPACING: 0.0625
Info: NONBONDED TABLE SIZE: 705 POINTS
TCL: Running for 1500000 steps
ETITLE: TS BOND ANGLE DIHED IMPRP ELECT VDW BOUNDARY MISC KINETIC TOTAL TEMP POTENTIAL TOTALAVG TEMPAVG PRESSURE GPRESSURE VOLUME PRESSAVG GPRESSAVG
ENERGY: 0 8.2024 11.6686 10.6211 0.0000 -10691.7549 1409.3139 0.0000 0.0000 1756.0985 -7495.8504 301.4014 -9251.9489 -7495.8504 301.4014 -469.1952 -367.0584 30183.1221 -469.1952 -367.0584
ENERGY: 300000 4.0605 15.3649 13.8456 0.0000 -10655.6413 1398.1049 0.0000 0.0000 1731.7779 -7492.4874 297.2273 -9224.2654 -7496.5353 299.7141 -257.5507 -192.5281 30514.0596 -277.2144 -194.1751
ENERGY: 600000 5.4134 11.7955 14.3653 0.0000 -10668.9880 1331.6809 0.0000 0.0000 1777.4784 -7528.2544 305.0709 -9305.7328 -7516.6613 301.1458 -402.8341 -405.8064 29616.3801 -153.9205 -83.8972
ENERGY: 900000 6.6548 14.3567 12.2255 0.0000 -10754.4257 1412.7875 0.0000 0.0000 1721.0711 -7587.3301 295.3896 -9308.4011 -7527.0122 300.3767 -170.4229 -53.7202 30074.4944 -148.7605 -82.0467
ENERGY: 1200000 5.7597 15.0755 12.1609 0.0000 -10676.0578 1403.4784 0.0000 0.0000 1835.4702 -7404.1131 315.0241 -9239.5833 -7514.3411 301.1658 -155.3137 -90.2559 29997.7174 -186.5612 -119.2643
ENERGY: 1500000 4.2350 7.1388 15.6742 0.0000 -10850.5263 1484.1434 0.0000 0.0000 1772.5953 -7566.7396 304.2328 -9339.3349 -7523.5652 300.4529 66.5642 195.3000 30228.0926 -156.5748 -87.2537
TCL: Running FEP window   4: Lambda1 0.8499999999999999 Lambda2 0.7999999999999998 [dLambda -0.050000000000000044]
TCL: Setting parameter firsttimestep to 0
TCL: Setting parameter alchLambda to 0.8499999999999999
Info: NONBONDED TABLE R-SQUARED SPACING: 0.0625
Info: NONBONDED TABLE SIZE: 705 POINTS
TCL: Setting parameter alchLambda2 to 0.7999999999999998
Info: NONBONDED TABLE R-SQUARED SPACING: 0.0625
Info: NONBONDED TABLE SIZE: 705 POINTS
TCL: Running for 1500000 steps
ETITLE: TS BOND ANGLE DIHED IMPRP ELECT VDW BOUNDARY MISC KINETIC TOTAL TEMP POTENTIAL TOTALAVG TEMPAVG PRESSURE GPRESSURE VOLUME PRESSAVG GPRESSAVG
ENERGY: 0 4.2351 7.1388 15.6742 0.0000 -10846.7952 1483.0082 0.0000 0.0000 1771.7276 -7565.0114 304.0839 -9336.7389 -7565.0114 304.0839 98.3145 171.1794 30228.0926 98.3145 171.1794
ENERGY: 300000 7.3728 14.7032 14.0457 0.0000 -10735.5042 1498.0198 0.0000 0.0000 1786.0100 -7415.3528 306.5352 -9201.3628 -7493.8977 301.9117 934.4543 1031.9464 29868.3749 192.9347 283.6364
ENERGY: 600000 5.6952 18.5341 11.5328 0.0000 -10695.6140 1406.9789 0.0000 0.0000 1735.8909 -7516.9821 297.9332 -9252.8729 -7484.1235 301.0303 9.8873 59.7892 29974.7866 154.4075 224.6356
ENERGY: 900000 6.6162 16.5544 15.1138 0.0000 -10716.7238 1425.7769 0.0000 0.0000 1720.7040 -7531.9585 295.3266 -9252.6625 -7495.2860 299.6983 247.5282 302.9366 29961.3282 88.4251 157.9785
ENERGY: 1200000 7.1046 15.4374 12.1576 0.0000 -10691.8466 1417.6718 0.0000 0.0000 1713.4277 -7526.0475 294.0778 -9239.4752 -7500.7118 299.0201 143.3953 229.0971 29594.2349 58.2415 129.1768
ENERGY: 1500000 2.1153 15.9255 11.9691 0.0000 -10736.2574 1480.6712 0.0000 0.0000 1866.2294 -7359.3469 320.3033 -9225.5763 -7489.5791 300.3902 956.0047 1035.2386 29771.5932 90.1911 159.6588
TCL: Running FEP window   5: Lambda1 0.7999999999999998 Lambda2 0.7499999999999998 [dLambda -0.050000000000000044]
TCL: Setting parameter firsttimestep to 0
TCL: Setting parameter alchLambda to 0.7999999999999998
Info: NONBONDED TABLE R-SQUARED SPACING: 0.0625
Info: NONBONDED TABLE SIZE: 705 POINTS
TCL: Setting parameter alchLambda2 to 0.7499999999999998
Info: NONBONDED TABLE R-SQUARED SPACING: 0.0625
Info: NONBONDED TABLE SIZE: 705 POINTS
TCL: Running for 1500000 steps
ETITLE: TS BOND ANGLE DIHED IMPRP ELECT VDW BOUNDARY MISC KINETIC TOTAL TEMP POTENTIAL TOTALAVG TEMPAVG PRESSURE GPRESSURE VOLUME PRESSAVG GPRESSAVG
ENERGY: 0 2.1153 15.9255 11.9691 0.0000 -10733.5015 1480.8703 0.0000 0.0000 1865.3755 -7357.2458 320.1568 -9222.6213 -7357.2458 320.1568 933.2006 1025.5631 29771.5932 933.2006 1025.5631
ENERGY: 300000 4.0313 14.8707 16.0021 0.0000 -10692.7882 1396.0788 0.0000 0.0000 1750.7957 -7511.0095 300.4913 -9261.8053 -7477.3824 303.6100 -395.3346 -276.2404 30075.9613 147.4042 217.0217
ENERGY: 600000 7.1264 15.4885 13.0230 0.0000 -10823.6599 1442.2808 0.0000 0.0000 1757.9870 -7587.7542 301.7256 -9345.7413 -7498.4389 302.9908 -160.2042 -78.9971 29853.3306 -71.9034 3.6756
ENERGY: 900000 6.9969 15.9239 15.5648 0.0000 -10734.5293 1435.1146 0.0000 0.0000 1754.8517 -7506.0774 301.1874 -9260.9292 -7513.3737 302.8698 347.7122 365.6320 29806.2352 -148.3910 -90.2452
ENERGY: 1200000 8.8006 9.6516 11.7395 0.0000 -10863.8536 1431.1283 0.0000 0.0000 1745.2609 -7657.2727 299.5414 -9402.5337 -7515.9750 302.7888 -344.5120 -260.9256 29585.3981 -203.4356 -146.1271
ENERGY: 1500000 8.1793 12.4611 13.7835 0.0000 -10725.0242 1445.9673 0.0000 0.0000 1783.6257 -7461.0072 306.1259 -9244.6329 -7505.2574 302.9442 282.7839 308.6408 30096.7687 -230.9619 -179.3470
TCL: Running FEP window   6: Lambda1 0.7499999999999998 Lambda2 0.6999999999999997 [dLambda -0.050000000000000044]
TCL: Setting parameter firsttimestep to 0
TCL: Setting parameter alchLambda to 0.7499999999999998
Info: NONBONDED TABLE R-SQUARED SPACING: 0.0625
Info: NONBONDED TABLE SIZE: 705 POINTS
TCL: Setting parameter alchLambda2 to 0.6999999999999997
Info: NONBONDED TABLE R-SQUARED SPACING: 0.0625
Info: NONBONDED TABLE SIZE: 705 POINTS
TCL: Running for 1500000 steps
ETITLE: TS BOND ANGLE DIHED IMPRP ELECT VDW BOUNDARY MISC KINETIC TOTAL TEMP POTENTIAL TOTALAVG TEMPAVG PRESSURE GPRESSURE VOLUME PRESSAVG GPRESSAVG
ENERGY: 0 8.1793 12.4611 13.7835 0.0000 -10721.5540 1445.6268 0.0000 0.0000 1782.7387 -7458.7645 305.9737 -9241.5032 -7458.7645 305.9737 228.5831 300.5933 30096.7687 228.5831 300.5933
ENERGY: 300000 3.6250 12.9552 12.1976 0.0000 -10643.8142 1349.6162 0.0000 0.0000 1783.9772 -7481.4429 306.1863 -9265.4201 -7490.6769 304.3927 -648.5221 -556.4798 30318.1829 85.8978 159.2483
ENERGY: 600000 6.8567 16.2475 10.9998 0.0000 -10673.4803 1387.5834 0.0000 0.0000 1743.1171 -7508.6758 299.1734 -9251.7930 -7490.0745 303.1350 -111.0801 -66.7686 29744.5822 120.8768 196.2340
ENERGY: 900000 3.8282 13.9500 12.6527 0.0000 -10726.2910 1465.3303 0.0000 0.0000 1769.4127 -7461.1171 303.6866 -9230.5298 -7492.9267 302.2478 511.0506 545.2289 29975.4229 94.8969 152.3376
ENERGY: 1200000 4.4899 13.4538 13.1535 0.0000 -10635.1165 1325.8988 0.0000 0.0000 1727.0162 -7551.1043 296.4100 -9278.1205 -7505.2102 302.0611 -683.0024 -668.2329 29955.0931 -54.8591 -3.5380
ENERGY: 1500000 4.7282 12.9145 13.1800 0.0000 -10743.6390 1503.0023 0.0000 0.0000 1754.7403 -7455.0738 301.1683 -9209.8141 -7505.6702 301.1003 788.2425 832.6641 30031.0726 4.0059 57.4683
TCL: Running FEP window   7: Lambda1 0.6999999999999997 Lambda2 0.6499999999999997 [dLambda -0.050000000000000044]
TCL: Setting parameter firsttimestep to 0
TCL: Setting parameter alchLambda to 0.6999999999999997
Info: NONBONDED TABLE R-SQUARED SPACING: 0.0625
Info: NONBONDED TABLE SIZE: 705 POINTS
TCL: Setting parameter alchLambda2 to 0.6499999999999997
Info: NONBONDED TABLE R-SQUARED SPACING: 0.0625
Info: NONBONDED TABLE SIZE: 705 POINTS
TCL: Running for 1500000 steps
ETITLE: TS BOND ANGLE DIHED IMPRP ELECT VDW BOUNDARY MISC KINETIC TOTAL TEMP POTENTIAL TOTALAVG TEMPAVG PRESSURE GPRESSURE VOLUME PRESSAVG GPRESSAVG
ENERGY: 0 4.7282 12.9145 13.1800 0.0000 -10741.3119 1502.9464 0.0000 0.0000 1753.8920 -7453.6508 301.0227 -9207.5428 -7453.6508 301.0227 740.4676 821.9375 30031.0726 740.4676 821.9375
ENERGY: 300000 4.8544 9.8623 13.9985 0.0000 -10664.9089 1418.4324 0.0000 0.0000 1796.1202 -7421.6411 308.2704 -9217.7614 -7431.7404 303.7271 77.9470 169.2744 30307.0820 56.7058 131.4135
ENERGY: 600000 7.9100 14.2139 12.8902 0.0000 -10691.1494 1418.8079 0.0000 0.0000 1717.8547 -7519.4727 294.8376 -9237.3274 -7464.3575 300.6955 -44.3211 -11.3343 30226.8192 32.2732 105.2654
ENERGY: 900000 5.5051 16.6098 12.6029 0.0000 -10641.5873 1382.7631 0.0000 0.0000 1697.2554 -7526.8511 291.3021 -9224.1065 -7474.5961 300.5361 -225.0295 -163.4337 30351.0015 -86.3310 -25.6413
ENERGY: 1200000 4.3320 18.6348 12.9764 0.0000 -10442.5084 1284.7613 0.0000 0.0000 1722.7403 -7399.0636 295.6761 -9121.8039 -7479.5131 299.5474 -973.6945 -894.6038 30293.4601 -62.7698 -1.5372
ENERGY: 1500000 3.4669 14.2502 13.5096 0.0000 -10725.7643 1407.6358 0.0000 0.0000 1761.2861 -7525.6157 302.2918 -9286.9018 -7485.6054 299.5887 -163.4570 -104.1032 29836.5394 -110.7907 -48.6731
TCL: Running FEP window   8: Lambda1 0.6499999999999997 Lambda2 0.5999999999999996 [dLambda -0.050000000000000044]
TCL: Setting parameter firsttimestep to 0
TCL: Setting parameter alchLambda to 0.6499999999999997
Info: NONBONDED TABLE R-SQUARED SPACING: 0.0625
Info: NONBONDED TABLE SIZE: 705 POINTS
TCL: Setting parameter alchLambda2 to 0.5999999999999996
Info: NONBONDED TABLE R-SQUARED SPACING: 0.0625
Info: NONBONDED TABLE SIZE: 705 POINTS
TCL: Running for 1500000 steps
ETITLE: TS BOND ANGLE DIHED IMPRP ELECT VDW BOUNDARY MISC KINETIC TOTAL TEMP POTENTIAL TOTALAVG TEMPAVG PRESSURE GPRESSURE VOLUME PRESSAVG GPRESSAVG
ENERGY: 0 3.4669 14.2502 13.5096 0.0000 -10724.6139 1407.4118 0.0000 0.0000 1760.4409 -7525.5345 302.1467 -9285.9754 -7525.5345 302.1467 -212.7035 -121.6408 29836.5394 -212.7035 -121.6408
ENERGY: 300000 5.6937 18.3218 17.3896 0.0000 -10820.0685 1464.8713 0.0000 0.0000 1769.8953 -7543.8969 303.7694 -9313.7923 -7542.8407 301.1167 158.0587 212.1329 30059.9570 425.1600 500.6480
ENERGY: 600000 5.1869 16.8957 14.4211 0.0000 -10786.4406 1471.9629 0.0000 0.0000 1734.4804 -7543.4935 297.6911 -9277.9739 -7552.6818 299.9143 465.6549 486.1826 29770.8259 341.1738 410.6069
ENERGY: 900000 3.4789 19.8405 12.1460 0.0000 -10635.8734 1331.4770 0.0000 0.0000 1766.6331 -7502.2978 303.2095 -9268.9309 -7526.4738 300.4112 -655.6615 -619.3541 29802.8848 175.2984 248.8785
ENERGY: 1200000 4.6852 10.5314 12.3215 0.0000 -10580.1052 1335.6273 0.0000 0.0000 1689.7210 -7527.2187 290.0090 -9216.9397 -7519.3098 299.8681 -519.1610 -451.9062 30348.8850 83.8318 147.9390
ENERGY: 1500000 3.9858 12.4929 12.0064 0.0000 -10650.2038 1397.0482 0.0000 0.0000 1738.4215 -7486.2491 298.3675 -9224.6706 -7502.8216 301.4290 -86.7964 15.7116 29970.2631 144.0909 208.3697
TCL: Running FEP window   9: Lambda1 0.5999999999999996 Lambda2 0.5499999999999996 [dLambda -0.050000000000000044]
TCL: Setting parameter firsttimestep to 0
TCL: Setting parameter alchLambda to 0.5999999999999996
Info: NONBONDED TABLE R-SQUARED SPACING: 0.0625
Info: NONBONDED TABLE SIZE: 705 POINTS
TCL: Setting parameter alchLambda2 to 0.5499999999999996
Info: NONBONDED TABLE R-SQUARED SPACING: 0.0625
Info: NONBONDED TABLE SIZE: 705 POINTS
TCL: Running for 1500000 steps
ETITLE: TS BOND ANGLE DIHED IMPRP ELECT VDW BOUNDARY MISC KINETIC TOTAL TEMP POTENTIAL TOTALAVG TEMPAVG PRESSURE GPRESSURE VOLUME PRESSAVG GPRESSAVG
ENERGY: 0 3.9858 12.4929 12.0064 0.0000 -10649.1880 1397.2233 0.0000 0.0000 1737.5305 -7485.9491 298.2146 -9223.4796 -7485.9491 298.2146 -98.2518 4.8477 29970.2631 -98.2518 4.8477
ENERGY: 300000 5.7013 17.1397 14.2311 0.0000 -10740.7837 1469.3070 0.0000 0.0000 1766.6528 -7467.7518 303.2129 -9234.4046 -7470.5518 298.9404 284.4219 328.3622 30119.5335 -246.3447 -182.7977
ENERGY: 600000 4.3098 16.0798 12.8583 0.0000 -10574.0960 1323.5871 0.0000 0.0000 1752.1637 -7465.0973 300.7261 -9217.2610 -7498.0451 296.2913 -782.7013 -770.3853 30480.8035 -495.5328 -433.7007
ENERGY: 900000 8.6895 12.1829 14.6043 0.0000 -10516.2447 1305.9595 0.0000 0.0000 1780.9562 -7393.8522 305.6678 -9174.8084 -7502.3191 296.1712 -468.4320 -458.5199 30094.8481 -517.3562 -464.3661
ENERGY: 1200000 4.5132 16.3676 12.7248 0.0000 -10615.0695 1391.2494 0.0000 0.0000 1766.3485 -7423.8660 303.1606 -9190.2145 -7495.7191 297.3274 -83.2254 -72.2583 30374.2663 -355.3413 -299.8486
ENERGY: 1500000 7.7225 17.0351 11.0036 0.0000 -10735.7851 1465.2969 0.0000 0.0000 1746.2784 -7488.4485 299.7160 -9234.7270 -7488.4218 297.8418 384.2567 426.6366 29832.9074 -303.1599 -247.8897
TCL: Running FEP window  10: Lambda1 0.5499999999999996 Lambda2 0.4999999999999996 [dLambda -0.04999999999999999]
TCL: Setting parameter firsttimestep to 0
TCL: Setting parameter alchLambda to 0.5499999999999996
Info: NONBONDED TABLE R-SQUARED SPACING: 0.0625
Info: NONBONDED TABLE SIZE: 705 POINTS
TCL: Setting parameter alchLambda2 to 0.4999999999999996
Info: NONBONDED TABLE R-SQUARED SPACING: 0.0625
Info: NONBONDED TABLE SIZE: 705 POINTS
TCL: Running for 1500000 steps
ETITLE: TS BOND ANGLE DIHED IMPRP ELECT VDW BOUNDARY MISC KINETIC TOTAL TEMP POTENTIAL TOTALAVG TEMPAVG PRESSURE GPRESSURE VOLUME PRESSAVG GPRESSAVG
ENERGY: 0 7.7225 17.0351 11.0036 0.0000 -10735.3962 1466.1200 0.0000 0.0000 1745.4301 -7488.0849 299.5704 -9233.5149 -7488.0849 299.5704 333.7219 425.4495 29832.9074 333.7219 425.4495
ENERGY: 300000 4.6517 17.2792 13.7650 0.0000 -10690.9481 1408.9139 0.0000 0.0000 1750.0277 -7496.3107 300.3595 -9246.3383 -7484.1045 296.9866 -34.3673 10.9563 29937.9896 -389.4823 -301.9106
ENERGY: 600000 7.2012 11.6392 13.9199 0.0000 -10736.6606 1489.9544 0.0000 0.0000 1784.0928 -7429.8531 306.2061 -9213.9459 -7455.0533 301.3742 607.6071 707.6967 30038.3489 -188.1132 -96.3305
ENERGY: 900000 6.8703 11.9821 14.5360 0.0000 -10763.1789 1494.6876 0.0000 0.0000 1799.3756 -7435.7273 308.8291 -9235.1029 -7444.4769 301.9625 457.6555 477.4107 29984.7777 -136.8499 -62.2032
ENERGY: 1200000 4.2228 14.6223 13.6098 0.0000 -10638.4964 1390.1377 0.0000 0.0000 1722.9088 -7492.9950 295.7050 -9215.9038 -7458.6129 300.8059 -336.8767 -308.6939 30054.9419 -59.6544 9.3326
ENERGY: 1500000 3.8645 20.0031 12.6916 0.0000 -10562.8213 1321.1467 0.0000 0.0000 1766.8287 -7438.2867 303.2431 -9205.1153 -7456.3871 301.0352 -813.4719 -734.2635 30399.6430 -89.8754 -25.3250
TCL: Running FEP window  11: Lambda1 0.4999999999999996 Lambda2 0.4499999999999996 [dLambda -0.04999999999999999]
TCL: Setting parameter firsttimestep to 0
TCL: Setting parameter alchLambda to 0.4999999999999996
Info: NONBONDED TABLE R-SQUARED SPACING: 0.0625
Info: NONBONDED TABLE SIZE: 705 POINTS
TCL: Setting parameter alchLambda2 to 0.4499999999999996
Info: NONBONDED TABLE R-SQUARED SPACING: 0.0625
Info: NONBONDED TABLE SIZE: 705 POINTS
TCL: Running for 1500000 steps
ETITLE: TS BOND ANGLE DIHED IMPRP ELECT VDW BOUNDARY MISC KINETIC TOTAL TEMP POTENTIAL TOTALAVG TEMPAVG PRESSURE GPRESSURE VOLUME PRESSAVG GPRESSAVG
ENERGY: 0 3.8645 20.0031 12.6916 0.0000 -10562.5894 1321.8479 0.0000 0.0000 1765.9718 -7438.2105 303.0960 -9204.1822 -7438.2105 303.0960 -828.6459 -736.2567 30399.6430 -828.6459 -736.2567
ENERGY: 300000 5.2909 20.0265 14.7375 0.0000 -10640.6394 1361.8329 0.0000 0.0000 1738.2186 -7500.5329 298.3327 -9238.7515 -7479.0895 301.7587 -450.5112 -407.9523 30249.7861 -550.6578 -463.8285
ENERGY: 600000 4.4039 11.1364 12.8016 0.0000 -10618.7227 1318.6267 0.0000 0.0000 1803.6910 -7468.0631 309.5698 -9271.7541 -7489.5205 302.8679 -593.0705 -491.6267 29711.5456 -438.6174 -347.1616
ENERGY: 900000 5.5855 19.3764 12.3922 0.0000 -10885.9741 1482.2034 0.0000 0.0000 1725.3911 -7641.0255 296.1311 -9366.4166 -7497.8154 301.8555 16.7719 104.3620 29764.1862 -292.0406 -212.9392
ENERGY: 1200000 3.1579 14.4031 11.4146 0.0000 -10699.1845 1472.8488 0.0000 0.0000 1728.6408 -7468.7193 296.6888 -9197.3601 -7497.6485 302.0706 349.1386 517.3349 30447.7785 -176.9177 -91.8054
ENERGY: 1500000 4.9896 15.1308 11.7315 0.0000 -10745.4985 1450.2977 0.0000 0.0000 1711.7530 -7551.5961 293.7903 -9263.3490 -7503.4601 300.8573 102.2491 106.6492 30040.5623 -98.6967 -24.0238
TCL: Running FEP window  12: Lambda1 0.4499999999999996 Lambda2 0.39999999999999963 [dLambda -0.04999999999999999]
TCL: Setting parameter firsttimestep to 0
TCL: Setting parameter alchLambda to 0.4499999999999996
Info: NONBONDED TABLE R-SQUARED SPACING: 0.0625
Info: NONBONDED TABLE SIZE: 705 POINTS
TCL: Setting parameter alchLambda2 to 0.39999999999999963
Info: NONBONDED TABLE R-SQUARED SPACING: 0.0625
Info: NONBONDED TABLE SIZE: 705 POINTS
TCL: Running for 1500000 steps
ETITLE: TS BOND ANGLE DIHED IMPRP ELECT VDW BOUNDARY MISC KINETIC TOTAL TEMP POTENTIAL TOTALAVG TEMPAVG PRESSURE GPRESSURE VOLUME PRESSAVG GPRESSAVG
ENERGY: 0 4.9896 15.1307 11.7315 0.0000 -10745.4997 1451.1163 0.0000 0.0000 1710.8632 -7551.6684 293.6376 -9262.5316 -7551.6684 293.6376 30.4248 103.5822 30040.5623 30.4248 103.5822
ENERGY: 300000 6.4580 15.3915 11.9998 0.0000 -10756.5260 1505.1314 0.0000 0.0000 1786.0692 -7431.4762 306.5453 -9217.5453 -7498.3176 300.0432 630.8054 781.4258 29878.5161 78.0719 160.7409
ENERGY: 600000 5.5518 11.3537 11.9081 0.0000 -10900.3198 1497.5012 0.0000 0.0000 1697.4210 -7676.5840 291.3305 -9374.0051 -7504.6127 301.2218 541.5412 627.8983 29183.3757 236.7298 312.9595
ENERGY: 900000 5.2824 6.6875 16.0848 0.0000 -10830.0856 1445.7564 0.0000 0.0000 1752.8341 -7603.4405 300.8411 -9356.2746 -7521.9630 300.7739 -36.2010 15.6300 29808.0599 218.5809 289.4561
ENERGY: 1200000 4.6997 16.5121 13.1048 0.0000 -10601.7188 1383.2188 0.0000 0.0000 1774.5892 -7409.5943 304.5750 -9184.1835 -7505.4083 301.0731 -292.1641 -235.8662 30347.9935 178.5869 240.8769
ENERGY: 1500000 6.4441 16.2430 12.0619 0.0000 -10626.3825 1370.3817 0.0000 0.0000 1705.3492 -7515.9027 292.6912 -9221.2518 -7509.2330 300.3354 -470.9589 -384.1535 29969.8058 151.3219 217.7198
TCL: Running FEP window  13: Lambda1 0.39999999999999963 Lambda2 0.34999999999999964 [dLambda -0.04999999999999999]
TCL: Setting parameter firsttimestep to 0
TCL: Setting parameter alchLambda to 0.39999999999999963
Info: NONBONDED TABLE R-SQUARED SPACING: 0.0625
Info: NONBONDED TABLE SIZE: 705 POINTS
TCL: Setting parameter alchLambda2 to 0.34999999999999964
Info: NONBONDED TABLE R-SQUARED SPACING: 0.0625
Info: NONBONDED TABLE SIZE: 705 POINTS
TCL: Running for 1500000 steps
ETITLE: TS BOND ANGLE DIHED IMPRP ELECT VDW BOUNDARY MISC KINETIC TOTAL TEMP POTENTIAL TOTALAVG TEMPAVG PRESSURE GPRESSURE VOLUME PRESSAVG GPRESSAVG
ENERGY: 0 6.4441 16.2430 12.0619 0.0000 -10626.3834 1370.4975 0.0000 0.0000 1704.4987 -7516.6383 292.5453 -9221.1370 -7516.6383 292.5453 -483.3933 -391.9682 29969.8058 -483.3933 -391.9682
ENERGY: 300000 7.3718 13.2528 12.9207 0.0000 -10639.9909 1398.6874 0.0000 0.0000 1738.5273 -7469.2309 298.3857 -9207.7583 -7489.2294 300.7120 -273.5490 -176.9174 30152.3157 -129.2340 -23.8178
ENERGY: 600000 6.5238 14.2329 12.5552 0.0000 -10619.9641 1415.2592 0.0000 0.0000 1712.5390 -7458.8540 293.9253 -9171.3930 -7481.1261 297.5398 107.4816 168.8319 30025.9119 -195.0531 -99.3201
ENERGY: 900000 7.1908 14.5529 11.9917 0.0000 -10622.4367 1342.5714 0.0000 0.0000 1748.4812 -7497.6487 300.0941 -9246.1299 -7488.9165 296.5303 -824.3249 -760.8581 30077.8871 -162.0137 -72.8596
ENERGY: 1200000 5.3235 11.5532 11.5514 0.0000 -10677.7112 1429.5126 0.0000 0.0000 1748.7976 -7470.9730 300.1484 -9219.7706 -7472.7060 299.4343 -173.8541 -63.9359 30158.1260 10.6420 97.6692
ENERGY: 1500000 7.1180 9.7350 14.2546 0.0000 -10648.1693 1466.1164 0.0000 0.0000 1775.6425 -7375.3027 304.7558 -9150.9452 -7465.4261 300.2465 709.7346 807.6277 29861.4463 -7.2429 82.1615
TCL: Running FEP window  14: Lambda1 0.34999999999999964 Lambda2 0.29999999999999966 [dLambda -0.04999999999999999]
TCL: Setting parameter firsttimestep to 0
TCL: Setting parameter alchLambda to 0.34999999999999964
Info: NONBONDED TABLE R-SQUARED SPACING: 0.0625
Info: NONBONDED TABLE SIZE: 705 POINTS
TCL: Setting parameter alchLambda2 to 0.29999999999999966
Info: NONBONDED TABLE R-SQUARED SPACING: 0.0625
Info: NONBONDED TABLE SIZE: 705 POINTS
TCL: Running for 1500000 steps
ETITLE: TS BOND ANGLE DIHED IMPRP ELECT VDW BOUNDARY MISC KINETIC TOTAL TEMP POTENTIAL TOTALAVG TEMPAVG PRESSURE GPRESSURE VOLUME PRESSAVG GPRESSAVG
ENERGY: 0 7.1180 9.7350 14.2546 0.0000 -10648.1697 1466.0915 0.0000 0.0000 1774.7989 -7376.1716 304.6110 -9150.9705 -7376.1716 304.6110 718.0423 797.0431 29861.4463 718.0423 797.0431
ENERGY: 300000 4.1803 11.7988 14.4897 0.0000 -10786.3785 1441.0920 0.0000 0.0000 1735.6044 -7579.2133 297.8840 -9314.8177 -7434.0181 304.1827 -69.9415 -51.0520 29910.2754 359.2068 406.4771
ENERGY: 600000 6.4313 13.4353 12.8172 0.0000 -10858.2693 1476.7846 0.0000 0.0000 1786.8005 -7562.0005 306.6708 -9348.8009 -7444.0263 305.4404 280.0010 332.0639 29445.6945 470.0206 520.0894
ENERGY: 900000 2.3672 12.8733 15.7301 0.0000 -10709.7145 1442.9005 0.0000 0.0000 1759.9622 -7475.8812 302.0646 -9235.8434 -7470.2849 302.9705 380.1625 413.2727 29720.8025 367.5095 426.4217
ENERGY: 1200000 4.5562 15.1058 11.6823 0.0000 -10651.9965 1425.9808 0.0000 0.0000 1711.4248 -7483.2466 293.7340 -9194.6714 -7469.5780 302.1151 172.4583 227.1993 29831.8901 291.4075 358.4601
ENERGY: 1500000 8.8205 15.4173 13.5915 0.0000 -10778.3574 1449.5993 0.0000 0.0000 1785.7039 -7505.2249 306.4826 -9290.9288 -7479.4070 301.6384 -287.8024 -221.0903 30576.4160 234.6922 295.3302
TCL: Running FEP window  15: Lambda1 0.29999999999999966 Lambda2 0.24999999999999967 [dLambda -0.04999999999999999]
TCL: Setting parameter firsttimestep to 0
TCL: Setting parameter alchLambda to 0.29999999999999966
Info: NONBONDED TABLE R-SQUARED SPACING: 0.0625
Info: NONBONDED TABLE SIZE: 705 POINTS
TCL: Setting parameter alchLambda2 to 0.24999999999999967
Info: NONBONDED TABLE R-SQUARED SPACING: 0.0625
Info: NONBONDED TABLE SIZE: 705 POINTS
TCL: Running for 1500000 steps
ETITLE: TS BOND ANGLE DIHED IMPRP ELECT VDW BOUNDARY MISC KINETIC TOTAL TEMP POTENTIAL TOTALAVG TEMPAVG PRESSURE GPRESSURE VOLUME PRESSAVG GPRESSAVG
ENERGY: 0 8.8205 15.4173 13.5915 0.0000 -10778.3574 1449.5069 0.0000 0.0000 1784.7916 -7506.2296 306.3261 -9291.0212 -7506.2296 306.3261 -298.9618 -230.4788 30576.4160 -298.9618 -230.4788
ENERGY: 300000 4.0752 18.5382 12.9956 0.0000 -10841.7630 1508.9576 0.0000 0.0000 1722.6289 -7574.5675 295.6570 -9297.1964 -7477.4753 301.3403 584.8637 629.3096 29741.0825 125.8244 188.6429
ENERGY: 600000 4.4487 16.1941 13.5141 0.0000 -10605.3381 1345.2129 0.0000 0.0000 1813.2489 -7412.7194 311.2102 -9225.9682 -7469.6011 303.0785 -753.7479 -705.4739 30160.9292 -79.6035 -34.1626
ENERGY: 900000 5.3360 15.0587 14.3280 0.0000 -10536.6383 1329.0549 0.0000 0.0000 1730.9682 -7441.8925 297.0883 -9172.8607 -7469.1090 301.2017 -735.5713 -625.5999 29808.4994 -124.1806 -71.8732
ENERGY: 1200000 9.5986 11.2820 13.2705 0.0000 -10552.0124 1306.5607 0.0000 0.0000 1770.6384 -7440.6622 303.8969 -9211.3006 -7460.5174 301.6448 -945.1855 -834.9743 30192.0938 -211.3964 -154.5306
ENERGY: 1500000 3.2157 11.7942 11.6359 0.0000 -10735.5066 1404.3825 0.0000 0.0000 1783.2244 -7521.2538 306.0571 -9304.4782 -7474.0382 300.7135 -425.2479 -386.4936 30045.4102 -219.5599 -157.6695
TCL: Running FEP window  16: Lambda1 0.24999999999999967 Lambda2 0.19999999999999968 [dLambda -0.04999999999999999]
TCL: Setting parameter firsttimestep to 0
TCL: Setting parameter alchLambda to 0.24999999999999967
Info: NONBONDED TABLE R-SQUARED SPACING: 0.0625
Info: NONBONDED TABLE SIZE: 705 POINTS
TCL: Setting parameter alchLambda2 to 0.19999999999999968
Info: NONBONDED TABLE R-SQUARED SPACING: 0.0625
Info: NONBONDED TABLE SIZE: 705 POINTS
TCL: Running for 1500000 steps
ETITLE: TS BOND ANGLE DIHED IMPRP ELECT VDW BOUNDARY MISC KINETIC TOTAL TEMP POTENTIAL TOTALAVG TEMPAVG PRESSURE GPRESSURE VOLUME PRESSAVG GPRESSAVG
ENERGY: 0 3.2157 11.7942 11.6359 0.0000 -10735.5053 1404.6060 0.0000 0.0000 1782.3561 -7521.8973 305.9080 -9304.2535 -7521.8973 305.9080 -475.6718 -390.8932 30045.4102 -475.6718 -390.8932
ENERGY: 300000 2.5112 9.6007 11.2097 0.0000 -10804.7310 1480.4706 0.0000 0.0000 1732.4694 -7568.4694 297.3459 -9300.9388 -7553.9207 298.6128 418.1912 445.6361 29988.4790 -335.6538 -257.0802
ENERGY: 600000 8.3938 9.5499 14.5134 0.0000 -10626.2116 1383.8901 0.0000 0.0000 1772.5188 -7437.3457 304.2197 -9209.8644 -7535.5206 298.4875 -449.1833 -389.3293 30389.3945 -391.7551 -322.6828
ENERGY: 900000 4.2407 11.9172 12.2282 0.0000 -10704.3940 1439.8115 0.0000 0.0000 1777.9277 -7458.2686 305.1480 -9236.1963 -7501.3691 299.9895 -291.9057 -242.9232 30482.9866 -306.0639 -247.5763
ENERGY: 1200000 4.5639 18.3428 10.8114 0.0000 -10678.6728 1416.3685 0.0000 0.0000 1775.6287 -7452.9574 304.7534 -9228.5861 -7499.3565 299.7234 -359.4435 -290.3180 30174.2983 -290.6350 -226.7907
ENERGY: 1500000 2.4405 15.8671 14.4599 0.0000 -10712.1996 1473.7338 0.0000 0.0000 1740.0045 -7465.6937 298.6392 -9205.6982 -7505.4064 299.2732 235.5943 254.0955 30475.2205 -218.5186 -159.5730
TCL: Running FEP window  17: Lambda1 0.19999999999999968 Lambda2 0.1499999999999997 [dLambda -0.04999999999999999]
TCL: Setting parameter firsttimestep to 0
TCL: Setting parameter alchLambda to 0.19999999999999968
Info: NONBONDED TABLE R-SQUARED SPACING: 0.0625
Info: NONBONDED TABLE SIZE: 705 POINTS
TCL: Setting parameter alchLambda2 to 0.1499999999999997
Info: NONBONDED TABLE R-SQUARED SPACING: 0.0625
Info: NONBONDED TABLE SIZE: 705 POINTS
TCL: Running for 1500000 steps
ETITLE: TS BOND ANGLE DIHED IMPRP ELECT VDW BOUNDARY MISC KINETIC TOTAL TEMP POTENTIAL TOTALAVG TEMPAVG PRESSURE GPRESSURE VOLUME PRESSAVG GPRESSAVG
ENERGY: 0 2.4405 15.8671 14.4599 0.0000 -10712.1991 1473.6911 0.0000 0.0000 1739.1430 -7466.5975 298.4913 -9205.7406 -7466.5975 298.4913 183.4991 249.0999 30475.2205 183.4991 249.0999
ENERGY: 300000 6.4672 13.8209 17.3747 0.0000 -10694.1186 1434.0689 0.0000 0.0000 1710.5025 -7511.8844 293.5757 -9222.3869 -7510.9386 294.9088 -114.1266 -118.7410 30285.9959 -260.0657 -203.8222
ENERGY: 600000 3.8573 12.2867 13.8753 0.0000 -10728.4493 1416.1170 0.0000 0.0000 1726.7599 -7555.5530 296.3660 -9282.3129 -7523.2842 296.5286 -138.3464 -95.1627 29786.3899 -182.4463 -119.5199
ENERGY: 900000 7.7353 19.7536 12.0896 0.0000 -10735.1547 1422.3721 0.0000 0.0000 1725.9188 -7547.2854 296.2216 -9273.2042 -7522.8279 298.0292 -191.7878 -91.4501 29683.2066 -173.0662 -104.7038
ENERGY: 1200000 8.1255 14.0143 13.8192 0.0000 -10793.5520 1486.2738 0.0000 0.0000 1779.1608 -7492.1584 305.3596 -9271.3192 -7508.6842 299.0397 255.0111 350.2235 29816.7030 -123.5357 -56.1482
ENERGY: 1500000 6.9765 12.0271 12.0101 0.0000 -10630.3718 1371.6684 0.0000 0.0000 1738.7022 -7488.9875 298.4157 -9227.6897 -7506.3599 298.7218 -691.3298 -626.3108 30127.8860 -142.8942 -79.6592
TCL: Running FEP window  18: Lambda1 0.1499999999999997 Lambda2 0.09999999999999969 [dLambda -0.05 ]
TCL: Setting parameter firsttimestep to 0
TCL: Setting parameter alchLambda to 0.1499999999999997
Info: NONBONDED TABLE R-SQUARED SPACING: 0.0625
Info: NONBONDED TABLE SIZE: 705 POINTS
TCL: Setting parameter alchLambda2 to 0.09999999999999969
Info: NONBONDED TABLE R-SQUARED SPACING: 0.0625
Info: NONBONDED TABLE SIZE: 705 POINTS
TCL: Running for 1500000 steps
ETITLE: TS BOND ANGLE DIHED IMPRP ELECT VDW BOUNDARY MISC KINETIC TOTAL TEMP POTENTIAL TOTALAVG TEMPAVG PRESSURE GPRESSURE VOLUME PRESSAVG GPRESSAVG
ENERGY: 0 6.9765 12.0271 12.0101 0.0000 -10630.3715 1371.3137 0.0000 0.0000 1737.8287 -7490.2154 298.2658 -9228.0441 -7490.2154 298.2658 -727.6563 -635.0933 30127.8860 -727.6563 -635.0933
ENERGY: 300000 4.1868 14.7868 15.6910 0.0000 -10740.8137 1422.0051 0.0000 0.0000 1777.3473 -7506.7967 305.0484 -9284.1440 -7504.1993 298.6452 109.1454 227.3927 29473.7775 -192.7656 -112.1919
ENERGY: 600000 4.9558 14.6741 12.7011 0.0000 -10709.7381 1445.9732 0.0000 0.0000 1725.4304 -7506.0034 296.1378 -9231.4338 -7505.9732 297.8226 91.0686 145.5362 29886.2534 -11.1765 47.2667
ENERGY: 900000 5.3773 15.0678 13.3023 0.0000 -10648.1521 1398.6758 0.0000 0.0000 1796.6058 -7419.1231 308.3537 -9215.7289 -7501.3668 299.7308 -320.9589 -295.2987 30301.5943 -111.3167 -47.3167
ENERGY: 1200000 4.7257 13.1685 14.8496 0.0000 -10797.0232 1516.3602 0.0000 0.0000 1726.0775 -7521.8417 296.2489 -9247.9192 -7501.5223 299.7575 490.5561 555.5196 29987.3421 -109.5899 -40.0784
ENERGY: 1500000 6.4246 16.7056 14.2569 0.0000 -10823.7068 1497.2158 0.0000 0.0000 1780.0665 -7509.0374 305.5151 -9289.1040 -7495.5857 300.6391 422.8776 481.5208 29505.2365 -96.5621 -32.3102
TCL: Running FEP window  19: Lambda1 0.09999999999999969 Lambda2 0.049999999999999684 [dLambda -0.05 ]
TCL: Setting parameter firsttimestep to 0
TCL: Setting parameter alchLambda to 0.09999999999999969
Info: NONBONDED TABLE R-SQUARED SPACING: 0.0625
Info: NONBONDED TABLE SIZE: 705 POINTS
TCL: Setting parameter alchLambda2 to 0.049999999999999684
Info: NONBONDED TABLE R-SQUARED SPACING: 0.0625
Info: NONBONDED TABLE SIZE: 705 POINTS
TCL: Running for 1500000 steps
ETITLE: TS BOND ANGLE DIHED IMPRP ELECT VDW BOUNDARY MISC KINETIC TOTAL TEMP POTENTIAL TOTALAVG TEMPAVG PRESSURE GPRESSURE VOLUME PRESSAVG GPRESSAVG
ENERGY: 0 6.4246 16.7056 14.2569 0.0000 -10823.7062 1497.3191 0.0000 0.0000 1779.1810 -7509.8191 305.3631 -9289.0001 -7509.8191 305.3631 400.9018 477.2569 29505.2365 400.9018 477.2569
ENERGY: 300000 3.2792 15.9329 13.8847 0.0000 -10685.1868 1383.3956 0.0000 0.0000 1819.3232 -7449.3712 312.2528 -9268.6944 -7475.7490 304.6651 -452.6646 -378.8424 29600.8558 6.6538 73.6408
ENERGY: 600000 7.7664 13.6856 14.0246 0.0000 -10704.4959 1391.7316 0.0000 0.0000 1754.1387 -7523.1489 301.0651 -9277.2876 -7475.4385 303.4672 -558.6470 -465.3045 30062.9520 219.5761 288.4723
ENERGY: 900000 4.0512 14.8901 13.9570 0.0000 -10790.6830 1518.9615 0.0000 0.0000 1765.9418 -7472.8814 303.0908 -9238.8232 -7482.3323 303.2368 457.0311 555.7748 29875.2294 255.4611 322.1516
ENERGY: 1200000 3.1774 13.2492 16.3736 0.0000 -10582.9607 1443.3120 0.0000 0.0000 1751.8852 -7354.9633 300.6783 -9106.8485 -7459.0235 303.1927 257.8861 269.5832 30392.9217 86.3188 145.7213
ENERGY: 1500000 9.2393 9.4544 12.5277 0.0000 -10674.9303 1410.4643 0.0000 0.0000 1757.8962 -7475.3484 301.7100 -9233.2446 -7463.5087 302.5763 -183.4048 -85.0924 29763.6950 -10.3232 49.3625
TCL: Running FEP window  20: Lambda1 0.049999999999999684 Lambda2 0.0    [dLambda -0.049999999999999684]
TCL: Setting parameter firsttimestep to 0
TCL: Setting parameter alchLambda to 0.049999999999999684
Info: NONBONDED TABLE R-SQUARED SPACING: 0.0625
Info: NONBONDED TABLE SIZE: 705 POINTS
TCL: Setting parameter alchLambda2 to 0.0
Info: NONBONDED TABLE R-SQUARED SPACING: 0.0625
Info: NONBONDED TABLE SIZE: 705 POINTS
TCL: Running for 1500000 steps
ETITLE: TS BOND ANGLE DIHED IMPRP ELECT VDW BOUNDARY MISC KINETIC TOTAL TEMP POTENTIAL TOTALAVG TEMPAVG PRESSURE GPRESSURE VOLUME PRESSAVG GPRESSAVG
ENERGY: 0 9.2393 9.4544 12.5277 0.0000 -10674.9301 1409.0209 0.0000 0.0000 1757.0376 -7477.6502 301.5626 -9234.6878 -7477.6502 301.5626 -170.0667 -92.3769 29763.6950 -170.0667 -92.3769
ENERGY: 300000 5.7607 18.0568 13.4835 0.0000 -10634.3440 1330.5359 0.0000 0.0000 1699.5687 -7566.9385 291.6991 -9266.5071 -7523.4078 298.9753 -918.2132 -809.7412 29738.9746 -395.3287 -323.2388
ENERGY: 600000 5.6487 19.2266 12.3922 0.0000 -10719.6631 1380.4867 0.0000 0.0000 1734.7647 -7567.1443 297.7399 -9301.9090 -7505.7452 300.3675 -538.3525 -417.1944 29822.6406 -365.0592 -271.3834
ENERGY: 900000 3.9275 18.6338 13.7781 0.0000 -10656.1115 1399.9260 0.0000 0.0000 1702.1815 -7517.6646 292.1476 -9219.8462 -7490.4323 299.6473 -229.8826 -159.6658 29758.1845 -201.0620 -112.5973
ENERGY: 1200000 2.8671 11.7503 14.3101 0.0000 -10709.6477 1488.5101 0.0000 0.0000 1714.3741 -7477.8361 294.2402 -9192.2103 -7498.0247 298.8417 530.6460 603.2601 29898.3012 -243.6841 -158.1565
ENERGY: 1500000 5.6678 16.1730 15.8099 0.0000 -10736.5833 1510.0828 0.0000 0.0000 1764.0392 -7424.8105 302.7643 -9188.8497 -7496.5680 298.6779 935.0963 993.5544 29858.6229 -120.3703 -39.4125
TCL: Exiting due to exit command.
