Info: SIMULATION PARAMETERS:
Info: TIMESTEP               2
Info: NUMBER OF STEPS        0
Info: STEPS PER CYCLE        10
Info: PERIODIC CELL BASIS 1  33.0102 0 0
Info: PERIODIC CELL BASIS 2  0 30.4562 0
Info: PERIODIC CELL BASIS 3  0 0 30.8296
Info: PERIODIC CELL CENTER   0 0 0
Info: WRAPPING WATERS AROUND PERIODIC BOUNDARIES ON OUTPUT.
Info: WRAPPING ALL CLUSTERS AROUND PERIODIC BOUNDARIES ON OUTPUT.
Info: FIRST LDB TIMESTEP     50
Info: LAST LDB TIMESTEP     -1
Info: HOM BACKGROUND SCALING 1
Info: PME BACKGROUND SCALING 1
Info: MIN ATOMS PER PATCH    40
Info: EMPTY PATCH LOAD       40 ATOMS
Info: VELOCITY FILE          mobley_4964807_equil.vel
Info: CENTER OF MASS MOVING INITIALLY? NO
Info: DIELECTRIC             1
Info: EXCLUDE                SCALED ONE-FOUR
Info: 1-4 ELECTROSTATICS SCALED BY 0.833333
Info: MODIFIED 1-4 VDW PARAMETERS WILL BE USED
Info: DCD FILENAME           mobley_4964807_prod.dcd
Info: DCD FREQUENCY          100000
Info: DCD FIRST STEP         100000
Info: DCD FILE WILL CONTAIN UNIT CELL DATA
Info: XST FILENAME           mobley_4964807_prod.xst
Info: XST FREQUENCY          100000
Info: NO VELOCITY DCD OUTPUT
Info: NO FORCE DCD OUTPUT
Info: OUTPUT FILENAME        mobley_4964807_prod
Info: BINARY OUTPUT FILES WILL BE USED
Info: RESTART FILENAME       mobley_4964807_prod.restart
Info: RESTART FREQUENCY      100000
Info: BINARY RESTART FILES WILL BE USED
Info: CUTOFF                 9
Info: PAIRLIST DISTANCE      11
Info: PAIRLIST SHRINK RATE   0.01
Info: PAIRLIST GROW RATE     0.01
Info: PAIRLIST TRIGGER       0.3
Info: PAIRLISTS PER CYCLE    2
Info: PAIRLISTS ENABLED
Info: MARGIN                 2
Info: HYDROGEN GROUP CUTOFF  2.5
Info: PATCH DIMENSION        15.5
Info: ENERGY OUTPUT STEPS    100000
Info: ENERGY EVALUATION STEPS    100000
Info: OUTPUT ENERGY PRECISION 4
Info: CROSSTERM ENERGY INCLUDED IN DIHEDRAL
Info: TIMING OUTPUT STEPS    1000000
Info: PRESSURE OUTPUT STEPS  100000
Info: ALCHEMICAL FEP ON
Info: FEP CURRENT LAMBDA VALUE     0
Info: FEP COMPARISON LAMBDA VALUE  0.05
Info: FEP INTRA-ALCHEMICAL NON-BONDED INTERACTIONS WILL BE RETAINED
Info: FEP INTRA-ALCHEMICAL BONDED INTERACTIONS WILL BE RETAINED
Info: FEP VDW SHIFTING COEFFICIENT 5
Info: FEP ELEC. ACTIVE FOR ANNIHILATED PARTICLES BETWEEN LAMBDA = 0 AND LAMBDA = 0.5
Info: FEP ELEC. ACTIVE FOR EXNIHILATED PARTICLES BETWEEN LAMBDA = 0.5 AND LAMBDA = 1
Info: FEP VDW ACTIVE FOR ANNIHILATED PARTICLES BETWEEN LAMBDA = 0 AND LAMBDA = 1
Info: FEP VDW ACTIVE FOR EXNIHILATED PARTICLES BETWEEN LAMBDA = 0 AND LAMBDA = 1
Info: FEP BOND ACTIVE FOR ANNIHILATED PARTICLES BETWEEN LAMBDA = 1 AND LAMBDA = 1
Info: FEP BOND ACTIVE FOR EXNIHILATED PARTICLES BETWEEN LAMBDA = 0 AND LAMBDA = 0
Info: LANGEVIN DYNAMICS ACTIVE
Info: LANGEVIN TEMPERATURE   300
Info: LANGEVIN USING BBK INTEGRATOR
Info: LANGEVIN DAMPING COEFFICIENT IS 1 INVERSE PS
Info: LANGEVIN DYNAMICS APPLIED TO HYDROGENS
Info: LANGEVIN PISTON PRESSURE CONTROL ACTIVE
Info:        TARGET PRESSURE IS 1.01325 BAR
Info:     OSCILLATION PERIOD IS 50 FS
Info:             DECAY TIME IS 25 FS
Info:     PISTON TEMPERATURE IS 300 K
Info:       PRESSURE CONTROL IS GROUP-BASED
Info:    INITIAL STRAIN RATE IS -6.91921e-05 -6.91921e-05 -6.91921e-05
Info:       CELL FLUCTUATION IS ISOTROPIC
Info: PARTICLE MESH EWALD (PME) ACTIVE
Info: PME TOLERANCE               1e-06
Info: PME EWALD COEFFICIENT       0.348832
Info: PME INTERPOLATION ORDER     4
Info: PME GRID DIMENSIONS         36 32 32
Info: PME MAXIMUM GRID SPACING    1
Info: PME CALCULATION WILL BE PERFORMED ON GPU
Info: FULL ELECTROSTATIC EVALUATION FREQUENCY      2
Info: USING VERLET I (r-RESPA) MTS SCHEME.
Info: C1 SPLITTING OF LONG RANGE ELECTROSTATICS
Info: PLACING ATOMS IN PATCHES BY HYDROGEN GROUPS
Info: RIGID BONDS TO HYDROGEN : ALL
Info:         ERROR TOLERANCE : 1e-08
Info:          MAX ITERATIONS : 100
Info: RIGID WATER USING SETTLE ALGORITHM
Info: RANDOM NUMBER SEED     1743896159
Info: USE HYDROGEN BONDS?    NO
Info: Using AMBER format force field!
Info: AMBER PARM FILE        mobley_4964807.prmtop
Info: COORDINATE PDB         mobley_4964807.pdb
Info: Exclusions will be read from PARM file!
Info: SCNB (VDW SCALING)     2
Info: USING ARITHMETIC MEAN TO COMBINE L-J SIGMA PARAMETERS
Info: BINARY COORDINATES     mobley_4964807_equil.coor
Info: SUMMARY OF PARAMETERS:
Info: 9 BONDS
Info: 11 ANGLES
Info:   11 HARMONIC
Info:   0 COSINE-BASED
Info: 7 DIHEDRAL
Info: 0 IMPROPER
Info: 0 CROSSTERM
Info: 0 VDW
Info: 45 VDW_PAIRS
Info: 0 NBTHOLE_PAIRS
Info: To read alchdata from file: mobley_4964807.pdb
Info: To read alchflag data from column: 5
Info: STRUCTURE SUMMARY:
Info: 2974 ATOMS
Info: 2973 BONDS
Info: 19 ANGLES
Info: 28 DIHEDRALS
Info: 0 IMPROPERS
Info: 0 CROSSTERMS
Info: 3009 EXCLUSIONS
Info: 2966 RIGID BONDS
Info: ALCH: 0 ATOMS TO DISAPPEAR IN FINAL STATE
Info: ALCH: 13 ATOMS TO APPEAR IN FINAL STATE
Info: 5956 DEGREES OF FREEDOM
Info: 995 HYDROGEN GROUPS
Info: 4 ATOMS IN LARGEST HYDROGEN GROUP
Info: 995 MIGRATION GROUPS
Info: 4 ATOMS IN LARGEST MIGRATION GROUP
Info: TOTAL MASS = 17900.9 amu
Info: TOTAL CHARGE = -2.23517e-08 e
Info: MASS DENSITY = 0.959051 g/cm^3
Info: ATOM DENSITY = 0.095951 atoms/A^3
Info: ADDED 0 IMPLICIT EXCLUSIONS
Info: NONBONDED TABLE R-SQUARED SPACING: 0.0625
Info: NONBONDED TABLE SIZE: 705 POINTS
Info: REMOVING COM VELOCITY 0.0512726 -0.134715 0.146403
Info: Use 3D box decompostion in PME FFT.
Info: Updated CUDA force table with 4096 elements.
Info: Updated CUDA LJ table with 9 x 9 elements.
Info: Found 15 unique exclusion lists needing 28 bytes
TCL: Running for 1500000 steps
ETITLE: TS BOND ANGLE DIHED IMPRP ELECT VDW BOUNDARY MISC KINETIC TOTAL TEMP POTENTIAL TOTALAVG TEMPAVG PRESSURE GPRESSURE VOLUME PRESSAVG GPRESSAVG
ENERGY: 0 1.8743 6.9877 5.1588 0.0000 -10767.4684 1476.1823 0.0000 0.0000 1759.2113 -7518.0540 297.2718 -9277.2653 -7518.0540 297.2718 -8.3745 78.9865 30995.0010 -8.3745 78.9865
ENERGY: 300000 2.8952 5.6186 5.9036 0.0000 -10814.5121 1464.0468 0.0000 0.0000 1738.9445 -7597.1034 293.8471 -9336.0479 -7549.3269 298.5919 36.7943 71.5666 30384.1467 269.5495 348.8662
ENERGY: 600000 1.6923 4.7510 5.3492 0.0000 -10846.9086 1473.2856 0.0000 0.0000 1778.3339 -7583.4967 300.5031 -9361.8306 -7556.4824 300.7953 58.1360 135.0861 30331.3307 232.3637 301.4977
ENERGY: 900000 2.5033 5.3836 6.0857 0.0000 -10732.2458 1382.3957 0.0000 0.0000 1780.1201 -7555.7575 300.8050 -9335.8776 -7554.5382 300.5956 -514.5643 -416.8149 30555.1958 15.9209 87.0964
ENERGY: 1200000 2.4584 5.0588 5.6625 0.0000 -10783.0676 1426.1977 0.0000 0.0000 1787.6125 -7556.0777 302.0710 -9343.6902 -7563.5918 300.2186 -217.8050 -153.2905 30203.1712 54.3170 125.1430
ENERGY: 1500000 5.4416 6.6224 4.9292 0.0000 -10751.4716 1437.4332 0.0000 0.0000 1770.7056 -7526.3396 299.2141 -9297.0452 -7563.6325 299.9435 -344.5601 -263.3183 30907.4098 0.2170 69.7993
TCL: Running FEP window   2: Lambda1 0.05   Lambda2 0.1    [dLambda 0.05  ]
TCL: Setting parameter firsttimestep to 0
TCL: Setting parameter alchLambda to 0.05
Info: NONBONDED TABLE R-SQUARED SPACING: 0.0625
Info: NONBONDED TABLE SIZE: 705 POINTS
TCL: Setting parameter alchLambda2 to 0.1
Info: NONBONDED TABLE R-SQUARED SPACING: 0.0625
Info: NONBONDED TABLE SIZE: 705 POINTS
TCL: Running for 1500000 steps
ETITLE: TS BOND ANGLE DIHED IMPRP ELECT VDW BOUNDARY MISC KINETIC TOTAL TEMP POTENTIAL TOTALAVG TEMPAVG PRESSURE GPRESSURE VOLUME PRESSAVG GPRESSAVG
ENERGY: 0 5.4416 6.6224 4.9292 0.0000 -10751.4703 1438.1832 0.0000 0.0000 1769.8317 -7526.4623 299.0664 -9296.2940 -7526.4623 299.0664 -352.5558 -263.3505 30907.4098 -352.5558 -263.3505
ENERGY: 300000 2.0144 4.7337 5.5380 0.0000 -10763.9991 1405.4118 0.0000 0.0000 1778.7103 -7567.5909 300.5667 -9346.3013 -7513.8425 303.0812 -626.8766 -574.5053 30759.1039 -433.6740 -377.2937
ENERGY: 600000 2.8980 6.1818 7.3548 0.0000 -10794.2588 1473.4063 0.0000 0.0000 1768.0433 -7536.3746 298.7642 -9304.4179 -7518.7846 301.2313 317.1435 385.9176 30668.6783 -124.0202 -61.5770
ENERGY: 900000 0.8894 2.4094 5.7893 0.0000 -10875.6615 1496.9909 0.0000 0.0000 1726.2774 -7643.3052 291.7066 -9369.5826 -7528.4935 300.8270 -21.9899 14.3723 30779.1096 -149.7734 -88.2011
ENERGY: 1200000 1.0023 3.5228 5.2464 0.0000 -10810.6492 1414.3187 0.0000 0.0000 1797.4996 -7589.0594 303.7418 -9386.5590 -7537.5119 300.4856 -220.1561 -147.5542 30008.4358 -126.2370 -67.5438
ENERGY: 1500000 1.8814 3.6629 4.8385 0.0000 -10962.1242 1560.3035 0.0000 0.0000 1795.3712 -7596.0668 303.3821 -9391.4380 -7535.6796 301.3544 564.1822 643.3249 30301.0508 -70.5853 -8.0519
TCL: Running FEP window   3: Lambda1 0.1    Lambda2 0.15000000000000002 [dLambda 0.05000000000000002]
TCL: Setting parameter firsttimestep to 0
TCL: Setting parameter alchLambda to 0.1
Info: NONBONDED TABLE R-SQUARED SPACING: 0.0625
Info: NONBONDED TABLE SIZE: 705 POINTS
TCL: Setting parameter alchLambda2 to 0.15000000000000002
Info: NONBONDED TABLE R-SQUARED SPACING: 0.0625
Info: NONBONDED TABLE SIZE: 705 POINTS
TCL: Running for 1500000 steps
ETITLE: TS BOND ANGLE DIHED IMPRP ELECT VDW BOUNDARY MISC KINETIC TOTAL TEMP POTENTIAL TOTALAVG TEMPAVG PRESSURE GPRESSURE VOLUME PRESSAVG GPRESSAVG
ENERGY: 0 1.8813 3.6629 4.8385 0.0000 -10962.1259 1561.3970 0.0000 0.0000 1794.4769 -7595.8692 303.2310 -9390.3461 -7595.8692 303.2310 558.3517 649.3647 30301.0508 558.3517 649.3647
ENERGY: 300000 4.3342 5.2892 4.9474 0.0000 -10775.0547 1446.7280 0.0000 0.0000 1748.9776 -7564.7784 295.5425 -9313.7559 -7600.3314 296.7032 -97.6538 87.3571 30366.4880 158.3309 254.2059
ENERGY: 600000 1.1601 3.3200 5.2065 0.0000 -10779.5629 1468.2399 0.0000 0.0000 1791.5784 -7510.0581 302.7412 -9301.6364 -7576.0039 297.6810 137.6252 231.8430 30496.2839 174.1580 256.3520
ENERGY: 900000 2.7808 6.5130 4.7181 0.0000 -10689.2307 1420.1585 0.0000 0.0000 1757.5422 -7497.5181 296.9897 -9255.0603 -7556.8136 297.7198 -225.6389 -130.3882 30698.2555 31.4569 112.4615
ENERGY: 1200000 1.4188 7.1765 6.0301 0.0000 -10786.2766 1459.0763 0.0000 0.0000 1771.9727 -7540.6022 299.4282 -9312.5749 -7550.1003 298.8690 50.6061 87.3787 30803.5905 86.4550 163.0687
ENERGY: 1500000 2.2705 4.8655 5.3184 0.0000 -10736.5166 1392.9707 0.0000 0.0000 1723.5372 -7607.5543 291.2436 -9331.0915 -7558.6474 297.9448 -600.8262 -530.0948 30442.8380 -13.3907 62.1989
TCL: Running FEP window   4: Lambda1 0.15000000000000002 Lambda2 0.2    [dLambda 0.04999999999999999]
TCL: Setting parameter firsttimestep to 0
TCL: Setting parameter alchLambda to 0.15000000000000002
Info: NONBONDED TABLE R-SQUARED SPACING: 0.0625
Info: NONBONDED TABLE SIZE: 705 POINTS
TCL: Setting parameter alchLambda2 to 0.2
Info: NONBONDED TABLE R-SQUARED SPACING: 0.0625
Info: NONBONDED TABLE SIZE: 705 POINTS
TCL: Running for 1500000 steps
ETITLE: TS BOND ANGLE DIHED IMPRP ELECT VDW BOUNDARY MISC KINETIC TOTAL TEMP POTENTIAL TOTALAVG TEMPAVG PRESSURE GPRESSURE VOLUME PRESSAVG GPRESSAVG
ENERGY: 0 2.2705 4.8655 5.3184 0.0000 -10736.5159 1392.9311 0.0000 0.0000 1722.6539 -7608.4765 291.0943 -9331.1304 -7608.4765 291.0943 -609.4019 -525.1197 30442.8380 -609.4019 -525.1197
ENERGY: 300000 1.2651 5.7265 5.7638 0.0000 -10913.8619 1535.7981 0.0000 0.0000 1760.2682 -7605.0402 297.4504 -9365.3084 -7575.7526 295.6530 262.5243 323.5945 30851.9161 -4.6884 79.0386
ENERGY: 600000 2.4054 4.8924 4.9043 0.0000 -10794.4689 1479.5473 0.0000 0.0000 1806.0280 -7496.6915 305.1829 -9302.7195 -7578.4374 296.1915 382.7698 446.0581 30392.5245 91.4063 169.4519
ENERGY: 900000 2.7374 5.4304 5.3228 0.0000 -10693.8756 1394.0737 0.0000 0.0000 1748.0056 -7538.3058 295.3782 -9286.3114 -7573.9342 296.1856 -631.2209 -535.1933 30827.2368 -54.1498 19.8245
ENERGY: 1200000 2.1416 5.4203 4.7218 0.0000 -10790.3823 1420.2516 0.0000 0.0000 1777.5339 -7580.3131 300.3679 -9357.8470 -7561.8844 297.3143 -338.4637 -242.2351 30613.9563 -35.3950 40.7797
ENERGY: 1500000 4.1841 10.5999 5.8829 0.0000 -10678.5643 1403.4541 0.0000 0.0000 1844.6603 -7409.7831 311.7110 -9254.4434 -7546.5953 298.5839 -482.0503 -395.0158 30986.5861 -155.8718 -77.5465
TCL: Running FEP window   5: Lambda1 0.2    Lambda2 0.25   [dLambda 0.04999999999999999]
TCL: Setting parameter firsttimestep to 0
TCL: Setting parameter alchLambda to 0.2
Info: NONBONDED TABLE R-SQUARED SPACING: 0.0625
Info: NONBONDED TABLE SIZE: 705 POINTS
TCL: Setting parameter alchLambda2 to 0.25
Info: NONBONDED TABLE R-SQUARED SPACING: 0.0625
Info: NONBONDED TABLE SIZE: 705 POINTS
TCL: Running for 1500000 steps
ETITLE: TS BOND ANGLE DIHED IMPRP ELECT VDW BOUNDARY MISC KINETIC TOTAL TEMP POTENTIAL TOTALAVG TEMPAVG PRESSURE GPRESSURE VOLUME PRESSAVG GPRESSAVG
ENERGY: 0 4.1841 10.5999 5.8829 0.0000 -10678.5650 1403.8302 0.0000 0.0000 1843.7261 -7410.3418 311.5531 -9254.0679 -7410.3418 311.5531 -487.6269 -390.7539 30986.5861 -487.6269 -390.7539
ENERGY: 300000 1.4212 5.4052 7.8948 0.0000 -10710.0145 1441.8007 0.0000 0.0000 1805.9349 -7447.5577 305.1672 -9253.4926 -7477.9158 304.3797 153.5694 139.3545 30816.4246 -187.9361 -156.2025
ENERGY: 600000 1.8112 5.9907 5.6537 0.0000 -10774.7242 1419.5059 0.0000 0.0000 1737.5187 -7604.2440 293.6062 -9341.7627 -7511.3874 300.4746 -626.9183 -566.5761 30911.2022 -377.1396 -326.1926
ENERGY: 900000 5.8070 5.5587 6.8902 0.0000 -10879.6030 1479.5446 0.0000 0.0000 1773.0668 -7608.7358 299.6131 -9381.8026 -7514.4917 299.6740 -100.9947 -39.5721 30294.1870 -241.5159 -189.5107
ENERGY: 1200000 1.4777 9.9579 4.9185 0.0000 -10664.6108 1359.5537 0.0000 0.0000 1773.7619 -7514.9410 299.7305 -9288.7029 -7522.8073 299.0466 -433.5155 -391.3231 30334.2530 -126.1256 -72.2529
ENERGY: 1500000 3.6549 8.4920 5.4667 0.0000 -10887.0736 1497.0718 0.0000 0.0000 1802.1756 -7570.2126 304.5319 -9372.3882 -7531.8746 299.3928 110.2200 198.2213 30706.2486 -96.0418 -35.0646
TCL: Running FEP window   6: Lambda1 0.25   Lambda2 0.3    [dLambda 0.04999999999999999]
TCL: Setting parameter firsttimestep to 0
TCL: Setting parameter alchLambda to 0.25
Info: NONBONDED TABLE R-SQUARED SPACING: 0.0625
Info: NONBONDED TABLE SIZE: 705 POINTS
TCL: Setting parameter alchLambda2 to 0.3
Info: NONBONDED TABLE R-SQUARED SPACING: 0.0625
Info: NONBONDED TABLE SIZE: 705 POINTS
TCL: Running for 1500000 steps
ETITLE: TS BOND ANGLE DIHED IMPRP ELECT VDW BOUNDARY MISC KINETIC TOTAL TEMP POTENTIAL TOTALAVG TEMPAVG PRESSURE GPRESSURE VOLUME PRESSAVG GPRESSAVG
ENERGY: 0 3.6549 8.4920 5.4667 0.0000 -10887.0739 1496.7926 0.0000 0.0000 1801.2773 -7571.3905 304.3801 -9372.6678 -7571.3905 304.3801 119.2091 200.7403 30706.2486 119.2091 200.7403
ENERGY: 300000 2.9284 5.1782 4.2946 0.0000 -10841.4605 1490.6995 0.0000 0.0000 1811.3636 -7526.9962 306.0845 -9338.3598 -7558.9626 298.9743 217.0049 257.5379 30659.1570 105.2066 148.2056
ENERGY: 600000 1.8173 3.8985 6.7114 0.0000 -10727.5030 1462.3964 0.0000 0.0000 1778.5223 -7474.1571 300.5350 -9252.6794 -7550.5678 299.5152 120.9561 203.7234 30621.5677 219.8106 282.4078
ENERGY: 900000 0.8663 6.2932 5.1133 0.0000 -10863.2786 1493.7970 0.0000 0.0000 1804.6772 -7552.5316 304.9546 -9357.2088 -7551.7148 299.8573 315.2395 410.3065 30241.4652 80.5414 149.2562
ENERGY: 1200000 2.6907 5.8933 5.2828 0.0000 -10939.6428 1539.2663 0.0000 0.0000 1782.5978 -7603.9118 301.2236 -9386.5096 -7551.7048 300.4772 428.8364 482.2466 30395.2178 85.3416 153.5550
ENERGY: 1500000 2.8389 5.7691 5.7675 0.0000 -10827.7180 1494.7865 0.0000 0.0000 1804.5896 -7513.9663 304.9398 -9318.5559 -7541.9753 301.1745 139.0606 274.1248 30446.1926 92.8744 167.0601
TCL: Running FEP window   7: Lambda1 0.3    Lambda2 0.35   [dLambda 0.04999999999999999]
TCL: Setting parameter firsttimestep to 0
TCL: Setting parameter alchLambda to 0.3
Info: NONBONDED TABLE R-SQUARED SPACING: 0.0625
Info: NONBONDED TABLE SIZE: 705 POINTS
TCL: Setting parameter alchLambda2 to 0.35
Info: NONBONDED TABLE R-SQUARED SPACING: 0.0625
Info: NONBONDED TABLE SIZE: 705 POINTS
TCL: Running for 1500000 steps
ETITLE: TS BOND ANGLE DIHED IMPRP ELECT VDW BOUNDARY MISC KINETIC TOTAL TEMP POTENTIAL TOTALAVG TEMPAVG PRESSURE GPRESSURE VOLUME PRESSAVG GPRESSAVG
ENERGY: 0 2.8388 5.7691 5.7675 0.0000 -10827.7175 1494.3686 0.0000 0.0000 1803.7128 -7515.2607 304.7917 -9318.9735 -7515.2607 304.7917 187.0267 274.9220 30446.1926 187.0267 274.9220
ENERGY: 300000 3.6327 7.5876 4.9818 0.0000 -10853.6392 1483.5581 0.0000 0.0000 1823.7434 -7530.1357 308.1764 -9353.8792 -7551.7388 300.5577 -83.9939 5.6388 30772.9874 -269.8023 -195.7886
ENERGY: 600000 3.7549 5.4047 6.8508 0.0000 -10836.4248 1446.9181 0.0000 0.0000 1773.0734 -7600.4228 299.6142 -9373.4962 -7564.7000 298.7235 78.0293 134.2158 30129.9121 -223.4531 -147.9120
ENERGY: 900000 1.0153 9.5517 5.4146 0.0000 -10936.7164 1530.8363 0.0000 0.0000 1818.5118 -7571.3866 307.2924 -9389.8984 -7554.4017 298.7408 434.1498 497.7490 30526.6830 -70.2808 0.1368
ENERGY: 1200000 1.3147 7.1660 5.9346 0.0000 -10827.8826 1502.1679 0.0000 0.0000 1853.5020 -7457.7973 313.2051 -9311.2993 -7549.2069 300.3065 646.9862 650.9917 30490.5170 -21.8191 45.5505
ENERGY: 1500000 2.5105 6.9223 6.4428 0.0000 -10807.7867 1457.3378 0.0000 0.0000 1733.9302 -7600.6430 292.9998 -9334.5733 -7552.5995 299.6466 -82.1365 -57.8895 30687.5156 32.0355 100.5433
TCL: Running FEP window   8: Lambda1 0.35   Lambda2 0.39999999999999997 [dLambda 0.04999999999999999]
TCL: Setting parameter firsttimestep to 0
TCL: Setting parameter alchLambda to 0.35
Info: NONBONDED TABLE R-SQUARED SPACING: 0.0625
Info: NONBONDED TABLE SIZE: 705 POINTS
TCL: Setting parameter alchLambda2 to 0.39999999999999997
Info: NONBONDED TABLE R-SQUARED SPACING: 0.0625
Info: NONBONDED TABLE SIZE: 705 POINTS
TCL: Running for 1500000 steps
ETITLE: TS BOND ANGLE DIHED IMPRP ELECT VDW BOUNDARY MISC KINETIC TOTAL TEMP POTENTIAL TOTALAVG TEMPAVG PRESSURE GPRESSURE VOLUME PRESSAVG GPRESSAVG
ENERGY: 0 2.5105 6.9223 6.4428 0.0000 -10807.7853 1456.7682 0.0000 0.0000 1733.0635 -7602.0779 292.8533 -9335.1414 -7602.0779 292.8533 -133.8792 -58.8466 30687.5156 -133.8792 -58.8466
ENERGY: 300000 1.8131 4.1601 5.8838 0.0000 -10821.2370 1474.9601 0.0000 0.0000 1797.7752 -7536.6448 303.7883 -9334.4200 -7570.4298 299.2896 165.5734 238.8384 30876.0720 -3.5782 78.9288
ENERGY: 600000 1.8031 4.8302 4.9142 0.0000 -10813.3845 1478.9237 0.0000 0.0000 1751.8651 -7571.0483 296.0304 -9322.9134 -7543.2450 300.0068 81.4092 239.4190 30731.9705 102.5895 200.0038
ENERGY: 900000 1.0325 7.3247 6.1863 0.0000 -10830.7504 1444.5778 0.0000 0.0000 1786.5166 -7585.1126 301.8859 -9371.6292 -7544.8370 301.1175 -411.7845 -257.0190 30877.6657 -35.8405 72.7174
ENERGY: 1200000 2.9438 6.4837 5.8360 0.0000 -10816.2398 1437.5672 0.0000 0.0000 1776.2149 -7587.1942 300.1451 -9363.4091 -7547.3095 300.3785 -270.4623 -169.5806 30483.8347 -98.6735 2.2976
ENERGY: 1500000 3.5221 5.2132 6.5528 0.0000 -10791.7380 1400.5955 0.0000 0.0000 1898.2731 -7477.5812 320.7705 -9375.8543 -7540.0757 301.6511 -511.6576 -484.9989 30729.9703 -177.7294 -85.4158
TCL: Running FEP window   9: Lambda1 0.39999999999999997 Lambda2 0.44999999999999996 [dLambda 0.04999999999999999]
TCL: Setting parameter firsttimestep to 0
TCL: Setting parameter alchLambda to 0.39999999999999997
Info: NONBONDED TABLE R-SQUARED SPACING: 0.0625
Info: NONBONDED TABLE SIZE: 705 POINTS
TCL: Setting parameter alchLambda2 to 0.44999999999999996
Info: NONBONDED TABLE R-SQUARED SPACING: 0.0625
Info: NONBONDED TABLE SIZE: 705 POINTS
TCL: Running for 1500000 steps
ETITLE: TS BOND ANGLE DIHED IMPRP ELECT VDW BOUNDARY MISC KINETIC TOTAL TEMP POTENTIAL TOTALAVG TEMPAVG PRESSURE GPRESSURE VOLUME PRESSAVG GPRESSAVG
ENERGY: 0 3.5221 5.2132 6.5528 0.0000 -10791.7372 1401.0701 0.0000 0.0000 1897.3950 -7477.9840 320.6221 -9375.3790 -7477.9840 320.6221 -561.5053 -475.3284 30729.9703 -561.5053 -475.3284
ENERGY: 300000 3.5394 6.5731 7.1684 0.0000 -10755.9019 1415.4196 0.0000 0.0000 1760.8402 -7562.3611 297.5470 -9323.2013 -7548.1313 301.0970 -339.6992 -275.9274 30691.4088 -341.2199 -284.2700
ENERGY: 600000 1.1794 8.6143 8.5902 0.0000 -10785.0456 1426.3689 0.0000 0.0000 1785.4813 -7554.8115 301.7109 -9340.2928 -7543.1870 302.4174 -101.6648 -77.2260 30548.8716 -246.8789 -192.6162
ENERGY: 900000 3.8042 4.7579 5.1629 0.0000 -10817.8979 1510.5238 0.0000 0.0000 1731.7574 -7561.8917 292.6326 -9293.6491 -7553.3729 300.1496 321.3428 441.9966 30606.5339 -217.1864 -165.8284
ENERGY: 1200000 3.6592 1.7629 6.3161 0.0000 -11056.7127 1579.8449 0.0000 0.0000 1771.1338 -7693.9957 299.2865 -9465.1295 -7560.9349 299.4910 659.1363 767.8365 30187.5399 -126.4608 -77.3170
ENERGY: 1500000 2.5188 5.3361 7.8547 0.0000 -10687.2117 1378.1944 0.0000 0.0000 1781.1196 -7512.1881 300.9739 -9293.3077 -7551.7953 299.3712 -685.5197 -593.9503 30850.0329 -179.1776 -125.7996
TCL: Running FEP window  10: Lambda1 0.44999999999999996 Lambda2 0.49999999999999994 [dLambda 0.04999999999999999]
TCL: Setting parameter firsttimestep to 0
TCL: Setting parameter alchLambda to 0.44999999999999996
Info: NONBONDED TABLE R-SQUARED SPACING: 0.0625
Info: NONBONDED TABLE SIZE: 705 POINTS
TCL: Setting parameter alchLambda2 to 0.49999999999999994
Info: NONBONDED TABLE R-SQUARED SPACING: 0.0625
Info: NONBONDED TABLE SIZE: 705 POINTS
TCL: Running for 1500000 steps
ETITLE: TS BOND ANGLE DIHED IMPRP ELECT VDW BOUNDARY MISC KINETIC TOTAL TEMP POTENTIAL TOTALAVG TEMPAVG PRESSURE GPRESSURE VOLUME PRESSAVG GPRESSAVG
ENERGY: 0 2.5188 5.3361 7.8547 0.0000 -10687.2123 1379.0199 0.0000 0.0000 1780.2292 -7512.2537 300.8234 -9292.4828 -7512.2537 300.8234 -671.7746 -578.9560 30850.0329 -671.7746 -578.9560
ENERGY: 300000 4.5537 5.7389 5.3470 0.0000 -10756.6657 1465.5303 0.0000 0.0000 1747.2188 -7528.2770 295.2453 -9275.4958 -7502.2551 299.1890 291.5599 284.7106 30991.8250 8.8523 54.4943
ENERGY: 600000 2.4560 6.2012 5.0333 0.0000 -10852.9558 1514.6999 0.0000 0.0000 1788.7024 -7535.8630 302.2552 -9324.5654 -7524.6204 299.1859 612.2868 653.6920 30081.1218 73.0845 118.0998
ENERGY: 900000 1.3879 4.3783 5.7952 0.0000 -10823.8777 1451.6463 0.0000 0.0000 1763.4139 -7597.2560 297.9819 -9360.6699 -7545.6968 298.2664 -134.5338 -48.8807 30905.7052 6.0518 63.0814
ENERGY: 1200000 4.1753 8.8223 6.0144 0.0000 -10724.3272 1408.2144 0.0000 0.0000 1780.4896 -7516.6112 300.8674 -9297.1008 -7533.8337 298.2347 -6.5146 91.4988 30218.5298 58.3661 120.4032
ENERGY: 1500000 2.8029 3.6755 5.2631 0.0000 -10635.4639 1441.5979 0.0000 0.0000 1782.8333 -7399.2911 301.2634 -9182.1244 -7535.0117 298.5120 311.3762 428.1789 30705.1174 55.6243 119.1137
TCL: Running FEP window  11: Lambda1 0.49999999999999994 Lambda2 0.5499999999999999 [dLambda 0.04999999999999999]
TCL: Setting parameter firsttimestep to 0
TCL: Setting parameter alchLambda to 0.49999999999999994
Info: NONBONDED TABLE R-SQUARED SPACING: 0.0625
Info: NONBONDED TABLE SIZE: 705 POINTS
TCL: Setting parameter alchLambda2 to 0.5499999999999999
Info: NONBONDED TABLE R-SQUARED SPACING: 0.0625
Info: NONBONDED TABLE SIZE: 705 POINTS
TCL: Running for 1500000 steps
ETITLE: TS BOND ANGLE DIHED IMPRP ELECT VDW BOUNDARY MISC KINETIC TOTAL TEMP POTENTIAL TOTALAVG TEMPAVG PRESSURE GPRESSURE VOLUME PRESSAVG GPRESSAVG
ENERGY: 0 2.8029 3.6755 5.2631 0.0000 -10635.4631 1441.3246 0.0000 0.0000 1781.9330 -7400.4640 301.1113 -9182.3970 -7400.4640 301.1113 335.5546 432.4888 30705.1174 335.5546 432.4888
ENERGY: 300000 1.6120 4.3645 5.0061 0.0000 -10791.9697 1496.2875 0.0000 0.0000 1775.6553 -7509.0442 300.0505 -9284.6996 -7503.4957 297.9719 297.7889 368.0991 30646.0827 476.5706 542.4063
ENERGY: 600000 1.9648 6.7418 5.5127 0.0000 -10754.5826 1421.5827 0.0000 0.0000 1812.9530 -7505.8276 306.3531 -9318.7806 -7528.9877 300.7620 -105.8864 -36.3304 30457.9804 206.5406 263.4998
ENERGY: 900000 1.8853 5.4088 4.4381 0.0000 -10898.7284 1495.9092 0.0000 0.0000 1793.1688 -7597.9182 303.0099 -9391.0870 -7540.7470 300.7493 538.8996 556.4499 29981.8261 119.7100 166.2706
ENERGY: 1200000 2.6293 5.9358 4.5483 0.0000 -10851.4839 1527.8090 0.0000 0.0000 1730.0813 -7580.4802 292.3494 -9310.5615 -7548.1774 299.0765 684.6281 722.8935 30425.8207 137.3757 190.8148
ENERGY: 1500000 0.9703 3.4004 5.9743 0.0000 -10793.6048 1458.9821 0.0000 0.0000 1767.6769 -7556.6006 298.7023 -9324.2776 -7540.9753 298.8338 17.5243 37.6848 30743.7424 94.4807 153.1937
TCL: Running FEP window  12: Lambda1 0.5499999999999999 Lambda2 0.6    [dLambda 0.050000000000000044]
TCL: Setting parameter firsttimestep to 0
TCL: Setting parameter alchLambda to 0.5499999999999999
Info: NONBONDED TABLE R-SQUARED SPACING: 0.0625
Info: NONBONDED TABLE SIZE: 705 POINTS
TCL: Setting parameter alchLambda2 to 0.6
Info: NONBONDED TABLE R-SQUARED SPACING: 0.0625
Info: NONBONDED TABLE SIZE: 705 POINTS
TCL: Running for 1500000 steps
ETITLE: TS BOND ANGLE DIHED IMPRP ELECT VDW BOUNDARY MISC KINETIC TOTAL TEMP POTENTIAL TOTALAVG TEMPAVG PRESSURE GPRESSURE VOLUME PRESSAVG GPRESSAVG
ENERGY: 0 0.9703 3.4004 5.9743 0.0000 -10793.3647 1458.2146 0.0000 0.0000 1766.7824 -7558.0226 298.5511 -9324.8050 -7558.0226 298.5511 -49.3966 35.5345 30743.7424 -49.3966 35.5345
ENERGY: 300000 1.5082 4.0428 4.6711 0.0000 -10731.6496 1493.0931 0.0000 0.0000 1750.3903 -7477.9441 295.7812 -9228.3344 -7565.3873 296.4107 328.4264 429.4677 30799.0143 -146.6552 -48.7613
ENERGY: 600000 3.0016 7.1394 6.4777 0.0000 -10824.7169 1446.7024 0.0000 0.0000 1698.8985 -7662.4973 287.0801 -9361.3958 -7571.4722 296.7182 -372.2363 -256.2489 30755.3716 112.1537 193.8151
ENERGY: 900000 1.9383 5.0886 5.8321 0.0000 -10777.1672 1465.6836 0.0000 0.0000 1811.7305 -7486.8941 306.1465 -9298.6246 -7564.5337 298.7267 169.1212 222.6193 30793.9686 68.0801 147.6824
ENERGY: 1200000 2.7259 7.2868 5.5997 0.0000 -10716.7075 1437.3285 0.0000 0.0000 1811.7192 -7452.0472 306.1446 -9263.7664 -7546.8803 299.5124 -6.6909 23.0879 30743.7480 45.9942 109.6030
ENERGY: 1500000 0.9327 9.6554 5.8573 0.0000 -10785.0134 1498.3355 0.0000 0.0000 1785.0028 -7485.2296 301.6301 -9270.2324 -7544.4816 300.2556 898.5717 981.5984 29996.8199 89.2958 160.0305
TCL: Running FEP window  13: Lambda1 0.6    Lambda2 0.65   [dLambda 0.050000000000000044]
TCL: Setting parameter firsttimestep to 0
TCL: Setting parameter alchLambda to 0.6
Info: NONBONDED TABLE R-SQUARED SPACING: 0.0625
Info: NONBONDED TABLE SIZE: 705 POINTS
TCL: Setting parameter alchLambda2 to 0.65
Info: NONBONDED TABLE R-SQUARED SPACING: 0.0625
Info: NONBONDED TABLE SIZE: 705 POINTS
TCL: Running for 1500000 steps
ETITLE: TS BOND ANGLE DIHED IMPRP ELECT VDW BOUNDARY MISC KINETIC TOTAL TEMP POTENTIAL TOTALAVG TEMPAVG PRESSURE GPRESSURE VOLUME PRESSAVG GPRESSAVG
ENERGY: 0 0.9327 9.6554 5.8573 0.0000 -10785.5240 1498.7148 0.0000 0.0000 1784.1045 -7486.2592 301.4782 -9270.3637 -7486.2592 301.4782 904.9881 993.3093 29996.8199 904.9881 993.3093
ENERGY: 300000 2.3679 7.3286 5.4160 0.0000 -10729.6745 1382.4008 0.0000 0.0000 1745.8657 -7586.2956 295.0166 -9332.1613 -7535.6507 299.9576 -737.3738 -683.1452 30775.2536 -343.9684 -272.2503
ENERGY: 600000 1.6051 4.0667 5.8470 0.0000 -10897.9876 1551.2298 0.0000 0.0000 1764.8391 -7570.4001 298.2228 -9335.2391 -7546.4733 301.1713 853.4145 912.0425 30305.7030 -183.0728 -120.4967
ENERGY: 900000 1.9405 10.8294 6.3220 0.0000 -10872.2486 1451.1100 0.0000 0.0000 1729.5981 -7672.4486 292.2677 -9402.0467 -7549.0938 301.2283 321.3578 394.4188 29687.8477 -258.4257 -199.3045
ENERGY: 1200000 1.1601 5.4159 6.1140 0.0000 -11004.7489 1581.1313 0.0000 0.0000 1752.9730 -7657.9546 296.2176 -9410.9276 -7559.5633 300.7166 914.9530 1035.8675 30039.0635 -122.0074 -53.8727
ENERGY: 1500000 0.8587 6.4450 6.0633 0.0000 -10890.3096 1537.9675 0.0000 0.0000 1751.9868 -7586.9882 296.0510 -9338.9751 -7554.9831 301.0257 577.1902 622.5646 30396.2714 -28.6107 36.6645
TCL: Running FEP window  14: Lambda1 0.65   Lambda2 0.7000000000000001 [dLambda 0.050000000000000044]
TCL: Setting parameter firsttimestep to 0
TCL: Setting parameter alchLambda to 0.65
Info: NONBONDED TABLE R-SQUARED SPACING: 0.0625
Info: NONBONDED TABLE SIZE: 705 POINTS
TCL: Setting parameter alchLambda2 to 0.7000000000000001
Info: NONBONDED TABLE R-SQUARED SPACING: 0.0625
Info: NONBONDED TABLE SIZE: 705 POINTS
TCL: Running for 1500000 steps
ETITLE: TS BOND ANGLE DIHED IMPRP ELECT VDW BOUNDARY MISC KINETIC TOTAL TEMP POTENTIAL TOTALAVG TEMPAVG PRESSURE GPRESSURE VOLUME PRESSAVG GPRESSAVG
ENERGY: 0 0.8587 6.4450 6.0633 0.0000 -10890.9484 1537.7317 0.0000 0.0000 1751.1242 -7588.7255 295.9052 -9339.8497 -7588.7255 295.9052 543.7379 625.0693 30396.2714 543.7379 625.0693
ENERGY: 300000 5.6615 8.7044 5.7176 0.0000 -10801.2140 1487.1638 0.0000 0.0000 1786.9996 -7506.9671 301.9675 -9293.9667 -7537.5992 302.1407 465.8778 485.0419 30600.3224 230.1387 300.4095
ENERGY: 600000 0.5245 6.8936 5.7081 0.0000 -10741.3653 1426.2606 0.0000 0.0000 1799.2182 -7502.7603 304.0322 -9301.9785 -7525.8581 302.7933 -333.8017 -297.9889 31228.8193 277.7046 341.9874
ENERGY: 900000 2.6363 5.2446 6.0161 0.0000 -10770.1060 1416.8433 0.0000 0.0000 1810.4536 -7528.9120 305.9307 -9339.3656 -7531.9886 302.3851 -462.5632 -449.3833 31022.6852 171.2284 228.8269
ENERGY: 1200000 1.6496 4.6011 5.6859 0.0000 -10709.5888 1432.2681 0.0000 0.0000 1756.2187 -7509.1653 296.7661 -9265.3840 -7534.4028 302.2273 147.4831 221.2412 30404.2980 83.6297 131.1220
ENERGY: 1500000 2.2401 9.0929 5.8380 0.0000 -10860.2905 1488.0496 0.0000 0.0000 1760.8864 -7594.1835 297.5549 -9355.0699 -7535.8483 301.3045 347.1775 424.8002 30566.7607 154.9779 203.4043
TCL: Running FEP window  15: Lambda1 0.7000000000000001 Lambda2 0.7500000000000001 [dLambda 0.050000000000000044]
TCL: Setting parameter firsttimestep to 0
TCL: Setting parameter alchLambda to 0.7000000000000001
Info: NONBONDED TABLE R-SQUARED SPACING: 0.0625
Info: NONBONDED TABLE SIZE: 705 POINTS
TCL: Setting parameter alchLambda2 to 0.7500000000000001
Info: NONBONDED TABLE R-SQUARED SPACING: 0.0625
Info: NONBONDED TABLE SIZE: 705 POINTS
TCL: Running for 1500000 steps
ETITLE: TS BOND ANGLE DIHED IMPRP ELECT VDW BOUNDARY MISC KINETIC TOTAL TEMP POTENTIAL TOTALAVG TEMPAVG PRESSURE GPRESSURE VOLUME PRESSAVG GPRESSAVG
ENERGY: 0 2.2401 9.0929 5.8380 0.0000 -10860.7730 1488.0471 0.0000 0.0000 1759.9999 -7595.5550 297.4051 -9355.5549 -7595.5550 297.4051 339.7092 431.6588 30566.7607 339.7092 431.6588
ENERGY: 300000 2.1003 5.9534 6.2453 0.0000 -10725.7865 1446.1025 0.0000 0.0000 1780.2618 -7485.1232 300.8289 -9265.3850 -7568.7489 301.4741 347.8700 455.9709 30213.2066 130.2463 195.3301
ENERGY: 600000 3.8863 6.2578 6.1711 0.0000 -10731.4001 1423.6776 0.0000 0.0000 1787.6789 -7503.7284 302.0823 -9291.4074 -7573.1901 300.3192 -222.6441 -150.1741 30573.7458 15.1534 83.9105
ENERGY: 900000 2.0292 6.6786 6.3755 0.0000 -10771.2833 1481.9032 0.0000 0.0000 1741.2291 -7533.0677 294.2332 -9274.2968 -7558.3823 300.2242 439.5377 526.0822 30446.3155 249.4301 310.5389
ENERGY: 1200000 0.9320 6.4098 5.2874 0.0000 -10866.1785 1572.2678 0.0000 0.0000 1805.0263 -7476.2553 305.0136 -9281.2816 -7552.1445 300.1572 1108.6582 1201.6814 30554.4253 229.2588 295.5788
ENERGY: 1500000 1.2435 7.7811 6.2531 0.0000 -10925.0680 1571.9183 0.0000 0.0000 1784.3675 -7553.5045 301.5227 -9337.8720 -7550.9606 300.1847 1042.8800 1055.2421 30474.4928 233.1338 294.3652
TCL: Running FEP window  16: Lambda1 0.7500000000000001 Lambda2 0.8000000000000002 [dLambda 0.050000000000000044]
TCL: Setting parameter firsttimestep to 0
TCL: Setting parameter alchLambda to 0.7500000000000001
Info: NONBONDED TABLE R-SQUARED SPACING: 0.0625
Info: NONBONDED TABLE SIZE: 705 POINTS
TCL: Setting parameter alchLambda2 to 0.8000000000000002
Info: NONBONDED TABLE R-SQUARED SPACING: 0.0625
Info: NONBONDED TABLE SIZE: 705 POINTS
TCL: Running for 1500000 steps
ETITLE: TS BOND ANGLE DIHED IMPRP ELECT VDW BOUNDARY MISC KINETIC TOTAL TEMP POTENTIAL TOTALAVG TEMPAVG PRESSURE GPRESSURE VOLUME PRESSAVG GPRESSAVG
ENERGY: 0 1.2435 7.7811 6.2531 0.0000 -10925.8758 1571.5393 0.0000 0.0000 1783.4826 -7555.5762 301.3732 -9339.0588 -7555.5762 301.3732 975.0161 1056.7909 30474.4928 975.0161 1056.7909
ENERGY: 300000 2.7234 4.2889 4.8804 0.0000 -10674.4182 1411.6225 0.0000 0.0000 1773.5617 -7477.3412 299.6967 -9250.9029 -7539.0131 297.9911 -41.5388 81.9025 30702.4880 -1.3157 80.5640
ENERGY: 600000 1.8134 7.2297 7.1686 0.0000 -10924.6650 1515.3541 0.0000 0.0000 1781.9285 -7611.1707 301.1105 -9393.0992 -7571.7818 297.7921 371.7398 370.6450 30379.7454 118.0278 172.9712
ENERGY: 900000 3.4977 7.5348 5.0520 0.0000 -10951.7890 1473.0582 0.0000 0.0000 1804.9370 -7657.7095 304.9985 -9462.6464 -7585.4562 298.9071 -204.7705 -136.7316 30336.7906 48.6944 99.8107
ENERGY: 1200000 1.3677 5.1785 5.0906 0.0000 -10988.9009 1522.8621 0.0000 0.0000 1790.5690 -7663.8329 302.5706 -9454.4019 -7588.0015 299.6242 372.0208 403.5922 30375.1859 65.7989 117.8561
ENERGY: 1500000 1.1115 6.9594 5.2071 0.0000 -10811.0496 1471.4521 0.0000 0.0000 1826.8897 -7499.4298 308.7081 -9326.3195 -7575.2013 299.7481 212.0963 227.3814 30692.9936 35.3664 88.3492
TCL: Running FEP window  17: Lambda1 0.8000000000000002 Lambda2 0.8500000000000002 [dLambda 0.050000000000000044]
TCL: Setting parameter firsttimestep to 0
TCL: Setting parameter alchLambda to 0.8000000000000002
Info: NONBONDED TABLE R-SQUARED SPACING: 0.0625
Info: NONBONDED TABLE SIZE: 705 POINTS
TCL: Setting parameter alchLambda2 to 0.8500000000000002
Info: NONBONDED TABLE R-SQUARED SPACING: 0.0625
Info: NONBONDED TABLE SIZE: 705 POINTS
TCL: Running for 1500000 steps
ETITLE: TS BOND ANGLE DIHED IMPRP ELECT VDW BOUNDARY MISC KINETIC TOTAL TEMP POTENTIAL TOTALAVG TEMPAVG PRESSURE GPRESSURE VOLUME PRESSAVG GPRESSAVG
ENERGY: 0 1.1115 6.9594 5.2071 0.0000 -10811.1278 1471.1652 0.0000 0.0000 1826.0231 -7500.6614 308.5617 -9326.6846 -7500.6614 308.5617 163.3474 235.8681 30692.9936 163.3474 235.8681
ENERGY: 300000 1.4202 7.1899 5.2104 0.0000 -10711.9729 1453.2536 0.0000 0.0000 1832.3346 -7412.5642 309.6282 -9244.8988 -7500.7679 303.4966 429.5017 482.0351 30634.0287 -32.4523 18.6781
ENERGY: 600000 2.7650 6.1405 6.7176 0.0000 -10733.0224 1430.4517 0.0000 0.0000 1807.0368 -7479.9107 305.3534 -9286.9475 -7496.3460 305.4765 65.4770 118.5189 30382.3452 22.5044 72.0267
ENERGY: 900000 2.7044 5.5431 7.3305 0.0000 -10963.7528 1565.1023 0.0000 0.0000 1782.9765 -7600.0960 301.2876 -9383.0725 -7509.2488 303.5164 942.7090 1063.7291 29850.6561 99.8688 156.4655
ENERGY: 1200000 2.1824 6.0189 5.2935 0.0000 -10771.9784 1473.3226 0.0000 0.0000 1757.9015 -7527.2596 297.0505 -9285.1611 -7509.3438 302.7880 270.4917 385.5742 30787.2088 37.4268 105.6559
ENERGY: 1500000 4.2617 4.2213 6.0597 0.0000 -10867.8224 1478.3572 0.0000 0.0000 1739.7989 -7635.1236 293.9915 -9374.9225 -7519.0198 302.2526 -114.9563 -40.6034 30857.5120 20.6582 83.6086
TCL: Running FEP window  18: Lambda1 0.8500000000000002 Lambda2 0.9000000000000002 [dLambda 0.050000000000000044]
TCL: Setting parameter firsttimestep to 0
TCL: Setting parameter alchLambda to 0.8500000000000002
Info: NONBONDED TABLE R-SQUARED SPACING: 0.0625
Info: NONBONDED TABLE SIZE: 705 POINTS
TCL: Setting parameter alchLambda2 to 0.9000000000000002
Info: NONBONDED TABLE R-SQUARED SPACING: 0.0625
Info: NONBONDED TABLE SIZE: 705 POINTS
TCL: Running for 1500000 steps
ETITLE: TS BOND ANGLE DIHED IMPRP ELECT VDW BOUNDARY MISC KINETIC TOTAL TEMP POTENTIAL TOTALAVG TEMPAVG PRESSURE GPRESSURE VOLUME PRESSAVG GPRESSAVG
ENERGY: 0 4.2617 4.2213 6.0597 0.0000 -10867.9705 1478.4362 0.0000 0.0000 1738.8836 -7636.1081 293.8368 -9374.9917 -7636.1081 293.8368 -104.7353 -29.3421 30857.5120 -104.7353 -29.3421
ENERGY: 300000 2.8914 5.0662 4.5949 0.0000 -10618.1109 1380.8752 0.0000 0.0000 1746.0749 -7478.6083 295.0520 -9224.6832 -7539.0830 298.0022 37.1249 102.0400 30543.6919 -205.4567 -140.7835
ENERGY: 600000 1.9326 6.4706 6.2494 0.0000 -10694.4604 1374.0380 0.0000 0.0000 1769.3549 -7536.4148 298.9859 -9305.7697 -7547.9147 299.9137 -563.4212 -430.4698 30446.3502 -190.8575 -117.7139
ENERGY: 900000 2.9870 7.7665 6.5836 0.0000 -10731.4146 1333.2378 0.0000 0.0000 1846.4224 -7534.4173 312.0087 -9380.8397 -7551.4510 301.2923 -1204.5064 -1161.3249 30640.0801 -109.4141 -40.6903
ENERGY: 1200000 2.1416 4.4988 5.7424 0.0000 -10811.2968 1530.1358 0.0000 0.0000 1738.0868 -7530.6915 293.7022 -9268.7783 -7549.4257 301.9848 815.5130 915.1123 30442.5163 -11.6768 58.6656
ENERGY: 1500000 0.6677 7.7910 7.4150 0.0000 -10691.2367 1338.9789 0.0000 0.0000 1777.8313 -7558.5527 300.4182 -9336.3840 -7558.0994 301.2031 -770.7135 -694.9390 30671.4245 -56.7117 10.4095
TCL: Running FEP window  19: Lambda1 0.9000000000000002 Lambda2 0.9500000000000003 [dLambda 0.050000000000000044]
TCL: Setting parameter firsttimestep to 0
TCL: Setting parameter alchLambda to 0.9000000000000002
Info: NONBONDED TABLE R-SQUARED SPACING: 0.0625
Info: NONBONDED TABLE SIZE: 705 POINTS
TCL: Setting parameter alchLambda2 to 0.9500000000000003
Info: NONBONDED TABLE R-SQUARED SPACING: 0.0625
Info: NONBONDED TABLE SIZE: 705 POINTS
TCL: Running for 1500000 steps
ETITLE: TS BOND ANGLE DIHED IMPRP ELECT VDW BOUNDARY MISC KINETIC TOTAL TEMP POTENTIAL TOTALAVG TEMPAVG PRESSURE GPRESSURE VOLUME PRESSAVG GPRESSAVG
ENERGY: 0 0.6677 7.7910 7.4150 0.0000 -10692.4215 1339.8102 0.0000 0.0000 1776.9603 -7559.7772 300.2710 -9336.7375 -7559.7772 300.2710 -763.0537 -673.7091 30671.4245 -763.0537 -673.7091
ENERGY: 300000 2.6597 4.6318 5.2454 0.0000 -10869.5173 1449.7135 0.0000 0.0000 1822.1710 -7585.0958 307.9107 -9407.2668 -7579.9926 298.6769 -294.1434 -224.5157 30757.6394 -260.0584 -162.6316
ENERGY: 600000 3.3005 10.6940 6.4959 0.0000 -10798.5374 1448.9508 0.0000 0.0000 1777.1598 -7551.9364 300.3047 -9329.0963 -7574.4419 297.1201 184.4792 227.7795 30341.0645 -176.2229 -92.9839
ENERGY: 900000 6.1516 8.9988 6.0801 0.0000 -10971.1765 1549.0310 0.0000 0.0000 1831.0101 -7569.9051 309.4044 -9400.9151 -7559.6126 298.5589 789.6815 857.9175 30605.4002 -25.9852 51.7180
ENERGY: 1200000 4.3428 4.3623 5.6315 0.0000 -10741.3042 1380.4578 0.0000 0.0000 1783.6257 -7562.8842 301.3973 -9346.5098 -7555.2982 299.2151 -861.0103 -750.9426 30828.0370 -79.3388 -3.0783
ENERGY: 1500000 1.8097 3.1550 5.4111 0.0000 -10643.6325 1393.4240 0.0000 0.0000 1744.8247 -7495.0078 294.8408 -9239.8326 -7549.7046 299.3653 -450.9878 -418.7540 31271.3601 -60.1173 10.9051
TCL: Running FEP window  20: Lambda1 0.9500000000000003 Lambda2 1.0    [dLambda 0.04999999999999971]
TCL: Setting parameter firsttimestep to 0
TCL: Setting parameter alchLambda to 0.9500000000000003
Info: NONBONDED TABLE R-SQUARED SPACING: 0.0625
Info: NONBONDED TABLE SIZE: 705 POINTS
TCL: Setting parameter alchLambda2 to 1.0
Info: NONBONDED TABLE R-SQUARED SPACING: 0.0625
Info: NONBONDED TABLE SIZE: 705 POINTS
TCL: Running for 1500000 steps
ETITLE: TS BOND ANGLE DIHED IMPRP ELECT VDW BOUNDARY MISC KINETIC TOTAL TEMP POTENTIAL TOTALAVG TEMPAVG PRESSURE GPRESSURE VOLUME PRESSAVG GPRESSAVG
ENERGY: 0 1.8097 3.1550 5.4111 0.0000 -10644.3729 1393.3777 0.0000 0.0000 1743.9279 -7496.6915 294.6892 -9240.6194 -7496.6915 294.6892 -491.0738 -407.0734 31271.3601 -491.0738 -407.0734
ENERGY: 300000 2.5839 3.0146 4.3740 0.0000 -10831.6545 1428.5121 0.0000 0.0000 1759.5401 -7633.6299 297.3273 -9393.1699 -7563.2441 297.6088 -186.8629 -127.7033 30561.9700 173.8956 212.9823
ENERGY: 600000 3.7196 6.7163 4.8868 0.0000 -10725.8012 1391.4414 0.0000 0.0000 1800.9430 -7518.0941 304.3236 -9319.0372 -7535.6051 300.6914 -217.1652 -172.8476 30318.7887 84.0461 144.3040
ENERGY: 900000 1.1315 5.3524 4.9933 0.0000 -10805.3139 1466.3422 0.0000 0.0000 1743.9510 -7583.5435 294.6931 -9327.4945 -7546.1908 299.5608 -97.5999 -119.1752 31301.0102 4.9122 57.9177
ENERGY: 1200000 1.8293 6.3633 4.9868 0.0000 -10810.2247 1413.2168 0.0000 0.0000 1776.7116 -7607.1170 300.2290 -9383.8286 -7544.9443 300.7227 -148.9484 -45.8690 30445.7088 18.0646 76.1342
ENERGY: 1500000 1.9096 5.4200 5.1724 0.0000 -10765.0594 1444.5322 0.0000 0.0000 1763.3955 -7544.6298 297.9788 -9308.0253 -7546.8394 299.9004 -158.3434 -74.3456 30935.7468 1.5991 68.0038
TCL: Exiting due to exit command.
