Info: SIMULATION PARAMETERS:
Info: TIMESTEP               2
Info: NUMBER OF STEPS        0
Info: STEPS PER CYCLE        10
Info: PERIODIC CELL BASIS 1  30.1365 0 0
Info: PERIODIC CELL BASIS 2  0 29.7805 0
Info: PERIODIC CELL BASIS 3  0 0 34.0751
Info: PERIODIC CELL CENTER   0 0 0
Info: WRAPPING WATERS AROUND PERIODIC BOUNDARIES ON OUTPUT.
Info: WRAPPING ALL CLUSTERS AROUND PERIODIC BOUNDARIES ON OUTPUT.
Info: FIRST LDB TIMESTEP     50
Info: LAST LDB TIMESTEP     -1
Info: HOM BACKGROUND SCALING 1
Info: PME BACKGROUND SCALING 1
Info: MIN ATOMS PER PATCH    40
Info: EMPTY PATCH LOAD       40 ATOMS
Info: VELOCITY FILE          mobley_7463799_equil.vel
Info: CENTER OF MASS MOVING INITIALLY? NO
Info: DIELECTRIC             1
Info: EXCLUDE                SCALED ONE-FOUR
Info: 1-4 ELECTROSTATICS SCALED BY 0.833333
Info: MODIFIED 1-4 VDW PARAMETERS WILL BE USED
Info: DCD FILENAME           mobley_7463799_prod.dcd
Info: DCD FREQUENCY          100000
Info: DCD FIRST STEP         100000
Info: DCD FILE WILL CONTAIN UNIT CELL DATA
Info: XST FILENAME           mobley_7463799_prod.xst
Info: XST FREQUENCY          100000
Info: NO VELOCITY DCD OUTPUT
Info: NO FORCE DCD OUTPUT
Info: OUTPUT FILENAME        mobley_7463799_prod
Info: BINARY OUTPUT FILES WILL BE USED
Info: RESTART FILENAME       mobley_7463799_prod.restart
Info: RESTART FREQUENCY      100000
Info: BINARY RESTART FILES WILL BE USED
Info: CUTOFF                 9
Info: PAIRLIST DISTANCE      11
Info: PAIRLIST SHRINK RATE   0.01
Info: PAIRLIST GROW RATE     0.01
Info: PAIRLIST TRIGGER       0.3
Info: PAIRLISTS PER CYCLE    2
Info: PAIRLISTS ENABLED
Info: MARGIN                 2
Info: HYDROGEN GROUP CUTOFF  2.5
Info: PATCH DIMENSION        15.5
Info: ENERGY OUTPUT STEPS    100000
Info: ENERGY EVALUATION STEPS    100000
Info: OUTPUT ENERGY PRECISION 4
Info: CROSSTERM ENERGY INCLUDED IN DIHEDRAL
Info: TIMING OUTPUT STEPS    1000000
Info: PRESSURE OUTPUT STEPS  100000
Info: ALCHEMICAL FEP ON
Info: FEP CURRENT LAMBDA VALUE     0
Info: FEP COMPARISON LAMBDA VALUE  0.05
Info: FEP INTRA-ALCHEMICAL NON-BONDED INTERACTIONS WILL BE RETAINED
Info: FEP INTRA-ALCHEMICAL BONDED INTERACTIONS WILL BE RETAINED
Info: FEP VDW SHIFTING COEFFICIENT 5
Info: FEP ELEC. ACTIVE FOR ANNIHILATED PARTICLES BETWEEN LAMBDA = 0 AND LAMBDA = 0.5
Info: FEP ELEC. ACTIVE FOR EXNIHILATED PARTICLES BETWEEN LAMBDA = 0.5 AND LAMBDA = 1
Info: FEP VDW ACTIVE FOR ANNIHILATED PARTICLES BETWEEN LAMBDA = 0 AND LAMBDA = 1
Info: FEP VDW ACTIVE FOR EXNIHILATED PARTICLES BETWEEN LAMBDA = 0 AND LAMBDA = 1
Info: FEP BOND ACTIVE FOR ANNIHILATED PARTICLES BETWEEN LAMBDA = 1 AND LAMBDA = 1
Info: FEP BOND ACTIVE FOR EXNIHILATED PARTICLES BETWEEN LAMBDA = 0 AND LAMBDA = 0
Info: LANGEVIN DYNAMICS ACTIVE
Info: LANGEVIN TEMPERATURE   300
Info: LANGEVIN USING BBK INTEGRATOR
Info: LANGEVIN DAMPING COEFFICIENT IS 1 INVERSE PS
Info: LANGEVIN DYNAMICS APPLIED TO HYDROGENS
Info: LANGEVIN PISTON PRESSURE CONTROL ACTIVE
Info:        TARGET PRESSURE IS 1.01325 BAR
Info:     OSCILLATION PERIOD IS 50 FS
Info:             DECAY TIME IS 25 FS
Info:     PISTON TEMPERATURE IS 300 K
Info:       PRESSURE CONTROL IS GROUP-BASED
Info:    INITIAL STRAIN RATE IS 0.00020176 0.00020176 0.00020176
Info:       CELL FLUCTUATION IS ISOTROPIC
Info: PARTICLE MESH EWALD (PME) ACTIVE
Info: PME TOLERANCE               1e-06
Info: PME EWALD COEFFICIENT       0.348832
Info: PME INTERPOLATION ORDER     4
Info: PME GRID DIMENSIONS         32 32 36
Info: PME MAXIMUM GRID SPACING    1
Info: PME CALCULATION WILL BE PERFORMED ON GPU
Info: FULL ELECTROSTATIC EVALUATION FREQUENCY      2
Info: USING VERLET I (r-RESPA) MTS SCHEME.
Info: C1 SPLITTING OF LONG RANGE ELECTROSTATICS
Info: PLACING ATOMS IN PATCHES BY HYDROGEN GROUPS
Info: RIGID BONDS TO HYDROGEN : ALL
Info:         ERROR TOLERANCE : 1e-08
Info:          MAX ITERATIONS : 100
Info: RIGID WATER USING SETTLE ALGORITHM
Info: RANDOM NUMBER SEED     1743986959
Info: USE HYDROGEN BONDS?    NO
Info: Using AMBER format force field!
Info: AMBER PARM FILE        mobley_7463799.prmtop
Info: COORDINATE PDB         mobley_7463799.pdb
Info: Exclusions will be read from PARM file!
Info: SCNB (VDW SCALING)     2
Info: USING ARITHMETIC MEAN TO COMBINE L-J SIGMA PARAMETERS
Info: BINARY COORDINATES     mobley_7463799_equil.coor
Info: SUMMARY OF PARAMETERS:
Info: 10 BONDS
Info: 13 ANGLES
Info:   13 HARMONIC
Info:   0 COSINE-BASED
Info: 9 DIHEDRAL
Info: 0 IMPROPER
Info: 0 CROSSTERM
Info: 0 VDW
Info: 36 VDW_PAIRS
Info: 0 NBTHOLE_PAIRS
Info: To read alchdata from file: mobley_7463799.pdb
Info: To read alchflag data from column: 5
Info: STRUCTURE SUMMARY:
Info: 2953 ATOMS
Info: 2953 BONDS
Info: 37 ANGLES
Info: 60 DIHEDRALS
Info: 0 IMPROPERS
Info: 0 CROSSTERMS
Info: 3038 EXCLUSIONS
Info: 2943 RIGID BONDS
Info: ALCH: 0 ATOMS TO DISAPPEAR IN FINAL STATE
Info: ALCH: 22 ATOMS TO APPEAR IN FINAL STATE
Info: 5916 DEGREES OF FREEDOM
Info: 987 HYDROGEN GROUPS
Info: 3 ATOMS IN LARGEST HYDROGEN GROUP
Info: 987 MIGRATION GROUPS
Info: 3 ATOMS IN LARGEST MIGRATION GROUP
Info: TOTAL MASS = 17737.8 amu
Info: TOTAL CHARGE = -5.58794e-08 e
Info: MASS DENSITY = 0.963156 g/cm^3
Info: ATOM DENSITY = 0.0965608 atoms/A^3
Info: ADDED 0 IMPLICIT EXCLUSIONS
Info: NONBONDED TABLE R-SQUARED SPACING: 0.0625
Info: NONBONDED TABLE SIZE: 705 POINTS
Info: REMOVING COM VELOCITY 0.0337286 -0.163316 -0.0797902
Info: Use 3D box decompostion in PME FFT.
Info: Updated CUDA force table with 4096 elements.
Info: Updated CUDA LJ table with 8 x 8 elements.
Info: Found 24 unique exclusion lists needing 68 bytes
TCL: Running for 1500000 steps
ETITLE: TS BOND ANGLE DIHED IMPRP ELECT VDW BOUNDARY MISC KINETIC TOTAL TEMP POTENTIAL TOTALAVG TEMPAVG PRESSURE GPRESSURE VOLUME PRESSAVG GPRESSAVG
ENERGY: 0 1.9448 13.1010 2.5053 0.0000 -10624.1556 1431.4735 0.0000 0.0000 1706.2761 -7468.8549 290.2763 -9175.1310 -7468.8549 290.2763 -220.4155 -161.2847 30581.7772 -220.4155 -161.2847
ENERGY: 300000 4.4756 6.1771 4.1420 0.0000 -10703.1036 1475.4208 0.0000 0.0000 1713.1406 -7499.7474 291.4441 -9212.8881 -7476.5513 295.9826 490.5912 553.3318 30194.5837 -104.3934 -50.8133
ENERGY: 600000 3.1469 10.1624 3.3578 0.0000 -10759.4591 1390.1935 0.0000 0.0000 1761.5834 -7591.0152 299.6853 -9352.5986 -7503.6006 297.5054 -551.9020 -430.7735 29958.4039 0.7955 86.0118
ENERGY: 900000 4.3014 11.9458 4.7212 0.0000 -10586.4025 1409.3847 0.0000 0.0000 1762.5981 -7393.4513 299.8579 -9156.0494 -7486.3551 298.2471 -457.2817 -425.5792 30609.5847 -65.3421 7.1554
ENERGY: 1200000 4.0072 5.9909 3.7016 0.0000 -10711.4389 1374.9052 0.0000 0.0000 1748.1997 -7574.6343 297.4084 -9322.8339 -7487.9137 298.2293 -951.5577 -827.8927 30102.9019 -112.0224 -40.8442
ENERGY: 1500000 3.0578 7.8972 5.0448 0.0000 -10589.1905 1350.8061 0.0000 0.0000 1794.3058 -7428.0789 305.2521 -9222.3847 -7475.8657 298.9918 -662.7523 -609.6124 30121.2596 -200.4697 -133.8877
TCL: Running FEP window   2: Lambda1 0.05   Lambda2 0.1    [dLambda 0.05  ]
TCL: Setting parameter firsttimestep to 0
TCL: Setting parameter alchLambda to 0.05
Info: NONBONDED TABLE R-SQUARED SPACING: 0.0625
Info: NONBONDED TABLE SIZE: 705 POINTS
TCL: Setting parameter alchLambda2 to 0.1
Info: NONBONDED TABLE R-SQUARED SPACING: 0.0625
Info: NONBONDED TABLE SIZE: 705 POINTS
TCL: Running for 1500000 steps
ETITLE: TS BOND ANGLE DIHED IMPRP ELECT VDW BOUNDARY MISC KINETIC TOTAL TEMP POTENTIAL TOTALAVG TEMPAVG PRESSURE GPRESSURE VOLUME PRESSAVG GPRESSAVG
ENERGY: 0 3.0578 7.8972 5.0448 0.0000 -10589.1925 1354.4391 0.0000 0.0000 1793.3930 -7425.3607 305.0968 -9218.7537 -7425.3607 305.0968 -700.5150 -604.1176 30121.2596 -700.5150 -604.1176
ENERGY: 300000 3.0091 7.2094 5.2803 0.0000 -10620.4444 1412.5735 0.0000 0.0000 1792.3298 -7400.0425 304.9159 -9192.3722 -7455.0103 302.0580 -229.7943 -105.1388 30286.0380 -465.8643 -366.9460
ENERGY: 600000 5.1095 7.9793 4.6024 0.0000 -10596.4424 1437.7215 0.0000 0.0000 1704.4985 -7436.5312 289.9739 -9141.0297 -7444.9783 300.4737 136.5860 215.3203 30398.2486 -486.2054 -391.6421
ENERGY: 900000 1.3443 9.4171 6.2106 0.0000 -10661.3091 1453.9295 0.0000 0.0000 1772.7725 -7417.6352 301.5888 -9190.4077 -7441.6183 300.0467 90.7375 173.1316 30088.3502 -438.9857 -352.9174
ENERGY: 1200000 2.4008 10.0020 4.8234 0.0000 -10522.2190 1334.7833 0.0000 0.0000 1795.1703 -7375.0391 305.3992 -9170.2094 -7440.3639 300.7267 -699.0120 -700.2299 30493.7536 -394.9027 -320.9195
ENERGY: 1500000 2.3500 6.0846 3.9711 0.0000 -10777.7269 1555.6077 0.0000 0.0000 1736.6567 -7473.0567 295.4447 -9209.7134 -7442.7255 300.0857 891.7244 1018.1928 30020.2063 -298.7210 -224.2726
TCL: Running FEP window   3: Lambda1 0.1    Lambda2 0.15000000000000002 [dLambda 0.05000000000000002]
TCL: Setting parameter firsttimestep to 0
TCL: Setting parameter alchLambda to 0.1
Info: NONBONDED TABLE R-SQUARED SPACING: 0.0625
Info: NONBONDED TABLE SIZE: 705 POINTS
TCL: Setting parameter alchLambda2 to 0.15000000000000002
Info: NONBONDED TABLE R-SQUARED SPACING: 0.0625
Info: NONBONDED TABLE SIZE: 705 POINTS
TCL: Running for 1500000 steps
ETITLE: TS BOND ANGLE DIHED IMPRP ELECT VDW BOUNDARY MISC KINETIC TOTAL TEMP POTENTIAL TOTALAVG TEMPAVG PRESSURE GPRESSURE VOLUME PRESSAVG GPRESSAVG
ENERGY: 0 2.3500 6.0846 3.9711 0.0000 -10777.7265 1561.5662 0.0000 0.0000 1735.8269 -7467.9277 295.3035 -9203.7546 -7467.9277 295.3035 954.1617 1037.2011 30020.2063 954.1617 1037.2011
ENERGY: 300000 1.4637 7.6023 4.2417 0.0000 -10648.4335 1405.1225 0.0000 0.0000 1735.6737 -7494.3296 295.2775 -9230.0033 -7471.7804 295.3666 -207.8085 -248.1027 30390.1331 7.8229 54.1167
ENERGY: 600000 0.9457 9.4750 6.7276 0.0000 -10578.6284 1401.6233 0.0000 0.0000 1787.6254 -7372.2315 304.1156 -9159.8569 -7464.3188 297.3947 7.8200 42.5049 30051.1996 66.4803 117.0285
ENERGY: 900000 4.0874 10.1483 7.2021 0.0000 -10632.5014 1442.3632 0.0000 0.0000 1758.9565 -7409.7440 299.2384 -9168.7005 -7455.1494 297.1458 -197.1845 -115.0761 30536.3126 -21.5628 32.4855
ENERGY: 1200000 4.4903 5.1611 2.2966 0.0000 -10676.4934 1426.4890 0.0000 0.0000 1768.8830 -7469.1735 300.9271 -9238.0564 -7455.2347 297.7539 256.2154 263.6860 29801.9675 -63.1487 -14.6916
ENERGY: 1500000 3.7918 8.4454 3.6364 0.0000 -10754.2613 1420.4606 0.0000 0.0000 1701.6862 -7616.2408 289.4954 -9317.9270 -7464.8168 297.9097 -497.3892 -473.0137 30023.0367 -122.6250 -73.4667
TCL: Running FEP window   4: Lambda1 0.15000000000000002 Lambda2 0.2    [dLambda 0.04999999999999999]
TCL: Setting parameter firsttimestep to 0
TCL: Setting parameter alchLambda to 0.15000000000000002
Info: NONBONDED TABLE R-SQUARED SPACING: 0.0625
Info: NONBONDED TABLE SIZE: 705 POINTS
TCL: Setting parameter alchLambda2 to 0.2
Info: NONBONDED TABLE R-SQUARED SPACING: 0.0625
Info: NONBONDED TABLE SIZE: 705 POINTS
TCL: Running for 1500000 steps
ETITLE: TS BOND ANGLE DIHED IMPRP ELECT VDW BOUNDARY MISC KINETIC TOTAL TEMP POTENTIAL TOTALAVG TEMPAVG PRESSURE GPRESSURE VOLUME PRESSAVG GPRESSAVG
ENERGY: 0 3.7918 8.4454 3.6364 0.0000 -10754.2624 1421.0406 0.0000 0.0000 1700.8205 -7616.5276 289.3482 -9317.3481 -7616.5276 289.3482 -542.1709 -465.9607 30023.0367 -542.1709 -465.9607
ENERGY: 300000 2.8268 9.4129 5.1343 0.0000 -10673.8256 1441.9371 0.0000 0.0000 1726.4005 -7488.1140 293.6999 -9214.5145 -7519.1945 294.4081 151.2990 288.5599 30192.0007 -96.4471 -8.9531
ENERGY: 600000 3.0241 5.6644 5.3941 0.0000 -10772.3404 1510.6643 0.0000 0.0000 1803.0782 -7444.5153 306.7445 -9247.5935 -7477.9170 298.6132 571.0092 610.0196 29943.3990 -33.5552 46.2647
ENERGY: 900000 2.0948 6.8487 2.5196 0.0000 -10627.0999 1416.0904 0.0000 0.0000 1782.9718 -7416.5745 303.3239 -9199.5463 -7453.6231 301.0397 -268.0361 -227.1572 30566.5355 7.2859 80.2371
ENERGY: 1200000 3.0880 8.4114 7.0703 0.0000 -10637.1902 1442.5784 0.0000 0.0000 1754.5440 -7421.4981 298.4877 -9176.0421 -7445.7627 300.8133 127.3076 162.0349 30126.0248 36.3458 106.0441
ENERGY: 1500000 1.3471 7.5887 5.1262 0.0000 -10511.1700 1361.0224 0.0000 0.0000 1726.6266 -7409.4589 293.7383 -9136.0855 -7440.0266 300.7618 -617.9621 -569.8221 30718.1426 77.7860 139.8155
TCL: Running FEP window   5: Lambda1 0.2    Lambda2 0.25   [dLambda 0.04999999999999999]
TCL: Setting parameter firsttimestep to 0
TCL: Setting parameter alchLambda to 0.2
Info: NONBONDED TABLE R-SQUARED SPACING: 0.0625
Info: NONBONDED TABLE SIZE: 705 POINTS
TCL: Setting parameter alchLambda2 to 0.25
Info: NONBONDED TABLE R-SQUARED SPACING: 0.0625
Info: NONBONDED TABLE SIZE: 705 POINTS
TCL: Running for 1500000 steps
ETITLE: TS BOND ANGLE DIHED IMPRP ELECT VDW BOUNDARY MISC KINETIC TOTAL TEMP POTENTIAL TOTALAVG TEMPAVG PRESSURE GPRESSURE VOLUME PRESSAVG GPRESSAVG
ENERGY: 0 1.3471 7.5887 5.1262 0.0000 -10511.1690 1360.9769 0.0000 0.0000 1725.7784 -7410.3516 293.5941 -9136.1301 -7410.3516 293.5941 -646.5700 -564.0155 30718.1426 -646.5700 -564.0155
ENERGY: 300000 1.2099 5.9100 5.7568 0.0000 -10876.8643 1531.7796 0.0000 0.0000 1722.9846 -7609.2234 293.1188 -9332.2080 -7470.5019 297.4327 648.5400 704.7186 29775.2853 -175.0279 -105.2674
ENERGY: 600000 3.7198 5.2760 5.4008 0.0000 -10691.0502 1379.9168 0.0000 0.0000 1803.9915 -7492.7453 306.8999 -9296.7368 -7479.8069 298.3444 -709.1787 -644.1260 30346.6020 -139.6722 -66.2036
ENERGY: 900000 4.8283 6.0249 3.2697 0.0000 -10534.4835 1348.3305 0.0000 0.0000 1741.2509 -7430.7792 296.2263 -9172.0302 -7455.7117 298.4827 -703.4359 -644.2355 30603.7097 -18.8331 46.8266
ENERGY: 1200000 4.9462 5.9623 4.2584 0.0000 -10579.6694 1348.7409 0.0000 0.0000 1749.7815 -7465.9801 297.6775 -9215.7616 -7450.7737 297.7825 -598.3626 -549.2830 30113.3770 -39.4197 19.5228
ENERGY: 1500000 2.7620 4.5634 4.1392 0.0000 -10646.3814 1394.9178 0.0000 0.0000 1735.6316 -7504.3673 295.2703 -9239.9989 -7462.7750 296.9313 -320.2218 -273.7060 30493.6434 -77.9055 -18.7413
TCL: Running FEP window   6: Lambda1 0.25   Lambda2 0.3    [dLambda 0.04999999999999999]
TCL: Setting parameter firsttimestep to 0
TCL: Setting parameter alchLambda to 0.25
Info: NONBONDED TABLE R-SQUARED SPACING: 0.0625
Info: NONBONDED TABLE SIZE: 705 POINTS
TCL: Setting parameter alchLambda2 to 0.3
Info: NONBONDED TABLE R-SQUARED SPACING: 0.0625
Info: NONBONDED TABLE SIZE: 705 POINTS
TCL: Running for 1500000 steps
ETITLE: TS BOND ANGLE DIHED IMPRP ELECT VDW BOUNDARY MISC KINETIC TOTAL TEMP POTENTIAL TOTALAVG TEMPAVG PRESSURE GPRESSURE VOLUME PRESSAVG GPRESSAVG
ENERGY: 0 2.7620 4.5634 4.1392 0.0000 -10646.3807 1394.9200 0.0000 0.0000 1734.7525 -7505.2435 295.1208 -9239.9961 -7505.2435 295.1208 -363.9483 -269.2093 30493.6434 -363.9483 -269.2093
ENERGY: 300000 2.4008 8.6191 6.1441 0.0000 -10622.0598 1410.8198 0.0000 0.0000 1760.8800 -7433.1961 299.5656 -9194.0761 -7482.0319 296.7618 16.8078 46.6501 30462.5564 -209.3721 -153.3200
ENERGY: 600000 2.7474 4.6614 2.8000 0.0000 -10814.7611 1479.7680 0.0000 0.0000 1830.3939 -7494.3905 311.3915 -9324.7843 -7461.1435 300.8162 55.4956 82.0784 30374.8216 -110.7272 -59.8995
ENERGY: 900000 1.1798 4.9490 3.7084 0.0000 -10729.9680 1494.1427 0.0000 0.0000 1786.1226 -7439.8654 303.8600 -9225.9880 -7469.8455 298.8696 395.5078 417.2528 30180.9567 24.4734 74.9793
ENERGY: 1200000 4.0107 4.9355 8.7382 0.0000 -10657.7507 1403.5830 0.0000 0.0000 1779.8308 -7456.6525 302.7896 -9236.4833 -7460.9736 299.0838 -542.6455 -524.3438 30406.6405 -43.5301 10.9596
ENERGY: 1500000 5.1144 6.0249 3.3267 0.0000 -10617.0390 1402.4137 0.0000 0.0000 1758.2268 -7441.9325 299.1143 -9200.1593 -7452.3342 299.1248 -308.1814 -263.7768 30363.2483 -85.6787 -35.6970
TCL: Running FEP window   7: Lambda1 0.3    Lambda2 0.35   [dLambda 0.04999999999999999]
TCL: Setting parameter firsttimestep to 0
TCL: Setting parameter alchLambda to 0.3
Info: NONBONDED TABLE R-SQUARED SPACING: 0.0625
Info: NONBONDED TABLE SIZE: 705 POINTS
TCL: Setting parameter alchLambda2 to 0.35
Info: NONBONDED TABLE R-SQUARED SPACING: 0.0625
Info: NONBONDED TABLE SIZE: 705 POINTS
TCL: Running for 1500000 steps
ETITLE: TS BOND ANGLE DIHED IMPRP ELECT VDW BOUNDARY MISC KINETIC TOTAL TEMP POTENTIAL TOTALAVG TEMPAVG PRESSURE GPRESSURE VOLUME PRESSAVG GPRESSAVG
ENERGY: 0 5.1144 6.0249 3.3267 0.0000 -10617.0371 1403.6927 0.0000 0.0000 1757.3433 -7441.5350 298.9640 -9198.8783 -7441.5350 298.9640 -329.3251 -252.8531 30363.2483 -329.3251 -252.8531
ENERGY: 300000 2.5690 9.2945 3.3238 0.0000 -10783.9922 1532.1920 0.0000 0.0000 1764.4246 -7472.1883 300.1686 -9236.6129 -7486.5586 296.9616 680.0363 793.1942 30056.2159 104.0287 194.7718
ENERGY: 600000 5.1268 10.4200 3.9422 0.0000 -10600.7532 1414.0320 0.0000 0.0000 1762.5020 -7404.7303 299.8416 -9167.2322 -7466.9234 299.9899 -417.0733 -348.7390 30577.6406 5.1361 86.7544
ENERGY: 900000 1.6881 4.3932 5.2286 0.0000 -10709.4695 1442.2992 0.0000 0.0000 1774.6919 -7481.1683 301.9153 -9255.8603 -7457.4112 298.9574 -72.2830 -54.4417 30631.8755 -31.2439 44.7745
ENERGY: 1200000 6.5108 5.1739 5.3984 0.0000 -10626.5201 1379.6495 0.0000 0.0000 1828.5686 -7401.2190 311.0810 -9229.7875 -7458.5426 299.7207 -662.1520 -634.7849 30190.1978 -52.5863 7.0274
ENERGY: 1500000 2.9147 6.8505 4.5756 0.0000 -10580.9985 1414.4112 0.0000 0.0000 1765.2099 -7387.0366 300.3022 -9152.2466 -7460.3969 299.6482 -189.0078 -138.8899 30772.0462 -68.1103 -3.1627
TCL: Running FEP window   8: Lambda1 0.35   Lambda2 0.39999999999999997 [dLambda 0.04999999999999999]
TCL: Setting parameter firsttimestep to 0
TCL: Setting parameter alchLambda to 0.35
Info: NONBONDED TABLE R-SQUARED SPACING: 0.0625
Info: NONBONDED TABLE SIZE: 705 POINTS
TCL: Setting parameter alchLambda2 to 0.39999999999999997
Info: NONBONDED TABLE R-SQUARED SPACING: 0.0625
Info: NONBONDED TABLE SIZE: 705 POINTS
TCL: Running for 1500000 steps
ETITLE: TS BOND ANGLE DIHED IMPRP ELECT VDW BOUNDARY MISC KINETIC TOTAL TEMP POTENTIAL TOTALAVG TEMPAVG PRESSURE GPRESSURE VOLUME PRESSAVG GPRESSAVG
ENERGY: 0 2.9147 6.8505 4.5756 0.0000 -10581.0002 1414.6499 0.0000 0.0000 1764.3454 -7387.6641 300.1552 -9152.0095 -7387.6641 300.1552 -213.2411 -130.1457 30772.0462 -213.2411 -130.1457
ENERGY: 300000 7.5049 10.0372 3.4014 0.0000 -10610.6901 1412.0321 0.0000 0.0000 1775.3069 -7402.4076 302.0200 -9177.7145 -7452.1139 297.7335 -411.8168 -328.5681 30361.2296 51.2680 110.9328
ENERGY: 600000 4.3234 6.8797 5.2587 0.0000 -10849.2122 1570.2766 0.0000 0.0000 1760.1406 -7502.3330 299.4398 -9262.4737 -7477.8878 297.9974 1081.7372 1175.3026 29914.7247 95.1907 167.5957
ENERGY: 900000 2.7681 6.1806 2.6050 0.0000 -10594.1373 1403.9515 0.0000 0.0000 1731.6285 -7447.0036 294.5893 -9178.6320 -7466.7104 298.3078 -363.0664 -329.6695 30830.3682 25.6150 101.5842
ENERGY: 1200000 2.6324 5.3880 3.2316 0.0000 -10890.8216 1561.0595 0.0000 0.0000 1753.1552 -7565.3548 298.2515 -9318.5101 -7473.2877 298.4034 986.5090 1029.5222 29836.6559 136.6469 204.5506
ENERGY: 1500000 5.0914 5.2203 3.1001 0.0000 -10561.9275 1345.5452 0.0000 0.0000 1724.3554 -7478.6151 293.3520 -9202.9705 -7466.7459 298.7587 -823.0704 -746.3413 30032.3632 49.5237 123.7686
TCL: Running FEP window   9: Lambda1 0.39999999999999997 Lambda2 0.44999999999999996 [dLambda 0.04999999999999999]
TCL: Setting parameter firsttimestep to 0
TCL: Setting parameter alchLambda to 0.39999999999999997
Info: NONBONDED TABLE R-SQUARED SPACING: 0.0625
Info: NONBONDED TABLE SIZE: 705 POINTS
TCL: Setting parameter alchLambda2 to 0.44999999999999996
Info: NONBONDED TABLE R-SQUARED SPACING: 0.0625
Info: NONBONDED TABLE SIZE: 705 POINTS
TCL: Running for 1500000 steps
ETITLE: TS BOND ANGLE DIHED IMPRP ELECT VDW BOUNDARY MISC KINETIC TOTAL TEMP POTENTIAL TOTALAVG TEMPAVG PRESSURE GPRESSURE VOLUME PRESSAVG GPRESSAVG
ENERGY: 0 5.0913 5.2203 3.1001 0.0000 -10561.9287 1345.7172 0.0000 0.0000 1723.4795 -7479.3203 293.2030 -9202.7998 -7479.3203 293.2030 -836.7767 -740.2333 30032.3632 -836.7767 -740.2333
ENERGY: 300000 2.2518 5.0094 4.6636 0.0000 -10660.8038 1411.3386 0.0000 0.0000 1772.6658 -7464.8748 301.5707 -9237.5405 -7475.9166 298.7405 -299.0224 -263.1502 30394.4354 -118.3542 -44.4080
ENERGY: 600000 4.0695 5.2187 3.0177 0.0000 -10574.0432 1382.9921 0.0000 0.0000 1812.2066 -7366.5386 308.2975 -9178.7453 -7436.3562 302.5857 -331.2673 -285.9480 30616.5615 -87.2685 -12.8959
ENERGY: 900000 2.0579 9.9192 4.9159 0.0000 -10670.9424 1495.9981 0.0000 0.0000 1781.4110 -7376.6402 303.0584 -9158.0513 -7430.2350 302.4567 497.4993 540.4201 30348.7069 -71.7402 -2.9910
ENERGY: 1200000 3.4191 6.7230 5.9218 0.0000 -10535.3319 1380.2967 0.0000 0.0000 1770.2602 -7368.7110 301.1614 -9138.9713 -7427.6069 301.7879 -528.7960 -484.8224 30740.0753 -83.2312 -22.2218
ENERGY: 1500000 7.1574 8.8745 1.5611 0.0000 -10693.2933 1441.3263 0.0000 0.0000 1747.9557 -7486.4184 297.3669 -9234.3741 -7428.5864 302.3147 -178.1552 -50.5723 30293.0845 -75.4848 -2.1309
TCL: Running FEP window  10: Lambda1 0.44999999999999996 Lambda2 0.49999999999999994 [dLambda 0.04999999999999999]
TCL: Setting parameter firsttimestep to 0
TCL: Setting parameter alchLambda to 0.44999999999999996
Info: NONBONDED TABLE R-SQUARED SPACING: 0.0625
Info: NONBONDED TABLE SIZE: 705 POINTS
TCL: Setting parameter alchLambda2 to 0.49999999999999994
Info: NONBONDED TABLE R-SQUARED SPACING: 0.0625
Info: NONBONDED TABLE SIZE: 705 POINTS
TCL: Running for 1500000 steps
ETITLE: TS BOND ANGLE DIHED IMPRP ELECT VDW BOUNDARY MISC KINETIC TOTAL TEMP POTENTIAL TOTALAVG TEMPAVG PRESSURE GPRESSURE VOLUME PRESSAVG GPRESSAVG
ENERGY: 0 7.1574 8.8745 1.5611 0.0000 -10693.2934 1442.1577 0.0000 0.0000 1747.0573 -7486.4855 297.2141 -9233.5428 -7486.4855 297.2141 -127.8518 -37.3964 30293.0845 -127.8518 -37.3964
ENERGY: 300000 2.1906 4.7787 3.1299 0.0000 -10545.5198 1346.2695 0.0000 0.0000 1783.4443 -7405.7069 303.4043 -9189.1512 -7467.9045 298.0855 -884.7399 -794.4813 30779.0062 -490.4802 -425.4330
ENERGY: 600000 3.0233 5.0078 4.5819 0.0000 -10549.1779 1376.5202 0.0000 0.0000 1750.4955 -7409.5492 297.7990 -9160.0446 -7445.0893 299.4551 -335.8915 -265.8061 30354.3943 -439.3428 -362.1607
ENERGY: 900000 2.0282 7.2974 4.8006 0.0000 -10649.4746 1420.2635 0.0000 0.0000 1833.0699 -7382.0150 311.8468 -9215.0849 -7444.5089 301.0341 -88.6137 -36.7777 30227.4673 -400.4495 -309.1321
ENERGY: 1200000 3.5869 9.2385 7.6800 0.0000 -10568.8330 1319.2067 0.0000 0.0000 1829.2898 -7399.8310 311.2037 -9229.1208 -7442.0830 302.4435 -1191.3968 -1071.9633 30850.9644 -391.6874 -300.7901
ENERGY: 1500000 3.1541 7.7900 3.7249 0.0000 -10589.0084 1363.7127 0.0000 0.0000 1748.0543 -7462.5725 297.3837 -9210.6267 -7452.9092 302.1130 -237.9825 -181.1255 30185.9192 -320.2431 -231.3970
TCL: Running FEP window  11: Lambda1 0.49999999999999994 Lambda2 0.5499999999999999 [dLambda 0.04999999999999999]
TCL: Setting parameter firsttimestep to 0
TCL: Setting parameter alchLambda to 0.49999999999999994
Info: NONBONDED TABLE R-SQUARED SPACING: 0.0625
Info: NONBONDED TABLE SIZE: 705 POINTS
TCL: Setting parameter alchLambda2 to 0.5499999999999999
Info: NONBONDED TABLE R-SQUARED SPACING: 0.0625
Info: NONBONDED TABLE SIZE: 705 POINTS
TCL: Running for 1500000 steps
ETITLE: TS BOND ANGLE DIHED IMPRP ELECT VDW BOUNDARY MISC KINETIC TOTAL TEMP POTENTIAL TOTALAVG TEMPAVG PRESSURE GPRESSURE VOLUME PRESSAVG GPRESSAVG
ENERGY: 0 3.1541 7.7900 3.7249 0.0000 -10589.0089 1364.5889 0.0000 0.0000 1747.1942 -7462.5568 297.2374 -9209.7510 -7462.5568 297.2374 -236.4005 -167.9287 30185.9192 -236.4005 -167.9287
ENERGY: 300000 2.8992 7.6695 3.0898 0.0000 -10634.0711 1409.1610 0.0000 0.0000 1738.8865 -7472.3651 295.8240 -9211.2515 -7428.4459 300.8225 -581.7362 -520.1105 30988.1584 -261.8407 -202.8093
ENERGY: 600000 3.9136 12.7629 3.6921 0.0000 -10738.3236 1475.6078 0.0000 0.0000 1747.1320 -7495.2154 297.2268 -9242.3474 -7447.3980 298.7417 37.5924 66.6896 30661.9794 -347.5059 -299.0540
ENERGY: 900000 1.8777 7.6068 6.4893 0.0000 -10689.3333 1485.6446 0.0000 0.0000 1758.3773 -7429.3375 299.1399 -9187.7148 -7451.7336 297.3921 731.8807 784.6205 30079.7233 -228.1994 -162.6466
ENERGY: 1200000 5.2064 4.6656 6.3330 0.0000 -10717.6348 1428.5284 0.0000 0.0000 1755.1814 -7517.7201 298.5962 -9272.9014 -7459.5153 298.0207 -126.8574 -88.3848 29877.8088 -226.2624 -159.5248
ENERGY: 1500000 2.6076 4.0277 2.7249 0.0000 -10749.1544 1506.5854 0.0000 0.0000 1729.8291 -7503.3797 294.2832 -9233.2087 -7458.6922 298.3859 442.3077 514.0754 30330.9357 -131.2906 -67.1526
TCL: Running FEP window  12: Lambda1 0.5499999999999999 Lambda2 0.6    [dLambda 0.050000000000000044]
TCL: Setting parameter firsttimestep to 0
TCL: Setting parameter alchLambda to 0.5499999999999999
Info: NONBONDED TABLE R-SQUARED SPACING: 0.0625
Info: NONBONDED TABLE SIZE: 705 POINTS
TCL: Setting parameter alchLambda2 to 0.6
Info: NONBONDED TABLE R-SQUARED SPACING: 0.0625
Info: NONBONDED TABLE SIZE: 705 POINTS
TCL: Running for 1500000 steps
ETITLE: TS BOND ANGLE DIHED IMPRP ELECT VDW BOUNDARY MISC KINETIC TOTAL TEMP POTENTIAL TOTALAVG TEMPAVG PRESSURE GPRESSURE VOLUME PRESSAVG GPRESSAVG
ENERGY: 0 2.6076 4.0277 2.7249 0.0000 -10749.8730 1506.4351 0.0000 0.0000 1728.9366 -7505.1410 294.1313 -9234.0777 -7505.1410 294.1313 443.3292 518.5380 30330.9357 443.3292 518.5380
ENERGY: 300000 4.1014 6.2163 3.6199 0.0000 -10462.2248 1296.9322 0.0000 0.0000 1785.2354 -7366.1196 303.7090 -9151.3549 -7457.0709 298.5738 -1062.0952 -1009.2861 31004.3466 -420.8400 -342.1841
ENERGY: 600000 4.0980 8.4920 5.1840 0.0000 -10570.5196 1360.1823 0.0000 0.0000 1764.1417 -7428.4217 300.1205 -9192.5633 -7454.8616 300.3417 -524.0687 -537.9383 30594.6582 -230.1012 -174.5467
ENERGY: 900000 5.0071 6.3643 3.4526 0.0000 -10645.1026 1358.4200 0.0000 0.0000 1836.2570 -7435.6016 312.3890 -9271.8586 -7453.8322 300.0426 -544.3790 -499.1622 29786.2200 -297.1482 -234.9160
ENERGY: 1200000 4.2728 7.4519 5.5925 0.0000 -10603.8749 1375.8194 0.0000 0.0000 1775.0275 -7435.7109 301.9724 -9210.7384 -7456.8283 301.3864 -615.9985 -578.2814 30394.1927 -324.0405 -262.0798
ENERGY: 1500000 3.5548 5.0356 3.9211 0.0000 -10714.8196 1495.0169 0.0000 0.0000 1737.5057 -7469.7855 295.5891 -9207.2912 -7454.7406 301.6726 361.8814 475.9950 30282.5946 -161.0813 -98.0167
TCL: Running FEP window  13: Lambda1 0.6    Lambda2 0.65   [dLambda 0.050000000000000044]
TCL: Setting parameter firsttimestep to 0
TCL: Setting parameter alchLambda to 0.6
Info: NONBONDED TABLE R-SQUARED SPACING: 0.0625
Info: NONBONDED TABLE SIZE: 705 POINTS
TCL: Setting parameter alchLambda2 to 0.65
Info: NONBONDED TABLE R-SQUARED SPACING: 0.0625
Info: NONBONDED TABLE SIZE: 705 POINTS
TCL: Running for 1500000 steps
ETITLE: TS BOND ANGLE DIHED IMPRP ELECT VDW BOUNDARY MISC KINETIC TOTAL TEMP POTENTIAL TOTALAVG TEMPAVG PRESSURE GPRESSURE VOLUME PRESSAVG GPRESSAVG
ENERGY: 0 3.5548 5.0356 3.9211 0.0000 -10715.0390 1494.3618 0.0000 0.0000 1736.6519 -7471.5138 295.4439 -9208.1657 -7471.5138 295.4439 395.0947 476.3159 30282.5946 395.0947 476.3159
ENERGY: 300000 3.7040 6.9412 3.4442 0.0000 -10597.9179 1374.9520 0.0000 0.0000 1770.0601 -7438.8163 301.1274 -9208.8764 -7478.1894 295.6102 -286.2144 -180.6532 30160.7528 -165.0805 -75.8385
ENERGY: 600000 1.1574 9.5449 4.1581 0.0000 -10686.6967 1439.5486 0.0000 0.0000 1806.4482 -7425.8395 307.3178 -9232.2877 -7476.6928 298.9446 218.1397 255.2543 30014.9259 1.3662 69.5092
ENERGY: 900000 4.3517 7.7752 4.6684 0.0000 -10839.3658 1599.8645 0.0000 0.0000 1750.6736 -7472.0324 297.8293 -9222.7060 -7472.3844 299.3122 1450.3416 1559.6720 30359.1628 91.3792 163.0650
ENERGY: 1200000 3.6950 11.9338 3.7360 0.0000 -10527.6179 1309.8140 0.0000 0.0000 1770.2540 -7428.1851 301.1604 -9198.4391 -7477.5995 298.8793 -1307.7702 -1247.4271 30926.5783 -139.0748 -65.6819
ENERGY: 1500000 1.8866 6.4393 2.6490 0.0000 -10606.3789 1359.2103 0.0000 0.0000 1706.9463 -7529.2473 290.3903 -9236.1936 -7476.2921 298.4987 -734.5219 -669.8857 30691.8573 -145.5429 -70.4407
TCL: Running FEP window  14: Lambda1 0.65   Lambda2 0.7000000000000001 [dLambda 0.050000000000000044]
TCL: Setting parameter firsttimestep to 0
TCL: Setting parameter alchLambda to 0.65
Info: NONBONDED TABLE R-SQUARED SPACING: 0.0625
Info: NONBONDED TABLE SIZE: 705 POINTS
TCL: Setting parameter alchLambda2 to 0.7000000000000001
Info: NONBONDED TABLE R-SQUARED SPACING: 0.0625
Info: NONBONDED TABLE SIZE: 705 POINTS
TCL: Running for 1500000 steps
ETITLE: TS BOND ANGLE DIHED IMPRP ELECT VDW BOUNDARY MISC KINETIC TOTAL TEMP POTENTIAL TOTALAVG TEMPAVG PRESSURE GPRESSURE VOLUME PRESSAVG GPRESSAVG
ENERGY: 0 1.8866 6.4393 2.6490 0.0000 -10606.3456 1359.5530 0.0000 0.0000 1706.0470 -7529.7706 290.2373 -9235.8176 -7529.7706 290.2373 -736.6979 -655.9609 30691.8573 -736.6979 -655.9609
ENERGY: 300000 2.1231 8.2062 3.5882 0.0000 -10670.0715 1417.7575 0.0000 0.0000 1759.9511 -7478.4454 299.4076 -9238.3965 -7495.2524 296.7204 -114.3419 -36.3808 30204.0260 -6.3446 67.5901
ENERGY: 600000 1.1343 10.8594 4.7369 0.0000 -10489.5061 1319.1489 0.0000 0.0000 1849.3562 -7304.2705 314.6174 -9153.6266 -7444.2022 301.9699 -499.6078 -445.9103 30455.2227 22.6035 92.1822
ENERGY: 900000 3.6845 9.5105 3.2632 0.0000 -10751.3801 1516.4608 0.0000 0.0000 1743.2439 -7475.2171 296.5653 -9218.4610 -7460.4771 300.9273 734.5870 829.7324 30086.9190 224.2351 285.5140
ENERGY: 1200000 4.5270 4.8938 5.6324 0.0000 -10555.5680 1344.4029 0.0000 0.0000 1704.8291 -7491.2828 290.0301 -9196.1119 -7460.6898 299.9535 -769.3280 -674.8021 30662.5633 93.1885 156.6158
ENERGY: 1500000 4.4007 6.7691 4.6604 0.0000 -10649.8481 1453.4013 0.0000 0.0000 1733.9820 -7446.6346 294.9897 -9180.6165 -7468.0592 298.3021 -12.3748 37.8024 30536.6762 54.0215 113.3099
TCL: Running FEP window  15: Lambda1 0.7000000000000001 Lambda2 0.7500000000000001 [dLambda 0.050000000000000044]
TCL: Setting parameter firsttimestep to 0
TCL: Setting parameter alchLambda to 0.7000000000000001
Info: NONBONDED TABLE R-SQUARED SPACING: 0.0625
Info: NONBONDED TABLE SIZE: 705 POINTS
TCL: Setting parameter alchLambda2 to 0.7500000000000001
Info: NONBONDED TABLE R-SQUARED SPACING: 0.0625
Info: NONBONDED TABLE SIZE: 705 POINTS
TCL: Running for 1500000 steps
ETITLE: TS BOND ANGLE DIHED IMPRP ELECT VDW BOUNDARY MISC KINETIC TOTAL TEMP POTENTIAL TOTALAVG TEMPAVG PRESSURE GPRESSURE VOLUME PRESSAVG GPRESSAVG
ENERGY: 0 4.4007 6.7691 4.6604 0.0000 -10650.1695 1452.9222 0.0000 0.0000 1733.1152 -7448.3019 294.8422 -9181.4170 -7448.3019 294.8422 -61.4051 42.2925 30536.6762 -61.4051 42.2925
ENERGY: 300000 2.2885 4.5546 4.0083 0.0000 -10641.9490 1410.8509 0.0000 0.0000 1726.2081 -7494.0385 293.6671 -9220.2466 -7472.3853 296.7088 -337.0898 -272.5777 30751.3274 29.7573 111.9098
ENERGY: 600000 2.8528 7.8899 4.1728 0.0000 -10619.3869 1461.6534 0.0000 0.0000 1773.3752 -7369.4428 301.6913 -9142.8180 -7447.0550 299.2891 400.0605 425.2367 30659.7759 15.4012 90.3079
ENERGY: 900000 4.8591 7.6381 3.2559 0.0000 -10635.2134 1437.8889 0.0000 0.0000 1731.5593 -7450.0121 294.5775 -9181.5714 -7443.5391 300.0672 40.4053 175.1981 30235.1495 20.8596 103.9599
ENERGY: 1200000 2.2398 7.1814 2.0997 0.0000 -10687.4240 1458.6215 0.0000 0.0000 1778.9720 -7438.3095 302.6435 -9217.2816 -7436.9614 301.0580 10.3557 54.5562 30632.0101 61.1179 140.6303
ENERGY: 1500000 1.5491 8.8177 4.2551 0.0000 -10620.3971 1443.2944 0.0000 0.0000 1793.6263 -7368.8545 305.1365 -9162.4808 -7433.9578 300.3906 135.1868 214.0714 30464.9039 28.1702 109.2369
TCL: Running FEP window  16: Lambda1 0.7500000000000001 Lambda2 0.8000000000000002 [dLambda 0.050000000000000044]
TCL: Setting parameter firsttimestep to 0
TCL: Setting parameter alchLambda to 0.7500000000000001
Info: NONBONDED TABLE R-SQUARED SPACING: 0.0625
Info: NONBONDED TABLE SIZE: 705 POINTS
TCL: Setting parameter alchLambda2 to 0.8000000000000002
Info: NONBONDED TABLE R-SQUARED SPACING: 0.0625
Info: NONBONDED TABLE SIZE: 705 POINTS
TCL: Running for 1500000 steps
ETITLE: TS BOND ANGLE DIHED IMPRP ELECT VDW BOUNDARY MISC KINETIC TOTAL TEMP POTENTIAL TOTALAVG TEMPAVG PRESSURE GPRESSURE VOLUME PRESSAVG GPRESSAVG
ENERGY: 0 1.5491 8.8177 4.2551 0.0000 -10622.8807 1445.5278 0.0000 0.0000 1792.7242 -7370.0068 304.9830 -9162.7310 -7370.0068 304.9830 164.6196 238.8980 30464.9039 164.6196 238.8980
ENERGY: 300000 1.2606 6.9539 2.6679 0.0000 -10695.5305 1438.9132 0.0000 0.0000 1750.7748 -7494.9602 297.8465 -9245.7350 -7496.8085 295.9439 60.1291 168.5490 30197.8516 196.7616 290.1636
ENERGY: 600000 2.6306 7.9773 6.2642 0.0000 -10716.7530 1470.0295 0.0000 0.0000 1795.7570 -7434.0945 305.4990 -9229.8514 -7457.8376 298.1909 240.0998 274.8082 30355.5533 100.8092 185.9557
ENERGY: 900000 3.5651 6.2095 6.8458 0.0000 -10683.1175 1418.5879 0.0000 0.0000 1741.7900 -7506.1193 296.3180 -9247.9092 -7456.4666 299.2438 67.8228 116.2790 30027.9696 -34.9289 44.8162
ENERGY: 1200000 2.1243 7.4704 6.7016 0.0000 -10773.2516 1443.8102 0.0000 0.0000 1741.2051 -7571.9399 296.2185 -9313.1450 -7467.6729 299.0585 198.9443 169.9853 29927.3342 29.6376 98.9393
ENERGY: 1500000 1.2085 5.7457 3.7263 0.0000 -10474.3765 1326.2700 0.0000 0.0000 1748.6817 -7388.7443 297.4904 -9137.4260 -7456.4518 299.2565 -462.3636 -419.9322 30313.0706 -18.6159 45.9673
TCL: Running FEP window  17: Lambda1 0.8000000000000002 Lambda2 0.8500000000000002 [dLambda 0.050000000000000044]
TCL: Setting parameter firsttimestep to 0
TCL: Setting parameter alchLambda to 0.8000000000000002
Info: NONBONDED TABLE R-SQUARED SPACING: 0.0625
Info: NONBONDED TABLE SIZE: 705 POINTS
TCL: Setting parameter alchLambda2 to 0.8500000000000002
Info: NONBONDED TABLE R-SQUARED SPACING: 0.0625
Info: NONBONDED TABLE SIZE: 705 POINTS
TCL: Running for 1500000 steps
ETITLE: TS BOND ANGLE DIHED IMPRP ELECT VDW BOUNDARY MISC KINETIC TOTAL TEMP POTENTIAL TOTALAVG TEMPAVG PRESSURE GPRESSURE VOLUME PRESSAVG GPRESSAVG
ENERGY: 0 1.2085 5.7457 3.7263 0.0000 -10475.1403 1326.3026 0.0000 0.0000 1747.8367 -7390.3205 297.3467 -9138.1572 -7390.3205 297.3467 -492.9673 -408.2411 30313.0706 -492.9673 -408.2411
ENERGY: 300000 2.3641 8.0144 3.8018 0.0000 -10579.4094 1378.2958 0.0000 0.0000 1705.3401 -7481.5932 290.1170 -9186.9333 -7460.0259 295.9726 -482.9137 -431.1120 30612.8174 -654.8922 -593.0034
ENERGY: 600000 3.1401 9.8424 3.1225 0.0000 -10670.6029 1462.6173 0.0000 0.0000 1744.3327 -7447.5478 296.7506 -9191.8805 -7454.6604 297.4993 821.9458 919.9238 29798.8412 -50.1927 11.4636
ENERGY: 900000 0.9087 6.1728 4.8041 0.0000 -10857.6491 1527.1718 0.0000 0.0000 1785.9954 -7532.5963 303.8383 -9318.5918 -7480.6612 297.2549 736.4582 750.6261 29881.0873 -4.6431 58.0015
ENERGY: 1200000 2.4966 6.7305 4.2930 0.0000 -10611.7122 1376.7848 0.0000 0.0000 1741.9322 -7479.4752 296.3422 -9221.4074 -7461.4074 299.3151 -375.6948 -289.4339 30061.8981 -28.2071 41.4214
ENERGY: 1500000 5.5419 6.8542 4.2850 0.0000 -10672.3296 1392.7468 0.0000 0.0000 1793.3366 -7469.5651 305.0872 -9262.9016 -7466.1126 299.8549 -657.0107 -643.7829 30602.2030 -133.1033 -69.3134
TCL: Running FEP window  18: Lambda1 0.8500000000000002 Lambda2 0.9000000000000002 [dLambda 0.050000000000000044]
TCL: Setting parameter firsttimestep to 0
TCL: Setting parameter alchLambda to 0.8500000000000002
Info: NONBONDED TABLE R-SQUARED SPACING: 0.0625
Info: NONBONDED TABLE SIZE: 705 POINTS
TCL: Setting parameter alchLambda2 to 0.9000000000000002
Info: NONBONDED TABLE R-SQUARED SPACING: 0.0625
Info: NONBONDED TABLE SIZE: 705 POINTS
TCL: Running for 1500000 steps
ETITLE: TS BOND ANGLE DIHED IMPRP ELECT VDW BOUNDARY MISC KINETIC TOTAL TEMP POTENTIAL TOTALAVG TEMPAVG PRESSURE GPRESSURE VOLUME PRESSAVG GPRESSAVG
ENERGY: 0 5.5419 6.8542 4.2850 0.0000 -10673.9931 1394.2447 0.0000 0.0000 1792.4454 -7470.6218 304.9356 -9263.0672 -7470.6218 304.9356 -684.1788 -618.5543 30602.2030 -684.1788 -618.5543
ENERGY: 300000 4.8253 10.5314 5.3445 0.0000 -10678.0869 1483.5893 0.0000 0.0000 1769.1548 -7404.6417 300.9734 -9173.7965 -7430.6439 300.1951 513.0411 614.9958 30413.5846 -183.2042 -109.8510
ENERGY: 600000 2.6739 8.3714 7.7665 0.0000 -10723.0997 1494.7582 0.0000 0.0000 1750.3881 -7459.1416 297.7807 -9209.5297 -7435.2603 301.4313 214.6288 332.6314 30638.0274 118.2449 202.2245
ENERGY: 900000 3.3786 4.2916 1.7819 0.0000 -10573.8901 1351.0837 0.0000 0.0000 1743.0866 -7470.2676 296.5386 -9213.3543 -7450.0992 300.2481 -195.2853 -152.3990 30101.0300 69.0899 153.4391
ENERGY: 1200000 2.0479 9.6556 3.5168 0.0000 -10789.6579 1509.0930 0.0000 0.0000 1776.8787 -7488.4659 302.2874 -9265.3445 -7454.4507 300.6236 377.7012 432.2708 30803.2769 78.4864 158.5670
ENERGY: 1500000 6.1180 6.2328 3.2111 0.0000 -10759.9250 1455.1490 0.0000 0.0000 1708.9611 -7580.2529 290.7331 -9289.2140 -7456.3428 300.3018 -10.2319 13.0129 30068.5729 58.6053 134.4983
TCL: Running FEP window  19: Lambda1 0.9000000000000002 Lambda2 0.9500000000000003 [dLambda 0.050000000000000044]
TCL: Setting parameter firsttimestep to 0
TCL: Setting parameter alchLambda to 0.9000000000000002
Info: NONBONDED TABLE R-SQUARED SPACING: 0.0625
Info: NONBONDED TABLE SIZE: 705 POINTS
TCL: Setting parameter alchLambda2 to 0.9500000000000003
Info: NONBONDED TABLE R-SQUARED SPACING: 0.0625
Info: NONBONDED TABLE SIZE: 705 POINTS
TCL: Running for 1500000 steps
ETITLE: TS BOND ANGLE DIHED IMPRP ELECT VDW BOUNDARY MISC KINETIC TOTAL TEMP POTENTIAL TOTALAVG TEMPAVG PRESSURE GPRESSURE VOLUME PRESSAVG GPRESSAVG
ENERGY: 0 6.1180 6.2328 3.2111 0.0000 -10761.1802 1456.1124 0.0000 0.0000 1708.0969 -7581.4090 290.5860 -9289.5059 -7581.4090 290.5860 -46.1082 37.6251 30068.5729 -46.1082 37.6251
ENERGY: 300000 3.1010 9.0477 3.9414 0.0000 -10688.6262 1381.2580 0.0000 0.0000 1803.6118 -7487.6663 306.8353 -9291.2780 -7479.3805 298.1735 -839.3853 -800.6498 30871.5778 -102.0110 -45.2055
ENERGY: 600000 2.5354 5.4143 1.6880 0.0000 -10785.7739 1508.5979 0.0000 0.0000 1729.1130 -7538.4253 294.1613 -9267.5383 -7490.8288 299.3389 772.0491 742.9236 30259.8655 87.9885 135.0788
ENERGY: 900000 2.8577 5.5758 2.9019 0.0000 -10784.6218 1446.6371 0.0000 0.0000 1799.7309 -7526.9184 306.1750 -9326.6493 -7497.7312 299.4824 98.1476 171.2890 29881.9085 140.7698 193.6414
ENERGY: 1200000 2.0616 6.7534 5.7841 0.0000 -10772.1760 1504.3890 0.0000 0.0000 1707.2549 -7545.9329 290.4428 -9253.1878 -7497.9096 298.5914 385.4520 473.1724 30315.4246 265.1228 323.7102
ENERGY: 1500000 4.9435 11.1384 3.6582 0.0000 -10677.8225 1411.6557 0.0000 0.0000 1749.0233 -7497.4034 297.5485 -9246.4267 -7493.1719 298.6003 -178.6835 -110.3144 30460.1400 133.9480 198.9063
TCL: Running FEP window  20: Lambda1 0.9500000000000003 Lambda2 1.0    [dLambda 0.04999999999999971]
TCL: Setting parameter firsttimestep to 0
TCL: Setting parameter alchLambda to 0.9500000000000003
Info: NONBONDED TABLE R-SQUARED SPACING: 0.0625
Info: NONBONDED TABLE SIZE: 705 POINTS
TCL: Setting parameter alchLambda2 to 1.0
Info: NONBONDED TABLE R-SQUARED SPACING: 0.0625
Info: NONBONDED TABLE SIZE: 705 POINTS
TCL: Running for 1500000 steps
ETITLE: TS BOND ANGLE DIHED IMPRP ELECT VDW BOUNDARY MISC KINETIC TOTAL TEMP POTENTIAL TOTALAVG TEMPAVG PRESSURE GPRESSURE VOLUME PRESSAVG GPRESSAVG
ENERGY: 0 4.9435 11.1384 3.6582 0.0000 -10679.3681 1411.8982 0.0000 0.0000 1748.1253 -7499.6045 297.3958 -9247.7298 -7499.6045 297.3958 -178.7380 -94.6631 30460.1400 -178.7380 -94.6631
ENERGY: 300000 1.6910 10.5164 4.6928 0.0000 -10818.6912 1521.8768 0.0000 0.0000 1786.2640 -7493.6502 303.8840 -9279.9142 -7457.8710 301.3816 838.6253 921.0652 30131.8867 16.9487 67.0274
ENERGY: 600000 1.0383 4.6125 5.0519 0.0000 -10738.2264 1528.2382 0.0000 0.0000 1851.4316 -7347.8539 314.9705 -9199.2855 -7437.1129 302.1766 834.9267 862.5154 30540.3397 178.5595 241.7919
ENERGY: 900000 1.6123 8.8111 3.6764 0.0000 -10759.6770 1484.0083 0.0000 0.0000 1777.9807 -7483.5882 302.4748 -9261.5689 -7440.3831 303.1478 273.2651 343.7641 30434.2394 193.4958 258.3983
ENERGY: 1200000 2.1250 10.9255 3.8175 0.0000 -10657.4733 1452.5093 0.0000 0.0000 1809.1597 -7378.9362 307.7791 -9188.0959 -7444.1437 302.9260 585.8342 603.7725 30117.8221 246.0609 306.3130
ENERGY: 1500000 3.4102 8.1959 5.4526 0.0000 -10693.9194 1468.6799 0.0000 0.0000 1746.6440 -7461.5369 297.1438 -9208.1809 -7443.4875 302.4308 273.9707 286.1424 30375.6270 255.8494 303.6090
TCL: Exiting due to exit command.
