Info: SIMULATION PARAMETERS:
Info: TIMESTEP               2
Info: NUMBER OF STEPS        0
Info: STEPS PER CYCLE        10
Info: PERIODIC CELL BASIS 1  33.0853 0 0
Info: PERIODIC CELL BASIS 2  0 30.2792 0
Info: PERIODIC CELL BASIS 3  0 0 30.2518
Info: PERIODIC CELL CENTER   0 0 0
Info: WRAPPING WATERS AROUND PERIODIC BOUNDARIES ON OUTPUT.
Info: WRAPPING ALL CLUSTERS AROUND PERIODIC BOUNDARIES ON OUTPUT.
Info: FIRST LDB TIMESTEP     50
Info: LAST LDB TIMESTEP     -1
Info: HOM BACKGROUND SCALING 1
Info: PME BACKGROUND SCALING 1
Info: MIN ATOMS PER PATCH    40
Info: EMPTY PATCH LOAD       40 ATOMS
Info: VELOCITY FILE          mobley_1875719_equil.vel
Info: CENTER OF MASS MOVING INITIALLY? NO
Info: DIELECTRIC             1
Info: EXCLUDE                SCALED ONE-FOUR
Info: 1-4 ELECTROSTATICS SCALED BY 0.833333
Info: MODIFIED 1-4 VDW PARAMETERS WILL BE USED
Info: DCD FILENAME           mobley_1875719_prod.dcd
Info: DCD FREQUENCY          100000
Info: DCD FIRST STEP         100000
Info: DCD FILE WILL CONTAIN UNIT CELL DATA
Info: XST FILENAME           mobley_1875719_prod.xst
Info: XST FREQUENCY          100000
Info: NO VELOCITY DCD OUTPUT
Info: NO FORCE DCD OUTPUT
Info: OUTPUT FILENAME        mobley_1875719_prod
Info: BINARY OUTPUT FILES WILL BE USED
Info: RESTART FILENAME       mobley_1875719_prod.restart
Info: RESTART FREQUENCY      100000
Info: BINARY RESTART FILES WILL BE USED
Info: CUTOFF                 9
Info: PAIRLIST DISTANCE      11
Info: PAIRLIST SHRINK RATE   0.01
Info: PAIRLIST GROW RATE     0.01
Info: PAIRLIST TRIGGER       0.3
Info: PAIRLISTS PER CYCLE    2
Info: PAIRLISTS ENABLED
Info: MARGIN                 2
Info: HYDROGEN GROUP CUTOFF  2.5
Info: PATCH DIMENSION        15.5
Info: ENERGY OUTPUT STEPS    100000
Info: ENERGY EVALUATION STEPS    100000
Info: OUTPUT ENERGY PRECISION 4
Info: CROSSTERM ENERGY INCLUDED IN DIHEDRAL
Info: TIMING OUTPUT STEPS    1000000
Info: PRESSURE OUTPUT STEPS  100000
Info: ALCHEMICAL FEP ON
Info: FEP CURRENT LAMBDA VALUE     0
Info: FEP COMPARISON LAMBDA VALUE  0.05
Info: FEP INTRA-ALCHEMICAL NON-BONDED INTERACTIONS WILL BE RETAINED
Info: FEP INTRA-ALCHEMICAL BONDED INTERACTIONS WILL BE RETAINED
Info: FEP VDW SHIFTING COEFFICIENT 5
Info: FEP ELEC. ACTIVE FOR ANNIHILATED PARTICLES BETWEEN LAMBDA = 0 AND LAMBDA = 0.5
Info: FEP ELEC. ACTIVE FOR EXNIHILATED PARTICLES BETWEEN LAMBDA = 0.5 AND LAMBDA = 1
Info: FEP VDW ACTIVE FOR ANNIHILATED PARTICLES BETWEEN LAMBDA = 0 AND LAMBDA = 1
Info: FEP VDW ACTIVE FOR EXNIHILATED PARTICLES BETWEEN LAMBDA = 0 AND LAMBDA = 1
Info: FEP BOND ACTIVE FOR ANNIHILATED PARTICLES BETWEEN LAMBDA = 1 AND LAMBDA = 1
Info: FEP BOND ACTIVE FOR EXNIHILATED PARTICLES BETWEEN LAMBDA = 0 AND LAMBDA = 0
Info: LANGEVIN DYNAMICS ACTIVE
Info: LANGEVIN TEMPERATURE   300
Info: LANGEVIN USING BBK INTEGRATOR
Info: LANGEVIN DAMPING COEFFICIENT IS 1 INVERSE PS
Info: LANGEVIN DYNAMICS APPLIED TO HYDROGENS
Info: LANGEVIN PISTON PRESSURE CONTROL ACTIVE
Info:        TARGET PRESSURE IS 1.01325 BAR
Info:     OSCILLATION PERIOD IS 50 FS
Info:             DECAY TIME IS 25 FS
Info:     PISTON TEMPERATURE IS 300 K
Info:       PRESSURE CONTROL IS GROUP-BASED
Info:    INITIAL STRAIN RATE IS -0.000324767 -0.000324767 -0.000324767
Info:       CELL FLUCTUATION IS ISOTROPIC
Info: PARTICLE MESH EWALD (PME) ACTIVE
Info: PME TOLERANCE               1e-06
Info: PME EWALD COEFFICIENT       0.348832
Info: PME INTERPOLATION ORDER     4
Info: PME GRID DIMENSIONS         36 32 32
Info: PME MAXIMUM GRID SPACING    1
Info: PME CALCULATION WILL BE PERFORMED ON GPU
Info: FULL ELECTROSTATIC EVALUATION FREQUENCY      2
Info: USING VERLET I (r-RESPA) MTS SCHEME.
Info: C1 SPLITTING OF LONG RANGE ELECTROSTATICS
Info: PLACING ATOMS IN PATCHES BY HYDROGEN GROUPS
Info: RIGID BONDS TO HYDROGEN : ALL
Info:         ERROR TOLERANCE : 1e-08
Info:          MAX ITERATIONS : 100
Info: RIGID WATER USING SETTLE ALGORITHM
Info: RANDOM NUMBER SEED     1743854611
Info: USE HYDROGEN BONDS?    NO
Info: Using AMBER format force field!
Info: AMBER PARM FILE        mobley_1875719.prmtop
Info: COORDINATE PDB         mobley_1875719.pdb
Info: Exclusions will be read from PARM file!
Info: SCNB (VDW SCALING)     2
Info: USING ARITHMETIC MEAN TO COMBINE L-J SIGMA PARAMETERS
Info: BINARY COORDINATES     mobley_1875719_equil.coor
Info: SUMMARY OF PARAMETERS:
Info: 6 BONDS
Info: 6 ANGLES
Info:   6 HARMONIC
Info:   0 COSINE-BASED
Info: 7 DIHEDRAL
Info: 0 IMPROPER
Info: 0 CROSSTERM
Info: 0 VDW
Info: 21 VDW_PAIRS
Info: 0 NBTHOLE_PAIRS
Info: To read alchdata from file: mobley_1875719.pdb
Info: To read alchflag data from column: 5
Info: STRUCTURE SUMMARY:
Info: 2950 ATOMS
Info: 2949 BONDS
Info: 27 ANGLES
Info: 39 DIHEDRALS
Info: 0 IMPROPERS
Info: 0 CROSSTERMS
Info: 3006 EXCLUSIONS
Info: 2944 RIGID BONDS
Info: ALCH: 0 ATOMS TO DISAPPEAR IN FINAL STATE
Info: ALCH: 16 ATOMS TO APPEAR IN FINAL STATE
Info: 5906 DEGREES OF FREEDOM
Info: 984 HYDROGEN GROUPS
Info: 4 ATOMS IN LARGEST HYDROGEN GROUP
Info: 984 MIGRATION GROUPS
Info: 4 ATOMS IN LARGEST MIGRATION GROUP
Info: TOTAL MASS = 17705.8 amu
Info: TOTAL CHARGE = -1.49012e-08 e
Info: MASS DENSITY = 0.970162 g/cm^3
Info: ATOM DENSITY = 0.0973401 atoms/A^3
Info: ADDED 0 IMPLICIT EXCLUSIONS
Info: NONBONDED TABLE R-SQUARED SPACING: 0.0625
Info: NONBONDED TABLE SIZE: 705 POINTS
Info: REMOVING COM VELOCITY 0.0332193 -0.154933 0.0282049
Info: Use 3D box decompostion in PME FFT.
Info: Updated CUDA force table with 4096 elements.
Info: Updated CUDA LJ table with 6 x 6 elements.
Info: Found 19 unique exclusion lists needing 40 bytes
TCL: Running for 1500000 steps
ETITLE: TS BOND ANGLE DIHED IMPRP ELECT VDW BOUNDARY MISC KINETIC TOTAL TEMP POTENTIAL TOTALAVG TEMPAVG PRESSURE GPRESSURE VOLUME PRESSAVG GPRESSAVG
ENERGY: 0 0.8802 8.4515 5.2279 0.0000 -10547.6570 1343.5529 0.0000 0.0000 1762.4531 -7427.0914 300.3409 -9189.5445 -7427.0914 300.3409 -451.5250 -358.9179 30306.1061 -451.5250 -358.9179
ENERGY: 300000 1.9126 12.4553 4.7379 0.0000 -10757.0912 1409.4896 0.0000 0.0000 1728.3710 -7600.1248 294.5330 -9328.4958 -7541.7417 296.0094 -350.2302 -268.0292 29537.8634 -183.7295 -95.2139
ENERGY: 600000 0.5507 4.7082 3.4377 0.0000 -10633.4045 1386.4742 0.0000 0.0000 1714.9141 -7523.3197 292.2398 -9238.2338 -7519.1280 298.1005 -606.1583 -601.4063 30585.1548 -145.7322 -78.0973
ENERGY: 900000 1.1355 8.7504 2.5973 0.0000 -10684.1021 1460.8060 0.0000 0.0000 1803.9566 -7406.8563 307.4136 -9210.8129 -7500.0791 300.2318 46.0793 113.4901 30503.6080 -39.4640 27.4835
ENERGY: 1200000 6.4013 6.3243 3.7481 0.0000 -10849.3158 1511.8499 0.0000 0.0000 1687.0507 -7633.9416 287.4915 -9320.9922 -7497.3379 299.8990 -8.1026 67.6295 30017.0525 -80.0790 -17.7199
ENERGY: 1500000 1.5423 7.4401 3.9676 0.0000 -10687.3921 1442.2842 0.0000 0.0000 1773.4544 -7458.7037 302.2157 -9232.1580 -7497.3512 300.7319 -148.1982 -134.7955 30468.1975 -57.2255 -3.4149
TCL: Running FEP window   2: Lambda1 0.05   Lambda2 0.1    [dLambda 0.05  ]
TCL: Setting parameter firsttimestep to 0
TCL: Setting parameter alchLambda to 0.05
Info: NONBONDED TABLE R-SQUARED SPACING: 0.0625
Info: NONBONDED TABLE SIZE: 705 POINTS
TCL: Setting parameter alchLambda2 to 0.1
Info: NONBONDED TABLE R-SQUARED SPACING: 0.0625
Info: NONBONDED TABLE SIZE: 705 POINTS
TCL: Running for 1500000 steps
ETITLE: TS BOND ANGLE DIHED IMPRP ELECT VDW BOUNDARY MISC KINETIC TOTAL TEMP POTENTIAL TOTALAVG TEMPAVG PRESSURE GPRESSURE VOLUME PRESSAVG GPRESSAVG
ENERGY: 0 1.5423 7.4401 3.9676 0.0000 -10687.3908 1444.9722 0.0000 0.0000 1772.5769 -7456.8918 302.0661 -9229.4687 -7456.8918 302.0661 -227.9914 -130.4840 30468.1975 -227.9914 -130.4840
ENERGY: 300000 6.0403 10.9852 2.3257 0.0000 -10612.0538 1390.9961 0.0000 0.0000 1745.5844 -7456.1222 297.4663 -9201.7066 -7477.8654 297.7124 -406.6422 -381.3980 30543.0572 -416.2609 -343.3083
ENERGY: 600000 2.0750 10.0948 3.1348 0.0000 -10599.3713 1379.3283 0.0000 0.0000 1789.7272 -7415.0112 304.9887 -9204.7384 -7472.7122 299.8685 -466.1056 -349.6816 30462.0490 -773.8896 -693.1025
ENERGY: 900000 0.7130 6.8520 2.6967 0.0000 -10648.4961 1370.6253 0.0000 0.0000 1716.0432 -7551.5659 292.4322 -9267.6091 -7504.0093 298.2774 -955.3010 -830.6263 30691.8867 -654.1978 -573.2195
ENERGY: 1200000 1.1550 6.1501 4.1362 0.0000 -10655.7647 1464.6033 0.0000 0.0000 1774.5500 -7405.1701 302.4024 -9179.7201 -7493.1471 298.8944 447.0741 489.0451 30111.8805 -399.6494 -327.8845
ENERGY: 1500000 2.0625 8.2293 3.3180 0.0000 -10793.4442 1519.1880 0.0000 0.0000 1769.4354 -7491.2110 301.5308 -9260.6463 -7490.9914 299.4660 764.8079 768.2371 29783.5637 -268.3183 -201.8062
TCL: Running FEP window   3: Lambda1 0.1    Lambda2 0.15000000000000002 [dLambda 0.05000000000000002]
TCL: Setting parameter firsttimestep to 0
TCL: Setting parameter alchLambda to 0.1
Info: NONBONDED TABLE R-SQUARED SPACING: 0.0625
Info: NONBONDED TABLE SIZE: 705 POINTS
TCL: Setting parameter alchLambda2 to 0.15000000000000002
Info: NONBONDED TABLE R-SQUARED SPACING: 0.0625
Info: NONBONDED TABLE SIZE: 705 POINTS
TCL: Running for 1500000 steps
ETITLE: TS BOND ANGLE DIHED IMPRP ELECT VDW BOUNDARY MISC KINETIC TOTAL TEMP POTENTIAL TOTALAVG TEMPAVG PRESSURE GPRESSURE VOLUME PRESSAVG GPRESSAVG
ENERGY: 0 2.0625 8.2293 3.3180 0.0000 -10793.4435 1520.8062 0.0000 0.0000 1768.5833 -7490.4441 301.3856 -9259.0274 -7490.4441 301.3856 692.9538 775.2664 29783.5637 692.9538 775.2664
ENERGY: 300000 3.0850 6.2778 3.0225 0.0000 -10740.3336 1494.8501 0.0000 0.0000 1761.5491 -7471.5490 300.1869 -9233.0981 -7500.5525 298.0295 299.1681 375.5268 30181.8468 276.7487 357.0193
ENERGY: 600000 1.0289 4.3924 3.5531 0.0000 -10616.6246 1422.5038 0.0000 0.0000 1726.1700 -7458.9763 294.1579 -9185.1463 -7491.1614 297.8302 -155.2884 -152.8008 30802.9019 -26.9488 29.9297
ENERGY: 900000 0.7053 5.0964 2.8130 0.0000 -10591.3491 1368.5967 0.0000 0.0000 1732.5430 -7481.5945 295.2439 -9214.1376 -7504.6486 296.8272 -627.5487 -613.1749 30326.2236 -163.1871 -111.6621
ENERGY: 1200000 0.6244 9.9346 3.0500 0.0000 -10480.7762 1299.2942 0.0000 0.0000 1742.3373 -7425.5358 296.9130 -9167.8731 -7495.2653 296.7323 -1013.2874 -916.1547 30260.4376 -229.9021 -180.1459
ENERGY: 1500000 2.8068 7.6493 2.0771 0.0000 -10708.7702 1447.0631 0.0000 0.0000 1786.1958 -7462.9780 304.3869 -9249.1738 -7494.9522 296.8920 16.9027 114.1308 30050.2876 -159.1033 -102.9259
TCL: Running FEP window   4: Lambda1 0.15000000000000002 Lambda2 0.2    [dLambda 0.04999999999999999]
TCL: Setting parameter firsttimestep to 0
TCL: Setting parameter alchLambda to 0.15000000000000002
Info: NONBONDED TABLE R-SQUARED SPACING: 0.0625
Info: NONBONDED TABLE SIZE: 705 POINTS
TCL: Setting parameter alchLambda2 to 0.2
Info: NONBONDED TABLE R-SQUARED SPACING: 0.0625
Info: NONBONDED TABLE SIZE: 705 POINTS
TCL: Running for 1500000 steps
ETITLE: TS BOND ANGLE DIHED IMPRP ELECT VDW BOUNDARY MISC KINETIC TOTAL TEMP POTENTIAL TOTALAVG TEMPAVG PRESSURE GPRESSURE VOLUME PRESSAVG GPRESSAVG
ENERGY: 0 2.8068 7.6493 2.0771 0.0000 -10708.7697 1447.7532 0.0000 0.0000 1785.3382 -7463.1449 304.2408 -9248.4832 -7463.1449 304.2408 27.1423 118.4902 30050.2876 27.1423 118.4902
ENERGY: 300000 2.8538 5.9040 3.6143 0.0000 -10766.1404 1511.2033 0.0000 0.0000 1783.8811 -7458.6838 303.9925 -9242.5650 -7488.6801 298.3729 405.8364 409.3601 30591.8191 190.0546 243.7476
ENERGY: 600000 0.4710 5.9145 2.5152 0.0000 -10595.0057 1429.8649 0.0000 0.0000 1743.8513 -7412.3888 297.1710 -9156.2402 -7477.8208 298.1987 231.3644 262.0397 30209.5892 123.4089 174.7303
ENERGY: 900000 2.4138 5.7404 2.4227 0.0000 -10654.7568 1420.2785 0.0000 0.0000 1752.8289 -7471.0725 298.7009 -9223.9014 -7478.8483 298.0417 -80.0557 -3.1344 30179.2520 26.3692 87.4515
ENERGY: 1200000 3.5946 11.2622 4.4870 0.0000 -10880.0125 1560.6030 0.0000 0.0000 1768.4255 -7531.6403 301.3587 -9300.0657 -7486.5688 297.9384 1014.0660 978.7666 29618.6755 98.0607 155.1474
ENERGY: 1500000 1.4122 6.8549 1.9230 0.0000 -10642.3944 1313.1550 0.0000 0.0000 1749.2197 -7569.8297 298.0858 -9319.0493 -7487.3035 297.8257 -1252.6635 -1164.9589 30385.5930 -6.9742 51.5647
TCL: Running FEP window   5: Lambda1 0.2    Lambda2 0.25   [dLambda 0.04999999999999999]
TCL: Setting parameter firsttimestep to 0
TCL: Setting parameter alchLambda to 0.2
Info: NONBONDED TABLE R-SQUARED SPACING: 0.0625
Info: NONBONDED TABLE SIZE: 705 POINTS
TCL: Setting parameter alchLambda2 to 0.25
Info: NONBONDED TABLE R-SQUARED SPACING: 0.0625
Info: NONBONDED TABLE SIZE: 705 POINTS
TCL: Running for 1500000 steps
ETITLE: TS BOND ANGLE DIHED IMPRP ELECT VDW BOUNDARY MISC KINETIC TOTAL TEMP POTENTIAL TOTALAVG TEMPAVG PRESSURE GPRESSURE VOLUME PRESSAVG GPRESSAVG
ENERGY: 0 1.4122 6.8549 1.9230 0.0000 -10642.3945 1313.6982 0.0000 0.0000 1748.3219 -7570.1844 297.9328 -9318.5062 -7570.1844 297.9328 -1259.5599 -1162.2191 30385.5930 -1259.5599 -1162.2191
ENERGY: 300000 1.9024 5.2910 3.1726 0.0000 -10633.8245 1411.7883 0.0000 0.0000 1783.2073 -7428.4629 303.8777 -9211.6702 -7505.0118 298.3666 -376.7776 -358.2538 30590.9033 -207.6951 -166.7529
ENERGY: 600000 1.2158 5.6015 3.8491 0.0000 -10859.5592 1553.2589 0.0000 0.0000 1804.9566 -7490.6773 307.5840 -9295.6339 -7494.9386 299.7835 839.5349 860.0057 30022.9085 -7.7348 53.3203
ENERGY: 900000 1.4079 7.8673 2.5805 0.0000 -10713.7950 1530.1863 0.0000 0.0000 1732.3498 -7439.4032 295.2110 -9171.7530 -7491.7306 299.3737 704.9563 815.4387 30552.1332 -51.0659 22.0723
ENERGY: 1200000 5.6591 8.0368 3.1625 0.0000 -10669.0603 1428.7706 0.0000 0.0000 1746.1342 -7477.2971 297.5600 -9223.4313 -7489.3656 299.7384 -147.7798 -94.8988 30435.8429 -167.3843 -102.2029
ENERGY: 1500000 1.0379 6.7265 3.6515 0.0000 -10656.0948 1435.1519 0.0000 0.0000 1764.2323 -7445.2948 300.6441 -9209.5271 -7488.0339 299.6863 116.7489 210.1952 30035.4419 -182.3345 -111.4771
TCL: Running FEP window   6: Lambda1 0.25   Lambda2 0.3    [dLambda 0.04999999999999999]
TCL: Setting parameter firsttimestep to 0
TCL: Setting parameter alchLambda to 0.25
Info: NONBONDED TABLE R-SQUARED SPACING: 0.0625
Info: NONBONDED TABLE SIZE: 705 POINTS
TCL: Setting parameter alchLambda2 to 0.3
Info: NONBONDED TABLE R-SQUARED SPACING: 0.0625
Info: NONBONDED TABLE SIZE: 705 POINTS
TCL: Running for 1500000 steps
ETITLE: TS BOND ANGLE DIHED IMPRP ELECT VDW BOUNDARY MISC KINETIC TOTAL TEMP POTENTIAL TOTALAVG TEMPAVG PRESSURE GPRESSURE VOLUME PRESSAVG GPRESSAVG
ENERGY: 0 1.0379 6.7265 3.6515 0.0000 -10656.0927 1435.0008 0.0000 0.0000 1763.3463 -7446.3297 300.4931 -9209.6760 -7446.3297 300.4931 134.3595 211.6306 30035.4419 134.3595 211.6306
ENERGY: 300000 1.2305 8.2021 3.5960 0.0000 -10676.0411 1353.7374 0.0000 0.0000 1754.0778 -7555.1973 298.9137 -9309.2751 -7491.5589 296.9845 -1014.4221 -980.0615 30294.9384 -37.9718 6.9516
ENERGY: 600000 1.1855 5.7565 4.4101 0.0000 -10722.0386 1432.0809 0.0000 0.0000 1767.7924 -7510.8132 301.2508 -9278.6056 -7500.5232 298.3063 -286.4809 -163.0053 30241.4353 -110.2179 -38.3901
ENERGY: 900000 2.4978 5.9708 5.2881 0.0000 -10789.5142 1521.2276 0.0000 0.0000 1773.6406 -7480.8893 302.2474 -9254.5299 -7488.7424 299.5383 438.8463 484.0818 30396.0463 -7.5637 58.6955
ENERGY: 1200000 0.8714 5.0588 2.4780 0.0000 -10790.8232 1506.9479 0.0000 0.0000 1780.8409 -7494.6262 303.4744 -9275.4671 -7490.5428 299.4599 790.1506 847.6339 29509.9952 21.3657 86.1953
ENERGY: 1500000 1.0102 6.6607 2.8830 0.0000 -10655.3428 1479.6960 0.0000 0.0000 1780.0667 -7385.0260 303.3425 -9165.0928 -7482.8898 299.4112 270.2833 378.9895 30379.1573 -8.0261 59.2431
TCL: Running FEP window   7: Lambda1 0.3    Lambda2 0.35   [dLambda 0.04999999999999999]
TCL: Setting parameter firsttimestep to 0
TCL: Setting parameter alchLambda to 0.3
Info: NONBONDED TABLE R-SQUARED SPACING: 0.0625
Info: NONBONDED TABLE SIZE: 705 POINTS
TCL: Setting parameter alchLambda2 to 0.35
Info: NONBONDED TABLE R-SQUARED SPACING: 0.0625
Info: NONBONDED TABLE SIZE: 705 POINTS
TCL: Running for 1500000 steps
ETITLE: TS BOND ANGLE DIHED IMPRP ELECT VDW BOUNDARY MISC KINETIC TOTAL TEMP POTENTIAL TOTALAVG TEMPAVG PRESSURE GPRESSURE VOLUME PRESSAVG GPRESSAVG
ENERGY: 0 1.0102 6.6607 2.8830 0.0000 -10655.3419 1480.0418 0.0000 0.0000 1779.1903 -7385.5558 303.1931 -9164.7462 -7385.5558 303.1931 305.3907 387.0134 30379.1573 305.3907 387.0134
ENERGY: 300000 1.7683 11.9169 4.3076 0.0000 -10851.7851 1526.0633 0.0000 0.0000 1795.4586 -7512.2704 305.9654 -9307.7290 -7474.1643 302.7542 615.9428 759.7080 29930.5617 196.1918 280.7372
ENERGY: 600000 2.8321 5.4541 2.2014 0.0000 -10701.4815 1465.7121 0.0000 0.0000 1765.1828 -7460.0991 300.8061 -9225.2818 -7490.3081 299.6101 129.7604 196.4100 30368.1543 142.5787 211.0086
ENERGY: 900000 0.7597 9.7237 4.1114 0.0000 -10565.1760 1398.8359 0.0000 0.0000 1738.7321 -7413.0133 296.2986 -9151.7454 -7474.6259 300.1611 -422.9409 -315.2496 30719.0309 121.9386 197.0031
ENERGY: 1200000 0.8466 7.8876 3.3594 0.0000 -10619.6474 1405.9592 0.0000 0.0000 1807.6329 -7393.9617 308.0400 -9201.5946 -7471.6127 300.1789 -159.0131 2.6665 30139.8081 67.3752 148.2939
ENERGY: 1500000 0.6546 6.3991 5.4655 0.0000 -10619.5857 1398.4261 0.0000 0.0000 1735.5798 -7473.0605 295.7614 -9208.6403 -7464.1807 300.6082 -75.1969 -19.0459 29788.6429 82.2727 156.3923
TCL: Running FEP window   8: Lambda1 0.35   Lambda2 0.39999999999999997 [dLambda 0.04999999999999999]
TCL: Setting parameter firsttimestep to 0
TCL: Setting parameter alchLambda to 0.35
Info: NONBONDED TABLE R-SQUARED SPACING: 0.0625
Info: NONBONDED TABLE SIZE: 705 POINTS
TCL: Setting parameter alchLambda2 to 0.39999999999999997
Info: NONBONDED TABLE R-SQUARED SPACING: 0.0625
Info: NONBONDED TABLE SIZE: 705 POINTS
TCL: Running for 1500000 steps
ETITLE: TS BOND ANGLE DIHED IMPRP ELECT VDW BOUNDARY MISC KINETIC TOTAL TEMP POTENTIAL TOTALAVG TEMPAVG PRESSURE GPRESSURE VOLUME PRESSAVG GPRESSAVG
ENERGY: 0 0.6546 6.3991 5.4655 0.0000 -10619.5840 1398.1635 0.0000 0.0000 1734.7425 -7474.1587 295.6187 -9208.9013 -7474.1587 295.6187 -110.4166 -18.0893 29788.6429 -110.4166 -18.0893
ENERGY: 300000 0.7528 7.9911 2.6081 0.0000 -10577.9250 1357.2287 0.0000 0.0000 1849.8524 -7359.4919 315.2347 -9209.3443 -7484.1506 301.9469 -600.5543 -522.3599 30410.5282 191.7430 250.2336
ENERGY: 600000 0.8963 6.6530 1.9054 0.0000 -10800.8997 1473.3215 0.0000 0.0000 1764.5222 -7553.6013 300.6935 -9318.1235 -7497.0547 302.7536 291.9427 325.4378 29773.5290 174.1951 233.7854
ENERGY: 900000 1.6868 4.9409 3.9698 0.0000 -10666.8192 1471.1000 0.0000 0.0000 1710.6587 -7474.4631 291.5146 -9185.1218 -7495.4413 302.8033 328.8700 363.6622 30309.5682 189.1179 246.5831
ENERGY: 1200000 1.1161 7.5794 3.0041 0.0000 -10637.5483 1368.5684 0.0000 0.0000 1775.9355 -7481.3448 302.6385 -9257.2803 -7488.6451 302.6861 -542.4536 -554.8835 30419.9074 54.1509 108.3035
ENERGY: 1500000 1.0578 9.5906 4.6910 0.0000 -10745.9931 1441.4783 0.0000 0.0000 1759.9226 -7529.2528 299.9097 -9289.1754 -7490.9772 302.3817 120.5761 171.9348 29694.8378 -17.2307 38.9080
TCL: Running FEP window   9: Lambda1 0.39999999999999997 Lambda2 0.44999999999999996 [dLambda 0.04999999999999999]
TCL: Setting parameter firsttimestep to 0
TCL: Setting parameter alchLambda to 0.39999999999999997
Info: NONBONDED TABLE R-SQUARED SPACING: 0.0625
Info: NONBONDED TABLE SIZE: 705 POINTS
TCL: Setting parameter alchLambda2 to 0.44999999999999996
Info: NONBONDED TABLE R-SQUARED SPACING: 0.0625
Info: NONBONDED TABLE SIZE: 705 POINTS
TCL: Running for 1500000 steps
ETITLE: TS BOND ANGLE DIHED IMPRP ELECT VDW BOUNDARY MISC KINETIC TOTAL TEMP POTENTIAL TOTALAVG TEMPAVG PRESSURE GPRESSURE VOLUME PRESSAVG GPRESSAVG
ENERGY: 0 1.0578 9.5906 4.6910 0.0000 -10745.9944 1441.6204 0.0000 0.0000 1759.0611 -7529.9735 299.7629 -9289.0346 -7529.9735 299.7629 92.7949 178.5322 29694.8378 92.7949 178.5322
ENERGY: 300000 1.2583 5.9995 3.2150 0.0000 -10636.4933 1417.0646 0.0000 0.0000 1806.8364 -7402.1194 307.9043 -9208.9558 -7503.8712 297.9645 -213.1778 -136.0895 30573.1536 -2.7747 96.1921
ENERGY: 600000 3.7032 6.4572 3.5336 0.0000 -10714.5682 1481.8009 0.0000 0.0000 1740.1453 -7478.9280 296.5394 -9219.0732 -7474.9572 300.7566 386.2925 404.9198 30064.5710 323.4430 388.4714
ENERGY: 900000 1.2975 7.7130 3.2161 0.0000 -10655.1465 1364.1136 0.0000 0.0000 1809.6069 -7469.1996 308.3764 -9278.8064 -7458.5050 302.9461 -619.6581 -615.0678 30207.6776 210.5527 270.7872
ENERGY: 1200000 0.5264 7.2680 5.6918 0.0000 -10836.6986 1554.8939 0.0000 0.0000 1763.1834 -7505.1352 300.4654 -9268.3185 -7471.5627 301.8510 828.1257 887.5395 30169.6572 114.7799 172.1360
ENERGY: 1500000 2.3678 6.2137 2.5202 0.0000 -10726.5123 1439.1206 0.0000 0.0000 1767.8507 -7508.4393 301.2607 -9276.2900 -7472.8795 301.4276 -234.6554 -181.0621 30441.6504 128.1571 190.3029
TCL: Running FEP window  10: Lambda1 0.44999999999999996 Lambda2 0.49999999999999994 [dLambda 0.04999999999999999]
TCL: Setting parameter firsttimestep to 0
TCL: Setting parameter alchLambda to 0.44999999999999996
Info: NONBONDED TABLE R-SQUARED SPACING: 0.0625
Info: NONBONDED TABLE SIZE: 705 POINTS
TCL: Setting parameter alchLambda2 to 0.49999999999999994
Info: NONBONDED TABLE R-SQUARED SPACING: 0.0625
Info: NONBONDED TABLE SIZE: 705 POINTS
TCL: Running for 1500000 steps
ETITLE: TS BOND ANGLE DIHED IMPRP ELECT VDW BOUNDARY MISC KINETIC TOTAL TEMP POTENTIAL TOTALAVG TEMPAVG PRESSURE GPRESSURE VOLUME PRESSAVG GPRESSAVG
ENERGY: 0 2.3678 6.2137 2.5202 0.0000 -10726.5134 1439.1127 0.0000 0.0000 1766.9945 -7509.3045 301.1148 -9276.2989 -7509.3045 301.1148 -258.7912 -176.0949 30441.6504 -258.7912 -176.0949
ENERGY: 300000 1.0405 4.4987 3.2668 0.0000 -10754.2566 1438.3376 0.0000 0.0000 1787.3057 -7519.8072 304.5761 -9307.1129 -7489.4420 305.5531 -199.5747 -128.7045 29998.1227 -358.0779 -284.2495
ENERGY: 600000 1.6638 7.3033 3.6018 0.0000 -10689.1177 1467.3530 0.0000 0.0000 1708.3467 -7500.8492 291.1206 -9209.1959 -7476.1913 303.2815 166.2901 180.7797 30562.4479 -210.1061 -152.7902
ENERGY: 900000 1.1776 7.5177 3.9801 0.0000 -10777.8548 1502.2265 0.0000 0.0000 1723.5879 -7539.3649 293.7179 -9262.9528 -7476.6288 301.8526 535.2120 535.2176 30008.7300 -154.4694 -98.9993
ENERGY: 1200000 1.6109 4.6293 3.2497 0.0000 -10724.5047 1468.9948 0.0000 0.0000 1774.3777 -7471.6423 302.3730 -9246.0200 -7481.2909 301.0109 244.4923 262.9713 30217.4396 -229.6774 -171.9097
ENERGY: 1500000 2.7443 8.0153 3.2914 0.0000 -10728.9437 1461.8042 0.0000 0.0000 1720.9370 -7532.1515 293.2661 -9253.0885 -7490.1893 300.5306 -88.6779 -21.4203 30439.6458 -179.3897 -121.0057
TCL: Running FEP window  11: Lambda1 0.49999999999999994 Lambda2 0.5499999999999999 [dLambda 0.04999999999999999]
TCL: Setting parameter firsttimestep to 0
TCL: Setting parameter alchLambda to 0.49999999999999994
Info: NONBONDED TABLE R-SQUARED SPACING: 0.0625
Info: NONBONDED TABLE SIZE: 705 POINTS
TCL: Setting parameter alchLambda2 to 0.5499999999999999
Info: NONBONDED TABLE R-SQUARED SPACING: 0.0625
Info: NONBONDED TABLE SIZE: 705 POINTS
TCL: Running for 1500000 steps
ETITLE: TS BOND ANGLE DIHED IMPRP ELECT VDW BOUNDARY MISC KINETIC TOTAL TEMP POTENTIAL TOTALAVG TEMPAVG PRESSURE GPRESSURE VOLUME PRESSAVG GPRESSAVG
ENERGY: 0 2.7443 8.0153 3.2914 0.0000 -10728.9434 1461.9138 0.0000 0.0000 1720.0415 -7532.9371 293.1135 -9252.9786 -7532.9371 293.1135 -103.4412 -16.5184 30439.6458 -103.4412 -16.5184
ENERGY: 300000 0.3442 8.9283 3.8416 0.0000 -10597.6999 1333.5866 0.0000 0.0000 1729.4821 -7521.5170 294.7223 -9250.9991 -7500.7028 297.5294 -960.9787 -896.1734 30485.0408 -391.3557 -307.8251
ENERGY: 600000 2.2723 10.2591 3.7649 0.0000 -10771.2690 1472.4985 0.0000 0.0000 1788.8552 -7493.6188 304.8401 -9282.4740 -7489.4137 298.2869 75.6202 102.9341 30340.5558 -448.0520 -381.9226
ENERGY: 900000 0.3841 10.8255 4.7848 0.0000 -10752.4276 1488.2412 0.0000 0.0000 1732.4459 -7515.7461 295.2274 -9248.1920 -7489.0791 298.4310 477.5995 554.6313 30256.9514 -178.9687 -116.2388
ENERGY: 1200000 1.5258 6.4378 3.7935 0.0000 -10868.7806 1528.2455 0.0000 0.0000 1803.9635 -7524.8145 307.4147 -9328.7781 -7487.1232 300.0253 304.1485 475.3659 30468.9303 -26.4052 42.1183
ENERGY: 1500000 3.4129 2.3217 3.2879 0.0000 -10645.0686 1434.9502 0.0000 0.0000 1797.5667 -7403.5291 306.3247 -9201.0958 -7493.7428 299.9002 392.7513 342.4604 30075.5792 -36.9845 25.0494
TCL: Running FEP window  12: Lambda1 0.5499999999999999 Lambda2 0.6    [dLambda 0.050000000000000044]
TCL: Setting parameter firsttimestep to 0
TCL: Setting parameter alchLambda to 0.5499999999999999
Info: NONBONDED TABLE R-SQUARED SPACING: 0.0625
Info: NONBONDED TABLE SIZE: 705 POINTS
TCL: Setting parameter alchLambda2 to 0.6
Info: NONBONDED TABLE R-SQUARED SPACING: 0.0625
Info: NONBONDED TABLE SIZE: 705 POINTS
TCL: Running for 1500000 steps
ETITLE: TS BOND ANGLE DIHED IMPRP ELECT VDW BOUNDARY MISC KINETIC TOTAL TEMP POTENTIAL TOTALAVG TEMPAVG PRESSURE GPRESSURE VOLUME PRESSAVG GPRESSAVG
ENERGY: 0 3.4129 2.3217 3.2879 0.0000 -10644.7403 1436.0048 0.0000 0.0000 1796.6789 -7403.0341 306.1734 -9199.7130 -7403.0341 306.1734 276.8182 356.0480 30075.5792 276.8182 356.0480
ENERGY: 300000 1.7363 6.8148 3.5125 0.0000 -10677.6917 1406.0661 0.0000 0.0000 1728.4071 -7531.1550 294.5391 -9259.5620 -7462.7137 300.4756 -451.1418 -437.9981 30659.4918 128.4741 192.5885
ENERGY: 600000 2.2956 8.1228 3.8781 0.0000 -10829.7988 1534.0027 0.0000 0.0000 1752.8855 -7528.6141 298.7105 -9281.4996 -7485.7351 299.2104 473.9529 566.6601 30288.2722 71.2555 150.5095
ENERGY: 900000 1.0669 8.1063 2.2218 0.0000 -10785.2726 1510.3332 0.0000 0.0000 1761.0777 -7502.4666 300.1065 -9263.5443 -7481.7092 299.9446 701.7664 739.8042 30041.6110 209.6067 292.8827
ENERGY: 1200000 1.2970 7.8270 2.6870 0.0000 -10690.3340 1432.6781 0.0000 0.0000 1796.8571 -7448.9878 306.2037 -9245.8449 -7481.1305 301.1573 -14.9250 41.8044 30445.5263 163.4589 239.8464
ENERGY: 1500000 2.8373 6.0101 4.0019 0.0000 -10797.9850 1506.7449 0.0000 0.0000 1716.8286 -7561.5622 292.5660 -9278.3907 -7493.4786 300.2848 379.9331 416.5308 30230.2139 179.7417 249.8176
TCL: Running FEP window  13: Lambda1 0.6    Lambda2 0.65   [dLambda 0.050000000000000044]
TCL: Setting parameter firsttimestep to 0
TCL: Setting parameter alchLambda to 0.6
Info: NONBONDED TABLE R-SQUARED SPACING: 0.0625
Info: NONBONDED TABLE SIZE: 705 POINTS
TCL: Setting parameter alchLambda2 to 0.65
Info: NONBONDED TABLE R-SQUARED SPACING: 0.0625
Info: NONBONDED TABLE SIZE: 705 POINTS
TCL: Running for 1500000 steps
ETITLE: TS BOND ANGLE DIHED IMPRP ELECT VDW BOUNDARY MISC KINETIC TOTAL TEMP POTENTIAL TOTALAVG TEMPAVG PRESSURE GPRESSURE VOLUME PRESSAVG GPRESSAVG
ENERGY: 0 2.8373 6.0101 4.0019 0.0000 -10797.9626 1506.5742 0.0000 0.0000 1715.9445 -7562.5945 292.4154 -9278.5390 -7562.5945 292.4154 336.1368 420.2371 30230.2139 336.1368 420.2371
ENERGY: 300000 2.3299 5.8334 2.9991 0.0000 -10678.3852 1374.9933 0.0000 0.0000 1725.3668 -7566.8627 294.0210 -9292.2295 -7520.3529 295.9013 -518.8914 -498.6184 29992.5561 -347.8568 -276.7655
ENERGY: 600000 1.8078 8.2925 2.8895 0.0000 -10783.4603 1499.4887 0.0000 0.0000 1722.5663 -7548.4154 293.5438 -9270.9817 -7500.3516 297.3710 -12.9033 55.0502 30886.6841 -217.8833 -139.8637
ENERGY: 900000 1.9490 9.8972 1.8328 0.0000 -10650.9845 1465.2697 0.0000 0.0000 1773.8773 -7398.1585 302.2877 -9172.0357 -7491.0806 297.3768 410.1850 514.8934 30348.8006 -246.0722 -168.6279
ENERGY: 1200000 2.8499 7.1592 3.7333 0.0000 -10706.8841 1429.9252 0.0000 0.0000 1718.1869 -7545.0297 292.7975 -9263.2165 -7490.6255 298.0547 -111.3192 -24.9162 29993.9044 -179.0289 -103.8816
ENERGY: 1500000 1.0828 9.3626 4.5474 0.0000 -10756.0676 1479.1520 0.0000 0.0000 1772.2386 -7489.6842 302.0085 -9261.9228 -7494.8676 297.9637 467.9679 463.1931 29973.8152 -130.0535 -66.8357
TCL: Running FEP window  14: Lambda1 0.65   Lambda2 0.7000000000000001 [dLambda 0.050000000000000044]
TCL: Setting parameter firsttimestep to 0
TCL: Setting parameter alchLambda to 0.65
Info: NONBONDED TABLE R-SQUARED SPACING: 0.0625
Info: NONBONDED TABLE SIZE: 705 POINTS
TCL: Setting parameter alchLambda2 to 0.7000000000000001
Info: NONBONDED TABLE R-SQUARED SPACING: 0.0625
Info: NONBONDED TABLE SIZE: 705 POINTS
TCL: Running for 1500000 steps
ETITLE: TS BOND ANGLE DIHED IMPRP ELECT VDW BOUNDARY MISC KINETIC TOTAL TEMP POTENTIAL TOTALAVG TEMPAVG PRESSURE GPRESSURE VOLUME PRESSAVG GPRESSAVG
ENERGY: 0 1.0828 9.3626 4.5474 0.0000 -10755.8828 1479.1362 0.0000 0.0000 1771.3720 -7490.3819 301.8608 -9261.7539 -7490.3819 301.8608 398.6150 471.0555 29973.8152 398.6150 471.0555
ENERGY: 300000 2.2973 3.6231 1.8671 0.0000 -10503.8775 1371.8002 0.0000 0.0000 1813.6041 -7310.6856 309.0576 -9124.2898 -7411.2487 303.1570 -363.8718 -332.6713 30851.0860 -283.5380 -205.8715
ENERGY: 600000 2.4570 6.7968 3.8353 0.0000 -10644.4762 1384.8957 0.0000 0.0000 1759.7824 -7486.7089 299.8858 -9246.4913 -7435.7155 301.6808 -198.3386 -133.5633 30079.7799 40.4429 119.5637
ENERGY: 900000 2.6334 6.9156 3.2661 0.0000 -10768.2687 1431.9375 0.0000 0.0000 1797.0992 -7526.4168 306.2450 -9323.5160 -7459.2317 301.0544 -304.5981 -224.9903 30043.1706 61.2116 142.8626
ENERGY: 1200000 2.5644 5.3233 3.1988 0.0000 -10673.0186 1421.0051 0.0000 0.0000 1770.4991 -7470.4280 301.7120 -9240.9271 -7464.1068 301.3370 -59.9323 -58.8571 30255.5920 19.2266 91.9820
ENERGY: 1500000 0.5857 6.2481 4.1217 0.0000 -10733.4533 1455.5647 0.0000 0.0000 1710.5449 -7556.3882 291.4952 -9266.9331 -7472.9943 300.6131 17.5127 77.5710 30053.4717 -28.5679 46.0169
TCL: Running FEP window  15: Lambda1 0.7000000000000001 Lambda2 0.7500000000000001 [dLambda 0.050000000000000044]
TCL: Setting parameter firsttimestep to 0
TCL: Setting parameter alchLambda to 0.7000000000000001
Info: NONBONDED TABLE R-SQUARED SPACING: 0.0625
Info: NONBONDED TABLE SIZE: 705 POINTS
TCL: Setting parameter alchLambda2 to 0.7500000000000001
Info: NONBONDED TABLE R-SQUARED SPACING: 0.0625
Info: NONBONDED TABLE SIZE: 705 POINTS
TCL: Running for 1500000 steps
ETITLE: TS BOND ANGLE DIHED IMPRP ELECT VDW BOUNDARY MISC KINETIC TOTAL TEMP POTENTIAL TOTALAVG TEMPAVG PRESSURE GPRESSURE VOLUME PRESSAVG GPRESSAVG
ENERGY: 0 0.5857 6.2481 4.1217 0.0000 -10734.1501 1455.0512 0.0000 0.0000 1709.6753 -7558.4681 291.3470 -9268.1434 -7558.4681 291.3470 -12.0858 76.9841 30053.4717 -12.0858 76.9841
ENERGY: 300000 0.7568 8.9680 3.2519 0.0000 -10692.4626 1427.2098 0.0000 0.0000 1792.6694 -7459.6067 305.4901 -9252.2761 -7486.7876 302.0384 -199.8307 -119.3398 30610.8837 113.0757 168.4112
ENERGY: 600000 0.9254 6.0043 3.1216 0.0000 -10587.3868 1381.6787 0.0000 0.0000 1727.9870 -7467.6697 294.4675 -9195.6568 -7464.4192 302.0585 -544.1968 -462.3548 30736.0548 -102.5653 -34.8148
ENERGY: 900000 1.7827 5.8324 2.5853 0.0000 -10641.1269 1405.0800 0.0000 0.0000 1761.1569 -7464.6895 300.1200 -9225.8464 -7467.2348 302.5439 -319.5559 -245.4091 30685.7749 -232.3344 -165.7391
ENERGY: 1200000 1.8480 3.6908 3.2492 0.0000 -10595.0272 1333.5854 0.0000 0.0000 1772.2889 -7480.3649 302.0170 -9252.6537 -7464.4725 301.6415 -609.7007 -511.5936 29944.9788 -296.8529 -231.7869
ENERGY: 1500000 1.2142 9.9609 3.6330 0.0000 -10714.0074 1456.3816 0.0000 0.0000 1750.8216 -7491.9960 298.3588 -9242.8176 -7467.1134 301.7377 107.4329 145.3987 30533.9608 -248.2916 -184.1518
TCL: Running FEP window  16: Lambda1 0.7500000000000001 Lambda2 0.8000000000000002 [dLambda 0.050000000000000044]
TCL: Setting parameter firsttimestep to 0
TCL: Setting parameter alchLambda to 0.7500000000000001
Info: NONBONDED TABLE R-SQUARED SPACING: 0.0625
Info: NONBONDED TABLE SIZE: 705 POINTS
TCL: Setting parameter alchLambda2 to 0.8000000000000002
Info: NONBONDED TABLE R-SQUARED SPACING: 0.0625
Info: NONBONDED TABLE SIZE: 705 POINTS
TCL: Running for 1500000 steps
ETITLE: TS BOND ANGLE DIHED IMPRP ELECT VDW BOUNDARY MISC KINETIC TOTAL TEMP POTENTIAL TOTALAVG TEMPAVG PRESSURE GPRESSURE VOLUME PRESSAVG GPRESSAVG
ENERGY: 0 1.2142 9.9609 3.6330 0.0000 -10714.5553 1456.2956 0.0000 0.0000 1749.9461 -7493.5055 298.2096 -9243.4516 -7493.5055 298.2096 56.1613 151.8046 30533.9608 56.1613 151.8046
ENERGY: 300000 0.6905 4.2840 3.0299 0.0000 -10717.0183 1516.0087 0.0000 0.0000 1701.8632 -7491.1420 290.0157 -9193.0052 -7503.4049 294.1453 595.1521 615.8769 30580.1824 -59.1835 1.4390
ENERGY: 600000 1.4290 6.9012 1.9329 0.0000 -10612.4567 1342.3367 0.0000 0.0000 1738.3138 -7521.5431 296.2273 -9259.8569 -7477.6580 297.1916 -791.1391 -766.1322 30613.5700 4.9233 56.2857
ENERGY: 900000 2.7473 5.3050 3.1660 0.0000 -10791.9503 1460.4278 0.0000 0.0000 1733.6041 -7586.7001 295.4247 -9320.3042 -7485.1628 297.8433 -85.1121 -29.0671 30303.6437 -50.0188 -5.0201
ENERGY: 1200000 0.4686 14.0567 3.3751 0.0000 -10692.4327 1370.6754 0.0000 0.0000 1784.0340 -7519.8229 304.0185 -9303.8568 -7485.0367 298.4719 -844.1682 -777.4070 30303.4138 -53.0732 -8.6626
ENERGY: 1500000 0.7934 9.9808 3.2598 0.0000 -10550.5087 1371.8288 0.0000 0.0000 1801.1525 -7363.4935 306.9357 -9164.6460 -7475.8026 299.7843 -478.8460 -457.6704 31049.6279 -84.5323 -40.3220
TCL: Running FEP window  17: Lambda1 0.8000000000000002 Lambda2 0.8500000000000002 [dLambda 0.050000000000000044]
TCL: Setting parameter firsttimestep to 0
TCL: Setting parameter alchLambda to 0.8000000000000002
Info: NONBONDED TABLE R-SQUARED SPACING: 0.0625
Info: NONBONDED TABLE SIZE: 705 POINTS
TCL: Setting parameter alchLambda2 to 0.8500000000000002
Info: NONBONDED TABLE R-SQUARED SPACING: 0.0625
Info: NONBONDED TABLE SIZE: 705 POINTS
TCL: Running for 1500000 steps
ETITLE: TS BOND ANGLE DIHED IMPRP ELECT VDW BOUNDARY MISC KINETIC TOTAL TEMP POTENTIAL TOTALAVG TEMPAVG PRESSURE GPRESSURE VOLUME PRESSAVG GPRESSAVG
ENERGY: 0 0.7934 9.9808 3.2598 0.0000 -10551.4493 1371.5732 0.0000 0.0000 1800.2849 -7365.5573 306.7879 -9165.8421 -7365.5573 306.7879 -533.7672 -452.3276 31049.6279 -533.7672 -452.3276
ENERGY: 300000 3.3726 9.9781 2.0816 0.0000 -10595.9872 1400.8084 0.0000 0.0000 1836.4406 -7343.3060 312.9492 -9179.7466 -7395.3847 308.2719 -280.9592 -202.2760 30664.3562 -212.6363 -150.8297
ENERGY: 600000 0.9376 11.7045 3.4571 0.0000 -10660.9832 1418.0541 0.0000 0.0000 1745.6413 -7481.1886 297.4760 -9226.8299 -7431.5482 303.4797 -159.6505 -202.0144 30670.8089 -115.0159 -63.5527
ENERGY: 900000 1.7314 8.0139 3.6084 0.0000 -10627.7281 1333.2315 0.0000 0.0000 1732.8368 -7548.3061 295.2940 -9281.1429 -7456.0216 301.8385 -926.2189 -913.1118 30697.8756 -225.5566 -176.4365
ENERGY: 1200000 0.6021 6.3001 4.5017 0.0000 -10720.3490 1522.1618 0.0000 0.0000 1761.7557 -7425.0276 300.2221 -9186.7832 -7453.7989 301.8444 771.1291 822.5652 30648.7842 -165.3890 -116.8958
ENERGY: 1500000 0.7776 10.9071 3.6281 0.0000 -10660.0544 1418.2625 0.0000 0.0000 1768.4462 -7458.0330 301.3622 -9226.4792 -7470.1397 301.2141 -393.3182 -329.5864 30667.8326 -129.6599 -77.9887
TCL: Running FEP window  18: Lambda1 0.8500000000000002 Lambda2 0.9000000000000002 [dLambda 0.050000000000000044]
TCL: Setting parameter firsttimestep to 0
TCL: Setting parameter alchLambda to 0.8500000000000002
Info: NONBONDED TABLE R-SQUARED SPACING: 0.0625
Info: NONBONDED TABLE SIZE: 705 POINTS
TCL: Setting parameter alchLambda2 to 0.9000000000000002
Info: NONBONDED TABLE R-SQUARED SPACING: 0.0625
Info: NONBONDED TABLE SIZE: 705 POINTS
TCL: Running for 1500000 steps
ETITLE: TS BOND ANGLE DIHED IMPRP ELECT VDW BOUNDARY MISC KINETIC TOTAL TEMP POTENTIAL TOTALAVG TEMPAVG PRESSURE GPRESSURE VOLUME PRESSAVG GPRESSAVG
ENERGY: 0 0.7776 10.9071 3.6281 0.0000 -10661.8303 1419.5326 0.0000 0.0000 1767.5456 -7459.4393 301.2087 -9226.9849 -7459.4393 301.2087 -398.4283 -308.8252 30667.8326 -398.4283 -308.8252
ENERGY: 300000 1.0444 3.7349 3.6774 0.0000 -10567.1689 1380.3924 0.0000 0.0000 1727.7766 -7450.5432 294.4317 -9178.3198 -7525.0742 294.2721 -142.6754 -54.2632 30242.6734 -176.6471 -98.8904
ENERGY: 600000 1.1231 9.5804 2.2368 0.0000 -10700.2709 1456.9282 0.0000 0.0000 1760.9490 -7469.4533 300.0846 -9230.4023 -7492.9992 300.6351 294.2453 356.0686 30117.8001 -55.5049 18.7331
ENERGY: 900000 2.2286 8.2540 2.1401 0.0000 -10705.4326 1458.2154 0.0000 0.0000 1802.3275 -7432.2670 307.1359 -9234.5945 -7483.8956 302.3301 -66.8685 30.4679 30573.7842 -89.0315 -16.7297
ENERGY: 1200000 1.2862 4.5237 4.1739 0.0000 -10705.9358 1445.2967 0.0000 0.0000 1745.7897 -7504.8657 297.5013 -9250.6554 -7496.4731 300.3077 -201.4029 -153.0849 30816.9193 -83.8414 -20.9809
ENERGY: 1500000 1.9588 5.1488 3.6227 0.0000 -10765.4121 1478.0761 0.0000 0.0000 1696.2335 -7580.3722 289.0564 -9276.6057 -7506.7611 299.2003 97.3133 165.2560 30439.1057 2.0208 61.5941
TCL: Running FEP window  19: Lambda1 0.9000000000000002 Lambda2 0.9500000000000003 [dLambda 0.050000000000000044]
TCL: Setting parameter firsttimestep to 0
TCL: Setting parameter alchLambda to 0.9000000000000002
Info: NONBONDED TABLE R-SQUARED SPACING: 0.0625
Info: NONBONDED TABLE SIZE: 705 POINTS
TCL: Setting parameter alchLambda2 to 0.9500000000000003
Info: NONBONDED TABLE R-SQUARED SPACING: 0.0625
Info: NONBONDED TABLE SIZE: 705 POINTS
TCL: Running for 1500000 steps
ETITLE: TS BOND ANGLE DIHED IMPRP ELECT VDW BOUNDARY MISC KINETIC TOTAL TEMP POTENTIAL TOTALAVG TEMPAVG PRESSURE GPRESSURE VOLUME PRESSAVG GPRESSAVG
ENERGY: 0 1.9588 5.1488 3.6227 0.0000 -10766.5124 1477.6893 0.0000 0.0000 1695.3597 -7582.7332 288.9075 -9278.0928 -7582.7332 288.9075 91.4625 167.4443 30439.1057 91.4625 167.4443
ENERGY: 300000 1.0994 7.5001 3.6798 0.0000 -10714.6012 1406.2175 0.0000 0.0000 1774.1380 -7521.9665 302.3322 -9296.1045 -7495.6957 300.1218 -412.2294 -371.0187 30559.0148 -129.3891 -78.5352
ENERGY: 600000 0.0751 4.9976 3.5444 0.0000 -10801.8876 1513.6555 0.0000 0.0000 1754.2561 -7525.3589 298.9441 -9279.6150 -7502.6491 300.0951 516.8025 607.8887 30527.5439 -97.5873 -37.0908
ENERGY: 900000 2.0463 8.9898 2.7363 0.0000 -10640.1646 1409.9482 0.0000 0.0000 1767.4230 -7449.0209 301.1879 -9216.4440 -7494.7614 299.6968 87.6469 103.6130 29987.8149 -123.7039 -52.5017
ENERGY: 1200000 1.6940 10.6596 2.4818 0.0000 -10696.5931 1498.6684 0.0000 0.0000 1721.2947 -7461.7948 293.3271 -9183.0895 -7492.5135 299.7943 518.1182 584.3637 30532.8119 -63.1871 5.0662
ENERGY: 1500000 1.5619 7.9522 2.2374 0.0000 -10666.8717 1418.0173 0.0000 0.0000 1778.7768 -7458.3261 303.1227 -9237.1030 -7495.6180 298.5693 -306.7460 -248.4207 30737.9165 -92.9374 -29.2045
TCL: Running FEP window  20: Lambda1 0.9500000000000003 Lambda2 1.0    [dLambda 0.04999999999999971]
TCL: Setting parameter firsttimestep to 0
TCL: Setting parameter alchLambda to 0.9500000000000003
Info: NONBONDED TABLE R-SQUARED SPACING: 0.0625
Info: NONBONDED TABLE SIZE: 705 POINTS
TCL: Setting parameter alchLambda2 to 1.0
Info: NONBONDED TABLE R-SQUARED SPACING: 0.0625
Info: NONBONDED TABLE SIZE: 705 POINTS
TCL: Running for 1500000 steps
ETITLE: TS BOND ANGLE DIHED IMPRP ELECT VDW BOUNDARY MISC KINETIC TOTAL TEMP POTENTIAL TOTALAVG TEMPAVG PRESSURE GPRESSURE VOLUME PRESSAVG GPRESSAVG
ENERGY: 0 1.5619 7.9522 2.2374 0.0000 -10667.8677 1419.3911 0.0000 0.0000 1777.8686 -7458.8566 302.9679 -9236.7252 -7458.8566 302.9679 -298.2902 -217.0030 30737.9165 -298.2902 -217.0030
ENERGY: 300000 3.4554 6.9678 2.5840 0.0000 -10699.2197 1413.8872 0.0000 0.0000 1770.3051 -7502.0202 301.6790 -9272.3253 -7477.7706 300.8048 -500.0132 -458.7364 31003.8523 -183.6862 -132.5826
ENERGY: 600000 1.3606 9.7918 4.4576 0.0000 -10632.4051 1380.9562 0.0000 0.0000 1768.0938 -7467.7451 301.3022 -9235.8389 -7455.1171 303.0545 -271.4508 -155.9355 30202.0028 -175.1238 -112.1963
ENERGY: 900000 3.5515 7.1194 3.6287 0.0000 -10736.8989 1467.7641 0.0000 0.0000 1786.1305 -7468.7046 304.3758 -9254.8351 -7464.7777 302.9778 246.8708 293.3946 30400.9010 -142.2436 -85.8994
ENERGY: 1200000 2.0173 6.9909 3.8177 0.0000 -10703.5261 1453.3587 0.0000 0.0000 1734.8724 -7502.4693 295.6409 -9237.3416 -7479.0277 301.3311 26.1478 137.9368 30226.3227 -147.3947 -87.5739
ENERGY: 1500000 2.5039 8.6965 2.5106 0.0000 -10575.1672 1377.0643 0.0000 0.0000 1721.8421 -7462.5499 293.4204 -9184.3920 -7475.6258 301.0804 -163.5575 -101.8714 30167.1886 -132.1755 -71.9981
TCL: Exiting due to exit command.
