Info: SIMULATION PARAMETERS:
Info: TIMESTEP               2
Info: NUMBER OF STEPS        0
Info: STEPS PER CYCLE        10
Info: PERIODIC CELL BASIS 1  30.8848 0 0
Info: PERIODIC CELL BASIS 2  0 30.1027 0
Info: PERIODIC CELL BASIS 3  0 0 33.2259
Info: PERIODIC CELL CENTER   0 0 0
Info: WRAPPING WATERS AROUND PERIODIC BOUNDARIES ON OUTPUT.
Info: WRAPPING ALL CLUSTERS AROUND PERIODIC BOUNDARIES ON OUTPUT.
Info: FIRST LDB TIMESTEP     50
Info: LAST LDB TIMESTEP     -1
Info: HOM BACKGROUND SCALING 1
Info: PME BACKGROUND SCALING 1
Info: MIN ATOMS PER PATCH    40
Info: EMPTY PATCH LOAD       40 ATOMS
Info: VELOCITY FILE          mobley_6102880_equil.vel
Info: CENTER OF MASS MOVING INITIALLY? NO
Info: DIELECTRIC             1
Info: EXCLUDE                SCALED ONE-FOUR
Info: 1-4 ELECTROSTATICS SCALED BY 0.833333
Info: MODIFIED 1-4 VDW PARAMETERS WILL BE USED
Info: DCD FILENAME           mobley_6102880_prod.dcd
Info: DCD FREQUENCY          100000
Info: DCD FIRST STEP         100000
Info: DCD FILE WILL CONTAIN UNIT CELL DATA
Info: XST FILENAME           mobley_6102880_prod.xst
Info: XST FREQUENCY          100000
Info: NO VELOCITY DCD OUTPUT
Info: NO FORCE DCD OUTPUT
Info: OUTPUT FILENAME        mobley_6102880_prod
Info: BINARY OUTPUT FILES WILL BE USED
Info: RESTART FILENAME       mobley_6102880_prod.restart
Info: RESTART FREQUENCY      100000
Info: BINARY RESTART FILES WILL BE USED
Info: CUTOFF                 9
Info: PAIRLIST DISTANCE      11
Info: PAIRLIST SHRINK RATE   0.01
Info: PAIRLIST GROW RATE     0.01
Info: PAIRLIST TRIGGER       0.3
Info: PAIRLISTS PER CYCLE    2
Info: PAIRLISTS ENABLED
Info: MARGIN                 2
Info: HYDROGEN GROUP CUTOFF  2.5
Info: PATCH DIMENSION        15.5
Info: ENERGY OUTPUT STEPS    100000
Info: ENERGY EVALUATION STEPS    100000
Info: OUTPUT ENERGY PRECISION 4
Info: CROSSTERM ENERGY INCLUDED IN DIHEDRAL
Info: TIMING OUTPUT STEPS    1000000
Info: PRESSURE OUTPUT STEPS  100000
Info: ALCHEMICAL FEP ON
Info: FEP CURRENT LAMBDA VALUE     0
Info: FEP COMPARISON LAMBDA VALUE  0.05
Info: FEP INTRA-ALCHEMICAL NON-BONDED INTERACTIONS WILL BE RETAINED
Info: FEP INTRA-ALCHEMICAL BONDED INTERACTIONS WILL BE RETAINED
Info: FEP VDW SHIFTING COEFFICIENT 5
Info: FEP ELEC. ACTIVE FOR ANNIHILATED PARTICLES BETWEEN LAMBDA = 0 AND LAMBDA = 0.5
Info: FEP ELEC. ACTIVE FOR EXNIHILATED PARTICLES BETWEEN LAMBDA = 0.5 AND LAMBDA = 1
Info: FEP VDW ACTIVE FOR ANNIHILATED PARTICLES BETWEEN LAMBDA = 0 AND LAMBDA = 1
Info: FEP VDW ACTIVE FOR EXNIHILATED PARTICLES BETWEEN LAMBDA = 0 AND LAMBDA = 1
Info: FEP BOND ACTIVE FOR ANNIHILATED PARTICLES BETWEEN LAMBDA = 1 AND LAMBDA = 1
Info: FEP BOND ACTIVE FOR EXNIHILATED PARTICLES BETWEEN LAMBDA = 0 AND LAMBDA = 0
Info: LANGEVIN DYNAMICS ACTIVE
Info: LANGEVIN TEMPERATURE   300
Info: LANGEVIN USING BBK INTEGRATOR
Info: LANGEVIN DAMPING COEFFICIENT IS 1 INVERSE PS
Info: LANGEVIN DYNAMICS APPLIED TO HYDROGENS
Info: LANGEVIN PISTON PRESSURE CONTROL ACTIVE
Info:        TARGET PRESSURE IS 1.01325 BAR
Info:     OSCILLATION PERIOD IS 50 FS
Info:             DECAY TIME IS 25 FS
Info:     PISTON TEMPERATURE IS 300 K
Info:       PRESSURE CONTROL IS GROUP-BASED
Info:    INITIAL STRAIN RATE IS -0.000158307 -0.000158307 -0.000158307
Info:       CELL FLUCTUATION IS ISOTROPIC
Info: PARTICLE MESH EWALD (PME) ACTIVE
Info: PME TOLERANCE               1e-06
Info: PME EWALD COEFFICIENT       0.348832
Info: PME INTERPOLATION ORDER     4
Info: PME GRID DIMENSIONS         32 32 36
Info: PME MAXIMUM GRID SPACING    1
Info: PME CALCULATION WILL BE PERFORMED ON GPU
Info: FULL ELECTROSTATIC EVALUATION FREQUENCY      2
Info: USING VERLET I (r-RESPA) MTS SCHEME.
Info: C1 SPLITTING OF LONG RANGE ELECTROSTATICS
Info: PLACING ATOMS IN PATCHES BY HYDROGEN GROUPS
Info: RIGID BONDS TO HYDROGEN : ALL
Info:         ERROR TOLERANCE : 1e-08
Info:          MAX ITERATIONS : 100
Info: RIGID WATER USING SETTLE ALGORITHM
Info: RANDOM NUMBER SEED     1743883359
Info: USE HYDROGEN BONDS?    NO
Info: Using AMBER format force field!
Info: AMBER PARM FILE        mobley_6102880.prmtop
Info: COORDINATE PDB         mobley_6102880.pdb
Info: Exclusions will be read from PARM file!
Info: SCNB (VDW SCALING)     2
Info: USING ARITHMETIC MEAN TO COMBINE L-J SIGMA PARAMETERS
Info: BINARY COORDINATES     mobley_6102880_equil.coor
Info: SUMMARY OF PARAMETERS:
Info: 5 BONDS
Info: 4 ANGLES
Info:   4 HARMONIC
Info:   0 COSINE-BASED
Info: 3 DIHEDRAL
Info: 0 IMPROPER
Info: 0 CROSSTERM
Info: 0 VDW
Info: 15 VDW_PAIRS
Info: 0 NBTHOLE_PAIRS
Info: To read alchdata from file: mobley_6102880.pdb
Info: To read alchflag data from column: 5
Info: STRUCTURE SUMMARY:
Info: 2999 ATOMS
Info: 3000 BONDS
Info: 37 ANGLES
Info: 64 DIHEDRALS
Info: 0 IMPROPERS
Info: 0 CROSSTERMS
Info: 3083 EXCLUSIONS
Info: 2986 RIGID BONDS
Info: ALCH: 0 ATOMS TO DISAPPEAR IN FINAL STATE
Info: ALCH: 23 ATOMS TO APPEAR IN FINAL STATE
Info: 6011 DEGREES OF FREEDOM
Info: 1005 HYDROGEN GROUPS
Info: 3 ATOMS IN LARGEST HYDROGEN GROUP
Info: 1005 MIGRATION GROUPS
Info: 3 ATOMS IN LARGEST MIGRATION GROUP
Info: TOTAL MASS = 18042.1 amu
Info: TOTAL CHARGE = 9.99272e-05 e
Info: MASS DENSITY = 0.96988 g/cm^3
Info: ATOM DENSITY = 0.0970843 atoms/A^3
Info: ADDED 0 IMPLICIT EXCLUSIONS
Info: NONBONDED TABLE R-SQUARED SPACING: 0.0625
Info: NONBONDED TABLE SIZE: 705 POINTS
Info: REMOVING COM VELOCITY -0.165699 -0.0975214 -0.229371
Info: Use 3D box decompostion in PME FFT.
Info: Updated CUDA force table with 4096 elements.
Info: Updated CUDA LJ table with 5 x 5 elements.
Info: Found 21 unique exclusion lists needing 64 bytes
TCL: Running for 1500000 steps
ETITLE: TS BOND ANGLE DIHED IMPRP ELECT VDW BOUNDARY MISC KINETIC TOTAL TEMP POTENTIAL TOTALAVG TEMPAVG PRESSURE GPRESSURE VOLUME PRESSAVG GPRESSAVG
ENERGY: 0 3.6697 5.8746 12.3452 0.0000 -10863.0550 1514.6460 0.0000 0.0000 1788.2692 -7538.2505 299.4171 -9326.5196 -7538.2505 299.4171 451.1553 542.2713 30890.6929 451.1553 542.2713
ENERGY: 300000 2.5321 6.6508 9.7328 0.0000 -10865.1501 1536.5503 0.0000 0.0000 1757.8464 -7551.8378 294.3233 -9309.6841 -7505.6468 298.0763 800.4690 823.8381 30826.7069 296.3662 355.1292
ENERGY: 600000 4.0961 12.8386 9.4394 0.0000 -10957.7216 1504.8980 0.0000 0.0000 1849.0248 -7577.4247 309.5896 -9426.4495 -7556.0206 300.2066 450.8820 478.8127 30031.2938 160.8051 209.1677
ENERGY: 900000 7.4421 7.2692 9.7927 0.0000 -10962.7437 1548.1132 0.0000 0.0000 1780.5050 -7609.6217 298.1171 -9390.1266 -7564.4789 299.6475 675.6911 775.4053 30311.4323 244.1527 301.4155
ENERGY: 1200000 5.2151 4.6308 9.3361 0.0000 -10827.6383 1442.7410 0.0000 0.0000 1797.7414 -7567.9739 301.0030 -9365.7154 -7567.6806 299.9601 -370.7082 -332.3806 30846.2194 114.5337 168.3835
ENERGY: 1500000 6.0602 3.9854 9.6319 0.0000 -10834.9119 1459.7070 0.0000 0.0000 1841.9396 -7513.5879 308.4033 -9355.5275 -7565.3854 300.1377 354.1799 424.0344 30476.9492 132.5321 192.4436
TCL: Running FEP window   2: Lambda1 0.05   Lambda2 0.1    [dLambda 0.05  ]
TCL: Setting parameter firsttimestep to 0
TCL: Setting parameter alchLambda to 0.05
Info: NONBONDED TABLE R-SQUARED SPACING: 0.0625
Info: NONBONDED TABLE SIZE: 705 POINTS
TCL: Setting parameter alchLambda2 to 0.1
Info: NONBONDED TABLE R-SQUARED SPACING: 0.0625
Info: NONBONDED TABLE SIZE: 705 POINTS
TCL: Running for 1500000 steps
ETITLE: TS BOND ANGLE DIHED IMPRP ELECT VDW BOUNDARY MISC KINETIC TOTAL TEMP POTENTIAL TOTALAVG TEMPAVG PRESSURE GPRESSURE VOLUME PRESSAVG GPRESSAVG
ENERGY: 0 6.0602 3.9854 9.6319 0.0000 -10834.9114 1463.0664 0.0000 0.0000 1841.0442 -7511.1233 308.2534 -9352.1675 -7511.1233 308.2534 347.1864 434.2218 30476.9492 347.1864 434.2218
ENERGY: 300000 9.6004 6.4411 6.6021 0.0000 -10844.1412 1494.5438 0.0000 0.0000 1747.5488 -7579.4050 292.5991 -9326.9538 -7555.6458 300.4221 -120.4435 -22.7675 30968.3491 199.7016 269.1722
ENERGY: 600000 4.8285 3.2889 9.0650 0.0000 -10852.7132 1420.8190 0.0000 0.0000 1870.5170 -7544.1948 313.1881 -9414.7118 -7545.1583 303.5286 -271.4373 -203.2296 30474.3374 -66.9910 -1.2458
ENERGY: 900000 4.5149 4.0960 10.2848 0.0000 -10887.2154 1526.6465 0.0000 0.0000 1747.6335 -7594.0397 292.6133 -9341.6733 -7554.3685 301.2206 515.9974 590.5351 30543.7935 -20.7151 39.8249
ENERGY: 1200000 4.9213 6.7884 9.1257 0.0000 -10758.4866 1372.7832 0.0000 0.0000 1817.5759 -7547.2920 304.3240 -9364.8679 -7567.7010 301.3850 -847.8904 -727.6945 30445.0024 -52.8082 18.3957
ENERGY: 1500000 6.8540 4.7295 6.5089 0.0000 -10960.4888 1495.0692 0.0000 0.0000 1797.9841 -7649.3431 301.0437 -9447.3272 -7570.2747 301.5323 309.6581 343.5293 29974.7909 -37.6229 31.7891
TCL: Running FEP window   3: Lambda1 0.1    Lambda2 0.15000000000000002 [dLambda 0.05000000000000002]
TCL: Setting parameter firsttimestep to 0
TCL: Setting parameter alchLambda to 0.1
Info: NONBONDED TABLE R-SQUARED SPACING: 0.0625
Info: NONBONDED TABLE SIZE: 705 POINTS
TCL: Setting parameter alchLambda2 to 0.15000000000000002
Info: NONBONDED TABLE R-SQUARED SPACING: 0.0625
Info: NONBONDED TABLE SIZE: 705 POINTS
TCL: Running for 1500000 steps
ETITLE: TS BOND ANGLE DIHED IMPRP ELECT VDW BOUNDARY MISC KINETIC TOTAL TEMP POTENTIAL TOTALAVG TEMPAVG PRESSURE GPRESSURE VOLUME PRESSAVG GPRESSAVG
ENERGY: 0 6.8540 4.7295 6.5089 0.0000 -10960.4894 1497.8845 0.0000 0.0000 1797.1019 -7647.4105 300.8960 -9444.5124 -7647.4105 300.8960 261.8809 357.2558 29974.7909 261.8809 357.2558
ENERGY: 300000 3.6481 7.2109 7.1278 0.0000 -10890.0890 1467.2794 0.0000 0.0000 1798.3326 -7606.4902 301.1020 -9404.8228 -7581.9313 301.1491 129.2913 168.0221 30414.3590 -16.1311 48.3977
ENERGY: 600000 6.7036 8.7295 7.0311 0.0000 -10872.7667 1481.3899 0.0000 0.0000 1809.7487 -7559.1639 303.0135 -9368.9126 -7554.3403 301.4361 -38.1416 -38.7962 30760.5044 -160.8571 -106.9470
ENERGY: 900000 4.3367 9.7583 7.6372 0.0000 -10988.3168 1557.8969 0.0000 0.0000 1795.1198 -7613.5679 300.5641 -9408.6877 -7557.1765 300.5744 743.3738 779.4433 30146.3587 40.3563 90.3957
ENERGY: 1200000 5.0618 8.3154 8.5722 0.0000 -10913.2083 1495.9026 0.0000 0.0000 1775.3082 -7620.0481 297.2470 -9395.3563 -7566.0214 299.4525 -15.7323 77.5854 30404.6535 40.8330 96.0701
ENERGY: 1500000 2.6057 4.0940 9.2714 0.0000 -10557.2200 1297.9597 0.0000 0.0000 1790.2051 -7453.0840 299.7412 -9243.2891 -7557.6304 298.7398 -1262.1212 -1220.9189 31534.9065 16.2330 70.9546
TCL: Running FEP window   4: Lambda1 0.15000000000000002 Lambda2 0.2    [dLambda 0.04999999999999999]
TCL: Setting parameter firsttimestep to 0
TCL: Setting parameter alchLambda to 0.15000000000000002
Info: NONBONDED TABLE R-SQUARED SPACING: 0.0625
Info: NONBONDED TABLE SIZE: 705 POINTS
TCL: Setting parameter alchLambda2 to 0.2
Info: NONBONDED TABLE R-SQUARED SPACING: 0.0625
Info: NONBONDED TABLE SIZE: 705 POINTS
TCL: Running for 1500000 steps
ETITLE: TS BOND ANGLE DIHED IMPRP ELECT VDW BOUNDARY MISC KINETIC TOTAL TEMP POTENTIAL TOTALAVG TEMPAVG PRESSURE GPRESSURE VOLUME PRESSAVG GPRESSAVG
ENERGY: 0 2.6057 4.0940 9.2714 0.0000 -10557.2192 1300.6202 0.0000 0.0000 1789.3038 -7451.3241 299.5903 -9240.6279 -7451.3241 299.5903 -1279.2479 -1206.6177 31534.9065 -1279.2479 -1206.6177
ENERGY: 300000 2.0735 4.6515 8.7745 0.0000 -10751.0880 1394.0925 0.0000 0.0000 1770.8967 -7570.5993 296.5083 -9341.4960 -7510.7484 299.8953 -560.8625 -471.2375 30658.5815 -303.7669 -247.1536
ENERGY: 600000 3.3795 5.8211 9.5365 0.0000 -10805.5627 1434.2407 0.0000 0.0000 1806.2284 -7546.3565 302.4241 -9352.5849 -7536.2553 299.7175 -111.5167 -42.2636 30644.5818 -309.8867 -255.2437
ENERGY: 900000 3.5885 6.2652 5.2058 0.0000 -10966.9491 1521.4576 0.0000 0.0000 1819.9984 -7610.4336 304.7296 -9430.4320 -7552.9482 299.4890 159.4199 250.9487 30526.8327 -313.8503 -254.1404
ENERGY: 1200000 2.4244 7.5455 7.1179 0.0000 -10864.2570 1488.0854 0.0000 0.0000 1787.9095 -7571.1743 299.3568 -9359.0839 -7557.4097 299.7323 -199.2313 -72.9987 31366.8207 -333.3885 -267.6497
ENERGY: 1500000 2.8910 4.7409 6.8219 0.0000 -10825.5852 1429.8481 0.0000 0.0000 1785.4624 -7595.8210 298.9471 -9381.2834 -7556.0704 299.8997 -522.3824 -412.9045 31106.7528 -233.3611 -171.9000
TCL: Running FEP window   5: Lambda1 0.2    Lambda2 0.25   [dLambda 0.04999999999999999]
TCL: Setting parameter firsttimestep to 0
TCL: Setting parameter alchLambda to 0.2
Info: NONBONDED TABLE R-SQUARED SPACING: 0.0625
Info: NONBONDED TABLE SIZE: 705 POINTS
TCL: Setting parameter alchLambda2 to 0.25
Info: NONBONDED TABLE R-SQUARED SPACING: 0.0625
Info: NONBONDED TABLE SIZE: 705 POINTS
TCL: Running for 1500000 steps
ETITLE: TS BOND ANGLE DIHED IMPRP ELECT VDW BOUNDARY MISC KINETIC TOTAL TEMP POTENTIAL TOTALAVG TEMPAVG PRESSURE GPRESSURE VOLUME PRESSAVG GPRESSAVG
ENERGY: 0 2.8910 4.7409 6.8219 0.0000 -10825.5865 1430.3664 0.0000 0.0000 1784.6120 -7596.1543 298.8047 -9380.7663 -7596.1543 298.8047 -495.4430 -406.1833 31106.7528 -495.4430 -406.1833
ENERGY: 300000 6.0476 9.2804 6.4897 0.0000 -10993.5058 1539.7632 0.0000 0.0000 1831.9997 -7599.9252 306.7390 -9431.9250 -7614.2105 300.0581 416.2593 404.4146 30366.0127 -52.3427 -23.1549
ENERGY: 600000 5.2052 4.1071 8.1302 0.0000 -10807.2915 1407.9473 0.0000 0.0000 1821.4203 -7560.4813 304.9677 -9381.9016 -7589.6357 301.1156 -632.6828 -603.7935 30887.4213 -65.8265 -36.3899
ENERGY: 900000 6.0804 5.2612 10.9022 0.0000 -10854.5533 1458.0440 0.0000 0.0000 1765.5842 -7608.6812 295.6188 -9374.2655 -7569.5202 300.0892 98.9814 139.6186 30496.8672 -45.3046 -5.6885
ENERGY: 1200000 4.0416 4.1638 9.8527 0.0000 -10809.6461 1468.5818 0.0000 0.0000 1827.8588 -7495.1474 306.0457 -9323.0063 -7562.6234 300.9664 126.1498 173.6069 30749.9472 -82.5600 -49.9160
ENERGY: 1500000 7.2037 12.5044 12.1132 0.0000 -10759.1726 1418.3864 0.0000 0.0000 1816.9340 -7492.0309 304.2165 -9308.9649 -7557.8406 301.7972 -461.7312 -368.7397 30685.9740 -165.6346 -127.0128
TCL: Running FEP window   6: Lambda1 0.25   Lambda2 0.3    [dLambda 0.04999999999999999]
TCL: Setting parameter firsttimestep to 0
TCL: Setting parameter alchLambda to 0.25
Info: NONBONDED TABLE R-SQUARED SPACING: 0.0625
Info: NONBONDED TABLE SIZE: 705 POINTS
TCL: Setting parameter alchLambda2 to 0.3
Info: NONBONDED TABLE R-SQUARED SPACING: 0.0625
Info: NONBONDED TABLE SIZE: 705 POINTS
TCL: Running for 1500000 steps
ETITLE: TS BOND ANGLE DIHED IMPRP ELECT VDW BOUNDARY MISC KINETIC TOTAL TEMP POTENTIAL TOTALAVG TEMPAVG PRESSURE GPRESSURE VOLUME PRESSAVG GPRESSAVG
ENERGY: 0 7.2037 12.5044 12.1132 0.0000 -10759.1723 1420.5731 0.0000 0.0000 1816.0569 -7490.7210 304.0697 -9306.7779 -7490.7210 304.0697 -439.6657 -353.2528 30685.9740 -439.6657 -353.2528
ENERGY: 300000 2.8271 4.7235 11.1214 0.0000 -10930.5975 1578.2762 0.0000 0.0000 1734.2778 -7599.3716 290.3771 -9333.6494 -7509.2621 299.4986 894.4933 905.4070 30871.1290 27.3157 73.1989
ENERGY: 600000 1.3369 3.6404 9.1400 0.0000 -10807.9223 1430.3895 0.0000 0.0000 1746.4000 -7617.0155 292.4067 -9363.4155 -7538.0038 298.1388 -102.9135 -26.4546 30589.3753 -67.1339 -24.3757
ENERGY: 900000 5.6318 7.2151 8.3243 0.0000 -10770.0312 1440.8081 0.0000 0.0000 1807.2152 -7500.8368 302.5893 -9308.0520 -7529.3260 299.9969 177.5395 212.2870 30554.8504 -88.2995 -43.5823
ENERGY: 1200000 3.1141 5.7399 7.5309 0.0000 -10802.1737 1451.0150 0.0000 0.0000 1822.3596 -7512.4143 305.1250 -9334.7739 -7538.1300 300.3656 -38.0170 -36.8724 31062.6831 -20.3281 26.5040
ENERGY: 1500000 5.8900 4.1878 14.3217 0.0000 -10697.4593 1353.5811 0.0000 0.0000 1826.9070 -7492.5717 305.8864 -9319.4788 -7550.9851 299.8598 -704.0670 -674.7495 30944.5370 -57.2581 -5.1553
TCL: Running FEP window   7: Lambda1 0.3    Lambda2 0.35   [dLambda 0.04999999999999999]
TCL: Setting parameter firsttimestep to 0
TCL: Setting parameter alchLambda to 0.3
Info: NONBONDED TABLE R-SQUARED SPACING: 0.0625
Info: NONBONDED TABLE SIZE: 705 POINTS
TCL: Setting parameter alchLambda2 to 0.35
Info: NONBONDED TABLE R-SQUARED SPACING: 0.0625
Info: NONBONDED TABLE SIZE: 705 POINTS
TCL: Running for 1500000 steps
ETITLE: TS BOND ANGLE DIHED IMPRP ELECT VDW BOUNDARY MISC KINETIC TOTAL TEMP POTENTIAL TOTALAVG TEMPAVG PRESSURE GPRESSURE VOLUME PRESSAVG GPRESSAVG
ENERGY: 0 5.8900 4.1878 14.3217 0.0000 -10697.4585 1353.4337 0.0000 0.0000 1826.0119 -7493.6134 305.7365 -9319.6252 -7493.6134 305.7365 -747.0866 -667.2727 30944.5370 -747.0866 -667.2727
ENERGY: 300000 5.2554 11.0666 8.2697 0.0000 -10819.7785 1370.9709 0.0000 0.0000 1800.1512 -7624.0646 301.4065 -9424.2158 -7521.5542 304.5002 -1049.4417 -965.3257 30783.0266 -634.8965 -548.8832
ENERGY: 600000 5.5068 6.4835 11.4449 0.0000 -10714.7479 1363.4351 0.0000 0.0000 1769.8811 -7557.9965 296.3383 -9327.8777 -7527.2492 301.3946 -587.7137 -528.6188 30573.6617 -548.3611 -473.6000
ENERGY: 900000 3.9273 8.5054 8.0849 0.0000 -10733.5781 1372.9364 0.0000 0.0000 1766.8984 -7573.2258 295.8389 -9340.1242 -7534.9610 301.0855 -668.3318 -612.1563 30804.4102 -338.7711 -271.2112
ENERGY: 1200000 3.8945 7.2251 9.3677 0.0000 -10767.2891 1467.7844 0.0000 0.0000 1741.1344 -7537.8828 291.5251 -9279.0172 -7531.5184 301.3650 102.7518 89.3028 31315.7551 -271.9983 -208.9270
ENERGY: 1500000 6.3074 6.7735 7.3074 0.0000 -10708.0009 1409.8554 0.0000 0.0000 1769.6145 -7508.1426 296.2936 -9277.7571 -7533.1869 301.4248 -91.3256 -73.9235 30757.1485 -260.1088 -203.3074
TCL: Running FEP window   8: Lambda1 0.35   Lambda2 0.39999999999999997 [dLambda 0.04999999999999999]
TCL: Setting parameter firsttimestep to 0
TCL: Setting parameter alchLambda to 0.35
Info: NONBONDED TABLE R-SQUARED SPACING: 0.0625
Info: NONBONDED TABLE SIZE: 705 POINTS
TCL: Setting parameter alchLambda2 to 0.39999999999999997
Info: NONBONDED TABLE R-SQUARED SPACING: 0.0625
Info: NONBONDED TABLE SIZE: 705 POINTS
TCL: Running for 1500000 steps
ETITLE: TS BOND ANGLE DIHED IMPRP ELECT VDW BOUNDARY MISC KINETIC TOTAL TEMP POTENTIAL TOTALAVG TEMPAVG PRESSURE GPRESSURE VOLUME PRESSAVG GPRESSAVG
ENERGY: 0 6.3074 6.7735 7.3074 0.0000 -10708.0004 1409.3165 0.0000 0.0000 1768.7105 -7509.5850 296.1423 -9278.2955 -7509.5850 296.1423 -170.5182 -72.1451 30757.1485 -170.5182 -72.1451
ENERGY: 300000 3.6834 5.7682 14.2041 0.0000 -10937.5963 1578.2026 0.0000 0.0000 1768.0911 -7567.6470 296.0386 -9335.7381 -7554.4173 296.3722 823.3383 913.0892 30659.3851 91.3881 170.3356
ENERGY: 600000 3.1329 7.1626 6.5637 0.0000 -10771.5906 1421.3674 0.0000 0.0000 1852.6623 -7480.7017 310.1987 -9333.3640 -7549.5716 301.5572 -306.0875 -253.5426 30992.5927 57.8780 129.6857
ENERGY: 900000 2.0178 8.9530 6.3843 0.0000 -10716.3545 1405.5960 0.0000 0.0000 1819.0190 -7474.3844 304.5656 -9293.4034 -7542.0159 301.6914 -102.1348 -18.0317 30804.1264 -46.8364 22.7003
ENERGY: 1200000 2.6306 8.3569 6.8240 0.0000 -10907.2468 1503.1744 0.0000 0.0000 1788.9563 -7597.3046 299.5321 -9386.2609 -7557.0795 301.1026 504.7665 524.7758 30296.6097 -34.5822 30.7064
ENERGY: 1500000 3.4841 4.3330 11.4562 0.0000 -10894.2624 1516.3748 0.0000 0.0000 1766.8314 -7591.7830 295.8277 -9358.6144 -7573.5641 299.9865 320.8242 404.4993 30716.7335 2.4190 63.1104
TCL: Running FEP window   9: Lambda1 0.39999999999999997 Lambda2 0.44999999999999996 [dLambda 0.04999999999999999]
TCL: Setting parameter firsttimestep to 0
TCL: Setting parameter alchLambda to 0.39999999999999997
Info: NONBONDED TABLE R-SQUARED SPACING: 0.0625
Info: NONBONDED TABLE SIZE: 705 POINTS
TCL: Setting parameter alchLambda2 to 0.44999999999999996
Info: NONBONDED TABLE R-SQUARED SPACING: 0.0625
Info: NONBONDED TABLE SIZE: 705 POINTS
TCL: Running for 1500000 steps
ETITLE: TS BOND ANGLE DIHED IMPRP ELECT VDW BOUNDARY MISC KINETIC TOTAL TEMP POTENTIAL TOTALAVG TEMPAVG PRESSURE GPRESSURE VOLUME PRESSAVG GPRESSAVG
ENERGY: 0 3.4840 4.3330 11.4562 0.0000 -10894.2645 1516.5752 0.0000 0.0000 1765.9625 -7592.4536 295.6822 -9358.4161 -7592.4536 295.6822 327.0890 412.9692 30716.7335 327.0890 412.9692
ENERGY: 300000 4.2935 4.2215 9.1772 0.0000 -10746.8581 1454.5056 0.0000 0.0000 1827.4587 -7447.2016 305.9787 -9274.6603 -7540.6868 301.9051 -15.8567 42.8356 31332.7067 290.0734 359.6043
ENERGY: 600000 5.0078 3.8899 8.9372 0.0000 -10750.9595 1376.7821 0.0000 0.0000 1820.3631 -7535.9795 304.7907 -9356.3426 -7527.5228 303.5706 -563.3835 -547.8068 30947.6815 113.9858 177.5395
ENERGY: 900000 6.9386 4.2896 9.2636 0.0000 -10852.8903 1522.3271 0.0000 0.0000 1853.8327 -7456.2387 310.3946 -9310.0714 -7513.8275 304.4075 287.2808 382.3674 31101.7465 77.9039 149.1549
ENERGY: 1200000 3.8145 8.2606 11.4923 0.0000 -10912.9393 1504.5497 0.0000 0.0000 1782.6654 -7602.1568 298.4788 -9384.8221 -7533.5886 303.4257 72.8104 156.6930 31032.7626 -21.5458 49.8879
ENERGY: 1500000 2.2864 7.7886 11.3111 0.0000 -10850.8395 1491.6404 0.0000 0.0000 1749.9279 -7587.8850 292.9974 -9337.8130 -7542.6228 302.6898 354.4421 445.9563 30548.8040 -35.8738 29.5511
TCL: Running FEP window  10: Lambda1 0.44999999999999996 Lambda2 0.49999999999999994 [dLambda 0.04999999999999999]
TCL: Setting parameter firsttimestep to 0
TCL: Setting parameter alchLambda to 0.44999999999999996
Info: NONBONDED TABLE R-SQUARED SPACING: 0.0625
Info: NONBONDED TABLE SIZE: 705 POINTS
TCL: Setting parameter alchLambda2 to 0.49999999999999994
Info: NONBONDED TABLE R-SQUARED SPACING: 0.0625
Info: NONBONDED TABLE SIZE: 705 POINTS
TCL: Running for 1500000 steps
ETITLE: TS BOND ANGLE DIHED IMPRP ELECT VDW BOUNDARY MISC KINETIC TOTAL TEMP POTENTIAL TOTALAVG TEMPAVG PRESSURE GPRESSURE VOLUME PRESSAVG GPRESSAVG
ENERGY: 0 2.2864 7.7886 11.3111 0.0000 -10850.8411 1491.0387 0.0000 0.0000 1749.0389 -7589.3774 292.8486 -9338.4163 -7589.3774 292.8486 362.8110 449.1513 30548.8040 362.8110 449.1513
ENERGY: 300000 6.1315 4.3365 11.4035 0.0000 -10753.9111 1448.5474 0.0000 0.0000 1839.6273 -7443.8649 308.0162 -9283.4923 -7523.2716 300.8489 -63.6829 46.2550 31270.5393 224.7649 287.1548
ENERGY: 600000 6.7783 7.7395 7.8785 0.0000 -10846.3768 1450.7509 0.0000 0.0000 1774.4502 -7598.7793 297.1033 -9373.2295 -7553.9944 298.9374 -366.2660 -259.8742 30835.2873 53.6386 141.3466
ENERGY: 900000 5.2517 9.2803 8.8364 0.0000 -10854.3691 1482.3030 0.0000 0.0000 1788.1824 -7560.5154 299.4025 -9348.6978 -7561.9954 298.8082 22.6341 157.0135 30780.5105 114.2717 198.5649
ENERGY: 1200000 3.5612 4.5950 6.9585 0.0000 -10813.9997 1474.7512 0.0000 0.0000 1760.8457 -7563.2881 294.8254 -9324.1338 -7559.0591 299.0402 158.2120 218.9140 30851.8064 83.9010 165.4686
ENERGY: 1500000 2.7421 4.6328 7.8577 0.0000 -10923.5867 1535.8393 0.0000 0.0000 1753.4995 -7619.0153 293.5954 -9372.5148 -7566.0046 298.7432 372.5906 493.7866 30817.4043 30.0494 113.5585
TCL: Running FEP window  11: Lambda1 0.49999999999999994 Lambda2 0.5499999999999999 [dLambda 0.04999999999999999]
TCL: Setting parameter firsttimestep to 0
TCL: Setting parameter alchLambda to 0.49999999999999994
Info: NONBONDED TABLE R-SQUARED SPACING: 0.0625
Info: NONBONDED TABLE SIZE: 705 POINTS
TCL: Setting parameter alchLambda2 to 0.5499999999999999
Info: NONBONDED TABLE R-SQUARED SPACING: 0.0625
Info: NONBONDED TABLE SIZE: 705 POINTS
TCL: Running for 1500000 steps
ETITLE: TS BOND ANGLE DIHED IMPRP ELECT VDW BOUNDARY MISC KINETIC TOTAL TEMP POTENTIAL TOTALAVG TEMPAVG PRESSURE GPRESSURE VOLUME PRESSAVG GPRESSAVG
ENERGY: 0 2.7421 4.6328 7.8577 0.0000 -10923.5867 1535.6190 0.0000 0.0000 1752.6135 -7620.1216 293.4471 -9372.7352 -7620.1216 293.4471 413.8582 501.6353 30817.4043 413.8582 501.6353
ENERGY: 300000 3.9250 5.6758 5.4711 0.0000 -10760.9513 1382.4431 0.0000 0.0000 1812.7010 -7550.7353 303.5078 -9363.4363 -7549.3313 299.2440 -620.3574 -598.9007 31071.8561 -232.5627 -176.9128
ENERGY: 600000 5.7588 8.2981 10.2644 0.0000 -10909.8303 1426.8726 0.0000 0.0000 1730.8061 -7727.8302 289.7958 -9458.6363 -7591.5108 297.0015 -740.7741 -678.2212 30874.2851 -377.0850 -320.3729
ENERGY: 900000 6.1376 5.4394 7.5666 0.0000 -10957.1243 1589.5894 0.0000 0.0000 1828.8818 -7519.5094 306.2170 -9348.3913 -7577.4504 299.1592 1140.2090 1166.0359 30600.1389 -136.3286 -84.8179
ENERGY: 1200000 1.5880 10.7346 7.3655 0.0000 -11011.1013 1573.4725 0.0000 0.0000 1823.0031 -7594.9374 305.2327 -9417.9406 -7576.8777 299.2765 1146.8483 1109.3422 30217.5862 -118.0840 -72.6580
ENERGY: 1500000 4.5027 3.9922 6.4059 0.0000 -10834.1770 1456.1908 0.0000 0.0000 1779.7016 -7583.3838 297.9826 -9363.0855 -7577.1540 299.5010 133.7940 233.1479 30581.0482 -127.1610 -74.8966
TCL: Running FEP window  12: Lambda1 0.5499999999999999 Lambda2 0.6    [dLambda 0.050000000000000044]
TCL: Setting parameter firsttimestep to 0
TCL: Setting parameter alchLambda to 0.5499999999999999
Info: NONBONDED TABLE R-SQUARED SPACING: 0.0625
Info: NONBONDED TABLE SIZE: 705 POINTS
TCL: Setting parameter alchLambda2 to 0.6
Info: NONBONDED TABLE R-SQUARED SPACING: 0.0625
Info: NONBONDED TABLE SIZE: 705 POINTS
TCL: Running for 1500000 steps
ETITLE: TS BOND ANGLE DIHED IMPRP ELECT VDW BOUNDARY MISC KINETIC TOTAL TEMP POTENTIAL TOTALAVG TEMPAVG PRESSURE GPRESSURE VOLUME PRESSAVG GPRESSAVG
ENERGY: 0 4.5027 3.9922 6.4059 0.0000 -10833.6945 1455.9022 0.0000 0.0000 1778.7959 -7584.0956 297.8309 -9362.8915 -7584.0956 297.8309 145.5238 240.7348 30581.0482 145.5238 240.7348
ENERGY: 300000 0.6347 6.2994 6.9218 0.0000 -10832.0053 1475.2992 0.0000 0.0000 1781.8574 -7560.9927 298.3435 -9342.8501 -7534.4186 303.1462 125.2842 182.4933 31144.3666 283.3879 350.5474
ENERGY: 600000 2.6195 6.4135 8.8058 0.0000 -10864.2446 1449.7003 0.0000 0.0000 1838.1862 -7558.5192 307.7749 -9396.7054 -7568.8150 302.3951 -201.0987 -136.2941 30773.0901 42.5442 116.2849
ENERGY: 900000 6.4164 7.0847 13.4364 0.0000 -10787.7147 1365.2322 0.0000 0.0000 1772.8081 -7622.7370 296.8283 -9395.5450 -7576.3425 300.7731 -1002.0016 -891.6591 30940.4678 -37.5434 38.5239
ENERGY: 1200000 5.3995 6.5149 10.0921 0.0000 -10961.9307 1483.6094 0.0000 0.0000 1841.1189 -7615.1959 308.2659 -9456.3148 -7570.8941 302.3380 -98.9900 -48.5876 31049.9285 -96.6690 -23.7770
ENERGY: 1500000 3.6342 8.0452 8.8008 0.0000 -10726.8167 1314.2718 0.0000 0.0000 1789.9778 -7602.0869 299.7032 -9392.0647 -7563.3790 301.6141 -1227.8749 -1203.7876 30642.8967 -210.8139 -146.2940
TCL: Running FEP window  13: Lambda1 0.6    Lambda2 0.65   [dLambda 0.050000000000000044]
TCL: Setting parameter firsttimestep to 0
TCL: Setting parameter alchLambda to 0.6
Info: NONBONDED TABLE R-SQUARED SPACING: 0.0625
Info: NONBONDED TABLE SIZE: 705 POINTS
TCL: Setting parameter alchLambda2 to 0.65
Info: NONBONDED TABLE R-SQUARED SPACING: 0.0625
Info: NONBONDED TABLE SIZE: 705 POINTS
TCL: Running for 1500000 steps
ETITLE: TS BOND ANGLE DIHED IMPRP ELECT VDW BOUNDARY MISC KINETIC TOTAL TEMP POTENTIAL TOTALAVG TEMPAVG PRESSURE GPRESSURE VOLUME PRESSAVG GPRESSAVG
ENERGY: 0 3.6342 8.0452 8.8008 0.0000 -10726.2929 1313.8935 0.0000 0.0000 1789.0753 -7602.8439 299.5520 -9391.9192 -7602.8439 299.5520 -1289.2208 -1197.6283 30642.8967 -1289.2208 -1197.6283
ENERGY: 300000 5.4279 5.5129 8.0387 0.0000 -10716.6999 1396.5115 0.0000 0.0000 1761.1668 -7540.0422 294.8792 -9301.2090 -7547.5854 302.8447 -297.3453 -307.3537 31281.7184 -437.9805 -365.2249
ENERGY: 600000 4.4705 6.3250 10.9350 0.0000 -10866.7286 1475.9352 0.0000 0.0000 1852.9329 -7516.1301 310.2440 -9369.0630 -7554.8168 303.2854 228.5535 191.9597 30631.6286 -284.5269 -242.0256
ENERGY: 900000 4.0205 11.7634 9.1583 0.0000 -10968.8260 1529.1984 0.0000 0.0000 1787.8998 -7626.7856 299.3552 -9414.6854 -7553.1094 302.6781 670.0493 736.1883 30246.9685 -165.5489 -108.1108
ENERGY: 1200000 4.0666 9.2315 5.9821 0.0000 -10786.3553 1396.6943 0.0000 0.0000 1784.9080 -7585.4728 298.8543 -9370.3808 -7549.4594 302.1542 -865.2243 -760.6663 31200.1958 -263.4634 -202.0421
ENERGY: 1500000 2.4121 9.8321 5.9222 0.0000 -10858.6974 1472.2635 0.0000 0.0000 1753.1009 -7615.1666 293.5287 -9368.2675 -7552.5280 301.3699 55.5260 139.9890 30734.6056 -284.3084 -218.0971
TCL: Running FEP window  14: Lambda1 0.65   Lambda2 0.7000000000000001 [dLambda 0.050000000000000044]
TCL: Setting parameter firsttimestep to 0
TCL: Setting parameter alchLambda to 0.65
Info: NONBONDED TABLE R-SQUARED SPACING: 0.0625
Info: NONBONDED TABLE SIZE: 705 POINTS
TCL: Setting parameter alchLambda2 to 0.7000000000000001
Info: NONBONDED TABLE R-SQUARED SPACING: 0.0625
Info: NONBONDED TABLE SIZE: 705 POINTS
TCL: Running for 1500000 steps
ETITLE: TS BOND ANGLE DIHED IMPRP ELECT VDW BOUNDARY MISC KINETIC TOTAL TEMP POTENTIAL TOTALAVG TEMPAVG PRESSURE GPRESSURE VOLUME PRESSAVG GPRESSAVG
ENERGY: 0 2.4121 9.8321 5.9222 0.0000 -10858.7272 1472.7004 0.0000 0.0000 1752.2288 -7615.6315 293.3827 -9367.8603 -7615.6315 293.3827 71.1829 154.1053 30734.6056 71.1829 154.1053
ENERGY: 300000 5.7321 4.7198 7.3377 0.0000 -10821.9824 1462.2951 0.0000 0.0000 1785.7060 -7556.1916 298.9879 -9341.8976 -7565.1537 297.1750 -28.7783 -45.4089 30909.2338 -255.6113 -196.8058
ENERGY: 600000 3.2252 8.2078 9.6605 0.0000 -10830.2900 1486.3398 0.0000 0.0000 1788.1492 -7534.7075 299.3970 -9322.8567 -7556.4408 298.8816 278.2590 291.9196 31039.5259 -3.0003 47.1376
ENERGY: 900000 5.4427 5.9140 14.1384 0.0000 -10744.5398 1347.5993 0.0000 0.0000 1756.4337 -7615.0116 294.0867 -9371.4453 -7552.1320 300.4048 -1295.4105 -1158.3108 31355.3285 -162.4194 -102.3602
ENERGY: 1200000 2.6587 8.8404 8.6773 0.0000 -10728.4905 1403.7875 0.0000 0.0000 1803.4626 -7501.0640 301.9610 -9304.5266 -7550.4905 300.3983 -217.6930 -149.6802 31052.6340 -125.1994 -68.7720
ENERGY: 1500000 2.8496 7.4971 6.4104 0.0000 -10927.9137 1469.8608 0.0000 0.0000 1844.2285 -7597.0673 308.7866 -9441.2958 -7548.0248 301.7585 146.9877 214.5504 30208.6088 -40.2673 15.1937
TCL: Running FEP window  15: Lambda1 0.7000000000000001 Lambda2 0.7500000000000001 [dLambda 0.050000000000000044]
TCL: Setting parameter firsttimestep to 0
TCL: Setting parameter alchLambda to 0.7000000000000001
Info: NONBONDED TABLE R-SQUARED SPACING: 0.0625
Info: NONBONDED TABLE SIZE: 705 POINTS
TCL: Setting parameter alchLambda2 to 0.7500000000000001
Info: NONBONDED TABLE R-SQUARED SPACING: 0.0625
Info: NONBONDED TABLE SIZE: 705 POINTS
TCL: Running for 1500000 steps
ETITLE: TS BOND ANGLE DIHED IMPRP ELECT VDW BOUNDARY MISC KINETIC TOTAL TEMP POTENTIAL TOTALAVG TEMPAVG PRESSURE GPRESSURE VOLUME PRESSAVG GPRESSAVG
ENERGY: 0 2.8497 7.4971 6.4104 0.0000 -10928.7131 1470.1984 0.0000 0.0000 1843.3176 -7598.4400 308.6340 -9441.7576 -7598.4400 308.6340 137.3350 233.7545 30208.6088 137.3350 233.7545
ENERGY: 300000 2.9281 6.0004 8.0878 0.0000 -10926.4412 1539.4425 0.0000 0.0000 1781.8997 -7588.0829 298.3506 -9369.9826 -7593.6860 301.0574 954.1320 954.7671 30561.8269 -114.3363 -37.1370
ENERGY: 600000 5.5323 8.4394 11.0812 0.0000 -10964.2882 1587.6139 0.0000 0.0000 1783.2904 -7568.3311 298.5834 -9351.6214 -7586.1776 301.0054 813.3294 896.3557 30982.5937 -34.2201 35.9421
ENERGY: 900000 5.2199 7.6719 9.2775 0.0000 -10705.4510 1387.7796 0.0000 0.0000 1787.6175 -7507.8845 299.3080 -9295.5020 -7572.0135 300.3400 -540.2717 -475.7588 31037.7077 -159.6601 -82.1251
ENERGY: 1200000 1.4657 4.8161 7.6623 0.0000 -10860.0102 1452.7767 0.0000 0.0000 1862.5420 -7530.7474 311.8529 -9393.2894 -7564.9697 300.3864 -115.8351 -34.7469 30777.1090 -163.4631 -90.8288
ENERGY: 1500000 3.2720 5.4458 10.6094 0.0000 -10868.0066 1430.5236 0.0000 0.0000 1762.3589 -7655.7969 295.0788 -9418.1558 -7575.1630 300.5072 -409.8540 -304.7841 31025.4725 -194.2347 -119.8554
TCL: Running FEP window  16: Lambda1 0.7500000000000001 Lambda2 0.8000000000000002 [dLambda 0.050000000000000044]
TCL: Setting parameter firsttimestep to 0
TCL: Setting parameter alchLambda to 0.7500000000000001
Info: NONBONDED TABLE R-SQUARED SPACING: 0.0625
Info: NONBONDED TABLE SIZE: 705 POINTS
TCL: Setting parameter alchLambda2 to 0.8000000000000002
Info: NONBONDED TABLE R-SQUARED SPACING: 0.0625
Info: NONBONDED TABLE SIZE: 705 POINTS
TCL: Running for 1500000 steps
ETITLE: TS BOND ANGLE DIHED IMPRP ELECT VDW BOUNDARY MISC KINETIC TOTAL TEMP POTENTIAL TOTALAVG TEMPAVG PRESSURE GPRESSURE VOLUME PRESSAVG GPRESSAVG
ENERGY: 0 3.2720 5.4458 10.6094 0.0000 -10868.4966 1430.6063 0.0000 0.0000 1761.4456 -7657.1176 294.9259 -9418.5632 -7657.1176 294.9259 -369.5878 -290.2388 31025.4725 -369.5878 -290.2388
ENERGY: 300000 7.9627 5.6263 9.3698 0.0000 -10772.3491 1462.5515 0.0000 0.0000 1781.3729 -7505.4660 298.2624 -9286.8389 -7552.0231 300.2557 277.7755 316.0376 30678.7412 -81.1360 -8.6787
ENERGY: 600000 2.5165 7.0651 11.6090 0.0000 -10851.2522 1471.5822 0.0000 0.0000 1773.7228 -7584.7565 296.9815 -9358.4793 -7554.7739 300.7298 63.2383 82.6750 30873.6486 -128.9182 -60.4461
ENERGY: 900000 4.7471 7.8907 6.6386 0.0000 -10878.5998 1461.2521 0.0000 0.0000 1778.5352 -7619.5361 297.7873 -9398.0713 -7568.0980 300.4693 105.7638 102.8292 30663.5560 -128.5352 -59.9593
ENERGY: 1200000 3.0583 5.2561 11.1031 0.0000 -10817.7161 1366.1448 0.0000 0.0000 1816.0342 -7616.1196 304.0659 -9432.1538 -7577.2943 300.8648 -695.6964 -625.4228 30838.0877 -144.6869 -80.7495
ENERGY: 1500000 4.9831 5.0063 5.2862 0.0000 -10909.1170 1543.8848 0.0000 0.0000 1781.6480 -7568.3086 298.3085 -9349.9566 -7579.1911 300.8556 762.4411 789.1270 30543.0484 -27.2338 38.8541
TCL: Running FEP window  17: Lambda1 0.8000000000000002 Lambda2 0.8500000000000002 [dLambda 0.050000000000000044]
TCL: Setting parameter firsttimestep to 0
TCL: Setting parameter alchLambda to 0.8000000000000002
Info: NONBONDED TABLE R-SQUARED SPACING: 0.0625
Info: NONBONDED TABLE SIZE: 705 POINTS
TCL: Setting parameter alchLambda2 to 0.8500000000000002
Info: NONBONDED TABLE R-SQUARED SPACING: 0.0625
Info: NONBONDED TABLE SIZE: 705 POINTS
TCL: Running for 1500000 steps
ETITLE: TS BOND ANGLE DIHED IMPRP ELECT VDW BOUNDARY MISC KINETIC TOTAL TEMP POTENTIAL TOTALAVG TEMPAVG PRESSURE GPRESSURE VOLUME PRESSAVG GPRESSAVG
ENERGY: 0 4.9831 5.0063 5.2862 0.0000 -10909.7126 1543.4357 0.0000 0.0000 1780.7526 -7570.2486 298.1585 -9351.0013 -7570.2486 298.1585 714.2813 795.9445 30543.0484 714.2813 795.9445
ENERGY: 300000 3.9463 8.1484 4.7597 0.0000 -10892.0121 1490.1500 0.0000 0.0000 1815.8228 -7569.1850 304.0305 -9385.0078 -7555.3750 300.8508 404.1730 528.4969 30880.9867 238.1696 331.4181
ENERGY: 600000 3.7625 5.0580 10.7006 0.0000 -10858.2757 1434.4258 0.0000 0.0000 1794.3515 -7609.9773 300.4354 -9404.3288 -7568.3955 299.6195 -212.5151 -133.1947 30436.2196 132.0049 219.0119
ENERGY: 900000 2.4094 5.7878 9.8464 0.0000 -10722.7408 1349.9770 0.0000 0.0000 1792.8217 -7561.8984 300.1793 -9354.7202 -7565.3470 300.0779 -1024.9117 -961.8969 31172.0676 -62.8147 18.2158
ENERGY: 1200000 3.5548 5.2191 14.3026 0.0000 -10723.3769 1345.3157 0.0000 0.0000 1793.9056 -7561.0791 300.3608 -9354.9847 -7556.0296 300.7331 -950.1827 -910.0512 31287.7083 -36.3688 38.6245
ENERGY: 1500000 5.7450 2.8637 10.5166 0.0000 -10758.0773 1323.0577 0.0000 0.0000 1836.3164 -7579.5778 307.4618 -9415.8943 -7557.7852 300.8899 -1468.1569 -1382.4662 31081.8979 -123.3851 -48.4981
TCL: Running FEP window  18: Lambda1 0.8500000000000002 Lambda2 0.9000000000000002 [dLambda 0.050000000000000044]
TCL: Setting parameter firsttimestep to 0
TCL: Setting parameter alchLambda to 0.8500000000000002
Info: NONBONDED TABLE R-SQUARED SPACING: 0.0625
Info: NONBONDED TABLE SIZE: 705 POINTS
TCL: Setting parameter alchLambda2 to 0.9000000000000002
Info: NONBONDED TABLE R-SQUARED SPACING: 0.0625
Info: NONBONDED TABLE SIZE: 705 POINTS
TCL: Running for 1500000 steps
ETITLE: TS BOND ANGLE DIHED IMPRP ELECT VDW BOUNDARY MISC KINETIC TOTAL TEMP POTENTIAL TOTALAVG TEMPAVG PRESSURE GPRESSURE VOLUME PRESSAVG GPRESSAVG
ENERGY: 0 5.7450 2.8637 10.5166 0.0000 -10758.6675 1322.8928 0.0000 0.0000 1835.4197 -7581.2297 307.3117 -9416.6494 -7581.2297 307.3117 -1459.0923 -1373.8617 31081.8979 -1459.0923 -1373.8617
ENERGY: 300000 5.2509 8.1232 11.2123 0.0000 -10641.0038 1353.5229 0.0000 0.0000 1798.6245 -7464.2699 301.1509 -9262.8944 -7514.6903 300.7486 -802.2531 -735.1597 31590.5927 -706.1884 -632.2369
ENERGY: 600000 3.4104 3.7517 9.6903 0.0000 -10758.7994 1442.8129 0.0000 0.0000 1785.5689 -7513.5652 298.9649 -9299.1341 -7526.6291 301.2858 -72.5622 38.3291 31104.5052 -481.8976 -401.6067
ENERGY: 900000 3.8454 10.1458 9.2603 0.0000 -10806.5930 1425.1217 0.0000 0.0000 1821.9616 -7536.2581 305.0583 -9358.2198 -7529.0952 301.4876 156.3916 163.9445 30701.5626 -318.8742 -253.3048
ENERGY: 1200000 3.3046 9.4029 5.4008 0.0000 -10811.3264 1463.4137 0.0000 0.0000 1757.9144 -7571.8899 294.3346 -9329.8043 -7543.9826 300.6256 429.6855 438.1570 30764.7858 -266.0863 -204.6262
ENERGY: 1500000 4.5760 7.2168 8.0958 0.0000 -10816.0143 1409.8071 0.0000 0.0000 1793.8527 -7592.4660 300.3519 -9386.3186 -7549.8203 300.4921 -290.8559 -303.3867 31070.4349 -351.8176 -295.4641
TCL: Running FEP window  19: Lambda1 0.9000000000000002 Lambda2 0.9500000000000003 [dLambda 0.050000000000000044]
TCL: Setting parameter firsttimestep to 0
TCL: Setting parameter alchLambda to 0.9000000000000002
Info: NONBONDED TABLE R-SQUARED SPACING: 0.0625
Info: NONBONDED TABLE SIZE: 705 POINTS
TCL: Setting parameter alchLambda2 to 0.9500000000000003
Info: NONBONDED TABLE R-SQUARED SPACING: 0.0625
Info: NONBONDED TABLE SIZE: 705 POINTS
TCL: Running for 1500000 steps
ETITLE: TS BOND ANGLE DIHED IMPRP ELECT VDW BOUNDARY MISC KINETIC TOTAL TEMP POTENTIAL TOTALAVG TEMPAVG PRESSURE GPRESSURE VOLUME PRESSAVG GPRESSAVG
ENERGY: 0 4.5760 7.2168 8.0958 0.0000 -10816.4607 1409.2476 0.0000 0.0000 1792.9572 -7594.3673 300.2020 -9387.3245 -7594.3673 300.2020 -383.2891 -297.5575 31070.4349 -383.2891 -297.5575
ENERGY: 300000 4.3798 4.9763 10.0142 0.0000 -10880.0942 1509.4114 0.0000 0.0000 1776.0804 -7575.2321 297.3762 -9351.3124 -7587.2229 301.6633 375.4108 432.2816 31344.9532 -108.5921 -33.1648
ENERGY: 600000 3.4558 12.0727 9.7908 0.0000 -10690.0647 1370.7994 0.0000 0.0000 1829.7572 -7464.1889 306.3636 -9293.9461 -7592.7830 299.5922 -505.0671 -390.1092 31220.0698 -34.6026 47.0823
ENERGY: 900000 5.0539 7.1859 6.1430 0.0000 -10827.8663 1425.5599 0.0000 0.0000 1789.9203 -7594.0033 299.6935 -9383.9236 -7591.6642 299.0975 -554.3805 -528.6885 31072.0300 -117.8045 -50.8030
ENERGY: 1200000 3.3485 7.0602 11.0958 0.0000 -10963.7417 1472.2024 0.0000 0.0000 1840.3615 -7629.6733 308.1391 -9470.0348 -7601.8794 299.1983 18.0579 93.8113 30473.0124 -80.8732 -17.5393
ENERGY: 1500000 5.1438 3.9439 9.3588 0.0000 -10816.4081 1404.0862 0.0000 0.0000 1811.2264 -7582.6491 303.2609 -9393.8755 -7596.3518 300.1800 -792.7955 -732.3811 31209.5927 -212.7520 -151.8752
TCL: Running FEP window  20: Lambda1 0.9500000000000003 Lambda2 1.0    [dLambda 0.04999999999999971]
TCL: Setting parameter firsttimestep to 0
TCL: Setting parameter alchLambda to 0.9500000000000003
Info: NONBONDED TABLE R-SQUARED SPACING: 0.0625
Info: NONBONDED TABLE SIZE: 705 POINTS
TCL: Setting parameter alchLambda2 to 1.0
Info: NONBONDED TABLE R-SQUARED SPACING: 0.0625
Info: NONBONDED TABLE SIZE: 705 POINTS
TCL: Running for 1500000 steps
ETITLE: TS BOND ANGLE DIHED IMPRP ELECT VDW BOUNDARY MISC KINETIC TOTAL TEMP POTENTIAL TOTALAVG TEMPAVG PRESSURE GPRESSURE VOLUME PRESSAVG GPRESSAVG
ENERGY: 0 5.1438 3.9439 9.3588 0.0000 -10817.1988 1403.8895 0.0000 0.0000 1810.3569 -7584.5060 303.1153 -9394.8630 -7584.5060 303.1153 -827.1277 -720.2852 31209.5927 -827.1277 -720.2852
ENERGY: 300000 2.4136 5.5002 8.9260 0.0000 -10690.9377 1419.9973 0.0000 0.0000 1784.9938 -7469.1068 298.8686 -9254.1005 -7552.4020 301.9331 -232.7039 -139.9306 31445.3332 -282.4193 -213.9938
ENERGY: 600000 4.1214 6.7324 15.1544 0.0000 -10748.0415 1407.8298 0.0000 0.0000 1759.0434 -7555.1601 294.5237 -9314.2035 -7564.4898 299.0405 -62.6418 -28.4417 30830.3518 -77.6874 -23.7632
ENERGY: 900000 5.5104 7.3907 11.2654 0.0000 -10955.5910 1571.9017 0.0000 0.0000 1788.4441 -7571.0786 299.4464 -9359.5228 -7566.1283 299.0989 1000.4525 1139.9505 30662.7522 102.4217 173.0817
ENERGY: 1200000 3.6679 6.4873 8.9694 0.0000 -10926.2390 1482.0599 0.0000 0.0000 1780.5030 -7644.5514 298.1167 -9425.0544 -7569.0018 299.4470 -88.5352 -47.6877 31113.0821 -13.0986 55.0843
ENERGY: 1500000 3.0538 11.5943 8.1372 0.0000 -10810.4525 1417.6140 0.0000 0.0000 1794.3942 -7575.6591 300.4426 -9370.0533 -7563.1784 299.9387 -324.8496 -284.8786 30844.4230 -4.4749 63.8984
TCL: Exiting due to exit command.
