Info: SIMULATION PARAMETERS:
Info: TIMESTEP               2
Info: NUMBER OF STEPS        0
Info: STEPS PER CYCLE        10
Info: PERIODIC CELL BASIS 1  32.2958 0 0
Info: PERIODIC CELL BASIS 2  0 28.5015 0
Info: PERIODIC CELL BASIS 3  0 0 32.828
Info: PERIODIC CELL CENTER   0 0 0
Info: WRAPPING WATERS AROUND PERIODIC BOUNDARIES ON OUTPUT.
Info: WRAPPING ALL CLUSTERS AROUND PERIODIC BOUNDARIES ON OUTPUT.
Info: FIRST LDB TIMESTEP     50
Info: LAST LDB TIMESTEP     -1
Info: HOM BACKGROUND SCALING 1
Info: PME BACKGROUND SCALING 1
Info: MIN ATOMS PER PATCH    40
Info: EMPTY PATCH LOAD       40 ATOMS
Info: VELOCITY FILE          mobley_3265457_equil.vel
Info: CENTER OF MASS MOVING INITIALLY? NO
Info: DIELECTRIC             1
Info: EXCLUDE                SCALED ONE-FOUR
Info: 1-4 ELECTROSTATICS SCALED BY 0.833333
Info: MODIFIED 1-4 VDW PARAMETERS WILL BE USED
Info: DCD FILENAME           mobley_3265457_prod.dcd
Info: DCD FREQUENCY          100000
Info: DCD FIRST STEP         100000
Info: DCD FILE WILL CONTAIN UNIT CELL DATA
Info: XST FILENAME           mobley_3265457_prod.xst
Info: XST FREQUENCY          100000
Info: NO VELOCITY DCD OUTPUT
Info: NO FORCE DCD OUTPUT
Info: OUTPUT FILENAME        mobley_3265457_prod
Info: BINARY OUTPUT FILES WILL BE USED
Info: RESTART FILENAME       mobley_3265457_prod.restart
Info: RESTART FREQUENCY      100000
Info: BINARY RESTART FILES WILL BE USED
Info: CUTOFF                 9
Info: PAIRLIST DISTANCE      11
Info: PAIRLIST SHRINK RATE   0.01
Info: PAIRLIST GROW RATE     0.01
Info: PAIRLIST TRIGGER       0.3
Info: PAIRLISTS PER CYCLE    2
Info: PAIRLISTS ENABLED
Info: MARGIN                 2
Info: HYDROGEN GROUP CUTOFF  2.5
Info: PATCH DIMENSION        15.5
Info: ENERGY OUTPUT STEPS    100000
Info: ENERGY EVALUATION STEPS    100000
Info: OUTPUT ENERGY PRECISION 4
Info: CROSSTERM ENERGY INCLUDED IN DIHEDRAL
Info: TIMING OUTPUT STEPS    1000000
Info: PRESSURE OUTPUT STEPS  100000
Info: ALCHEMICAL FEP ON
Info: FEP CURRENT LAMBDA VALUE     1
Info: FEP COMPARISON LAMBDA VALUE  0.95
Info: FEP INTRA-ALCHEMICAL NON-BONDED INTERACTIONS WILL BE RETAINED
Info: FEP INTRA-ALCHEMICAL BONDED INTERACTIONS WILL BE RETAINED
Info: FEP VDW SHIFTING COEFFICIENT 5
Info: FEP ELEC. ACTIVE FOR ANNIHILATED PARTICLES BETWEEN LAMBDA = 0 AND LAMBDA = 0.5
Info: FEP ELEC. ACTIVE FOR EXNIHILATED PARTICLES BETWEEN LAMBDA = 0.5 AND LAMBDA = 1
Info: FEP VDW ACTIVE FOR ANNIHILATED PARTICLES BETWEEN LAMBDA = 0 AND LAMBDA = 1
Info: FEP VDW ACTIVE FOR EXNIHILATED PARTICLES BETWEEN LAMBDA = 0 AND LAMBDA = 1
Info: FEP BOND ACTIVE FOR ANNIHILATED PARTICLES BETWEEN LAMBDA = 1 AND LAMBDA = 1
Info: FEP BOND ACTIVE FOR EXNIHILATED PARTICLES BETWEEN LAMBDA = 0 AND LAMBDA = 0
Info: LANGEVIN DYNAMICS ACTIVE
Info: LANGEVIN TEMPERATURE   300
Info: LANGEVIN USING BBK INTEGRATOR
Info: LANGEVIN DAMPING COEFFICIENT IS 1 INVERSE PS
Info: LANGEVIN DYNAMICS APPLIED TO HYDROGENS
Info: LANGEVIN PISTON PRESSURE CONTROL ACTIVE
Info:        TARGET PRESSURE IS 1.01325 BAR
Info:     OSCILLATION PERIOD IS 50 FS
Info:             DECAY TIME IS 25 FS
Info:     PISTON TEMPERATURE IS 300 K
Info:       PRESSURE CONTROL IS GROUP-BASED
Info:    INITIAL STRAIN RATE IS -0.000233208 -0.000233208 -0.000233208
Info:       CELL FLUCTUATION IS ISOTROPIC
Info: PARTICLE MESH EWALD (PME) ACTIVE
Info: PME TOLERANCE               1e-06
Info: PME EWALD COEFFICIENT       0.348832
Info: PME INTERPOLATION ORDER     4
Info: PME GRID DIMENSIONS         36 32 36
Info: PME MAXIMUM GRID SPACING    1
Info: PME CALCULATION WILL BE PERFORMED ON GPU
Info: FULL ELECTROSTATIC EVALUATION FREQUENCY      2
Info: USING VERLET I (r-RESPA) MTS SCHEME.
Info: C1 SPLITTING OF LONG RANGE ELECTROSTATICS
Info: PLACING ATOMS IN PATCHES BY HYDROGEN GROUPS
Info: RIGID BONDS TO HYDROGEN : ALL
Info:         ERROR TOLERANCE : 1e-08
Info:          MAX ITERATIONS : 100
Info: RIGID WATER USING SETTLE ALGORITHM
Info: RANDOM NUMBER SEED     1743987767
Info: USE HYDROGEN BONDS?    NO
Info: Using AMBER format force field!
Info: AMBER PARM FILE        mobley_3265457.prmtop
Info: COORDINATE PDB         mobley_3265457.pdb
Info: Exclusions will be read from PARM file!
Info: SCNB (VDW SCALING)     2
Info: USING ARITHMETIC MEAN TO COMBINE L-J SIGMA PARAMETERS
Info: BINARY COORDINATES     mobley_3265457_equil.coor
Info: SUMMARY OF PARAMETERS:
Info: 13 BONDS
Info: 13 ANGLES
Info:   13 HARMONIC
Info:   0 COSINE-BASED
Info: 6 DIHEDRAL
Info: 0 IMPROPER
Info: 0 CROSSTERM
Info: 0 VDW
Info: 66 VDW_PAIRS
Info: 0 NBTHOLE_PAIRS
Info: To read alchdata from file: mobley_3265457.pdb
Info: To read alchflag data from column: 5
Info: STRUCTURE SUMMARY:
Info: 2957 ATOMS
Info: 2957 BONDS
Info: 36 ANGLES
Info: 47 DIHEDRALS
Info: 0 IMPROPERS
Info: 0 CROSSTERMS
Info: 3030 EXCLUSIONS
Info: 2943 RIGID BONDS
Info: ALCH: 0 ATOMS TO DISAPPEAR IN FINAL STATE
Info: ALCH: 23 ATOMS TO APPEAR IN FINAL STATE
Info: 5928 DEGREES OF FREEDOM
Info: 992 HYDROGEN GROUPS
Info: 4 ATOMS IN LARGEST HYDROGEN GROUP
Info: 992 MIGRATION GROUPS
Info: 4 ATOMS IN LARGEST MIGRATION GROUP
Info: TOTAL MASS = 17836.3 amu
Info: TOTAL CHARGE = -0.000299972 e
Info: MASS DENSITY = 0.980177 g/cm^3
Info: ATOM DENSITY = 0.0978572 atoms/A^3
Info: ADDED 0 IMPLICIT EXCLUSIONS
Info: NONBONDED TABLE R-SQUARED SPACING: 0.0625
Info: NONBONDED TABLE SIZE: 705 POINTS
Info: REMOVING COM VELOCITY -0.127007 -0.245106 -0.112282
Info: Use 3D box decompostion in PME FFT.
Info: Updated CUDA force table with 4096 elements.
Info: Updated CUDA LJ table with 11 x 11 elements.
Info: Found 26 unique exclusion lists needing 76 bytes
TCL: Running for 1500000 steps
ETITLE: TS BOND ANGLE DIHED IMPRP ELECT VDW BOUNDARY MISC KINETIC TOTAL TEMP POTENTIAL TOTALAVG TEMPAVG PRESSURE GPRESSURE VOLUME PRESSAVG GPRESSAVG
ENERGY: 0 6.3342 7.5138 7.6094 0.0000 -10746.3610 1489.7246 0.0000 0.0000 1748.0833 -7487.0958 296.7866 -9235.1790 -7487.0958 296.7866 538.0037 640.8206 30217.5078 538.0037 640.8206
ENERGY: 300000 3.1190 5.5113 9.0288 0.0000 -10563.5711 1342.6105 0.0000 0.0000 1740.9928 -7462.3088 295.5828 -9203.3016 -7472.5524 298.9700 -760.8296 -717.2791 30705.5338 -188.2407 -133.4621
ENERGY: 600000 7.7778 11.6430 12.0710 0.0000 -10605.6721 1350.4776 0.0000 0.0000 1779.1135 -7444.5893 302.0549 -9223.7028 -7468.8596 299.2999 -563.4277 -576.3167 30095.9824 -166.5939 -108.3078
ENERGY: 900000 5.8273 6.9396 9.0419 0.0000 -10576.7543 1371.4689 0.0000 0.0000 1782.6206 -7400.8559 302.6503 -9183.4765 -7466.4352 298.8076 -252.4971 -175.4986 30276.0540 -130.2604 -76.0074
ENERGY: 1200000 3.0283 10.2250 8.5209 0.0000 -10541.4114 1374.4947 0.0000 0.0000 1787.1809 -7357.9617 303.4245 -9145.1426 -7440.0218 300.1219 -285.4770 -155.3387 30702.0692 -100.4142 -40.8186
ENERGY: 1500000 6.3364 7.8340 10.0112 0.0000 -10827.4088 1554.7061 0.0000 0.0000 1759.5023 -7489.0189 298.7253 -9248.5211 -7448.8428 300.0807 889.9796 884.5573 30138.1398 -37.6449 22.3776
TCL: Running FEP window   2: Lambda1 0.95   Lambda2 0.8999999999999999 [dLambda -0.050000000000000044]
TCL: Setting parameter firsttimestep to 0
TCL: Setting parameter alchLambda to 0.95
Info: NONBONDED TABLE R-SQUARED SPACING: 0.0625
Info: NONBONDED TABLE SIZE: 705 POINTS
TCL: Setting parameter alchLambda2 to 0.8999999999999999
Info: NONBONDED TABLE R-SQUARED SPACING: 0.0625
Info: NONBONDED TABLE SIZE: 705 POINTS
TCL: Running for 1500000 steps
ETITLE: TS BOND ANGLE DIHED IMPRP ELECT VDW BOUNDARY MISC KINETIC TOTAL TEMP POTENTIAL TOTALAVG TEMPAVG PRESSURE GPRESSURE VOLUME PRESSAVG GPRESSAVG
ENERGY: 0 6.3364 7.8340 10.0112 0.0000 -10825.8473 1555.2125 0.0000 0.0000 1758.6487 -7487.8045 298.5804 -9246.4532 -7487.8045 298.5804 802.5835 877.6850 30138.1398 802.5835 877.6850
ENERGY: 300000 3.1802 9.0955 4.7508 0.0000 -10716.3333 1442.7083 0.0000 0.0000 1700.3901 -7556.2084 288.6893 -9256.5985 -7493.0598 299.2603 -9.4317 7.6839 30537.5964 121.6415 175.2377
ENERGY: 600000 3.9640 4.5530 6.1585 0.0000 -10662.3305 1421.2321 0.0000 0.0000 1764.1167 -7462.3062 299.5087 -9226.4229 -7479.7375 299.4042 -14.5925 32.6652 30281.3578 177.1442 235.2817
ENERGY: 900000 5.4053 7.8147 10.2378 0.0000 -10696.5373 1398.7989 0.0000 0.0000 1763.5061 -7510.7745 299.4051 -9274.2806 -7472.9666 300.0284 -352.4890 -357.4975 30437.3098 196.5782 249.0434
ENERGY: 1200000 5.4337 10.7657 9.4756 0.0000 -10642.2819 1351.1367 0.0000 0.0000 1678.5055 -7586.9648 284.9738 -9265.4702 -7486.1252 298.2307 -1004.7912 -1004.0751 30892.2819 64.7576 115.1268
ENERGY: 1500000 3.2599 6.0758 10.3259 0.0000 -10757.9858 1472.7430 0.0000 0.0000 1800.5032 -7465.0781 305.6864 -9265.5813 -7482.6983 297.8714 538.3087 538.2046 30186.6284 52.7929 102.0332
TCL: Running FEP window   3: Lambda1 0.8999999999999999 Lambda2 0.8499999999999999 [dLambda -0.050000000000000044]
TCL: Setting parameter firsttimestep to 0
TCL: Setting parameter alchLambda to 0.8999999999999999
Info: NONBONDED TABLE R-SQUARED SPACING: 0.0625
Info: NONBONDED TABLE SIZE: 705 POINTS
TCL: Setting parameter alchLambda2 to 0.8499999999999999
Info: NONBONDED TABLE R-SQUARED SPACING: 0.0625
Info: NONBONDED TABLE SIZE: 705 POINTS
TCL: Running for 1500000 steps
ETITLE: TS BOND ANGLE DIHED IMPRP ELECT VDW BOUNDARY MISC KINETIC TOTAL TEMP POTENTIAL TOTALAVG TEMPAVG PRESSURE GPRESSURE VOLUME PRESSAVG GPRESSAVG
ENERGY: 0 3.2599 6.0758 10.3259 0.0000 -10756.3161 1471.7589 0.0000 0.0000 1799.6236 -7465.2719 305.5370 -9264.8956 -7465.2719 305.5370 429.8802 510.5070 30186.6284 429.8802 510.5070
ENERGY: 300000 2.9967 14.7668 9.4842 0.0000 -10652.2357 1490.2636 0.0000 0.0000 1794.8275 -7339.8969 304.7228 -9134.7244 -7438.3404 302.7845 566.5573 654.7474 30735.0967 342.0975 422.0471
ENERGY: 600000 8.3991 7.9102 12.1215 0.0000 -10817.8116 1545.1155 0.0000 0.0000 1755.9301 -7488.3351 298.1188 -9244.2652 -7457.6506 299.7379 808.1606 829.7817 30478.6193 381.8928 452.6643
ENERGY: 900000 4.2247 7.1999 14.5658 0.0000 -10532.3883 1357.6684 0.0000 0.0000 1753.6064 -7395.1232 297.7243 -9148.7296 -7453.7930 299.5202 -528.4009 -457.0218 30644.7299 123.8967 189.8150
ENERGY: 1200000 6.8933 10.8912 8.2817 0.0000 -10559.3045 1369.8675 0.0000 0.0000 1800.4996 -7362.8713 305.6858 -9163.3709 -7439.7539 300.6687 -235.7214 -134.3808 30086.8327 72.5988 140.4764
ENERGY: 1500000 5.9551 8.8261 8.6317 0.0000 -10740.4565 1439.9981 0.0000 0.0000 1840.2580 -7436.7876 312.4359 -9277.0455 -7442.6892 301.5259 -291.1834 -184.7396 30551.2747 -27.5188 45.9437
TCL: Running FEP window   4: Lambda1 0.8499999999999999 Lambda2 0.7999999999999998 [dLambda -0.050000000000000044]
TCL: Setting parameter firsttimestep to 0
TCL: Setting parameter alchLambda to 0.8499999999999999
Info: NONBONDED TABLE R-SQUARED SPACING: 0.0625
Info: NONBONDED TABLE SIZE: 705 POINTS
TCL: Setting parameter alchLambda2 to 0.7999999999999998
Info: NONBONDED TABLE R-SQUARED SPACING: 0.0625
Info: NONBONDED TABLE SIZE: 705 POINTS
TCL: Running for 1500000 steps
ETITLE: TS BOND ANGLE DIHED IMPRP ELECT VDW BOUNDARY MISC KINETIC TOTAL TEMP POTENTIAL TOTALAVG TEMPAVG PRESSURE GPRESSURE VOLUME PRESSAVG GPRESSAVG
ENERGY: 0 5.9551 8.8261 8.6317 0.0000 -10737.8608 1439.2681 0.0000 0.0000 1839.3849 -7435.7950 312.2877 -9275.1799 -7435.7950 312.2877 -295.8846 -203.9104 30551.2747 -295.8846 -203.9104
ENERGY: 300000 6.0712 5.7488 14.1491 0.0000 -10602.8536 1404.5664 0.0000 0.0000 1795.0359 -7377.2823 304.7582 -9172.3183 -7449.7991 304.4038 -257.6731 -176.4692 30742.8892 -366.3377 -322.5722
ENERGY: 600000 4.9525 10.3347 13.5083 0.0000 -10601.1927 1412.7098 0.0000 0.0000 1730.1794 -7429.5079 293.7469 -9159.6873 -7465.4724 300.3343 -238.5100 -191.5177 30566.5470 -11.2948 40.0066
ENERGY: 900000 3.0985 7.9188 10.5249 0.0000 -10698.8210 1413.6417 0.0000 0.0000 1713.1569 -7550.4801 290.8569 -9263.6370 -7475.9297 300.6372 90.5589 52.9381 30019.9555 -87.7812 -35.9922
ENERGY: 1200000 6.0572 5.0777 7.3249 0.0000 -10575.4189 1347.1990 0.0000 0.0000 1726.2939 -7483.4662 293.0872 -9209.7601 -7466.8846 299.7445 -530.1437 -487.5365 30478.9906 -129.0310 -77.5254
ENERGY: 1500000 4.5919 7.0455 10.0499 0.0000 -10691.2043 1402.6149 0.0000 0.0000 1751.6790 -7515.2232 297.3971 -9266.9022 -7473.4397 299.0492 -310.6869 -271.7469 30384.5781 -57.9763 -11.0663
TCL: Running FEP window   5: Lambda1 0.7999999999999998 Lambda2 0.7499999999999998 [dLambda -0.050000000000000044]
TCL: Setting parameter firsttimestep to 0
TCL: Setting parameter alchLambda to 0.7999999999999998
Info: NONBONDED TABLE R-SQUARED SPACING: 0.0625
Info: NONBONDED TABLE SIZE: 705 POINTS
TCL: Setting parameter alchLambda2 to 0.7499999999999998
Info: NONBONDED TABLE R-SQUARED SPACING: 0.0625
Info: NONBONDED TABLE SIZE: 705 POINTS
TCL: Running for 1500000 steps
ETITLE: TS BOND ANGLE DIHED IMPRP ELECT VDW BOUNDARY MISC KINETIC TOTAL TEMP POTENTIAL TOTALAVG TEMPAVG PRESSURE GPRESSURE VOLUME PRESSAVG GPRESSAVG
ENERGY: 0 4.5919 7.0455 10.0499 0.0000 -10690.1214 1402.5716 0.0000 0.0000 1750.8320 -7515.0305 297.2533 -9265.8625 -7515.0305 297.2533 -381.4124 -287.0051 30384.5781 -381.4124 -287.0051
ENERGY: 300000 5.9254 9.4879 10.6005 0.0000 -10586.2538 1356.9855 0.0000 0.0000 1753.2995 -7449.9551 297.6722 -9203.2546 -7453.2422 299.8847 -632.5017 -490.5339 30603.0056 -437.6325 -342.3482
ENERGY: 600000 6.1981 9.5483 7.6513 0.0000 -10618.0241 1396.4040 0.0000 0.0000 1746.4578 -7451.7646 296.5106 -9198.2224 -7441.5512 300.8037 -272.4135 -213.4919 30668.2382 -177.9318 -108.3863
ENERGY: 900000 5.7522 7.5532 9.2147 0.0000 -10733.0349 1477.7640 0.0000 0.0000 1787.0131 -7445.7377 303.3961 -9232.7508 -7452.0199 301.4565 508.9420 574.3034 30500.3976 23.3518 83.4936
ENERGY: 1200000 3.2652 8.6620 9.0281 0.0000 -10636.2268 1454.9495 0.0000 0.0000 1795.9921 -7364.3297 304.9205 -9160.3219 -7441.3456 301.1047 234.5325 272.2478 30724.3899 53.1539 112.2324
ENERGY: 1500000 4.2764 17.9051 6.7029 0.0000 -10724.5456 1466.2895 0.0000 0.0000 1779.5874 -7449.7843 302.1353 -9229.3717 -7444.2949 300.5897 261.3182 286.5817 30194.5163 35.2437 93.7508
TCL: Running FEP window   6: Lambda1 0.7499999999999998 Lambda2 0.6999999999999997 [dLambda -0.050000000000000044]
TCL: Setting parameter firsttimestep to 0
TCL: Setting parameter alchLambda to 0.7499999999999998
Info: NONBONDED TABLE R-SQUARED SPACING: 0.0625
Info: NONBONDED TABLE SIZE: 705 POINTS
TCL: Setting parameter alchLambda2 to 0.6999999999999997
Info: NONBONDED TABLE R-SQUARED SPACING: 0.0625
Info: NONBONDED TABLE SIZE: 705 POINTS
TCL: Running for 1500000 steps
ETITLE: TS BOND ANGLE DIHED IMPRP ELECT VDW BOUNDARY MISC KINETIC TOTAL TEMP POTENTIAL TOTALAVG TEMPAVG PRESSURE GPRESSURE VOLUME PRESSAVG GPRESSAVG
ENERGY: 0 4.2764 17.9051 6.7028 0.0000 -10722.1852 1465.3888 0.0000 0.0000 1778.7152 -7449.1967 301.9873 -9227.9120 -7449.1967 301.9873 186.4566 264.2768 30194.5163 186.4566 264.2768
ENERGY: 300000 3.3662 9.9740 6.2511 0.0000 -10565.5495 1346.2065 0.0000 0.0000 1760.1227 -7439.6290 298.8306 -9199.7517 -7410.2619 304.9637 -657.0686 -599.8902 30580.2807 26.0061 78.5141
ENERGY: 600000 3.8986 7.9968 7.6582 0.0000 -10735.2566 1490.4600 0.0000 0.0000 1755.2867 -7469.9564 298.0096 -9225.2431 -7421.2916 304.2003 686.2157 733.3868 29984.4727 79.5520 133.5383
ENERGY: 900000 3.0127 6.6402 8.8322 0.0000 -10726.7586 1453.6171 0.0000 0.0000 1815.3058 -7439.3506 308.1995 -9254.6565 -7426.1782 304.4992 392.9896 352.2809 30201.9493 140.4757 182.9336
ENERGY: 1200000 6.5700 12.3941 9.2573 0.0000 -10705.7097 1475.6435 0.0000 0.0000 1752.9634 -7448.8814 297.6151 -9201.8448 -7430.9157 303.2742 226.2559 317.8207 30397.9395 168.4873 217.0922
ENERGY: 1500000 5.0560 8.6900 7.2251 0.0000 -10655.4421 1349.4197 0.0000 0.0000 1742.6242 -7542.4271 295.8598 -9285.0513 -7444.6528 302.5840 -931.7569 -816.0100 30401.2849 121.3798 176.8761
TCL: Running FEP window   7: Lambda1 0.6999999999999997 Lambda2 0.6499999999999997 [dLambda -0.050000000000000044]
TCL: Setting parameter firsttimestep to 0
TCL: Setting parameter alchLambda to 0.6999999999999997
Info: NONBONDED TABLE R-SQUARED SPACING: 0.0625
Info: NONBONDED TABLE SIZE: 705 POINTS
TCL: Setting parameter alchLambda2 to 0.6499999999999997
Info: NONBONDED TABLE R-SQUARED SPACING: 0.0625
Info: NONBONDED TABLE SIZE: 705 POINTS
TCL: Running for 1500000 steps
ETITLE: TS BOND ANGLE DIHED IMPRP ELECT VDW BOUNDARY MISC KINETIC TOTAL TEMP POTENTIAL TOTALAVG TEMPAVG PRESSURE GPRESSURE VOLUME PRESSAVG GPRESSAVG
ENERGY: 0 5.0560 8.6900 7.2251 0.0000 -10654.5705 1349.5544 0.0000 0.0000 1741.7749 -7542.2701 295.7156 -9284.0450 -7542.2701 295.7156 -894.3841 -825.5268 30401.2849 -894.3841 -825.5268
ENERGY: 300000 8.3325 4.2531 7.8355 0.0000 -10638.5132 1390.9685 0.0000 0.0000 1760.4877 -7466.6360 298.8926 -9227.1236 -7467.9064 297.4879 -384.4933 -352.3949 30478.7082 -424.4834 -347.3476
ENERGY: 600000 3.5993 6.3739 5.3282 0.0000 -10681.3385 1446.2608 0.0000 0.0000 1789.6096 -7430.1668 303.8369 -9219.7763 -7463.0093 299.9698 296.9439 356.9788 30536.9511 -157.2764 -90.2829
ENERGY: 900000 5.0606 5.5639 4.8959 0.0000 -10592.0378 1456.9372 0.0000 0.0000 1772.0493 -7347.5309 300.8555 -9119.5802 -7448.3659 301.1856 511.9088 566.8352 30447.3008 69.4617 126.9728
ENERGY: 1200000 4.2234 6.9478 7.9774 0.0000 -10690.4734 1442.4916 0.0000 0.0000 1771.0542 -7457.7790 300.6866 -9228.8332 -7442.0405 302.0454 148.9263 204.2746 30124.7049 -51.0274 8.5976
ENERGY: 1500000 5.7719 7.9975 8.3762 0.0000 -10661.3208 1495.1367 0.0000 0.0000 1775.3080 -7368.7304 301.4088 -9144.0384 -7445.0418 301.3693 681.5833 744.5438 30326.2169 -1.2881 56.8112
TCL: Running FEP window   8: Lambda1 0.6499999999999997 Lambda2 0.5999999999999996 [dLambda -0.050000000000000044]
TCL: Setting parameter firsttimestep to 0
TCL: Setting parameter alchLambda to 0.6499999999999997
Info: NONBONDED TABLE R-SQUARED SPACING: 0.0625
Info: NONBONDED TABLE SIZE: 705 POINTS
TCL: Setting parameter alchLambda2 to 0.5999999999999996
Info: NONBONDED TABLE R-SQUARED SPACING: 0.0625
Info: NONBONDED TABLE SIZE: 705 POINTS
TCL: Running for 1500000 steps
ETITLE: TS BOND ANGLE DIHED IMPRP ELECT VDW BOUNDARY MISC KINETIC TOTAL TEMP POTENTIAL TOTALAVG TEMPAVG PRESSURE GPRESSURE VOLUME PRESSAVG GPRESSAVG
ENERGY: 0 5.7719 7.9975 8.3762 0.0000 -10660.7020 1495.4197 0.0000 0.0000 1774.4134 -7368.7233 301.2569 -9143.1368 -7368.7233 301.2569 655.7420 736.1252 30326.2169 655.7420 736.1252
ENERGY: 300000 2.6642 16.4548 7.5075 0.0000 -10673.7170 1414.3017 0.0000 0.0000 1742.7179 -7490.0709 295.8757 -9232.7888 -7459.3569 298.3962 -166.4183 -106.8318 30280.4660 -140.3966 -75.7181
ENERGY: 600000 5.8370 12.6022 8.4674 0.0000 -10720.9961 1504.9893 0.0000 0.0000 1718.1105 -7470.9896 291.6979 -9189.1001 -7450.2902 299.0004 517.3920 657.5103 30084.5449 236.0050 316.2937
ENERGY: 900000 5.2202 6.9027 8.3583 0.0000 -10870.4491 1524.2387 0.0000 0.0000 1735.6035 -7590.1256 294.6678 -9325.7292 -7483.1804 296.4829 434.6734 519.4424 30210.9837 220.7238 301.2360
ENERGY: 1200000 4.7307 8.6631 8.5012 0.0000 -10765.2547 1493.3822 0.0000 0.0000 1820.4795 -7429.4979 309.0779 -9249.9774 -7474.3216 297.2400 299.3255 305.6416 30259.4561 140.9841 211.5835
ENERGY: 1500000 6.8173 8.3728 11.9272 0.0000 -10731.5110 1488.3608 0.0000 0.0000 1738.6511 -7477.3819 295.1852 -9216.0330 -7477.0909 297.6738 357.7943 458.8924 30208.8841 108.0439 179.8394
TCL: Running FEP window   9: Lambda1 0.5999999999999996 Lambda2 0.5499999999999996 [dLambda -0.050000000000000044]
TCL: Setting parameter firsttimestep to 0
TCL: Setting parameter alchLambda to 0.5999999999999996
Info: NONBONDED TABLE R-SQUARED SPACING: 0.0625
Info: NONBONDED TABLE SIZE: 705 POINTS
TCL: Setting parameter alchLambda2 to 0.5499999999999996
Info: NONBONDED TABLE R-SQUARED SPACING: 0.0625
Info: NONBONDED TABLE SIZE: 705 POINTS
TCL: Running for 1500000 steps
ETITLE: TS BOND ANGLE DIHED IMPRP ELECT VDW BOUNDARY MISC KINETIC TOTAL TEMP POTENTIAL TOTALAVG TEMPAVG PRESSURE GPRESSURE VOLUME PRESSAVG GPRESSAVG
ENERGY: 0 6.8173 8.3728 11.9272 0.0000 -10730.6381 1488.0373 0.0000 0.0000 1737.8028 -7477.6807 295.0412 -9215.4836 -7477.6807 295.0412 367.4338 445.3186 30208.8841 367.4338 445.3186
ENERGY: 300000 4.9288 7.6836 10.4057 0.0000 -10698.9892 1473.8382 0.0000 0.0000 1787.5088 -7414.6240 303.4802 -9202.1328 -7450.0586 300.0479 324.5601 395.6962 30252.2606 312.6807 365.8231
ENERGY: 600000 4.5860 7.4369 10.7318 0.0000 -10852.5241 1533.7068 0.0000 0.0000 1703.6169 -7592.4457 289.2372 -9296.0625 -7467.6541 299.1166 732.7078 801.6501 29707.9710 355.3188 417.9739
ENERGY: 900000 3.3195 14.3082 7.1345 0.0000 -10655.9419 1401.1969 0.0000 0.0000 1791.9416 -7438.0411 304.2328 -9229.9827 -7455.1391 300.1918 -258.0726 -166.2269 30263.4978 104.8426 162.9309
ENERGY: 1200000 4.6810 12.9286 8.6123 0.0000 -10721.1089 1441.8550 0.0000 0.0000 1745.4380 -7507.5941 296.3375 -9253.0321 -7456.8328 300.2459 -182.8730 -96.7176 30412.5751 62.0107 123.3122
ENERGY: 1500000 4.7243 11.3065 6.1938 0.0000 -10727.2395 1465.0981 0.0000 0.0000 1790.4663 -7449.4504 303.9823 -9239.9167 -7458.0632 299.8198 392.3535 484.5974 30201.9914 60.1942 123.4966
TCL: Running FEP window  10: Lambda1 0.5499999999999996 Lambda2 0.4999999999999996 [dLambda -0.04999999999999999]
TCL: Setting parameter firsttimestep to 0
TCL: Setting parameter alchLambda to 0.5499999999999996
Info: NONBONDED TABLE R-SQUARED SPACING: 0.0625
Info: NONBONDED TABLE SIZE: 705 POINTS
TCL: Setting parameter alchLambda2 to 0.4999999999999996
Info: NONBONDED TABLE R-SQUARED SPACING: 0.0625
Info: NONBONDED TABLE SIZE: 705 POINTS
TCL: Running for 1500000 steps
ETITLE: TS BOND ANGLE DIHED IMPRP ELECT VDW BOUNDARY MISC KINETIC TOTAL TEMP POTENTIAL TOTALAVG TEMPAVG PRESSURE GPRESSURE VOLUME PRESSAVG GPRESSAVG
ENERGY: 0 4.7243 11.3065 6.1938 0.0000 -10726.8754 1465.6569 0.0000 0.0000 1789.5923 -7449.4015 303.8339 -9238.9938 -7449.4015 303.8339 382.3815 478.3515 30201.9914 382.3815 478.3515
ENERGY: 300000 4.9800 5.2214 14.2781 0.0000 -10811.7810 1500.1414 0.0000 0.0000 1780.1663 -7506.9939 302.2336 -9287.1601 -7464.1297 298.6529 285.0021 352.0920 30361.6271 157.2006 243.9168
ENERGY: 600000 3.6532 7.8971 10.1979 0.0000 -10636.6637 1350.8862 0.0000 0.0000 1770.2175 -7493.8118 300.5445 -9264.0293 -7434.3709 299.6116 -994.5923 -895.4820 30505.3700 -143.5258 -53.1652
ENERGY: 900000 2.3109 9.9974 6.1438 0.0000 -10609.6353 1360.7455 0.0000 0.0000 1768.4369 -7462.0010 300.2422 -9230.4379 -7438.5959 299.7898 -332.8873 -306.7180 30436.3741 -122.4148 -42.6093
ENERGY: 1200000 6.8209 10.1341 10.4418 0.0000 -10795.2424 1521.8390 0.0000 0.0000 1830.2802 -7415.7265 310.7419 -9246.0066 -7442.6951 299.9794 765.3862 791.9987 30135.9790 -74.1399 1.0546
ENERGY: 1500000 8.6702 5.3268 8.2269 0.0000 -10558.4218 1358.2378 0.0000 0.0000 1753.0867 -7424.8734 297.6361 -9177.9601 -7438.3126 299.5936 -609.0494 -543.8498 30701.1681 -136.6983 -60.7892
TCL: Running FEP window  11: Lambda1 0.4999999999999996 Lambda2 0.4499999999999996 [dLambda -0.04999999999999999]
TCL: Setting parameter firsttimestep to 0
TCL: Setting parameter alchLambda to 0.4999999999999996
Info: NONBONDED TABLE R-SQUARED SPACING: 0.0625
Info: NONBONDED TABLE SIZE: 705 POINTS
TCL: Setting parameter alchLambda2 to 0.4499999999999996
Info: NONBONDED TABLE R-SQUARED SPACING: 0.0625
Info: NONBONDED TABLE SIZE: 705 POINTS
TCL: Running for 1500000 steps
ETITLE: TS BOND ANGLE DIHED IMPRP ELECT VDW BOUNDARY MISC KINETIC TOTAL TEMP POTENTIAL TOTALAVG TEMPAVG PRESSURE GPRESSURE VOLUME PRESSAVG GPRESSAVG
ENERGY: 0 8.6702 5.3268 8.2269 0.0000 -10557.6846 1358.7069 0.0000 0.0000 1752.1789 -7424.5749 297.4820 -9176.7538 -7424.5749 297.4820 -640.3655 -545.9940 30701.1681 -640.3655 -545.9940
ENERGY: 300000 4.9565 11.0738 10.1178 0.0000 -10748.1988 1517.0625 0.0000 0.0000 1755.6721 -7449.3161 298.0750 -9204.9882 -7433.6701 300.0008 758.1697 813.6586 30364.7943 50.8838 127.1446
ENERGY: 600000 3.0247 14.7686 5.7220 0.0000 -10548.4311 1391.4648 0.0000 0.0000 1796.1581 -7337.2930 304.9487 -9133.4510 -7418.8103 301.9957 -338.0805 -258.1210 30623.9330 -61.7053 -4.1143
ENERGY: 900000 4.0709 9.7219 6.3238 0.0000 -10680.1504 1511.8265 0.0000 0.0000 1787.1773 -7361.0298 303.4239 -9148.2071 -7405.0592 302.5397 596.9792 704.8735 30488.1038 -36.3309 28.8182
ENERGY: 1200000 2.6478 6.5550 4.6263 0.0000 -10646.3876 1411.5406 0.0000 0.0000 1760.7834 -7460.2346 298.9428 -9221.0180 -7398.8696 302.2744 -58.5023 36.7608 30122.7962 -69.2142 -3.4716
ENERGY: 1500000 9.9340 12.4746 2.8299 0.0000 -10689.1039 1462.7152 0.0000 0.0000 1766.2404 -7434.9099 299.8693 -9201.1502 -7405.4268 302.5263 -193.8700 -195.6026 30789.5356 -111.4571 -52.9482
TCL: Running FEP window  12: Lambda1 0.4499999999999996 Lambda2 0.39999999999999963 [dLambda -0.04999999999999999]
TCL: Setting parameter firsttimestep to 0
TCL: Setting parameter alchLambda to 0.4499999999999996
Info: NONBONDED TABLE R-SQUARED SPACING: 0.0625
Info: NONBONDED TABLE SIZE: 705 POINTS
TCL: Setting parameter alchLambda2 to 0.39999999999999963
Info: NONBONDED TABLE R-SQUARED SPACING: 0.0625
Info: NONBONDED TABLE SIZE: 705 POINTS
TCL: Running for 1500000 steps
ETITLE: TS BOND ANGLE DIHED IMPRP ELECT VDW BOUNDARY MISC KINETIC TOTAL TEMP POTENTIAL TOTALAVG TEMPAVG PRESSURE GPRESSURE VOLUME PRESSAVG GPRESSAVG
ENERGY: 0 9.9340 12.4746 2.8299 0.0000 -10689.1055 1463.2405 0.0000 0.0000 1765.3808 -7435.2457 299.7234 -9200.6265 -7435.2457 299.7234 -263.4394 -199.8832 30789.5356 -263.4394 -199.8832
ENERGY: 300000 5.4045 19.2261 5.4917 0.0000 -10623.2655 1390.6244 0.0000 0.0000 1820.3190 -7382.1998 309.0507 -9202.5188 -7430.6912 300.9987 -370.9899 -235.6599 30255.9998 -237.7556 -147.0468
ENERGY: 600000 3.3217 10.9032 7.5698 0.0000 -10574.9761 1415.7996 0.0000 0.0000 1815.6253 -7321.7565 308.2538 -9137.3818 -7397.1137 300.9833 262.2793 310.9465 30312.6105 -52.6930 16.2954
ENERGY: 900000 1.9829 11.5331 6.5934 0.0000 -10712.1553 1511.1593 0.0000 0.0000 1797.3038 -7383.5827 305.1432 -9180.8865 -7403.3450 300.2448 616.8732 658.2877 30529.2539 5.3817 62.3764
ENERGY: 1200000 6.7825 7.1843 7.6253 0.0000 -10663.7793 1447.5934 0.0000 0.0000 1757.6720 -7436.9219 298.4146 -9194.5939 -7425.7074 299.8750 99.9925 133.0009 30473.3863 -17.9320 40.8224
ENERGY: 1500000 9.6926 4.5580 8.0404 0.0000 -10665.9594 1423.9733 0.0000 0.0000 1759.9550 -7459.7401 298.8022 -9219.6951 -7435.9533 298.9091 -650.8474 -533.1241 30599.3403 -115.1693 -52.4758
TCL: Running FEP window  13: Lambda1 0.39999999999999963 Lambda2 0.34999999999999964 [dLambda -0.04999999999999999]
TCL: Setting parameter firsttimestep to 0
TCL: Setting parameter alchLambda to 0.39999999999999963
Info: NONBONDED TABLE R-SQUARED SPACING: 0.0625
Info: NONBONDED TABLE SIZE: 705 POINTS
TCL: Setting parameter alchLambda2 to 0.34999999999999964
Info: NONBONDED TABLE R-SQUARED SPACING: 0.0625
Info: NONBONDED TABLE SIZE: 705 POINTS
TCL: Running for 1500000 steps
ETITLE: TS BOND ANGLE DIHED IMPRP ELECT VDW BOUNDARY MISC KINETIC TOTAL TEMP POTENTIAL TOTALAVG TEMPAVG PRESSURE GPRESSURE VOLUME PRESSAVG GPRESSAVG
ENERGY: 0 9.6926 4.5580 8.0404 0.0000 -10665.9581 1424.7759 0.0000 0.0000 1759.1078 -7459.7834 298.6583 -9218.8912 -7459.7834 298.6583 -626.1427 -536.0582 30599.3403 -626.1427 -536.0582
ENERGY: 300000 2.7520 7.9388 6.9035 0.0000 -10671.6685 1483.7295 0.0000 0.0000 1704.8217 -7465.5230 289.4417 -9170.3446 -7447.7686 294.0743 495.6215 595.2662 30224.8201 -45.9952 55.4958
ENERGY: 600000 2.3916 3.8281 6.2529 0.0000 -10834.3172 1482.8163 0.0000 0.0000 1755.5286 -7583.4996 298.0507 -9339.0282 -7479.0739 295.2663 83.4707 107.1242 30322.8100 -37.2493 40.5597
ENERGY: 900000 3.8561 10.0382 7.7537 0.0000 -10659.4976 1448.4350 0.0000 0.0000 1785.6155 -7403.7991 303.1588 -9189.4145 -7459.4731 297.5249 142.8747 173.0702 30505.5988 -29.7184 44.9197
ENERGY: 1200000 4.0757 10.5952 8.4511 0.0000 -10669.0116 1478.4620 0.0000 0.0000 1757.9345 -7409.4931 298.4591 -9167.4276 -7442.1795 297.6306 619.5101 703.4773 30137.0139 13.5523 80.5819
ENERGY: 1500000 3.7948 8.1077 11.3412 0.0000 -10610.7770 1424.4998 0.0000 0.0000 1797.0664 -7365.9671 305.1029 -9163.0334 -7434.6749 298.7466 -17.9849 6.1840 30554.2173 -19.3364 40.6332
TCL: Running FEP window  14: Lambda1 0.34999999999999964 Lambda2 0.29999999999999966 [dLambda -0.04999999999999999]
TCL: Setting parameter firsttimestep to 0
TCL: Setting parameter alchLambda to 0.34999999999999964
Info: NONBONDED TABLE R-SQUARED SPACING: 0.0625
Info: NONBONDED TABLE SIZE: 705 POINTS
TCL: Setting parameter alchLambda2 to 0.29999999999999966
Info: NONBONDED TABLE R-SQUARED SPACING: 0.0625
Info: NONBONDED TABLE SIZE: 705 POINTS
TCL: Running for 1500000 steps
ETITLE: TS BOND ANGLE DIHED IMPRP ELECT VDW BOUNDARY MISC KINETIC TOTAL TEMP POTENTIAL TOTALAVG TEMPAVG PRESSURE GPRESSURE VOLUME PRESSAVG GPRESSAVG
ENERGY: 0 3.7948 8.1077 11.3412 0.0000 -10610.7775 1424.4610 0.0000 0.0000 1796.1782 -7366.8946 304.9521 -9163.0728 -7366.8946 304.9521 -95.5597 -5.0610 30554.2173 -95.5597 -5.0610
ENERGY: 300000 6.4493 5.7510 8.5529 0.0000 -10719.6830 1442.7594 0.0000 0.0000 1766.1477 -7490.0228 299.8536 -9256.1705 -7460.0582 302.4094 -464.2822 -428.9035 30908.5136 -130.7837 -71.6180
ENERGY: 600000 4.5219 5.8644 10.5888 0.0000 -10597.2297 1375.0068 0.0000 0.0000 1814.4476 -7386.8002 308.0538 -9201.2478 -7460.5491 301.9416 -665.9169 -648.0855 30709.7859 -338.0353 -275.9648
ENERGY: 900000 5.1679 8.3834 4.1714 0.0000 -10560.3477 1443.8428 0.0000 0.0000 1832.4940 -7266.2882 311.1177 -9098.7823 -7438.6682 302.8391 685.1886 687.6870 30239.0522 -326.4328 -272.5286
ENERGY: 1200000 6.2343 9.1646 5.4476 0.0000 -10685.4235 1510.4053 0.0000 0.0000 1792.0650 -7362.1067 304.2537 -9154.1717 -7428.3013 302.4954 772.6364 811.5011 30326.0711 -218.7434 -163.2952
ENERGY: 1500000 8.4257 9.5641 6.3422 0.0000 -10640.1948 1408.7907 0.0000 0.0000 1768.6721 -7438.4000 300.2821 -9207.0721 -7426.2098 302.2675 -552.7790 -453.8441 30913.1425 -156.3809 -96.7563
TCL: Running FEP window  15: Lambda1 0.29999999999999966 Lambda2 0.24999999999999967 [dLambda -0.04999999999999999]
TCL: Setting parameter firsttimestep to 0
TCL: Setting parameter alchLambda to 0.29999999999999966
Info: NONBONDED TABLE R-SQUARED SPACING: 0.0625
Info: NONBONDED TABLE SIZE: 705 POINTS
TCL: Setting parameter alchLambda2 to 0.24999999999999967
Info: NONBONDED TABLE R-SQUARED SPACING: 0.0625
Info: NONBONDED TABLE SIZE: 705 POINTS
TCL: Running for 1500000 steps
ETITLE: TS BOND ANGLE DIHED IMPRP ELECT VDW BOUNDARY MISC KINETIC TOTAL TEMP POTENTIAL TOTALAVG TEMPAVG PRESSURE GPRESSURE VOLUME PRESSAVG GPRESSAVG
ENERGY: 0 8.4257 9.5641 6.3422 0.0000 -10640.1954 1409.6352 0.0000 0.0000 1767.7853 -7438.4429 300.1316 -9206.2282 -7438.4429 300.1316 -529.6546 -454.6304 30913.1425 -529.6546 -454.6304
ENERGY: 300000 6.3979 10.2485 6.7400 0.0000 -10729.6542 1473.7745 0.0000 0.0000 1779.3864 -7453.1069 302.1012 -9232.4933 -7450.4487 299.1607 320.0547 336.2925 30202.7543 91.7540 150.6873
ENERGY: 600000 3.1358 10.8665 6.9945 0.0000 -10772.8383 1484.8425 0.0000 0.0000 1727.2363 -7539.7627 293.2472 -9266.9990 -7444.4301 298.8328 -90.2093 -1.2262 30434.8728 -6.8300 61.3464
ENERGY: 900000 2.7488 9.6376 7.0930 0.0000 -10603.3107 1388.4600 0.0000 0.0000 1718.1580 -7477.2134 291.7059 -9195.3714 -7445.9132 297.9210 -409.6047 -376.1142 30397.8078 -208.4982 -145.4472
ENERGY: 1200000 6.4861 7.8017 9.1888 0.0000 -10650.2903 1446.7966 0.0000 0.0000 1768.2128 -7411.8042 300.2042 -9180.0170 -7441.2669 298.1521 345.7615 415.4197 29866.0523 -133.0229 -72.6441
ENERGY: 1500000 3.7720 5.3903 7.0018 0.0000 -10760.4905 1466.2279 0.0000 0.0000 1791.4872 -7486.6114 304.1557 -9278.0986 -7444.9177 299.2492 227.4346 293.5973 29821.9084 -57.3051 5.5478
TCL: Running FEP window  16: Lambda1 0.24999999999999967 Lambda2 0.19999999999999968 [dLambda -0.04999999999999999]
TCL: Setting parameter firsttimestep to 0
TCL: Setting parameter alchLambda to 0.24999999999999967
Info: NONBONDED TABLE R-SQUARED SPACING: 0.0625
Info: NONBONDED TABLE SIZE: 705 POINTS
TCL: Setting parameter alchLambda2 to 0.19999999999999968
Info: NONBONDED TABLE R-SQUARED SPACING: 0.0625
Info: NONBONDED TABLE SIZE: 705 POINTS
TCL: Running for 1500000 steps
ETITLE: TS BOND ANGLE DIHED IMPRP ELECT VDW BOUNDARY MISC KINETIC TOTAL TEMP POTENTIAL TOTALAVG TEMPAVG PRESSURE GPRESSURE VOLUME PRESSAVG GPRESSAVG
ENERGY: 0 3.7720 5.3903 7.0018 0.0000 -10760.4898 1466.1418 0.0000 0.0000 1790.5985 -7487.5854 304.0048 -9278.1839 -7487.5854 304.0048 204.2472 282.6375 29821.9084 204.2472 282.6375
ENERGY: 300000 5.4477 10.5736 6.7045 0.0000 -10743.4117 1475.1032 0.0000 0.0000 1762.6357 -7482.9470 299.2573 -9245.5827 -7436.6210 302.2402 40.7584 121.7306 30289.7465 -142.1424 -66.3435
ENERGY: 600000 3.6916 6.4003 11.2434 0.0000 -10675.7127 1434.6455 0.0000 0.0000 1725.8741 -7493.8578 293.0160 -9219.7319 -7433.4497 299.0911 25.9030 65.2466 30245.5704 -145.8878 -73.8090
ENERGY: 900000 4.5061 12.1667 7.3024 0.0000 -10759.4869 1463.7828 0.0000 0.0000 1777.6938 -7494.0353 301.8138 -9271.7291 -7439.0103 300.6822 139.6431 148.7026 30265.5824 -180.2180 -115.3378
ENERGY: 1200000 3.6846 8.7388 8.7692 0.0000 -10805.8105 1503.2022 0.0000 0.0000 1767.7111 -7513.7045 300.1190 -9281.4157 -7454.5798 300.1254 229.0527 260.3017 30353.9562 -166.7691 -107.3787
ENERGY: 1500000 3.9868 4.5245 8.7750 0.0000 -10621.0300 1433.4404 0.0000 0.0000 1799.9690 -7370.3343 305.5957 -9170.3033 -7451.6951 299.9962 94.7114 65.4514 30389.9340 -99.3674 -40.6483
TCL: Running FEP window  17: Lambda1 0.19999999999999968 Lambda2 0.1499999999999997 [dLambda -0.04999999999999999]
TCL: Setting parameter firsttimestep to 0
TCL: Setting parameter alchLambda to 0.19999999999999968
Info: NONBONDED TABLE R-SQUARED SPACING: 0.0625
Info: NONBONDED TABLE SIZE: 705 POINTS
TCL: Setting parameter alchLambda2 to 0.1499999999999997
Info: NONBONDED TABLE R-SQUARED SPACING: 0.0625
Info: NONBONDED TABLE SIZE: 705 POINTS
TCL: Running for 1500000 steps
ETITLE: TS BOND ANGLE DIHED IMPRP ELECT VDW BOUNDARY MISC KINETIC TOTAL TEMP POTENTIAL TOTALAVG TEMPAVG PRESSURE GPRESSURE VOLUME PRESSAVG GPRESSAVG
ENERGY: 0 3.9868 4.5245 8.7750 0.0000 -10621.0291 1433.6866 0.0000 0.0000 1799.0431 -7371.0131 305.4385 -9170.0562 -7371.0131 305.4385 -12.9802 62.2418 30389.9340 -12.9802 62.2418
ENERGY: 300000 2.9625 10.7176 7.7518 0.0000 -10671.4676 1398.7115 0.0000 0.0000 1739.7988 -7511.5253 295.3801 -9251.3242 -7435.3056 301.4019 -525.7920 -454.6199 30567.4516 -115.7261 -33.0410
ENERGY: 600000 3.7837 14.5212 9.8041 0.0000 -10744.8311 1433.3216 0.0000 0.0000 1803.5390 -7479.8615 306.2018 -9283.4006 -7443.1023 303.0040 207.6981 275.6178 29264.3950 5.1308 87.4161
ENERGY: 900000 4.5763 13.6651 11.1834 0.0000 -10605.6781 1421.4793 0.0000 0.0000 1788.2711 -7366.5029 303.6096 -9154.7740 -7423.2347 302.8738 93.9047 127.7499 30413.3838 -79.1964 -6.0639
ENERGY: 1200000 2.1695 10.1237 8.6521 0.0000 -10561.3140 1382.3619 0.0000 0.0000 1732.4832 -7425.5237 294.1381 -9158.0069 -7440.8060 301.1195 -176.9697 -71.8440 30211.1395 -67.9858 9.3788
ENERGY: 1500000 3.6343 6.8895 10.4051 0.0000 -10774.4939 1472.3275 0.0000 0.0000 1770.5655 -7510.6719 300.6036 -9281.2374 -7440.5932 301.1812 131.0272 168.2850 30187.2107 -74.2645 -2.6998
TCL: Running FEP window  18: Lambda1 0.1499999999999997 Lambda2 0.09999999999999969 [dLambda -0.05 ]
TCL: Setting parameter firsttimestep to 0
TCL: Setting parameter alchLambda to 0.1499999999999997
Info: NONBONDED TABLE R-SQUARED SPACING: 0.0625
Info: NONBONDED TABLE SIZE: 705 POINTS
TCL: Setting parameter alchLambda2 to 0.09999999999999969
Info: NONBONDED TABLE R-SQUARED SPACING: 0.0625
Info: NONBONDED TABLE SIZE: 705 POINTS
TCL: Running for 1500000 steps
ETITLE: TS BOND ANGLE DIHED IMPRP ELECT VDW BOUNDARY MISC KINETIC TOTAL TEMP POTENTIAL TOTALAVG TEMPAVG PRESSURE GPRESSURE VOLUME PRESSAVG GPRESSAVG
ENERGY: 0 3.6343 6.8895 10.4052 0.0000 -10774.4956 1471.8500 0.0000 0.0000 1769.7044 -7512.0122 300.4574 -9281.7166 -7512.0122 300.4574 95.1204 160.2849 30187.2107 95.1204 160.2849
ENERGY: 300000 6.7106 12.2954 7.5966 0.0000 -10816.9154 1538.6793 0.0000 0.0000 1743.7181 -7507.9154 296.0455 -9251.6335 -7462.5948 301.1018 520.7181 566.5598 30185.9048 331.3652 393.2488
ENERGY: 600000 4.7843 12.6287 6.6900 0.0000 -10702.4516 1472.1567 0.0000 0.0000 1731.8105 -7474.3813 294.0239 -9206.1918 -7486.6679 298.3648 -131.1319 -51.2227 30653.4133 133.1295 213.0720
ENERGY: 900000 3.8141 7.3687 8.7941 0.0000 -10910.6396 1560.9015 0.0000 0.0000 1795.9825 -7533.7787 304.9189 -9329.7612 -7480.2580 299.4804 713.2843 813.5350 30050.4918 100.5752 173.4209
ENERGY: 1200000 6.4208 3.5970 8.8300 0.0000 -10763.9550 1416.4417 0.0000 0.0000 1773.4901 -7555.1754 301.1001 -9328.6655 -7475.9201 300.1671 -703.9564 -604.7873 30598.9753 1.8244 75.5335
ENERGY: 1500000 5.0729 7.2712 6.0479 0.0000 -10562.2618 1373.5439 0.0000 0.0000 1761.4133 -7408.9127 299.0498 -9170.3259 -7457.4206 299.9988 -318.1863 -292.7703 30278.2112 -79.4498 -9.5135
TCL: Running FEP window  19: Lambda1 0.09999999999999969 Lambda2 0.049999999999999684 [dLambda -0.05 ]
TCL: Setting parameter firsttimestep to 0
TCL: Setting parameter alchLambda to 0.09999999999999969
Info: NONBONDED TABLE R-SQUARED SPACING: 0.0625
Info: NONBONDED TABLE SIZE: 705 POINTS
TCL: Setting parameter alchLambda2 to 0.049999999999999684
Info: NONBONDED TABLE R-SQUARED SPACING: 0.0625
Info: NONBONDED TABLE SIZE: 705 POINTS
TCL: Running for 1500000 steps
ETITLE: TS BOND ANGLE DIHED IMPRP ELECT VDW BOUNDARY MISC KINETIC TOTAL TEMP POTENTIAL TOTALAVG TEMPAVG PRESSURE GPRESSURE VOLUME PRESSAVG GPRESSAVG
ENERGY: 0 5.0729 7.2712 6.0479 0.0000 -10562.2615 1373.5088 0.0000 0.0000 1760.5354 -7409.8253 298.9007 -9170.3607 -7409.8253 298.9007 -370.8552 -297.2740 30278.2112 -370.8552 -297.2740
ENERGY: 300000 7.7325 8.0221 13.2350 0.0000 -10765.8949 1491.2638 0.0000 0.0000 1784.5318 -7461.1097 302.9748 -9245.6415 -7444.9269 302.0523 89.2076 143.4238 30444.5573 -209.0969 -139.7349
ENERGY: 600000 9.1828 10.8128 11.2320 0.0000 -10717.7655 1441.4670 0.0000 0.0000 1802.3352 -7442.7357 305.9974 -9245.0709 -7431.1573 302.5431 -263.4805 -129.1275 30112.7193 -239.1911 -164.7655
ENERGY: 900000 7.5089 7.2833 10.2716 0.0000 -10628.8596 1482.4352 0.0000 0.0000 1775.5862 -7345.7744 301.4560 -9121.3606 -7408.6406 302.5608 200.0965 286.1652 30610.8070 -257.3244 -179.4161
ENERGY: 1200000 4.3570 10.1148 5.9339 0.0000 -10628.9574 1442.0281 0.0000 0.0000 1748.0472 -7418.4763 296.7805 -9166.5235 -7413.7915 302.9264 133.4075 166.3320 30447.8251 -221.2900 -155.4728
ENERGY: 1500000 7.3688 7.1361 7.9597 0.0000 -10635.0650 1432.4379 0.0000 0.0000 1773.6849 -7406.4777 301.1332 -9180.1626 -7419.6664 303.0423 -56.9119 -28.5669 30287.7812 -217.6424 -157.8751
TCL: Running FEP window  20: Lambda1 0.049999999999999684 Lambda2 0.0    [dLambda -0.049999999999999684]
TCL: Setting parameter firsttimestep to 0
TCL: Setting parameter alchLambda to 0.049999999999999684
Info: NONBONDED TABLE R-SQUARED SPACING: 0.0625
Info: NONBONDED TABLE SIZE: 705 POINTS
TCL: Setting parameter alchLambda2 to 0.0
Info: NONBONDED TABLE R-SQUARED SPACING: 0.0625
Info: NONBONDED TABLE SIZE: 705 POINTS
TCL: Running for 1500000 steps
ETITLE: TS BOND ANGLE DIHED IMPRP ELECT VDW BOUNDARY MISC KINETIC TOTAL TEMP POTENTIAL TOTALAVG TEMPAVG PRESSURE GPRESSURE VOLUME PRESSAVG GPRESSAVG
ENERGY: 0 7.3688 7.1361 7.9597 0.0000 -10635.0646 1430.6660 0.0000 0.0000 1772.8413 -7409.0928 300.9900 -9181.9341 -7409.0928 300.9900 -128.1726 -43.2431 30287.7812 -128.1726 -43.2431
ENERGY: 300000 5.8870 9.4630 6.2333 0.0000 -10760.1641 1432.9196 0.0000 0.0000 1788.3172 -7517.3440 303.6175 -9305.6612 -7463.9295 299.7321 48.1442 109.6425 29881.6003 83.0704 126.1313
ENERGY: 600000 6.5618 16.7075 5.6886 0.0000 -10649.6229 1432.0795 0.0000 0.0000 1760.6577 -7427.9277 298.9215 -9188.5855 -7445.0915 299.3673 -210.7593 -150.1210 30880.4510 -130.7918 -52.3207
ENERGY: 900000 5.6258 11.3284 3.8109 0.0000 -10710.4397 1476.3176 0.0000 0.0000 1785.1246 -7428.2324 303.0754 -9213.3570 -7444.1985 299.6709 132.6153 199.6230 30078.7034 -138.7217 -74.3034
ENERGY: 1200000 7.5112 12.6932 7.6377 0.0000 -10669.6835 1458.7471 0.0000 0.0000 1740.6089 -7442.4854 295.5176 -9183.0943 -7444.1537 299.5130 -67.6387 -40.0640 30550.0691 -163.5539 -99.5281
ENERGY: 1500000 4.3744 6.9435 7.8740 0.0000 -10620.0464 1425.1108 0.0000 0.0000 1745.6236 -7430.1202 296.3690 -9175.7438 -7435.5461 299.3590 -255.8638 -223.9686 30453.6535 -234.9660 -173.7366
TCL: Exiting due to exit command.
