Info: SIMULATION PARAMETERS:
Info: TIMESTEP               2
Info: NUMBER OF STEPS        0
Info: STEPS PER CYCLE        10
Info: PERIODIC CELL BASIS 1  31.0994 0 0
Info: PERIODIC CELL BASIS 2  0 31.7825 0
Info: PERIODIC CELL BASIS 3  0 0 31.0496
Info: PERIODIC CELL CENTER   0 0 0
Info: WRAPPING WATERS AROUND PERIODIC BOUNDARIES ON OUTPUT.
Info: WRAPPING ALL CLUSTERS AROUND PERIODIC BOUNDARIES ON OUTPUT.
Info: FIRST LDB TIMESTEP     50
Info: LAST LDB TIMESTEP     -1
Info: HOM BACKGROUND SCALING 1
Info: PME BACKGROUND SCALING 1
Info: MIN ATOMS PER PATCH    40
Info: EMPTY PATCH LOAD       40 ATOMS
Info: VELOCITY FILE          mobley_2043882_equil.vel
Info: CENTER OF MASS MOVING INITIALLY? NO
Info: DIELECTRIC             1
Info: EXCLUDE                SCALED ONE-FOUR
Info: 1-4 ELECTROSTATICS SCALED BY 0.833333
Info: MODIFIED 1-4 VDW PARAMETERS WILL BE USED
Info: DCD FILENAME           mobley_2043882_prod.dcd
Info: DCD FREQUENCY          100000
Info: DCD FIRST STEP         100000
Info: DCD FILE WILL CONTAIN UNIT CELL DATA
Info: XST FILENAME           mobley_2043882_prod.xst
Info: XST FREQUENCY          100000
Info: NO VELOCITY DCD OUTPUT
Info: NO FORCE DCD OUTPUT
Info: OUTPUT FILENAME        mobley_2043882_prod
Info: BINARY OUTPUT FILES WILL BE USED
Info: RESTART FILENAME       mobley_2043882_prod.restart
Info: RESTART FREQUENCY      100000
Info: BINARY RESTART FILES WILL BE USED
Info: CUTOFF                 9
Info: PAIRLIST DISTANCE      11
Info: PAIRLIST SHRINK RATE   0.01
Info: PAIRLIST GROW RATE     0.01
Info: PAIRLIST TRIGGER       0.3
Info: PAIRLISTS PER CYCLE    2
Info: PAIRLISTS ENABLED
Info: MARGIN                 2
Info: HYDROGEN GROUP CUTOFF  2.5
Info: PATCH DIMENSION        15.5
Info: ENERGY OUTPUT STEPS    100000
Info: ENERGY EVALUATION STEPS    100000
Info: OUTPUT ENERGY PRECISION 4
Info: CROSSTERM ENERGY INCLUDED IN DIHEDRAL
Info: TIMING OUTPUT STEPS    1000000
Info: PRESSURE OUTPUT STEPS  100000
Info: ALCHEMICAL FEP ON
Info: FEP CURRENT LAMBDA VALUE     1
Info: FEP COMPARISON LAMBDA VALUE  0.95
Info: FEP INTRA-ALCHEMICAL NON-BONDED INTERACTIONS WILL BE RETAINED
Info: FEP INTRA-ALCHEMICAL BONDED INTERACTIONS WILL BE RETAINED
Info: FEP VDW SHIFTING COEFFICIENT 5
Info: FEP ELEC. ACTIVE FOR ANNIHILATED PARTICLES BETWEEN LAMBDA = 0 AND LAMBDA = 0.5
Info: FEP ELEC. ACTIVE FOR EXNIHILATED PARTICLES BETWEEN LAMBDA = 0.5 AND LAMBDA = 1
Info: FEP VDW ACTIVE FOR ANNIHILATED PARTICLES BETWEEN LAMBDA = 0 AND LAMBDA = 1
Info: FEP VDW ACTIVE FOR EXNIHILATED PARTICLES BETWEEN LAMBDA = 0 AND LAMBDA = 1
Info: FEP BOND ACTIVE FOR ANNIHILATED PARTICLES BETWEEN LAMBDA = 1 AND LAMBDA = 1
Info: FEP BOND ACTIVE FOR EXNIHILATED PARTICLES BETWEEN LAMBDA = 0 AND LAMBDA = 0
Info: LANGEVIN DYNAMICS ACTIVE
Info: LANGEVIN TEMPERATURE   300
Info: LANGEVIN USING BBK INTEGRATOR
Info: LANGEVIN DAMPING COEFFICIENT IS 1 INVERSE PS
Info: LANGEVIN DYNAMICS APPLIED TO HYDROGENS
Info: LANGEVIN PISTON PRESSURE CONTROL ACTIVE
Info:        TARGET PRESSURE IS 1.01325 BAR
Info:     OSCILLATION PERIOD IS 50 FS
Info:             DECAY TIME IS 25 FS
Info:     PISTON TEMPERATURE IS 300 K
Info:       PRESSURE CONTROL IS GROUP-BASED
Info:    INITIAL STRAIN RATE IS 0.000472613 0.000472613 0.000472613
Info:       CELL FLUCTUATION IS ISOTROPIC
Info: PARTICLE MESH EWALD (PME) ACTIVE
Info: PME TOLERANCE               1e-06
Info: PME EWALD COEFFICIENT       0.348832
Info: PME INTERPOLATION ORDER     4
Info: PME GRID DIMENSIONS         32 32 32
Info: PME MAXIMUM GRID SPACING    1
Info: PME CALCULATION WILL BE PERFORMED ON GPU
Info: FULL ELECTROSTATIC EVALUATION FREQUENCY      2
Info: USING VERLET I (r-RESPA) MTS SCHEME.
Info: C1 SPLITTING OF LONG RANGE ELECTROSTATICS
Info: PLACING ATOMS IN PATCHES BY HYDROGEN GROUPS
Info: RIGID BONDS TO HYDROGEN : ALL
Info:         ERROR TOLERANCE : 1e-08
Info:          MAX ITERATIONS : 100
Info: RIGID WATER USING SETTLE ALGORITHM
Info: RANDOM NUMBER SEED     1743803934
Info: USE HYDROGEN BONDS?    NO
Info: Using AMBER format force field!
Info: AMBER PARM FILE        mobley_2043882.prmtop
Info: COORDINATE PDB         mobley_2043882.pdb
Info: Exclusions will be read from PARM file!
Info: SCNB (VDW SCALING)     2
Info: USING ARITHMETIC MEAN TO COMBINE L-J SIGMA PARAMETERS
Info: BINARY COORDINATES     mobley_2043882_equil.coor
Info: SUMMARY OF PARAMETERS:
Info: 6 BONDS
Info: 7 ANGLES
Info:   7 HARMONIC
Info:   0 COSINE-BASED
Info: 11 DIHEDRAL
Info: 0 IMPROPER
Info: 0 CROSSTERM
Info: 0 VDW
Info: 21 VDW_PAIRS
Info: 0 NBTHOLE_PAIRS
Info: To read alchdata from file: mobley_2043882.pdb
Info: To read alchflag data from column: 5
Info: STRUCTURE SUMMARY:
Info: 2912 ATOMS
Info: 2912 BONDS
Info: 45 ANGLES
Info: 87 DIHEDRALS
Info: 0 IMPROPERS
Info: 0 CROSSTERMS
Info: 3020 EXCLUSIONS
Info: 2903 RIGID BONDS
Info: ALCH: 0 ATOMS TO DISAPPEAR IN FINAL STATE
Info: ALCH: 23 ATOMS TO APPEAR IN FINAL STATE
Info: 5833 DEGREES OF FREEDOM
Info: 972 HYDROGEN GROUPS
Info: 4 ATOMS IN LARGEST HYDROGEN GROUP
Info: 972 MIGRATION GROUPS
Info: 4 ATOMS IN LARGEST MIGRATION GROUP
Info: TOTAL MASS = 17475.6 amu
Info: TOTAL CHARGE = 0.000100017 e
Info: MASS DENSITY = 0.945576 g/cm^3
Info: ATOM DENSITY = 0.0948847 atoms/A^3
Info: ADDED 0 IMPLICIT EXCLUSIONS
Info: NONBONDED TABLE R-SQUARED SPACING: 0.0625
Info: NONBONDED TABLE SIZE: 705 POINTS
Info: REDUCING NUMBER OF PATCHES TO IMPROVE LOAD BALANCE
Info: REMOVING COM VELOCITY -0.0824766 -0.145549 0.0487
Info: Use 3D box decompostion in PME FFT.
Info: Updated CUDA force table with 4096 elements.
Info: Updated CUDA LJ table with 6 x 6 elements.
Info: Found 26 unique exclusion lists needing 76 bytes
TCL: Running for 1500000 steps
ETITLE: TS BOND ANGLE DIHED IMPRP ELECT VDW BOUNDARY MISC KINETIC TOTAL TEMP POTENTIAL TOTALAVG TEMPAVG PRESSURE GPRESSURE VOLUME PRESSAVG GPRESSAVG
ENERGY: 0 4.3737 9.2801 5.9860 0.0000 -10269.5141 1265.0049 0.0000 0.0000 1724.4146 -7260.4547 297.5364 -8984.8693 -7260.4547 297.5364 -1304.2417 -1228.4240 30689.8661 -1304.2417 -1228.4240
ENERGY: 300000 1.1235 12.6290 6.0917 0.0000 -10570.3477 1413.5791 0.0000 0.0000 1747.1040 -7389.8204 301.4513 -9136.9244 -7346.9378 299.7206 235.2593 298.5394 29565.9171 -13.1129 37.4410
ENERGY: 600000 5.3187 7.8678 6.0315 0.0000 -10543.8355 1421.5711 0.0000 0.0000 1785.1439 -7317.9024 308.0148 -9103.0463 -7354.2777 302.1304 -303.9283 -251.4452 30506.4685 -183.4022 -133.3215
ENERGY: 900000 4.5673 11.6815 6.6087 0.0000 -10604.0988 1415.2850 0.0000 0.0000 1766.8490 -7399.1072 304.8582 -9165.9563 -7348.6511 303.0788 -308.6453 -202.6544 29844.8331 -235.8719 -189.3768
ENERGY: 1200000 4.1135 8.4296 6.4070 0.0000 -10524.0129 1399.9901 0.0000 0.0000 1788.4365 -7316.6361 308.5830 -9105.0727 -7339.9834 304.0841 -92.0005 -151.8700 30169.6030 -174.8378 -132.6080
ENERGY: 1500000 4.5177 10.7639 6.7033 0.0000 -10528.6331 1427.6206 0.0000 0.0000 1702.9034 -7376.1241 293.8248 -9079.0276 -7343.3014 302.9533 115.1307 165.6666 29967.7166 -120.7568 -73.4222
TCL: Running FEP window   2: Lambda1 0.95   Lambda2 0.8999999999999999 [dLambda -0.050000000000000044]
TCL: Setting parameter firsttimestep to 0
TCL: Setting parameter alchLambda to 0.95
Info: NONBONDED TABLE R-SQUARED SPACING: 0.0625
Info: NONBONDED TABLE SIZE: 705 POINTS
TCL: Setting parameter alchLambda2 to 0.8999999999999999
Info: NONBONDED TABLE R-SQUARED SPACING: 0.0625
Info: NONBONDED TABLE SIZE: 705 POINTS
TCL: Running for 1500000 steps
ETITLE: TS BOND ANGLE DIHED IMPRP ELECT VDW BOUNDARY MISC KINETIC TOTAL TEMP POTENTIAL TOTALAVG TEMPAVG PRESSURE GPRESSURE VOLUME PRESSAVG GPRESSAVG
ENERGY: 0 4.5177 10.7640 6.7033 0.0000 -10526.9609 1427.0308 0.0000 0.0000 1702.0198 -7375.9253 293.6723 -9077.9451 -7375.9253 293.6723 62.2392 146.9793 29967.7166 62.2392 146.9793
ENERGY: 300000 1.6717 7.9458 6.9862 0.0000 -10447.3739 1364.3979 0.0000 0.0000 1771.5072 -7294.8652 305.6619 -9066.3724 -7368.8710 294.3177 -400.7416 -344.8936 30410.0841 -191.1318 -119.7824
ENERGY: 600000 4.2079 11.5407 6.7150 0.0000 -10582.2732 1414.9336 0.0000 0.0000 1782.1136 -7362.7624 307.4920 -9144.8760 -7361.6188 297.4476 12.6659 27.5565 29891.0404 -132.0416 -71.9322
ENERGY: 900000 1.6403 9.7184 6.2212 0.0000 -10585.5636 1421.7024 0.0000 0.0000 1751.8491 -7394.4322 302.2700 -9146.2813 -7362.1475 298.9562 -84.1723 2.4538 30077.4551 -104.4506 -35.5306
ENERGY: 1200000 2.4290 11.2403 6.1912 0.0000 -10409.9896 1403.8254 0.0000 0.0000 1732.1855 -7254.1182 298.8772 -8986.3037 -7358.5288 299.1255 -33.2143 26.3265 30686.1253 -136.5674 -66.0865
ENERGY: 1500000 0.3933 7.2117 7.4702 0.0000 -10643.2205 1459.5483 0.0000 0.0000 1737.2150 -7431.3819 299.7450 -9168.5969 -7355.8955 299.7684 323.5114 363.1147 29709.0850 -134.8117 -70.8381
TCL: Running FEP window   3: Lambda1 0.8999999999999999 Lambda2 0.8499999999999999 [dLambda -0.050000000000000044]
TCL: Setting parameter firsttimestep to 0
TCL: Setting parameter alchLambda to 0.8999999999999999
Info: NONBONDED TABLE R-SQUARED SPACING: 0.0625
Info: NONBONDED TABLE SIZE: 705 POINTS
TCL: Setting parameter alchLambda2 to 0.8499999999999999
Info: NONBONDED TABLE R-SQUARED SPACING: 0.0625
Info: NONBONDED TABLE SIZE: 705 POINTS
TCL: Running for 1500000 steps
ETITLE: TS BOND ANGLE DIHED IMPRP ELECT VDW BOUNDARY MISC KINETIC TOTAL TEMP POTENTIAL TOTALAVG TEMPAVG PRESSURE GPRESSURE VOLUME PRESSAVG GPRESSAVG
ENERGY: 0 0.3933 7.2117 7.4702 0.0000 -10641.7222 1458.3376 0.0000 0.0000 1736.3685 -7431.9409 299.5990 -9168.3093 -7431.9409 299.5990 247.0919 337.9373 29709.0850 247.0919 337.9373
ENERGY: 300000 1.5163 6.7160 6.1428 0.0000 -10385.2294 1368.0853 0.0000 0.0000 1757.5381 -7245.2309 303.2516 -9002.7690 -7313.3670 301.7724 -352.7963 -315.5862 30647.1923 28.8469 72.0314
ENERGY: 600000 5.0514 12.7456 7.4309 0.0000 -10568.5600 1377.1730 0.0000 0.0000 1678.9881 -7487.1711 289.6983 -9166.1591 -7359.4003 298.9545 -688.1437 -661.0078 30006.4500 -130.5695 -86.0387
ENERGY: 900000 1.5993 14.4845 7.5712 0.0000 -10512.9837 1360.4129 0.0000 0.0000 1769.7581 -7359.1578 305.3601 -9128.9159 -7344.0970 300.1941 -401.2872 -367.1588 29724.0978 -8.0761 43.3305
ENERGY: 1200000 4.3940 11.4033 7.2088 0.0000 -10561.8719 1385.3675 0.0000 0.0000 1765.9096 -7387.5887 304.6961 -9153.4983 -7343.1506 300.2553 -376.1429 -325.8059 29951.8036 7.8749 57.3284
ENERGY: 1500000 4.5531 15.6906 7.2911 0.0000 -10540.2456 1435.1554 0.0000 0.0000 1715.3428 -7362.2124 295.9711 -9077.5553 -7352.1608 299.6871 387.0702 323.3515 29810.0023 37.0759 78.4043
TCL: Running FEP window   4: Lambda1 0.8499999999999999 Lambda2 0.7999999999999998 [dLambda -0.050000000000000044]
TCL: Setting parameter firsttimestep to 0
TCL: Setting parameter alchLambda to 0.8499999999999999
Info: NONBONDED TABLE R-SQUARED SPACING: 0.0625
Info: NONBONDED TABLE SIZE: 705 POINTS
TCL: Setting parameter alchLambda2 to 0.7999999999999998
Info: NONBONDED TABLE R-SQUARED SPACING: 0.0625
Info: NONBONDED TABLE SIZE: 705 POINTS
TCL: Running for 1500000 steps
ETITLE: TS BOND ANGLE DIHED IMPRP ELECT VDW BOUNDARY MISC KINETIC TOTAL TEMP POTENTIAL TOTALAVG TEMPAVG PRESSURE GPRESSURE VOLUME PRESSAVG GPRESSAVG
ENERGY: 0 4.5531 15.6906 7.2911 0.0000 -10538.9822 1435.2382 0.0000 0.0000 1714.4688 -7361.7403 295.8203 -9076.2091 -7361.7403 295.8203 222.6978 311.0676 29810.0023 222.6978 311.0676
ENERGY: 300000 3.3939 11.1053 7.1588 0.0000 -10663.0065 1527.6016 0.0000 0.0000 1788.8227 -7324.9242 308.6496 -9113.7469 -7357.7817 300.0333 680.2265 812.1696 30164.5884 -7.3196 76.2656
ENERGY: 600000 4.3724 13.7521 7.0100 0.0000 -10621.8536 1438.3381 0.0000 0.0000 1751.1827 -7407.1983 302.1550 -9158.3810 -7372.3260 299.8072 170.4034 232.0729 29563.7128 -83.7194 3.9382
ENERGY: 900000 2.7434 9.4972 7.9284 0.0000 -10502.5687 1415.3648 0.0000 0.0000 1728.0208 -7339.0142 298.1586 -9067.0350 -7370.9457 299.7464 -1.3329 37.7403 29974.2478 -18.5603 56.1596
ENERGY: 1200000 2.0068 9.2722 6.2490 0.0000 -10580.3868 1449.4353 0.0000 0.0000 1735.2949 -7378.1285 299.4137 -9113.4234 -7364.0903 299.9282 268.5568 344.4776 29981.9912 -23.1313 44.8646
ENERGY: 1500000 3.7193 12.7170 6.5296 0.0000 -10353.8688 1286.3926 0.0000 0.0000 1760.6246 -7283.8857 303.7842 -9044.5103 -7367.7070 298.9921 -1148.2072 -1056.6903 30559.3238 -137.1824 -71.3515
TCL: Running FEP window   5: Lambda1 0.7999999999999998 Lambda2 0.7499999999999998 [dLambda -0.050000000000000044]
TCL: Setting parameter firsttimestep to 0
TCL: Setting parameter alchLambda to 0.7999999999999998
Info: NONBONDED TABLE R-SQUARED SPACING: 0.0625
Info: NONBONDED TABLE SIZE: 705 POINTS
TCL: Setting parameter alchLambda2 to 0.7499999999999998
Info: NONBONDED TABLE R-SQUARED SPACING: 0.0625
Info: NONBONDED TABLE SIZE: 705 POINTS
TCL: Running for 1500000 steps
ETITLE: TS BOND ANGLE DIHED IMPRP ELECT VDW BOUNDARY MISC KINETIC TOTAL TEMP POTENTIAL TOTALAVG TEMPAVG PRESSURE GPRESSURE VOLUME PRESSAVG GPRESSAVG
ENERGY: 0 3.7193 12.7170 6.5296 0.0000 -10352.9211 1286.7372 0.0000 0.0000 1759.7613 -7283.4567 303.6352 -9043.2179 -7283.4567 303.6352 -1156.1854 -1064.7475 30559.3238 -1156.1854 -1064.7475
ENERGY: 300000 9.7227 8.5273 6.8601 0.0000 -10295.6801 1252.7538 0.0000 0.0000 1747.9635 -7269.8527 301.5996 -9017.8162 -7327.6369 298.5109 -1314.0051 -1226.7562 30366.2172 -560.9880 -488.6025
ENERGY: 600000 1.4705 9.9181 6.9672 0.0000 -10506.3830 1451.7932 0.0000 0.0000 1718.5310 -7317.7031 296.5212 -9036.2341 -7321.2640 297.7583 382.5812 423.6276 29788.4717 -276.6456 -204.7262
ENERGY: 900000 1.2108 12.8225 7.0243 0.0000 -10512.0487 1385.8387 0.0000 0.0000 1780.0194 -7325.1331 307.1306 -9105.1525 -7334.9356 298.8429 -304.9378 -205.2006 29925.1180 -205.9318 -126.5087
ENERGY: 1200000 2.5796 12.7581 6.7324 0.0000 -10450.7931 1362.2425 0.0000 0.0000 1743.8554 -7322.6250 300.8908 -9066.4804 -7336.9802 298.8765 -577.4818 -538.4460 30308.1304 -232.2953 -153.3158
ENERGY: 1500000 2.9024 13.2774 6.3357 0.0000 -10508.3433 1414.0990 0.0000 0.0000 1736.0055 -7335.7234 299.5363 -9071.7289 -7343.5540 298.5017 -135.5776 -12.1925 29914.7031 -216.3795 -137.9056
TCL: Running FEP window   6: Lambda1 0.7499999999999998 Lambda2 0.6999999999999997 [dLambda -0.050000000000000044]
TCL: Setting parameter firsttimestep to 0
TCL: Setting parameter alchLambda to 0.7499999999999998
Info: NONBONDED TABLE R-SQUARED SPACING: 0.0625
Info: NONBONDED TABLE SIZE: 705 POINTS
TCL: Setting parameter alchLambda2 to 0.6999999999999997
Info: NONBONDED TABLE R-SQUARED SPACING: 0.0625
Info: NONBONDED TABLE SIZE: 705 POINTS
TCL: Running for 1500000 steps
ETITLE: TS BOND ANGLE DIHED IMPRP ELECT VDW BOUNDARY MISC KINETIC TOTAL TEMP POTENTIAL TOTALAVG TEMPAVG PRESSURE GPRESSURE VOLUME PRESSAVG GPRESSAVG
ENERGY: 0 2.9024 13.2773 6.3357 0.0000 -10507.2968 1414.2887 0.0000 0.0000 1735.1428 -7335.3498 299.3875 -9070.4926 -7335.3498 299.3875 -98.5023 -18.4179 29914.7031 -98.5023 -18.4179
ENERGY: 300000 2.1006 14.0323 7.7443 0.0000 -10503.4002 1423.8507 0.0000 0.0000 1744.3726 -7311.2996 300.9800 -9055.6722 -7342.4631 301.4819 145.7370 176.4279 30343.2393 -58.4092 -4.0366
ENERGY: 600000 2.7531 7.1993 6.5239 0.0000 -10441.2978 1363.2410 0.0000 0.0000 1742.2638 -7319.3168 300.6162 -9061.5805 -7336.9526 300.5063 -478.5704 -398.1631 30209.3616 -63.5949 -5.2256
ENERGY: 900000 1.3247 11.7962 7.5169 0.0000 -10405.5576 1361.9764 0.0000 0.0000 1766.3975 -7256.5461 304.7803 -9022.9435 -7337.0450 300.7788 -81.6120 -3.7815 29965.6494 -59.6727 1.2946
ENERGY: 1200000 3.8288 10.0946 6.7105 0.0000 -10429.3892 1329.4466 0.0000 0.0000 1692.8519 -7386.4569 292.0905 -9079.3087 -7346.0604 300.1993 -754.4733 -695.0765 29749.6772 -106.6539 -46.1713
ENERGY: 1500000 1.8138 8.4963 6.9404 0.0000 -10577.3208 1420.9433 0.0000 0.0000 1750.1508 -7388.9761 301.9770 -9139.1269 -7347.6818 300.1676 175.6853 265.7324 29674.2011 -50.0023 16.1139
TCL: Running FEP window   7: Lambda1 0.6999999999999997 Lambda2 0.6499999999999997 [dLambda -0.050000000000000044]
TCL: Setting parameter firsttimestep to 0
TCL: Setting parameter alchLambda to 0.6999999999999997
Info: NONBONDED TABLE R-SQUARED SPACING: 0.0625
Info: NONBONDED TABLE SIZE: 705 POINTS
TCL: Setting parameter alchLambda2 to 0.6499999999999997
Info: NONBONDED TABLE R-SQUARED SPACING: 0.0625
Info: NONBONDED TABLE SIZE: 705 POINTS
TCL: Running for 1500000 steps
ETITLE: TS BOND ANGLE DIHED IMPRP ELECT VDW BOUNDARY MISC KINETIC TOTAL TEMP POTENTIAL TOTALAVG TEMPAVG PRESSURE GPRESSURE VOLUME PRESSAVG GPRESSAVG
ENERGY: 0 1.8138 8.4963 6.9404 0.0000 -10576.5153 1421.0715 0.0000 0.0000 1749.2603 -7388.9330 301.8234 -9138.1932 -7388.9330 301.8234 174.7620 261.5862 29674.2011 174.7620 261.5862
ENERGY: 300000 3.2169 13.2344 6.9387 0.0000 -10594.4034 1439.0645 0.0000 0.0000 1723.4212 -7408.5277 297.3650 -9131.9489 -7391.3297 300.5906 -149.2466 -97.7205 30214.5152 21.4331 96.0088
ENERGY: 600000 1.9061 14.5372 7.3571 0.0000 -10549.5149 1408.9587 0.0000 0.0000 1670.9800 -7445.7758 288.3166 -9116.7559 -7371.1901 299.0662 -307.2615 -216.1500 30287.0067 -158.6118 -78.2396
ENERGY: 900000 2.8990 12.7838 8.2776 0.0000 -10467.3963 1423.4682 0.0000 0.0000 1683.1038 -7336.8639 290.4085 -9019.9677 -7353.1693 298.8198 114.0230 207.4105 29942.3019 27.5500 104.3649
ENERGY: 1200000 1.6147 13.4757 7.6694 0.0000 -10492.2469 1408.5509 0.0000 0.0000 1762.7025 -7298.2338 304.1427 -9060.9363 -7345.3918 299.4716 243.1141 266.1006 29823.5861 -10.0381 67.0467
ENERGY: 1500000 3.0996 10.1571 6.5832 0.0000 -10519.0865 1426.4359 0.0000 0.0000 1785.8160 -7286.9946 308.1308 -9072.8106 -7345.8486 299.8874 27.3244 112.1522 29961.0948 67.0711 140.9746
TCL: Running FEP window   8: Lambda1 0.6499999999999997 Lambda2 0.5999999999999996 [dLambda -0.050000000000000044]
TCL: Setting parameter firsttimestep to 0
TCL: Setting parameter alchLambda to 0.6499999999999997
Info: NONBONDED TABLE R-SQUARED SPACING: 0.0625
Info: NONBONDED TABLE SIZE: 705 POINTS
TCL: Setting parameter alchLambda2 to 0.5999999999999996
Info: NONBONDED TABLE R-SQUARED SPACING: 0.0625
Info: NONBONDED TABLE SIZE: 705 POINTS
TCL: Running for 1500000 steps
ETITLE: TS BOND ANGLE DIHED IMPRP ELECT VDW BOUNDARY MISC KINETIC TOTAL TEMP POTENTIAL TOTALAVG TEMPAVG PRESSURE GPRESSURE VOLUME PRESSAVG GPRESSAVG
ENERGY: 0 3.0996 10.1571 6.5832 0.0000 -10518.3635 1426.6391 0.0000 0.0000 1784.9520 -7286.9325 307.9817 -9071.8845 -7286.9325 307.9817 21.1415 104.7297 29961.0948 21.1415 104.7297
ENERGY: 300000 2.5769 13.3663 6.5837 0.0000 -10591.4540 1501.6370 0.0000 0.0000 1754.9895 -7312.3006 302.8119 -9067.2900 -7343.6535 304.2873 1014.2486 1128.0987 29354.0337 575.9063 645.9175
ENERGY: 600000 1.3308 8.5286 6.6092 0.0000 -10526.1592 1444.1618 0.0000 0.0000 1707.1402 -7358.3886 294.5558 -9065.5288 -7354.7916 300.3399 135.8790 228.3344 30109.9428 338.4232 411.9755
ENERGY: 900000 3.8059 9.9697 7.2650 0.0000 -10645.1274 1489.3907 0.0000 0.0000 1735.3924 -7399.3038 299.4305 -9134.6961 -7355.9647 299.6815 420.9761 501.4251 30014.0646 197.4589 264.5404
ENERGY: 1200000 3.3859 10.2956 6.8789 0.0000 -10688.1686 1532.2867 0.0000 0.0000 1691.9015 -7443.4201 291.9265 -9135.3216 -7358.0371 299.7385 1029.4183 1077.4378 29834.8612 221.9647 289.4311
ENERGY: 1500000 1.4751 16.0485 7.4593 0.0000 -10537.0682 1434.7242 0.0000 0.0000 1710.1035 -7367.2577 295.0671 -9077.3612 -7362.1828 298.3501 82.3390 106.1653 30191.2280 171.6876 235.8216
TCL: Running FEP window   9: Lambda1 0.5999999999999996 Lambda2 0.5499999999999996 [dLambda -0.050000000000000044]
TCL: Setting parameter firsttimestep to 0
TCL: Setting parameter alchLambda to 0.5999999999999996
Info: NONBONDED TABLE R-SQUARED SPACING: 0.0625
Info: NONBONDED TABLE SIZE: 705 POINTS
TCL: Setting parameter alchLambda2 to 0.5499999999999996
Info: NONBONDED TABLE R-SQUARED SPACING: 0.0625
Info: NONBONDED TABLE SIZE: 705 POINTS
TCL: Running for 1500000 steps
ETITLE: TS BOND ANGLE DIHED IMPRP ELECT VDW BOUNDARY MISC KINETIC TOTAL TEMP POTENTIAL TOTALAVG TEMPAVG PRESSURE GPRESSURE VOLUME PRESSAVG GPRESSAVG
ENERGY: 0 1.4751 16.0485 7.4593 0.0000 -10536.4465 1435.2185 0.0000 0.0000 1709.2430 -7367.0020 294.9186 -9076.2451 -7367.0020 294.9186 16.5330 106.6785 30191.2280 16.5330 106.6785
ENERGY: 300000 1.4766 9.8797 6.4084 0.0000 -10434.3484 1377.7385 0.0000 0.0000 1709.3956 -7329.4496 294.9450 -9038.8452 -7391.4918 292.8285 -426.7548 -339.3012 30512.5897 -178.7109 -101.7264
ENERGY: 600000 7.1769 9.3322 7.0276 0.0000 -10517.4552 1426.8104 0.0000 0.0000 1796.4741 -7270.6341 309.9698 -9067.1082 -7335.3323 298.2158 368.8928 438.6872 29646.2332 30.7851 101.2035
ENERGY: 900000 2.6384 11.5766 6.0491 0.0000 -10537.5762 1410.1817 0.0000 0.0000 1727.6365 -7379.4940 298.0923 -9107.1305 -7343.1449 297.7916 1.0523 47.2090 29587.4570 -12.2749 55.2293
ENERGY: 1200000 2.9471 5.8535 6.1666 0.0000 -10546.2763 1482.0262 0.0000 0.0000 1782.3789 -7266.9041 307.5378 -9049.2830 -7349.2017 299.1691 465.7140 570.3354 29981.6179 -30.7856 45.6420
ENERGY: 1500000 1.9998 13.7424 7.0614 0.0000 -10576.9715 1451.6891 0.0000 0.0000 1755.1648 -7347.3140 302.8421 -9102.4787 -7345.7117 300.0319 280.9670 327.0019 30052.7010 -12.1497 64.7146
TCL: Running FEP window  10: Lambda1 0.5499999999999996 Lambda2 0.4999999999999996 [dLambda -0.04999999999999999]
TCL: Setting parameter firsttimestep to 0
TCL: Setting parameter alchLambda to 0.5499999999999996
Info: NONBONDED TABLE R-SQUARED SPACING: 0.0625
Info: NONBONDED TABLE SIZE: 705 POINTS
TCL: Setting parameter alchLambda2 to 0.4999999999999996
Info: NONBONDED TABLE R-SQUARED SPACING: 0.0625
Info: NONBONDED TABLE SIZE: 705 POINTS
TCL: Running for 1500000 steps
ETITLE: TS BOND ANGLE DIHED IMPRP ELECT VDW BOUNDARY MISC KINETIC TOTAL TEMP POTENTIAL TOTALAVG TEMPAVG PRESSURE GPRESSURE VOLUME PRESSAVG GPRESSAVG
ENERGY: 0 1.9998 13.7424 7.0614 0.0000 -10576.5042 1451.4240 0.0000 0.0000 1754.3103 -7347.9663 302.6947 -9102.2766 -7347.9663 302.6947 229.3021 313.6822 30052.7010 229.3021 313.6822
ENERGY: 300000 2.3510 13.3363 6.1126 0.0000 -10479.3376 1381.1376 0.0000 0.0000 1710.0114 -7366.3887 295.0512 -9076.4001 -7363.7131 298.3187 -25.2081 52.0375 29768.7547 -73.9230 -12.0212
ENERGY: 600000 1.0459 14.3012 7.0545 0.0000 -10461.8243 1295.3105 0.0000 0.0000 1752.8258 -7391.2864 302.4386 -9144.1123 -7352.8737 300.1148 -1014.6950 -918.6233 29604.1451 -209.1196 -135.4682
ENERGY: 900000 4.0414 14.5410 7.0815 0.0000 -10424.0671 1348.1598 0.0000 0.0000 1703.9228 -7346.3206 294.0007 -9050.2434 -7339.2791 299.2098 -543.8837 -541.3689 30298.5302 -214.7046 -151.5359
ENERGY: 1200000 2.7261 9.6356 6.3146 0.0000 -10447.9211 1391.4510 0.0000 0.0000 1773.4348 -7264.3590 305.9945 -9037.7938 -7340.8717 298.7482 -39.4117 11.5562 29831.0489 -152.3880 -90.5725
ENERGY: 1500000 4.0624 15.0805 7.1595 0.0000 -10490.6083 1332.1706 0.0000 0.0000 1705.0566 -7427.0786 294.1963 -9132.1353 -7338.9727 298.9675 -839.0890 -813.3788 30053.0715 -216.4920 -154.4588
TCL: Running FEP window  11: Lambda1 0.4999999999999996 Lambda2 0.4499999999999996 [dLambda -0.04999999999999999]
TCL: Setting parameter firsttimestep to 0
TCL: Setting parameter alchLambda to 0.4999999999999996
Info: NONBONDED TABLE R-SQUARED SPACING: 0.0625
Info: NONBONDED TABLE SIZE: 705 POINTS
TCL: Setting parameter alchLambda2 to 0.4499999999999996
Info: NONBONDED TABLE R-SQUARED SPACING: 0.0625
Info: NONBONDED TABLE SIZE: 705 POINTS
TCL: Running for 1500000 steps
ETITLE: TS BOND ANGLE DIHED IMPRP ELECT VDW BOUNDARY MISC KINETIC TOTAL TEMP POTENTIAL TOTALAVG TEMPAVG PRESSURE GPRESSURE VOLUME PRESSAVG GPRESSAVG
ENERGY: 0 4.0624 15.0805 7.1595 0.0000 -10489.4985 1332.4805 0.0000 0.0000 1704.1956 -7426.5200 294.0477 -9130.7155 -7426.5200 294.0477 -899.8163 -814.8932 30053.0715 -899.8163 -814.8932
ENERGY: 300000 3.1573 10.3213 7.1730 0.0000 -10529.2434 1424.9597 0.0000 0.0000 1771.0612 -7312.5710 305.5850 -9083.6322 -7337.9117 301.8511 453.2349 526.3939 29455.0322 -255.6917 -184.0471
ENERGY: 600000 4.2689 7.8388 5.8137 0.0000 -10492.0792 1390.6354 0.0000 0.0000 1745.1228 -7338.3996 301.1095 -9083.5224 -7321.8224 302.5625 -455.6018 -388.2015 30150.9104 -308.8742 -241.6228
ENERGY: 900000 4.4446 10.1758 6.5673 0.0000 -10452.0518 1366.0464 0.0000 0.0000 1745.0384 -7319.7794 301.0949 -9064.8177 -7338.4766 301.3476 -471.2628 -445.6081 30133.0477 -212.9647 -152.3552
ENERGY: 1200000 3.9737 10.9397 5.9243 0.0000 -10475.2250 1381.2072 0.0000 0.0000 1771.0497 -7302.1305 305.5830 -9073.1802 -7330.1927 302.8362 -440.8329 -346.3961 30043.6750 -188.7319 -127.1502
ENERGY: 1500000 4.4419 12.6645 5.8760 0.0000 -10519.0438 1410.5477 0.0000 0.0000 1702.1814 -7383.3324 293.7002 -9085.5138 -7337.5084 301.8165 -169.7720 -38.4310 29901.9561 -195.2881 -131.5907
TCL: Running FEP window  12: Lambda1 0.4499999999999996 Lambda2 0.39999999999999963 [dLambda -0.04999999999999999]
TCL: Setting parameter firsttimestep to 0
TCL: Setting parameter alchLambda to 0.4499999999999996
Info: NONBONDED TABLE R-SQUARED SPACING: 0.0625
Info: NONBONDED TABLE SIZE: 705 POINTS
TCL: Setting parameter alchLambda2 to 0.39999999999999963
Info: NONBONDED TABLE R-SQUARED SPACING: 0.0625
Info: NONBONDED TABLE SIZE: 705 POINTS
TCL: Running for 1500000 steps
ETITLE: TS BOND ANGLE DIHED IMPRP ELECT VDW BOUNDARY MISC KINETIC TOTAL TEMP POTENTIAL TOTALAVG TEMPAVG PRESSURE GPRESSURE VOLUME PRESSAVG GPRESSAVG
ENERGY: 0 4.4419 12.6645 5.8760 0.0000 -10519.0441 1410.8093 0.0000 0.0000 1701.3125 -7383.9400 293.5503 -9085.2525 -7383.9400 293.5503 -131.8971 -41.1139 29901.9561 -131.8971 -41.1139
ENERGY: 300000 2.4722 11.2343 6.9685 0.0000 -10578.9746 1459.6188 0.0000 0.0000 1699.9068 -7398.7740 293.3077 -9098.6808 -7350.9466 295.3623 293.5553 349.0147 29752.8109 -144.8488 -70.8494
ENERGY: 600000 3.5641 10.3817 6.3612 0.0000 -10399.5952 1294.3081 0.0000 0.0000 1729.2489 -7355.7312 298.3705 -9084.9801 -7332.2029 299.0068 -1036.2128 -984.3746 30215.9010 -290.7184 -226.3411
ENERGY: 900000 1.3939 11.8201 6.3881 0.0000 -10478.2815 1343.0686 0.0000 0.0000 1723.8342 -7391.7766 297.4363 -9115.6109 -7336.0107 299.6081 -576.0156 -542.8163 29572.6626 -181.7502 -126.5330
ENERGY: 1200000 1.9899 11.3591 6.7639 0.0000 -10326.3319 1331.0271 0.0000 0.0000 1734.1259 -7241.0659 299.2120 -8975.1918 -7339.4111 298.6196 -239.2362 -186.9819 29871.3521 -184.8478 -129.1073
ENERGY: 1500000 4.6025 9.1213 7.2798 0.0000 -10411.3223 1312.3251 0.0000 0.0000 1688.4671 -7389.5265 291.3339 -9077.9936 -7338.4206 298.6434 -828.4400 -719.1923 29736.2528 -200.5450 -142.9158
TCL: Running FEP window  13: Lambda1 0.39999999999999963 Lambda2 0.34999999999999964 [dLambda -0.04999999999999999]
TCL: Setting parameter firsttimestep to 0
TCL: Setting parameter alchLambda to 0.39999999999999963
Info: NONBONDED TABLE R-SQUARED SPACING: 0.0625
Info: NONBONDED TABLE SIZE: 705 POINTS
TCL: Setting parameter alchLambda2 to 0.34999999999999964
Info: NONBONDED TABLE R-SQUARED SPACING: 0.0625
Info: NONBONDED TABLE SIZE: 705 POINTS
TCL: Running for 1500000 steps
ETITLE: TS BOND ANGLE DIHED IMPRP ELECT VDW BOUNDARY MISC KINETIC TOTAL TEMP POTENTIAL TOTALAVG TEMPAVG PRESSURE GPRESSURE VOLUME PRESSAVG GPRESSAVG
ENERGY: 0 4.6025 9.1213 7.2798 0.0000 -10411.3218 1312.7544 0.0000 0.0000 1687.5849 -7389.9789 291.1817 -9077.5638 -7389.9789 291.1817 -798.9619 -722.1130 29736.2528 -798.9619 -722.1130
ENERGY: 300000 3.2982 12.6756 6.0269 0.0000 -10622.0319 1400.3106 0.0000 0.0000 1733.9232 -7465.7974 299.1770 -9199.7206 -7411.9534 298.1229 -658.1642 -622.1135 30141.2756 -264.1623 -220.6996
ENERGY: 600000 3.1895 15.2939 7.1636 0.0000 -10419.2369 1364.6864 0.0000 0.0000 1784.5297 -7244.3738 307.9089 -9028.9035 -7362.1677 300.5516 -401.3114 -361.0835 30351.8768 -363.7834 -325.8285
ENERGY: 900000 3.8338 8.7180 6.2965 0.0000 -10452.8505 1355.2775 0.0000 0.0000 1733.4657 -7345.2590 299.0981 -9078.7247 -7367.9777 300.4951 -354.8202 -327.7814 29750.0381 -361.6558 -320.5902
ENERGY: 1200000 3.5126 12.1714 6.9286 0.0000 -10358.5078 1277.6918 0.0000 0.0000 1740.0794 -7318.1239 300.2393 -9058.2033 -7362.4072 300.9545 -1113.1382 -1045.8927 30170.3463 -390.1502 -353.9462
ENERGY: 1500000 5.6534 11.5985 6.0234 0.0000 -10480.1574 1356.1519 0.0000 0.0000 1755.1810 -7345.5493 302.8449 -9100.7302 -7363.4099 300.5314 -632.1633 -544.5431 30056.0960 -310.1580 -265.4296
TCL: Running FEP window  14: Lambda1 0.34999999999999964 Lambda2 0.29999999999999966 [dLambda -0.04999999999999999]
TCL: Setting parameter firsttimestep to 0
TCL: Setting parameter alchLambda to 0.34999999999999964
Info: NONBONDED TABLE R-SQUARED SPACING: 0.0625
Info: NONBONDED TABLE SIZE: 705 POINTS
TCL: Setting parameter alchLambda2 to 0.29999999999999966
Info: NONBONDED TABLE R-SQUARED SPACING: 0.0625
Info: NONBONDED TABLE SIZE: 705 POINTS
TCL: Running for 1500000 steps
ETITLE: TS BOND ANGLE DIHED IMPRP ELECT VDW BOUNDARY MISC KINETIC TOTAL TEMP POTENTIAL TOTALAVG TEMPAVG PRESSURE GPRESSURE VOLUME PRESSAVG GPRESSAVG
ENERGY: 0 5.6534 11.5985 6.0234 0.0000 -10480.1583 1356.9644 0.0000 0.0000 1754.3030 -7345.6155 302.6934 -9099.9185 -7345.6155 302.6934 -641.5757 -539.9899 30056.0960 -641.5757 -539.9899
ENERGY: 300000 2.1135 16.0407 6.4437 0.0000 -10554.8855 1398.2293 0.0000 0.0000 1728.8290 -7403.2294 298.2981 -9132.0583 -7372.4730 302.6886 -310.5071 -230.6170 29982.0497 -362.6537 -297.9508
ENERGY: 600000 2.3848 12.2742 6.5620 0.0000 -10523.7361 1436.5201 0.0000 0.0000 1729.3023 -7336.6927 298.3797 -9065.9950 -7326.6997 301.8309 420.9301 532.3209 29513.4007 -102.3530 -35.9142
ENERGY: 900000 4.1891 7.1984 5.9592 0.0000 -10484.6813 1401.8969 0.0000 0.0000 1721.9943 -7343.4435 297.1188 -9065.4377 -7339.4353 301.0952 231.4350 343.5445 29744.4523 -84.0822 -9.7065
ENERGY: 1200000 2.6392 7.7177 6.6169 0.0000 -10531.4077 1388.6953 0.0000 0.0000 1794.8582 -7330.8804 309.6910 -9125.7386 -7336.9538 301.4362 47.8714 169.3721 29266.0545 23.0088 96.6089
ENERGY: 1500000 4.9459 10.0472 6.0836 0.0000 -10622.1599 1421.2292 0.0000 0.0000 1741.0553 -7438.7987 300.4076 -9179.8540 -7351.8063 300.5197 -169.4923 -87.2450 29569.7834 -9.8696 64.2051
TCL: Running FEP window  15: Lambda1 0.29999999999999966 Lambda2 0.24999999999999967 [dLambda -0.04999999999999999]
TCL: Setting parameter firsttimestep to 0
TCL: Setting parameter alchLambda to 0.29999999999999966
Info: NONBONDED TABLE R-SQUARED SPACING: 0.0625
Info: NONBONDED TABLE SIZE: 705 POINTS
TCL: Setting parameter alchLambda2 to 0.24999999999999967
Info: NONBONDED TABLE R-SQUARED SPACING: 0.0625
Info: NONBONDED TABLE SIZE: 705 POINTS
TCL: Running for 1500000 steps
ETITLE: TS BOND ANGLE DIHED IMPRP ELECT VDW BOUNDARY MISC KINETIC TOTAL TEMP POTENTIAL TOTALAVG TEMPAVG PRESSURE GPRESSURE VOLUME PRESSAVG GPRESSAVG
ENERGY: 0 4.9459 10.0472 6.0836 0.0000 -10622.1600 1421.5563 0.0000 0.0000 1740.1920 -7439.3351 300.2587 -9179.5271 -7439.3351 300.2587 -181.6749 -89.3338 29569.7834 -181.6749 -89.3338
ENERGY: 300000 4.5950 12.3794 6.2682 0.0000 -10456.3488 1390.5412 0.0000 0.0000 1699.5571 -7343.0079 293.2474 -9042.5650 -7403.5824 297.6483 -631.7448 -560.2384 30653.5549 -171.0554 -101.1358
ENERGY: 600000 3.5469 9.8945 5.7493 0.0000 -10577.1100 1443.6232 0.0000 0.0000 1743.9220 -7370.3741 300.9023 -9114.2961 -7394.4880 298.0730 48.1837 49.3410 29916.9354 -148.0476 -90.0522
ENERGY: 900000 0.8035 8.3639 7.0341 0.0000 -10550.2477 1376.4435 0.0000 0.0000 1693.2540 -7464.3488 292.1598 -9157.6027 -7380.8036 299.2922 -453.3857 -491.6635 29900.6444 -201.0099 -153.4830
ENERGY: 1200000 3.2598 12.1516 6.4821 0.0000 -10550.4484 1487.2430 0.0000 0.0000 1690.4588 -7350.8531 291.6776 -9041.3119 -7372.2753 298.5508 975.6022 1030.1520 29459.5472 -99.5174 -45.9350
ENERGY: 1500000 3.2615 14.5484 7.2690 0.0000 -10517.4815 1364.2510 0.0000 0.0000 1683.4854 -7444.6662 290.4743 -9128.1516 -7374.6485 297.7663 -719.3472 -622.1804 29906.5475 -176.7149 -119.5368
TCL: Running FEP window  16: Lambda1 0.24999999999999967 Lambda2 0.19999999999999968 [dLambda -0.04999999999999999]
TCL: Setting parameter firsttimestep to 0
TCL: Setting parameter alchLambda to 0.24999999999999967
Info: NONBONDED TABLE R-SQUARED SPACING: 0.0625
Info: NONBONDED TABLE SIZE: 705 POINTS
TCL: Setting parameter alchLambda2 to 0.19999999999999968
Info: NONBONDED TABLE R-SQUARED SPACING: 0.0625
Info: NONBONDED TABLE SIZE: 705 POINTS
TCL: Running for 1500000 steps
ETITLE: TS BOND ANGLE DIHED IMPRP ELECT VDW BOUNDARY MISC KINETIC TOTAL TEMP POTENTIAL TOTALAVG TEMPAVG PRESSURE GPRESSURE VOLUME PRESSAVG GPRESSAVG
ENERGY: 0 3.2615 14.5484 7.2690 0.0000 -10517.4810 1364.1508 0.0000 0.0000 1682.5780 -7445.6732 290.3178 -9128.2512 -7445.6732 290.3178 -703.8719 -628.9974 29906.5475 -703.8719 -628.9974
ENERGY: 300000 4.4863 13.5160 6.9895 0.0000 -10387.4079 1363.3872 0.0000 0.0000 1745.8259 -7253.2030 301.2308 -8999.0289 -7332.0672 301.1977 -369.2136 -400.5332 30322.2879 -237.8540 -197.0406
ENERGY: 600000 3.2378 9.1064 6.3174 0.0000 -10490.8380 1438.1542 0.0000 0.0000 1747.8374 -7286.1848 301.5778 -9034.0222 -7326.2545 301.5002 404.7197 463.6826 29770.1430 -175.9796 -128.6134
ENERGY: 900000 3.9626 9.0918 6.7672 0.0000 -10595.7123 1498.8657 0.0000 0.0000 1718.2299 -7358.7951 296.4693 -9077.0250 -7340.5929 299.9658 565.4596 616.4665 29622.4285 -49.3004 1.0147
ENERGY: 1200000 2.6736 8.2769 6.8417 0.0000 -10547.2741 1408.8583 0.0000 0.0000 1700.1847 -7420.4389 293.3557 -9120.6237 -7344.9601 299.2342 -179.6886 -110.1722 29810.4039 -44.1650 10.7206
ENERGY: 1500000 5.7286 12.5648 8.3982 0.0000 -10577.8704 1382.6507 0.0000 0.0000 1751.9904 -7416.5377 302.2944 -9168.5281 -7344.7518 299.4505 -675.5294 -600.7027 29927.6127 -75.3829 -17.5035
TCL: Running FEP window  17: Lambda1 0.19999999999999968 Lambda2 0.1499999999999997 [dLambda -0.04999999999999999]
TCL: Setting parameter firsttimestep to 0
TCL: Setting parameter alchLambda to 0.19999999999999968
Info: NONBONDED TABLE R-SQUARED SPACING: 0.0625
Info: NONBONDED TABLE SIZE: 705 POINTS
TCL: Setting parameter alchLambda2 to 0.1499999999999997
Info: NONBONDED TABLE R-SQUARED SPACING: 0.0625
Info: NONBONDED TABLE SIZE: 705 POINTS
TCL: Running for 1500000 steps
ETITLE: TS BOND ANGLE DIHED IMPRP ELECT VDW BOUNDARY MISC KINETIC TOTAL TEMP POTENTIAL TOTALAVG TEMPAVG PRESSURE GPRESSURE VOLUME PRESSAVG GPRESSAVG
ENERGY: 0 5.7286 12.5648 8.3982 0.0000 -10577.8693 1382.0500 0.0000 0.0000 1751.1366 -7417.9912 302.1471 -9169.1278 -7417.9912 302.1471 -693.8582 -607.8897 29927.6127 -693.8582 -607.8897
ENERGY: 300000 2.0719 14.9920 7.2289 0.0000 -10523.8487 1387.2978 0.0000 0.0000 1762.4935 -7349.7645 304.1067 -9112.2580 -7348.7023 302.4407 -42.2647 -18.2072 29525.2102 -380.6285 -288.9220
ENERGY: 600000 2.8349 8.3198 6.1421 0.0000 -10510.1999 1433.0139 0.0000 0.0000 1756.9880 -7302.9012 303.1567 -9059.8892 -7332.3001 300.7308 235.8661 303.2602 29675.6159 -207.6785 -133.4603
ENERGY: 900000 1.6809 14.7027 7.0794 0.0000 -10460.6129 1364.6095 0.0000 0.0000 1665.2076 -7407.3330 287.3206 -9072.5405 -7336.6714 298.7496 -515.0994 -504.2715 29971.7227 -200.4636 -139.8327
ENERGY: 1200000 3.1113 11.4765 6.1365 0.0000 -10526.0300 1409.5172 0.0000 0.0000 1755.9247 -7339.8638 302.9733 -9095.7886 -7343.4380 298.9033 -84.9581 -27.7531 29781.1021 -168.2152 -111.5608
ENERGY: 1500000 2.0761 8.1671 6.3660 0.0000 -10529.0396 1377.9716 0.0000 0.0000 1747.1367 -7387.3221 301.4569 -9134.4588 -7344.4375 299.2828 -359.9378 -314.5897 29863.3696 -294.4539 -236.9847
TCL: Running FEP window  18: Lambda1 0.1499999999999997 Lambda2 0.09999999999999969 [dLambda -0.05 ]
TCL: Setting parameter firsttimestep to 0
TCL: Setting parameter alchLambda to 0.1499999999999997
Info: NONBONDED TABLE R-SQUARED SPACING: 0.0625
Info: NONBONDED TABLE SIZE: 705 POINTS
TCL: Setting parameter alchLambda2 to 0.09999999999999969
Info: NONBONDED TABLE R-SQUARED SPACING: 0.0625
Info: NONBONDED TABLE SIZE: 705 POINTS
TCL: Running for 1500000 steps
ETITLE: TS BOND ANGLE DIHED IMPRP ELECT VDW BOUNDARY MISC KINETIC TOTAL TEMP POTENTIAL TOTALAVG TEMPAVG PRESSURE GPRESSURE VOLUME PRESSAVG GPRESSAVG
ENERGY: 0 2.0761 8.1671 6.3660 0.0000 -10529.0375 1378.1017 0.0000 0.0000 1746.2629 -7388.0637 301.3062 -9134.3265 -7388.0637 301.3062 -407.6122 -317.7127 29863.3696 -407.6122 -317.7127
ENERGY: 300000 4.9835 13.5883 7.2470 0.0000 -10638.1032 1457.0779 0.0000 0.0000 1789.8453 -7365.3612 308.8260 -9155.2065 -7384.3972 300.3220 64.6101 154.9632 29435.2334 -185.4091 -106.5152
ENERGY: 600000 4.4591 9.2551 7.0731 0.0000 -10467.7116 1354.7449 0.0000 0.0000 1767.1780 -7325.0015 304.9149 -9092.1795 -7354.7898 301.2705 -606.8393 -577.9502 29873.5111 -104.7393 -60.7668
ENERGY: 900000 3.9813 9.9265 6.2648 0.0000 -10579.4144 1520.7874 0.0000 0.0000 1723.4886 -7314.9659 297.3766 -9038.4545 -7342.8136 300.3347 1285.4137 1389.5755 29258.6696 36.6001 89.5344
ENERGY: 1200000 2.1946 8.6042 6.3842 0.0000 -10539.4352 1426.7149 0.0000 0.0000 1781.1068 -7314.4306 307.3183 -9095.5373 -7330.9379 301.7450 75.9213 151.8266 29764.7010 40.1693 102.6709
ENERGY: 1500000 5.7153 13.8305 6.0696 0.0000 -10417.6141 1302.3052 0.0000 0.0000 1719.5530 -7370.1405 296.6976 -9089.6935 -7342.4479 301.1624 -812.8831 -800.7505 29676.4353 -78.7298 -15.9416
TCL: Running FEP window  19: Lambda1 0.09999999999999969 Lambda2 0.049999999999999684 [dLambda -0.05 ]
TCL: Setting parameter firsttimestep to 0
TCL: Setting parameter alchLambda to 0.09999999999999969
Info: NONBONDED TABLE R-SQUARED SPACING: 0.0625
Info: NONBONDED TABLE SIZE: 705 POINTS
TCL: Setting parameter alchLambda2 to 0.049999999999999684
Info: NONBONDED TABLE R-SQUARED SPACING: 0.0625
Info: NONBONDED TABLE SIZE: 705 POINTS
TCL: Running for 1500000 steps
ETITLE: TS BOND ANGLE DIHED IMPRP ELECT VDW BOUNDARY MISC KINETIC TOTAL TEMP POTENTIAL TOTALAVG TEMPAVG PRESSURE GPRESSURE VOLUME PRESSAVG GPRESSAVG
ENERGY: 0 5.7153 13.8305 6.0696 0.0000 -10417.6150 1302.5118 0.0000 0.0000 1718.6697 -7370.8181 296.5451 -9089.4878 -7370.8181 296.5451 -894.1538 -800.1017 29676.4353 -894.1538 -800.1017
ENERGY: 300000 3.4370 9.7618 6.2054 0.0000 -10551.7328 1453.9789 0.0000 0.0000 1732.0726 -7346.2771 298.8577 -9078.3496 -7373.5883 295.4619 351.8546 394.4050 29679.1501 -293.8100 -186.3388
ENERGY: 600000 5.7023 13.2061 6.3442 0.0000 -10404.4494 1332.9287 0.0000 0.0000 1715.0043 -7331.2639 295.9127 -9046.2682 -7348.3961 296.5344 -748.7134 -689.6867 30120.1521 -227.6453 -139.1308
ENERGY: 900000 2.6872 11.2323 6.4908 0.0000 -10629.4962 1503.2502 0.0000 0.0000 1671.9858 -7433.8500 288.4901 -9105.8357 -7349.6409 297.2712 624.5635 656.0625 29659.6154 -35.5856 50.1371
ENERGY: 1200000 2.5782 10.2707 6.5969 0.0000 -10456.1050 1324.1480 0.0000 0.0000 1797.8066 -7314.7046 310.1997 -9112.5112 -7338.8360 297.9598 -807.2053 -784.6201 29859.1919 -98.7312 -19.3062
ENERGY: 1500000 3.7537 11.9025 6.7878 0.0000 -10508.8387 1362.1305 0.0000 0.0000 1748.4768 -7375.7873 301.6882 -9124.2641 -7345.0277 298.9951 -528.7092 -472.3281 29784.6699 -106.8621 -28.8636
TCL: Running FEP window  20: Lambda1 0.049999999999999684 Lambda2 0.0    [dLambda -0.049999999999999684]
TCL: Setting parameter firsttimestep to 0
TCL: Setting parameter alchLambda to 0.049999999999999684
Info: NONBONDED TABLE R-SQUARED SPACING: 0.0625
Info: NONBONDED TABLE SIZE: 705 POINTS
TCL: Setting parameter alchLambda2 to 0.0
Info: NONBONDED TABLE R-SQUARED SPACING: 0.0625
Info: NONBONDED TABLE SIZE: 705 POINTS
TCL: Running for 1500000 steps
ETITLE: TS BOND ANGLE DIHED IMPRP ELECT VDW BOUNDARY MISC KINETIC TOTAL TEMP POTENTIAL TOTALAVG TEMPAVG PRESSURE GPRESSURE VOLUME PRESSAVG GPRESSAVG
ENERGY: 0 3.7538 11.9025 6.7878 0.0000 -10508.8373 1362.2517 0.0000 0.0000 1747.6203 -7376.5212 301.5404 -9124.1415 -7376.5212 301.5404 -566.4445 -475.9338 29784.6699 -566.4445 -475.9338
ENERGY: 300000 3.2567 9.1854 7.4732 0.0000 -10381.4718 1325.7030 0.0000 0.0000 1752.5291 -7283.3243 302.3874 -9035.8535 -7330.4670 300.0204 -849.4429 -810.6296 30238.9356 -494.8677 -427.3278
ENERGY: 600000 7.4216 10.0506 6.6537 0.0000 -10363.7853 1309.4164 0.0000 0.0000 1765.5901 -7264.6528 304.6410 -9030.2429 -7346.9383 300.4746 -819.8017 -736.9235 29821.6225 -416.3141 -342.4481
ENERGY: 900000 2.3510 9.0916 5.8225 0.0000 -10476.3490 1435.4308 0.0000 0.0000 1698.7153 -7324.9378 293.1022 -9023.6532 -7340.9510 300.3343 358.0251 425.6044 29775.6478 -117.5155 -43.9550
ENERGY: 1200000 3.6986 10.5708 6.6694 0.0000 -10548.4529 1392.9412 0.0000 0.0000 1789.8905 -7344.6824 308.8338 -9134.5730 -7338.0819 301.1370 -385.4444 -294.3033 29766.4944 -124.9078 -52.4373
ENERGY: 1500000 3.5110 7.7137 11.9787 0.0000 -10563.1969 1461.4937 0.0000 0.0000 1728.5179 -7349.9820 298.2444 -9078.4999 -7342.5561 300.2390 410.1745 483.6865 29579.8257 -38.4274 29.4649
TCL: Exiting due to exit command.
