Info: SIMULATION PARAMETERS:
Info: TIMESTEP               2
Info: NUMBER OF STEPS        0
Info: STEPS PER CYCLE        10
Info: PERIODIC CELL BASIS 1  31.5515 0 0
Info: PERIODIC CELL BASIS 2  0 30.1185 0
Info: PERIODIC CELL BASIS 3  0 0 32.1607
Info: PERIODIC CELL CENTER   0 0 0
Info: WRAPPING WATERS AROUND PERIODIC BOUNDARIES ON OUTPUT.
Info: WRAPPING ALL CLUSTERS AROUND PERIODIC BOUNDARIES ON OUTPUT.
Info: FIRST LDB TIMESTEP     50
Info: LAST LDB TIMESTEP     -1
Info: HOM BACKGROUND SCALING 1
Info: PME BACKGROUND SCALING 1
Info: MIN ATOMS PER PATCH    40
Info: EMPTY PATCH LOAD       40 ATOMS
Info: VELOCITY FILE          mobley_2613240_equil.vel
Info: CENTER OF MASS MOVING INITIALLY? NO
Info: DIELECTRIC             1
Info: EXCLUDE                SCALED ONE-FOUR
Info: 1-4 ELECTROSTATICS SCALED BY 0.833333
Info: MODIFIED 1-4 VDW PARAMETERS WILL BE USED
Info: DCD FILENAME           mobley_2613240_prod.dcd
Info: DCD FREQUENCY          100000
Info: DCD FIRST STEP         100000
Info: DCD FILE WILL CONTAIN UNIT CELL DATA
Info: XST FILENAME           mobley_2613240_prod.xst
Info: XST FREQUENCY          100000
Info: NO VELOCITY DCD OUTPUT
Info: NO FORCE DCD OUTPUT
Info: OUTPUT FILENAME        mobley_2613240_prod
Info: BINARY OUTPUT FILES WILL BE USED
Info: RESTART FILENAME       mobley_2613240_prod.restart
Info: RESTART FREQUENCY      100000
Info: BINARY RESTART FILES WILL BE USED
Info: CUTOFF                 9
Info: PAIRLIST DISTANCE      11
Info: PAIRLIST SHRINK RATE   0.01
Info: PAIRLIST GROW RATE     0.01
Info: PAIRLIST TRIGGER       0.3
Info: PAIRLISTS PER CYCLE    2
Info: PAIRLISTS ENABLED
Info: MARGIN                 2
Info: HYDROGEN GROUP CUTOFF  2.5
Info: PATCH DIMENSION        15.5
Info: ENERGY OUTPUT STEPS    100000
Info: ENERGY EVALUATION STEPS    100000
Info: OUTPUT ENERGY PRECISION 4
Info: CROSSTERM ENERGY INCLUDED IN DIHEDRAL
Info: TIMING OUTPUT STEPS    1000000
Info: PRESSURE OUTPUT STEPS  100000
Info: ALCHEMICAL FEP ON
Info: FEP CURRENT LAMBDA VALUE     1
Info: FEP COMPARISON LAMBDA VALUE  0.95
Info: FEP INTRA-ALCHEMICAL NON-BONDED INTERACTIONS WILL BE RETAINED
Info: FEP INTRA-ALCHEMICAL BONDED INTERACTIONS WILL BE RETAINED
Info: FEP VDW SHIFTING COEFFICIENT 5
Info: FEP ELEC. ACTIVE FOR ANNIHILATED PARTICLES BETWEEN LAMBDA = 0 AND LAMBDA = 0.5
Info: FEP ELEC. ACTIVE FOR EXNIHILATED PARTICLES BETWEEN LAMBDA = 0.5 AND LAMBDA = 1
Info: FEP VDW ACTIVE FOR ANNIHILATED PARTICLES BETWEEN LAMBDA = 0 AND LAMBDA = 1
Info: FEP VDW ACTIVE FOR EXNIHILATED PARTICLES BETWEEN LAMBDA = 0 AND LAMBDA = 1
Info: FEP BOND ACTIVE FOR ANNIHILATED PARTICLES BETWEEN LAMBDA = 1 AND LAMBDA = 1
Info: FEP BOND ACTIVE FOR EXNIHILATED PARTICLES BETWEEN LAMBDA = 0 AND LAMBDA = 0
Info: LANGEVIN DYNAMICS ACTIVE
Info: LANGEVIN TEMPERATURE   300
Info: LANGEVIN USING BBK INTEGRATOR
Info: LANGEVIN DAMPING COEFFICIENT IS 1 INVERSE PS
Info: LANGEVIN DYNAMICS APPLIED TO HYDROGENS
Info: LANGEVIN PISTON PRESSURE CONTROL ACTIVE
Info:        TARGET PRESSURE IS 1.01325 BAR
Info:     OSCILLATION PERIOD IS 50 FS
Info:             DECAY TIME IS 25 FS
Info:     PISTON TEMPERATURE IS 300 K
Info:       PRESSURE CONTROL IS GROUP-BASED
Info:    INITIAL STRAIN RATE IS -0.0001918 -0.0001918 -0.0001918
Info:       CELL FLUCTUATION IS ISOTROPIC
Info: PARTICLE MESH EWALD (PME) ACTIVE
Info: PME TOLERANCE               1e-06
Info: PME EWALD COEFFICIENT       0.348832
Info: PME INTERPOLATION ORDER     4
Info: PME GRID DIMENSIONS         32 32 36
Info: PME MAXIMUM GRID SPACING    1
Info: PME CALCULATION WILL BE PERFORMED ON GPU
Info: FULL ELECTROSTATIC EVALUATION FREQUENCY      2
Info: USING VERLET I (r-RESPA) MTS SCHEME.
Info: C1 SPLITTING OF LONG RANGE ELECTROSTATICS
Info: PLACING ATOMS IN PATCHES BY HYDROGEN GROUPS
Info: RIGID BONDS TO HYDROGEN : ALL
Info:         ERROR TOLERANCE : 1e-08
Info:          MAX ITERATIONS : 100
Info: RIGID WATER USING SETTLE ALGORITHM
Info: RANDOM NUMBER SEED     1743865511
Info: USE HYDROGEN BONDS?    NO
Info: Using AMBER format force field!
Info: AMBER PARM FILE        mobley_2613240.prmtop
Info: COORDINATE PDB         mobley_2613240.pdb
Info: Exclusions will be read from PARM file!
Info: SCNB (VDW SCALING)     2
Info: USING ARITHMETIC MEAN TO COMBINE L-J SIGMA PARAMETERS
Info: BINARY COORDINATES     mobley_2613240_equil.coor
Info: SUMMARY OF PARAMETERS:
Info: 7 BONDS
Info: 6 ANGLES
Info:   6 HARMONIC
Info:   0 COSINE-BASED
Info: 4 DIHEDRAL
Info: 0 IMPROPER
Info: 0 CROSSTERM
Info: 0 VDW
Info: 28 VDW_PAIRS
Info: 0 NBTHOLE_PAIRS
Info: To read alchdata from file: mobley_2613240.pdb
Info: To read alchflag data from column: 5
Info: STRUCTURE SUMMARY:
Info: 2978 ATOMS
Info: 2978 BONDS
Info: 32 ANGLES
Info: 40 DIHEDRALS
Info: 0 IMPROPERS
Info: 0 CROSSTERMS
Info: 3041 EXCLUSIONS
Info: 2968 RIGID BONDS
Info: ALCH: 0 ATOMS TO DISAPPEAR IN FINAL STATE
Info: ALCH: 20 ATOMS TO APPEAR IN FINAL STATE
Info: 5966 DEGREES OF FREEDOM
Info: 996 HYDROGEN GROUPS
Info: 4 ATOMS IN LARGEST HYDROGEN GROUP
Info: 996 MIGRATION GROUPS
Info: 4 ATOMS IN LARGEST MIGRATION GROUP
Info: TOTAL MASS = 17901.9 amu
Info: TOTAL CHARGE = 0.000300035 e
Info: MASS DENSITY = 0.972701 g/cm^3
Info: ATOM DENSITY = 0.0974416 atoms/A^3
Info: ADDED 0 IMPLICIT EXCLUSIONS
Info: NONBONDED TABLE R-SQUARED SPACING: 0.0625
Info: NONBONDED TABLE SIZE: 705 POINTS
Info: REMOVING COM VELOCITY -0.169028 0.146827 0.0549671
Info: Use 3D box decompostion in PME FFT.
Info: Updated CUDA force table with 4096 elements.
Info: Updated CUDA LJ table with 7 x 7 elements.
Info: Found 19 unique exclusion lists needing 48 bytes
TCL: Running for 1500000 steps
ETITLE: TS BOND ANGLE DIHED IMPRP ELECT VDW BOUNDARY MISC KINETIC TOTAL TEMP POTENTIAL TOTALAVG TEMPAVG PRESSURE GPRESSURE VOLUME PRESSAVG GPRESSAVG
ENERGY: 0 5.1847 4.5074 7.2449 0.0000 -10760.2206 1482.3791 0.0000 0.0000 1767.2497 -7493.6549 298.1296 -9260.9046 -7493.6549 298.1296 428.8639 508.2483 30561.8809 428.8639 508.2483
ENERGY: 300000 3.1297 5.1910 6.4795 0.0000 -10747.8919 1474.5584 0.0000 0.0000 1840.4412 -7418.0920 310.4768 -9258.5333 -7486.6336 303.9508 92.9964 208.0319 31098.8000 194.0048 264.0946
ENERGY: 600000 3.7951 11.6462 9.3208 0.0000 -10621.4593 1375.6611 0.0000 0.0000 1808.7283 -7412.3079 305.1269 -9221.0362 -7479.1632 303.2788 -117.5384 -68.2072 30730.4469 164.1019 224.0751
ENERGY: 900000 3.2942 8.1088 6.9277 0.0000 -10712.1971 1427.2582 0.0000 0.0000 1766.1729 -7500.4353 297.9479 -9266.6082 -7479.5386 303.3926 112.7033 186.1888 30365.7304 162.1379 222.7293
ENERGY: 1200000 4.3473 8.0211 6.6281 0.0000 -10684.0383 1483.2752 0.0000 0.0000 1743.7466 -7438.0201 294.1647 -9181.7667 -7488.4675 302.6921 562.6880 599.1434 30790.5918 118.3485 183.3212
ENERGY: 1500000 4.7134 5.1001 5.5212 0.0000 -10849.5655 1483.9137 0.0000 0.0000 1773.4782 -7576.8388 299.1803 -9350.3170 -7505.0613 301.9657 -185.3185 -118.9637 31172.3275 55.1674 125.4096
TCL: Running FEP window   2: Lambda1 0.95   Lambda2 0.8999999999999999 [dLambda -0.050000000000000044]
TCL: Setting parameter firsttimestep to 0
TCL: Setting parameter alchLambda to 0.95
Info: NONBONDED TABLE R-SQUARED SPACING: 0.0625
Info: NONBONDED TABLE SIZE: 705 POINTS
TCL: Setting parameter alchLambda2 to 0.8999999999999999
Info: NONBONDED TABLE R-SQUARED SPACING: 0.0625
Info: NONBONDED TABLE SIZE: 705 POINTS
TCL: Running for 1500000 steps
ETITLE: TS BOND ANGLE DIHED IMPRP ELECT VDW BOUNDARY MISC KINETIC TOTAL TEMP POTENTIAL TOTALAVG TEMPAVG PRESSURE GPRESSURE VOLUME PRESSAVG GPRESSAVG
ENERGY: 0 4.7134 5.1001 5.5212 0.0000 -10848.1767 1483.5553 0.0000 0.0000 1772.6007 -7576.6859 299.0323 -9349.2866 -7576.6859 299.0323 -213.7038 -138.2856 31172.3275 -213.7038 -138.2856
ENERGY: 300000 1.6114 5.4722 1.4999 0.0000 -10687.6751 1401.1977 0.0000 0.0000 1778.0732 -7499.8208 299.9555 -9277.8939 -7533.0856 302.7581 -198.2356 -201.5412 31244.8723 -218.5779 -172.8543
ENERGY: 600000 1.8049 6.2053 9.9860 0.0000 -10614.3222 1279.4354 0.0000 0.0000 1809.2443 -7507.6462 305.2139 -9316.8906 -7536.3525 299.7199 -1280.5869 -1234.4668 30766.5762 -147.2534 -85.7890
ENERGY: 900000 1.3764 10.6847 7.4274 0.0000 -10679.3809 1394.5043 0.0000 0.0000 1783.1425 -7482.2456 300.8106 -9265.3880 -7541.2641 298.6686 -535.3527 -448.6049 30914.6725 -199.1233 -130.5943
ENERGY: 1200000 4.6328 5.3905 6.1747 0.0000 -10794.2077 1463.2777 0.0000 0.0000 1827.9393 -7486.7928 308.3677 -9314.7321 -7529.7069 300.8222 191.9039 237.0488 30739.6359 -154.4187 -86.7435
ENERGY: 1500000 2.6113 5.9162 7.4145 0.0000 -10774.2505 1449.9471 0.0000 0.0000 1811.4916 -7496.8698 305.5930 -9308.3614 -7525.7572 301.0717 286.0658 390.3386 30315.6267 -158.8695 -94.2240
TCL: Running FEP window   3: Lambda1 0.8999999999999999 Lambda2 0.8499999999999999 [dLambda -0.050000000000000044]
TCL: Setting parameter firsttimestep to 0
TCL: Setting parameter alchLambda to 0.8999999999999999
Info: NONBONDED TABLE R-SQUARED SPACING: 0.0625
Info: NONBONDED TABLE SIZE: 705 POINTS
TCL: Setting parameter alchLambda2 to 0.8499999999999999
Info: NONBONDED TABLE R-SQUARED SPACING: 0.0625
Info: NONBONDED TABLE SIZE: 705 POINTS
TCL: Running for 1500000 steps
ETITLE: TS BOND ANGLE DIHED IMPRP ELECT VDW BOUNDARY MISC KINETIC TOTAL TEMP POTENTIAL TOTALAVG TEMPAVG PRESSURE GPRESSURE VOLUME PRESSAVG GPRESSAVG
ENERGY: 0 2.6113 5.9162 7.4145 0.0000 -10772.4247 1450.0073 0.0000 0.0000 1810.6550 -7495.8203 305.4519 -9306.4754 -7495.8203 305.4519 302.2442 382.3897 30315.6267 302.2442 382.3897
ENERGY: 300000 1.1697 10.3587 3.7445 0.0000 -10895.9123 1543.9836 0.0000 0.0000 1743.5643 -7593.0916 294.1339 -9336.6559 -7496.2387 306.1825 756.5780 814.8238 30550.9564 199.7661 264.7681
ENERGY: 600000 2.0742 10.9507 6.2245 0.0000 -10750.0692 1380.8496 0.0000 0.0000 1779.7449 -7570.2252 300.2375 -9349.9701 -7530.5843 302.5734 -661.8725 -571.3174 30540.0966 24.6617 98.6314
ENERGY: 900000 2.8423 8.0362 8.3194 0.0000 -10832.0377 1436.8128 0.0000 0.0000 1748.4968 -7627.5302 294.9660 -9376.0270 -7534.1870 301.6008 -454.6854 -367.4192 31160.2946 -82.1195 -7.0946
ENERGY: 1200000 4.8295 11.4922 4.7629 0.0000 -10690.8062 1366.6574 0.0000 0.0000 1730.9114 -7572.1528 291.9994 -9303.0642 -7542.1493 300.3970 -541.5486 -555.1924 30496.7632 -44.3234 14.4960
ENERGY: 1500000 3.2626 6.3172 5.8078 0.0000 -10775.5116 1467.4014 0.0000 0.0000 1787.4875 -7505.2351 301.5436 -9292.7226 -7534.9896 300.4575 -144.1130 -94.4547 31233.7410 -68.3802 -15.7613
TCL: Running FEP window   4: Lambda1 0.8499999999999999 Lambda2 0.7999999999999998 [dLambda -0.050000000000000044]
TCL: Setting parameter firsttimestep to 0
TCL: Setting parameter alchLambda to 0.8499999999999999
Info: NONBONDED TABLE R-SQUARED SPACING: 0.0625
Info: NONBONDED TABLE SIZE: 705 POINTS
TCL: Setting parameter alchLambda2 to 0.7999999999999998
Info: NONBONDED TABLE R-SQUARED SPACING: 0.0625
Info: NONBONDED TABLE SIZE: 705 POINTS
TCL: Running for 1500000 steps
ETITLE: TS BOND ANGLE DIHED IMPRP ELECT VDW BOUNDARY MISC KINETIC TOTAL TEMP POTENTIAL TOTALAVG TEMPAVG PRESSURE GPRESSURE VOLUME PRESSAVG GPRESSAVG
ENERGY: 0 3.2626 6.3172 5.8078 0.0000 -10774.8133 1467.8546 0.0000 0.0000 1786.5704 -7505.0007 301.3889 -9291.5711 -7505.0007 301.3889 -173.8983 -97.5391 31233.7410 -173.8983 -97.5391
ENERGY: 300000 5.3785 3.0997 10.1031 0.0000 -10882.3399 1515.2453 0.0000 0.0000 1789.1238 -7559.3894 301.8197 -9348.5132 -7541.3453 299.0539 214.1645 261.6644 30843.3097 -129.1049 -91.8011
ENERGY: 600000 3.3491 4.6816 8.8444 0.0000 -10790.9508 1441.7038 0.0000 0.0000 1758.8173 -7573.5546 296.7071 -9332.3719 -7518.1453 298.2595 -298.5334 -230.2422 30751.5923 -145.6332 -98.7614
ENERGY: 900000 2.4639 5.1325 11.1044 0.0000 -10871.4395 1531.4949 0.0000 0.0000 1791.3728 -7529.8710 302.1991 -9321.2438 -7515.5021 299.2343 386.9130 414.1063 30893.0808 -154.1263 -99.1461
ENERGY: 1200000 4.6875 4.8627 6.3784 0.0000 -10717.2599 1373.7195 0.0000 0.0000 1761.3914 -7566.2205 297.1413 -9327.6118 -7524.3481 298.5414 -702.3592 -649.6324 30420.0965 -183.3301 -125.6473
ENERGY: 1500000 3.4248 6.1793 3.8660 0.0000 -10891.5529 1506.4838 0.0000 0.0000 1795.9344 -7575.6646 302.9686 -9371.5990 -7527.4879 298.8584 227.7141 300.4718 30601.2553 -194.9151 -134.3887
TCL: Running FEP window   5: Lambda1 0.7999999999999998 Lambda2 0.7499999999999998 [dLambda -0.050000000000000044]
TCL: Setting parameter firsttimestep to 0
TCL: Setting parameter alchLambda to 0.7999999999999998
Info: NONBONDED TABLE R-SQUARED SPACING: 0.0625
Info: NONBONDED TABLE SIZE: 705 POINTS
TCL: Setting parameter alchLambda2 to 0.7499999999999998
Info: NONBONDED TABLE R-SQUARED SPACING: 0.0625
Info: NONBONDED TABLE SIZE: 705 POINTS
TCL: Running for 1500000 steps
ETITLE: TS BOND ANGLE DIHED IMPRP ELECT VDW BOUNDARY MISC KINETIC TOTAL TEMP POTENTIAL TOTALAVG TEMPAVG PRESSURE GPRESSURE VOLUME PRESSAVG GPRESSAVG
ENERGY: 0 3.4248 6.1793 3.8660 0.0000 -10889.8674 1507.0328 0.0000 0.0000 1795.0466 -7574.3180 302.8188 -9369.3645 -7574.3180 302.8188 218.6723 300.1604 30601.2553 218.6723 300.1604
ENERGY: 300000 3.1531 4.8097 8.4563 0.0000 -10671.8962 1410.4767 0.0000 0.0000 1852.9116 -7392.0888 312.5805 -9245.0004 -7517.4075 302.7638 -135.3641 -50.8799 30822.9907 -59.2519 33.6176
ENERGY: 600000 2.7700 5.6903 8.7058 0.0000 -10734.0827 1462.2060 0.0000 0.0000 1771.0891 -7483.6215 298.7773 -9254.7106 -7505.2261 300.9965 135.0669 222.7971 30855.1318 -142.1621 -55.0450
ENERGY: 900000 2.6013 7.5120 3.8331 0.0000 -10751.7842 1437.7987 0.0000 0.0000 1795.5578 -7504.4811 302.9051 -9300.0390 -7510.1662 300.4469 -113.9946 -28.9103 30710.9406 -141.9913 -57.8505
ENERGY: 1200000 3.6075 7.7369 6.2182 0.0000 -10698.6615 1397.3876 0.0000 0.0000 1747.6265 -7536.0848 294.8192 -9283.7113 -7520.6465 299.7141 -488.1714 -443.1797 30831.3427 -160.3238 -87.5830
ENERGY: 1500000 2.2992 4.8800 11.7273 0.0000 -10762.5544 1446.8129 0.0000 0.0000 1789.3223 -7507.5128 301.8532 -9296.8351 -7512.1478 300.2284 -33.5236 -2.1093 30741.9754 -153.1480 -83.6879
TCL: Running FEP window   6: Lambda1 0.7499999999999998 Lambda2 0.6999999999999997 [dLambda -0.050000000000000044]
TCL: Setting parameter firsttimestep to 0
TCL: Setting parameter alchLambda to 0.7499999999999998
Info: NONBONDED TABLE R-SQUARED SPACING: 0.0625
Info: NONBONDED TABLE SIZE: 705 POINTS
TCL: Setting parameter alchLambda2 to 0.6999999999999997
Info: NONBONDED TABLE R-SQUARED SPACING: 0.0625
Info: NONBONDED TABLE SIZE: 705 POINTS
TCL: Running for 1500000 steps
ETITLE: TS BOND ANGLE DIHED IMPRP ELECT VDW BOUNDARY MISC KINETIC TOTAL TEMP POTENTIAL TOTALAVG TEMPAVG PRESSURE GPRESSURE VOLUME PRESSAVG GPRESSAVG
ENERGY: 0 2.2992 4.8800 11.7273 0.0000 -10761.3007 1446.8020 0.0000 0.0000 1788.4317 -7507.1606 301.7029 -9295.5922 -7507.1606 301.7029 -92.2900 -12.8421 30741.9754 -92.2900 -12.8421
ENERGY: 300000 6.7139 9.6488 6.5655 0.0000 -10784.6626 1457.7568 0.0000 0.0000 1766.4685 -7537.5090 297.9978 -9303.9775 -7553.9661 299.0822 -167.1819 -123.7151 30502.6061 25.8782 95.6344
ENERGY: 600000 2.2117 5.7780 5.1996 0.0000 -10771.5570 1416.5834 0.0000 0.0000 1790.1807 -7551.6035 301.9980 -9341.7842 -7541.3962 298.4778 -218.0589 -136.0891 30428.6647 -79.0237 -5.0188
ENERGY: 900000 4.3348 4.3270 5.6058 0.0000 -10736.6417 1439.6361 0.0000 0.0000 1736.8787 -7545.8593 293.0061 -9282.7379 -7549.0371 298.3687 -156.7166 -107.6555 30670.0698 -86.9214 -22.4521
ENERGY: 1200000 3.9437 8.4082 8.7408 0.0000 -10797.4480 1466.4524 0.0000 0.0000 1808.1393 -7501.7635 305.0275 -9309.9029 -7539.7182 298.5887 81.5057 153.5339 30687.2294 -45.0368 20.9016
ENERGY: 1500000 1.5372 8.6813 8.5525 0.0000 -10828.3451 1542.6632 0.0000 0.0000 1759.8039 -7507.1070 296.8735 -9266.9109 -7532.0933 298.6361 1036.0160 1084.5604 30302.9731 3.4227 68.0044
TCL: Running FEP window   7: Lambda1 0.6999999999999997 Lambda2 0.6499999999999997 [dLambda -0.050000000000000044]
TCL: Setting parameter firsttimestep to 0
TCL: Setting parameter alchLambda to 0.6999999999999997
Info: NONBONDED TABLE R-SQUARED SPACING: 0.0625
Info: NONBONDED TABLE SIZE: 705 POINTS
TCL: Setting parameter alchLambda2 to 0.6499999999999997
Info: NONBONDED TABLE R-SQUARED SPACING: 0.0625
Info: NONBONDED TABLE SIZE: 705 POINTS
TCL: Running for 1500000 steps
ETITLE: TS BOND ANGLE DIHED IMPRP ELECT VDW BOUNDARY MISC KINETIC TOTAL TEMP POTENTIAL TOTALAVG TEMPAVG PRESSURE GPRESSURE VOLUME PRESSAVG GPRESSAVG
ENERGY: 0 1.5372 8.6813 8.5525 0.0000 -10827.7564 1543.1869 0.0000 0.0000 1758.9364 -7506.8620 296.7271 -9265.7984 -7506.8620 296.7271 1003.9094 1082.3175 30302.9731 1003.9094 1082.3175
ENERGY: 300000 3.7652 5.8501 7.6593 0.0000 -10751.7168 1432.8981 0.0000 0.0000 1840.1556 -7461.3886 310.4286 -9301.5442 -7508.6409 301.7040 78.6247 102.4931 30893.7322 317.9562 360.9466
ENERGY: 600000 1.1024 7.4161 9.8441 0.0000 -10747.6825 1506.7454 0.0000 0.0000 1815.0620 -7407.5125 306.1954 -9222.5745 -7492.8549 303.1950 592.8897 649.3249 30789.2357 297.2982 346.1168
ENERGY: 900000 2.7087 6.5144 6.4963 0.0000 -10739.1800 1425.1593 0.0000 0.0000 1732.4813 -7565.8200 292.2643 -9298.3013 -7498.9263 301.7899 -165.1427 -98.4105 30381.4656 280.3338 328.4337
ENERGY: 1200000 4.1575 2.9723 12.5192 0.0000 -10801.2966 1476.3061 0.0000 0.0000 1817.5213 -7487.8204 306.6102 -9305.3416 -7499.7370 303.1595 322.8005 478.5640 30167.9613 232.0721 299.8158
ENERGY: 1500000 3.6321 12.7303 12.6939 0.0000 -10789.8918 1435.3089 0.0000 0.0000 1792.5291 -7532.9975 302.3941 -9325.5266 -7523.3518 301.8339 -205.9712 -192.6444 30700.0999 136.6026 198.3669
TCL: Running FEP window   8: Lambda1 0.6499999999999997 Lambda2 0.5999999999999996 [dLambda -0.050000000000000044]
TCL: Setting parameter firsttimestep to 0
TCL: Setting parameter alchLambda to 0.6499999999999997
Info: NONBONDED TABLE R-SQUARED SPACING: 0.0625
Info: NONBONDED TABLE SIZE: 705 POINTS
TCL: Setting parameter alchLambda2 to 0.5999999999999996
Info: NONBONDED TABLE R-SQUARED SPACING: 0.0625
Info: NONBONDED TABLE SIZE: 705 POINTS
TCL: Running for 1500000 steps
ETITLE: TS BOND ANGLE DIHED IMPRP ELECT VDW BOUNDARY MISC KINETIC TOTAL TEMP POTENTIAL TOTALAVG TEMPAVG PRESSURE GPRESSURE VOLUME PRESSAVG GPRESSAVG
ENERGY: 0 3.6321 12.7303 12.6939 0.0000 -10789.3512 1434.9785 0.0000 0.0000 1791.6367 -7533.6797 302.2436 -9325.3164 -7533.6797 302.2436 -274.1510 -206.1230 30700.0999 -274.1510 -206.1230
ENERGY: 300000 2.0844 4.9072 6.4184 0.0000 -10718.8734 1478.3832 0.0000 0.0000 1772.1933 -7454.8870 298.9635 -9227.0803 -7484.8293 298.8947 542.3308 568.9256 30832.4414 171.1660 217.9405
ENERGY: 600000 3.5860 6.5443 3.1835 0.0000 -10750.0020 1473.4008 0.0000 0.0000 1749.2724 -7514.0150 295.0968 -9263.2873 -7484.6797 298.5009 245.5516 248.1857 30952.5715 114.1238 147.6664
ENERGY: 900000 1.9335 6.9889 5.8667 0.0000 -10836.0233 1432.6986 0.0000 0.0000 1805.0186 -7583.5171 304.5011 -9388.5357 -7503.6848 298.5741 -296.2531 -256.9524 30374.9960 120.1533 161.3755
ENERGY: 1200000 1.7059 7.3557 9.3448 0.0000 -10633.2669 1344.3060 0.0000 0.0000 1751.4445 -7519.1100 295.4633 -9270.5545 -7507.6062 298.7471 -551.0142 -481.9313 30579.1309 10.2019 54.0208
ENERGY: 1500000 4.2436 5.5529 10.2285 0.0000 -10626.1693 1328.5865 0.0000 0.0000 1773.0674 -7504.4905 299.1110 -9277.5578 -7498.6079 300.2747 -1198.5259 -1057.7072 30781.2002 -78.5631 -21.8296
TCL: Running FEP window   9: Lambda1 0.5999999999999996 Lambda2 0.5499999999999996 [dLambda -0.050000000000000044]
TCL: Setting parameter firsttimestep to 0
TCL: Setting parameter alchLambda to 0.5999999999999996
Info: NONBONDED TABLE R-SQUARED SPACING: 0.0625
Info: NONBONDED TABLE SIZE: 705 POINTS
TCL: Setting parameter alchLambda2 to 0.5499999999999996
Info: NONBONDED TABLE R-SQUARED SPACING: 0.0625
Info: NONBONDED TABLE SIZE: 705 POINTS
TCL: Running for 1500000 steps
ETITLE: TS BOND ANGLE DIHED IMPRP ELECT VDW BOUNDARY MISC KINETIC TOTAL TEMP POTENTIAL TOTALAVG TEMPAVG PRESSURE GPRESSURE VOLUME PRESSAVG GPRESSAVG
ENERGY: 0 4.2436 5.5529 10.2284 0.0000 -10626.0838 1328.8748 0.0000 0.0000 1772.1789 -7505.0051 298.9611 -9277.1840 -7505.0051 298.9611 -1151.3299 -1065.4836 30781.2002 -1151.3299 -1065.4836
ENERGY: 300000 5.0972 13.3670 6.4402 0.0000 -10790.5869 1454.1131 0.0000 0.0000 1752.5798 -7558.9897 295.6548 -9311.5695 -7480.5769 296.8914 -214.0099 -126.1037 30936.1609 -406.7459 -348.1341
ENERGY: 600000 3.1520 7.1922 9.3409 0.0000 -10731.3870 1434.6703 0.0000 0.0000 1761.4972 -7515.5343 297.1591 -9277.0315 -7493.6004 297.6724 -132.1165 -84.7447 30608.3228 -194.0725 -143.7925
ENERGY: 900000 3.5186 8.0036 8.0544 0.0000 -10711.8306 1388.0744 0.0000 0.0000 1790.0946 -7514.0850 301.9834 -9304.1795 -7503.7631 297.7628 -497.8555 -463.0974 30699.3151 -135.7347 -99.2612
ENERGY: 1200000 1.2182 5.9947 8.5030 0.0000 -10850.7768 1531.6648 0.0000 0.0000 1762.9780 -7540.4181 297.4089 -9303.3961 -7511.2067 298.5745 706.0269 852.5370 30528.5483 -77.2077 -28.3362
ENERGY: 1500000 2.7810 6.9751 9.3610 0.0000 -10777.3331 1489.3237 0.0000 0.0000 1765.0277 -7503.8646 297.7547 -9268.8924 -7510.4064 298.4221 139.7446 203.9138 30771.4826 5.6066 55.9624
TCL: Running FEP window  10: Lambda1 0.5499999999999996 Lambda2 0.4999999999999996 [dLambda -0.04999999999999999]
TCL: Setting parameter firsttimestep to 0
TCL: Setting parameter alchLambda to 0.5499999999999996
Info: NONBONDED TABLE R-SQUARED SPACING: 0.0625
Info: NONBONDED TABLE SIZE: 705 POINTS
TCL: Setting parameter alchLambda2 to 0.4999999999999996
Info: NONBONDED TABLE R-SQUARED SPACING: 0.0625
Info: NONBONDED TABLE SIZE: 705 POINTS
TCL: Running for 1500000 steps
ETITLE: TS BOND ANGLE DIHED IMPRP ELECT VDW BOUNDARY MISC KINETIC TOTAL TEMP POTENTIAL TOTALAVG TEMPAVG PRESSURE GPRESSURE VOLUME PRESSAVG GPRESSAVG
ENERGY: 0 2.7810 6.9751 9.3610 0.0000 -10777.0492 1489.7958 0.0000 0.0000 1764.1859 -7503.9505 297.6127 -9268.1363 -7503.9505 297.6127 115.4985 199.6120 30771.4826 115.4985 199.6120
ENERGY: 300000 4.6095 6.8063 5.7974 0.0000 -10721.4934 1402.3414 0.0000 0.0000 1747.3781 -7554.5608 294.7773 -9301.9389 -7519.2072 299.2746 -108.6652 -45.8237 30436.7525 130.3328 209.1175
ENERGY: 600000 3.7961 7.3954 7.0982 0.0000 -10670.9252 1411.3987 0.0000 0.0000 1742.2431 -7498.9936 293.9110 -9241.2367 -7524.6955 299.4389 -396.1350 -287.0824 30900.1521 -104.5250 -25.3856
ENERGY: 900000 3.8756 11.2259 7.1220 0.0000 -10774.3122 1484.5826 0.0000 0.0000 1734.9224 -7532.5838 292.6761 -9267.5062 -7515.3151 299.2092 377.4803 402.4455 30610.3856 -19.6878 53.3197
ENERGY: 1200000 3.6665 5.4406 11.2590 0.0000 -10713.2061 1378.2327 0.0000 0.0000 1755.0129 -7559.5944 296.0653 -9314.6073 -7524.5192 298.4770 -900.6624 -794.0908 31221.0897 -126.2814 -51.2472
ENERGY: 1500000 7.0105 2.4654 8.7532 0.0000 -10642.7042 1430.6845 0.0000 0.0000 1821.8374 -7371.9533 307.3383 -9193.7907 -7506.9471 299.1942 -94.8961 -31.0347 30972.9270 -94.8937 -20.7621
TCL: Running FEP window  11: Lambda1 0.4999999999999996 Lambda2 0.4499999999999996 [dLambda -0.04999999999999999]
TCL: Setting parameter firsttimestep to 0
TCL: Setting parameter alchLambda to 0.4999999999999996
Info: NONBONDED TABLE R-SQUARED SPACING: 0.0625
Info: NONBONDED TABLE SIZE: 705 POINTS
TCL: Setting parameter alchLambda2 to 0.4499999999999996
Info: NONBONDED TABLE R-SQUARED SPACING: 0.0625
Info: NONBONDED TABLE SIZE: 705 POINTS
TCL: Running for 1500000 steps
ETITLE: TS BOND ANGLE DIHED IMPRP ELECT VDW BOUNDARY MISC KINETIC TOTAL TEMP POTENTIAL TOTALAVG TEMPAVG PRESSURE GPRESSURE VOLUME PRESSAVG GPRESSAVG
ENERGY: 0 7.0105 2.4654 8.7532 0.0000 -10643.0181 1430.7885 0.0000 0.0000 1820.9552 -7373.0454 307.1895 -9194.0006 -7373.0454 307.1895 -108.0697 -38.6434 30972.9270 -108.0697 -38.6434
ENERGY: 300000 2.1331 4.2056 6.2150 0.0000 -10612.3348 1400.4253 0.0000 0.0000 1792.9766 -7406.3791 302.4696 -9199.3557 -7449.9012 301.9748 -383.0060 -319.2099 31493.0967 -280.9803 -215.2765
ENERGY: 600000 4.9335 2.9575 7.0134 0.0000 -10762.6471 1421.0105 0.0000 0.0000 1797.4075 -7529.3247 303.2171 -9326.7322 -7464.5126 300.6308 -463.7230 -443.6665 30886.4579 -300.4162 -232.3601
ENERGY: 900000 4.5661 4.4783 9.7002 0.0000 -10821.9889 1498.3364 0.0000 0.0000 1750.2320 -7554.6759 295.2587 -9304.9079 -7480.6517 300.8134 290.2023 302.8579 30481.8155 -160.3222 -107.4577
ENERGY: 1200000 4.5313 7.6658 5.4121 0.0000 -10736.7057 1488.7898 0.0000 0.0000 1782.1171 -7448.1896 300.6377 -9230.3067 -7486.6430 300.1796 458.6416 527.2702 30696.3898 -165.4105 -110.5641
ENERGY: 1500000 4.7427 5.3630 7.0097 0.0000 -10725.4203 1460.1214 0.0000 0.0000 1811.2857 -7436.8978 305.5583 -9248.1835 -7490.6344 300.3199 277.7812 334.5158 30445.7000 -111.1738 -55.4012
TCL: Running FEP window  12: Lambda1 0.4499999999999996 Lambda2 0.39999999999999963 [dLambda -0.04999999999999999]
TCL: Setting parameter firsttimestep to 0
TCL: Setting parameter alchLambda to 0.4499999999999996
Info: NONBONDED TABLE R-SQUARED SPACING: 0.0625
Info: NONBONDED TABLE SIZE: 705 POINTS
TCL: Setting parameter alchLambda2 to 0.39999999999999963
Info: NONBONDED TABLE R-SQUARED SPACING: 0.0625
Info: NONBONDED TABLE SIZE: 705 POINTS
TCL: Running for 1500000 steps
ETITLE: TS BOND ANGLE DIHED IMPRP ELECT VDW BOUNDARY MISC KINETIC TOTAL TEMP POTENTIAL TOTALAVG TEMPAVG PRESSURE GPRESSURE VOLUME PRESSAVG GPRESSAVG
ENERGY: 0 4.7427 5.3629 7.0097 0.0000 -10725.4205 1459.7458 0.0000 0.0000 1810.3852 -7438.1741 305.4064 -9248.5593 -7438.1741 305.4064 227.3083 323.5359 30445.7000 227.3083 323.5359
ENERGY: 300000 1.5860 9.5490 4.8720 0.0000 -10868.9046 1513.7735 0.0000 0.0000 1805.5229 -7533.6011 304.5861 -9339.1241 -7528.2012 302.8220 336.1806 370.5392 30860.2924 17.2958 97.3441
ENERGY: 600000 1.4816 8.4185 7.0484 0.0000 -10949.4398 1632.0024 0.0000 0.0000 1797.9323 -7502.5565 303.3056 -9300.4887 -7512.9293 302.5425 1442.5410 1450.8231 30739.7550 98.7130 178.2525
ENERGY: 900000 5.8024 6.0025 9.9069 0.0000 -10751.2078 1455.0507 0.0000 0.0000 1781.6769 -7492.7683 300.5634 -9274.4452 -7516.6179 301.2106 -83.4101 -19.5449 30667.6719 100.7854 179.1573
ENERGY: 1200000 4.9855 5.7143 5.7083 0.0000 -10824.4452 1498.7956 0.0000 0.0000 1797.9635 -7511.2780 303.3109 -9309.2415 -7509.4508 302.2914 417.7673 448.2992 30765.4620 124.3145 197.2827
ENERGY: 1500000 4.1342 10.0769 6.5532 0.0000 -10793.3667 1421.6741 0.0000 0.0000 1775.2978 -7575.6305 299.4873 -9350.9283 -7523.0299 302.0952 -391.3196 -262.8741 30339.3410 76.7465 153.0735
TCL: Running FEP window  13: Lambda1 0.39999999999999963 Lambda2 0.34999999999999964 [dLambda -0.04999999999999999]
TCL: Setting parameter firsttimestep to 0
TCL: Setting parameter alchLambda to 0.39999999999999963
Info: NONBONDED TABLE R-SQUARED SPACING: 0.0625
Info: NONBONDED TABLE SIZE: 705 POINTS
TCL: Setting parameter alchLambda2 to 0.34999999999999964
Info: NONBONDED TABLE R-SQUARED SPACING: 0.0625
Info: NONBONDED TABLE SIZE: 705 POINTS
TCL: Running for 1500000 steps
ETITLE: TS BOND ANGLE DIHED IMPRP ELECT VDW BOUNDARY MISC KINETIC TOTAL TEMP POTENTIAL TOTALAVG TEMPAVG PRESSURE GPRESSURE VOLUME PRESSAVG GPRESSAVG
ENERGY: 0 4.1342 10.0769 6.5532 0.0000 -10793.3673 1422.2539 0.0000 0.0000 1774.4015 -7575.9476 299.3361 -9350.3491 -7575.9476 299.3361 -345.8589 -261.5148 30339.3410 -345.8589 -261.5148
ENERGY: 300000 1.9528 4.4657 8.8692 0.0000 -10807.9571 1486.5488 0.0000 0.0000 1795.3238 -7510.7968 302.8656 -9306.1206 -7542.0254 297.4999 304.2174 330.3884 30704.2379 72.4446 145.9363
ENERGY: 600000 4.9513 5.5827 5.6743 0.0000 -10780.0063 1445.9745 0.0000 0.0000 1714.0487 -7603.7749 289.1547 -9317.8236 -7541.8749 295.3081 -99.8225 -81.9456 30537.1221 17.5334 90.2172
ENERGY: 900000 2.9659 7.3827 4.4399 0.0000 -10648.5207 1410.0053 0.0000 0.0000 1767.5810 -7456.1459 298.1855 -9223.7269 -7525.8395 295.8911 86.0444 83.7353 30497.4900 -2.2297 61.9195
ENERGY: 1200000 1.8914 9.3712 8.2815 0.0000 -10864.7665 1479.2107 0.0000 0.0000 1788.3110 -7577.7006 301.6825 -9366.0116 -7527.8705 296.8976 72.6885 153.2301 30314.6942 -43.3030 20.1321
ENERGY: 1500000 0.9458 6.3427 7.4804 0.0000 -10778.4027 1442.8061 0.0000 0.0000 1758.0206 -7562.8070 296.5727 -9320.8277 -7526.9600 296.6022 -77.9227 -18.8423 30306.3753 -105.3826 -48.8446
TCL: Running FEP window  14: Lambda1 0.34999999999999964 Lambda2 0.29999999999999966 [dLambda -0.04999999999999999]
TCL: Setting parameter firsttimestep to 0
TCL: Setting parameter alchLambda to 0.34999999999999964
Info: NONBONDED TABLE R-SQUARED SPACING: 0.0625
Info: NONBONDED TABLE SIZE: 705 POINTS
TCL: Setting parameter alchLambda2 to 0.29999999999999966
Info: NONBONDED TABLE R-SQUARED SPACING: 0.0625
Info: NONBONDED TABLE SIZE: 705 POINTS
TCL: Running for 1500000 steps
ETITLE: TS BOND ANGLE DIHED IMPRP ELECT VDW BOUNDARY MISC KINETIC TOTAL TEMP POTENTIAL TOTALAVG TEMPAVG PRESSURE GPRESSURE VOLUME PRESSAVG GPRESSAVG
ENERGY: 0 0.9458 6.3427 7.4804 0.0000 -10778.4038 1442.5661 0.0000 0.0000 1757.0941 -7563.9747 296.4163 -9321.0688 -7563.9747 296.4163 -106.8075 -26.3158 30306.3753 -106.8075 -26.3158
ENERGY: 300000 7.7853 7.8908 6.4244 0.0000 -10868.7800 1522.2059 0.0000 0.0000 1820.9078 -7503.5658 307.1815 -9324.4736 -7522.2776 298.2365 345.9895 392.9887 30870.1445 145.2379 206.3618
ENERGY: 600000 3.6930 8.7674 4.2438 0.0000 -10789.3604 1473.9755 0.0000 0.0000 1754.2161 -7544.4646 295.9308 -9298.6807 -7514.8564 297.9719 116.2260 149.9965 30602.5174 -4.4445 38.6540
ENERGY: 900000 5.7948 7.0216 10.6497 0.0000 -10730.1754 1393.7950 0.0000 0.0000 1720.1906 -7592.7237 290.1908 -9312.9143 -7524.6114 297.3312 -753.4721 -665.2608 30523.6352 -71.5409 -19.4784
ENERGY: 1200000 5.4076 6.5915 9.1490 0.0000 -10725.2269 1426.1936 0.0000 0.0000 1771.8083 -7506.0768 298.8986 -9277.8851 -7514.6222 297.5189 -3.1631 47.0825 30435.7890 -146.3226 -92.2329
ENERGY: 1500000 1.5467 7.3058 8.7124 0.0000 -10825.2462 1434.7165 0.0000 0.0000 1789.5938 -7583.3711 301.8990 -9372.9649 -7515.4470 298.1030 -407.2525 -289.4890 30757.6579 -154.0206 -100.0313
TCL: Running FEP window  15: Lambda1 0.29999999999999966 Lambda2 0.24999999999999967 [dLambda -0.04999999999999999]
TCL: Setting parameter firsttimestep to 0
TCL: Setting parameter alchLambda to 0.29999999999999966
Info: NONBONDED TABLE R-SQUARED SPACING: 0.0625
Info: NONBONDED TABLE SIZE: 705 POINTS
TCL: Setting parameter alchLambda2 to 0.24999999999999967
Info: NONBONDED TABLE R-SQUARED SPACING: 0.0625
Info: NONBONDED TABLE SIZE: 705 POINTS
TCL: Running for 1500000 steps
ETITLE: TS BOND ANGLE DIHED IMPRP ELECT VDW BOUNDARY MISC KINETIC TOTAL TEMP POTENTIAL TOTALAVG TEMPAVG PRESSURE GPRESSURE VOLUME PRESSAVG GPRESSAVG
ENERGY: 0 1.5467 7.3058 8.7124 0.0000 -10825.2462 1434.9600 0.0000 0.0000 1788.7416 -7583.9798 301.7552 -9372.7214 -7583.9798 301.7552 -378.4920 -294.7499 30757.6579 -378.4920 -294.7499
ENERGY: 300000 1.7782 8.0957 11.1517 0.0000 -10671.3324 1366.3792 0.0000 0.0000 1760.0078 -7523.9198 296.9079 -9283.9276 -7519.8808 301.2877 -623.0568 -555.6015 30490.6965 -351.2652 -270.5228
ENERGY: 600000 3.4041 11.8861 9.1675 0.0000 -10754.5182 1499.6180 0.0000 0.0000 1776.5572 -7453.8853 299.6997 -9230.4425 -7486.6000 302.3550 761.9295 809.1728 30430.6686 -103.6739 -19.0368
ENERGY: 900000 1.9925 7.6140 7.7771 0.0000 -10811.7257 1438.0146 0.0000 0.0000 1872.8025 -7483.5250 315.9360 -9356.3276 -7486.5115 302.7111 -106.9487 -58.7687 30396.6947 -138.9826 -56.9149
ENERGY: 1200000 2.3370 8.0176 5.8034 0.0000 -10686.0803 1385.2729 0.0000 0.0000 1732.6849 -7551.9645 292.2986 -9284.6494 -7494.2416 302.0956 -599.4986 -539.0925 30673.8514 -100.6162 -18.3101
ENERGY: 1500000 1.6446 9.2455 11.0922 0.0000 -10790.6439 1442.1587 0.0000 0.0000 1786.8143 -7539.6886 301.4301 -9326.5029 -7497.2993 302.1523 77.6937 106.7206 30435.9133 25.7677 99.0335
TCL: Running FEP window  16: Lambda1 0.24999999999999967 Lambda2 0.19999999999999968 [dLambda -0.04999999999999999]
TCL: Setting parameter firsttimestep to 0
TCL: Setting parameter alchLambda to 0.24999999999999967
Info: NONBONDED TABLE R-SQUARED SPACING: 0.0625
Info: NONBONDED TABLE SIZE: 705 POINTS
TCL: Setting parameter alchLambda2 to 0.19999999999999968
Info: NONBONDED TABLE R-SQUARED SPACING: 0.0625
Info: NONBONDED TABLE SIZE: 705 POINTS
TCL: Running for 1500000 steps
ETITLE: TS BOND ANGLE DIHED IMPRP ELECT VDW BOUNDARY MISC KINETIC TOTAL TEMP POTENTIAL TOTALAVG TEMPAVG PRESSURE GPRESSURE VOLUME PRESSAVG GPRESSAVG
ENERGY: 0 1.6446 9.2455 11.0922 0.0000 -10790.6438 1442.1973 0.0000 0.0000 1785.9258 -7540.5384 301.2802 -9326.4642 -7540.5384 301.2802 25.5929 101.1725 30435.9133 25.5929 101.1725
ENERGY: 300000 3.4690 3.4905 11.3479 0.0000 -10777.9910 1470.2949 0.0000 0.0000 1846.3198 -7443.0689 311.4684 -9289.3886 -7514.7899 303.4527 262.5121 320.6899 30316.0453 335.1630 408.6298
ENERGY: 600000 2.5206 6.6948 8.5338 0.0000 -10791.0123 1490.6786 0.0000 0.0000 1750.2341 -7532.3505 295.2591 -9282.5845 -7521.5797 300.2565 418.8313 471.7832 30339.8299 243.6922 316.2749
ENERGY: 900000 4.5424 12.8415 6.4984 0.0000 -10719.1108 1398.4244 0.0000 0.0000 1833.6464 -7463.1576 309.3305 -9296.8040 -7494.5591 301.8021 -293.9560 -217.7343 30517.4741 145.2352 209.6097
ENERGY: 1200000 5.8444 11.5256 4.5578 0.0000 -10573.4589 1325.8059 0.0000 0.0000 1775.1938 -7450.5314 299.4697 -9225.7252 -7500.5947 300.9133 -770.2210 -785.1033 30904.9383 100.7037 157.3673
ENERGY: 1500000 2.4628 5.8492 6.7007 0.0000 -10665.8755 1456.1110 0.0000 0.0000 1747.8248 -7446.9270 294.8526 -9194.7517 -7503.1369 300.4997 333.8890 382.8590 30383.6718 73.7966 132.6850
TCL: Running FEP window  17: Lambda1 0.19999999999999968 Lambda2 0.1499999999999997 [dLambda -0.04999999999999999]
TCL: Setting parameter firsttimestep to 0
TCL: Setting parameter alchLambda to 0.19999999999999968
Info: NONBONDED TABLE R-SQUARED SPACING: 0.0625
Info: NONBONDED TABLE SIZE: 705 POINTS
TCL: Setting parameter alchLambda2 to 0.1499999999999997
Info: NONBONDED TABLE R-SQUARED SPACING: 0.0625
Info: NONBONDED TABLE SIZE: 705 POINTS
TCL: Running for 1500000 steps
ETITLE: TS BOND ANGLE DIHED IMPRP ELECT VDW BOUNDARY MISC KINETIC TOTAL TEMP POTENTIAL TOTALAVG TEMPAVG PRESSURE GPRESSURE VOLUME PRESSAVG GPRESSAVG
ENERGY: 0 2.4628 5.8492 6.7007 0.0000 -10665.8748 1455.9480 0.0000 0.0000 1746.9746 -7447.9395 294.7092 -9194.9141 -7447.9395 294.7092 300.3362 377.2684 30383.6718 300.3362 377.2684
ENERGY: 300000 4.0033 6.6606 6.9456 0.0000 -10669.8494 1426.0366 0.0000 0.0000 1803.0139 -7423.1894 304.1629 -9226.2032 -7459.6490 301.1903 57.4657 142.5676 30531.5835 125.7991 191.3973
ENERGY: 600000 1.7699 8.4757 7.7775 0.0000 -10758.2021 1511.2726 0.0000 0.0000 1774.1922 -7454.7142 299.3007 -9228.9064 -7463.8844 300.2282 770.7905 791.3412 30664.1115 80.2304 132.8407
ENERGY: 900000 2.2334 9.7305 7.5567 0.0000 -10705.8341 1463.9968 0.0000 0.0000 1771.9100 -7450.4066 298.9158 -9222.3167 -7465.1102 300.5027 122.6300 174.0072 31114.9496 -17.8971 39.3820
ENERGY: 1200000 3.1683 4.7752 12.5529 0.0000 -10817.2877 1503.4865 0.0000 0.0000 1760.5346 -7532.7702 296.9967 -9293.3048 -7484.0325 299.3593 -17.1832 69.5613 30983.3814 -44.0129 18.6960
ENERGY: 1500000 2.1722 7.7225 10.3265 0.0000 -10666.1199 1410.3273 0.0000 0.0000 1761.5871 -7473.9843 297.1743 -9235.5714 -7483.4222 299.8678 -363.7945 -294.1369 30904.6891 -17.9401 42.3681
TCL: Running FEP window  18: Lambda1 0.1499999999999997 Lambda2 0.09999999999999969 [dLambda -0.05 ]
TCL: Setting parameter firsttimestep to 0
TCL: Setting parameter alchLambda to 0.1499999999999997
Info: NONBONDED TABLE R-SQUARED SPACING: 0.0625
Info: NONBONDED TABLE SIZE: 705 POINTS
TCL: Setting parameter alchLambda2 to 0.09999999999999969
Info: NONBONDED TABLE R-SQUARED SPACING: 0.0625
Info: NONBONDED TABLE SIZE: 705 POINTS
TCL: Running for 1500000 steps
ETITLE: TS BOND ANGLE DIHED IMPRP ELECT VDW BOUNDARY MISC KINETIC TOTAL TEMP POTENTIAL TOTALAVG TEMPAVG PRESSURE GPRESSURE VOLUME PRESSAVG GPRESSAVG
ENERGY: 0 2.1722 7.7225 10.3265 0.0000 -10666.1194 1410.1008 0.0000 0.0000 1760.7475 -7475.0500 297.0327 -9235.7975 -7475.0500 297.0327 -374.5785 -300.2086 30904.6891 -374.5785 -300.2086
ENERGY: 300000 3.0590 9.2730 6.0547 0.0000 -10826.8847 1435.4756 0.0000 0.0000 1791.4961 -7581.5264 302.2199 -9373.0225 -7514.4363 303.0891 -38.8218 -63.2760 30052.7552 -451.0800 -413.5833
ENERGY: 600000 3.3644 6.8157 11.5093 0.0000 -10701.2763 1427.4652 0.0000 0.0000 1788.2057 -7463.9159 301.6648 -9252.1217 -7514.6039 301.4730 -199.9692 -61.3100 30669.0550 -292.6153 -224.2303
ENERGY: 900000 1.2449 5.9547 11.2866 0.0000 -10911.1591 1563.8634 0.0000 0.0000 1775.4157 -7553.3938 299.5071 -9328.8095 -7524.6959 301.0496 305.9940 359.5254 31182.5565 -181.1228 -115.5046
ENERGY: 1200000 3.1953 9.7467 3.9812 0.0000 -10767.8594 1485.7275 0.0000 0.0000 1816.1116 -7449.0971 306.3724 -9265.2087 -7519.9201 301.3695 142.8399 289.2183 30591.7113 -87.3409 -16.4750
ENERGY: 1500000 1.6630 7.5185 11.5227 0.0000 -10888.3576 1582.3077 0.0000 0.0000 1845.6630 -7439.6828 311.3576 -9285.3457 -7516.3485 301.8107 1097.2406 1168.7032 30427.1369 56.2988 123.5125
TCL: Running FEP window  19: Lambda1 0.09999999999999969 Lambda2 0.049999999999999684 [dLambda -0.05 ]
TCL: Setting parameter firsttimestep to 0
TCL: Setting parameter alchLambda to 0.09999999999999969
Info: NONBONDED TABLE R-SQUARED SPACING: 0.0625
Info: NONBONDED TABLE SIZE: 705 POINTS
TCL: Setting parameter alchLambda2 to 0.049999999999999684
Info: NONBONDED TABLE R-SQUARED SPACING: 0.0625
Info: NONBONDED TABLE SIZE: 705 POINTS
TCL: Running for 1500000 steps
ETITLE: TS BOND ANGLE DIHED IMPRP ELECT VDW BOUNDARY MISC KINETIC TOTAL TEMP POTENTIAL TOTALAVG TEMPAVG PRESSURE GPRESSURE VOLUME PRESSAVG GPRESSAVG
ENERGY: 0 1.6629 7.5185 11.5227 0.0000 -10888.3585 1582.7625 0.0000 0.0000 1844.7739 -7440.1179 311.2077 -9284.8918 -7440.1179 311.2077 1077.0266 1169.7635 30427.1369 1077.0266 1169.7635
ENERGY: 300000 1.2985 8.8361 12.2197 0.0000 -10778.3438 1446.5738 0.0000 0.0000 1772.8359 -7536.5799 299.0719 -9309.4157 -7489.7955 304.7726 -317.5789 -214.9959 30704.7887 189.4265 269.4895
ENERGY: 600000 1.6652 6.7781 6.6758 0.0000 -10847.1690 1469.3069 0.0000 0.0000 1844.5476 -7518.1953 311.1695 -9362.7429 -7525.0451 303.7836 -109.2993 -68.9947 30603.8518 -122.9820 -58.5431
ENERGY: 900000 1.5533 6.0848 5.7388 0.0000 -10814.8284 1522.3190 0.0000 0.0000 1752.3861 -7526.7465 295.6221 -9279.1325 -7520.4855 303.5271 430.7269 523.6548 30499.1925 -38.7912 29.7738
ENERGY: 1200000 1.9646 5.4637 7.5502 0.0000 -10747.7634 1428.2560 0.0000 0.0000 1759.7295 -7544.7993 296.8609 -9304.5288 -7524.2560 302.3355 -208.6079 -155.5895 30225.9219 -64.2980 5.8161
ENERGY: 1500000 1.3295 6.1899 9.4308 0.0000 -10744.8838 1456.1444 0.0000 0.0000 1839.5900 -7432.1991 310.3332 -9271.7892 -7520.4291 302.2783 116.2241 134.8274 30427.2396 99.0459 153.3135
TCL: Running FEP window  20: Lambda1 0.049999999999999684 Lambda2 0.0    [dLambda -0.049999999999999684]
TCL: Setting parameter firsttimestep to 0
TCL: Setting parameter alchLambda to 0.049999999999999684
Info: NONBONDED TABLE R-SQUARED SPACING: 0.0625
Info: NONBONDED TABLE SIZE: 705 POINTS
TCL: Setting parameter alchLambda2 to 0.0
Info: NONBONDED TABLE R-SQUARED SPACING: 0.0625
Info: NONBONDED TABLE SIZE: 705 POINTS
TCL: Running for 1500000 steps
ETITLE: TS BOND ANGLE DIHED IMPRP ELECT VDW BOUNDARY MISC KINETIC TOTAL TEMP POTENTIAL TOTALAVG TEMPAVG PRESSURE GPRESSURE VOLUME PRESSAVG GPRESSAVG
ENERGY: 0 1.3295 6.1899 9.4308 0.0000 -10744.8839 1455.6302 0.0000 0.0000 1838.6824 -7433.6211 310.1800 -9272.3035 -7433.6211 310.1800 45.2216 128.9413 30427.2396 45.2216 128.9413
ENERGY: 300000 5.1595 5.0804 5.8558 0.0000 -10845.0150 1457.3247 0.0000 0.0000 1779.6532 -7591.9414 300.2220 -9371.5946 -7530.5973 303.7679 -25.0175 50.0614 30227.7278 112.0637 197.7764
ENERGY: 600000 2.9057 7.0798 11.9260 0.0000 -10899.4053 1583.5581 0.0000 0.0000 1769.0102 -7524.9255 298.4266 -9293.9356 -7517.7221 299.7217 990.2102 1045.1958 30120.2765 227.4404 296.0116
ENERGY: 900000 4.9354 5.6033 8.5855 0.0000 -10594.5904 1385.2455 0.0000 0.0000 1786.5524 -7403.6683 301.3859 -9190.2207 -7510.2844 300.2832 -459.8501 -398.5018 30740.6392 162.4056 226.8995
ENERGY: 1200000 7.5720 8.5236 6.1227 0.0000 -10691.9767 1398.8225 0.0000 0.0000 1736.0291 -7534.9068 292.8627 -9270.9359 -7510.9088 300.3897 -524.0483 -433.9502 30817.5812 68.5929 140.3288
ENERGY: 1500000 4.9552 3.5724 11.6145 0.0000 -10878.8248 1518.8295 0.0000 0.0000 1792.3011 -7547.5521 302.3557 -9339.8532 -7520.6889 299.9864 369.9008 490.2724 30535.2436 102.4299 176.0707
TCL: Exiting due to exit command.
