Info: SIMULATION PARAMETERS:
Info: TIMESTEP               2
Info: NUMBER OF STEPS        0
Info: STEPS PER CYCLE        10
Info: PERIODIC CELL BASIS 1  29.9921 0 0
Info: PERIODIC CELL BASIS 2  0 32.2323 0
Info: PERIODIC CELL BASIS 3  0 0 30.6471
Info: PERIODIC CELL CENTER   0 0 0
Info: WRAPPING WATERS AROUND PERIODIC BOUNDARIES ON OUTPUT.
Info: WRAPPING ALL CLUSTERS AROUND PERIODIC BOUNDARIES ON OUTPUT.
Info: FIRST LDB TIMESTEP     50
Info: LAST LDB TIMESTEP     -1
Info: HOM BACKGROUND SCALING 1
Info: PME BACKGROUND SCALING 1
Info: MIN ATOMS PER PATCH    40
Info: EMPTY PATCH LOAD       40 ATOMS
Info: VELOCITY FILE          mobley_9974966_equil.vel
Info: CENTER OF MASS MOVING INITIALLY? NO
Info: DIELECTRIC             1
Info: EXCLUDE                SCALED ONE-FOUR
Info: 1-4 ELECTROSTATICS SCALED BY 0.833333
Info: MODIFIED 1-4 VDW PARAMETERS WILL BE USED
Info: DCD FILENAME           mobley_9974966_prod.dcd
Info: DCD FREQUENCY          100000
Info: DCD FIRST STEP         100000
Info: DCD FILE WILL CONTAIN UNIT CELL DATA
Info: XST FILENAME           mobley_9974966_prod.xst
Info: XST FREQUENCY          100000
Info: NO VELOCITY DCD OUTPUT
Info: NO FORCE DCD OUTPUT
Info: OUTPUT FILENAME        mobley_9974966_prod
Info: BINARY OUTPUT FILES WILL BE USED
Info: RESTART FILENAME       mobley_9974966_prod.restart
Info: RESTART FREQUENCY      100000
Info: BINARY RESTART FILES WILL BE USED
Info: CUTOFF                 9
Info: PAIRLIST DISTANCE      11
Info: PAIRLIST SHRINK RATE   0.01
Info: PAIRLIST GROW RATE     0.01
Info: PAIRLIST TRIGGER       0.3
Info: PAIRLISTS PER CYCLE    2
Info: PAIRLISTS ENABLED
Info: MARGIN                 2
Info: HYDROGEN GROUP CUTOFF  2.5
Info: PATCH DIMENSION        15.5
Info: ENERGY OUTPUT STEPS    100000
Info: ENERGY EVALUATION STEPS    100000
Info: OUTPUT ENERGY PRECISION 4
Info: CROSSTERM ENERGY INCLUDED IN DIHEDRAL
Info: TIMING OUTPUT STEPS    1000000
Info: PRESSURE OUTPUT STEPS  100000
Info: ALCHEMICAL FEP ON
Info: FEP CURRENT LAMBDA VALUE     1
Info: FEP COMPARISON LAMBDA VALUE  0.95
Info: FEP INTRA-ALCHEMICAL NON-BONDED INTERACTIONS WILL BE RETAINED
Info: FEP INTRA-ALCHEMICAL BONDED INTERACTIONS WILL BE RETAINED
Info: FEP VDW SHIFTING COEFFICIENT 5
Info: FEP ELEC. ACTIVE FOR ANNIHILATED PARTICLES BETWEEN LAMBDA = 0 AND LAMBDA = 0.5
Info: FEP ELEC. ACTIVE FOR EXNIHILATED PARTICLES BETWEEN LAMBDA = 0.5 AND LAMBDA = 1
Info: FEP VDW ACTIVE FOR ANNIHILATED PARTICLES BETWEEN LAMBDA = 0 AND LAMBDA = 1
Info: FEP VDW ACTIVE FOR EXNIHILATED PARTICLES BETWEEN LAMBDA = 0 AND LAMBDA = 1
Info: FEP BOND ACTIVE FOR ANNIHILATED PARTICLES BETWEEN LAMBDA = 1 AND LAMBDA = 1
Info: FEP BOND ACTIVE FOR EXNIHILATED PARTICLES BETWEEN LAMBDA = 0 AND LAMBDA = 0
Info: LANGEVIN DYNAMICS ACTIVE
Info: LANGEVIN TEMPERATURE   300
Info: LANGEVIN USING BBK INTEGRATOR
Info: LANGEVIN DAMPING COEFFICIENT IS 1 INVERSE PS
Info: LANGEVIN DYNAMICS APPLIED TO HYDROGENS
Info: LANGEVIN PISTON PRESSURE CONTROL ACTIVE
Info:        TARGET PRESSURE IS 1.01325 BAR
Info:     OSCILLATION PERIOD IS 50 FS
Info:             DECAY TIME IS 25 FS
Info:     PISTON TEMPERATURE IS 300 K
Info:       PRESSURE CONTROL IS GROUP-BASED
Info:    INITIAL STRAIN RATE IS 0.000258261 0.000258261 0.000258261
Info:       CELL FLUCTUATION IS ISOTROPIC
Info: PARTICLE MESH EWALD (PME) ACTIVE
Info: PME TOLERANCE               1e-06
Info: PME EWALD COEFFICIENT       0.348832
Info: PME INTERPOLATION ORDER     4
Info: PME GRID DIMENSIONS         32 36 32
Info: PME MAXIMUM GRID SPACING    1
Info: PME CALCULATION WILL BE PERFORMED ON GPU
Info: FULL ELECTROSTATIC EVALUATION FREQUENCY      2
Info: USING VERLET I (r-RESPA) MTS SCHEME.
Info: C1 SPLITTING OF LONG RANGE ELECTROSTATICS
Info: PLACING ATOMS IN PATCHES BY HYDROGEN GROUPS
Info: RIGID BONDS TO HYDROGEN : ALL
Info:         ERROR TOLERANCE : 1e-08
Info:          MAX ITERATIONS : 100
Info: RIGID WATER USING SETTLE ALGORITHM
Info: RANDOM NUMBER SEED     1743874613
Info: USE HYDROGEN BONDS?    NO
Info: Using AMBER format force field!
Info: AMBER PARM FILE        mobley_9974966.prmtop
Info: COORDINATE PDB         mobley_9974966.pdb
Info: Exclusions will be read from PARM file!
Info: SCNB (VDW SCALING)     2
Info: USING ARITHMETIC MEAN TO COMBINE L-J SIGMA PARAMETERS
Info: BINARY COORDINATES     mobley_9974966_equil.coor
Info: SUMMARY OF PARAMETERS:
Info: 6 BONDS
Info: 7 ANGLES
Info:   7 HARMONIC
Info:   0 COSINE-BASED
Info: 3 DIHEDRAL
Info: 0 IMPROPER
Info: 0 CROSSTERM
Info: 0 VDW
Info: 21 VDW_PAIRS
Info: 0 NBTHOLE_PAIRS
Info: To read alchdata from file: mobley_9974966.pdb
Info: To read alchflag data from column: 5
Info: STRUCTURE SUMMARY:
Info: 2901 ATOMS
Info: 2900 BONDS
Info: 37 ANGLES
Info: 42 DIHEDRALS
Info: 0 IMPROPERS
Info: 0 CROSSTERMS
Info: 2979 EXCLUSIONS
Info: 2894 RIGID BONDS
Info: ALCH: 0 ATOMS TO DISAPPEAR IN FINAL STATE
Info: ALCH: 21 ATOMS TO APPEAR IN FINAL STATE
Info: 5809 DEGREES OF FREEDOM
Info: 967 HYDROGEN GROUPS
Info: 4 ATOMS IN LARGEST HYDROGEN GROUP
Info: 967 MIGRATION GROUPS
Info: 4 ATOMS IN LARGEST MIGRATION GROUP
Info: TOTAL MASS = 17413.6 amu
Info: TOTAL CHARGE = 0.000399999 e
Info: MASS DENSITY = 0.976021 g/cm^3
Info: ATOM DENSITY = 0.0979173 atoms/A^3
Info: ADDED 0 IMPLICIT EXCLUSIONS
Info: NONBONDED TABLE R-SQUARED SPACING: 0.0625
Info: NONBONDED TABLE SIZE: 705 POINTS
Info: REMOVING COM VELOCITY 0.0357845 0.201759 0.119529
Info: Use 3D box decompostion in PME FFT.
Info: Updated CUDA force table with 4096 elements.
Info: Updated CUDA LJ table with 6 x 6 elements.
Info: Found 24 unique exclusion lists needing 68 bytes
TCL: Running for 1500000 steps
ETITLE: TS BOND ANGLE DIHED IMPRP ELECT VDW BOUNDARY MISC KINETIC TOTAL TEMP POTENTIAL TOTALAVG TEMPAVG PRESSURE GPRESSURE VOLUME PRESSAVG GPRESSAVG
ENERGY: 0 0.5132 12.0986 1.8711 0.0000 -10601.6296 1465.7395 0.0000 0.0000 1743.9428 -7377.4643 302.1491 -9121.4071 -7377.4643 302.1491 387.9931 485.6585 29627.0503 387.9931 485.6585
ENERGY: 300000 2.0520 8.6428 2.7476 0.0000 -10580.7407 1438.6059 0.0000 0.0000 1770.0589 -7358.6334 306.6738 -9128.6923 -7366.2389 301.2747 146.7395 209.4085 29897.5053 265.4983 349.3884
ENERGY: 600000 1.7326 9.5469 1.5462 0.0000 -10449.1151 1363.8014 0.0000 0.0000 1750.3598 -7322.1283 303.2608 -9072.4881 -7349.2598 300.8928 -128.3041 -24.0708 29581.4600 109.7864 189.4240
ENERGY: 900000 0.5543 7.8190 0.8692 0.0000 -10471.2068 1363.3652 0.0000 0.0000 1718.6422 -7379.9568 297.7656 -9098.5990 -7339.0671 302.0902 -378.7796 -362.3230 29874.8519 77.3920 155.7063
ENERGY: 1200000 2.6383 10.2633 1.8164 0.0000 -10600.8577 1439.9848 0.0000 0.0000 1730.8695 -7415.2854 299.8840 -9146.1550 -7337.5597 301.8698 -157.4026 -123.1996 29988.9931 79.7438 150.0670
ENERGY: 1500000 2.8433 12.9477 2.7233 0.0000 -10561.6827 1446.5125 0.0000 0.0000 1669.0521 -7427.6040 289.1738 -9096.6560 -7346.3693 300.4787 42.4650 19.1853 30083.4814 80.0486 140.6867
TCL: Running FEP window   2: Lambda1 0.95   Lambda2 0.8999999999999999 [dLambda -0.050000000000000044]
TCL: Setting parameter firsttimestep to 0
TCL: Setting parameter alchLambda to 0.95
Info: NONBONDED TABLE R-SQUARED SPACING: 0.0625
Info: NONBONDED TABLE SIZE: 705 POINTS
TCL: Setting parameter alchLambda2 to 0.8999999999999999
Info: NONBONDED TABLE R-SQUARED SPACING: 0.0625
Info: NONBONDED TABLE SIZE: 705 POINTS
TCL: Running for 1500000 steps
ETITLE: TS BOND ANGLE DIHED IMPRP ELECT VDW BOUNDARY MISC KINETIC TOTAL TEMP POTENTIAL TOTALAVG TEMPAVG PRESSURE GPRESSURE VOLUME PRESSAVG GPRESSAVG
ENERGY: 0 2.8433 12.9477 2.7233 0.0000 -10560.8839 1446.7176 0.0000 0.0000 1668.1752 -7427.4769 289.0218 -9095.6521 -7427.4769 289.0218 -52.4273 15.1167 30083.4814 -52.4273 15.1167
ENERGY: 300000 0.5093 13.6976 2.8775 0.0000 -10447.4793 1351.6432 0.0000 0.0000 1752.7788 -7325.9729 303.6800 -9078.7517 -7373.3718 297.0976 -535.4242 -465.5621 30243.2496 -241.8359 -166.8113
ENERGY: 600000 1.5648 7.7542 3.9479 0.0000 -10372.6722 1379.3772 0.0000 0.0000 1776.9142 -7203.1140 307.8616 -8980.0282 -7318.3074 299.9705 -19.9039 -14.4612 30219.3702 -231.4388 -158.9377
ENERGY: 900000 3.0624 9.5679 2.1458 0.0000 -10516.4071 1435.6331 0.0000 0.0000 1743.6371 -7322.3607 302.0961 -9065.9979 -7326.4578 299.2903 416.6217 463.3034 29778.2225 -185.0651 -123.9990
ENERGY: 1200000 1.5291 8.3891 0.7866 0.0000 -10433.7313 1400.5840 0.0000 0.0000 1709.3813 -7313.0612 296.1611 -9022.4425 -7314.9344 299.7178 344.2708 347.9526 29706.5891 -205.9017 -152.1237
ENERGY: 1500000 2.7552 9.4801 4.5986 0.0000 -10471.3230 1379.7192 0.0000 0.0000 1785.0049 -7289.7651 309.2633 -9074.7699 -7319.0646 299.7651 -221.4387 -145.8189 29811.6049 -272.7252 -212.2665
TCL: Running FEP window   3: Lambda1 0.8999999999999999 Lambda2 0.8499999999999999 [dLambda -0.050000000000000044]
TCL: Setting parameter firsttimestep to 0
TCL: Setting parameter alchLambda to 0.8999999999999999
Info: NONBONDED TABLE R-SQUARED SPACING: 0.0625
Info: NONBONDED TABLE SIZE: 705 POINTS
TCL: Setting parameter alchLambda2 to 0.8499999999999999
Info: NONBONDED TABLE R-SQUARED SPACING: 0.0625
Info: NONBONDED TABLE SIZE: 705 POINTS
TCL: Running for 1500000 steps
ETITLE: TS BOND ANGLE DIHED IMPRP ELECT VDW BOUNDARY MISC KINETIC TOTAL TEMP POTENTIAL TOTALAVG TEMPAVG PRESSURE GPRESSURE VOLUME PRESSAVG GPRESSAVG
ENERGY: 0 2.7552 9.4801 4.5986 0.0000 -10470.6307 1379.9146 0.0000 0.0000 1784.1505 -7289.7318 309.1153 -9073.8823 -7289.7318 309.1153 -246.4385 -156.2115 29811.6049 -246.4385 -156.2115
ENERGY: 300000 0.7963 7.7047 1.5443 0.0000 -10502.8433 1466.9792 0.0000 0.0000 1713.7244 -7312.0944 296.9135 -9025.8189 -7322.1000 303.0886 683.9176 712.8374 29723.9325 335.3305 429.4744
ENERGY: 600000 0.8162 10.8639 4.1020 0.0000 -10532.4462 1413.5941 0.0000 0.0000 1727.1730 -7375.8970 299.2436 -9103.0701 -7334.2192 302.6956 221.4006 271.0204 29392.0743 290.4282 372.1031
ENERGY: 900000 1.9254 10.4837 1.8454 0.0000 -10492.7802 1344.1337 0.0000 0.0000 1724.8507 -7409.5413 298.8412 -9134.3919 -7340.6559 302.6768 -578.6188 -522.2978 29944.8152 157.9912 233.7144
ENERGY: 1200000 0.2236 9.7575 1.4325 0.0000 -10473.6200 1376.3567 0.0000 0.0000 1669.4646 -7416.3851 289.2452 -9085.8496 -7356.4668 300.1300 -197.1635 -79.4319 29464.5974 83.0037 161.5514
ENERGY: 1500000 2.1683 11.4581 5.1828 0.0000 -10549.6096 1405.4816 0.0000 0.0000 1657.6888 -7467.6301 287.2050 -9125.3189 -7362.9817 299.8190 -124.0636 -91.7647 29630.6634 44.0197 119.4690
TCL: Running FEP window   4: Lambda1 0.8499999999999999 Lambda2 0.7999999999999998 [dLambda -0.050000000000000044]
TCL: Setting parameter firsttimestep to 0
TCL: Setting parameter alchLambda to 0.8499999999999999
Info: NONBONDED TABLE R-SQUARED SPACING: 0.0625
Info: NONBONDED TABLE SIZE: 705 POINTS
TCL: Setting parameter alchLambda2 to 0.7999999999999998
Info: NONBONDED TABLE R-SQUARED SPACING: 0.0625
Info: NONBONDED TABLE SIZE: 705 POINTS
TCL: Running for 1500000 steps
ETITLE: TS BOND ANGLE DIHED IMPRP ELECT VDW BOUNDARY MISC KINETIC TOTAL TEMP POTENTIAL TOTALAVG TEMPAVG PRESSURE GPRESSURE VOLUME PRESSAVG GPRESSAVG
ENERGY: 0 2.1683 11.4581 5.1828 0.0000 -10548.6502 1405.4351 0.0000 0.0000 1656.8098 -7467.5961 287.0527 -9124.4059 -7467.5961 287.0527 -187.1643 -101.6457 29630.6634 -187.1643 -101.6457
ENERGY: 300000 0.7913 8.6082 2.8178 0.0000 -10411.8794 1347.6256 0.0000 0.0000 1736.1107 -7315.9258 300.7921 -9052.0366 -7376.2977 297.8734 -415.9184 -391.6310 30089.6115 -424.8911 -357.4924
ENERGY: 600000 2.3195 10.7568 0.8329 0.0000 -10377.8288 1364.2223 0.0000 0.0000 1797.7873 -7201.9100 311.4780 -8999.6973 -7355.1168 299.6377 27.4423 78.6455 29881.6616 -424.1535 -350.7716
ENERGY: 900000 2.1168 9.0365 1.4108 0.0000 -10613.8962 1486.4971 0.0000 0.0000 1707.6663 -7407.1686 295.8639 -9114.8349 -7357.4392 299.2360 466.5609 508.3546 29927.7822 -281.4865 -217.3506
ENERGY: 1200000 1.2744 9.9443 3.4067 0.0000 -10530.1980 1419.0323 0.0000 0.0000 1772.0779 -7324.4625 307.0236 -9096.5403 -7347.9882 300.4857 163.4337 187.6935 29891.8852 -233.3281 -178.0044
ENERGY: 1500000 1.8345 12.5940 1.8878 0.0000 -10545.5120 1413.5975 0.0000 0.0000 1755.6697 -7359.9285 304.1808 -9115.5982 -7346.4075 300.0507 -89.5874 -59.1594 29772.4977 -157.9965 -99.4181
TCL: Running FEP window   5: Lambda1 0.7999999999999998 Lambda2 0.7499999999999998 [dLambda -0.050000000000000044]
TCL: Setting parameter firsttimestep to 0
TCL: Setting parameter alchLambda to 0.7999999999999998
Info: NONBONDED TABLE R-SQUARED SPACING: 0.0625
Info: NONBONDED TABLE SIZE: 705 POINTS
TCL: Setting parameter alchLambda2 to 0.7499999999999998
Info: NONBONDED TABLE R-SQUARED SPACING: 0.0625
Info: NONBONDED TABLE SIZE: 705 POINTS
TCL: Running for 1500000 steps
ETITLE: TS BOND ANGLE DIHED IMPRP ELECT VDW BOUNDARY MISC KINETIC TOTAL TEMP POTENTIAL TOTALAVG TEMPAVG PRESSURE GPRESSURE VOLUME PRESSAVG GPRESSAVG
ENERGY: 0 1.8345 12.5940 1.8878 0.0000 -10544.9981 1412.8491 0.0000 0.0000 1754.8064 -7361.0263 304.0312 -9115.8327 -7361.0263 304.0312 -174.7076 -79.3158 29772.4977 -174.7076 -79.3158
ENERGY: 300000 2.7004 11.3082 3.5886 0.0000 -10551.8979 1421.1380 0.0000 0.0000 1658.3478 -7454.8149 287.3192 -9113.1627 -7374.3600 300.4786 -36.2473 37.4389 29996.7363 197.4269 273.4154
ENERGY: 600000 1.5297 9.3185 2.2994 0.0000 -10425.1461 1394.4873 0.0000 0.0000 1778.3449 -7239.1663 308.1094 -9017.5112 -7345.9822 301.7946 29.1001 99.1917 30115.7962 201.0717 294.4496
ENERGY: 900000 0.9465 7.8657 3.0350 0.0000 -10565.1842 1418.4860 0.0000 0.0000 1742.5367 -7392.3143 301.9054 -9134.8509 -7356.3987 301.6098 -217.3528 -111.7806 29898.3089 88.9919 186.7892
ENERGY: 1200000 0.8365 6.2951 2.2785 0.0000 -10479.0040 1410.2069 0.0000 0.0000 1722.6410 -7336.7461 298.4584 -9059.3871 -7356.9083 300.9039 -112.3304 -35.6538 30334.0669 57.1969 151.6442
ENERGY: 1500000 1.1244 8.4569 2.4769 0.0000 -10513.5932 1428.7021 0.0000 0.0000 1732.7022 -7340.1307 300.2016 -9072.8330 -7354.8180 300.4391 206.6552 221.1579 29839.8345 121.4742 206.8966
TCL: Running FEP window   6: Lambda1 0.7499999999999998 Lambda2 0.6999999999999997 [dLambda -0.050000000000000044]
TCL: Setting parameter firsttimestep to 0
TCL: Setting parameter alchLambda to 0.7499999999999998
Info: NONBONDED TABLE R-SQUARED SPACING: 0.0625
Info: NONBONDED TABLE SIZE: 705 POINTS
TCL: Setting parameter alchLambda2 to 0.6999999999999997
Info: NONBONDED TABLE R-SQUARED SPACING: 0.0625
Info: NONBONDED TABLE SIZE: 705 POINTS
TCL: Running for 1500000 steps
ETITLE: TS BOND ANGLE DIHED IMPRP ELECT VDW BOUNDARY MISC KINETIC TOTAL TEMP POTENTIAL TOTALAVG TEMPAVG PRESSURE GPRESSURE VOLUME PRESSAVG GPRESSAVG
ENERGY: 0 1.1244 8.4569 2.4769 0.0000 -10512.9145 1428.7637 0.0000 0.0000 1731.8408 -7340.2518 300.0523 -9072.0926 -7340.2518 300.0523 132.5752 213.7901 29839.8345 132.5752 213.7901
ENERGY: 300000 0.6153 11.2209 3.2713 0.0000 -10594.8151 1462.1949 0.0000 0.0000 1734.9566 -7382.5561 300.5921 -9117.5127 -7340.7863 300.8296 185.9165 297.5921 29747.4449 -84.2078 -10.2507
ENERGY: 600000 2.7242 11.5416 1.4140 0.0000 -10470.2790 1439.6512 0.0000 0.0000 1669.7785 -7345.1695 289.2996 -9014.9479 -7339.9874 300.5481 464.0059 524.7862 29893.2425 -68.7847 0.5231
ENERGY: 900000 2.2884 9.3553 3.2902 0.0000 -10337.6970 1342.1955 0.0000 0.0000 1736.4860 -7244.0817 300.8571 -8980.5676 -7327.1854 300.0373 -205.3307 -194.2751 29946.2279 -119.0640 -50.6379
ENERGY: 1200000 1.6314 9.3678 1.9752 0.0000 -10546.2976 1420.0826 0.0000 0.0000 1793.5557 -7319.6850 310.7448 -9113.2407 -7326.2487 300.8554 124.5620 192.4484 29810.4037 -150.4214 -79.6111
ENERGY: 1500000 1.2091 9.6377 1.6812 0.0000 -10517.3380 1371.3977 0.0000 0.0000 1732.8572 -7400.5551 300.2284 -9133.4123 -7328.7793 301.0070 -905.1066 -767.1018 30404.4470 -104.9888 -36.1857
TCL: Running FEP window   7: Lambda1 0.6999999999999997 Lambda2 0.6499999999999997 [dLambda -0.050000000000000044]
TCL: Setting parameter firsttimestep to 0
TCL: Setting parameter alchLambda to 0.6999999999999997
Info: NONBONDED TABLE R-SQUARED SPACING: 0.0625
Info: NONBONDED TABLE SIZE: 705 POINTS
TCL: Setting parameter alchLambda2 to 0.6499999999999997
Info: NONBONDED TABLE R-SQUARED SPACING: 0.0625
Info: NONBONDED TABLE SIZE: 705 POINTS
TCL: Running for 1500000 steps
ETITLE: TS BOND ANGLE DIHED IMPRP ELECT VDW BOUNDARY MISC KINETIC TOTAL TEMP POTENTIAL TOTALAVG TEMPAVG PRESSURE GPRESSURE VOLUME PRESSAVG GPRESSAVG
ENERGY: 0 1.2091 9.6377 1.6812 0.0000 -10517.2156 1371.4899 0.0000 0.0000 1731.9612 -7401.2366 300.0732 -9133.1978 -7401.2366 300.0732 -861.2105 -775.5558 30404.4470 -861.2105 -775.5558
ENERGY: 300000 1.3445 10.6538 3.5736 0.0000 -10448.6962 1345.8051 0.0000 0.0000 1703.7581 -7383.5611 295.1868 -9087.3192 -7357.0067 301.5004 -476.7065 -430.0570 29768.9402 -529.7462 -482.3985
ENERGY: 600000 1.9292 11.6566 3.6069 0.0000 -10355.8470 1332.2000 0.0000 0.0000 1735.4422 -7271.0122 300.6763 -9006.4544 -7332.3415 301.4212 -300.9815 -226.1935 29474.2437 -321.9303 -278.0294
ENERGY: 900000 1.0283 6.3984 1.6876 0.0000 -10408.0065 1359.5636 0.0000 0.0000 1720.4037 -7318.9249 298.0708 -9039.3286 -7340.1047 300.8786 -131.5799 -138.7976 29539.0218 -267.6877 -223.0927
ENERGY: 1200000 0.9298 7.9595 2.4818 0.0000 -10537.0602 1426.7561 0.0000 0.0000 1780.3108 -7318.6222 308.4500 -9098.9330 -7335.8411 301.5787 545.7762 509.6080 29371.9521 -99.0979 -59.9160
ENERGY: 1500000 2.2897 9.7478 0.9233 0.0000 -10502.9483 1408.8933 0.0000 0.0000 1701.7517 -7379.3424 294.8392 -9081.0941 -7335.0935 301.4056 -111.1270 17.3838 29794.1013 -110.2677 -69.9221
TCL: Running FEP window   8: Lambda1 0.6499999999999997 Lambda2 0.5999999999999996 [dLambda -0.050000000000000044]
TCL: Setting parameter firsttimestep to 0
TCL: Setting parameter alchLambda to 0.6499999999999997
Info: NONBONDED TABLE R-SQUARED SPACING: 0.0625
Info: NONBONDED TABLE SIZE: 705 POINTS
TCL: Setting parameter alchLambda2 to 0.5999999999999996
Info: NONBONDED TABLE R-SQUARED SPACING: 0.0625
Info: NONBONDED TABLE SIZE: 705 POINTS
TCL: Running for 1500000 steps
ETITLE: TS BOND ANGLE DIHED IMPRP ELECT VDW BOUNDARY MISC KINETIC TOTAL TEMP POTENTIAL TOTALAVG TEMPAVG PRESSURE GPRESSURE VOLUME PRESSAVG GPRESSAVG
ENERGY: 0 2.2897 9.7478 0.9233 0.0000 -10502.6356 1409.6538 0.0000 0.0000 1700.9212 -7379.0998 294.6953 -9080.0209 -7379.0998 294.6953 -69.1957 19.0158 29794.1013 -69.1957 19.0158
ENERGY: 300000 1.0283 10.1328 3.9049 0.0000 -10549.4585 1416.1271 0.0000 0.0000 1783.6139 -7334.6514 309.0223 -9118.2653 -7339.6717 299.0763 83.0965 142.2351 29803.7018 227.0466 272.5851
ENERGY: 600000 1.1572 10.9087 1.6258 0.0000 -10361.2318 1316.3769 0.0000 0.0000 1691.0886 -7340.0747 292.9917 -9031.1633 -7331.9351 298.8731 -522.0127 -470.1026 29740.5550 88.2050 125.4555
ENERGY: 900000 0.5259 7.7779 0.8184 0.0000 -10484.6967 1390.3249 0.0000 0.0000 1703.0086 -7382.2409 295.0570 -9085.2495 -7336.6749 298.1636 -184.6494 -144.6025 30002.4065 -2.9360 48.1034
ENERGY: 1200000 1.3727 11.2231 1.2026 0.0000 -10522.7228 1406.9249 0.0000 0.0000 1807.8551 -7294.1444 313.2223 -9101.9995 -7331.3194 299.1664 110.4202 141.9455 29619.3635 174.1180 223.8981
ENERGY: 1500000 2.2235 11.4949 5.0745 0.0000 -10587.9239 1441.2514 0.0000 0.0000 1710.4582 -7417.4214 296.3476 -9127.8796 -7332.8269 299.2342 204.6492 319.0618 29613.8293 113.5066 169.8461
TCL: Running FEP window   9: Lambda1 0.5999999999999996 Lambda2 0.5499999999999996 [dLambda -0.050000000000000044]
TCL: Setting parameter firsttimestep to 0
TCL: Setting parameter alchLambda to 0.5999999999999996
Info: NONBONDED TABLE R-SQUARED SPACING: 0.0625
Info: NONBONDED TABLE SIZE: 705 POINTS
TCL: Setting parameter alchLambda2 to 0.5499999999999996
Info: NONBONDED TABLE R-SQUARED SPACING: 0.0625
Info: NONBONDED TABLE SIZE: 705 POINTS
TCL: Running for 1500000 steps
ETITLE: TS BOND ANGLE DIHED IMPRP ELECT VDW BOUNDARY MISC KINETIC TOTAL TEMP POTENTIAL TOTALAVG TEMPAVG PRESSURE GPRESSURE VOLUME PRESSAVG GPRESSAVG
ENERGY: 0 2.2235 11.4949 5.0745 0.0000 -10587.9237 1441.7316 0.0000 0.0000 1709.5961 -7417.8032 296.1983 -9127.3994 -7417.8032 296.1983 223.3459 316.4072 29613.8293 223.3459 316.4072
ENERGY: 300000 2.5091 14.6952 3.1156 0.0000 -10669.6377 1460.4437 0.0000 0.0000 1743.8989 -7444.9751 302.1415 -9188.8740 -7376.4261 302.0341 111.0787 161.3934 29375.4677 81.9352 149.3033
ENERGY: 600000 1.4941 9.0089 3.2846 0.0000 -10497.7926 1399.7109 0.0000 0.0000 1744.9104 -7339.3837 302.3167 -9084.2942 -7331.3563 301.5828 -174.3788 -21.1262 29577.9977 -25.4579 59.8771
ENERGY: 900000 0.5125 12.2125 0.6813 0.0000 -10348.1734 1340.5606 0.0000 0.0000 1733.8457 -7260.3607 300.3997 -8994.2064 -7317.8472 301.5837 -477.2571 -423.5335 30198.0833 -142.9225 -61.3310
ENERGY: 1200000 1.9222 11.8440 2.1007 0.0000 -10533.8876 1480.5186 0.0000 0.0000 1773.4272 -7264.0749 307.2574 -9037.5021 -7320.3438 301.4853 692.3199 762.6343 29847.9394 10.1803 84.8168
ENERGY: 1500000 2.3680 16.2558 1.2469 0.0000 -10558.0631 1407.3758 0.0000 0.0000 1739.5739 -7391.2426 301.3921 -9130.8166 -7327.7338 300.8606 -252.0610 -235.6536 29927.8169 93.2952 158.9001
TCL: Running FEP window  10: Lambda1 0.5499999999999996 Lambda2 0.4999999999999996 [dLambda -0.04999999999999999]
TCL: Setting parameter firsttimestep to 0
TCL: Setting parameter alchLambda to 0.5499999999999996
Info: NONBONDED TABLE R-SQUARED SPACING: 0.0625
Info: NONBONDED TABLE SIZE: 705 POINTS
TCL: Setting parameter alchLambda2 to 0.4999999999999996
Info: NONBONDED TABLE R-SQUARED SPACING: 0.0625
Info: NONBONDED TABLE SIZE: 705 POINTS
TCL: Running for 1500000 steps
ETITLE: TS BOND ANGLE DIHED IMPRP ELECT VDW BOUNDARY MISC KINETIC TOTAL TEMP POTENTIAL TOTALAVG TEMPAVG PRESSURE GPRESSURE VOLUME PRESSAVG GPRESSAVG
ENERGY: 0 2.3680 16.2558 1.2469 0.0000 -10557.7061 1407.3381 0.0000 0.0000 1738.6798 -7391.8175 301.2372 -9130.4973 -7391.8175 301.2372 -336.6464 -246.0992 29927.8169 -336.6464 -246.0992
ENERGY: 300000 1.7390 7.6096 3.0366 0.0000 -10340.2588 1303.6452 0.0000 0.0000 1704.0017 -7320.2267 295.2290 -9024.2284 -7349.4757 297.0282 -826.1897 -759.6691 29862.0541 -297.6001 -217.1927
ENERGY: 600000 1.3613 13.0981 3.4701 0.0000 -10459.6289 1407.9159 0.0000 0.0000 1748.5551 -7285.2284 302.9482 -9033.7835 -7357.5076 298.8202 -282.9113 -231.7198 30330.9686 -86.8060 -16.9100
ENERGY: 900000 1.7489 7.5948 1.2172 0.0000 -10480.8006 1367.8557 0.0000 0.0000 1685.6606 -7416.7234 292.0513 -9102.3840 -7371.5915 297.9584 -430.4448 -357.4161 29636.3704 -168.5657 -95.1265
ENERGY: 1200000 2.7161 7.7340 2.4479 0.0000 -10465.1348 1414.5282 0.0000 0.0000 1720.4361 -7317.2725 298.0764 -9037.7086 -7360.7423 298.5799 -146.9595 4.2506 30113.8665 -182.5556 -103.9067
ENERGY: 1500000 2.3200 11.2620 2.6024 0.0000 -10463.3706 1387.6323 0.0000 0.0000 1728.6817 -7330.8722 299.5050 -9059.5539 -7354.5404 298.6499 -311.7361 -240.2961 30061.2217 -101.4760 -28.7488
TCL: Running FEP window  11: Lambda1 0.4999999999999996 Lambda2 0.4499999999999996 [dLambda -0.04999999999999999]
TCL: Setting parameter firsttimestep to 0
TCL: Setting parameter alchLambda to 0.4999999999999996
Info: NONBONDED TABLE R-SQUARED SPACING: 0.0625
Info: NONBONDED TABLE SIZE: 705 POINTS
TCL: Setting parameter alchLambda2 to 0.4499999999999996
Info: NONBONDED TABLE R-SQUARED SPACING: 0.0625
Info: NONBONDED TABLE SIZE: 705 POINTS
TCL: Running for 1500000 steps
ETITLE: TS BOND ANGLE DIHED IMPRP ELECT VDW BOUNDARY MISC KINETIC TOTAL TEMP POTENTIAL TOTALAVG TEMPAVG PRESSURE GPRESSURE VOLUME PRESSAVG GPRESSAVG
ENERGY: 0 2.3200 11.2620 2.6024 0.0000 -10462.9722 1387.1874 0.0000 0.0000 1727.8515 -7331.7489 299.3611 -9059.6004 -7331.7489 299.3611 -322.6685 -246.7482 30061.2217 -322.6685 -246.7482
ENERGY: 300000 1.0348 10.1137 1.9228 0.0000 -10464.0747 1444.3217 0.0000 0.0000 1730.5852 -7276.0965 299.8348 -9006.6817 -7322.6577 299.4066 159.7251 218.6914 30530.7355 233.9683 303.4323
ENERGY: 600000 1.7751 8.8922 2.5801 0.0000 -10392.3523 1318.9154 0.0000 0.0000 1773.8648 -7286.3247 307.3332 -9060.1895 -7323.4306 301.1093 -915.1302 -801.8029 30292.0313 -15.7231 44.0525
ENERGY: 900000 2.8592 11.2512 2.8341 0.0000 -10427.8911 1412.3107 0.0000 0.0000 1716.9192 -7281.7167 297.4671 -8998.6359 -7338.7443 300.0240 40.2716 129.4063 29926.2044 -53.0549 4.1456
ENERGY: 1200000 0.7664 6.8929 4.0654 0.0000 -10465.2765 1388.0835 0.0000 0.0000 1758.8299 -7306.6383 304.7283 -9065.4683 -7337.3697 300.3001 -380.9820 -298.1671 30280.5679 20.7517 81.9465
ENERGY: 1500000 3.0651 13.6508 2.6708 0.0000 -10543.2911 1447.1217 0.0000 0.0000 1746.8377 -7329.9451 302.6506 -9076.7828 -7342.6000 300.0144 351.9970 352.6422 29551.9670 65.9088 128.4177
TCL: Running FEP window  12: Lambda1 0.4499999999999996 Lambda2 0.39999999999999963 [dLambda -0.04999999999999999]
TCL: Setting parameter firsttimestep to 0
TCL: Setting parameter alchLambda to 0.4499999999999996
Info: NONBONDED TABLE R-SQUARED SPACING: 0.0625
Info: NONBONDED TABLE SIZE: 705 POINTS
TCL: Setting parameter alchLambda2 to 0.39999999999999963
Info: NONBONDED TABLE R-SQUARED SPACING: 0.0625
Info: NONBONDED TABLE SIZE: 705 POINTS
TCL: Running for 1500000 steps
ETITLE: TS BOND ANGLE DIHED IMPRP ELECT VDW BOUNDARY MISC KINETIC TOTAL TEMP POTENTIAL TOTALAVG TEMPAVG PRESSURE GPRESSURE VOLUME PRESSAVG GPRESSAVG
ENERGY: 0 3.0651 13.6508 2.6708 0.0000 -10543.2918 1446.5191 0.0000 0.0000 1745.9580 -7331.4281 302.4982 -9077.3861 -7331.4281 302.4982 260.8126 337.5397 29551.9670 260.8126 337.5397
ENERGY: 300000 1.5605 8.3838 2.8896 0.0000 -10420.9098 1374.0044 0.0000 0.0000 1729.8890 -7304.1824 299.7142 -9034.0715 -7332.0296 300.6244 -223.6937 -143.3935 29985.2470 -194.8594 -130.6411
ENERGY: 600000 1.0488 15.5235 3.9108 0.0000 -10599.0432 1496.3260 0.0000 0.0000 1751.1334 -7331.1007 303.3949 -9082.2341 -7329.8054 301.0556 769.7610 862.9521 29413.0383 82.6406 153.9666
ENERGY: 900000 1.1345 9.1331 0.7959 0.0000 -10676.3148 1485.7842 0.0000 0.0000 1739.5727 -7439.8943 301.3919 -9179.4670 -7338.1718 302.4889 403.0103 510.9895 29317.6040 -2.3599 76.4956
ENERGY: 1200000 3.6622 11.6777 0.3752 0.0000 -10365.2622 1403.7607 0.0000 0.0000 1703.7318 -7242.0546 295.1823 -8945.7864 -7341.8339 300.3128 247.3068 287.0957 30096.1705 -22.4791 55.2866
ENERGY: 1500000 2.0562 7.2399 3.8964 0.0000 -10488.2167 1413.6809 0.0000 0.0000 1740.7856 -7320.5578 301.6020 -9061.3434 -7340.5388 299.9524 -129.9390 -79.2943 30010.8298 -41.8555 33.5452
TCL: Running FEP window  13: Lambda1 0.39999999999999963 Lambda2 0.34999999999999964 [dLambda -0.04999999999999999]
TCL: Setting parameter firsttimestep to 0
TCL: Setting parameter alchLambda to 0.39999999999999963
Info: NONBONDED TABLE R-SQUARED SPACING: 0.0625
Info: NONBONDED TABLE SIZE: 705 POINTS
TCL: Setting parameter alchLambda2 to 0.34999999999999964
Info: NONBONDED TABLE R-SQUARED SPACING: 0.0625
Info: NONBONDED TABLE SIZE: 705 POINTS
TCL: Running for 1500000 steps
ETITLE: TS BOND ANGLE DIHED IMPRP ELECT VDW BOUNDARY MISC KINETIC TOTAL TEMP POTENTIAL TOTALAVG TEMPAVG PRESSURE GPRESSURE VOLUME PRESSAVG GPRESSAVG
ENERGY: 0 2.0562 7.2399 3.8964 0.0000 -10488.2154 1413.6239 0.0000 0.0000 1739.9427 -7321.4563 301.4560 -9061.3990 -7321.4563 301.4560 -189.2485 -86.1634 30010.8298 -189.2485 -86.1634
ENERGY: 300000 3.3908 7.6625 1.7046 0.0000 -10558.9061 1496.7643 0.0000 0.0000 1748.5030 -7300.8810 302.9391 -9049.3841 -7319.5413 300.8345 942.4240 991.9864 29149.4430 290.1767 343.7279
ENERGY: 600000 0.9161 11.1468 1.5281 0.0000 -10580.5232 1469.6172 0.0000 0.0000 1723.4124 -7373.9025 298.5920 -9097.3150 -7312.6566 302.4369 514.0852 610.2528 29783.5023 249.4287 305.2990
ENERGY: 900000 0.3405 7.0357 2.4509 0.0000 -10327.2048 1339.3168 0.0000 0.0000 1707.4498 -7270.6110 295.8264 -8978.0609 -7314.7195 301.8256 -330.9254 -232.1712 29743.4307 73.3696 128.8030
ENERGY: 1200000 3.6234 12.4727 3.0928 0.0000 -10542.9928 1411.0724 0.0000 0.0000 1694.5657 -7418.1657 293.5942 -9112.7314 -7331.3563 300.2205 -390.1043 -335.9549 29770.8408 61.8198 112.6060
ENERGY: 1500000 2.0227 8.9970 2.3039 0.0000 -10357.5130 1359.3554 0.0000 0.0000 1684.6272 -7300.2068 291.8723 -8984.8340 -7324.7822 299.7754 -62.8198 1.6386 29815.5430 98.7460 155.9973
TCL: Running FEP window  14: Lambda1 0.34999999999999964 Lambda2 0.29999999999999966 [dLambda -0.04999999999999999]
TCL: Setting parameter firsttimestep to 0
TCL: Setting parameter alchLambda to 0.34999999999999964
Info: NONBONDED TABLE R-SQUARED SPACING: 0.0625
Info: NONBONDED TABLE SIZE: 705 POINTS
TCL: Setting parameter alchLambda2 to 0.29999999999999966
Info: NONBONDED TABLE R-SQUARED SPACING: 0.0625
Info: NONBONDED TABLE SIZE: 705 POINTS
TCL: Running for 1500000 steps
ETITLE: TS BOND ANGLE DIHED IMPRP ELECT VDW BOUNDARY MISC KINETIC TOTAL TEMP POTENTIAL TOTALAVG TEMPAVG PRESSURE GPRESSURE VOLUME PRESSAVG GPRESSAVG
ENERGY: 0 2.0227 8.9970 2.3039 0.0000 -10357.5130 1359.7499 0.0000 0.0000 1683.7268 -7300.7128 291.7162 -8984.4395 -7300.7128 291.7162 -81.2217 -1.3371 29815.5430 -81.2217 -1.3371
ENERGY: 300000 1.6837 12.1847 3.6484 0.0000 -10446.3130 1372.8891 0.0000 0.0000 1737.2949 -7318.6123 300.9973 -9055.9071 -7341.5182 299.0697 -217.6690 -187.2686 29646.4892 -26.1593 38.1021
ENERGY: 600000 0.5812 10.9289 2.8833 0.0000 -10498.6492 1419.3421 0.0000 0.0000 1687.8988 -7377.0149 292.4391 -9064.9137 -7353.2937 297.9439 113.4833 154.5099 29793.0099 64.9405 114.7790
ENERGY: 900000 0.7153 10.2451 1.7308 0.0000 -10433.2878 1332.6758 0.0000 0.0000 1718.7493 -7369.1715 297.7841 -9087.9208 -7365.1103 297.5631 -577.0089 -524.9472 29860.3158 10.7603 65.9312
ENERGY: 1200000 1.9880 10.7411 0.4546 0.0000 -10661.0398 1548.0318 0.0000 0.0000 1708.2423 -7391.5819 295.9637 -9099.8242 -7355.9004 297.5757 1083.7330 1155.4112 29263.6888 155.3977 209.1959
ENERGY: 1500000 1.9816 5.6094 3.2135 0.0000 -10512.1654 1409.2692 0.0000 0.0000 1704.9075 -7387.1841 295.3859 -9092.0916 -7361.6408 297.1239 57.0276 133.7003 29477.2629 167.7945 220.9015
TCL: Running FEP window  15: Lambda1 0.29999999999999966 Lambda2 0.24999999999999967 [dLambda -0.04999999999999999]
TCL: Setting parameter firsttimestep to 0
TCL: Setting parameter alchLambda to 0.29999999999999966
Info: NONBONDED TABLE R-SQUARED SPACING: 0.0625
Info: NONBONDED TABLE SIZE: 705 POINTS
TCL: Setting parameter alchLambda2 to 0.24999999999999967
Info: NONBONDED TABLE R-SQUARED SPACING: 0.0625
Info: NONBONDED TABLE SIZE: 705 POINTS
TCL: Running for 1500000 steps
ETITLE: TS BOND ANGLE DIHED IMPRP ELECT VDW BOUNDARY MISC KINETIC TOTAL TEMP POTENTIAL TOTALAVG TEMPAVG PRESSURE GPRESSURE VOLUME PRESSAVG GPRESSAVG
ENERGY: 0 1.9816 5.6094 3.2135 0.0000 -10512.1669 1409.0471 0.0000 0.0000 1704.0702 -7388.2451 295.2409 -9092.3153 -7388.2451 295.2409 47.9657 130.2949 29477.2629 47.9657 130.2949
ENERGY: 300000 1.8797 12.3902 1.9811 0.0000 -10566.5310 1511.1729 0.0000 0.0000 1774.6227 -7264.4844 307.4645 -9039.1071 -7304.8544 301.8714 969.8486 1069.2639 29437.1780 248.0232 340.3816
ENERGY: 600000 3.7119 10.8120 1.4035 0.0000 -10573.5696 1470.0266 0.0000 0.0000 1731.9583 -7355.6574 300.0727 -9087.6157 -7336.5954 301.3056 444.6955 497.9484 29612.8022 246.4031 315.6273
ENERGY: 900000 2.9417 10.6696 3.0834 0.0000 -10522.3184 1440.7097 0.0000 0.0000 1745.4069 -7319.5071 302.4027 -9064.9141 -7338.6130 300.3294 269.5341 347.3991 29605.8391 209.0613 272.8145
ENERGY: 1200000 0.6323 9.1989 3.6338 0.0000 -10544.0432 1414.2841 0.0000 0.0000 1744.8012 -7371.4928 302.2978 -9116.2940 -7334.2183 300.1702 193.5294 264.0466 29377.3232 190.3405 249.6009
ENERGY: 1500000 1.6126 11.9974 3.1131 0.0000 -10337.3166 1284.7082 0.0000 0.0000 1739.7865 -7296.0986 301.4290 -9035.8852 -7326.9945 300.9386 -1191.5078 -1156.3158 30319.2840 65.7928 126.2100
TCL: Running FEP window  16: Lambda1 0.24999999999999967 Lambda2 0.19999999999999968 [dLambda -0.04999999999999999]
TCL: Setting parameter firsttimestep to 0
TCL: Setting parameter alchLambda to 0.24999999999999967
Info: NONBONDED TABLE R-SQUARED SPACING: 0.0625
Info: NONBONDED TABLE SIZE: 705 POINTS
TCL: Setting parameter alchLambda2 to 0.19999999999999968
Info: NONBONDED TABLE R-SQUARED SPACING: 0.0625
Info: NONBONDED TABLE SIZE: 705 POINTS
TCL: Running for 1500000 steps
ETITLE: TS BOND ANGLE DIHED IMPRP ELECT VDW BOUNDARY MISC KINETIC TOTAL TEMP POTENTIAL TOTALAVG TEMPAVG PRESSURE GPRESSURE VOLUME PRESSAVG GPRESSAVG
ENERGY: 0 1.6126 11.9974 3.1131 0.0000 -10337.3172 1285.2834 0.0000 0.0000 1738.9206 -7296.3900 301.2789 -9035.3106 -7296.3900 301.2789 -1243.2410 -1156.9573 30319.2840 -1243.2410 -1156.9573
ENERGY: 300000 2.9876 9.2695 0.7899 0.0000 -10628.2145 1524.5476 0.0000 0.0000 1790.2061 -7300.4138 310.1645 -9090.6199 -7321.6011 303.7776 1242.8031 1276.6598 29168.1036 242.3595 288.8605
ENERGY: 600000 0.9672 10.5277 1.9806 0.0000 -10500.8715 1373.4960 0.0000 0.0000 1721.0893 -7392.8109 298.1895 -9113.9001 -7308.2075 302.6310 -410.9757 -325.3974 29883.5376 95.1476 130.4301
ENERGY: 900000 2.0363 10.7697 1.1887 0.0000 -10698.2762 1459.7538 0.0000 0.0000 1681.8868 -7542.6410 291.3975 -9224.5277 -7343.0509 301.0498 16.7717 84.7274 29463.7846 64.6163 101.5729
ENERGY: 1200000 3.0885 10.3491 2.0442 0.0000 -10467.4959 1398.2366 0.0000 0.0000 1713.0108 -7340.7667 296.7899 -9053.7775 -7353.8603 299.7339 91.4384 109.7006 29460.8590 54.6936 88.5038
ENERGY: 1500000 1.1903 8.8538 2.1119 0.0000 -10506.1400 1392.7117 0.0000 0.0000 1736.9731 -7364.2992 300.9415 -9101.2723 -7352.7896 298.9460 -395.8693 -329.5458 29859.1122 19.7211 59.4599
TCL: Running FEP window  17: Lambda1 0.19999999999999968 Lambda2 0.1499999999999997 [dLambda -0.04999999999999999]
TCL: Setting parameter firsttimestep to 0
TCL: Setting parameter alchLambda to 0.19999999999999968
Info: NONBONDED TABLE R-SQUARED SPACING: 0.0625
Info: NONBONDED TABLE SIZE: 705 POINTS
TCL: Setting parameter alchLambda2 to 0.1499999999999997
Info: NONBONDED TABLE R-SQUARED SPACING: 0.0625
Info: NONBONDED TABLE SIZE: 705 POINTS
TCL: Running for 1500000 steps
ETITLE: TS BOND ANGLE DIHED IMPRP ELECT VDW BOUNDARY MISC KINETIC TOTAL TEMP POTENTIAL TOTALAVG TEMPAVG PRESSURE GPRESSURE VOLUME PRESSAVG GPRESSAVG
ENERGY: 0 1.1903 8.8538 2.1119 0.0000 -10506.1408 1392.7606 0.0000 0.0000 1736.0993 -7365.1248 300.7901 -9101.2241 -7365.1248 300.7901 -432.2525 -336.5492 29859.1122 -432.2525 -336.5492
ENERGY: 300000 1.6943 6.8392 3.3684 0.0000 -10440.7567 1413.1635 0.0000 0.0000 1771.1107 -7244.5806 306.8561 -9015.6913 -7309.6760 304.6110 300.3687 369.2673 29671.9611 -217.8732 -129.4099
ENERGY: 600000 3.2426 8.7579 1.7732 0.0000 -10499.3926 1347.2902 0.0000 0.0000 1702.9287 -7435.4000 295.0431 -9138.3287 -7335.5394 300.9018 -1096.5338 -1018.6899 29975.0351 -372.6058 -278.4288
ENERGY: 900000 0.8439 9.5303 3.0188 0.0000 -10498.4267 1374.2386 0.0000 0.0000 1733.7495 -7377.0457 300.3830 -9110.7952 -7329.7980 301.8668 -648.9230 -528.6580 30212.0804 -392.2362 -301.8635
ENERGY: 1200000 3.9674 9.8535 2.8664 0.0000 -10484.5218 1411.3333 0.0000 0.0000 1768.7424 -7287.7588 306.4457 -9056.5012 -7331.6450 300.9915 144.5684 197.0182 29525.9688 -278.2396 -183.8136
ENERGY: 1500000 3.2871 13.4041 1.4621 0.0000 -10440.1072 1368.7782 0.0000 0.0000 1786.8149 -7266.3606 309.5769 -9053.1756 -7321.6556 302.2587 -212.6551 -148.8000 29671.8769 -246.1479 -152.2836
TCL: Running FEP window  18: Lambda1 0.1499999999999997 Lambda2 0.09999999999999969 [dLambda -0.05 ]
TCL: Setting parameter firsttimestep to 0
TCL: Setting parameter alchLambda to 0.1499999999999997
Info: NONBONDED TABLE R-SQUARED SPACING: 0.0625
Info: NONBONDED TABLE SIZE: 705 POINTS
TCL: Setting parameter alchLambda2 to 0.09999999999999969
Info: NONBONDED TABLE R-SQUARED SPACING: 0.0625
Info: NONBONDED TABLE SIZE: 705 POINTS
TCL: Running for 1500000 steps
ETITLE: TS BOND ANGLE DIHED IMPRP ELECT VDW BOUNDARY MISC KINETIC TOTAL TEMP POTENTIAL TOTALAVG TEMPAVG PRESSURE GPRESSURE VOLUME PRESSAVG GPRESSAVG
ENERGY: 0 3.2871 13.4042 1.4621 0.0000 -10440.1068 1368.6457 0.0000 0.0000 1785.9151 -7267.3927 309.4210 -9053.3078 -7267.3927 309.4210 -239.9462 -149.8689 29671.8769 -239.9462 -149.8689
ENERGY: 300000 1.4288 6.2055 2.5637 0.0000 -10462.2371 1396.6007 0.0000 0.0000 1736.9435 -7318.4949 300.9364 -9055.4384 -7313.8672 303.9146 -130.3429 -34.4981 29630.8353 -619.2256 -531.5288
ENERGY: 600000 2.0473 13.2800 0.6807 0.0000 -10553.7475 1441.1531 0.0000 0.0000 1740.4251 -7356.1614 301.5396 -9096.5864 -7329.5522 300.4190 331.0088 386.7583 29437.9521 -361.3975 -286.7681
ENERGY: 900000 0.9709 8.7879 5.4255 0.0000 -10492.9928 1337.6966 0.0000 0.0000 1670.6840 -7469.4279 289.4565 -9140.1119 -7333.3799 298.1044 -949.9701 -889.2212 29911.3991 -366.6050 -293.0389
ENERGY: 1200000 2.8320 10.6491 2.0131 0.0000 -10441.8516 1390.4932 0.0000 0.0000 1749.1254 -7286.7388 303.0470 -9035.8642 -7323.7481 298.1862 -128.5717 -106.0358 29669.0946 -235.5018 -163.9934
ENERGY: 1500000 2.6523 8.2981 2.4994 0.0000 -10555.7666 1401.8957 0.0000 0.0000 1680.7035 -7459.7175 291.1924 -9140.4210 -7336.7499 297.7839 -402.4771 -412.9992 29607.5213 -253.4641 -190.1233
TCL: Running FEP window  19: Lambda1 0.09999999999999969 Lambda2 0.049999999999999684 [dLambda -0.05 ]
TCL: Setting parameter firsttimestep to 0
TCL: Setting parameter alchLambda to 0.09999999999999969
Info: NONBONDED TABLE R-SQUARED SPACING: 0.0625
Info: NONBONDED TABLE SIZE: 705 POINTS
TCL: Setting parameter alchLambda2 to 0.049999999999999684
Info: NONBONDED TABLE R-SQUARED SPACING: 0.0625
Info: NONBONDED TABLE SIZE: 705 POINTS
TCL: Running for 1500000 steps
ETITLE: TS BOND ANGLE DIHED IMPRP ELECT VDW BOUNDARY MISC KINETIC TOTAL TEMP POTENTIAL TOTALAVG TEMPAVG PRESSURE GPRESSURE VOLUME PRESSAVG GPRESSAVG
ENERGY: 0 2.6523 8.2981 2.4994 0.0000 -10555.7663 1401.1247 0.0000 0.0000 1679.8478 -7461.3440 291.0442 -9141.1918 -7461.3440 291.0442 -502.0668 -420.1190 29607.5213 -502.0668 -420.1190
ENERGY: 300000 0.8075 8.4168 5.1649 0.0000 -10399.0955 1336.3678 0.0000 0.0000 1732.5079 -7315.8307 300.1679 -9048.3385 -7349.8338 297.2906 -465.9396 -408.0942 29580.2995 -56.1093 -7.4877
ENERGY: 600000 0.9753 9.4382 3.3427 0.0000 -10332.3738 1306.1158 0.0000 0.0000 1676.0423 -7336.4596 290.3849 -9012.5019 -7359.0343 297.0179 -704.5053 -627.3782 29706.0772 -340.9227 -276.6633
ENERGY: 900000 1.5193 9.8865 3.1131 0.0000 -10477.9517 1390.5627 0.0000 0.0000 1711.0648 -7361.8053 296.4527 -9072.8701 -7349.7039 297.4130 -177.3050 -106.0842 29352.7748 -236.5975 -172.1806
ENERGY: 1200000 2.0161 10.5895 3.4645 0.0000 -10478.4107 1427.2647 0.0000 0.0000 1743.6841 -7291.3918 302.1042 -9035.0759 -7350.1076 298.3236 481.2535 550.1665 29217.7420 -206.8485 -143.5038
ENERGY: 1500000 1.6449 9.7017 3.2158 0.0000 -10537.6150 1453.7246 0.0000 0.0000 1707.2356 -7362.0924 295.7893 -9069.3280 -7338.4414 298.6071 114.0746 156.7186 29932.2561 -176.3391 -112.4287
TCL: Running FEP window  20: Lambda1 0.049999999999999684 Lambda2 0.0    [dLambda -0.049999999999999684]
TCL: Setting parameter firsttimestep to 0
TCL: Setting parameter alchLambda to 0.049999999999999684
Info: NONBONDED TABLE R-SQUARED SPACING: 0.0625
Info: NONBONDED TABLE SIZE: 705 POINTS
TCL: Setting parameter alchLambda2 to 0.0
Info: NONBONDED TABLE R-SQUARED SPACING: 0.0625
Info: NONBONDED TABLE SIZE: 705 POINTS
TCL: Running for 1500000 steps
ETITLE: TS BOND ANGLE DIHED IMPRP ELECT VDW BOUNDARY MISC KINETIC TOTAL TEMP POTENTIAL TOTALAVG TEMPAVG PRESSURE GPRESSURE VOLUME PRESSAVG GPRESSAVG
ENERGY: 0 1.6449 9.7017 3.2158 0.0000 -10537.6157 1453.2466 0.0000 0.0000 1706.4661 -7363.3406 295.6560 -9069.8067 -7363.3406 295.6560 73.0543 150.1815 29932.2561 73.0543 150.1815
ENERGY: 300000 2.6136 10.7823 3.6372 0.0000 -10391.7987 1341.6124 0.0000 0.0000 1695.6567 -7337.4966 293.7832 -9033.1533 -7352.9346 292.6718 -716.0928 -692.3080 30030.6690 -326.4139 -264.6235
ENERGY: 600000 1.9274 8.6074 1.7571 0.0000 -10480.6539 1391.8822 0.0000 0.0000 1751.9664 -7324.5135 303.5392 -9076.4799 -7360.6117 295.4765 -417.0271 -388.8058 30262.3757 -290.3871 -232.9602
ENERGY: 900000 2.6465 9.1881 3.1886 0.0000 -10659.5379 1516.6617 0.0000 0.0000 1739.5628 -7388.2901 301.3902 -9127.8530 -7365.2608 296.2839 773.0751 813.3194 29456.4551 -120.2436 -71.0916
ENERGY: 1200000 4.4057 11.1524 2.5056 0.0000 -10371.2293 1382.6876 0.0000 0.0000 1682.5195 -7287.9585 291.5071 -8970.4780 -7348.3629 297.2619 -246.6453 -170.1426 29949.1869 -128.6333 -72.4150
ENERGY: 1500000 3.3997 6.7380 1.3511 0.0000 -10450.9494 1440.5144 0.0000 0.0000 1725.2975 -7273.6487 298.9186 -8998.9462 -7341.5568 297.7091 580.5407 606.1010 29212.5284 -158.0757 -105.1603
TCL: Exiting due to exit command.
