Info: SIMULATION PARAMETERS:
Info: TIMESTEP               2
Info: NUMBER OF STEPS        0
Info: STEPS PER CYCLE        10
Info: PERIODIC CELL BASIS 1  30.2827 0 0
Info: PERIODIC CELL BASIS 2  0 29.5674 0
Info: PERIODIC CELL BASIS 3  0 0 33.32
Info: PERIODIC CELL CENTER   0 0 0
Info: WRAPPING WATERS AROUND PERIODIC BOUNDARIES ON OUTPUT.
Info: WRAPPING ALL CLUSTERS AROUND PERIODIC BOUNDARIES ON OUTPUT.
Info: FIRST LDB TIMESTEP     50
Info: LAST LDB TIMESTEP     -1
Info: HOM BACKGROUND SCALING 1
Info: PME BACKGROUND SCALING 1
Info: MIN ATOMS PER PATCH    40
Info: EMPTY PATCH LOAD       40 ATOMS
Info: VELOCITY FILE          mobley_7977115_equil.vel
Info: CENTER OF MASS MOVING INITIALLY? NO
Info: DIELECTRIC             1
Info: EXCLUDE                SCALED ONE-FOUR
Info: 1-4 ELECTROSTATICS SCALED BY 0.833333
Info: MODIFIED 1-4 VDW PARAMETERS WILL BE USED
Info: DCD FILENAME           mobley_7977115_prod.dcd
Info: DCD FREQUENCY          100000
Info: DCD FIRST STEP         100000
Info: DCD FILE WILL CONTAIN UNIT CELL DATA
Info: XST FILENAME           mobley_7977115_prod.xst
Info: XST FREQUENCY          100000
Info: NO VELOCITY DCD OUTPUT
Info: NO FORCE DCD OUTPUT
Info: OUTPUT FILENAME        mobley_7977115_prod
Info: BINARY OUTPUT FILES WILL BE USED
Info: RESTART FILENAME       mobley_7977115_prod.restart
Info: RESTART FREQUENCY      100000
Info: BINARY RESTART FILES WILL BE USED
Info: CUTOFF                 9
Info: PAIRLIST DISTANCE      11
Info: PAIRLIST SHRINK RATE   0.01
Info: PAIRLIST GROW RATE     0.01
Info: PAIRLIST TRIGGER       0.3
Info: PAIRLISTS PER CYCLE    2
Info: PAIRLISTS ENABLED
Info: MARGIN                 2
Info: HYDROGEN GROUP CUTOFF  2.5
Info: PATCH DIMENSION        15.5
Info: ENERGY OUTPUT STEPS    100000
Info: ENERGY EVALUATION STEPS    100000
Info: OUTPUT ENERGY PRECISION 4
Info: CROSSTERM ENERGY INCLUDED IN DIHEDRAL
Info: TIMING OUTPUT STEPS    1000000
Info: PRESSURE OUTPUT STEPS  100000
Info: ALCHEMICAL FEP ON
Info: FEP CURRENT LAMBDA VALUE     1
Info: FEP COMPARISON LAMBDA VALUE  0.95
Info: FEP INTRA-ALCHEMICAL NON-BONDED INTERACTIONS WILL BE RETAINED
Info: FEP INTRA-ALCHEMICAL BONDED INTERACTIONS WILL BE RETAINED
Info: FEP VDW SHIFTING COEFFICIENT 5
Info: FEP ELEC. ACTIVE FOR ANNIHILATED PARTICLES BETWEEN LAMBDA = 0 AND LAMBDA = 0.5
Info: FEP ELEC. ACTIVE FOR EXNIHILATED PARTICLES BETWEEN LAMBDA = 0.5 AND LAMBDA = 1
Info: FEP VDW ACTIVE FOR ANNIHILATED PARTICLES BETWEEN LAMBDA = 0 AND LAMBDA = 1
Info: FEP VDW ACTIVE FOR EXNIHILATED PARTICLES BETWEEN LAMBDA = 0 AND LAMBDA = 1
Info: FEP BOND ACTIVE FOR ANNIHILATED PARTICLES BETWEEN LAMBDA = 1 AND LAMBDA = 1
Info: FEP BOND ACTIVE FOR EXNIHILATED PARTICLES BETWEEN LAMBDA = 0 AND LAMBDA = 0
Info: LANGEVIN DYNAMICS ACTIVE
Info: LANGEVIN TEMPERATURE   300
Info: LANGEVIN USING BBK INTEGRATOR
Info: LANGEVIN DAMPING COEFFICIENT IS 1 INVERSE PS
Info: LANGEVIN DYNAMICS APPLIED TO HYDROGENS
Info: LANGEVIN PISTON PRESSURE CONTROL ACTIVE
Info:        TARGET PRESSURE IS 1.01325 BAR
Info:     OSCILLATION PERIOD IS 50 FS
Info:             DECAY TIME IS 25 FS
Info:     PISTON TEMPERATURE IS 300 K
Info:       PRESSURE CONTROL IS GROUP-BASED
Info:    INITIAL STRAIN RATE IS 0.000338297 0.000338297 0.000338297
Info:       CELL FLUCTUATION IS ISOTROPIC
Info: PARTICLE MESH EWALD (PME) ACTIVE
Info: PME TOLERANCE               1e-06
Info: PME EWALD COEFFICIENT       0.348832
Info: PME INTERPOLATION ORDER     4
Info: PME GRID DIMENSIONS         32 32 36
Info: PME MAXIMUM GRID SPACING    1
Info: PME CALCULATION WILL BE PERFORMED ON GPU
Info: FULL ELECTROSTATIC EVALUATION FREQUENCY      2
Info: USING VERLET I (r-RESPA) MTS SCHEME.
Info: C1 SPLITTING OF LONG RANGE ELECTROSTATICS
Info: PLACING ATOMS IN PATCHES BY HYDROGEN GROUPS
Info: RIGID BONDS TO HYDROGEN : ALL
Info:         ERROR TOLERANCE : 1e-08
Info:          MAX ITERATIONS : 100
Info: RIGID WATER USING SETTLE ALGORITHM
Info: RANDOM NUMBER SEED     1743934389
Info: USE HYDROGEN BONDS?    NO
Info: Using AMBER format force field!
Info: AMBER PARM FILE        mobley_7977115.prmtop
Info: COORDINATE PDB         mobley_7977115.pdb
Info: Exclusions will be read from PARM file!
Info: SCNB (VDW SCALING)     2
Info: USING ARITHMETIC MEAN TO COMBINE L-J SIGMA PARAMETERS
Info: BINARY COORDINATES     mobley_7977115_equil.coor
Info: SUMMARY OF PARAMETERS:
Info: 7 BONDS
Info: 7 ANGLES
Info:   7 HARMONIC
Info:   0 COSINE-BASED
Info: 9 DIHEDRAL
Info: 0 IMPROPER
Info: 0 CROSSTERM
Info: 0 VDW
Info: 21 VDW_PAIRS
Info: 0 NBTHOLE_PAIRS
Info: To read alchdata from file: mobley_7977115.pdb
Info: To read alchflag data from column: 5
Info: STRUCTURE SUMMARY:
Info: 2910 ATOMS
Info: 2909 BONDS
Info: 37 ANGLES
Info: 60 DIHEDRALS
Info: 0 IMPROPERS
Info: 0 CROSSTERMS
Info: 2994 EXCLUSIONS
Info: 2903 RIGID BONDS
Info: ALCH: 0 ATOMS TO DISAPPEAR IN FINAL STATE
Info: ALCH: 21 ATOMS TO APPEAR IN FINAL STATE
Info: 5827 DEGREES OF FREEDOM
Info: 970 HYDROGEN GROUPS
Info: 4 ATOMS IN LARGEST HYDROGEN GROUP
Info: 970 MIGRATION GROUPS
Info: 4 ATOMS IN LARGEST MIGRATION GROUP
Info: TOTAL MASS = 17451.6 amu
Info: TOTAL CHARGE = 0.000200015 e
Info: MASS DENSITY = 0.971364 g/cm^3
Info: ATOM DENSITY = 0.0975396 atoms/A^3
Info: ADDED 0 IMPLICIT EXCLUSIONS
Info: NONBONDED TABLE R-SQUARED SPACING: 0.0625
Info: NONBONDED TABLE SIZE: 705 POINTS
Info: REMOVING COM VELOCITY -0.0055861 0.0104577 0.0006649
Info: Use 3D box decompostion in PME FFT.
Info: Updated CUDA force table with 4096 elements.
Info: Updated CUDA LJ table with 6 x 6 elements.
Info: Found 24 unique exclusion lists needing 68 bytes
TCL: Running for 1500000 steps
ETITLE: TS BOND ANGLE DIHED IMPRP ELECT VDW BOUNDARY MISC KINETIC TOTAL TEMP POTENTIAL TOTALAVG TEMPAVG PRESSURE GPRESSURE VOLUME PRESSAVG GPRESSAVG
ENERGY: 0 6.2559 8.1028 5.2087 0.0000 -10542.1053 1398.6340 0.0000 0.0000 1722.2618 -7401.6422 297.4709 -9123.9040 -7401.6422 297.4709 -303.6255 -215.8206 29834.0319 -303.6255 -215.8206
ENERGY: 300000 2.4719 11.5673 5.2674 0.0000 -10473.5803 1419.5386 0.0000 0.0000 1780.6609 -7254.0742 307.5577 -9034.7351 -7347.7438 302.5042 215.1303 266.7848 30420.6561 166.1035 215.9860
ENERGY: 600000 2.9508 8.5671 4.8997 0.0000 -10626.8020 1452.9985 0.0000 0.0000 1748.0840 -7409.3020 301.9310 -9157.3860 -7365.1132 301.8646 181.2790 230.8529 29881.6583 252.9527 315.0300
ENERGY: 900000 1.5939 7.3714 3.2425 0.0000 -10647.4773 1489.4143 0.0000 0.0000 1787.8682 -7357.9871 308.8025 -9145.8553 -7372.6340 302.0249 747.9462 740.3907 29658.1816 221.6260 271.2807
ENERGY: 1200000 2.5101 8.5521 2.9522 0.0000 -10527.9654 1401.6606 0.0000 0.0000 1748.2863 -7364.0040 301.9659 -9112.2904 -7375.7394 301.8501 -61.6751 -3.7720 29927.2000 145.6560 197.6314
ENERGY: 1500000 4.8643 8.7144 3.4538 0.0000 -10439.3431 1404.0186 0.0000 0.0000 1744.4547 -7273.8373 301.3041 -9018.2920 -7366.9698 301.3714 137.4256 216.8517 29991.0798 105.8792 156.7802
TCL: Running FEP window   2: Lambda1 0.95   Lambda2 0.8999999999999999 [dLambda -0.050000000000000044]
TCL: Setting parameter firsttimestep to 0
TCL: Setting parameter alchLambda to 0.95
Info: NONBONDED TABLE R-SQUARED SPACING: 0.0625
Info: NONBONDED TABLE SIZE: 705 POINTS
TCL: Setting parameter alchLambda2 to 0.8999999999999999
Info: NONBONDED TABLE R-SQUARED SPACING: 0.0625
Info: NONBONDED TABLE SIZE: 705 POINTS
TCL: Running for 1500000 steps
ETITLE: TS BOND ANGLE DIHED IMPRP ELECT VDW BOUNDARY MISC KINETIC TOTAL TEMP POTENTIAL TOTALAVG TEMPAVG PRESSURE GPRESSURE VOLUME PRESSAVG GPRESSAVG
ENERGY: 0 4.8643 8.7144 3.4538 0.0000 -10438.0621 1403.7995 0.0000 0.0000 1743.5836 -7273.6464 301.1537 -9017.2300 -7273.6464 301.1537 127.3346 204.9702 29991.0798 127.3346 204.9702
ENERGY: 300000 2.6174 7.4484 5.1453 0.0000 -10481.3990 1369.3293 0.0000 0.0000 1777.3118 -7319.5469 306.9792 -9096.8587 -7329.8150 299.0741 -255.4984 -252.5422 29969.1283 86.1530 110.0394
ENERGY: 600000 0.5699 8.4170 4.0436 0.0000 -10572.8638 1441.0997 0.0000 0.0000 1769.7247 -7349.0089 305.6688 -9118.7335 -7331.4999 301.2655 319.5207 364.5008 29620.2801 90.8486 123.5961
ENERGY: 900000 0.5326 7.9413 3.5816 0.0000 -10584.5931 1479.7527 0.0000 0.0000 1745.5051 -7347.2799 301.4855 -9092.7850 -7342.2451 301.1216 477.5300 524.7429 30234.3221 297.4964 345.0165
ENERGY: 1200000 0.6951 7.4315 4.6942 0.0000 -10602.1902 1488.1199 0.0000 0.0000 1742.6685 -7358.5810 300.9956 -9101.2495 -7339.1106 300.9820 496.1265 580.8026 29834.0689 290.5236 346.2645
ENERGY: 1500000 2.9168 10.1590 3.9343 0.0000 -10534.4154 1362.2251 0.0000 0.0000 1761.5172 -7393.6630 304.2512 -9155.1802 -7343.0171 301.2086 -503.6563 -540.4772 29905.3465 192.3368 244.6067
TCL: Running FEP window   3: Lambda1 0.8999999999999999 Lambda2 0.8499999999999999 [dLambda -0.050000000000000044]
TCL: Setting parameter firsttimestep to 0
TCL: Setting parameter alchLambda to 0.8999999999999999
Info: NONBONDED TABLE R-SQUARED SPACING: 0.0625
Info: NONBONDED TABLE SIZE: 705 POINTS
TCL: Setting parameter alchLambda2 to 0.8499999999999999
Info: NONBONDED TABLE R-SQUARED SPACING: 0.0625
Info: NONBONDED TABLE SIZE: 705 POINTS
TCL: Running for 1500000 steps
ETITLE: TS BOND ANGLE DIHED IMPRP ELECT VDW BOUNDARY MISC KINETIC TOTAL TEMP POTENTIAL TOTALAVG TEMPAVG PRESSURE GPRESSURE VOLUME PRESSAVG GPRESSAVG
ENERGY: 0 2.9168 10.1590 3.9343 0.0000 -10532.6589 1362.2415 0.0000 0.0000 1760.6431 -7392.7642 304.1002 -9153.4072 -7392.7642 304.1002 -619.7913 -549.0991 29905.3465 -619.7913 -549.0991
ENERGY: 300000 1.8642 10.5121 3.7015 0.0000 -10621.5778 1436.0013 0.0000 0.0000 1745.7971 -7423.7017 301.5360 -9169.4988 -7390.1470 299.7258 -49.4948 81.4199 29798.1321 -30.5638 50.8945
ENERGY: 600000 0.5639 8.0016 4.0522 0.0000 -10510.1239 1434.9017 0.0000 0.0000 1680.8794 -7381.7250 290.3233 -9062.6045 -7391.6913 297.1845 36.6562 128.2320 30110.1261 -236.7207 -152.4055
ENERGY: 900000 1.3835 10.0008 4.2915 0.0000 -10447.1585 1343.1667 0.0000 0.0000 1757.8994 -7330.4167 303.6263 -9088.3161 -7380.7687 299.8287 -574.0797 -527.1095 30217.2712 -301.7572 -227.5412
ENERGY: 1200000 2.7823 8.0738 4.1310 0.0000 -10616.4969 1428.9640 0.0000 0.0000 1779.2843 -7393.2615 307.3199 -9172.5458 -7378.8796 300.0984 62.0295 51.4319 29700.8000 -290.3371 -224.3165
ENERGY: 1500000 1.6426 13.7980 4.5742 0.0000 -10644.9769 1472.6284 0.0000 0.0000 1722.6946 -7429.6391 297.5457 -9152.3336 -7374.1757 299.8433 599.5707 650.0074 29214.5766 -281.1878 -215.7773
TCL: Running FEP window   4: Lambda1 0.8499999999999999 Lambda2 0.7999999999999998 [dLambda -0.050000000000000044]
TCL: Setting parameter firsttimestep to 0
TCL: Setting parameter alchLambda to 0.8499999999999999
Info: NONBONDED TABLE R-SQUARED SPACING: 0.0625
Info: NONBONDED TABLE SIZE: 705 POINTS
TCL: Setting parameter alchLambda2 to 0.7999999999999998
Info: NONBONDED TABLE R-SQUARED SPACING: 0.0625
Info: NONBONDED TABLE SIZE: 705 POINTS
TCL: Running for 1500000 steps
ETITLE: TS BOND ANGLE DIHED IMPRP ELECT VDW BOUNDARY MISC KINETIC TOTAL TEMP POTENTIAL TOTALAVG TEMPAVG PRESSURE GPRESSURE VOLUME PRESSAVG GPRESSAVG
ENERGY: 0 1.6426 13.7980 4.5742 0.0000 -10643.0936 1471.7766 0.0000 0.0000 1721.8487 -7429.4534 297.3996 -9151.3021 -7429.4534 297.3996 543.0537 631.3952 29214.5766 543.0537 631.3952
ENERGY: 300000 1.4317 8.0202 5.0504 0.0000 -10410.2857 1343.4185 0.0000 0.0000 1824.1421 -7228.2227 315.0678 -9052.3649 -7303.6512 305.9022 -570.6829 -487.0714 30339.0048 -85.2872 -20.6007
ENERGY: 600000 5.9591 11.0495 3.8081 0.0000 -10341.7715 1288.4627 0.0000 0.0000 1719.3924 -7313.0997 296.9753 -9032.4921 -7319.8970 303.4636 -1168.7372 -1167.6128 30537.7053 -311.9677 -250.1219
ENERGY: 900000 3.4773 8.6966 3.5565 0.0000 -10556.8876 1400.2812 0.0000 0.0000 1760.8613 -7380.0146 304.1379 -9140.8760 -7329.5611 303.9289 -309.0396 -221.1810 29762.5445 -248.7829 -183.6212
ENERGY: 1200000 2.3171 10.4391 4.2396 0.0000 -10592.8641 1461.4637 0.0000 0.0000 1741.9300 -7372.4747 300.8680 -9114.4047 -7332.3628 304.1987 469.6690 544.4908 29928.6790 -166.7981 -99.0573
ENERGY: 1500000 6.2028 12.0907 5.5500 0.0000 -10534.5456 1444.9418 0.0000 0.0000 1762.4502 -7303.3100 304.4123 -9065.7603 -7325.5848 303.3399 45.6638 113.3682 30300.3149 -151.5214 -80.5544
TCL: Running FEP window   5: Lambda1 0.7999999999999998 Lambda2 0.7499999999999998 [dLambda -0.050000000000000044]
TCL: Setting parameter firsttimestep to 0
TCL: Setting parameter alchLambda to 0.7999999999999998
Info: NONBONDED TABLE R-SQUARED SPACING: 0.0625
Info: NONBONDED TABLE SIZE: 705 POINTS
TCL: Setting parameter alchLambda2 to 0.7499999999999998
Info: NONBONDED TABLE R-SQUARED SPACING: 0.0625
Info: NONBONDED TABLE SIZE: 705 POINTS
TCL: Running for 1500000 steps
ETITLE: TS BOND ANGLE DIHED IMPRP ELECT VDW BOUNDARY MISC KINETIC TOTAL TEMP POTENTIAL TOTALAVG TEMPAVG PRESSURE GPRESSURE VOLUME PRESSAVG GPRESSAVG
ENERGY: 0 6.2028 12.0907 5.5500 0.0000 -10533.1182 1444.2431 0.0000 0.0000 1761.5524 -7303.4791 304.2572 -9065.0315 -7303.4791 304.2572 10.6657 98.6026 30300.3149 10.6657 98.6026
ENERGY: 300000 1.9197 10.2901 4.0681 0.0000 -10580.1734 1439.9122 0.0000 0.0000 1757.7235 -7366.2598 303.5959 -9123.9832 -7337.8382 302.5710 326.0196 332.5172 29440.0061 236.6297 286.4471
ENERGY: 600000 2.7371 8.2785 4.5679 0.0000 -10441.2924 1362.9046 0.0000 0.0000 1736.4935 -7326.3109 299.9290 -9062.8044 -7336.3062 303.1558 -257.5170 -238.4609 29912.0434 240.9899 278.8068
ENERGY: 900000 1.0163 11.5067 3.1094 0.0000 -10348.6386 1346.3893 0.0000 0.0000 1680.7629 -7305.8540 290.3032 -8986.6169 -7342.9498 301.1784 -371.7207 -311.3151 29999.6188 182.9197 226.3031
ENERGY: 1200000 1.0215 10.7161 6.9882 0.0000 -10488.3447 1387.0689 0.0000 0.0000 1786.7962 -7295.7537 308.6174 -9082.5499 -7339.2539 302.8125 22.4965 150.7617 29811.2916 119.7675 173.6302
ENERGY: 1500000 2.6320 8.1939 5.1746 0.0000 -10563.4307 1442.7316 0.0000 0.0000 1722.8250 -7381.8736 297.5682 -9104.6986 -7352.6285 301.9126 280.0944 365.5852 29859.2970 132.9554 192.2672
TCL: Running FEP window   6: Lambda1 0.7499999999999998 Lambda2 0.6999999999999997 [dLambda -0.050000000000000044]
TCL: Setting parameter firsttimestep to 0
TCL: Setting parameter alchLambda to 0.7499999999999998
Info: NONBONDED TABLE R-SQUARED SPACING: 0.0625
Info: NONBONDED TABLE SIZE: 705 POINTS
TCL: Setting parameter alchLambda2 to 0.6999999999999997
Info: NONBONDED TABLE R-SQUARED SPACING: 0.0625
Info: NONBONDED TABLE SIZE: 705 POINTS
TCL: Running for 1500000 steps
ETITLE: TS BOND ANGLE DIHED IMPRP ELECT VDW BOUNDARY MISC KINETIC TOTAL TEMP POTENTIAL TOTALAVG TEMPAVG PRESSURE GPRESSURE VOLUME PRESSAVG GPRESSAVG
ENERGY: 0 2.6320 8.1939 5.1746 0.0000 -10562.2392 1443.0765 0.0000 0.0000 1721.9474 -7381.2147 297.4166 -9103.1621 -7381.2147 297.4166 274.6471 358.2096 29859.2970 274.6471 358.2096
ENERGY: 300000 2.7456 6.4219 4.7617 0.0000 -10552.2721 1441.8518 0.0000 0.0000 1742.8519 -7353.6392 301.0273 -9096.4911 -7373.2572 297.1953 55.1264 148.9868 30130.9729 94.3691 173.9360
ENERGY: 600000 0.6082 8.4289 4.1211 0.0000 -10412.5002 1363.4644 0.0000 0.0000 1763.3206 -7272.5569 304.5627 -9035.8775 -7365.7036 297.4222 -194.8166 -144.8725 29914.7342 -23.6234 38.5519
ENERGY: 900000 4.5507 8.5330 5.7523 0.0000 -10558.9647 1415.2217 0.0000 0.0000 1730.3404 -7394.5666 298.8663 -9124.9070 -7362.7439 298.2897 -626.8229 -541.1878 30726.7517 -119.8933 -60.6947
ENERGY: 1200000 1.3822 7.1270 3.7126 0.0000 -10614.4593 1417.3641 0.0000 0.0000 1802.9487 -7381.9247 311.4073 -9184.8734 -7365.5503 299.0910 -286.5669 -166.6392 29861.0240 -63.6695 1.6463
ENERGY: 1500000 2.6035 11.8138 3.5886 0.0000 -10456.3604 1419.5589 0.0000 0.0000 1714.5514 -7304.2442 296.1392 -9018.7957 -7359.9690 299.4585 572.9661 633.7087 29335.1666 -42.7003 20.8686
TCL: Running FEP window   7: Lambda1 0.6999999999999997 Lambda2 0.6499999999999997 [dLambda -0.050000000000000044]
TCL: Setting parameter firsttimestep to 0
TCL: Setting parameter alchLambda to 0.6999999999999997
Info: NONBONDED TABLE R-SQUARED SPACING: 0.0625
Info: NONBONDED TABLE SIZE: 705 POINTS
TCL: Setting parameter alchLambda2 to 0.6499999999999997
Info: NONBONDED TABLE R-SQUARED SPACING: 0.0625
Info: NONBONDED TABLE SIZE: 705 POINTS
TCL: Running for 1500000 steps
ETITLE: TS BOND ANGLE DIHED IMPRP ELECT VDW BOUNDARY MISC KINETIC TOTAL TEMP POTENTIAL TOTALAVG TEMPAVG PRESSURE GPRESSURE VOLUME PRESSAVG GPRESSAVG
ENERGY: 0 2.6035 11.8138 3.5886 0.0000 -10454.9654 1419.4380 0.0000 0.0000 1713.6530 -7303.8685 295.9840 -9017.5216 -7303.8685 295.9840 546.4808 626.0711 29335.1666 546.4808 626.0711
ENERGY: 300000 0.2741 10.1340 3.2942 0.0000 -10481.6530 1396.5506 0.0000 0.0000 1743.4415 -7327.9586 301.1291 -9071.4001 -7340.3987 299.1011 168.9192 285.4143 29401.0875 -175.8452 -117.4827
ENERGY: 600000 2.1218 10.9092 4.4392 0.0000 -10539.6408 1420.6821 0.0000 0.0000 1693.5393 -7407.9492 292.5099 -9101.4884 -7368.8496 297.5206 -268.2729 -213.4818 30100.6332 -283.8883 -222.7912
ENERGY: 900000 3.0841 11.6842 4.6220 0.0000 -10540.8003 1444.3039 0.0000 0.0000 1697.6817 -7379.4243 293.2254 -9077.1060 -7367.9390 297.4504 -47.9599 49.7064 30221.1461 -131.7780 -67.5430
ENERGY: 1200000 1.2146 7.1293 4.4009 0.0000 -10584.2939 1448.2956 0.0000 0.0000 1761.8924 -7361.3612 304.3160 -9123.2535 -7364.6059 298.8136 416.7633 453.3745 29530.4131 -152.7118 -98.0820
ENERGY: 1500000 0.4021 11.6598 5.1820 0.0000 -10635.1113 1463.3127 0.0000 0.0000 1749.3659 -7405.1888 302.1524 -9154.5547 -7363.6463 298.8511 343.2424 491.6540 29488.6327 -101.9023 -37.1346
TCL: Running FEP window   8: Lambda1 0.6499999999999997 Lambda2 0.5999999999999996 [dLambda -0.050000000000000044]
TCL: Setting parameter firsttimestep to 0
TCL: Setting parameter alchLambda to 0.6499999999999997
Info: NONBONDED TABLE R-SQUARED SPACING: 0.0625
Info: NONBONDED TABLE SIZE: 705 POINTS
TCL: Setting parameter alchLambda2 to 0.5999999999999996
Info: NONBONDED TABLE R-SQUARED SPACING: 0.0625
Info: NONBONDED TABLE SIZE: 705 POINTS
TCL: Running for 1500000 steps
ETITLE: TS BOND ANGLE DIHED IMPRP ELECT VDW BOUNDARY MISC KINETIC TOTAL TEMP POTENTIAL TOTALAVG TEMPAVG PRESSURE GPRESSURE VOLUME PRESSAVG GPRESSAVG
ENERGY: 0 0.4021 11.6598 5.1820 0.0000 -10634.2820 1462.7984 0.0000 0.0000 1748.4733 -7405.7664 301.9982 -9154.2397 -7405.7664 301.9982 399.8724 475.5263 29488.6327 399.8724 475.5263
ENERGY: 300000 1.6690 7.4804 4.1758 0.0000 -10531.6636 1399.4958 0.0000 0.0000 1707.7721 -7411.0705 294.9683 -9118.8426 -7386.8137 301.4037 -118.3516 -91.7436 29907.4768 236.2876 296.0817
ENERGY: 600000 0.7374 12.5164 4.3938 0.0000 -10624.8465 1513.9364 0.0000 0.0000 1740.1582 -7353.1043 300.5620 -9093.2625 -7359.9842 300.7322 1055.3706 1118.1918 29584.3175 239.4851 306.3755
ENERGY: 900000 0.6306 6.5374 3.8392 0.0000 -10554.6263 1458.6969 0.0000 0.0000 1735.1745 -7349.7478 299.7012 -9084.9222 -7346.6579 300.5074 551.2882 670.3833 29396.0074 275.7571 350.8406
ENERGY: 1200000 1.4587 7.5026 4.5482 0.0000 -10515.1975 1410.5533 0.0000 0.0000 1763.0686 -7328.0662 304.5191 -9091.1347 -7340.1259 301.5274 -48.9231 42.3905 30150.9387 169.8669 243.6985
ENERGY: 1500000 1.2280 13.6858 3.9191 0.0000 -10471.6862 1379.0098 0.0000 0.0000 1730.2710 -7343.5725 298.8543 -9073.8435 -7339.6815 301.6229 -400.1143 -414.3976 30443.6219 124.1282 190.2337
TCL: Running FEP window   9: Lambda1 0.5999999999999996 Lambda2 0.5499999999999996 [dLambda -0.050000000000000044]
TCL: Setting parameter firsttimestep to 0
TCL: Setting parameter alchLambda to 0.5999999999999996
Info: NONBONDED TABLE R-SQUARED SPACING: 0.0625
Info: NONBONDED TABLE SIZE: 705 POINTS
TCL: Setting parameter alchLambda2 to 0.5499999999999996
Info: NONBONDED TABLE R-SQUARED SPACING: 0.0625
Info: NONBONDED TABLE SIZE: 705 POINTS
TCL: Running for 1500000 steps
ETITLE: TS BOND ANGLE DIHED IMPRP ELECT VDW BOUNDARY MISC KINETIC TOTAL TEMP POTENTIAL TOTALAVG TEMPAVG PRESSURE GPRESSURE VOLUME PRESSAVG GPRESSAVG
ENERGY: 0 1.2280 13.6858 3.9191 0.0000 -10471.3289 1378.9141 0.0000 0.0000 1729.4091 -7344.1728 298.7054 -9073.5820 -7344.1728 298.7054 -515.9490 -424.6291 30443.6219 -515.9490 -424.6291
ENERGY: 300000 0.4550 7.3147 3.9172 0.0000 -10442.0346 1400.1781 0.0000 0.0000 1773.1637 -7257.0061 306.2628 -9030.1697 -7320.2657 300.4449 26.8013 93.3366 29852.5061 92.3226 152.5547
ENERGY: 600000 2.2371 7.3809 3.1816 0.0000 -10533.3085 1434.5440 0.0000 0.0000 1713.5695 -7372.3955 295.9696 -9085.9649 -7337.4907 299.1800 -154.4056 -81.3705 30314.7360 111.0257 172.3760
ENERGY: 900000 6.3635 10.3705 4.7592 0.0000 -10690.3989 1532.0753 0.0000 0.0000 1711.0900 -7425.7404 295.5413 -9136.8304 -7352.1681 298.8177 827.6013 862.0019 29383.6029 40.9332 95.6505
ENERGY: 1200000 1.3667 9.4602 5.4599 0.0000 -10642.1617 1516.6986 0.0000 0.0000 1748.2133 -7360.9629 301.9533 -9109.1763 -7352.7451 299.9118 835.3529 927.0001 29670.3704 56.7439 112.5436
ENERGY: 1500000 0.7554 9.2516 5.8592 0.0000 -10511.1181 1450.5217 0.0000 0.0000 1774.1964 -7270.5339 306.4411 -9044.7302 -7351.2749 300.3458 675.1634 686.9780 29525.5402 52.1275 105.2206
TCL: Running FEP window  10: Lambda1 0.5499999999999996 Lambda2 0.4999999999999996 [dLambda -0.04999999999999999]
TCL: Setting parameter firsttimestep to 0
TCL: Setting parameter alchLambda to 0.5499999999999996
Info: NONBONDED TABLE R-SQUARED SPACING: 0.0625
Info: NONBONDED TABLE SIZE: 705 POINTS
TCL: Setting parameter alchLambda2 to 0.4999999999999996
Info: NONBONDED TABLE R-SQUARED SPACING: 0.0625
Info: NONBONDED TABLE SIZE: 705 POINTS
TCL: Running for 1500000 steps
ETITLE: TS BOND ANGLE DIHED IMPRP ELECT VDW BOUNDARY MISC KINETIC TOTAL TEMP POTENTIAL TOTALAVG TEMPAVG PRESSURE GPRESSURE VOLUME PRESSAVG GPRESSAVG
ENERGY: 0 0.7554 9.2516 5.8592 0.0000 -10509.4654 1449.1659 0.0000 0.0000 1773.3429 -7271.0905 306.2937 -9044.4334 -7271.0905 306.2937 596.1532 670.3161 29525.5402 596.1532 670.3161
ENERGY: 300000 1.0935 8.1915 6.0622 0.0000 -10362.4387 1311.6533 0.0000 0.0000 1758.0959 -7277.3422 303.6602 -9035.4381 -7343.8280 301.0226 -804.4561 -796.1791 30450.7923 -122.5324 -83.4077
ENERGY: 600000 0.4999 8.9534 5.7326 0.0000 -10521.6805 1389.3426 0.0000 0.0000 1713.6318 -7403.5203 295.9803 -9117.1520 -7365.4912 298.4253 -48.8238 6.2634 29472.0740 -171.3235 -118.6870
ENERGY: 900000 3.0244 7.7643 3.9325 0.0000 -10482.5212 1394.5515 0.0000 0.0000 1750.1542 -7323.0943 302.2885 -9073.2485 -7348.3310 297.8322 -55.2139 39.4991 30059.3035 -210.7727 -151.9160
ENERGY: 1200000 1.1128 7.4593 3.5497 0.0000 -10532.2206 1399.1133 0.0000 0.0000 1768.7122 -7352.2734 305.4939 -9120.9856 -7349.0979 298.3733 -239.1123 -70.9352 29850.0162 -146.1628 -79.7193
ENERGY: 1500000 2.2858 9.8162 4.9375 0.0000 -10583.8399 1527.6791 0.0000 0.0000 1725.0155 -7314.1059 297.9466 -9039.1214 -7344.9545 298.4745 1034.1323 1049.0117 29752.1191 -92.2461 -32.4338
TCL: Running FEP window  11: Lambda1 0.4999999999999996 Lambda2 0.4499999999999996 [dLambda -0.04999999999999999]
TCL: Setting parameter firsttimestep to 0
TCL: Setting parameter alchLambda to 0.4999999999999996
Info: NONBONDED TABLE R-SQUARED SPACING: 0.0625
Info: NONBONDED TABLE SIZE: 705 POINTS
TCL: Setting parameter alchLambda2 to 0.4499999999999996
Info: NONBONDED TABLE R-SQUARED SPACING: 0.0625
Info: NONBONDED TABLE SIZE: 705 POINTS
TCL: Running for 1500000 steps
ETITLE: TS BOND ANGLE DIHED IMPRP ELECT VDW BOUNDARY MISC KINETIC TOTAL TEMP POTENTIAL TOTALAVG TEMPAVG PRESSURE GPRESSURE VOLUME PRESSAVG GPRESSAVG
ENERGY: 0 2.2858 9.8162 4.9375 0.0000 -10583.3437 1527.3521 0.0000 0.0000 1724.1262 -7314.8260 297.7929 -9038.9521 -7314.8260 297.7929 974.2345 1036.9944 29752.1191 974.2345 1036.9944
ENERGY: 300000 0.9032 8.6208 4.0451 0.0000 -10675.7252 1495.4991 0.0000 0.0000 1822.4678 -7344.1891 314.7786 -9166.6569 -7324.9501 304.0356 646.9974 636.4025 29747.9183 491.1296 541.0262
ENERGY: 600000 1.6689 7.3596 3.8041 0.0000 -10598.9194 1478.0626 0.0000 0.0000 1753.6323 -7354.3917 302.8893 -9108.0241 -7334.3448 302.2650 682.8301 800.4955 29791.3130 401.2198 458.3611
ENERGY: 900000 1.4636 8.5112 4.0543 0.0000 -10431.5836 1315.4026 0.0000 0.0000 1708.1518 -7394.0001 295.0338 -9102.1519 -7349.0080 301.5729 -818.7328 -702.0759 30039.4738 199.2669 259.5622
ENERGY: 1200000 1.5957 12.6172 6.6876 0.0000 -10465.7995 1452.9140 0.0000 0.0000 1705.1116 -7286.8734 294.5087 -8991.9850 -7342.6017 300.8262 478.9331 617.0809 30100.7616 80.6271 147.1456
ENERGY: 1500000 2.3626 5.7789 3.2020 0.0000 -10576.9086 1487.7794 0.0000 0.0000 1739.3937 -7338.3919 300.4300 -9077.7857 -7343.6995 301.4402 805.0652 888.3072 29722.1746 123.9077 190.1227
TCL: Running FEP window  12: Lambda1 0.4499999999999996 Lambda2 0.39999999999999963 [dLambda -0.04999999999999999]
TCL: Setting parameter firsttimestep to 0
TCL: Setting parameter alchLambda to 0.4499999999999996
Info: NONBONDED TABLE R-SQUARED SPACING: 0.0625
Info: NONBONDED TABLE SIZE: 705 POINTS
TCL: Setting parameter alchLambda2 to 0.39999999999999963
Info: NONBONDED TABLE R-SQUARED SPACING: 0.0625
Info: NONBONDED TABLE SIZE: 705 POINTS
TCL: Running for 1500000 steps
ETITLE: TS BOND ANGLE DIHED IMPRP ELECT VDW BOUNDARY MISC KINETIC TOTAL TEMP POTENTIAL TOTALAVG TEMPAVG PRESSURE GPRESSURE VOLUME PRESSAVG GPRESSAVG
ENERGY: 0 2.3626 5.7789 3.2020 0.0000 -10576.9079 1488.1002 0.0000 0.0000 1738.5352 -7338.9291 300.2817 -9077.4642 -7338.9291 300.2817 793.6949 887.5241 29722.1746 793.6949 887.5241
ENERGY: 300000 1.2955 9.6545 3.4624 0.0000 -10439.0105 1308.8429 0.0000 0.0000 1720.8722 -7394.8830 297.2309 -9115.7552 -7378.9514 298.4411 -1070.5592 -988.0760 29989.6820 -223.1681 -160.9068
ENERGY: 600000 1.3082 8.6471 3.8048 0.0000 -10459.8776 1364.4082 0.0000 0.0000 1784.3258 -7297.3835 308.1907 -9081.7093 -7369.2395 299.4686 -292.5562 -180.8021 30074.8482 -259.6288 -178.5808
ENERGY: 900000 4.2099 9.5938 4.8912 0.0000 -10405.9030 1405.6154 0.0000 0.0000 1701.0332 -7280.5595 293.8043 -8981.5927 -7361.0517 298.5432 104.9293 130.7116 30421.2402 -193.6899 -115.7927
ENERGY: 1200000 3.1049 10.0546 4.1831 0.0000 -10535.1074 1446.7434 0.0000 0.0000 1692.2372 -7378.7844 292.2850 -9071.0215 -7363.1953 298.8588 269.5364 314.8214 29663.7724 -68.1254 0.0057
ENERGY: 1500000 1.8128 12.7868 4.8099 0.0000 -10488.4985 1402.3540 0.0000 0.0000 1740.5702 -7326.1647 300.6332 -9066.7349 -7364.7200 298.8450 -182.2702 -169.4818 30057.0047 -14.1609 50.9305
TCL: Running FEP window  13: Lambda1 0.39999999999999963 Lambda2 0.34999999999999964 [dLambda -0.04999999999999999]
TCL: Setting parameter firsttimestep to 0
TCL: Setting parameter alchLambda to 0.39999999999999963
Info: NONBONDED TABLE R-SQUARED SPACING: 0.0625
Info: NONBONDED TABLE SIZE: 705 POINTS
TCL: Setting parameter alchLambda2 to 0.34999999999999964
Info: NONBONDED TABLE R-SQUARED SPACING: 0.0625
Info: NONBONDED TABLE SIZE: 705 POINTS
TCL: Running for 1500000 steps
ETITLE: TS BOND ANGLE DIHED IMPRP ELECT VDW BOUNDARY MISC KINETIC TOTAL TEMP POTENTIAL TOTALAVG TEMPAVG PRESSURE GPRESSURE VOLUME PRESSAVG GPRESSAVG
ENERGY: 0 1.8128 12.7868 4.8099 0.0000 -10488.4978 1402.7243 0.0000 0.0000 1739.7076 -7326.6564 300.4842 -9066.3639 -7326.6564 300.4842 -248.9898 -173.1876 30057.0047 -248.9898 -173.1876
ENERGY: 300000 1.7823 7.4558 4.0852 0.0000 -10531.2751 1438.2347 0.0000 0.0000 1743.2206 -7336.4965 301.0910 -9079.7171 -7373.4344 299.0918 386.3427 478.5741 29564.0165 22.8668 91.9245
ENERGY: 600000 2.3051 13.5474 3.2810 0.0000 -10439.0662 1317.1468 0.0000 0.0000 1712.2729 -7390.5131 295.7456 -9102.7860 -7370.4532 298.4995 -656.9278 -619.2495 29591.5670 -119.2758 -49.7086
ENERGY: 900000 0.5409 6.8460 4.2369 0.0000 -10439.9544 1422.1345 0.0000 0.0000 1755.8165 -7250.3797 303.2665 -9006.1962 -7359.9695 299.2719 237.0787 336.1136 30098.9969 -62.6808 10.9551
ENERGY: 1200000 2.8631 14.6065 6.2612 0.0000 -10312.5526 1252.6465 0.0000 0.0000 1720.8536 -7315.3218 297.2277 -9036.1753 -7354.4263 299.3242 -1251.7718 -1220.3895 29999.0025 -126.8311 -60.8134
ENERGY: 1500000 0.9727 9.0607 4.7700 0.0000 -10477.7257 1381.6522 0.0000 0.0000 1730.6037 -7350.6664 298.9118 -9081.2701 -7366.9607 298.5525 -211.4095 -129.3971 29777.7882 -202.8748 -139.1085
TCL: Running FEP window  14: Lambda1 0.34999999999999964 Lambda2 0.29999999999999966 [dLambda -0.04999999999999999]
TCL: Setting parameter firsttimestep to 0
TCL: Setting parameter alchLambda to 0.34999999999999964
Info: NONBONDED TABLE R-SQUARED SPACING: 0.0625
Info: NONBONDED TABLE SIZE: 705 POINTS
TCL: Setting parameter alchLambda2 to 0.29999999999999966
Info: NONBONDED TABLE R-SQUARED SPACING: 0.0625
Info: NONBONDED TABLE SIZE: 705 POINTS
TCL: Running for 1500000 steps
ETITLE: TS BOND ANGLE DIHED IMPRP ELECT VDW BOUNDARY MISC KINETIC TOTAL TEMP POTENTIAL TOTALAVG TEMPAVG PRESSURE GPRESSURE VOLUME PRESSAVG GPRESSAVG
ENERGY: 0 0.9727 9.0607 4.7700 0.0000 -10477.7257 1381.3354 0.0000 0.0000 1729.7458 -7351.8411 298.7636 -9081.5869 -7351.8411 298.7636 -222.7507 -138.8902 29777.7882 -222.7507 -138.8902
ENERGY: 300000 2.5928 6.7425 4.2737 0.0000 -10455.6012 1368.2300 0.0000 0.0000 1696.5859 -7377.1763 293.0362 -9073.7622 -7366.4801 302.6666 -630.4115 -585.2242 30241.7619 -152.6851 -121.6229
ENERGY: 600000 1.6426 6.1358 3.8936 0.0000 -10372.9562 1361.0525 0.0000 0.0000 1727.0473 -7273.1844 298.2975 -9000.2317 -7350.0729 298.6854 -200.9860 -129.6230 29869.6463 -117.5732 -59.0498
ENERGY: 900000 1.3284 10.7170 4.1261 0.0000 -10506.1772 1457.0218 0.0000 0.0000 1774.5957 -7258.3881 306.5101 -9032.9838 -7340.7810 300.5320 559.1970 622.2439 29870.7874 -194.9818 -121.7363
ENERGY: 1200000 1.8174 9.3952 3.8098 0.0000 -10443.6663 1418.4862 0.0000 0.0000 1676.3932 -7333.7646 289.5485 -9010.1578 -7346.9635 299.9180 182.2119 268.3617 29984.8515 -126.8245 -55.5936
ENERGY: 1500000 0.8559 9.6317 7.5181 0.0000 -10579.0253 1488.6509 0.0000 0.0000 1715.5975 -7356.7711 296.3199 -9072.3686 -7344.3629 299.6020 642.0375 712.9852 29634.7277 -72.6132 0.0411
TCL: Running FEP window  15: Lambda1 0.29999999999999966 Lambda2 0.24999999999999967 [dLambda -0.04999999999999999]
TCL: Setting parameter firsttimestep to 0
TCL: Setting parameter alchLambda to 0.29999999999999966
Info: NONBONDED TABLE R-SQUARED SPACING: 0.0625
Info: NONBONDED TABLE SIZE: 705 POINTS
TCL: Setting parameter alchLambda2 to 0.24999999999999967
Info: NONBONDED TABLE R-SQUARED SPACING: 0.0625
Info: NONBONDED TABLE SIZE: 705 POINTS
TCL: Running for 1500000 steps
ETITLE: TS BOND ANGLE DIHED IMPRP ELECT VDW BOUNDARY MISC KINETIC TOTAL TEMP POTENTIAL TOTALAVG TEMPAVG PRESSURE GPRESSURE VOLUME PRESSAVG GPRESSAVG
ENERGY: 0 0.8559 9.6317 7.5181 0.0000 -10579.0257 1488.8620 0.0000 0.0000 1714.6869 -7357.4710 296.1626 -9072.1579 -7357.4710 296.1626 622.1087 707.1596 29634.7277 622.1087 707.1596
ENERGY: 300000 2.4811 9.9676 5.2902 0.0000 -10468.8267 1402.2278 0.0000 0.0000 1751.9769 -7296.8831 302.6034 -9048.8599 -7369.6257 298.4950 -153.1896 -94.1966 29950.7835 151.0009 215.2919
ENERGY: 600000 0.8701 10.7755 5.4744 0.0000 -10523.4954 1400.9365 0.0000 0.0000 1722.0988 -7383.3401 297.4428 -9105.4389 -7374.1158 297.0668 -460.1028 -356.7205 30315.3151 13.6746 86.4356
ENERGY: 900000 1.2286 11.1396 3.8630 0.0000 -10594.7489 1421.4104 0.0000 0.0000 1710.8374 -7446.2700 295.4977 -9157.1073 -7376.1244 297.1586 -21.2353 -22.7491 29879.6554 -45.8135 9.0515
ENERGY: 1200000 1.3405 7.8327 6.5368 0.0000 -10497.9684 1361.5449 0.0000 0.0000 1766.5716 -7354.1419 305.1242 -9120.7135 -7359.9488 297.5792 -596.8746 -505.4325 29845.6896 -24.6087 25.0878
ENERGY: 1500000 1.4891 8.3747 4.4355 0.0000 -10721.1473 1537.9630 0.0000 0.0000 1765.2406 -7403.6443 304.8943 -9168.8849 -7364.1592 298.2592 532.6731 572.1660 30032.9163 30.7402 84.8800
TCL: Running FEP window  16: Lambda1 0.24999999999999967 Lambda2 0.19999999999999968 [dLambda -0.04999999999999999]
TCL: Setting parameter firsttimestep to 0
TCL: Setting parameter alchLambda to 0.24999999999999967
Info: NONBONDED TABLE R-SQUARED SPACING: 0.0625
Info: NONBONDED TABLE SIZE: 705 POINTS
TCL: Setting parameter alchLambda2 to 0.19999999999999968
Info: NONBONDED TABLE R-SQUARED SPACING: 0.0625
Info: NONBONDED TABLE SIZE: 705 POINTS
TCL: Running for 1500000 steps
ETITLE: TS BOND ANGLE DIHED IMPRP ELECT VDW BOUNDARY MISC KINETIC TOTAL TEMP POTENTIAL TOTALAVG TEMPAVG PRESSURE GPRESSURE VOLUME PRESSAVG GPRESSAVG
ENERGY: 0 1.4891 8.3747 4.4355 0.0000 -10721.1481 1538.2083 0.0000 0.0000 1764.3717 -7404.2688 304.7442 -9168.6405 -7404.2688 304.7442 479.1050 570.4637 30032.9163 479.1050 570.4637
ENERGY: 300000 2.9961 7.1923 5.5999 0.0000 -10456.1068 1370.2334 0.0000 0.0000 1689.1541 -7380.9310 291.7525 -9070.0851 -7369.3584 297.3023 -460.5634 -393.1297 29948.9032 252.6584 347.0159
ENERGY: 600000 1.3374 9.7832 6.4382 0.0000 -10469.9035 1385.8277 0.0000 0.0000 1751.7954 -7314.7216 302.5720 -9066.5169 -7351.0219 299.4669 -238.2687 -105.2582 29975.9593 162.2733 242.5072
ENERGY: 900000 0.4466 11.1845 3.7466 0.0000 -10519.8072 1441.1321 0.0000 0.0000 1817.6942 -7245.6034 313.9541 -9063.2976 -7330.0001 302.0973 301.2517 420.8829 29754.1708 85.1248 173.9640
ENERGY: 1200000 3.2092 11.5229 5.6159 0.0000 -10506.2396 1430.8131 0.0000 0.0000 1717.2871 -7337.7915 296.6117 -9055.0785 -7326.4780 301.8175 -174.8909 -75.3362 30027.8632 50.5790 134.8834
ENERGY: 1500000 1.1822 10.0399 3.9618 0.0000 -10531.1846 1403.7143 0.0000 0.0000 1775.0553 -7337.2311 306.5895 -9112.2864 -7332.5724 300.9423 -199.3208 -163.8249 30005.5821 -55.5686 30.4035
TCL: Running FEP window  17: Lambda1 0.19999999999999968 Lambda2 0.1499999999999997 [dLambda -0.04999999999999999]
TCL: Setting parameter firsttimestep to 0
TCL: Setting parameter alchLambda to 0.19999999999999968
Info: NONBONDED TABLE R-SQUARED SPACING: 0.0625
Info: NONBONDED TABLE SIZE: 705 POINTS
TCL: Setting parameter alchLambda2 to 0.1499999999999997
Info: NONBONDED TABLE R-SQUARED SPACING: 0.0625
Info: NONBONDED TABLE SIZE: 705 POINTS
TCL: Running for 1500000 steps
ETITLE: TS BOND ANGLE DIHED IMPRP ELECT VDW BOUNDARY MISC KINETIC TOTAL TEMP POTENTIAL TOTALAVG TEMPAVG PRESSURE GPRESSURE VOLUME PRESSAVG GPRESSAVG
ENERGY: 0 1.1822 10.0399 3.9618 0.0000 -10531.1834 1403.9261 0.0000 0.0000 1774.2299 -7337.8434 306.4469 -9112.0734 -7337.8434 306.4469 -256.6039 -167.8615 30005.5821 -256.6039 -167.8615
ENERGY: 300000 2.4386 8.5699 5.4140 0.0000 -10506.1503 1396.3095 0.0000 0.0000 1756.2991 -7337.1193 303.3499 -9093.4184 -7330.5282 304.9882 -663.6461 -566.0614 30658.4599 -41.8786 42.9477
ENERGY: 600000 2.0029 14.0038 6.3596 0.0000 -10509.0149 1374.6446 0.0000 0.0000 1746.4709 -7365.5331 301.6524 -9112.0040 -7332.3668 304.3159 -387.5098 -319.1341 29882.3698 116.4477 191.1504
ENERGY: 900000 0.4017 6.4191 7.4853 0.0000 -10495.4625 1358.6538 0.0000 0.0000 1740.1071 -7382.3955 300.5532 -9122.5026 -7345.5885 302.6428 -342.8938 -308.6549 29556.6421 46.0677 110.7488
ENERGY: 1200000 1.1034 8.0847 6.1875 0.0000 -10645.0955 1477.2648 0.0000 0.0000 1763.2607 -7389.1944 304.5523 -9152.4552 -7343.5679 303.1377 231.8628 237.1623 29916.8513 29.2929 88.9056
ENERGY: 1500000 0.8300 7.2396 6.0468 0.0000 -10527.5200 1481.5490 0.0000 0.0000 1770.4149 -7261.4396 305.7880 -9031.8545 -7336.3618 302.3370 469.5034 482.8612 30194.8456 46.2628 107.5316
TCL: Running FEP window  18: Lambda1 0.1499999999999997 Lambda2 0.09999999999999969 [dLambda -0.05 ]
TCL: Setting parameter firsttimestep to 0
TCL: Setting parameter alchLambda to 0.1499999999999997
Info: NONBONDED TABLE R-SQUARED SPACING: 0.0625
Info: NONBONDED TABLE SIZE: 705 POINTS
TCL: Setting parameter alchLambda2 to 0.09999999999999969
Info: NONBONDED TABLE R-SQUARED SPACING: 0.0625
Info: NONBONDED TABLE SIZE: 705 POINTS
TCL: Running for 1500000 steps
ETITLE: TS BOND ANGLE DIHED IMPRP ELECT VDW BOUNDARY MISC KINETIC TOTAL TEMP POTENTIAL TOTALAVG TEMPAVG PRESSURE GPRESSURE VOLUME PRESSAVG GPRESSAVG
ENERGY: 0 0.8300 7.2396 6.0468 0.0000 -10527.5209 1481.8996 0.0000 0.0000 1769.5359 -7261.9690 305.6362 -9031.5048 -7261.9690 305.6362 415.6343 480.4081 30194.8456 415.6343 480.4081
ENERGY: 300000 1.3208 9.7912 3.5315 0.0000 -10513.6235 1369.6732 0.0000 0.0000 1702.8968 -7426.4100 294.1262 -9129.3069 -7347.5861 301.2540 -489.5132 -474.4932 29878.3152 42.8100 91.1352
ENERGY: 600000 1.3083 8.2709 3.8922 0.0000 -10634.7962 1522.1692 0.0000 0.0000 1737.3465 -7361.8091 300.0764 -9099.1556 -7346.8899 299.2685 887.5564 1020.2856 29445.7037 222.6910 303.8584
ENERGY: 900000 2.1439 6.0216 3.5045 0.0000 -10578.6444 1447.1855 0.0000 0.0000 1768.4058 -7351.3831 305.4410 -9119.7889 -7352.3604 300.3181 242.6703 247.8379 29483.0363 166.3922 247.3151
ENERGY: 1200000 2.9736 10.9197 3.6952 0.0000 -10471.0771 1365.3499 0.0000 0.0000 1762.7844 -7325.3544 304.4700 -9088.1387 -7357.1201 299.8126 -577.9715 -474.8809 30118.0624 62.5613 141.0712
ENERGY: 1500000 3.0685 8.6377 6.6459 0.0000 -10316.7421 1272.4378 0.0000 0.0000 1754.4996 -7271.4526 303.0391 -9025.9522 -7345.1557 300.8133 -1102.9656 -1083.5415 30047.3959 4.4759 73.5102
TCL: Running FEP window  19: Lambda1 0.09999999999999969 Lambda2 0.049999999999999684 [dLambda -0.05 ]
TCL: Setting parameter firsttimestep to 0
TCL: Setting parameter alchLambda to 0.09999999999999969
Info: NONBONDED TABLE R-SQUARED SPACING: 0.0625
Info: NONBONDED TABLE SIZE: 705 POINTS
TCL: Setting parameter alchLambda2 to 0.049999999999999684
Info: NONBONDED TABLE R-SQUARED SPACING: 0.0625
Info: NONBONDED TABLE SIZE: 705 POINTS
TCL: Running for 1500000 steps
ETITLE: TS BOND ANGLE DIHED IMPRP ELECT VDW BOUNDARY MISC KINETIC TOTAL TEMP POTENTIAL TOTALAVG TEMPAVG PRESSURE GPRESSURE VOLUME PRESSAVG GPRESSAVG
ENERGY: 0 3.0685 8.6377 6.6459 0.0000 -10316.7417 1272.5725 0.0000 0.0000 1753.6150 -7272.2022 302.8863 -9025.8172 -7272.2022 302.8863 -1163.6765 -1083.7563 30047.3959 -1163.6765 -1083.7563
ENERGY: 300000 3.0135 10.5859 4.3807 0.0000 -10634.7927 1472.5408 0.0000 0.0000 1724.6428 -7419.6290 297.8822 -9144.2717 -7331.0239 301.1107 6.8465 30.5721 29993.9183 -772.1310 -725.9681
ENERGY: 600000 2.6240 6.9429 3.6016 0.0000 -10558.2913 1422.8935 0.0000 0.0000 1709.3732 -7412.8562 295.2448 -9122.2294 -7338.9026 299.0346 62.7427 154.4568 29556.0640 -619.8388 -560.7180
ENERGY: 900000 3.0656 9.4998 4.1459 0.0000 -10592.1492 1517.3031 0.0000 0.0000 1749.3800 -7308.7548 302.1548 -9058.1349 -7346.9012 300.6288 954.3467 1028.0407 29846.4271 -232.9045 -167.4959
ENERGY: 1200000 2.0378 6.9192 4.0687 0.0000 -10433.1398 1353.6784 0.0000 0.0000 1726.9745 -7339.4613 298.2849 -9066.4358 -7352.1757 300.0029 -382.6763 -296.2965 29864.1690 -190.4275 -123.7343
ENERGY: 1500000 3.6050 5.3834 3.4208 0.0000 -10640.1721 1497.6705 0.0000 0.0000 1742.8189 -7387.2734 301.0216 -9130.0923 -7352.4467 300.1329 424.0071 526.1896 29819.2690 -24.6654 43.4487
TCL: Running FEP window  20: Lambda1 0.049999999999999684 Lambda2 0.0    [dLambda -0.049999999999999684]
TCL: Setting parameter firsttimestep to 0
TCL: Setting parameter alchLambda to 0.049999999999999684
Info: NONBONDED TABLE R-SQUARED SPACING: 0.0625
Info: NONBONDED TABLE SIZE: 705 POINTS
TCL: Setting parameter alchLambda2 to 0.0
Info: NONBONDED TABLE R-SQUARED SPACING: 0.0625
Info: NONBONDED TABLE SIZE: 705 POINTS
TCL: Running for 1500000 steps
ETITLE: TS BOND ANGLE DIHED IMPRP ELECT VDW BOUNDARY MISC KINETIC TOTAL TEMP POTENTIAL TOTALAVG TEMPAVG PRESSURE GPRESSURE VOLUME PRESSAVG GPRESSAVG
ENERGY: 0 3.6050 5.3834 3.4208 0.0000 -10640.1729 1497.8710 0.0000 0.0000 1741.9078 -7387.9848 300.8642 -9129.8926 -7387.9848 300.8642 438.8505 526.6842 29819.2690 438.8505 526.6842
ENERGY: 300000 1.9945 8.0735 5.3564 0.0000 -10458.6125 1385.7205 0.0000 0.0000 1747.4278 -7310.0399 301.8176 -9057.4678 -7350.3835 299.4979 -279.4588 -180.5242 30071.8540 -179.1625 -102.4101
ENERGY: 600000 2.8521 8.7692 4.9924 0.0000 -10518.2870 1386.6975 0.0000 0.0000 1741.6499 -7373.3258 300.8197 -9114.9757 -7352.7588 299.1609 -349.1839 -326.7491 29802.4462 -198.0868 -135.2911
ENERGY: 900000 1.9774 4.8838 5.5306 0.0000 -10714.5520 1521.2802 0.0000 0.0000 1722.1248 -7458.7552 297.4473 -9180.8800 -7365.2138 299.6280 588.0661 605.3298 29787.3233 -135.8371 -74.4457
ENERGY: 1200000 0.9332 10.9580 3.8079 0.0000 -10593.3475 1448.2689 0.0000 0.0000 1773.0273 -7356.3522 306.2392 -9129.3795 -7367.7249 300.2221 163.5461 255.6578 29827.3665 -92.2370 -35.5104
ENERGY: 1500000 4.6902 11.7836 7.4266 0.0000 -10597.8432 1429.3158 0.0000 0.0000 1753.8818 -7390.7452 302.9324 -9144.6270 -7362.3698 300.7360 36.9825 135.3885 29366.9852 -95.1540 -35.3609
TCL: Exiting due to exit command.
