Info: SIMULATION PARAMETERS:
Info: TIMESTEP               2
Info: NUMBER OF STEPS        0
Info: STEPS PER CYCLE        10
Info: PERIODIC CELL BASIS 1  30.864 0 0
Info: PERIODIC CELL BASIS 2  0 30.2236 0
Info: PERIODIC CELL BASIS 3  0 0 32.8128
Info: PERIODIC CELL CENTER   0 0 0
Info: WRAPPING WATERS AROUND PERIODIC BOUNDARIES ON OUTPUT.
Info: WRAPPING ALL CLUSTERS AROUND PERIODIC BOUNDARIES ON OUTPUT.
Info: FIRST LDB TIMESTEP     50
Info: LAST LDB TIMESTEP     -1
Info: HOM BACKGROUND SCALING 1
Info: PME BACKGROUND SCALING 1
Info: MIN ATOMS PER PATCH    40
Info: EMPTY PATCH LOAD       40 ATOMS
Info: VELOCITY FILE          mobley_3040612_equil.vel
Info: CENTER OF MASS MOVING INITIALLY? NO
Info: DIELECTRIC             1
Info: EXCLUDE                SCALED ONE-FOUR
Info: 1-4 ELECTROSTATICS SCALED BY 0.833333
Info: MODIFIED 1-4 VDW PARAMETERS WILL BE USED
Info: DCD FILENAME           mobley_3040612_prod.dcd
Info: DCD FREQUENCY          100000
Info: DCD FIRST STEP         100000
Info: DCD FILE WILL CONTAIN UNIT CELL DATA
Info: XST FILENAME           mobley_3040612_prod.xst
Info: XST FREQUENCY          100000
Info: NO VELOCITY DCD OUTPUT
Info: NO FORCE DCD OUTPUT
Info: OUTPUT FILENAME        mobley_3040612_prod
Info: BINARY OUTPUT FILES WILL BE USED
Info: RESTART FILENAME       mobley_3040612_prod.restart
Info: RESTART FREQUENCY      100000
Info: BINARY RESTART FILES WILL BE USED
Info: CUTOFF                 9
Info: PAIRLIST DISTANCE      11
Info: PAIRLIST SHRINK RATE   0.01
Info: PAIRLIST GROW RATE     0.01
Info: PAIRLIST TRIGGER       0.3
Info: PAIRLISTS PER CYCLE    2
Info: PAIRLISTS ENABLED
Info: MARGIN                 2
Info: HYDROGEN GROUP CUTOFF  2.5
Info: PATCH DIMENSION        15.5
Info: ENERGY OUTPUT STEPS    100000
Info: ENERGY EVALUATION STEPS    100000
Info: OUTPUT ENERGY PRECISION 4
Info: CROSSTERM ENERGY INCLUDED IN DIHEDRAL
Info: TIMING OUTPUT STEPS    1000000
Info: PRESSURE OUTPUT STEPS  100000
Info: ALCHEMICAL FEP ON
Info: FEP CURRENT LAMBDA VALUE     1
Info: FEP COMPARISON LAMBDA VALUE  0.95
Info: FEP INTRA-ALCHEMICAL NON-BONDED INTERACTIONS WILL BE RETAINED
Info: FEP INTRA-ALCHEMICAL BONDED INTERACTIONS WILL BE RETAINED
Info: FEP VDW SHIFTING COEFFICIENT 5
Info: FEP ELEC. ACTIVE FOR ANNIHILATED PARTICLES BETWEEN LAMBDA = 0 AND LAMBDA = 0.5
Info: FEP ELEC. ACTIVE FOR EXNIHILATED PARTICLES BETWEEN LAMBDA = 0.5 AND LAMBDA = 1
Info: FEP VDW ACTIVE FOR ANNIHILATED PARTICLES BETWEEN LAMBDA = 0 AND LAMBDA = 1
Info: FEP VDW ACTIVE FOR EXNIHILATED PARTICLES BETWEEN LAMBDA = 0 AND LAMBDA = 1
Info: FEP BOND ACTIVE FOR ANNIHILATED PARTICLES BETWEEN LAMBDA = 1 AND LAMBDA = 1
Info: FEP BOND ACTIVE FOR EXNIHILATED PARTICLES BETWEEN LAMBDA = 0 AND LAMBDA = 0
Info: LANGEVIN DYNAMICS ACTIVE
Info: LANGEVIN TEMPERATURE   300
Info: LANGEVIN USING BBK INTEGRATOR
Info: LANGEVIN DAMPING COEFFICIENT IS 1 INVERSE PS
Info: LANGEVIN DYNAMICS APPLIED TO HYDROGENS
Info: LANGEVIN PISTON PRESSURE CONTROL ACTIVE
Info:        TARGET PRESSURE IS 1.01325 BAR
Info:     OSCILLATION PERIOD IS 50 FS
Info:             DECAY TIME IS 25 FS
Info:     PISTON TEMPERATURE IS 300 K
Info:       PRESSURE CONTROL IS GROUP-BASED
Info:    INITIAL STRAIN RATE IS -5.36655e-05 -5.36655e-05 -5.36655e-05
Info:       CELL FLUCTUATION IS ISOTROPIC
Info: PARTICLE MESH EWALD (PME) ACTIVE
Info: PME TOLERANCE               1e-06
Info: PME EWALD COEFFICIENT       0.348832
Info: PME INTERPOLATION ORDER     4
Info: PME GRID DIMENSIONS         32 32 36
Info: PME MAXIMUM GRID SPACING    1
Info: PME CALCULATION WILL BE PERFORMED ON GPU
Info: FULL ELECTROSTATIC EVALUATION FREQUENCY      2
Info: USING VERLET I (r-RESPA) MTS SCHEME.
Info: C1 SPLITTING OF LONG RANGE ELECTROSTATICS
Info: PLACING ATOMS IN PATCHES BY HYDROGEN GROUPS
Info: RIGID BONDS TO HYDROGEN : ALL
Info:         ERROR TOLERANCE : 1e-08
Info:          MAX ITERATIONS : 100
Info: RIGID WATER USING SETTLE ALGORITHM
Info: RANDOM NUMBER SEED     1743794066
Info: USE HYDROGEN BONDS?    NO
Info: Using AMBER format force field!
Info: AMBER PARM FILE        mobley_3040612.prmtop
Info: COORDINATE PDB         mobley_3040612.pdb
Info: Exclusions will be read from PARM file!
Info: SCNB (VDW SCALING)     2
Info: USING ARITHMETIC MEAN TO COMBINE L-J SIGMA PARAMETERS
Info: BINARY COORDINATES     mobley_3040612_equil.coor
Info: SUMMARY OF PARAMETERS:
Info: 7 BONDS
Info: 7 ANGLES
Info:   7 HARMONIC
Info:   0 COSINE-BASED
Info: 5 DIHEDRAL
Info: 0 IMPROPER
Info: 0 CROSSTERM
Info: 0 VDW
Info: 21 VDW_PAIRS
Info: 0 NBTHOLE_PAIRS
Info: To read alchdata from file: mobley_3040612.pdb
Info: To read alchflag data from column: 5
Info: STRUCTURE SUMMARY:
Info: 2967 ATOMS
Info: 2967 BONDS
Info: 36 ANGLES
Info: 51 DIHEDRALS
Info: 0 IMPROPERS
Info: 0 CROSSTERMS
Info: 3045 EXCLUSIONS
Info: 2958 RIGID BONDS
Info: ALCH: 0 ATOMS TO DISAPPEAR IN FINAL STATE
Info: ALCH: 21 ATOMS TO APPEAR IN FINAL STATE
Info: 5943 DEGREES OF FREEDOM
Info: 991 HYDROGEN GROUPS
Info: 4 ATOMS IN LARGEST HYDROGEN GROUP
Info: 991 MIGRATION GROUPS
Info: 4 ATOMS IN LARGEST MIGRATION GROUP
Info: TOTAL MASS = 17811.9 amu
Info: TOTAL CHARGE = 3.72529e-09 e
Info: MASS DENSITY = 0.966334 g/cm^3
Info: ATOM DENSITY = 0.0969339 atoms/A^3
Info: ADDED 0 IMPLICIT EXCLUSIONS
Info: NONBONDED TABLE R-SQUARED SPACING: 0.0625
Info: NONBONDED TABLE SIZE: 705 POINTS
Info: REMOVING COM VELOCITY -0.0261718 -0.0633148 0.144082
Info: Use 3D box decompostion in PME FFT.
Info: Updated CUDA force table with 4096 elements.
Info: Updated CUDA LJ table with 6 x 6 elements.
Info: Found 20 unique exclusion lists needing 56 bytes
TCL: Running for 1500000 steps
ETITLE: TS BOND ANGLE DIHED IMPRP ELECT VDW BOUNDARY MISC KINETIC TOTAL TEMP POTENTIAL TOTALAVG TEMPAVG PRESSURE GPRESSURE VOLUME PRESSAVG GPRESSAVG
ENERGY: 0 3.3764 7.7729 4.4940 0.0000 -10750.1726 1412.9687 0.0000 0.0000 1752.6076 -7568.9530 296.8037 -9321.5606 -7568.9530 296.8037 -496.3601 -418.4204 30608.4948 -496.3601 -418.4204
ENERGY: 300000 3.9276 7.1694 7.8356 0.0000 -10827.5653 1462.7291 0.0000 0.0000 1737.7637 -7608.1398 294.2899 -9345.9036 -7543.5278 295.5800 -77.6870 -26.9942 30517.6524 -17.0681 46.5813
ENERGY: 600000 2.7545 6.8629 2.5031 0.0000 -10787.7433 1474.4454 0.0000 0.0000 1821.0965 -7480.0809 308.4023 -9301.1775 -7530.8609 296.1513 428.6866 548.9698 30156.7821 227.6787 291.8624
ENERGY: 900000 3.9071 8.7468 5.1808 0.0000 -10695.4744 1432.6375 0.0000 0.0000 1773.5362 -7471.4660 300.3480 -9245.0022 -7510.0550 298.2446 79.7742 137.1913 30490.4686 197.9698 268.6809
ENERGY: 1200000 3.8177 6.1035 3.4483 0.0000 -10864.4288 1487.8891 0.0000 0.0000 1722.5521 -7640.6181 291.7138 -9363.1702 -7513.0575 298.7134 282.0285 341.2970 29916.3629 102.5434 165.7158
ENERGY: 1500000 2.7215 9.4407 7.1530 0.0000 -10860.8780 1481.2028 0.0000 0.0000 1767.8675 -7592.4924 299.3880 -9360.3599 -7518.8849 298.7291 225.2206 245.4957 30108.3694 46.8751 108.9936
TCL: Running FEP window   2: Lambda1 0.95   Lambda2 0.8999999999999999 [dLambda -0.050000000000000044]
TCL: Setting parameter firsttimestep to 0
TCL: Setting parameter alchLambda to 0.95
Info: NONBONDED TABLE R-SQUARED SPACING: 0.0625
Info: NONBONDED TABLE SIZE: 705 POINTS
TCL: Setting parameter alchLambda2 to 0.8999999999999999
Info: NONBONDED TABLE R-SQUARED SPACING: 0.0625
Info: NONBONDED TABLE SIZE: 705 POINTS
TCL: Running for 1500000 steps
ETITLE: TS BOND ANGLE DIHED IMPRP ELECT VDW BOUNDARY MISC KINETIC TOTAL TEMP POTENTIAL TOTALAVG TEMPAVG PRESSURE GPRESSURE VOLUME PRESSAVG GPRESSAVG
ENERGY: 0 2.7215 9.4407 7.1530 0.0000 -10860.2396 1481.4743 0.0000 0.0000 1766.9755 -7592.4746 299.2369 -9359.4501 -7592.4746 299.2369 147.8732 235.4500 30108.3694 147.8732 235.4500
ENERGY: 300000 3.3352 10.8707 1.8076 0.0000 -10653.8465 1375.2638 0.0000 0.0000 1770.4183 -7492.1508 299.8200 -9262.5691 -7517.5722 301.8577 -614.8386 -529.9346 30782.8997 221.0483 274.2755
ENERGY: 600000 2.4190 10.2317 2.4710 0.0000 -10714.3708 1451.4220 0.0000 0.0000 1738.4767 -7509.3504 294.4107 -9247.8271 -7513.0718 300.1641 -29.2118 -31.7712 30905.6251 79.4986 134.3442
ENERGY: 900000 3.3948 11.3517 3.5865 0.0000 -10731.3601 1465.6975 0.0000 0.0000 1785.0142 -7462.3155 302.2918 -9247.3297 -7492.1830 301.5899 313.7405 324.5830 30431.3524 185.9996 228.4482
ENERGY: 1200000 2.6402 6.6633 3.2684 0.0000 -10681.2848 1420.8573 0.0000 0.0000 1731.6701 -7516.1854 293.2580 -9247.8555 -7504.1254 300.4980 -78.5852 -102.4120 30733.0161 127.0749 171.1383
ENERGY: 1500000 0.7248 9.4704 3.0256 0.0000 -10612.6919 1344.5833 0.0000 0.0000 1823.0423 -7431.8454 308.7318 -9254.8877 -7493.7788 301.1127 -864.2443 -797.7621 31184.1576 44.6280 95.6572
TCL: Running FEP window   3: Lambda1 0.8999999999999999 Lambda2 0.8499999999999999 [dLambda -0.050000000000000044]
TCL: Setting parameter firsttimestep to 0
TCL: Setting parameter alchLambda to 0.8999999999999999
Info: NONBONDED TABLE R-SQUARED SPACING: 0.0625
Info: NONBONDED TABLE SIZE: 705 POINTS
TCL: Setting parameter alchLambda2 to 0.8499999999999999
Info: NONBONDED TABLE R-SQUARED SPACING: 0.0625
Info: NONBONDED TABLE SIZE: 705 POINTS
TCL: Running for 1500000 steps
ETITLE: TS BOND ANGLE DIHED IMPRP ELECT VDW BOUNDARY MISC KINETIC TOTAL TEMP POTENTIAL TOTALAVG TEMPAVG PRESSURE GPRESSURE VOLUME PRESSAVG GPRESSAVG
ENERGY: 0 0.7248 9.4704 3.0256 0.0000 -10611.7021 1344.9174 0.0000 0.0000 1822.1842 -7431.3796 308.5865 -9253.5638 -7431.3796 308.5865 -881.1051 -804.9188 31184.1576 -881.1051 -804.9188
ENERGY: 300000 2.4783 4.1808 2.3783 0.0000 -10774.5477 1416.6530 0.0000 0.0000 1785.2035 -7563.6538 302.3238 -9348.8573 -7493.5147 304.1235 -631.4326 -555.0867 30734.1965 -203.0872 -136.1129
ENERGY: 600000 3.4686 7.8313 4.0112 0.0000 -10807.8413 1511.1401 0.0000 0.0000 1830.7415 -7450.6486 310.0357 -9281.3901 -7484.1383 303.8010 416.3232 499.9563 30542.5438 -179.9249 -112.0121
ENERGY: 900000 2.4307 5.2495 2.2893 0.0000 -10590.8118 1355.6783 0.0000 0.0000 1780.6551 -7444.5089 301.5536 -9225.1640 -7494.7459 303.3926 -635.1884 -556.8339 30598.9415 -225.9343 -159.1242
ENERGY: 1200000 3.0225 9.6373 4.2136 0.0000 -10705.1542 1426.7053 0.0000 0.0000 1724.5972 -7536.9784 292.0602 -9261.5756 -7500.8210 302.2459 -154.4822 -144.5063 30702.8683 -277.0941 -208.3565
ENERGY: 1500000 3.8588 11.0445 0.9346 0.0000 -10699.8305 1461.5665 0.0000 0.0000 1743.0472 -7479.3789 295.1847 -9222.4261 -7499.1337 301.2201 242.9336 322.4135 30261.9209 -266.5019 -199.9234
TCL: Running FEP window   4: Lambda1 0.8499999999999999 Lambda2 0.7999999999999998 [dLambda -0.050000000000000044]
TCL: Setting parameter firsttimestep to 0
TCL: Setting parameter alchLambda to 0.8499999999999999
Info: NONBONDED TABLE R-SQUARED SPACING: 0.0625
Info: NONBONDED TABLE SIZE: 705 POINTS
TCL: Setting parameter alchLambda2 to 0.7999999999999998
Info: NONBONDED TABLE R-SQUARED SPACING: 0.0625
Info: NONBONDED TABLE SIZE: 705 POINTS
TCL: Running for 1500000 steps
ETITLE: TS BOND ANGLE DIHED IMPRP ELECT VDW BOUNDARY MISC KINETIC TOTAL TEMP POTENTIAL TOTALAVG TEMPAVG PRESSURE GPRESSURE VOLUME PRESSAVG GPRESSAVG
ENERGY: 0 3.8588 11.0445 0.9346 0.0000 -10698.8693 1461.7336 0.0000 0.0000 1742.1472 -7479.1506 295.0323 -9221.2978 -7479.1506 295.0323 221.8713 315.3096 30261.9209 221.8713 315.3096
ENERGY: 300000 2.8159 7.4756 6.3286 0.0000 -10617.7688 1414.1069 0.0000 0.0000 1733.4442 -7453.5977 293.5584 -9187.0419 -7504.5264 298.5822 -250.3013 -196.9636 31040.9759 323.0390 398.4423
ENERGY: 600000 2.3960 5.5346 1.6754 0.0000 -10805.0632 1516.5377 0.0000 0.0000 1724.2955 -7554.6241 292.0091 -9278.9196 -7496.4265 300.7185 697.7272 753.7540 30153.9716 240.9826 316.8344
ENERGY: 900000 2.5308 4.1219 3.0140 0.0000 -10707.4316 1451.9485 0.0000 0.0000 1817.0739 -7428.7424 307.7211 -9245.8163 -7496.7472 300.6017 481.8575 475.2981 30173.3849 302.1518 366.1194
ENERGY: 1200000 2.0529 8.3088 1.9286 0.0000 -10729.2612 1435.8348 0.0000 0.0000 1752.8264 -7528.3097 296.8408 -9281.1362 -7501.8867 300.5132 -141.7626 -76.5718 30777.6140 279.2391 345.6868
ENERGY: 1500000 2.5182 7.7833 1.6469 0.0000 -10656.9498 1453.5806 0.0000 0.0000 1732.4549 -7458.9661 293.3909 -9191.4209 -7496.9461 300.6796 54.2798 199.6693 30890.4097 197.4973 269.1739
TCL: Running FEP window   5: Lambda1 0.7999999999999998 Lambda2 0.7499999999999998 [dLambda -0.050000000000000044]
TCL: Setting parameter firsttimestep to 0
TCL: Setting parameter alchLambda to 0.7999999999999998
Info: NONBONDED TABLE R-SQUARED SPACING: 0.0625
Info: NONBONDED TABLE SIZE: 705 POINTS
TCL: Setting parameter alchLambda2 to 0.7499999999999998
Info: NONBONDED TABLE R-SQUARED SPACING: 0.0625
Info: NONBONDED TABLE SIZE: 705 POINTS
TCL: Running for 1500000 steps
ETITLE: TS BOND ANGLE DIHED IMPRP ELECT VDW BOUNDARY MISC KINETIC TOTAL TEMP POTENTIAL TOTALAVG TEMPAVG PRESSURE GPRESSURE VOLUME PRESSAVG GPRESSAVG
ENERGY: 0 2.5182 7.7833 1.6469 0.0000 -10655.9146 1453.3453 0.0000 0.0000 1731.5578 -7459.0631 293.2389 -9190.6210 -7459.0631 293.2389 100.5836 187.9145 30890.4097 100.5836 187.9145
ENERGY: 300000 2.5016 7.8729 3.3986 0.0000 -10821.9491 1491.0855 0.0000 0.0000 1789.9864 -7527.1039 303.1338 -9317.0904 -7488.2585 297.9851 126.4119 243.2849 30495.9584 318.9333 414.4168
ENERGY: 600000 2.1658 8.9889 2.1735 0.0000 -10705.6914 1414.3801 0.0000 0.0000 1763.3332 -7514.6499 298.6201 -9277.9831 -7481.1476 299.1436 -136.0075 -45.1764 30429.5892 130.6239 214.8671
ENERGY: 900000 3.7737 9.3150 3.3744 0.0000 -10678.6454 1383.9959 0.0000 0.0000 1806.4243 -7471.7620 305.9176 -9278.1863 -7471.7356 299.5148 -323.5423 -253.5463 30313.6306 39.5276 112.3393
ENERGY: 1200000 2.7450 7.2804 0.9978 0.0000 -10756.3707 1481.8971 0.0000 0.0000 1770.5149 -7492.9353 299.8363 -9263.4503 -7468.7874 300.5979 279.3035 332.3797 30674.4161 83.8785 155.4820
ENERGY: 1500000 2.8241 6.8778 3.9551 0.0000 -10677.8064 1389.7979 0.0000 0.0000 1814.1206 -7460.2309 307.2209 -9274.3514 -7465.7602 301.2065 -268.7470 -301.4929 30558.6531 61.2981 118.2851
TCL: Running FEP window   6: Lambda1 0.7499999999999998 Lambda2 0.6999999999999997 [dLambda -0.050000000000000044]
TCL: Setting parameter firsttimestep to 0
TCL: Setting parameter alchLambda to 0.7499999999999998
Info: NONBONDED TABLE R-SQUARED SPACING: 0.0625
Info: NONBONDED TABLE SIZE: 705 POINTS
TCL: Setting parameter alchLambda2 to 0.6999999999999997
Info: NONBONDED TABLE R-SQUARED SPACING: 0.0625
Info: NONBONDED TABLE SIZE: 705 POINTS
TCL: Running for 1500000 steps
ETITLE: TS BOND ANGLE DIHED IMPRP ELECT VDW BOUNDARY MISC KINETIC TOTAL TEMP POTENTIAL TOTALAVG TEMPAVG PRESSURE GPRESSURE VOLUME PRESSAVG GPRESSAVG
ENERGY: 0 2.8241 6.8778 3.9551 0.0000 -10676.8149 1389.7202 0.0000 0.0000 1813.2531 -7460.1845 307.0740 -9273.4376 -7460.1845 307.0740 -395.4946 -308.1128 30558.6531 -395.4946 -308.1128
ENERGY: 300000 2.0611 5.4369 1.2683 0.0000 -10717.0089 1479.3923 0.0000 0.0000 1795.5987 -7433.2516 304.0843 -9228.8503 -7450.1701 305.0679 402.3869 449.1335 30631.1313 -367.6383 -285.0346
ENERGY: 600000 1.6067 8.3507 4.7337 0.0000 -10816.8165 1479.1365 0.0000 0.0000 1719.7844 -7603.2045 291.2451 -9322.9888 -7475.2897 301.8048 120.0530 199.1885 30336.8038 -305.7875 -228.8615
ENERGY: 900000 2.2842 6.7184 3.0152 0.0000 -10761.0467 1468.3530 0.0000 0.0000 1777.3110 -7503.3648 300.9872 -9280.6758 -7486.5719 301.8533 442.6339 511.4685 30084.0093 -139.4460 -69.1559
ENERGY: 1200000 3.9189 5.8552 2.3100 0.0000 -10717.9430 1436.1688 0.0000 0.0000 1837.8614 -7431.8287 311.2414 -9269.6900 -7483.2575 301.9478 -120.8979 -33.8623 30836.6554 -163.9859 -85.5642
ENERGY: 1500000 2.5067 8.2096 3.3411 0.0000 -10647.1985 1358.0847 0.0000 0.0000 1765.0725 -7509.9839 298.9147 -9275.0564 -7487.8216 301.5328 -523.1423 -429.4026 30291.3739 -180.9609 -110.0200
TCL: Running FEP window   7: Lambda1 0.6999999999999997 Lambda2 0.6499999999999997 [dLambda -0.050000000000000044]
TCL: Setting parameter firsttimestep to 0
TCL: Setting parameter alchLambda to 0.6999999999999997
Info: NONBONDED TABLE R-SQUARED SPACING: 0.0625
Info: NONBONDED TABLE SIZE: 705 POINTS
TCL: Setting parameter alchLambda2 to 0.6499999999999997
Info: NONBONDED TABLE R-SQUARED SPACING: 0.0625
Info: NONBONDED TABLE SIZE: 705 POINTS
TCL: Running for 1500000 steps
ETITLE: TS BOND ANGLE DIHED IMPRP ELECT VDW BOUNDARY MISC KINETIC TOTAL TEMP POTENTIAL TOTALAVG TEMPAVG PRESSURE GPRESSURE VOLUME PRESSAVG GPRESSAVG
ENERGY: 0 2.5067 8.2095 3.3411 0.0000 -10646.6002 1358.7500 0.0000 0.0000 1764.2061 -7509.5867 298.7679 -9273.7929 -7509.5867 298.7679 -517.1839 -429.4617 30291.3739 -517.1839 -429.4617
ENERGY: 300000 1.9037 11.2487 1.8321 0.0000 -10885.0028 1545.8346 0.0000 0.0000 1743.9891 -7580.1947 295.3442 -9324.1838 -7517.0526 297.7796 612.8635 777.5092 30516.2484 258.8015 342.7912
ENERGY: 600000 0.9370 4.8397 3.8345 0.0000 -10733.6641 1506.5304 0.0000 0.0000 1745.7836 -7471.7390 295.6481 -9217.5226 -7495.5248 297.8859 496.8968 589.4909 30686.5500 201.3684 283.0171
ENERGY: 900000 2.9096 12.7373 2.7404 0.0000 -10629.3993 1373.6412 0.0000 0.0000 1820.9708 -7416.4000 308.3810 -9237.3709 -7477.6005 300.7401 -641.4736 -519.2864 30866.7686 25.5695 112.5999
ENERGY: 1200000 2.9005 11.8890 2.1771 0.0000 -10580.0857 1325.7554 0.0000 0.0000 1801.0336 -7436.3300 305.0047 -9237.3636 -7478.3617 300.5000 -1015.7298 -915.8020 30855.5783 -49.5529 31.7529
ENERGY: 1500000 3.3118 6.2125 6.0167 0.0000 -10619.4684 1327.0871 0.0000 0.0000 1810.2284 -7466.6119 306.5618 -9276.8404 -7482.1539 300.7280 -606.5495 -541.1231 30091.1688 -141.7735 -62.9207
TCL: Running FEP window   8: Lambda1 0.6499999999999997 Lambda2 0.5999999999999996 [dLambda -0.050000000000000044]
TCL: Setting parameter firsttimestep to 0
TCL: Setting parameter alchLambda to 0.6499999999999997
Info: NONBONDED TABLE R-SQUARED SPACING: 0.0625
Info: NONBONDED TABLE SIZE: 705 POINTS
TCL: Setting parameter alchLambda2 to 0.5999999999999996
Info: NONBONDED TABLE R-SQUARED SPACING: 0.0625
Info: NONBONDED TABLE SIZE: 705 POINTS
TCL: Running for 1500000 steps
ETITLE: TS BOND ANGLE DIHED IMPRP ELECT VDW BOUNDARY MISC KINETIC TOTAL TEMP POTENTIAL TOTALAVG TEMPAVG PRESSURE GPRESSURE VOLUME PRESSAVG GPRESSAVG
ENERGY: 0 3.3118 6.2125 6.0167 0.0000 -10619.1155 1327.4861 0.0000 0.0000 1809.4013 -7466.6872 306.4217 -9276.0885 -7466.6872 306.4217 -635.7851 -546.5561 30091.1688 -635.7851 -546.5561
ENERGY: 300000 2.1406 7.6373 2.6960 0.0000 -10672.2112 1446.2088 0.0000 0.0000 1775.7030 -7437.8255 300.7149 -9213.5285 -7464.6270 302.9626 330.4027 416.0026 30591.1064 -189.1126 -113.0899
ENERGY: 600000 2.3007 7.2573 1.8563 0.0000 -10666.7259 1411.6229 0.0000 0.0000 1751.1175 -7492.5711 296.5514 -9243.6887 -7480.9853 301.6423 -234.1155 -205.5531 30684.8464 -330.1502 -263.4060
ENERGY: 900000 2.9246 9.2532 3.5447 0.0000 -10754.5376 1410.9492 0.0000 0.0000 1739.8725 -7587.9935 294.6470 -9327.8660 -7484.2649 300.4369 -273.5229 -258.2359 30490.3245 -248.7767 -180.4374
ENERGY: 1200000 1.6644 7.5391 2.2114 0.0000 -10793.1963 1455.4562 0.0000 0.0000 1798.3914 -7527.9338 304.5572 -9326.3253 -7499.1315 299.8749 11.7266 97.4733 30343.1170 -170.6169 -97.2892
ENERGY: 1500000 1.5104 9.4483 2.2438 0.0000 -10597.8746 1369.4554 0.0000 0.0000 1775.6114 -7439.6052 300.6994 -9215.2166 -7495.8620 300.3274 -507.1024 -443.9847 30742.4937 -254.4629 -184.7231
TCL: Running FEP window   9: Lambda1 0.5999999999999996 Lambda2 0.5499999999999996 [dLambda -0.050000000000000044]
TCL: Setting parameter firsttimestep to 0
TCL: Setting parameter alchLambda to 0.5999999999999996
Info: NONBONDED TABLE R-SQUARED SPACING: 0.0625
Info: NONBONDED TABLE SIZE: 705 POINTS
TCL: Setting parameter alchLambda2 to 0.5499999999999996
Info: NONBONDED TABLE R-SQUARED SPACING: 0.0625
Info: NONBONDED TABLE SIZE: 705 POINTS
TCL: Running for 1500000 steps
ETITLE: TS BOND ANGLE DIHED IMPRP ELECT VDW BOUNDARY MISC KINETIC TOTAL TEMP POTENTIAL TOTALAVG TEMPAVG PRESSURE GPRESSURE VOLUME PRESSAVG GPRESSAVG
ENERGY: 0 1.5105 9.4483 2.2438 0.0000 -10597.9548 1369.7543 0.0000 0.0000 1774.7230 -7440.2750 300.5490 -9214.9980 -7440.2750 300.5490 -537.4491 -450.4378 30742.4937 -537.4491 -450.4378
ENERGY: 300000 4.5059 5.6799 5.1033 0.0000 -10617.2949 1343.0832 0.0000 0.0000 1766.0734 -7492.8493 299.0842 -9258.9227 -7482.3607 299.9916 -790.1834 -675.8845 30489.1528 -194.4413 -109.2883
ENERGY: 600000 2.9234 12.0912 2.4694 0.0000 -10612.3821 1363.6676 0.0000 0.0000 1781.0719 -7450.1586 301.6241 -9231.2304 -7490.8430 300.1753 -677.2518 -554.7206 30819.6297 -146.2178 -76.0660
ENERGY: 900000 2.7464 5.8683 2.6545 0.0000 -10893.0066 1499.7513 0.0000 0.0000 1781.1396 -7600.8466 301.6356 -9381.9861 -7499.3279 300.8747 -169.7029 -99.6233 30878.5976 -189.5229 -123.1669
ENERGY: 1200000 7.6042 6.3994 4.5958 0.0000 -10838.8593 1475.0811 0.0000 0.0000 1772.3215 -7572.8573 300.1423 -9345.1788 -7516.6751 300.0929 284.4061 235.7113 30288.2644 -122.1294 -63.3849
ENERGY: 1500000 2.0384 5.8408 2.5903 0.0000 -10475.4685 1280.3111 0.0000 0.0000 1770.8154 -7413.8725 299.8872 -9184.6879 -7514.6935 299.9907 -1196.0300 -1138.6477 31269.6580 -158.5795 -101.8419
TCL: Running FEP window  10: Lambda1 0.5499999999999996 Lambda2 0.4999999999999996 [dLambda -0.04999999999999999]
TCL: Setting parameter firsttimestep to 0
TCL: Setting parameter alchLambda to 0.5499999999999996
Info: NONBONDED TABLE R-SQUARED SPACING: 0.0625
Info: NONBONDED TABLE SIZE: 705 POINTS
TCL: Setting parameter alchLambda2 to 0.4999999999999996
Info: NONBONDED TABLE R-SQUARED SPACING: 0.0625
Info: NONBONDED TABLE SIZE: 705 POINTS
TCL: Running for 1500000 steps
ETITLE: TS BOND ANGLE DIHED IMPRP ELECT VDW BOUNDARY MISC KINETIC TOTAL TEMP POTENTIAL TOTALAVG TEMPAVG PRESSURE GPRESSURE VOLUME PRESSAVG GPRESSAVG
ENERGY: 0 2.0384 5.8408 2.5903 0.0000 -10475.2530 1280.9590 0.0000 0.0000 1769.9778 -7413.8468 299.7454 -9183.8246 -7413.8468 299.7454 -1225.7484 -1137.5760 31269.6580 -1225.7484 -1137.5760
ENERGY: 300000 2.6194 7.9355 5.1558 0.0000 -10921.1511 1533.3163 0.0000 0.0000 1736.8804 -7635.2438 294.1403 -9372.1242 -7488.2502 302.9162 334.9895 355.4908 30560.5292 -351.5329 -298.7344
ENERGY: 600000 1.8590 7.3956 3.8455 0.0000 -10731.1529 1471.8917 0.0000 0.0000 1746.6981 -7499.4631 295.8029 -9246.1612 -7492.1481 301.1191 373.8724 498.9469 30233.3229 -33.7729 46.3199
ENERGY: 900000 3.0081 5.5041 2.2710 0.0000 -10772.8003 1473.2756 0.0000 0.0000 1756.4474 -7532.2942 297.4540 -9288.7415 -7487.2846 300.8565 286.7667 352.9123 30334.7512 -98.6525 -25.6168
ENERGY: 1200000 1.4960 8.2526 2.0798 0.0000 -10690.6189 1407.8003 0.0000 0.0000 1798.9227 -7472.0676 304.6472 -9270.9903 -7491.3986 301.8077 -338.7595 -293.1035 30582.6549 -33.0712 34.6517
ENERGY: 1500000 2.5657 5.9557 2.3413 0.0000 -10607.2529 1401.4608 0.0000 0.0000 1782.0132 -7412.9163 301.7835 -9194.9294 -7486.6215 302.2162 -184.5658 -147.4734 30655.3395 -20.5202 40.6141
TCL: Running FEP window  11: Lambda1 0.4999999999999996 Lambda2 0.4499999999999996 [dLambda -0.04999999999999999]
TCL: Setting parameter firsttimestep to 0
TCL: Setting parameter alchLambda to 0.4999999999999996
Info: NONBONDED TABLE R-SQUARED SPACING: 0.0625
Info: NONBONDED TABLE SIZE: 705 POINTS
TCL: Setting parameter alchLambda2 to 0.4499999999999996
Info: NONBONDED TABLE R-SQUARED SPACING: 0.0625
Info: NONBONDED TABLE SIZE: 705 POINTS
TCL: Running for 1500000 steps
ETITLE: TS BOND ANGLE DIHED IMPRP ELECT VDW BOUNDARY MISC KINETIC TOTAL TEMP POTENTIAL TOTALAVG TEMPAVG PRESSURE GPRESSURE VOLUME PRESSAVG GPRESSAVG
ENERGY: 0 2.5657 5.9557 2.3413 0.0000 -10607.4279 1401.3748 0.0000 0.0000 1781.1600 -7414.0304 301.6391 -9195.1904 -7414.0304 301.6391 -251.8919 -156.7625 30655.3395 -251.8919 -156.7625
ENERGY: 300000 0.9309 9.5410 2.1015 0.0000 -10657.1081 1452.3303 0.0000 0.0000 1766.0819 -7426.1225 299.0856 -9192.2044 -7422.3595 302.5097 85.3165 179.8307 30844.6788 -188.3758 -114.7520
ENERGY: 600000 3.8520 6.6886 1.9818 0.0000 -10635.2361 1429.6993 0.0000 0.0000 1739.3686 -7453.6459 294.5617 -9193.0145 -7442.4388 297.9152 21.7614 74.9837 30635.9234 31.8567 94.4382
ENERGY: 900000 1.5258 6.2046 4.8213 0.0000 -10692.1341 1406.0923 0.0000 0.0000 1749.0502 -7524.4399 296.2013 -9273.4901 -7464.0386 298.3773 -297.9173 -184.4397 30333.2947 -17.4601 52.7101
ENERGY: 1200000 0.8285 9.5028 3.6955 0.0000 -10791.4386 1488.9606 0.0000 0.0000 1773.2027 -7515.2486 300.2915 -9288.4513 -7467.7842 298.6409 352.5657 425.2536 30346.9191 2.6994 74.1460
ENERGY: 1500000 1.6358 5.5697 0.9514 0.0000 -10596.8937 1388.6577 0.0000 0.0000 1772.6807 -7427.3985 300.2031 -9200.0792 -7473.9355 299.3839 -384.8584 -340.2781 31123.3539 -40.4019 35.4955
TCL: Running FEP window  12: Lambda1 0.4499999999999996 Lambda2 0.39999999999999963 [dLambda -0.04999999999999999]
TCL: Setting parameter firsttimestep to 0
TCL: Setting parameter alchLambda to 0.4499999999999996
Info: NONBONDED TABLE R-SQUARED SPACING: 0.0625
Info: NONBONDED TABLE SIZE: 705 POINTS
TCL: Setting parameter alchLambda2 to 0.39999999999999963
Info: NONBONDED TABLE R-SQUARED SPACING: 0.0625
Info: NONBONDED TABLE SIZE: 705 POINTS
TCL: Running for 1500000 steps
ETITLE: TS BOND ANGLE DIHED IMPRP ELECT VDW BOUNDARY MISC KINETIC TOTAL TEMP POTENTIAL TOTALAVG TEMPAVG PRESSURE GPRESSURE VOLUME PRESSAVG GPRESSAVG
ENERGY: 0 1.6358 5.5697 0.9514 0.0000 -10596.8939 1389.1769 0.0000 0.0000 1771.8148 -7427.7454 300.0565 -9199.5602 -7427.7454 300.0565 -435.0959 -341.9495 31123.3539 -435.0959 -341.9495
ENERGY: 300000 4.3926 8.4577 3.9327 0.0000 -10797.6615 1489.3874 0.0000 0.0000 1770.4062 -7521.0848 299.8179 -9291.4911 -7485.5679 299.7686 372.5005 449.3267 30510.8141 -2.3798 71.6359
ENERGY: 600000 1.8441 6.8671 6.0532 0.0000 -10639.3656 1431.8834 0.0000 0.0000 1854.3264 -7338.3915 314.0298 -9192.7179 -7457.2944 304.0046 -15.5403 -9.9106 30813.9736 197.8362 239.6255
ENERGY: 900000 2.4763 9.3758 3.5958 0.0000 -10660.0651 1436.2163 0.0000 0.0000 1700.6604 -7507.7405 288.0065 -9208.4009 -7466.9182 301.2281 -63.5395 11.8888 30483.6430 57.1863 111.2949
ENERGY: 1200000 2.8762 7.5474 2.8565 0.0000 -10797.6270 1507.7774 0.0000 0.0000 1749.2448 -7527.3247 296.2342 -9276.5695 -7465.6359 300.8087 712.8423 704.5108 30081.8202 129.5408 177.4783
ENERGY: 1500000 2.3478 10.4339 2.7352 0.0000 -10752.5623 1416.4352 0.0000 0.0000 1808.9439 -7511.6664 306.3443 -9320.6103 -7477.3211 301.0687 -317.6881 -302.8959 30940.3295 133.0158 180.7831
TCL: Running FEP window  13: Lambda1 0.39999999999999963 Lambda2 0.34999999999999964 [dLambda -0.04999999999999999]
TCL: Setting parameter firsttimestep to 0
TCL: Setting parameter alchLambda to 0.39999999999999963
Info: NONBONDED TABLE R-SQUARED SPACING: 0.0625
Info: NONBONDED TABLE SIZE: 705 POINTS
TCL: Setting parameter alchLambda2 to 0.34999999999999964
Info: NONBONDED TABLE R-SQUARED SPACING: 0.0625
Info: NONBONDED TABLE SIZE: 705 POINTS
TCL: Running for 1500000 steps
ETITLE: TS BOND ANGLE DIHED IMPRP ELECT VDW BOUNDARY MISC KINETIC TOTAL TEMP POTENTIAL TOTALAVG TEMPAVG PRESSURE GPRESSURE VOLUME PRESSAVG GPRESSAVG
ENERGY: 0 2.3478 10.4339 2.7352 0.0000 -10752.5621 1416.8954 0.0000 0.0000 1808.0682 -7512.0817 306.1960 -9320.1499 -7512.0817 306.1960 -389.8275 -304.6620 30940.3295 -389.8275 -304.6620
ENERGY: 300000 3.1862 6.7545 1.4508 0.0000 -10633.5444 1382.7295 0.0000 0.0000 1780.2249 -7459.1985 301.4807 -9239.4234 -7472.6382 300.7978 -414.1718 -295.0004 30486.7951 -262.5396 -168.3485
ENERGY: 600000 1.4900 7.6524 4.4673 0.0000 -10840.7078 1483.9276 0.0000 0.0000 1849.8322 -7493.3385 313.2687 -9343.1706 -7516.4068 301.9832 271.7815 329.9409 30164.1568 -26.0952 48.7147
ENERGY: 900000 4.5969 8.7076 3.4928 0.0000 -10764.3872 1492.4766 0.0000 0.0000 1717.2272 -7537.8862 290.8121 -9255.1134 -7513.7215 301.3008 260.4905 350.2734 30245.0106 -3.0035 70.0560
ENERGY: 1200000 1.9776 5.9826 2.1237 0.0000 -10643.8614 1389.5889 0.0000 0.0000 1758.5749 -7485.6137 297.8143 -9244.1885 -7514.2065 300.4551 -500.9806 -431.5272 30587.9331 -83.7724 -17.1046
ENERGY: 1500000 2.7985 9.0642 0.9360 0.0000 -10714.4209 1455.7216 0.0000 0.0000 1742.4444 -7503.4562 295.0826 -9245.9006 -7514.6302 300.2500 -137.8444 -115.4613 30813.8915 17.9695 80.3776
TCL: Running FEP window  14: Lambda1 0.34999999999999964 Lambda2 0.29999999999999966 [dLambda -0.04999999999999999]
TCL: Setting parameter firsttimestep to 0
TCL: Setting parameter alchLambda to 0.34999999999999964
Info: NONBONDED TABLE R-SQUARED SPACING: 0.0625
Info: NONBONDED TABLE SIZE: 705 POINTS
TCL: Setting parameter alchLambda2 to 0.29999999999999966
Info: NONBONDED TABLE R-SQUARED SPACING: 0.0625
Info: NONBONDED TABLE SIZE: 705 POINTS
TCL: Running for 1500000 steps
ETITLE: TS BOND ANGLE DIHED IMPRP ELECT VDW BOUNDARY MISC KINETIC TOTAL TEMP POTENTIAL TOTALAVG TEMPAVG PRESSURE GPRESSURE VOLUME PRESSAVG GPRESSAVG
ENERGY: 0 2.7985 9.0642 0.9360 0.0000 -10714.4217 1456.2477 0.0000 0.0000 1741.6031 -7503.7722 294.9401 -9245.3753 -7503.7722 294.9401 -192.7123 -116.8465 30813.8915 -192.7123 -116.8465
ENERGY: 300000 3.7163 7.8697 4.0507 0.0000 -10688.7883 1378.4354 0.0000 0.0000 1718.1558 -7576.5602 290.9693 -9294.7161 -7517.4481 296.0974 -799.9926 -730.7214 30451.5793 -71.4119 -0.4880
ENERGY: 600000 3.5952 7.7746 3.3284 0.0000 -10765.7150 1453.3176 0.0000 0.0000 1763.6284 -7534.0708 298.6701 -9297.6992 -7508.6656 297.7216 -98.9883 13.5749 30395.6676 -62.4027 12.2045
ENERGY: 900000 1.6684 15.6374 3.4486 0.0000 -10746.5487 1447.9368 0.0000 0.0000 1692.0104 -7585.8471 286.5416 -9277.8574 -7507.3835 297.8723 130.8184 205.3301 30187.8666 -107.0405 -40.3295
ENERGY: 1200000 3.2527 6.3817 2.2435 0.0000 -10580.1450 1321.2576 0.0000 0.0000 1724.8165 -7522.1932 292.0973 -9247.0096 -7505.0444 297.6171 -1194.4941 -1160.3280 30936.2961 -114.0442 -51.2238
ENERGY: 1500000 1.6508 6.6879 3.7275 0.0000 -10754.8873 1441.8122 0.0000 0.0000 1708.9023 -7592.1066 289.4022 -9301.0089 -7516.0900 296.7401 6.4726 84.4816 30015.5008 -159.3008 -96.1591
TCL: Running FEP window  15: Lambda1 0.29999999999999966 Lambda2 0.24999999999999967 [dLambda -0.04999999999999999]
TCL: Setting parameter firsttimestep to 0
TCL: Setting parameter alchLambda to 0.29999999999999966
Info: NONBONDED TABLE R-SQUARED SPACING: 0.0625
Info: NONBONDED TABLE SIZE: 705 POINTS
TCL: Setting parameter alchLambda2 to 0.24999999999999967
Info: NONBONDED TABLE R-SQUARED SPACING: 0.0625
Info: NONBONDED TABLE SIZE: 705 POINTS
TCL: Running for 1500000 steps
ETITLE: TS BOND ANGLE DIHED IMPRP ELECT VDW BOUNDARY MISC KINETIC TOTAL TEMP POTENTIAL TOTALAVG TEMPAVG PRESSURE GPRESSURE VOLUME PRESSAVG GPRESSAVG
ENERGY: 0 1.6508 6.6879 3.7275 0.0000 -10754.8875 1441.6163 0.0000 0.0000 1708.0195 -7593.1855 289.2527 -9301.2050 -7593.1855 289.2527 -21.0173 79.0931 30015.5008 -21.0173 79.0931
ENERGY: 300000 5.6191 11.7064 4.8908 0.0000 -10838.8726 1560.0717 0.0000 0.0000 1756.1087 -7500.4759 297.3966 -9256.5846 -7576.7110 295.3796 996.0372 1064.2325 29985.6814 248.6235 305.6343
ENERGY: 600000 2.0821 8.8680 2.4253 0.0000 -10844.7196 1531.3924 0.0000 0.0000 1701.5467 -7598.4050 288.1566 -9299.9517 -7561.8605 295.1574 494.5470 547.4417 30044.5263 137.2252 196.6009
ENERGY: 900000 6.3175 4.2914 2.8079 0.0000 -10727.3243 1474.1153 0.0000 0.0000 1785.9236 -7453.8686 302.4458 -9239.7922 -7549.7658 294.7656 89.2172 126.3832 30618.6945 94.8702 149.9831
ENERGY: 1200000 2.8024 7.7677 3.7713 0.0000 -10660.0451 1448.5619 0.0000 0.0000 1805.3178 -7391.8240 305.7302 -9197.1418 -7536.9041 295.8899 -22.7965 53.3239 30698.7928 66.5790 125.8397
ENERGY: 1500000 3.6388 8.3826 2.2266 0.0000 -10753.8594 1486.2961 0.0000 0.0000 1794.7295 -7458.5857 303.9371 -9253.3152 -7528.7074 297.1235 78.5552 180.3661 30656.5348 46.9730 112.9400
TCL: Running FEP window  16: Lambda1 0.24999999999999967 Lambda2 0.19999999999999968 [dLambda -0.04999999999999999]
TCL: Setting parameter firsttimestep to 0
TCL: Setting parameter alchLambda to 0.24999999999999967
Info: NONBONDED TABLE R-SQUARED SPACING: 0.0625
Info: NONBONDED TABLE SIZE: 705 POINTS
TCL: Setting parameter alchLambda2 to 0.19999999999999968
Info: NONBONDED TABLE R-SQUARED SPACING: 0.0625
Info: NONBONDED TABLE SIZE: 705 POINTS
TCL: Running for 1500000 steps
ETITLE: TS BOND ANGLE DIHED IMPRP ELECT VDW BOUNDARY MISC KINETIC TOTAL TEMP POTENTIAL TOTALAVG TEMPAVG PRESSURE GPRESSURE VOLUME PRESSAVG GPRESSAVG
ENERGY: 0 3.6389 8.3826 2.2266 0.0000 -10753.8608 1486.2600 0.0000 0.0000 1793.8636 -7459.4892 303.7904 -9253.3528 -7459.4892 303.7904 94.8347 172.7534 30656.5348 94.8347 172.7534
ENERGY: 300000 3.3714 7.3965 4.6039 0.0000 -10669.1958 1420.0620 0.0000 0.0000 1786.1117 -7447.6503 302.4776 -9233.7620 -7480.6166 303.2815 -83.8496 45.5939 30181.7563 -36.2647 47.0165
ENERGY: 600000 1.6664 15.8552 3.8932 0.0000 -10730.2557 1492.1416 0.0000 0.0000 1795.4220 -7421.2774 304.0543 -9216.6994 -7444.8298 305.4897 491.6579 588.3086 30264.4491 -149.4210 -79.3814
ENERGY: 900000 2.9826 10.6445 2.2772 0.0000 -10722.1009 1451.4127 0.0000 0.0000 1775.3410 -7479.4429 300.6536 -9254.7839 -7466.7376 303.2756 395.1412 384.4890 29958.1998 20.4754 82.6005
ENERGY: 1200000 3.5410 10.6311 4.4540 0.0000 -10857.6454 1639.7336 0.0000 0.0000 1762.0317 -7437.2540 298.3997 -9199.2857 -7470.7577 302.1910 1642.1675 1698.3360 30539.8723 126.1929 189.3923
ENERGY: 1500000 1.5182 8.1877 1.9811 0.0000 -10597.8921 1409.2768 0.0000 0.0000 1766.3463 -7410.5820 299.1304 -9176.9282 -7464.8008 302.5582 14.8869 79.4630 30519.7217 53.7400 113.9470
TCL: Running FEP window  17: Lambda1 0.19999999999999968 Lambda2 0.1499999999999997 [dLambda -0.04999999999999999]
TCL: Setting parameter firsttimestep to 0
TCL: Setting parameter alchLambda to 0.19999999999999968
Info: NONBONDED TABLE R-SQUARED SPACING: 0.0625
Info: NONBONDED TABLE SIZE: 705 POINTS
TCL: Setting parameter alchLambda2 to 0.1499999999999997
Info: NONBONDED TABLE R-SQUARED SPACING: 0.0625
Info: NONBONDED TABLE SIZE: 705 POINTS
TCL: Running for 1500000 steps
ETITLE: TS BOND ANGLE DIHED IMPRP ELECT VDW BOUNDARY MISC KINETIC TOTAL TEMP POTENTIAL TOTALAVG TEMPAVG PRESSURE GPRESSURE VOLUME PRESSAVG GPRESSAVG
ENERGY: 0 1.5182 8.1877 1.9812 0.0000 -10597.8932 1409.5045 0.0000 0.0000 1765.4694 -7411.2322 298.9819 -9176.7017 -7411.2322 298.9819 -9.4426 77.5833 30519.7217 -9.4426 77.5833
ENERGY: 300000 3.1926 9.2614 4.9264 0.0000 -10662.9080 1446.6234 0.0000 0.0000 1727.8832 -7471.0210 292.6166 -9198.9042 -7476.8106 297.1579 -103.2953 -1.7716 30552.8333 -209.9533 -140.8179
ENERGY: 600000 1.5022 8.6523 2.0339 0.0000 -10659.0223 1355.8725 0.0000 0.0000 1765.8961 -7525.0653 299.0541 -9290.9614 -7494.3868 297.5742 -905.8436 -849.9909 30747.8523 -379.9296 -311.6824
ENERGY: 900000 2.3494 10.0337 6.5873 0.0000 -10658.0344 1381.4245 0.0000 0.0000 1711.4620 -7546.1775 289.8357 -9257.6395 -7507.3586 296.8936 -590.8518 -565.4601 30308.6009 -292.9104 -233.7581
ENERGY: 1200000 2.4455 7.3121 3.5922 0.0000 -10570.0789 1355.0584 0.0000 0.0000 1738.8782 -7462.7925 294.4787 -9201.6707 -7493.9232 297.9481 -637.6186 -567.8471 30486.8164 -308.6147 -242.9085
ENERGY: 1500000 1.9070 5.1720 3.1651 0.0000 -10664.5074 1411.8271 0.0000 0.0000 1803.5553 -7438.8809 305.4317 -9242.4362 -7485.6250 299.9126 -131.8181 -134.4882 30758.1905 -355.0337 -296.0778
TCL: Running FEP window  18: Lambda1 0.1499999999999997 Lambda2 0.09999999999999969 [dLambda -0.05 ]
TCL: Setting parameter firsttimestep to 0
TCL: Setting parameter alchLambda to 0.1499999999999997
Info: NONBONDED TABLE R-SQUARED SPACING: 0.0625
Info: NONBONDED TABLE SIZE: 705 POINTS
TCL: Setting parameter alchLambda2 to 0.09999999999999969
Info: NONBONDED TABLE R-SQUARED SPACING: 0.0625
Info: NONBONDED TABLE SIZE: 705 POINTS
TCL: Running for 1500000 steps
ETITLE: TS BOND ANGLE DIHED IMPRP ELECT VDW BOUNDARY MISC KINETIC TOTAL TEMP POTENTIAL TOTALAVG TEMPAVG PRESSURE GPRESSURE VOLUME PRESSAVG GPRESSAVG
ENERGY: 0 1.9070 5.1720 3.1651 0.0000 -10664.5069 1412.2214 0.0000 0.0000 1802.6578 -7439.3837 305.2797 -9242.0415 -7439.3837 305.2797 -210.3941 -136.0041 30758.1905 -210.3941 -136.0041
ENERGY: 300000 1.5522 8.4430 3.2721 0.0000 -10691.5822 1433.4943 0.0000 0.0000 1755.5777 -7489.2429 297.3067 -9244.8206 -7473.5851 302.1982 -210.9214 -142.4203 30708.5252 113.0768 178.0020
ENERGY: 600000 1.9013 6.8690 3.6931 0.0000 -10721.2352 1452.6663 0.0000 0.0000 1826.3700 -7429.7355 309.2954 -9256.1056 -7467.0731 303.5710 -128.7597 -41.4920 30565.6456 132.0209 205.3065
ENERGY: 900000 3.6934 7.7234 5.2255 0.0000 -10664.1725 1370.4793 0.0000 0.0000 1754.3313 -7522.7196 297.0956 -9277.0510 -7495.7832 301.3232 -916.7445 -888.0938 30691.4836 -100.3916 -26.6752
ENERGY: 1200000 5.1706 6.9937 1.9783 0.0000 -10686.4356 1374.2305 0.0000 0.0000 1758.3253 -7539.7373 297.7720 -9298.0625 -7499.9579 300.7696 -859.9845 -789.8066 30503.0974 -165.4626 -87.1224
ENERGY: 1500000 0.8002 6.4696 3.1289 0.0000 -10693.4835 1432.7726 0.0000 0.0000 1765.3595 -7484.9528 298.9632 -9250.3122 -7498.3295 300.6724 -175.1572 -124.8692 30703.9316 -149.2748 -73.1968
TCL: Running FEP window  19: Lambda1 0.09999999999999969 Lambda2 0.049999999999999684 [dLambda -0.05 ]
TCL: Setting parameter firsttimestep to 0
TCL: Setting parameter alchLambda to 0.09999999999999969
Info: NONBONDED TABLE R-SQUARED SPACING: 0.0625
Info: NONBONDED TABLE SIZE: 705 POINTS
TCL: Setting parameter alchLambda2 to 0.049999999999999684
Info: NONBONDED TABLE R-SQUARED SPACING: 0.0625
Info: NONBONDED TABLE SIZE: 705 POINTS
TCL: Running for 1500000 steps
ETITLE: TS BOND ANGLE DIHED IMPRP ELECT VDW BOUNDARY MISC KINETIC TOTAL TEMP POTENTIAL TOTALAVG TEMPAVG PRESSURE GPRESSURE VOLUME PRESSAVG GPRESSAVG
ENERGY: 0 0.8002 6.4696 3.1289 0.0000 -10693.4832 1432.2680 0.0000 0.0000 1764.4789 -7486.3376 298.8141 -9250.8165 -7486.3376 298.8141 -210.4703 -130.6232 30703.9316 -210.4703 -130.6232
ENERGY: 300000 4.8849 9.2475 3.7529 0.0000 -10716.3835 1454.4072 0.0000 0.0000 1776.4965 -7467.5944 300.8493 -9244.0910 -7461.5021 300.9612 41.1439 101.0785 30477.9404 69.5592 137.1382
ENERGY: 600000 3.1114 13.8021 3.8696 0.0000 -10677.9138 1412.9947 0.0000 0.0000 1766.0078 -7478.1283 299.0730 -9244.1361 -7483.1451 301.8115 -57.1797 -51.9221 30170.7646 -146.2828 -93.8048
ENERGY: 900000 5.1719 5.6773 2.5660 0.0000 -10539.7135 1362.4212 0.0000 0.0000 1780.9714 -7382.9057 301.6071 -9163.8771 -7464.0603 301.8748 -630.7796 -570.5768 30844.8906 -127.2894 -70.0324
ENERGY: 1200000 3.9379 8.8641 2.9672 0.0000 -10742.6039 1443.4915 0.0000 0.0000 1773.6975 -7509.6457 300.3753 -9283.3433 -7477.5236 301.1404 129.8809 160.9746 29721.6677 -130.8722 -76.5867
ENERGY: 1500000 3.7594 3.9305 2.8936 0.0000 -10575.6598 1394.9384 0.0000 0.0000 1793.7765 -7376.3614 303.7757 -9170.1379 -7473.1201 300.9613 -127.1088 -82.9595 30437.4889 -136.9190 -82.9145
TCL: Running FEP window  20: Lambda1 0.049999999999999684 Lambda2 0.0    [dLambda -0.049999999999999684]
TCL: Setting parameter firsttimestep to 0
TCL: Setting parameter alchLambda to 0.049999999999999684
Info: NONBONDED TABLE R-SQUARED SPACING: 0.0625
Info: NONBONDED TABLE SIZE: 705 POINTS
TCL: Setting parameter alchLambda2 to 0.0
Info: NONBONDED TABLE R-SQUARED SPACING: 0.0625
Info: NONBONDED TABLE SIZE: 705 POINTS
TCL: Running for 1500000 steps
ETITLE: TS BOND ANGLE DIHED IMPRP ELECT VDW BOUNDARY MISC KINETIC TOTAL TEMP POTENTIAL TOTALAVG TEMPAVG PRESSURE GPRESSURE VOLUME PRESSAVG GPRESSAVG
ENERGY: 0 3.7594 3.9305 2.8936 0.0000 -10575.6611 1394.8648 0.0000 0.0000 1792.8932 -7377.3196 303.6261 -9170.2128 -7377.3196 303.6261 -154.4420 -82.3756 30437.4889 -154.4420 -82.3756
ENERGY: 300000 3.7524 5.8366 1.9301 0.0000 -10751.5156 1510.2268 0.0000 0.0000 1723.1300 -7506.6397 291.8117 -9229.7696 -7465.1644 299.6956 497.7556 558.5481 30202.8047 -33.2637 43.9358
ENERGY: 600000 3.1579 5.4812 1.7051 0.0000 -10734.7267 1441.8799 0.0000 0.0000 1763.6645 -7518.8382 298.6762 -9282.5026 -7470.3174 300.7691 -150.8668 -81.4160 30317.7401 -8.0519 66.2583
ENERGY: 900000 2.8854 11.9986 1.2687 0.0000 -10907.8764 1537.6716 0.0000 0.0000 1780.4699 -7573.5822 301.5222 -9354.0522 -7493.7036 300.7748 424.0815 534.6252 30307.6208 -127.7771 -47.4568
ENERGY: 1200000 3.7804 6.4205 3.6668 0.0000 -10838.8157 1513.9792 0.0000 0.0000 1770.8850 -7540.0837 299.8990 -9310.9687 -7500.9697 300.5000 11.7209 119.3435 30626.9437 -142.2632 -62.6105
ENERGY: 1500000 5.9384 10.5897 2.3371 0.0000 -10702.7281 1467.8608 0.0000 0.0000 1821.2375 -7394.7645 308.4262 -9216.0020 -7485.2336 301.2463 327.8317 377.5259 30495.7542 -153.0334 -80.3644
TCL: Exiting due to exit command.
