Info: SIMULATION PARAMETERS:
Info: TIMESTEP               2
Info: NUMBER OF STEPS        0
Info: STEPS PER CYCLE        10
Info: PERIODIC CELL BASIS 1  33.6709 0 0
Info: PERIODIC CELL BASIS 2  0 32.3256 0
Info: PERIODIC CELL BASIS 3  0 0 27.801
Info: PERIODIC CELL CENTER   0 0 0
Info: WRAPPING WATERS AROUND PERIODIC BOUNDARIES ON OUTPUT.
Info: WRAPPING ALL CLUSTERS AROUND PERIODIC BOUNDARIES ON OUTPUT.
Info: FIRST LDB TIMESTEP     50
Info: LAST LDB TIMESTEP     -1
Info: HOM BACKGROUND SCALING 1
Info: PME BACKGROUND SCALING 1
Info: MIN ATOMS PER PATCH    40
Info: EMPTY PATCH LOAD       40 ATOMS
Info: VELOCITY FILE          mobley_9007496_equil.vel
Info: CENTER OF MASS MOVING INITIALLY? NO
Info: DIELECTRIC             1
Info: EXCLUDE                SCALED ONE-FOUR
Info: 1-4 ELECTROSTATICS SCALED BY 0.833333
Info: MODIFIED 1-4 VDW PARAMETERS WILL BE USED
Info: DCD FILENAME           mobley_9007496_prod.dcd
Info: DCD FREQUENCY          100000
Info: DCD FIRST STEP         100000
Info: DCD FILE WILL CONTAIN UNIT CELL DATA
Info: XST FILENAME           mobley_9007496_prod.xst
Info: XST FREQUENCY          100000
Info: NO VELOCITY DCD OUTPUT
Info: NO FORCE DCD OUTPUT
Info: OUTPUT FILENAME        mobley_9007496_prod
Info: BINARY OUTPUT FILES WILL BE USED
Info: RESTART FILENAME       mobley_9007496_prod.restart
Info: RESTART FREQUENCY      100000
Info: BINARY RESTART FILES WILL BE USED
Info: CUTOFF                 9
Info: PAIRLIST DISTANCE      11
Info: PAIRLIST SHRINK RATE   0.01
Info: PAIRLIST GROW RATE     0.01
Info: PAIRLIST TRIGGER       0.3
Info: PAIRLISTS PER CYCLE    2
Info: PAIRLISTS ENABLED
Info: MARGIN                 2
Info: HYDROGEN GROUP CUTOFF  2.5
Info: PATCH DIMENSION        15.5
Info: ENERGY OUTPUT STEPS    100000
Info: ENERGY EVALUATION STEPS    100000
Info: OUTPUT ENERGY PRECISION 4
Info: CROSSTERM ENERGY INCLUDED IN DIHEDRAL
Info: TIMING OUTPUT STEPS    1000000
Info: PRESSURE OUTPUT STEPS  100000
Info: ALCHEMICAL FEP ON
Info: FEP CURRENT LAMBDA VALUE     1
Info: FEP COMPARISON LAMBDA VALUE  0.95
Info: FEP INTRA-ALCHEMICAL NON-BONDED INTERACTIONS WILL BE RETAINED
Info: FEP INTRA-ALCHEMICAL BONDED INTERACTIONS WILL BE RETAINED
Info: FEP VDW SHIFTING COEFFICIENT 5
Info: FEP ELEC. ACTIVE FOR ANNIHILATED PARTICLES BETWEEN LAMBDA = 0 AND LAMBDA = 0.5
Info: FEP ELEC. ACTIVE FOR EXNIHILATED PARTICLES BETWEEN LAMBDA = 0.5 AND LAMBDA = 1
Info: FEP VDW ACTIVE FOR ANNIHILATED PARTICLES BETWEEN LAMBDA = 0 AND LAMBDA = 1
Info: FEP VDW ACTIVE FOR EXNIHILATED PARTICLES BETWEEN LAMBDA = 0 AND LAMBDA = 1
Info: FEP BOND ACTIVE FOR ANNIHILATED PARTICLES BETWEEN LAMBDA = 1 AND LAMBDA = 1
Info: FEP BOND ACTIVE FOR EXNIHILATED PARTICLES BETWEEN LAMBDA = 0 AND LAMBDA = 0
Info: LANGEVIN DYNAMICS ACTIVE
Info: LANGEVIN TEMPERATURE   300
Info: LANGEVIN USING BBK INTEGRATOR
Info: LANGEVIN DAMPING COEFFICIENT IS 1 INVERSE PS
Info: LANGEVIN DYNAMICS APPLIED TO HYDROGENS
Info: LANGEVIN PISTON PRESSURE CONTROL ACTIVE
Info:        TARGET PRESSURE IS 1.01325 BAR
Info:     OSCILLATION PERIOD IS 50 FS
Info:             DECAY TIME IS 25 FS
Info:     PISTON TEMPERATURE IS 300 K
Info:       PRESSURE CONTROL IS GROUP-BASED
Info:    INITIAL STRAIN RATE IS 2.66709e-05 2.66709e-05 2.66709e-05
Info:       CELL FLUCTUATION IS ISOTROPIC
Info: PARTICLE MESH EWALD (PME) ACTIVE
Info: PME TOLERANCE               1e-06
Info: PME EWALD COEFFICIENT       0.348832
Info: PME INTERPOLATION ORDER     4
Info: PME GRID DIMENSIONS         36 36 28
Info: PME MAXIMUM GRID SPACING    1
Info: PME CALCULATION WILL BE PERFORMED ON GPU
Info: FULL ELECTROSTATIC EVALUATION FREQUENCY      2
Info: USING VERLET I (r-RESPA) MTS SCHEME.
Info: C1 SPLITTING OF LONG RANGE ELECTROSTATICS
Info: PLACING ATOMS IN PATCHES BY HYDROGEN GROUPS
Info: RIGID BONDS TO HYDROGEN : ALL
Info:         ERROR TOLERANCE : 1e-08
Info:          MAX ITERATIONS : 100
Info: RIGID WATER USING SETTLE ALGORITHM
Info: RANDOM NUMBER SEED     1743816013
Info: USE HYDROGEN BONDS?    NO
Info: Using AMBER format force field!
Info: AMBER PARM FILE        mobley_9007496.prmtop
Info: COORDINATE PDB         mobley_9007496.pdb
Info: Exclusions will be read from PARM file!
Info: SCNB (VDW SCALING)     2
Info: USING ARITHMETIC MEAN TO COMBINE L-J SIGMA PARAMETERS
Info: BINARY COORDINATES     mobley_9007496_equil.coor
Info: SUMMARY OF PARAMETERS:
Info: 11 BONDS
Info: 12 ANGLES
Info:   12 HARMONIC
Info:   0 COSINE-BASED
Info: 7 DIHEDRAL
Info: 0 IMPROPER
Info: 0 CROSSTERM
Info: 0 VDW
Info: 55 VDW_PAIRS
Info: 0 NBTHOLE_PAIRS
Info: To read alchdata from file: mobley_9007496.pdb
Info: To read alchflag data from column: 5
Info: STRUCTURE SUMMARY:
Info: 2927 ATOMS
Info: 2928 BONDS
Info: 43 ANGLES
Info: 71 DIHEDRALS
Info: 0 IMPROPERS
Info: 0 CROSSTERMS
Info: 3023 EXCLUSIONS
Info: 2912 RIGID BONDS
Info: ALCH: 0 ATOMS TO DISAPPEAR IN FINAL STATE
Info: ALCH: 26 ATOMS TO APPEAR IN FINAL STATE
Info: 5869 DEGREES OF FREEDOM
Info: 982 HYDROGEN GROUPS
Info: 4 ATOMS IN LARGEST HYDROGEN GROUP
Info: 982 MIGRATION GROUPS
Info: 4 ATOMS IN LARGEST MIGRATION GROUP
Info: TOTAL MASS = 17622.7 amu
Info: TOTAL CHARGE = 0.000300014 e
Info: MASS DENSITY = 0.967099 g/cm^3
Info: ATOM DENSITY = 0.0967302 atoms/A^3
Info: ADDED 0 IMPLICIT EXCLUSIONS
Info: NONBONDED TABLE R-SQUARED SPACING: 0.0625
Info: NONBONDED TABLE SIZE: 705 POINTS
Info: REDUCING NUMBER OF PATCHES TO IMPROVE LOAD BALANCE
Info: REMOVING COM VELOCITY 0.1519 -0.0509875 -0.015276
Info: Use 3D box decompostion in PME FFT.
Info: Updated CUDA force table with 4096 elements.
Info: Updated CUDA LJ table with 10 x 10 elements.
Info: Found 25 unique exclusion lists needing 80 bytes
TCL: Running for 1500000 steps
ETITLE: TS BOND ANGLE DIHED IMPRP ELECT VDW BOUNDARY MISC KINETIC TOTAL TEMP POTENTIAL TOTALAVG TEMPAVG PRESSURE GPRESSURE VOLUME PRESSAVG GPRESSAVG
ENERGY: 0 8.2716 10.1253 6.7791 0.0000 -10562.5254 1396.0891 0.0000 0.0000 1758.0933 -7383.1669 301.4867 -9141.2602 -7383.1669 301.4867 -161.6902 -76.8030 30259.4164 -161.6902 -76.8030
ENERGY: 300000 5.0443 7.5072 7.3039 0.0000 -10520.8083 1381.5860 0.0000 0.0000 1788.3776 -7330.9892 306.6800 -9119.3668 -7396.9635 301.2638 -355.7608 -315.2645 30370.5813 155.7411 190.7859
ENERGY: 600000 5.4089 7.1802 10.2211 0.0000 -10624.2278 1451.3988 0.0000 0.0000 1729.4656 -7420.5531 296.5775 -9150.0187 -7403.4962 300.2470 288.1494 378.6035 30471.7488 77.6782 125.0073
ENERGY: 900000 2.8926 6.1944 8.4825 0.0000 -10587.8496 1408.0432 0.0000 0.0000 1755.1289 -7407.1080 300.9784 -9162.2368 -7420.4255 299.1569 -109.6224 33.9920 30384.9524 88.5037 149.2322
ENERGY: 1200000 3.9889 6.7531 8.6889 0.0000 -10525.0045 1358.6122 0.0000 0.0000 1669.5517 -7477.4098 286.3032 -9146.9614 -7419.4665 298.9574 -395.5539 -379.6777 29980.0858 -10.0437 51.5664
ENERGY: 1500000 4.5677 7.5368 10.6091 0.0000 -10574.6865 1384.4288 0.0000 0.0000 1771.4142 -7396.1300 303.7711 -9167.5441 -7415.9183 299.4298 -372.0728 -239.7949 30177.9848 -3.3014 56.0310
TCL: Running FEP window   2: Lambda1 0.95   Lambda2 0.8999999999999999 [dLambda -0.050000000000000044]
TCL: Setting parameter firsttimestep to 0
TCL: Setting parameter alchLambda to 0.95
Info: NONBONDED TABLE R-SQUARED SPACING: 0.0625
Info: NONBONDED TABLE SIZE: 705 POINTS
TCL: Setting parameter alchLambda2 to 0.8999999999999999
Info: NONBONDED TABLE R-SQUARED SPACING: 0.0625
Info: NONBONDED TABLE SIZE: 705 POINTS
TCL: Running for 1500000 steps
ETITLE: TS BOND ANGLE DIHED IMPRP ELECT VDW BOUNDARY MISC KINETIC TOTAL TEMP POTENTIAL TOTALAVG TEMPAVG PRESSURE GPRESSURE VOLUME PRESSAVG GPRESSAVG
ENERGY: 0 4.5677 7.5368 10.6091 0.0000 -10571.6235 1383.2382 0.0000 0.0000 1770.5541 -7395.1177 303.6236 -9165.6718 -7395.1177 303.6236 -361.5421 -265.5658 30177.9848 -361.5421 -265.5658
ENERGY: 300000 6.7996 12.8995 5.6370 0.0000 -10699.0317 1522.7938 0.0000 0.0000 1714.7723 -7436.1295 294.0578 -9150.9018 -7409.8230 298.3681 666.6486 701.2536 30299.1987 -51.8052 -18.4956
ENERGY: 600000 6.3684 7.8903 7.0169 0.0000 -10663.9097 1418.5124 0.0000 0.0000 1700.5873 -7523.5344 291.6253 -9224.1217 -7427.9857 296.7844 30.9451 120.8756 29985.5080 -104.3198 -50.7314
ENERGY: 900000 5.2121 6.2690 7.6205 0.0000 -10774.3709 1459.5958 0.0000 0.0000 1737.5254 -7558.1481 297.9596 -9295.6735 -7440.6766 298.1229 -0.4848 61.8829 29932.9032 -22.2596 29.8329
ENERGY: 1200000 6.8869 7.8888 5.6659 0.0000 -10560.5542 1388.0323 0.0000 0.0000 1739.5459 -7412.5345 298.3061 -9152.0803 -7440.4953 297.9323 -107.1955 -64.7502 30166.5732 13.3929 66.6482
ENERGY: 1500000 4.8749 9.9937 7.4676 0.0000 -10696.9755 1488.0144 0.0000 0.0000 1829.6292 -7356.9957 313.7541 -9186.6249 -7437.5623 299.2552 901.2333 883.1002 30041.8873 105.3951 158.6021
TCL: Running FEP window   3: Lambda1 0.8999999999999999 Lambda2 0.8499999999999999 [dLambda -0.050000000000000044]
TCL: Setting parameter firsttimestep to 0
TCL: Setting parameter alchLambda to 0.8999999999999999
Info: NONBONDED TABLE R-SQUARED SPACING: 0.0625
Info: NONBONDED TABLE SIZE: 705 POINTS
TCL: Setting parameter alchLambda2 to 0.8499999999999999
Info: NONBONDED TABLE R-SQUARED SPACING: 0.0625
Info: NONBONDED TABLE SIZE: 705 POINTS
TCL: Running for 1500000 steps
ETITLE: TS BOND ANGLE DIHED IMPRP ELECT VDW BOUNDARY MISC KINETIC TOTAL TEMP POTENTIAL TOTALAVG TEMPAVG PRESSURE GPRESSURE VOLUME PRESSAVG GPRESSAVG
ENERGY: 0 4.8749 9.9937 7.4676 0.0000 -10695.2010 1487.8904 0.0000 0.0000 1828.7818 -7356.1926 313.6087 -9184.9744 -7356.1926 313.6087 799.3420 863.7307 30041.8873 799.3420 863.7307
ENERGY: 300000 4.3234 3.0360 7.8114 0.0000 -10469.2185 1337.3373 0.0000 0.0000 1762.6327 -7354.0776 302.2652 -9116.7104 -7351.9891 305.7944 -697.9355 -664.9671 30746.1994 136.8680 178.6494
ENERGY: 600000 5.2114 7.3332 4.1186 0.0000 -10658.8457 1469.4024 0.0000 0.0000 1826.7388 -7346.0414 313.2584 -9172.7802 -7339.6010 307.5267 811.4696 862.9317 29940.6078 138.7191 176.4545
ENERGY: 900000 4.4480 7.0386 10.7771 0.0000 -10692.0720 1445.4793 0.0000 0.0000 1746.2464 -7478.0826 299.4552 -9224.3290 -7368.4555 305.5479 18.0231 40.8778 30087.2971 209.0320 250.5534
ENERGY: 1200000 3.2601 10.5329 8.2845 0.0000 -10629.1096 1454.8917 0.0000 0.0000 1752.5732 -7399.5673 300.5401 -9152.1405 -7376.2691 304.2865 315.7936 376.4243 30061.1477 224.6269 275.1774
ENERGY: 1500000 12.3354 7.0478 8.0186 0.0000 -10552.9264 1388.3903 0.0000 0.0000 1778.7758 -7358.3585 305.0335 -9137.1343 -7385.4896 303.5780 -370.3603 -312.7455 30294.5508 91.4057 143.6237
TCL: Running FEP window   4: Lambda1 0.8499999999999999 Lambda2 0.7999999999999998 [dLambda -0.050000000000000044]
TCL: Setting parameter firsttimestep to 0
TCL: Setting parameter alchLambda to 0.8499999999999999
Info: NONBONDED TABLE R-SQUARED SPACING: 0.0625
Info: NONBONDED TABLE SIZE: 705 POINTS
TCL: Setting parameter alchLambda2 to 0.7999999999999998
Info: NONBONDED TABLE R-SQUARED SPACING: 0.0625
Info: NONBONDED TABLE SIZE: 705 POINTS
TCL: Running for 1500000 steps
ETITLE: TS BOND ANGLE DIHED IMPRP ELECT VDW BOUNDARY MISC KINETIC TOTAL TEMP POTENTIAL TOTALAVG TEMPAVG PRESSURE GPRESSURE VOLUME PRESSAVG GPRESSAVG
ENERGY: 0 12.3353 7.0478 8.0186 0.0000 -10551.0160 1388.2344 0.0000 0.0000 1777.9460 -7357.4339 304.8912 -9135.3799 -7357.4339 304.8912 -409.6922 -327.1260 30294.5508 -409.6922 -327.1260
ENERGY: 300000 9.5070 7.5828 6.5231 0.0000 -10540.9111 1396.8822 0.0000 0.0000 1740.0835 -7380.3324 298.3983 -9120.4160 -7403.9071 301.1109 -14.7980 77.6050 30090.8168 -331.3480 -274.4794
ENERGY: 600000 10.0270 4.6374 5.9259 0.0000 -10610.6585 1394.6809 0.0000 0.0000 1750.8056 -7444.5818 300.2370 -9195.3874 -7406.8268 303.6325 -539.4984 -507.0719 30486.5746 -38.7183 18.6732
ENERGY: 900000 5.6450 9.8738 10.1902 0.0000 -10500.3946 1361.6064 0.0000 0.0000 1820.7022 -7292.3770 312.2232 -9113.0792 -7397.8010 302.4787 -550.5456 -497.0414 30351.0268 -53.1285 2.3319
ENERGY: 1200000 5.3439 11.0807 7.1919 0.0000 -10534.4937 1437.3973 0.0000 0.0000 1751.7225 -7321.7574 300.3942 -9073.4799 -7381.1136 302.1011 495.6682 530.7178 29938.5424 -99.3782 -41.7038
ENERGY: 1500000 6.7168 8.8875 9.2650 0.0000 -10503.1949 1362.3395 0.0000 0.0000 1769.7596 -7346.2264 303.4873 -9115.9860 -7388.0977 302.0897 -614.6102 -540.9431 30440.7622 -77.0269 -23.2412
TCL: Running FEP window   5: Lambda1 0.7999999999999998 Lambda2 0.7499999999999998 [dLambda -0.050000000000000044]
TCL: Setting parameter firsttimestep to 0
TCL: Setting parameter alchLambda to 0.7999999999999998
Info: NONBONDED TABLE R-SQUARED SPACING: 0.0625
Info: NONBONDED TABLE SIZE: 705 POINTS
TCL: Setting parameter alchLambda2 to 0.7499999999999998
Info: NONBONDED TABLE R-SQUARED SPACING: 0.0625
Info: NONBONDED TABLE SIZE: 705 POINTS
TCL: Running for 1500000 steps
ETITLE: TS BOND ANGLE DIHED IMPRP ELECT VDW BOUNDARY MISC KINETIC TOTAL TEMP POTENTIAL TOTALAVG TEMPAVG PRESSURE GPRESSURE VOLUME PRESSAVG GPRESSAVG
ENERGY: 0 6.7168 8.8875 9.2650 0.0000 -10500.9709 1362.6867 0.0000 0.0000 1768.8514 -7344.5634 303.3316 -9113.4148 -7344.5634 303.3316 -627.6081 -548.5688 30440.7622 -627.6081 -548.5688
ENERGY: 300000 4.0693 6.7891 7.8724 0.0000 -10565.9389 1394.9735 0.0000 0.0000 1730.0882 -7422.1464 296.6843 -9152.2345 -7405.2146 300.1930 -49.3133 28.2475 30139.1164 -64.3984 -12.6795
ENERGY: 600000 5.9011 8.4758 7.3953 0.0000 -10635.9074 1409.4422 0.0000 0.0000 1763.4668 -7441.2261 302.4082 -9204.6929 -7419.1859 300.0969 -255.6998 -252.0923 30149.5546 87.8118 139.3119
ENERGY: 900000 7.6746 7.3820 5.9860 0.0000 -10600.9002 1393.4502 0.0000 0.0000 1721.2019 -7465.2056 295.1604 -9186.4075 -7414.7699 299.7950 -550.6820 -460.8162 30305.4821 -23.2483 39.5772
ENERGY: 1200000 5.7060 8.3598 10.0450 0.0000 -10594.2838 1407.3199 0.0000 0.0000 1791.4382 -7371.4150 307.2049 -9162.8532 -7407.3563 301.1933 -287.4778 -245.1603 30592.9176 -141.6221 -81.7719
ENERGY: 1500000 3.6585 6.6107 8.7224 0.0000 -10660.8713 1428.3310 0.0000 0.0000 1780.5524 -7432.9962 305.3381 -9213.5487 -7406.1984 300.9410 -71.9274 -0.0210 30357.5485 -191.5103 -124.9452
TCL: Running FEP window   6: Lambda1 0.7499999999999998 Lambda2 0.6999999999999997 [dLambda -0.050000000000000044]
TCL: Setting parameter firsttimestep to 0
TCL: Setting parameter alchLambda to 0.7499999999999998
Info: NONBONDED TABLE R-SQUARED SPACING: 0.0625
Info: NONBONDED TABLE SIZE: 705 POINTS
TCL: Setting parameter alchLambda2 to 0.6999999999999997
Info: NONBONDED TABLE R-SQUARED SPACING: 0.0625
Info: NONBONDED TABLE SIZE: 705 POINTS
TCL: Running for 1500000 steps
ETITLE: TS BOND ANGLE DIHED IMPRP ELECT VDW BOUNDARY MISC KINETIC TOTAL TEMP POTENTIAL TOTALAVG TEMPAVG PRESSURE GPRESSURE VOLUME PRESSAVG GPRESSAVG
ENERGY: 0 3.6585 6.6107 8.7224 0.0000 -10658.4009 1427.7811 0.0000 0.0000 1779.6912 -7431.9370 305.1904 -9211.6282 -7431.9370 305.1904 -91.7930 -14.1607 30357.5485 -91.7930 -14.1607
ENERGY: 300000 4.5420 9.0361 9.0365 0.0000 -10553.5126 1496.6809 0.0000 0.0000 1719.5917 -7314.6254 294.8843 -9034.2171 -7405.6861 302.5430 822.7760 850.1305 30167.1570 537.7465 586.5802
ENERGY: 600000 4.9008 7.8168 5.7855 0.0000 -10562.1664 1409.4699 0.0000 0.0000 1736.5799 -7397.6135 297.7975 -9134.1935 -7383.5022 302.3922 -106.0456 -51.9446 30053.7347 433.7953 495.5415
ENERGY: 900000 7.0078 9.8149 7.7545 0.0000 -10607.5836 1422.6910 0.0000 0.0000 1732.4557 -7427.8597 297.0903 -9160.3154 -7396.7024 300.4315 -178.3768 -145.9389 29946.0850 223.0083 285.2662
ENERGY: 1200000 5.0907 8.0974 5.7011 0.0000 -10568.6450 1382.1563 0.0000 0.0000 1714.3560 -7453.2435 293.9864 -9167.5995 -7406.4210 300.6203 -390.7919 -285.7256 29887.0280 171.3849 240.0221
ENERGY: 1500000 5.2756 6.5400 5.8614 0.0000 -10569.7440 1429.9159 0.0000 0.0000 1709.3772 -7412.7739 293.1326 -9122.1512 -7412.2737 299.2381 -55.6018 14.3805 30451.7412 120.3814 190.4707
TCL: Running FEP window   7: Lambda1 0.6999999999999997 Lambda2 0.6499999999999997 [dLambda -0.050000000000000044]
TCL: Setting parameter firsttimestep to 0
TCL: Setting parameter alchLambda to 0.6999999999999997
Info: NONBONDED TABLE R-SQUARED SPACING: 0.0625
Info: NONBONDED TABLE SIZE: 705 POINTS
TCL: Setting parameter alchLambda2 to 0.6499999999999997
Info: NONBONDED TABLE R-SQUARED SPACING: 0.0625
Info: NONBONDED TABLE SIZE: 705 POINTS
TCL: Running for 1500000 steps
ETITLE: TS BOND ANGLE DIHED IMPRP ELECT VDW BOUNDARY MISC KINETIC TOTAL TEMP POTENTIAL TOTALAVG TEMPAVG PRESSURE GPRESSURE VOLUME PRESSAVG GPRESSAVG
ENERGY: 0 5.2756 6.5400 5.8614 0.0000 -10567.4155 1430.6948 0.0000 0.0000 1708.5015 -7410.5423 292.9825 -9119.0438 -7410.5423 292.9825 -59.9243 14.2987 30451.7412 -59.9243 14.2987
ENERGY: 300000 4.1538 8.7036 9.2132 0.0000 -10452.6465 1320.7183 0.0000 0.0000 1777.5571 -7332.3005 304.8245 -9109.8576 -7373.3844 302.0678 -733.9167 -680.1792 30475.3515 -424.4760 -347.1876
ENERGY: 600000 6.4171 9.3304 10.4244 0.0000 -10656.4070 1412.7367 0.0000 0.0000 1751.8336 -7465.6648 300.4133 -9217.4984 -7395.0913 301.3351 100.1882 135.9532 29898.1921 -243.6373 -174.4099
ENERGY: 900000 3.3454 6.5358 7.3495 0.0000 -10502.1543 1399.6490 0.0000 0.0000 1699.4824 -7385.7922 291.4358 -9085.2746 -7398.6483 301.2164 94.5846 179.4121 30040.5974 -324.8359 -250.6570
ENERGY: 1200000 6.4948 7.4104 7.8352 0.0000 -10544.5982 1436.2144 0.0000 0.0000 1748.9109 -7337.7325 299.9121 -9086.6434 -7399.2151 301.3800 164.4004 241.2038 30541.9358 -249.7654 -170.7033
ENERGY: 1500000 4.5208 6.9308 9.1205 0.0000 -10627.9568 1401.8031 0.0000 0.0000 1757.6056 -7447.9760 301.4031 -9205.5815 -7408.0146 300.2419 -289.1625 -208.5178 29919.5843 -246.2938 -166.7815
TCL: Running FEP window   8: Lambda1 0.6499999999999997 Lambda2 0.5999999999999996 [dLambda -0.050000000000000044]
TCL: Setting parameter firsttimestep to 0
TCL: Setting parameter alchLambda to 0.6499999999999997
Info: NONBONDED TABLE R-SQUARED SPACING: 0.0625
Info: NONBONDED TABLE SIZE: 705 POINTS
TCL: Setting parameter alchLambda2 to 0.5999999999999996
Info: NONBONDED TABLE R-SQUARED SPACING: 0.0625
Info: NONBONDED TABLE SIZE: 705 POINTS
TCL: Running for 1500000 steps
ETITLE: TS BOND ANGLE DIHED IMPRP ELECT VDW BOUNDARY MISC KINETIC TOTAL TEMP POTENTIAL TOTALAVG TEMPAVG PRESSURE GPRESSURE VOLUME PRESSAVG GPRESSAVG
ENERGY: 0 4.5208 6.9308 9.1205 0.0000 -10627.0548 1402.0535 0.0000 0.0000 1756.7539 -7447.6752 301.2570 -9204.4291 -7447.6752 301.2570 -305.4476 -218.0220 29919.5843 -305.4476 -218.0220
ENERGY: 300000 6.2594 8.3351 8.3356 0.0000 -10494.2285 1427.0417 0.0000 0.0000 1747.9602 -7296.2965 299.7491 -9044.2567 -7352.3634 302.9517 79.6088 139.4925 30723.1798 225.5150 292.5547
ENERGY: 600000 3.5706 4.8977 8.7945 0.0000 -10710.3115 1465.1120 0.0000 0.0000 1785.9724 -7441.9643 306.2676 -9227.9367 -7368.4119 302.7406 278.8061 378.9566 29765.6269 150.0497 218.3812
ENERGY: 900000 5.3301 10.4158 9.7105 0.0000 -10537.1542 1403.4849 0.0000 0.0000 1700.5879 -7407.6249 291.6254 -9108.2128 -7384.2657 301.3669 -195.9297 -155.6343 30415.0047 67.9956 122.9927
ENERGY: 1200000 6.2330 12.4968 13.1980 0.0000 -10553.6084 1419.5584 0.0000 0.0000 1773.4275 -7328.6946 304.1163 -9102.1221 -7384.7745 300.7440 -115.5722 -103.1731 30326.2718 14.2753 64.5304
ENERGY: 1500000 5.1137 9.9032 10.2327 0.0000 -10716.7542 1442.5301 0.0000 0.0000 1720.0723 -7528.9021 294.9667 -9248.9744 -7393.4530 300.2056 367.9795 506.5191 29376.1613 -26.2038 31.7227
TCL: Running FEP window   9: Lambda1 0.5999999999999996 Lambda2 0.5499999999999996 [dLambda -0.050000000000000044]
TCL: Setting parameter firsttimestep to 0
TCL: Setting parameter alchLambda to 0.5999999999999996
Info: NONBONDED TABLE R-SQUARED SPACING: 0.0625
Info: NONBONDED TABLE SIZE: 705 POINTS
TCL: Setting parameter alchLambda2 to 0.5499999999999996
Info: NONBONDED TABLE R-SQUARED SPACING: 0.0625
Info: NONBONDED TABLE SIZE: 705 POINTS
TCL: Running for 1500000 steps
ETITLE: TS BOND ANGLE DIHED IMPRP ELECT VDW BOUNDARY MISC KINETIC TOTAL TEMP POTENTIAL TOTALAVG TEMPAVG PRESSURE GPRESSURE VOLUME PRESSAVG GPRESSAVG
ENERGY: 0 5.1137 9.9032 10.2327 0.0000 -10715.8984 1442.2334 0.0000 0.0000 1719.2009 -7529.2145 294.8173 -9248.4153 -7529.2145 294.8173 406.6885 491.7078 29376.1613 406.6885 491.7078
ENERGY: 300000 5.2187 6.7457 9.6649 0.0000 -10632.2594 1441.1919 0.0000 0.0000 1782.2413 -7387.1969 305.6277 -9169.4382 -7435.0316 298.5767 231.4180 321.4079 29952.9543 152.7276 224.7645
ENERGY: 600000 5.5530 6.7199 9.4808 0.0000 -10558.7066 1407.2156 0.0000 0.0000 1718.7793 -7410.9580 294.7450 -9129.7373 -7409.7875 299.9913 -91.5840 -35.8625 29955.1941 112.1553 161.6547
ENERGY: 900000 5.8174 7.7607 9.7646 0.0000 -10542.9990 1356.4741 0.0000 0.0000 1777.8891 -7385.2932 304.8814 -9163.1823 -7389.2588 301.2394 -334.0951 -257.6950 30007.4998 144.4231 200.0193
ENERGY: 1200000 7.7865 10.5057 10.1531 0.0000 -10666.3661 1495.7307 0.0000 0.0000 1725.8377 -7416.3524 295.9554 -9142.1901 -7396.7758 300.2817 390.0164 514.8379 30371.5958 102.5871 158.6104
ENERGY: 1500000 4.2574 9.3471 5.7887 0.0000 -10699.8156 1447.4810 0.0000 0.0000 1768.5328 -7464.4086 303.2769 -9232.9414 -7401.7081 300.5078 326.8557 427.8291 29732.4775 93.4199 156.3831
TCL: Running FEP window  10: Lambda1 0.5499999999999996 Lambda2 0.4999999999999996 [dLambda -0.04999999999999999]
TCL: Setting parameter firsttimestep to 0
TCL: Setting parameter alchLambda to 0.5499999999999996
Info: NONBONDED TABLE R-SQUARED SPACING: 0.0625
Info: NONBONDED TABLE SIZE: 705 POINTS
TCL: Setting parameter alchLambda2 to 0.4999999999999996
Info: NONBONDED TABLE R-SQUARED SPACING: 0.0625
Info: NONBONDED TABLE SIZE: 705 POINTS
TCL: Running for 1500000 steps
ETITLE: TS BOND ANGLE DIHED IMPRP ELECT VDW BOUNDARY MISC KINETIC TOTAL TEMP POTENTIAL TOTALAVG TEMPAVG PRESSURE GPRESSURE VOLUME PRESSAVG GPRESSAVG
ENERGY: 0 4.2574 9.3470 5.7887 0.0000 -10698.6166 1447.8352 0.0000 0.0000 1767.6947 -7463.6936 303.1332 -9231.3883 -7463.6936 303.1332 344.4011 424.1866 29732.4775 344.4011 424.1866
ENERGY: 300000 3.6477 7.1570 7.1406 0.0000 -10662.3390 1420.9477 0.0000 0.0000 1716.6996 -7506.7463 294.3883 -9223.4459 -7407.5730 300.3285 -179.6538 -98.2255 29666.3808 -197.9914 -124.9585
ENERGY: 600000 6.6884 7.7121 9.8087 0.0000 -10564.3330 1392.9554 0.0000 0.0000 1721.5707 -7425.5978 295.2236 -9147.1685 -7404.5507 301.5252 -729.7347 -687.8815 30595.3209 -3.7926 60.5207
ENERGY: 900000 5.0517 9.2306 15.5542 0.0000 -10756.3913 1492.6583 0.0000 0.0000 1736.7510 -7497.1455 297.8268 -9233.8965 -7401.1918 301.7860 140.2971 194.5690 29987.1216 71.9599 125.9377
ENERGY: 1200000 7.0362 10.7095 4.9073 0.0000 -10564.4539 1442.1262 0.0000 0.0000 1763.4610 -7336.2137 302.4072 -9099.6747 -7409.6844 300.8380 171.3886 209.3392 30419.3833 89.0847 144.8976
ENERGY: 1500000 3.7625 6.7130 8.9497 0.0000 -10595.0888 1430.4310 0.0000 0.0000 1724.2908 -7420.9418 295.6901 -9145.2326 -7405.4586 300.9075 196.0053 246.4704 29639.9351 96.2518 149.3707
TCL: Running FEP window  11: Lambda1 0.4999999999999996 Lambda2 0.4499999999999996 [dLambda -0.04999999999999999]
TCL: Setting parameter firsttimestep to 0
TCL: Setting parameter alchLambda to 0.4999999999999996
Info: NONBONDED TABLE R-SQUARED SPACING: 0.0625
Info: NONBONDED TABLE SIZE: 705 POINTS
TCL: Setting parameter alchLambda2 to 0.4499999999999996
Info: NONBONDED TABLE R-SQUARED SPACING: 0.0625
Info: NONBONDED TABLE SIZE: 705 POINTS
TCL: Running for 1500000 steps
ETITLE: TS BOND ANGLE DIHED IMPRP ELECT VDW BOUNDARY MISC KINETIC TOTAL TEMP POTENTIAL TOTALAVG TEMPAVG PRESSURE GPRESSURE VOLUME PRESSAVG GPRESSAVG
ENERGY: 0 3.7625 6.7130 8.9497 0.0000 -10595.6276 1430.9925 0.0000 0.0000 1723.4494 -7421.7605 295.5458 -9145.2099 -7421.7605 295.5458 158.3592 234.8652 29639.9351 158.3592 234.8652
ENERGY: 300000 3.8856 12.5807 9.6234 0.0000 -10516.0638 1377.6604 0.0000 0.0000 1737.7447 -7374.5690 297.9972 -9112.3137 -7415.7199 294.9517 -49.2673 62.2058 29689.4939 -66.0685 18.8785
ENERGY: 600000 4.1376 8.0482 4.9824 0.0000 -10443.0471 1329.5723 0.0000 0.0000 1773.9044 -7322.4022 304.1981 -9096.3066 -7391.7456 299.3742 -676.5512 -628.2327 30144.4680 -221.2940 -143.4184
ENERGY: 900000 8.8614 12.8789 7.5851 0.0000 -10603.8901 1364.2514 0.0000 0.0000 1745.7832 -7464.5301 299.3757 -9210.3133 -7406.0052 299.1274 -638.2553 -544.6112 29858.4206 -152.9653 -78.1869
ENERGY: 1200000 8.1950 5.7540 6.4640 0.0000 -10546.6825 1397.4386 0.0000 0.0000 1699.5982 -7429.2328 291.4557 -9128.8310 -7413.1209 297.2818 -230.0549 -91.4487 29575.7499 -214.7254 -136.9126
ENERGY: 1500000 5.0341 8.0665 5.6873 0.0000 -10569.2982 1344.8656 0.0000 0.0000 1787.2245 -7418.4202 306.4823 -9205.6447 -7410.9894 297.8304 -767.9859 -682.8730 29964.8479 -179.6078 -103.7498
TCL: Running FEP window  12: Lambda1 0.4499999999999996 Lambda2 0.39999999999999963 [dLambda -0.04999999999999999]
TCL: Setting parameter firsttimestep to 0
TCL: Setting parameter alchLambda to 0.4499999999999996
Info: NONBONDED TABLE R-SQUARED SPACING: 0.0625
Info: NONBONDED TABLE SIZE: 705 POINTS
TCL: Setting parameter alchLambda2 to 0.39999999999999963
Info: NONBONDED TABLE R-SQUARED SPACING: 0.0625
Info: NONBONDED TABLE SIZE: 705 POINTS
TCL: Running for 1500000 steps
ETITLE: TS BOND ANGLE DIHED IMPRP ELECT VDW BOUNDARY MISC KINETIC TOTAL TEMP POTENTIAL TOTALAVG TEMPAVG PRESSURE GPRESSURE VOLUME PRESSAVG GPRESSAVG
ENERGY: 0 5.0341 8.0664 5.6873 0.0000 -10569.2980 1344.7799 0.0000 0.0000 1786.3420 -7419.3882 306.3309 -9205.7301 -7419.3882 306.3309 -761.2452 -693.3517 29964.8479 -761.2452 -693.3517
ENERGY: 300000 4.8495 11.2168 8.1882 0.0000 -10478.6915 1365.8916 0.0000 0.0000 1767.9534 -7320.5920 303.1776 -9088.5453 -7401.6183 299.0172 -590.7265 -555.8501 30582.0274 -315.0556 -270.2726
ENERGY: 600000 6.8444 9.0763 12.2606 0.0000 -10730.8064 1514.9053 0.0000 0.0000 1768.2552 -7419.4646 303.2293 -9187.7198 -7406.0919 300.2597 781.6653 824.7351 29632.5807 -11.8014 37.4176
ENERGY: 900000 5.4965 12.7942 6.5042 0.0000 -10585.1186 1428.1821 0.0000 0.0000 1710.8760 -7421.2656 293.3897 -9132.1416 -7421.2511 298.3512 -319.6854 -294.6246 30311.2379 -48.4568 0.7953
ENERGY: 1200000 7.7099 7.8292 7.9837 0.0000 -10574.0803 1420.5273 0.0000 0.0000 1726.2816 -7403.7484 296.0315 -9130.0301 -7419.1958 298.2397 -21.2642 -15.5974 29997.2671 -48.6872 -8.0654
ENERGY: 1500000 3.2227 7.4236 4.7888 0.0000 -10564.2115 1445.0499 0.0000 0.0000 1809.3133 -7294.4132 310.2702 -9103.7265 -7405.8734 299.8279 582.3395 594.3341 29946.5293 49.9547 94.2319
TCL: Running FEP window  13: Lambda1 0.39999999999999963 Lambda2 0.34999999999999964 [dLambda -0.04999999999999999]
TCL: Setting parameter firsttimestep to 0
TCL: Setting parameter alchLambda to 0.39999999999999963
Info: NONBONDED TABLE R-SQUARED SPACING: 0.0625
Info: NONBONDED TABLE SIZE: 705 POINTS
TCL: Setting parameter alchLambda2 to 0.34999999999999964
Info: NONBONDED TABLE R-SQUARED SPACING: 0.0625
Info: NONBONDED TABLE SIZE: 705 POINTS
TCL: Running for 1500000 steps
ETITLE: TS BOND ANGLE DIHED IMPRP ELECT VDW BOUNDARY MISC KINETIC TOTAL TEMP POTENTIAL TOTALAVG TEMPAVG PRESSURE GPRESSURE VOLUME PRESSAVG GPRESSAVG
ENERGY: 0 3.2227 7.4236 4.7888 0.0000 -10564.2127 1445.6489 0.0000 0.0000 1808.4541 -7294.6746 310.1229 -9103.1287 -7294.6746 310.1229 503.3740 592.0411 29946.5293 503.3740 592.0411
ENERGY: 300000 7.6316 12.2919 5.1777 0.0000 -10676.1982 1496.4565 0.0000 0.0000 1687.0414 -7467.5993 289.3024 -9154.6407 -7384.8503 301.5537 604.1941 673.3443 30081.2526 241.3138 364.1775
ENERGY: 600000 2.5647 11.7133 8.9782 0.0000 -10620.1497 1502.6365 0.0000 0.0000 1722.6516 -7371.6054 295.4090 -9094.2570 -7389.1940 301.0352 861.9683 919.4859 29840.8925 189.9535 290.6533
ENERGY: 900000 4.3572 7.9847 6.4372 0.0000 -10713.4344 1516.2847 0.0000 0.0000 1762.5365 -7415.8340 302.2487 -9178.3706 -7396.8380 301.6769 813.8319 942.9607 29721.8191 276.0015 375.9555
ENERGY: 1200000 5.0461 7.5428 9.9788 0.0000 -10516.1386 1375.7194 0.0000 0.0000 1728.9029 -7388.9487 296.4810 -9117.8516 -7397.1514 300.4177 -531.0752 -456.2199 30412.3544 209.6772 299.6382
ENERGY: 1500000 3.6125 7.1286 4.0660 0.0000 -10544.0681 1385.3738 0.0000 0.0000 1774.3811 -7369.5061 304.2798 -9143.8872 -7396.4330 301.4318 -117.5511 -60.2650 29659.5972 173.4457 258.4959
TCL: Running FEP window  14: Lambda1 0.34999999999999964 Lambda2 0.29999999999999966 [dLambda -0.04999999999999999]
TCL: Setting parameter firsttimestep to 0
TCL: Setting parameter alchLambda to 0.34999999999999964
Info: NONBONDED TABLE R-SQUARED SPACING: 0.0625
Info: NONBONDED TABLE SIZE: 705 POINTS
TCL: Setting parameter alchLambda2 to 0.29999999999999966
Info: NONBONDED TABLE R-SQUARED SPACING: 0.0625
Info: NONBONDED TABLE SIZE: 705 POINTS
TCL: Running for 1500000 steps
ETITLE: TS BOND ANGLE DIHED IMPRP ELECT VDW BOUNDARY MISC KINETIC TOTAL TEMP POTENTIAL TOTALAVG TEMPAVG PRESSURE GPRESSURE VOLUME PRESSAVG GPRESSAVG
ENERGY: 0 3.6125 7.1286 4.0660 0.0000 -10544.0683 1386.1827 0.0000 0.0000 1773.4887 -7369.5898 304.1268 -9143.0785 -7369.5898 304.1268 -147.5527 -64.2187 29659.5972 -147.5527 -64.2187
ENERGY: 300000 3.5365 2.5453 8.2207 0.0000 -10559.4595 1388.8487 0.0000 0.0000 1733.4753 -7422.8329 297.2651 -9156.3082 -7420.7091 299.1819 -627.5673 -552.9556 30466.1647 -130.0025 -76.6629
ENERGY: 600000 5.1811 13.1002 9.0282 0.0000 -10528.4768 1330.0886 0.0000 0.0000 1685.7031 -7485.3756 289.0729 -9171.0787 -7436.4768 295.3490 -683.3524 -587.6031 29880.4808 -186.9781 -126.5744
ENERGY: 900000 7.8611 7.1979 4.2566 0.0000 -10490.7365 1359.1631 0.0000 0.0000 1729.0773 -7383.1805 296.5109 -9112.2578 -7423.1304 295.4403 -745.8580 -633.2886 30441.4153 -167.5429 -101.6874
ENERGY: 1200000 8.3222 13.1167 6.2819 0.0000 -10677.1537 1473.1512 0.0000 0.0000 1715.6334 -7460.6482 294.2055 -9176.2817 -7420.4977 296.8228 39.2556 101.4210 29981.9618 -90.9650 -26.8348
ENERGY: 1500000 4.0722 8.7755 13.4037 0.0000 -10388.6638 1338.5886 0.0000 0.0000 1707.1425 -7316.6812 292.7494 -9023.8236 -7419.3998 296.5538 -556.5562 -454.3389 30537.3346 2.7432 66.5405
TCL: Running FEP window  15: Lambda1 0.29999999999999966 Lambda2 0.24999999999999967 [dLambda -0.04999999999999999]
TCL: Setting parameter firsttimestep to 0
TCL: Setting parameter alchLambda to 0.29999999999999966
Info: NONBONDED TABLE R-SQUARED SPACING: 0.0625
Info: NONBONDED TABLE SIZE: 705 POINTS
TCL: Setting parameter alchLambda2 to 0.24999999999999967
Info: NONBONDED TABLE R-SQUARED SPACING: 0.0625
Info: NONBONDED TABLE SIZE: 705 POINTS
TCL: Running for 1500000 steps
ETITLE: TS BOND ANGLE DIHED IMPRP ELECT VDW BOUNDARY MISC KINETIC TOTAL TEMP POTENTIAL TOTALAVG TEMPAVG PRESSURE GPRESSURE VOLUME PRESSAVG GPRESSAVG
ENERGY: 0 4.0722 8.7755 13.4037 0.0000 -10388.6632 1338.9844 0.0000 0.0000 1706.2880 -7317.1393 292.6029 -9023.4273 -7317.1393 292.6029 -556.4360 -457.9416 30537.3346 -556.4360 -457.9416
ENERGY: 300000 2.9489 5.6298 5.8472 0.0000 -10522.0654 1376.1643 0.0000 0.0000 1748.9041 -7382.5711 299.9109 -9131.4752 -7380.8756 296.9246 -221.5730 -110.7400 29793.9493 -327.4458 -250.9127
ENERGY: 600000 3.9034 9.5825 6.6100 0.0000 -10603.7174 1445.0451 0.0000 0.0000 1745.7494 -7392.8270 299.3699 -9138.5764 -7395.5870 298.7554 36.4698 102.5312 30065.3885 -282.8356 -207.5347
ENERGY: 900000 2.4587 11.2941 10.2176 0.0000 -10627.1002 1438.9864 0.0000 0.0000 1780.4191 -7383.7242 305.3153 -9164.1433 -7408.3495 299.4855 43.9039 122.6148 30185.0281 -232.8549 -158.3903
ENERGY: 1200000 5.4284 11.1722 7.6693 0.0000 -10579.8113 1431.4599 0.0000 0.0000 1787.4180 -7336.6635 306.5155 -9124.0815 -7392.2029 300.9800 41.4892 140.4496 30294.2264 -239.3567 -166.6444
ENERGY: 1500000 5.2234 8.2081 6.6156 0.0000 -10505.3052 1377.7903 0.0000 0.0000 1694.6335 -7412.8343 290.6043 -9107.4678 -7394.3444 300.1679 -430.6666 -329.5455 30025.6136 -267.6890 -192.4594
TCL: Running FEP window  16: Lambda1 0.24999999999999967 Lambda2 0.19999999999999968 [dLambda -0.04999999999999999]
TCL: Setting parameter firsttimestep to 0
TCL: Setting parameter alchLambda to 0.24999999999999967
Info: NONBONDED TABLE R-SQUARED SPACING: 0.0625
Info: NONBONDED TABLE SIZE: 705 POINTS
TCL: Setting parameter alchLambda2 to 0.19999999999999968
Info: NONBONDED TABLE R-SQUARED SPACING: 0.0625
Info: NONBONDED TABLE SIZE: 705 POINTS
TCL: Running for 1500000 steps
ETITLE: TS BOND ANGLE DIHED IMPRP ELECT VDW BOUNDARY MISC KINETIC TOTAL TEMP POTENTIAL TOTALAVG TEMPAVG PRESSURE GPRESSURE VOLUME PRESSAVG GPRESSAVG
ENERGY: 0 5.2234 8.2080 6.6156 0.0000 -10505.3047 1378.2911 0.0000 0.0000 1693.7806 -7413.1860 290.4581 -9106.9666 -7413.1860 290.4581 -417.7145 -328.9660 30025.6136 -417.7145 -328.9660
ENERGY: 300000 5.6481 7.7440 6.3681 0.0000 -10632.5909 1432.3141 0.0000 0.0000 1700.6188 -7479.8979 291.6307 -9180.5167 -7430.9379 295.2424 -127.7696 -108.0012 30092.7645 -101.1742 -39.0762
ENERGY: 600000 5.6267 10.4068 7.2218 0.0000 -10602.5168 1406.1511 0.0000 0.0000 1745.0089 -7428.1013 299.2430 -9173.1103 -7419.6848 298.7829 -353.4132 -255.5117 30015.0699 -228.1831 -162.7442
ENERGY: 900000 5.4433 10.8044 8.8180 0.0000 -10607.4775 1360.3464 0.0000 0.0000 1783.4099 -7438.6557 305.8281 -9222.0655 -7426.9346 300.1835 -433.9417 -378.9450 29402.2312 -234.6390 -163.8780
ENERGY: 1200000 3.7359 7.0459 5.7444 0.0000 -10475.7542 1391.5885 0.0000 0.0000 1803.0469 -7264.5925 309.1956 -9067.6394 -7416.3987 301.3388 -315.8612 -250.3381 30499.4860 -147.0083 -89.4940
ENERGY: 1500000 5.3660 6.5362 6.4785 0.0000 -10607.5005 1407.1007 0.0000 0.0000 1759.3796 -7422.6395 301.7073 -9182.0191 -7415.8967 301.3363 -117.1345 -44.6206 29788.7818 -170.4375 -104.9441
TCL: Running FEP window  17: Lambda1 0.19999999999999968 Lambda2 0.1499999999999997 [dLambda -0.04999999999999999]
TCL: Setting parameter firsttimestep to 0
TCL: Setting parameter alchLambda to 0.19999999999999968
Info: NONBONDED TABLE R-SQUARED SPACING: 0.0625
Info: NONBONDED TABLE SIZE: 705 POINTS
TCL: Setting parameter alchLambda2 to 0.1499999999999997
Info: NONBONDED TABLE R-SQUARED SPACING: 0.0625
Info: NONBONDED TABLE SIZE: 705 POINTS
TCL: Running for 1500000 steps
ETITLE: TS BOND ANGLE DIHED IMPRP ELECT VDW BOUNDARY MISC KINETIC TOTAL TEMP POTENTIAL TOTALAVG TEMPAVG PRESSURE GPRESSURE VOLUME PRESSAVG GPRESSAVG
ENERGY: 0 5.3660 6.5362 6.4785 0.0000 -10607.5005 1406.5828 0.0000 0.0000 1758.5472 -7423.9897 301.5646 -9182.5369 -7423.9897 301.5646 -121.5336 -51.6432 29788.7818 -121.5336 -51.6432
ENERGY: 300000 8.7413 11.8647 7.8218 0.0000 -10550.9086 1327.3007 0.0000 0.0000 1789.5272 -7405.6529 306.8772 -9195.1801 -7423.1626 298.9483 -903.7492 -853.2013 30164.0952 -258.8505 -208.5132
ENERGY: 600000 5.4854 6.4771 7.5529 0.0000 -10414.4241 1333.9311 0.0000 0.0000 1764.3324 -7296.6452 302.5566 -9060.9776 -7407.8222 300.8851 -579.7424 -483.5498 30231.3044 -250.5820 -177.3061
ENERGY: 900000 6.6060 10.0028 9.3697 0.0000 -10682.1754 1427.8381 0.0000 0.0000 1765.6744 -7462.6844 302.7868 -9228.3588 -7414.2187 299.8567 75.9759 98.0109 29698.2615 -58.4486 7.8304
ENERGY: 1200000 2.0436 8.7323 11.0348 0.0000 -10702.5968 1529.0489 0.0000 0.0000 1779.3071 -7372.4301 305.1246 -9151.7372 -7422.3830 299.8692 865.9676 917.8281 29927.4700 -112.2206 -46.7601
ENERGY: 1500000 4.9852 5.1526 9.5757 0.0000 -10518.6782 1357.0488 0.0000 0.0000 1725.7148 -7416.2011 295.9343 -9141.9159 -7427.7093 299.4218 -621.3671 -558.8065 30227.4509 -162.3263 -100.6839
TCL: Running FEP window  18: Lambda1 0.1499999999999997 Lambda2 0.09999999999999969 [dLambda -0.05 ]
TCL: Setting parameter firsttimestep to 0
TCL: Setting parameter alchLambda to 0.1499999999999997
Info: NONBONDED TABLE R-SQUARED SPACING: 0.0625
Info: NONBONDED TABLE SIZE: 705 POINTS
TCL: Setting parameter alchLambda2 to 0.09999999999999969
Info: NONBONDED TABLE R-SQUARED SPACING: 0.0625
Info: NONBONDED TABLE SIZE: 705 POINTS
TCL: Running for 1500000 steps
ETITLE: TS BOND ANGLE DIHED IMPRP ELECT VDW BOUNDARY MISC KINETIC TOTAL TEMP POTENTIAL TOTALAVG TEMPAVG PRESSURE GPRESSURE VOLUME PRESSAVG GPRESSAVG
ENERGY: 0 4.9851 5.1526 9.5757 0.0000 -10518.6777 1356.9247 0.0000 0.0000 1724.8233 -7417.2163 295.7814 -9142.0396 -7417.2163 295.7814 -639.7411 -566.6535 30227.4509 -639.7411 -566.6535
ENERGY: 300000 8.5608 5.0919 7.6380 0.0000 -10506.7947 1420.9573 0.0000 0.0000 1747.3949 -7317.1517 299.6521 -9064.5467 -7346.5850 299.1554 -184.5307 -53.1700 30309.6678 -163.7790 -97.2997
ENERGY: 600000 6.6526 10.3062 9.6317 0.0000 -10568.5002 1383.0600 0.0000 0.0000 1761.9277 -7396.9219 302.1443 -9158.8496 -7371.4838 299.5761 47.7014 115.7296 29367.2446 187.8763 260.1035
ENERGY: 900000 5.4935 8.6539 7.7193 0.0000 -10739.7246 1519.2775 0.0000 0.0000 1839.5566 -7359.0238 315.4565 -9198.5804 -7371.6037 301.9342 976.0040 974.4455 29526.7095 181.2066 252.8914
ENERGY: 1200000 3.8418 10.0883 4.6196 0.0000 -10453.6850 1309.5415 0.0000 0.0000 1749.4977 -7376.0961 300.0127 -9125.5939 -7385.6732 301.0350 -943.8463 -945.3915 30221.1829 2.0097 75.9135
ENERGY: 1500000 7.7427 10.2425 5.8884 0.0000 -10526.7634 1352.4023 0.0000 0.0000 1765.3308 -7385.1566 302.7279 -9150.4875 -7390.6543 301.6472 -963.6020 -879.5033 30564.1158 -76.7641 -5.1380
TCL: Running FEP window  19: Lambda1 0.09999999999999969 Lambda2 0.049999999999999684 [dLambda -0.05 ]
TCL: Setting parameter firsttimestep to 0
TCL: Setting parameter alchLambda to 0.09999999999999969
Info: NONBONDED TABLE R-SQUARED SPACING: 0.0625
Info: NONBONDED TABLE SIZE: 705 POINTS
TCL: Setting parameter alchLambda2 to 0.049999999999999684
Info: NONBONDED TABLE R-SQUARED SPACING: 0.0625
Info: NONBONDED TABLE SIZE: 705 POINTS
TCL: Running for 1500000 steps
ETITLE: TS BOND ANGLE DIHED IMPRP ELECT VDW BOUNDARY MISC KINETIC TOTAL TEMP POTENTIAL TOTALAVG TEMPAVG PRESSURE GPRESSURE VOLUME PRESSAVG GPRESSAVG
ENERGY: 0 7.7427 10.2425 5.8884 0.0000 -10526.7626 1352.7247 0.0000 0.0000 1764.4719 -7385.6924 302.5806 -9150.1643 -7385.6924 302.5806 -972.8657 -883.7055 30564.1158 -972.8657 -883.7055
ENERGY: 300000 5.1738 10.3579 5.0185 0.0000 -10574.5821 1437.8351 0.0000 0.0000 1693.4546 -7422.7422 290.4021 -9116.1968 -7401.5813 297.6832 -97.9337 -61.2277 30239.7559 -397.7858 -342.7946
ENERGY: 600000 3.7188 13.2237 6.7052 0.0000 -10678.5719 1511.8642 0.0000 0.0000 1783.0324 -7360.0275 305.7634 -9143.0599 -7404.8736 298.2796 786.6529 819.8177 30071.0375 40.7672 97.7339
ENERGY: 900000 4.2580 6.8292 6.8673 0.0000 -10540.4541 1386.6521 0.0000 0.0000 1814.6288 -7321.2187 311.1817 -9135.8475 -7400.1194 299.0813 -448.5586 -352.2057 30126.6806 -73.5474 -4.0011
ENERGY: 1200000 4.5254 3.9630 7.9598 0.0000 -10738.3031 1500.1021 0.0000 0.0000 1723.3929 -7498.3598 295.5361 -9221.7527 -7406.2421 298.8814 384.6532 416.9083 29827.2656 60.8894 121.0277
ENERGY: 1500000 6.6669 11.1330 12.5032 0.0000 -10684.1678 1513.0054 0.0000 0.0000 1758.6333 -7382.2260 301.5793 -9140.8593 -7402.1476 299.3155 998.2537 1075.2295 29820.0898 68.9273 129.6066
TCL: Running FEP window  20: Lambda1 0.049999999999999684 Lambda2 0.0    [dLambda -0.049999999999999684]
TCL: Setting parameter firsttimestep to 0
TCL: Setting parameter alchLambda to 0.049999999999999684
Info: NONBONDED TABLE R-SQUARED SPACING: 0.0625
Info: NONBONDED TABLE SIZE: 705 POINTS
TCL: Setting parameter alchLambda2 to 0.0
Info: NONBONDED TABLE R-SQUARED SPACING: 0.0625
Info: NONBONDED TABLE SIZE: 705 POINTS
TCL: Running for 1500000 steps
ETITLE: TS BOND ANGLE DIHED IMPRP ELECT VDW BOUNDARY MISC KINETIC TOTAL TEMP POTENTIAL TOTALAVG TEMPAVG PRESSURE GPRESSURE VOLUME PRESSAVG GPRESSAVG
ENERGY: 0 6.6669 11.1330 12.5032 0.0000 -10684.1673 1513.1183 0.0000 0.0000 1757.7792 -7382.9665 301.4329 -9140.7458 -7382.9665 301.4329 979.3947 1073.8787 29820.0898 979.3947 1073.8787
ENERGY: 300000 5.0648 10.3405 10.0627 0.0000 -10476.8650 1355.5741 0.0000 0.0000 1724.9426 -7370.8803 295.8019 -9095.8229 -7361.9536 300.8427 -449.8143 -442.8180 29815.9231 364.3636 424.9023
ENERGY: 600000 3.8714 6.8950 8.2182 0.0000 -10727.0691 1530.3807 0.0000 0.0000 1721.1986 -7456.5051 295.1598 -9177.7037 -7362.9570 300.4180 706.4052 707.6191 30249.2881 519.5440 568.2260
ENERGY: 900000 3.8854 13.4167 7.6851 0.0000 -10591.1172 1464.3267 0.0000 0.0000 1760.3181 -7341.4851 301.8682 -9101.8033 -7360.6288 301.6558 447.7259 568.6612 29517.4176 452.2220 507.0201
ENERGY: 1200000 5.8764 9.9655 8.8975 0.0000 -10562.3711 1390.4852 0.0000 0.0000 1829.8600 -7317.2865 313.7936 -9147.1465 -7369.3130 302.1077 -283.4665 -205.3175 30031.6476 340.1069 399.7900
ENERGY: 1500000 4.9810 12.2118 6.0515 0.0000 -10494.8100 1380.3831 0.0000 0.0000 1771.1839 -7319.9987 303.7316 -9091.1825 -7377.5852 302.0939 -29.2155 -1.0924 29690.3921 315.6551 369.3267
TCL: Exiting due to exit command.
