Info: SIMULATION PARAMETERS:
Info: TIMESTEP               2
Info: NUMBER OF STEPS        0
Info: STEPS PER CYCLE        10
Info: PERIODIC CELL BASIS 1  30.5488 0 0
Info: PERIODIC CELL BASIS 2  0 29.955 0
Info: PERIODIC CELL BASIS 3  0 0 33.4459
Info: PERIODIC CELL CENTER   0 0 0
Info: WRAPPING WATERS AROUND PERIODIC BOUNDARIES ON OUTPUT.
Info: WRAPPING ALL CLUSTERS AROUND PERIODIC BOUNDARIES ON OUTPUT.
Info: FIRST LDB TIMESTEP     50
Info: LAST LDB TIMESTEP     -1
Info: HOM BACKGROUND SCALING 1
Info: PME BACKGROUND SCALING 1
Info: MIN ATOMS PER PATCH    40
Info: EMPTY PATCH LOAD       40 ATOMS
Info: VELOCITY FILE          mobley_1144156_equil.vel
Info: CENTER OF MASS MOVING INITIALLY? NO
Info: DIELECTRIC             1
Info: EXCLUDE                SCALED ONE-FOUR
Info: 1-4 ELECTROSTATICS SCALED BY 0.833333
Info: MODIFIED 1-4 VDW PARAMETERS WILL BE USED
Info: DCD FILENAME           mobley_1144156_prod.dcd
Info: DCD FREQUENCY          100000
Info: DCD FIRST STEP         100000
Info: DCD FILE WILL CONTAIN UNIT CELL DATA
Info: XST FILENAME           mobley_1144156_prod.xst
Info: XST FREQUENCY          100000
Info: NO VELOCITY DCD OUTPUT
Info: NO FORCE DCD OUTPUT
Info: OUTPUT FILENAME        mobley_1144156_prod
Info: BINARY OUTPUT FILES WILL BE USED
Info: RESTART FILENAME       mobley_1144156_prod.restart
Info: RESTART FREQUENCY      100000
Info: BINARY RESTART FILES WILL BE USED
Info: CUTOFF                 9
Info: PAIRLIST DISTANCE      11
Info: PAIRLIST SHRINK RATE   0.01
Info: PAIRLIST GROW RATE     0.01
Info: PAIRLIST TRIGGER       0.3
Info: PAIRLISTS PER CYCLE    2
Info: PAIRLISTS ENABLED
Info: MARGIN                 2
Info: HYDROGEN GROUP CUTOFF  2.5
Info: PATCH DIMENSION        15.5
Info: ENERGY OUTPUT STEPS    100000
Info: ENERGY EVALUATION STEPS    100000
Info: OUTPUT ENERGY PRECISION 4
Info: CROSSTERM ENERGY INCLUDED IN DIHEDRAL
Info: TIMING OUTPUT STEPS    1000000
Info: PRESSURE OUTPUT STEPS  100000
Info: ALCHEMICAL FEP ON
Info: FEP CURRENT LAMBDA VALUE     1
Info: FEP COMPARISON LAMBDA VALUE  0.95
Info: FEP INTRA-ALCHEMICAL NON-BONDED INTERACTIONS WILL BE RETAINED
Info: FEP INTRA-ALCHEMICAL BONDED INTERACTIONS WILL BE RETAINED
Info: FEP VDW SHIFTING COEFFICIENT 5
Info: FEP ELEC. ACTIVE FOR ANNIHILATED PARTICLES BETWEEN LAMBDA = 0 AND LAMBDA = 0.5
Info: FEP ELEC. ACTIVE FOR EXNIHILATED PARTICLES BETWEEN LAMBDA = 0.5 AND LAMBDA = 1
Info: FEP VDW ACTIVE FOR ANNIHILATED PARTICLES BETWEEN LAMBDA = 0 AND LAMBDA = 1
Info: FEP VDW ACTIVE FOR EXNIHILATED PARTICLES BETWEEN LAMBDA = 0 AND LAMBDA = 1
Info: FEP BOND ACTIVE FOR ANNIHILATED PARTICLES BETWEEN LAMBDA = 1 AND LAMBDA = 1
Info: FEP BOND ACTIVE FOR EXNIHILATED PARTICLES BETWEEN LAMBDA = 0 AND LAMBDA = 0
Info: LANGEVIN DYNAMICS ACTIVE
Info: LANGEVIN TEMPERATURE   300
Info: LANGEVIN USING BBK INTEGRATOR
Info: LANGEVIN DAMPING COEFFICIENT IS 1 INVERSE PS
Info: LANGEVIN DYNAMICS APPLIED TO HYDROGENS
Info: LANGEVIN PISTON PRESSURE CONTROL ACTIVE
Info:        TARGET PRESSURE IS 1.01325 BAR
Info:     OSCILLATION PERIOD IS 50 FS
Info:             DECAY TIME IS 25 FS
Info:     PISTON TEMPERATURE IS 300 K
Info:       PRESSURE CONTROL IS GROUP-BASED
Info:    INITIAL STRAIN RATE IS -0.000444713 -0.000444713 -0.000444713
Info:       CELL FLUCTUATION IS ISOTROPIC
Info: PARTICLE MESH EWALD (PME) ACTIVE
Info: PME TOLERANCE               1e-06
Info: PME EWALD COEFFICIENT       0.348832
Info: PME INTERPOLATION ORDER     4
Info: PME GRID DIMENSIONS         32 32 36
Info: PME MAXIMUM GRID SPACING    1
Info: PME CALCULATION WILL BE PERFORMED ON GPU
Info: FULL ELECTROSTATIC EVALUATION FREQUENCY      2
Info: USING VERLET I (r-RESPA) MTS SCHEME.
Info: C1 SPLITTING OF LONG RANGE ELECTROSTATICS
Info: PLACING ATOMS IN PATCHES BY HYDROGEN GROUPS
Info: RIGID BONDS TO HYDROGEN : ALL
Info:         ERROR TOLERANCE : 1e-08
Info:          MAX ITERATIONS : 100
Info: RIGID WATER USING SETTLE ALGORITHM
Info: RANDOM NUMBER SEED     1743850838
Info: USE HYDROGEN BONDS?    NO
Info: Using AMBER format force field!
Info: AMBER PARM FILE        mobley_1144156.prmtop
Info: COORDINATE PDB         mobley_1144156.pdb
Info: Exclusions will be read from PARM file!
Info: SCNB (VDW SCALING)     2
Info: USING ARITHMETIC MEAN TO COMBINE L-J SIGMA PARAMETERS
Info: BINARY COORDINATES     mobley_1144156_equil.coor
Info: SUMMARY OF PARAMETERS:
Info: 6 BONDS
Info: 7 ANGLES
Info:   7 HARMONIC
Info:   0 COSINE-BASED
Info: 6 DIHEDRAL
Info: 0 IMPROPER
Info: 0 CROSSTERM
Info: 0 VDW
Info: 21 VDW_PAIRS
Info: 0 NBTHOLE_PAIRS
Info: To read alchdata from file: mobley_1144156.pdb
Info: To read alchflag data from column: 5
Info: STRUCTURE SUMMARY:
Info: 2964 ATOMS
Info: 2963 BONDS
Info: 25 ANGLES
Info: 32 DIHEDRALS
Info: 0 IMPROPERS
Info: 0 CROSSTERMS
Info: 3012 EXCLUSIONS
Info: 2959 RIGID BONDS
Info: ALCH: 0 ATOMS TO DISAPPEAR IN FINAL STATE
Info: ALCH: 15 ATOMS TO APPEAR IN FINAL STATE
Info: 5933 DEGREES OF FREEDOM
Info: 988 HYDROGEN GROUPS
Info: 4 ATOMS IN LARGEST HYDROGEN GROUP
Info: 988 MIGRATION GROUPS
Info: 4 ATOMS IN LARGEST MIGRATION GROUP
Info: TOTAL MASS = 17783.8 amu
Info: TOTAL CHARGE = 0.000100024 e
Info: MASS DENSITY = 0.964891 g/cm^3
Info: ATOM DENSITY = 0.0968437 atoms/A^3
Info: ADDED 0 IMPLICIT EXCLUSIONS
Info: NONBONDED TABLE R-SQUARED SPACING: 0.0625
Info: NONBONDED TABLE SIZE: 705 POINTS
Info: REMOVING COM VELOCITY -0.201242 0.198912 0.00321415
Info: Use 3D box decompostion in PME FFT.
Info: Updated CUDA force table with 4096 elements.
Info: Updated CUDA LJ table with 6 x 6 elements.
Info: Found 16 unique exclusion lists needing 32 bytes
TCL: Running for 1500000 steps
ETITLE: TS BOND ANGLE DIHED IMPRP ELECT VDW BOUNDARY MISC KINETIC TOTAL TEMP POTENTIAL TOTALAVG TEMPAVG PRESSURE GPRESSURE VOLUME PRESSAVG GPRESSAVG
ENERGY: 0 0.2013 3.1349 2.8191 0.0000 -10889.1834 1474.3751 0.0000 0.0000 1746.1772 -7662.4758 296.2132 -9408.6530 -7662.4758 296.2132 -159.4520 -67.2634 30606.0209 -159.4520 -67.2634
ENERGY: 300000 1.2160 4.9865 3.3988 0.0000 -10668.4487 1394.6268 0.0000 0.0000 1738.5038 -7525.7168 294.9115 -9264.2206 -7547.5993 298.2134 -392.9714 -342.0001 30617.6200 -259.5156 -221.6921
ENERGY: 600000 0.0717 5.9578 3.4304 0.0000 -10826.6874 1461.6959 0.0000 0.0000 1817.3325 -7538.1992 308.2836 -9355.5317 -7503.2691 301.0103 239.3525 279.1501 30041.3668 -109.6387 -60.7374
ENERGY: 900000 1.9906 6.3635 2.6040 0.0000 -10646.5049 1369.9969 0.0000 0.0000 1782.1008 -7483.4492 302.3071 -9265.5500 -7495.1485 302.3379 -386.3279 -353.4641 30492.5970 -106.8018 -56.9621
ENERGY: 1200000 1.1295 3.8124 2.0504 0.0000 -10692.5751 1402.5956 0.0000 0.0000 1758.5241 -7524.4632 298.3076 -9282.9873 -7498.6881 301.1613 -227.0066 -158.8042 30537.9857 -74.8470 -25.3312
ENERGY: 1500000 1.0005 7.3976 1.9989 0.0000 -10824.2251 1474.9993 0.0000 0.0000 1761.2447 -7577.5841 298.7691 -9338.8288 -7500.1859 301.6315 5.3323 8.1181 30735.4545 -41.6648 9.7356
TCL: Running FEP window   2: Lambda1 0.95   Lambda2 0.8999999999999999 [dLambda -0.050000000000000044]
TCL: Setting parameter firsttimestep to 0
TCL: Setting parameter alchLambda to 0.95
Info: NONBONDED TABLE R-SQUARED SPACING: 0.0625
Info: NONBONDED TABLE SIZE: 705 POINTS
TCL: Setting parameter alchLambda2 to 0.8999999999999999
Info: NONBONDED TABLE R-SQUARED SPACING: 0.0625
Info: NONBONDED TABLE SIZE: 705 POINTS
TCL: Running for 1500000 steps
ETITLE: TS BOND ANGLE DIHED IMPRP ELECT VDW BOUNDARY MISC KINETIC TOTAL TEMP POTENTIAL TOTALAVG TEMPAVG PRESSURE GPRESSURE VOLUME PRESSAVG GPRESSAVG
ENERGY: 0 1.0005 7.3976 1.9989 0.0000 -10823.4944 1475.1105 0.0000 0.0000 1760.3667 -7577.6203 298.6202 -9337.9870 -7577.6203 298.6202 -87.4387 1.2426 30735.4545 -87.4387 1.2426
ENERGY: 300000 0.3238 5.6996 3.5405 0.0000 -10841.8240 1520.4389 0.0000 0.0000 1716.8226 -7594.9985 291.2336 -9311.8211 -7532.2763 299.2740 475.0095 555.4486 30565.8361 98.4439 174.9375
ENERGY: 600000 0.8725 5.4709 4.0124 0.0000 -10627.8678 1407.3578 0.0000 0.0000 1773.4783 -7436.6760 300.8444 -9210.1542 -7519.9827 297.4178 -96.4206 12.2033 30732.7340 57.9252 133.5097
ENERGY: 900000 1.2683 5.4454 2.2603 0.0000 -10765.2365 1396.6545 0.0000 0.0000 1757.2454 -7602.3626 298.0907 -9359.6079 -7520.7898 298.5697 -493.0180 -475.4466 30317.9876 69.7177 131.8855
ENERGY: 1200000 0.6091 8.9461 2.5564 0.0000 -10829.7634 1550.9092 0.0000 0.0000 1775.9537 -7490.7888 301.2643 -9266.7426 -7526.6608 298.9448 741.0144 822.4278 30718.5065 76.2852 141.5858
ENERGY: 1500000 1.1144 10.0514 2.5236 0.0000 -10651.3394 1402.7461 0.0000 0.0000 1739.6360 -7495.2681 295.1035 -9234.9041 -7528.7839 298.3366 -475.2672 -418.9006 31021.6332 7.3490 72.8233
TCL: Running FEP window   3: Lambda1 0.8999999999999999 Lambda2 0.8499999999999999 [dLambda -0.050000000000000044]
TCL: Setting parameter firsttimestep to 0
TCL: Setting parameter alchLambda to 0.8999999999999999
Info: NONBONDED TABLE R-SQUARED SPACING: 0.0625
Info: NONBONDED TABLE SIZE: 705 POINTS
TCL: Setting parameter alchLambda2 to 0.8499999999999999
Info: NONBONDED TABLE R-SQUARED SPACING: 0.0625
Info: NONBONDED TABLE SIZE: 705 POINTS
TCL: Running for 1500000 steps
ETITLE: TS BOND ANGLE DIHED IMPRP ELECT VDW BOUNDARY MISC KINETIC TOTAL TEMP POTENTIAL TOTALAVG TEMPAVG PRESSURE GPRESSURE VOLUME PRESSAVG GPRESSAVG
ENERGY: 0 1.1144 10.0514 2.5236 0.0000 -10650.9771 1402.2507 0.0000 0.0000 1738.7614 -7496.2757 294.9552 -9235.0371 -7496.2757 294.9552 -519.2026 -432.9899 31021.6332 -519.2026 -432.9899
ENERGY: 300000 0.2366 4.8487 1.9407 0.0000 -10648.5835 1430.9161 0.0000 0.0000 1762.1286 -7448.5129 298.9191 -9210.6415 -7471.2429 300.1218 47.0553 181.8386 30597.3465 -134.1121 -59.3421
ENERGY: 600000 0.5800 7.4776 2.7505 0.0000 -10770.1005 1448.7083 0.0000 0.0000 1755.5801 -7555.0040 297.8082 -9310.5841 -7494.0421 299.2732 38.9321 141.7059 30437.2127 -39.4557 35.2058
ENERGY: 900000 0.8888 4.5858 3.2995 0.0000 -10611.3010 1368.4529 0.0000 0.0000 1770.6824 -7463.3916 300.3701 -9234.0740 -7504.7461 298.7848 -610.7941 -529.5561 30703.3268 -68.0941 4.6102
ENERGY: 1200000 1.7730 6.0845 2.9746 0.0000 -10832.1774 1460.6308 0.0000 0.0000 1770.4558 -7590.2588 300.3317 -9360.7146 -7521.2890 298.6624 176.2408 177.0246 30103.0212 -8.2587 47.3616
ENERGY: 1500000 0.8912 5.6222 4.1763 0.0000 -10652.3064 1349.2600 0.0000 0.0000 1699.5670 -7592.7897 288.3064 -9292.3567 -7524.6979 298.8566 -818.9855 -777.3380 30661.4018 -43.2378 13.5860
TCL: Running FEP window   4: Lambda1 0.8499999999999999 Lambda2 0.7999999999999998 [dLambda -0.050000000000000044]
TCL: Setting parameter firsttimestep to 0
TCL: Setting parameter alchLambda to 0.8499999999999999
Info: NONBONDED TABLE R-SQUARED SPACING: 0.0625
Info: NONBONDED TABLE SIZE: 705 POINTS
TCL: Setting parameter alchLambda2 to 0.7999999999999998
Info: NONBONDED TABLE R-SQUARED SPACING: 0.0625
Info: NONBONDED TABLE SIZE: 705 POINTS
TCL: Running for 1500000 steps
ETITLE: TS BOND ANGLE DIHED IMPRP ELECT VDW BOUNDARY MISC KINETIC TOTAL TEMP POTENTIAL TOTALAVG TEMPAVG PRESSURE GPRESSURE VOLUME PRESSAVG GPRESSAVG
ENERGY: 0 0.8912 5.6222 4.1763 0.0000 -10651.7683 1349.5323 0.0000 0.0000 1698.6530 -7592.8933 288.1514 -9291.5463 -7592.8933 288.1514 -864.8391 -781.5132 30661.4018 -864.8391 -781.5132
ENERGY: 300000 0.2513 6.6095 3.7735 0.0000 -10802.9922 1488.8477 0.0000 0.0000 1761.9759 -7541.5342 298.8932 -9303.5101 -7546.5512 295.3987 423.3280 451.2897 30352.6786 -195.3987 -118.9534
ENERGY: 600000 0.1749 1.9103 2.0270 0.0000 -10760.2743 1489.4399 0.0000 0.0000 1739.9985 -7526.7237 295.1650 -9266.7221 -7534.1783 296.6921 578.3916 579.2664 30345.6332 -32.8219 45.9733
ENERGY: 900000 0.5019 3.4229 3.0263 0.0000 -10664.4512 1399.6132 0.0000 0.0000 1819.0298 -7438.8570 308.5715 -9257.8868 -7521.6603 299.1843 -145.5060 -111.3532 30768.7062 -23.0910 57.9283
ENERGY: 1200000 0.8919 4.5353 2.2523 0.0000 -10723.8574 1370.9170 0.0000 0.0000 1738.2741 -7606.9868 294.8725 -9345.2609 -7534.2595 298.6561 -784.4961 -711.7508 30625.0920 -74.4992 2.1040
ENERGY: 1500000 0.7038 10.0005 1.9138 0.0000 -10728.9421 1392.7454 0.0000 0.0000 1729.8025 -7593.7761 293.4354 -9323.5787 -7537.3290 298.4780 -448.5035 -387.4460 30325.0649 -134.9028 -61.7698
TCL: Running FEP window   5: Lambda1 0.7999999999999998 Lambda2 0.7499999999999998 [dLambda -0.050000000000000044]
TCL: Setting parameter firsttimestep to 0
TCL: Setting parameter alchLambda to 0.7999999999999998
Info: NONBONDED TABLE R-SQUARED SPACING: 0.0625
Info: NONBONDED TABLE SIZE: 705 POINTS
TCL: Setting parameter alchLambda2 to 0.7499999999999998
Info: NONBONDED TABLE R-SQUARED SPACING: 0.0625
Info: NONBONDED TABLE SIZE: 705 POINTS
TCL: Running for 1500000 steps
ETITLE: TS BOND ANGLE DIHED IMPRP ELECT VDW BOUNDARY MISC KINETIC TOTAL TEMP POTENTIAL TOTALAVG TEMPAVG PRESSURE GPRESSURE VOLUME PRESSAVG GPRESSAVG
ENERGY: 0 0.7038 10.0005 1.9138 0.0000 -10728.3438 1392.7533 0.0000 0.0000 1728.9397 -7594.0327 293.2891 -9322.9724 -7594.0327 293.2891 -465.7479 -397.2573 30325.0649 -465.7479 -397.2573
ENERGY: 300000 1.9800 9.9735 2.8231 0.0000 -10818.1514 1500.2632 0.0000 0.0000 1748.9645 -7554.1471 296.6860 -9303.1116 -7571.5298 295.2325 392.4250 438.0450 30720.9084 -8.6600 54.1773
ENERGY: 600000 0.8180 9.3884 3.6310 0.0000 -10838.8563 1526.2577 0.0000 0.0000 1747.9378 -7550.8235 296.5118 -9298.7613 -7544.6367 297.4154 514.9953 578.9885 30566.7470 -69.0964 6.7602
ENERGY: 900000 1.2657 8.5402 4.0142 0.0000 -10628.6400 1448.7929 0.0000 0.0000 1805.3304 -7360.6965 306.2476 -9166.0269 -7522.9136 298.7174 422.6492 457.1779 30593.2007 -49.9109 17.2058
ENERGY: 1200000 0.8669 4.9514 2.3751 0.0000 -10789.8875 1433.9663 0.0000 0.0000 1821.0536 -7526.6741 308.9148 -9347.7277 -7524.4624 300.1832 120.0472 175.0688 30093.7775 76.6697 143.4797
ENERGY: 1500000 1.6376 5.5688 4.2438 0.0000 -10759.1936 1431.7357 0.0000 0.0000 1804.4350 -7511.5726 306.0957 -9316.0077 -7523.7337 300.2583 -279.0308 -165.1088 30836.4683 68.4600 137.7866
TCL: Running FEP window   6: Lambda1 0.7499999999999998 Lambda2 0.6999999999999997 [dLambda -0.050000000000000044]
TCL: Setting parameter firsttimestep to 0
TCL: Setting parameter alchLambda to 0.7499999999999998
Info: NONBONDED TABLE R-SQUARED SPACING: 0.0625
Info: NONBONDED TABLE SIZE: 705 POINTS
TCL: Setting parameter alchLambda2 to 0.6999999999999997
Info: NONBONDED TABLE R-SQUARED SPACING: 0.0625
Info: NONBONDED TABLE SIZE: 705 POINTS
TCL: Running for 1500000 steps
ETITLE: TS BOND ANGLE DIHED IMPRP ELECT VDW BOUNDARY MISC KINETIC TOTAL TEMP POTENTIAL TOTALAVG TEMPAVG PRESSURE GPRESSURE VOLUME PRESSAVG GPRESSAVG
ENERGY: 0 1.6376 5.5688 4.2438 0.0000 -10758.5494 1431.1038 0.0000 0.0000 1803.5214 -7512.4739 305.9408 -9315.9953 -7512.4739 305.9408 -265.9032 -178.3801 30836.4683 -265.9032 -178.3801
ENERGY: 300000 0.9402 6.5907 2.0291 0.0000 -10704.5309 1386.8171 0.0000 0.0000 1808.9375 -7499.2163 306.8595 -9308.1538 -7525.0118 300.6921 -488.9473 -375.1917 30684.3707 -161.5333 -92.0941
ENERGY: 600000 0.2380 8.2521 2.4933 0.0000 -10691.5307 1386.5774 0.0000 0.0000 1790.5755 -7503.3944 303.7447 -9293.9699 -7514.0504 299.8409 -732.2332 -680.3555 31116.4352 -238.1567 -166.1932
ENERGY: 900000 2.2596 9.0468 2.9022 0.0000 -10717.3637 1452.3670 0.0000 0.0000 1788.5394 -7462.2487 303.3993 -9250.7881 -7507.8655 301.5986 344.9033 431.9325 30325.2813 -100.2430 -27.1283
ENERGY: 1200000 0.8793 7.1826 1.7131 0.0000 -10733.5261 1457.9406 0.0000 0.0000 1788.4725 -7477.3379 303.3879 -9265.8104 -7507.1697 301.2737 225.9533 259.8324 30630.3089 -65.4015 -0.7439
ENERGY: 1500000 1.1216 4.0601 3.9944 0.0000 -10630.2612 1365.3063 0.0000 0.0000 1760.5355 -7495.2434 298.6488 -9255.7788 -7499.3023 301.1726 -681.5512 -620.7596 30605.5217 -64.8591 -1.0313
TCL: Running FEP window   7: Lambda1 0.6999999999999997 Lambda2 0.6499999999999997 [dLambda -0.050000000000000044]
TCL: Setting parameter firsttimestep to 0
TCL: Setting parameter alchLambda to 0.6999999999999997
Info: NONBONDED TABLE R-SQUARED SPACING: 0.0625
Info: NONBONDED TABLE SIZE: 705 POINTS
TCL: Setting parameter alchLambda2 to 0.6499999999999997
Info: NONBONDED TABLE R-SQUARED SPACING: 0.0625
Info: NONBONDED TABLE SIZE: 705 POINTS
TCL: Running for 1500000 steps
ETITLE: TS BOND ANGLE DIHED IMPRP ELECT VDW BOUNDARY MISC KINETIC TOTAL TEMP POTENTIAL TOTALAVG TEMPAVG PRESSURE GPRESSURE VOLUME PRESSAVG GPRESSAVG
ENERGY: 0 1.1216 4.0601 3.9944 0.0000 -10630.1224 1365.3177 0.0000 0.0000 1759.7158 -7495.9128 298.5098 -9255.6286 -7495.9128 298.5098 -721.2356 -626.3013 30605.5217 -721.2356 -626.3013
ENERGY: 300000 1.2178 9.8909 4.8551 0.0000 -10852.1291 1504.4938 0.0000 0.0000 1769.5606 -7562.1110 300.1798 -9331.6716 -7546.1463 296.0819 362.7297 394.4470 30627.1536 83.0216 138.8353
ENERGY: 600000 0.7089 6.2726 2.5109 0.0000 -10651.6475 1406.4787 0.0000 0.0000 1736.6873 -7498.9890 294.6033 -9235.6763 -7527.0777 296.6832 -71.5045 -17.8574 30384.6272 99.6064 149.6824
ENERGY: 900000 2.2971 7.2181 3.6106 0.0000 -10732.5105 1440.6679 0.0000 0.0000 1743.1468 -7535.5701 295.6991 -9278.7169 -7523.9196 297.3823 13.0662 90.5432 30460.4733 111.5098 173.1930
ENERGY: 1200000 0.3052 7.6836 1.6243 0.0000 -10876.6187 1562.6038 0.0000 0.0000 1756.1128 -7548.2891 297.8986 -9304.4019 -7529.1170 297.9953 823.5375 902.7162 30358.9902 146.4900 212.9187
ENERGY: 1500000 0.9017 8.4895 3.8736 0.0000 -10707.2334 1437.2445 0.0000 0.0000 1824.3866 -7432.3374 309.4802 -9256.7240 -7517.5405 298.5739 -18.8584 36.0281 30716.3760 131.2230 196.8569
TCL: Running FEP window   8: Lambda1 0.6499999999999997 Lambda2 0.5999999999999996 [dLambda -0.050000000000000044]
TCL: Setting parameter firsttimestep to 0
TCL: Setting parameter alchLambda to 0.6499999999999997
Info: NONBONDED TABLE R-SQUARED SPACING: 0.0625
Info: NONBONDED TABLE SIZE: 705 POINTS
TCL: Setting parameter alchLambda2 to 0.5999999999999996
Info: NONBONDED TABLE R-SQUARED SPACING: 0.0625
Info: NONBONDED TABLE SIZE: 705 POINTS
TCL: Running for 1500000 steps
ETITLE: TS BOND ANGLE DIHED IMPRP ELECT VDW BOUNDARY MISC KINETIC TOTAL TEMP POTENTIAL TOTALAVG TEMPAVG PRESSURE GPRESSURE VOLUME PRESSAVG GPRESSAVG
ENERGY: 0 0.9017 8.4895 3.8736 0.0000 -10707.3081 1437.3415 0.0000 0.0000 1823.4562 -7433.2456 309.3224 -9256.7018 -7433.2456 309.3224 -34.9905 31.8994 30716.3760 -34.9905 31.8994
ENERGY: 300000 1.2691 4.8492 1.9354 0.0000 -10812.1073 1416.1559 0.0000 0.0000 1817.2285 -7570.6691 308.2660 -9387.8976 -7522.4735 302.8801 91.3129 85.5554 29851.8621 4.3453 63.0157
ENERGY: 600000 0.5504 6.9194 2.0128 0.0000 -10691.0357 1409.0619 0.0000 0.0000 1768.2744 -7504.2168 299.9616 -9272.4912 -7506.4465 303.0166 138.5237 218.3031 29853.9031 -76.3832 -9.9983
ENERGY: 900000 1.0228 3.7864 3.4392 0.0000 -10727.2921 1382.7226 0.0000 0.0000 1794.7250 -7541.5961 304.4486 -9336.3211 -7504.3716 301.9982 -643.6536 -527.1486 30589.9739 -183.6473 -120.0863
ENERGY: 1200000 3.1365 4.6360 2.6889 0.0000 -10688.4848 1361.9063 0.0000 0.0000 1752.4430 -7563.6742 297.2761 -9316.1172 -7514.9319 301.3051 -500.4155 -459.1607 30366.7591 -190.7938 -124.8026
ENERGY: 1500000 1.2822 7.2049 2.5839 0.0000 -10787.4158 1469.7090 0.0000 0.0000 1825.8340 -7480.8018 309.7258 -9306.6358 -7513.0729 301.7578 192.3868 267.6321 30363.0355 -49.2413 12.6700
TCL: Running FEP window   9: Lambda1 0.5999999999999996 Lambda2 0.5499999999999996 [dLambda -0.050000000000000044]
TCL: Setting parameter firsttimestep to 0
TCL: Setting parameter alchLambda to 0.5999999999999996
Info: NONBONDED TABLE R-SQUARED SPACING: 0.0625
Info: NONBONDED TABLE SIZE: 705 POINTS
TCL: Setting parameter alchLambda2 to 0.5499999999999996
Info: NONBONDED TABLE R-SQUARED SPACING: 0.0625
Info: NONBONDED TABLE SIZE: 705 POINTS
TCL: Running for 1500000 steps
ETITLE: TS BOND ANGLE DIHED IMPRP ELECT VDW BOUNDARY MISC KINETIC TOTAL TEMP POTENTIAL TOTALAVG TEMPAVG PRESSURE GPRESSURE VOLUME PRESSAVG GPRESSAVG
ENERGY: 0 1.2822 7.2049 2.5839 0.0000 -10787.0621 1470.1358 0.0000 0.0000 1824.9543 -7480.9010 309.5765 -9305.8553 -7480.9010 309.5765 193.6014 268.3934 30363.0355 193.6014 268.3934
ENERGY: 300000 4.4790 5.3380 2.8837 0.0000 -10572.7073 1399.6307 0.0000 0.0000 1743.2617 -7417.1142 295.7186 -9160.3759 -7505.9672 297.6824 -154.3317 -16.1943 30911.4620 -113.1407 -18.0004
ENERGY: 600000 0.4104 3.5423 2.4351 0.0000 -10807.8796 1523.8848 0.0000 0.0000 1786.1048 -7491.5022 302.9863 -9277.6070 -7503.8702 298.9850 814.4308 863.8559 30142.3775 70.2296 147.4355
ENERGY: 900000 1.1399 7.6549 4.7878 0.0000 -10810.8351 1534.1619 0.0000 0.0000 1818.2221 -7444.8686 308.4345 -9263.0907 -7509.7022 299.2796 692.7378 759.8982 30924.1889 107.0424 174.1403
ENERGY: 1200000 1.9656 7.0335 4.4214 0.0000 -10578.1899 1374.6031 0.0000 0.0000 1793.9275 -7396.2387 304.3133 -9190.1662 -7505.8642 298.5835 -448.5765 -316.7071 30467.7171 -30.5455 33.3462
ENERGY: 1500000 0.9712 11.3533 2.8693 0.0000 -10880.9538 1503.3887 0.0000 0.0000 1715.9517 -7646.4196 291.0859 -9362.3713 -7514.3643 297.4618 41.8461 161.9730 30558.4075 -54.2788 10.8283
TCL: Running FEP window  10: Lambda1 0.5499999999999996 Lambda2 0.4999999999999996 [dLambda -0.04999999999999999]
TCL: Setting parameter firsttimestep to 0
TCL: Setting parameter alchLambda to 0.5499999999999996
Info: NONBONDED TABLE R-SQUARED SPACING: 0.0625
Info: NONBONDED TABLE SIZE: 705 POINTS
TCL: Setting parameter alchLambda2 to 0.4999999999999996
Info: NONBONDED TABLE R-SQUARED SPACING: 0.0625
Info: NONBONDED TABLE SIZE: 705 POINTS
TCL: Running for 1500000 steps
ETITLE: TS BOND ANGLE DIHED IMPRP ELECT VDW BOUNDARY MISC KINETIC TOTAL TEMP POTENTIAL TOTALAVG TEMPAVG PRESSURE GPRESSURE VOLUME PRESSAVG GPRESSAVG
ENERGY: 0 0.9712 11.3533 2.8693 0.0000 -10880.7567 1503.3099 0.0000 0.0000 1715.0666 -7647.1864 290.9357 -9362.2530 -7647.1864 290.9357 79.5967 152.7827 30558.4075 79.5967 152.7827
ENERGY: 300000 0.4330 4.3575 2.1889 0.0000 -10656.0723 1401.8350 0.0000 0.0000 1814.5315 -7432.7263 307.8085 -9247.2578 -7503.9986 301.3178 -29.2973 -13.3229 30336.2044 -113.8993 -81.8396
ENERGY: 600000 1.6536 11.0426 2.9184 0.0000 -10891.2841 1513.9338 0.0000 0.0000 1762.5508 -7599.1847 298.9907 -9361.7356 -7506.3501 302.0253 187.6083 219.5702 30392.0569 -26.6673 12.4727
ENERGY: 900000 0.9288 8.0749 2.0111 0.0000 -10876.3635 1546.0027 0.0000 0.0000 1806.5185 -7512.8274 306.4492 -9319.3459 -7511.0605 300.5148 802.6555 802.8730 30176.2735 30.1936 58.1607
ENERGY: 1200000 1.9207 8.2365 1.6385 0.0000 -10743.3565 1437.2292 0.0000 0.0000 1750.1355 -7544.1960 296.8846 -9294.3315 -7518.2464 300.6442 -208.3669 -208.5158 30728.3279 -25.5973 5.0425
ENERGY: 1500000 1.0790 5.0500 5.6571 0.0000 -10748.3487 1405.3388 0.0000 0.0000 1723.9109 -7607.3129 292.4360 -9331.2238 -7526.1454 300.3774 -294.8117 -223.6706 30105.4354 38.8063 72.3979
TCL: Running FEP window  11: Lambda1 0.4999999999999996 Lambda2 0.4499999999999996 [dLambda -0.04999999999999999]
TCL: Setting parameter firsttimestep to 0
TCL: Setting parameter alchLambda to 0.4999999999999996
Info: NONBONDED TABLE R-SQUARED SPACING: 0.0625
Info: NONBONDED TABLE SIZE: 705 POINTS
TCL: Setting parameter alchLambda2 to 0.4499999999999996
Info: NONBONDED TABLE R-SQUARED SPACING: 0.0625
Info: NONBONDED TABLE SIZE: 705 POINTS
TCL: Running for 1500000 steps
ETITLE: TS BOND ANGLE DIHED IMPRP ELECT VDW BOUNDARY MISC KINETIC TOTAL TEMP POTENTIAL TOTALAVG TEMPAVG PRESSURE GPRESSURE VOLUME PRESSAVG GPRESSAVG
ENERGY: 0 1.0790 5.0500 5.6571 0.0000 -10747.9448 1405.6426 0.0000 0.0000 1723.0230 -7607.4930 292.2854 -9330.5160 -7607.4930 292.2854 -298.5766 -225.0584 30105.4354 -298.5766 -225.0584
ENERGY: 300000 3.3028 5.6006 2.2654 0.0000 -10818.7225 1495.7463 0.0000 0.0000 1805.5566 -7506.2509 306.2860 -9311.8075 -7530.8197 301.9645 241.7861 278.2239 30761.3432 140.8307 195.6948
ENERGY: 600000 0.8464 10.2393 2.0811 0.0000 -10665.8537 1426.5860 0.0000 0.0000 1810.8075 -7415.2934 307.1767 -9226.1009 -7504.2726 304.6974 -150.9061 -35.2695 30682.8185 175.3586 240.2298
ENERGY: 900000 0.2497 4.0059 2.1000 0.0000 -10711.5564 1466.5790 0.0000 0.0000 1746.2409 -7492.3808 296.2240 -9238.6218 -7506.9638 303.6252 147.2059 226.1068 30789.5320 134.9738 199.3909
ENERGY: 1200000 2.6626 3.9776 2.3588 0.0000 -10804.3967 1480.3583 0.0000 0.0000 1785.9261 -7529.1133 302.9560 -9315.0395 -7507.3369 303.2489 101.8507 183.3253 30570.8241 89.5232 152.6282
ENERGY: 1500000 0.6300 3.3961 2.8392 0.0000 -10785.5681 1480.8796 0.0000 0.0000 1790.0240 -7507.7992 303.6511 -9297.8232 -7512.6108 302.1570 300.8432 322.0021 30408.8347 139.9604 203.4053
TCL: Running FEP window  12: Lambda1 0.4499999999999996 Lambda2 0.39999999999999963 [dLambda -0.04999999999999999]
TCL: Setting parameter firsttimestep to 0
TCL: Setting parameter alchLambda to 0.4499999999999996
Info: NONBONDED TABLE R-SQUARED SPACING: 0.0625
Info: NONBONDED TABLE SIZE: 705 POINTS
TCL: Setting parameter alchLambda2 to 0.39999999999999963
Info: NONBONDED TABLE R-SQUARED SPACING: 0.0625
Info: NONBONDED TABLE SIZE: 705 POINTS
TCL: Running for 1500000 steps
ETITLE: TS BOND ANGLE DIHED IMPRP ELECT VDW BOUNDARY MISC KINETIC TOTAL TEMP POTENTIAL TOTALAVG TEMPAVG PRESSURE GPRESSURE VOLUME PRESSAVG GPRESSAVG
ENERGY: 0 0.6300 3.3961 2.8392 0.0000 -10785.5677 1480.9658 0.0000 0.0000 1789.1402 -7508.5965 303.5012 -9297.7367 -7508.5965 303.5012 239.3416 319.2290 30408.8347 239.3416 319.2290
ENERGY: 300000 1.2542 7.4362 2.2097 0.0000 -10780.9728 1461.4717 0.0000 0.0000 1793.0378 -7515.5631 304.1624 -9308.6010 -7540.8116 301.6065 67.2359 97.0465 30538.6736 248.6707 305.8094
ENERGY: 600000 0.2256 6.3940 2.5402 0.0000 -10752.0896 1429.1333 0.0000 0.0000 1748.7342 -7565.0623 296.6469 -9313.7965 -7514.5921 303.8164 -413.5526 -373.4498 30935.8302 166.0476 226.6895
ENERGY: 900000 0.7515 3.7355 2.0860 0.0000 -10761.4786 1439.4063 0.0000 0.0000 1732.5411 -7582.9583 293.9000 -9315.4993 -7519.9092 301.2044 100.7088 151.0225 30194.1673 44.2976 103.9815
ENERGY: 1200000 3.0112 3.0858 3.5355 0.0000 -10664.4614 1490.3718 0.0000 0.0000 1711.4985 -7452.9586 290.3304 -9164.4570 -7512.8284 298.9693 379.8455 403.6876 30894.4360 12.7353 79.6165
ENERGY: 1500000 0.8034 5.9905 4.5154 0.0000 -10703.1140 1419.6887 0.0000 0.0000 1812.9047 -7459.2113 307.5325 -9272.1160 -7513.9936 299.4578 29.1949 124.8079 30154.9486 59.0196 128.6152
TCL: Running FEP window  13: Lambda1 0.39999999999999963 Lambda2 0.34999999999999964 [dLambda -0.04999999999999999]
TCL: Setting parameter firsttimestep to 0
TCL: Setting parameter alchLambda to 0.39999999999999963
Info: NONBONDED TABLE R-SQUARED SPACING: 0.0625
Info: NONBONDED TABLE SIZE: 705 POINTS
TCL: Setting parameter alchLambda2 to 0.34999999999999964
Info: NONBONDED TABLE R-SQUARED SPACING: 0.0625
Info: NONBONDED TABLE SIZE: 705 POINTS
TCL: Running for 1500000 steps
ETITLE: TS BOND ANGLE DIHED IMPRP ELECT VDW BOUNDARY MISC KINETIC TOTAL TEMP POTENTIAL TOTALAVG TEMPAVG PRESSURE GPRESSURE VOLUME PRESSAVG GPRESSAVG
ENERGY: 0 0.8034 5.9905 4.5154 0.0000 -10703.1160 1419.5950 0.0000 0.0000 1812.0159 -7460.1958 307.3817 -9272.2118 -7460.1958 307.3817 26.1826 118.7434 30154.9486 26.1826 118.7434
ENERGY: 300000 0.3892 6.1671 2.9071 0.0000 -10730.3763 1432.5666 0.0000 0.0000 1857.6978 -7430.6486 315.1310 -9288.3463 -7531.3049 303.7593 -37.4212 12.5274 30487.0552 -78.0139 -11.6062
ENERGY: 600000 0.3529 4.5915 5.3041 0.0000 -10677.6033 1444.4279 0.0000 0.0000 1817.9849 -7404.9420 308.3943 -9222.9269 -7512.1736 303.5706 261.4801 312.4423 30486.9977 -233.8032 -171.0440
ENERGY: 900000 4.4229 5.3175 3.3263 0.0000 -10655.7732 1422.7732 0.0000 0.0000 1816.0923 -7403.8411 308.0732 -9219.9334 -7510.6811 302.3905 -191.4875 -191.7922 30903.0445 -295.1726 -230.2771
ENERGY: 1200000 1.4315 5.0609 2.7128 0.0000 -10845.9419 1523.2094 0.0000 0.0000 1766.2749 -7547.2524 299.6224 -9313.5273 -7500.9452 302.7900 444.8526 515.1983 30423.0300 -192.1172 -127.7469
ENERGY: 1500000 1.3041 4.8649 2.9748 0.0000 -10781.2734 1457.7317 0.0000 0.0000 1789.4999 -7524.8979 303.5622 -9314.3979 -7506.9380 302.7595 283.9723 296.9226 30017.9316 -90.1823 -29.6298
TCL: Running FEP window  14: Lambda1 0.34999999999999964 Lambda2 0.29999999999999966 [dLambda -0.04999999999999999]
TCL: Setting parameter firsttimestep to 0
TCL: Setting parameter alchLambda to 0.34999999999999964
Info: NONBONDED TABLE R-SQUARED SPACING: 0.0625
Info: NONBONDED TABLE SIZE: 705 POINTS
TCL: Setting parameter alchLambda2 to 0.29999999999999966
Info: NONBONDED TABLE R-SQUARED SPACING: 0.0625
Info: NONBONDED TABLE SIZE: 705 POINTS
TCL: Running for 1500000 steps
ETITLE: TS BOND ANGLE DIHED IMPRP ELECT VDW BOUNDARY MISC KINETIC TOTAL TEMP POTENTIAL TOTALAVG TEMPAVG PRESSURE GPRESSURE VOLUME PRESSAVG GPRESSAVG
ENERGY: 0 1.3041 4.8649 2.9748 0.0000 -10781.2735 1457.3193 0.0000 0.0000 1788.6205 -7526.1898 303.4130 -9314.8103 -7526.1898 303.4130 201.4855 288.1690 30017.9316 201.4855 288.1690
ENERGY: 300000 0.8127 5.0978 1.6873 0.0000 -10733.6181 1430.5125 0.0000 0.0000 1725.1653 -7570.3426 292.6488 -9295.5079 -7521.3353 299.1413 -351.3879 -261.7922 30789.3713 6.1855 87.0339
ENERGY: 600000 2.0594 5.9587 3.3691 0.0000 -10675.2204 1346.0143 0.0000 0.0000 1809.1522 -7508.6667 306.8959 -9317.8189 -7527.0038 299.4866 -796.6663 -828.7607 30399.0729 -194.9769 -145.9565
ENERGY: 900000 1.3626 7.2004 2.5775 0.0000 -10881.0220 1551.3179 0.0000 0.0000 1798.8296 -7519.7340 305.1449 -9318.5636 -7518.0354 300.6036 929.9580 955.2316 30148.0433 15.3490 66.3514
ENERGY: 1200000 0.5169 3.1992 2.4820 0.0000 -10708.0934 1387.9008 0.0000 0.0000 1751.7296 -7562.2649 297.1550 -9313.9945 -7520.0984 299.9526 -376.5604 -317.5522 30114.7463 -10.3349 42.0407
ENERGY: 1500000 3.1947 10.6017 1.7309 0.0000 -10951.6777 1581.0468 0.0000 0.0000 1751.7367 -7603.3670 297.1562 -9355.1036 -7518.6939 300.1272 1093.5388 1124.5683 29878.5395 64.8232 117.9923
TCL: Running FEP window  15: Lambda1 0.29999999999999966 Lambda2 0.24999999999999967 [dLambda -0.04999999999999999]
TCL: Setting parameter firsttimestep to 0
TCL: Setting parameter alchLambda to 0.29999999999999966
Info: NONBONDED TABLE R-SQUARED SPACING: 0.0625
Info: NONBONDED TABLE SIZE: 705 POINTS
TCL: Setting parameter alchLambda2 to 0.24999999999999967
Info: NONBONDED TABLE R-SQUARED SPACING: 0.0625
Info: NONBONDED TABLE SIZE: 705 POINTS
TCL: Running for 1500000 steps
ETITLE: TS BOND ANGLE DIHED IMPRP ELECT VDW BOUNDARY MISC KINETIC TOTAL TEMP POTENTIAL TOTALAVG TEMPAVG PRESSURE GPRESSURE VOLUME PRESSAVG GPRESSAVG
ENERGY: 0 3.1947 10.6017 1.7309 0.0000 -10951.6757 1580.3626 0.0000 0.0000 1750.8326 -7604.9532 297.0029 -9355.7859 -7604.9532 297.0029 1018.9091 1112.8774 29878.5395 1018.9091 1112.8774
ENERGY: 300000 2.2285 4.9299 2.6530 0.0000 -11021.2613 1582.9435 0.0000 0.0000 1766.9095 -7661.5969 299.7301 -9428.5064 -7566.1217 300.3192 694.6427 784.7185 30312.4485 184.9632 276.3642
ENERGY: 600000 1.0821 6.8360 2.3383 0.0000 -10758.0132 1452.0013 0.0000 0.0000 1756.1616 -7539.5940 297.9069 -9295.7556 -7555.2311 297.9285 -180.9278 -118.2144 30487.5390 -59.0853 24.7370
ENERGY: 900000 1.3231 7.1371 2.6413 0.0000 -10696.1408 1448.5281 0.0000 0.0000 1810.0361 -7426.4752 307.0459 -9236.5114 -7543.5043 298.7715 165.7828 263.7283 30274.5629 -50.8503 23.4262
ENERGY: 1200000 1.6575 7.4625 3.6914 0.0000 -10663.4404 1406.4722 0.0000 0.0000 1735.5329 -7508.6238 294.4075 -9244.1568 -7547.4644 297.1894 -271.5976 -213.1763 30550.3860 -65.6209 4.6925
ENERGY: 1500000 0.3874 6.9910 2.0005 0.0000 -10712.3556 1436.9147 0.0000 0.0000 1760.0244 -7506.0377 298.5621 -9266.0621 -7545.0618 297.4939 -39.5930 39.9926 30362.9455 -81.1469 -11.0037
TCL: Running FEP window  16: Lambda1 0.24999999999999967 Lambda2 0.19999999999999968 [dLambda -0.04999999999999999]
TCL: Setting parameter firsttimestep to 0
TCL: Setting parameter alchLambda to 0.24999999999999967
Info: NONBONDED TABLE R-SQUARED SPACING: 0.0625
Info: NONBONDED TABLE SIZE: 705 POINTS
TCL: Setting parameter alchLambda2 to 0.19999999999999968
Info: NONBONDED TABLE R-SQUARED SPACING: 0.0625
Info: NONBONDED TABLE SIZE: 705 POINTS
TCL: Running for 1500000 steps
ETITLE: TS BOND ANGLE DIHED IMPRP ELECT VDW BOUNDARY MISC KINETIC TOTAL TEMP POTENTIAL TOTALAVG TEMPAVG PRESSURE GPRESSURE VOLUME PRESSAVG GPRESSAVG
ENERGY: 0 0.3874 6.9910 2.0005 0.0000 -10712.3563 1436.9959 0.0000 0.0000 1759.1322 -7506.8493 298.4108 -9265.9815 -7506.8493 298.4108 -41.5675 36.6658 30362.9455 -41.5675 36.6658
ENERGY: 300000 0.3163 6.4291 2.8830 0.0000 -10901.1243 1496.3839 0.0000 0.0000 1764.8289 -7630.2832 299.3771 -9395.1120 -7532.3449 301.7753 -12.6746 -5.7537 30512.5678 67.5708 122.0801
ENERGY: 600000 3.1543 5.9915 3.0629 0.0000 -10791.5286 1498.1899 0.0000 0.0000 1735.9046 -7545.2253 294.4706 -9281.1299 -7514.3002 301.7657 247.2158 363.0456 30333.3308 24.9528 92.2580
ENERGY: 900000 2.1256 3.7320 3.9268 0.0000 -10672.6654 1385.5437 0.0000 0.0000 1741.0318 -7536.3055 295.3403 -9277.3373 -7513.4174 300.7983 -660.4500 -579.5516 30508.7752 3.3162 71.7631
ENERGY: 1200000 1.2444 8.6926 2.3955 0.0000 -10703.8419 1481.6750 0.0000 0.0000 1758.7761 -7451.0583 298.3504 -9209.8344 -7498.2962 300.3087 337.8244 431.0666 30676.5586 47.2587 113.9394
ENERGY: 1500000 1.7903 6.6374 2.9278 0.0000 -10746.8533 1475.5598 0.0000 0.0000 1777.3875 -7482.5506 301.5075 -9259.9381 -7494.3088 300.7196 209.8494 197.5436 30547.9429 -1.3388 56.3235
TCL: Running FEP window  17: Lambda1 0.19999999999999968 Lambda2 0.1499999999999997 [dLambda -0.04999999999999999]
TCL: Setting parameter firsttimestep to 0
TCL: Setting parameter alchLambda to 0.19999999999999968
Info: NONBONDED TABLE R-SQUARED SPACING: 0.0625
Info: NONBONDED TABLE SIZE: 705 POINTS
TCL: Setting parameter alchLambda2 to 0.1499999999999997
Info: NONBONDED TABLE R-SQUARED SPACING: 0.0625
Info: NONBONDED TABLE SIZE: 705 POINTS
TCL: Running for 1500000 steps
ETITLE: TS BOND ANGLE DIHED IMPRP ELECT VDW BOUNDARY MISC KINETIC TOTAL TEMP POTENTIAL TOTALAVG TEMPAVG PRESSURE GPRESSURE VOLUME PRESSAVG GPRESSAVG
ENERGY: 0 1.7903 6.6374 2.9278 0.0000 -10746.8522 1475.3478 0.0000 0.0000 1776.4948 -7483.6543 301.3561 -9260.1490 -7483.6543 301.3561 107.1651 195.7122 30547.9429 107.1651 195.7122
ENERGY: 300000 3.1936 5.4785 3.6487 0.0000 -10765.0454 1479.8529 0.0000 0.0000 1775.4293 -7497.4424 301.1753 -9272.8717 -7510.8700 299.2664 282.3885 286.0788 30630.8378 -255.2426 -200.0745
ENERGY: 600000 1.4911 7.3462 2.3979 0.0000 -10568.0374 1284.3487 0.0000 0.0000 1803.7477 -7468.7058 305.9791 -9272.4535 -7497.3983 301.0081 -1388.7651 -1313.5355 30852.4868 -334.0980 -264.9695
ENERGY: 900000 0.7056 9.8331 3.2988 0.0000 -10793.0575 1433.3348 0.0000 0.0000 1753.5110 -7592.3742 297.4572 -9345.8852 -7503.8564 300.8556 -84.3344 -48.6748 30166.6500 -327.6398 -254.8856
ENERGY: 1200000 1.6123 9.4605 2.5746 0.0000 -10801.4406 1462.7415 0.0000 0.0000 1768.9388 -7556.1129 300.0743 -9325.0518 -7500.7301 301.5093 155.2350 153.3687 30118.3226 -238.2530 -178.2376
ENERGY: 1500000 2.4240 8.2862 3.6378 0.0000 -10684.2598 1388.1300 0.0000 0.0000 1851.6256 -7430.1563 314.1009 -9281.7818 -7496.8118 301.9851 -529.5064 -444.9564 30375.3528 -182.5400 -116.1553
TCL: Running FEP window  18: Lambda1 0.1499999999999997 Lambda2 0.09999999999999969 [dLambda -0.05 ]
TCL: Setting parameter firsttimestep to 0
TCL: Setting parameter alchLambda to 0.1499999999999997
Info: NONBONDED TABLE R-SQUARED SPACING: 0.0625
Info: NONBONDED TABLE SIZE: 705 POINTS
TCL: Setting parameter alchLambda2 to 0.09999999999999969
Info: NONBONDED TABLE R-SQUARED SPACING: 0.0625
Info: NONBONDED TABLE SIZE: 705 POINTS
TCL: Running for 1500000 steps
ETITLE: TS BOND ANGLE DIHED IMPRP ELECT VDW BOUNDARY MISC KINETIC TOTAL TEMP POTENTIAL TOTALAVG TEMPAVG PRESSURE GPRESSURE VOLUME PRESSAVG GPRESSAVG
ENERGY: 0 2.4240 8.2862 3.6378 0.0000 -10684.2607 1388.3774 0.0000 0.0000 1850.7667 -7430.7686 313.9552 -9281.5352 -7430.7686 313.9552 -535.8374 -445.6459 30375.3528 -535.8374 -445.6459
ENERGY: 300000 0.7109 3.9721 2.7940 0.0000 -10631.8181 1346.3893 0.0000 0.0000 1799.0472 -7478.9046 305.1818 -9277.9518 -7533.3923 302.2948 -675.4656 -605.3543 30106.9499 -281.1028 -233.2324
ENERGY: 600000 2.0239 7.0114 3.2964 0.0000 -10756.0734 1449.9039 0.0000 0.0000 1760.2395 -7533.5983 298.5986 -9293.8378 -7527.1946 299.6655 -322.3001 -162.9373 30684.7185 -291.6928 -224.3784
ENERGY: 900000 0.3373 4.3347 4.2104 0.0000 -10634.8053 1369.9598 0.0000 0.0000 1796.1754 -7459.7878 304.6946 -9255.9632 -7507.8134 301.3726 -721.1970 -707.2998 30984.0107 -281.5456 -221.4276
ENERGY: 1200000 2.6179 3.7417 2.3912 0.0000 -10926.0614 1520.5379 0.0000 0.0000 1779.2635 -7617.5092 301.8258 -9396.7727 -7520.2562 300.6797 267.1360 300.2322 30571.8936 -205.5104 -147.0043
ENERGY: 1500000 2.2274 7.8981 2.1308 0.0000 -10647.8277 1414.3625 0.0000 0.0000 1775.4732 -7445.7356 301.1828 -9221.2089 -7516.3530 301.0372 -88.0349 17.2626 30343.2031 -176.5942 -117.1371
TCL: Running FEP window  19: Lambda1 0.09999999999999969 Lambda2 0.049999999999999684 [dLambda -0.05 ]
TCL: Setting parameter firsttimestep to 0
TCL: Setting parameter alchLambda to 0.09999999999999969
Info: NONBONDED TABLE R-SQUARED SPACING: 0.0625
Info: NONBONDED TABLE SIZE: 705 POINTS
TCL: Setting parameter alchLambda2 to 0.049999999999999684
Info: NONBONDED TABLE R-SQUARED SPACING: 0.0625
Info: NONBONDED TABLE SIZE: 705 POINTS
TCL: Running for 1500000 steps
ETITLE: TS BOND ANGLE DIHED IMPRP ELECT VDW BOUNDARY MISC KINETIC TOTAL TEMP POTENTIAL TOTALAVG TEMPAVG PRESSURE GPRESSURE VOLUME PRESSAVG GPRESSAVG
ENERGY: 0 2.2274 7.8981 2.1308 0.0000 -10647.8273 1414.6917 0.0000 0.0000 1774.5665 -7446.3129 301.0290 -9220.8794 -7446.3129 301.0290 -75.1753 16.5983 30343.2031 -75.1753 16.5983
ENERGY: 300000 0.4475 5.9405 2.6318 0.0000 -10808.7998 1494.3612 0.0000 0.0000 1726.5323 -7578.8865 292.8807 -9305.4188 -7471.2495 300.4487 424.5981 453.4024 30084.3878 255.3101 311.2210
ENERGY: 600000 1.7858 5.9031 3.0958 0.0000 -10694.5602 1396.2790 0.0000 0.0000 1775.3126 -7512.1839 301.1556 -9287.4965 -7493.1451 300.0892 -157.3691 -95.1019 30274.6858 -141.6144 -88.4423
ENERGY: 900000 0.8212 8.1967 2.4489 0.0000 -10843.5382 1540.5734 0.0000 0.0000 1735.2298 -7556.2682 294.3561 -9291.4980 -7521.3627 298.9300 624.3027 705.6687 30376.1497 70.8451 128.3689
ENERGY: 1200000 0.2381 6.7988 4.8708 0.0000 -10751.8093 1450.0028 0.0000 0.0000 1735.7096 -7554.1893 294.4375 -9289.8988 -7523.0183 298.1816 -14.2566 16.2767 30439.2194 5.5153 61.5162
ENERGY: 1500000 0.9416 5.7446 2.9961 0.0000 -10687.3124 1417.7886 0.0000 0.0000 1755.2745 -7504.5670 297.7564 -9259.8415 -7517.8923 298.8222 -73.3481 -24.2301 30068.5617 14.6837 71.2548
TCL: Running FEP window  20: Lambda1 0.049999999999999684 Lambda2 0.0    [dLambda -0.049999999999999684]
TCL: Setting parameter firsttimestep to 0
TCL: Setting parameter alchLambda to 0.049999999999999684
Info: NONBONDED TABLE R-SQUARED SPACING: 0.0625
Info: NONBONDED TABLE SIZE: 705 POINTS
TCL: Setting parameter alchLambda2 to 0.0
Info: NONBONDED TABLE R-SQUARED SPACING: 0.0625
Info: NONBONDED TABLE SIZE: 705 POINTS
TCL: Running for 1500000 steps
ETITLE: TS BOND ANGLE DIHED IMPRP ELECT VDW BOUNDARY MISC KINETIC TOTAL TEMP POTENTIAL TOTALAVG TEMPAVG PRESSURE GPRESSURE VOLUME PRESSAVG GPRESSAVG
ENERGY: 0 0.9416 5.7446 2.9961 0.0000 -10687.3136 1417.1228 0.0000 0.0000 1754.3590 -7506.1495 297.6011 -9260.5085 -7506.1495 297.6011 -123.3226 -26.8118 30068.5617 -123.3226 -26.8118
ENERGY: 300000 1.6533 5.2319 3.4759 0.0000 -10756.5953 1475.6888 0.0000 0.0000 1761.9178 -7508.6276 298.8833 -9270.5454 -7507.4613 299.0758 385.0766 433.5870 30130.6116 -77.4658 -19.3961
ENERGY: 600000 1.3825 6.5816 2.4503 0.0000 -10753.5900 1446.8054 0.0000 0.0000 1726.3046 -7570.0655 292.8421 -9296.3701 -7511.0047 298.3852 -330.6794 -315.1310 30599.0024 -189.5214 -128.6497
ENERGY: 900000 1.4985 2.4093 3.9014 0.0000 -10628.1087 1363.2493 0.0000 0.0000 1739.7879 -7517.2623 295.1293 -9257.0501 -7508.1535 298.6693 -622.7976 -530.7440 30466.9351 -179.2196 -110.2436
ENERGY: 1200000 0.2306 4.5043 2.5337 0.0000 -10729.8306 1440.1492 0.0000 0.0000 1730.3653 -7552.0474 293.5309 -9282.4127 -7500.4216 298.7690 -134.6776 -11.5115 30377.8632 -199.9618 -124.9943
ENERGY: 1500000 0.2869 7.0128 3.2224 0.0000 -10780.7592 1516.6467 0.0000 0.0000 1797.7793 -7455.8110 304.9667 -9253.5903 -7497.1858 298.8644 754.8022 793.9887 30086.4127 -54.7216 21.8119
TCL: Exiting due to exit command.
