Info: SIMULATION PARAMETERS:
Info: TIMESTEP               2
Info: NUMBER OF STEPS        0
Info: STEPS PER CYCLE        10
Info: PERIODIC CELL BASIS 1  30.9352 0 0
Info: PERIODIC CELL BASIS 2  0 30.2725 0
Info: PERIODIC CELL BASIS 3  0 0 31.9859
Info: PERIODIC CELL CENTER   0 0 0
Info: WRAPPING WATERS AROUND PERIODIC BOUNDARIES ON OUTPUT.
Info: WRAPPING ALL CLUSTERS AROUND PERIODIC BOUNDARIES ON OUTPUT.
Info: FIRST LDB TIMESTEP     50
Info: LAST LDB TIMESTEP     -1
Info: HOM BACKGROUND SCALING 1
Info: PME BACKGROUND SCALING 1
Info: MIN ATOMS PER PATCH    40
Info: EMPTY PATCH LOAD       40 ATOMS
Info: VELOCITY FILE          mobley_6235784_equil.vel
Info: CENTER OF MASS MOVING INITIALLY? NO
Info: DIELECTRIC             1
Info: EXCLUDE                SCALED ONE-FOUR
Info: 1-4 ELECTROSTATICS SCALED BY 0.833333
Info: MODIFIED 1-4 VDW PARAMETERS WILL BE USED
Info: DCD FILENAME           mobley_6235784_prod.dcd
Info: DCD FREQUENCY          100000
Info: DCD FIRST STEP         100000
Info: DCD FILE WILL CONTAIN UNIT CELL DATA
Info: XST FILENAME           mobley_6235784_prod.xst
Info: XST FREQUENCY          100000
Info: NO VELOCITY DCD OUTPUT
Info: NO FORCE DCD OUTPUT
Info: OUTPUT FILENAME        mobley_6235784_prod
Info: BINARY OUTPUT FILES WILL BE USED
Info: RESTART FILENAME       mobley_6235784_prod.restart
Info: RESTART FREQUENCY      100000
Info: BINARY RESTART FILES WILL BE USED
Info: CUTOFF                 9
Info: PAIRLIST DISTANCE      11
Info: PAIRLIST SHRINK RATE   0.01
Info: PAIRLIST GROW RATE     0.01
Info: PAIRLIST TRIGGER       0.3
Info: PAIRLISTS PER CYCLE    2
Info: PAIRLISTS ENABLED
Info: MARGIN                 2
Info: HYDROGEN GROUP CUTOFF  2.5
Info: PATCH DIMENSION        15.5
Info: ENERGY OUTPUT STEPS    100000
Info: ENERGY EVALUATION STEPS    100000
Info: OUTPUT ENERGY PRECISION 4
Info: CROSSTERM ENERGY INCLUDED IN DIHEDRAL
Info: TIMING OUTPUT STEPS    1000000
Info: PRESSURE OUTPUT STEPS  100000
Info: ALCHEMICAL FEP ON
Info: FEP CURRENT LAMBDA VALUE     0
Info: FEP COMPARISON LAMBDA VALUE  0.05
Info: FEP INTRA-ALCHEMICAL NON-BONDED INTERACTIONS WILL BE RETAINED
Info: FEP INTRA-ALCHEMICAL BONDED INTERACTIONS WILL BE RETAINED
Info: FEP VDW SHIFTING COEFFICIENT 5
Info: FEP ELEC. ACTIVE FOR ANNIHILATED PARTICLES BETWEEN LAMBDA = 0 AND LAMBDA = 0.5
Info: FEP ELEC. ACTIVE FOR EXNIHILATED PARTICLES BETWEEN LAMBDA = 0.5 AND LAMBDA = 1
Info: FEP VDW ACTIVE FOR ANNIHILATED PARTICLES BETWEEN LAMBDA = 0 AND LAMBDA = 1
Info: FEP VDW ACTIVE FOR EXNIHILATED PARTICLES BETWEEN LAMBDA = 0 AND LAMBDA = 1
Info: FEP BOND ACTIVE FOR ANNIHILATED PARTICLES BETWEEN LAMBDA = 1 AND LAMBDA = 1
Info: FEP BOND ACTIVE FOR EXNIHILATED PARTICLES BETWEEN LAMBDA = 0 AND LAMBDA = 0
Info: LANGEVIN DYNAMICS ACTIVE
Info: LANGEVIN TEMPERATURE   300
Info: LANGEVIN USING BBK INTEGRATOR
Info: LANGEVIN DAMPING COEFFICIENT IS 1 INVERSE PS
Info: LANGEVIN DYNAMICS APPLIED TO HYDROGENS
Info: LANGEVIN PISTON PRESSURE CONTROL ACTIVE
Info:        TARGET PRESSURE IS 1.01325 BAR
Info:     OSCILLATION PERIOD IS 50 FS
Info:             DECAY TIME IS 25 FS
Info:     PISTON TEMPERATURE IS 300 K
Info:       PRESSURE CONTROL IS GROUP-BASED
Info:    INITIAL STRAIN RATE IS 0.000910144 0.000910144 0.000910144
Info:       CELL FLUCTUATION IS ISOTROPIC
Info: PARTICLE MESH EWALD (PME) ACTIVE
Info: PME TOLERANCE               1e-06
Info: PME EWALD COEFFICIENT       0.348832
Info: PME INTERPOLATION ORDER     4
Info: PME GRID DIMENSIONS         32 32 32
Info: PME MAXIMUM GRID SPACING    1
Info: PME CALCULATION WILL BE PERFORMED ON GPU
Info: FULL ELECTROSTATIC EVALUATION FREQUENCY      2
Info: USING VERLET I (r-RESPA) MTS SCHEME.
Info: C1 SPLITTING OF LONG RANGE ELECTROSTATICS
Info: PLACING ATOMS IN PATCHES BY HYDROGEN GROUPS
Info: RIGID BONDS TO HYDROGEN : ALL
Info:         ERROR TOLERANCE : 1e-08
Info:          MAX ITERATIONS : 100
Info: RIGID WATER USING SETTLE ALGORITHM
Info: RANDOM NUMBER SEED     1743739429
Info: USE HYDROGEN BONDS?    NO
Info: Using AMBER format force field!
Info: AMBER PARM FILE        mobley_6235784.prmtop
Info: COORDINATE PDB         mobley_6235784.pdb
Info: Exclusions will be read from PARM file!
Info: SCNB (VDW SCALING)     2
Info: USING ARITHMETIC MEAN TO COMBINE L-J SIGMA PARAMETERS
Info: BINARY COORDINATES     mobley_6235784_equil.coor
Info: SUMMARY OF PARAMETERS:
Info: 6 BONDS
Info: 6 ANGLES
Info:   6 HARMONIC
Info:   0 COSINE-BASED
Info: 8 DIHEDRAL
Info: 0 IMPROPER
Info: 0 CROSSTERM
Info: 0 VDW
Info: 21 VDW_PAIRS
Info: 0 NBTHOLE_PAIRS
Info: To read alchdata from file: mobley_6235784.pdb
Info: To read alchflag data from column: 5
Info: STRUCTURE SUMMARY:
Info: 2939 ATOMS
Info: 2938 BONDS
Info: 24 ANGLES
Info: 34 DIHEDRALS
Info: 0 IMPROPERS
Info: 0 CROSSTERMS
Info: 2989 EXCLUSIONS
Info: 2934 RIGID BONDS
Info: ALCH: 0 ATOMS TO DISAPPEAR IN FINAL STATE
Info: ALCH: 14 ATOMS TO APPEAR IN FINAL STATE
Info: 5883 DEGREES OF FREEDOM
Info: 980 HYDROGEN GROUPS
Info: 4 ATOMS IN LARGEST HYDROGEN GROUP
Info: 980 MIGRATION GROUPS
Info: 4 ATOMS IN LARGEST MIGRATION GROUP
Info: TOTAL MASS = 17658.2 amu
Info: TOTAL CHARGE = -1.49012e-08 e
Info: MASS DENSITY = 0.978914 g/cm^3
Info: ATOM DENSITY = 0.0981159 atoms/A^3
Info: ADDED 0 IMPLICIT EXCLUSIONS
Info: NONBONDED TABLE R-SQUARED SPACING: 0.0625
Info: NONBONDED TABLE SIZE: 705 POINTS
Info: REMOVING COM VELOCITY 0.0751461 -0.34243 0.0365515
Info: Use 3D box decompostion in PME FFT.
Info: Updated CUDA force table with 4096 elements.
Info: Updated CUDA LJ table with 6 x 6 elements.
Info: Found 17 unique exclusion lists needing 36 bytes
TCL: Running for 1500000 steps
ETITLE: TS BOND ANGLE DIHED IMPRP ELECT VDW BOUNDARY MISC KINETIC TOTAL TEMP POTENTIAL TOTALAVG TEMPAVG PRESSURE GPRESSURE VOLUME PRESSAVG GPRESSAVG
ENERGY: 0 1.8362 6.5888 4.1271 0.0000 -10597.0149 1361.6025 0.0000 0.0000 1736.6379 -7486.2224 297.0987 -9222.8603 -7486.2224 297.0987 -643.0908 -565.1394 29954.3841 -643.0908 -565.1394
ENERGY: 300000 0.2303 6.5727 1.7735 0.0000 -10627.4733 1436.4018 0.0000 0.0000 1819.8088 -7362.6861 311.3274 -9182.4948 -7466.0588 301.2446 433.9207 492.7657 29563.8678 -159.4158 -95.3453
ENERGY: 600000 1.4834 3.4971 2.1946 0.0000 -10561.5969 1359.1057 0.0000 0.0000 1770.6205 -7424.6955 302.9124 -9195.3160 -7454.2651 301.0520 -658.5934 -598.0756 30243.8649 -332.3446 -276.2059
ENERGY: 900000 0.5911 7.8051 2.6921 0.0000 -10637.7173 1462.8890 0.0000 0.0000 1798.3769 -7365.3632 307.6609 -9163.7401 -7452.0232 301.4033 188.1246 290.4217 30409.0751 -178.9740 -121.4820
ENERGY: 1200000 1.7417 4.8242 1.8626 0.0000 -10541.9021 1374.7400 0.0000 0.0000 1726.7846 -7431.9490 295.4131 -9158.7336 -7453.0551 300.1861 -108.2728 -55.6468 29797.3328 -208.1126 -157.2503
ENERGY: 1500000 1.2493 2.7371 1.8272 0.0000 -10811.7817 1559.5959 0.0000 0.0000 1739.4050 -7506.9673 297.5721 -9246.3722 -7468.5395 299.5609 793.6442 886.9601 29980.7919 -161.6111 -106.7714
TCL: Running FEP window   2: Lambda1 0.05   Lambda2 0.1    [dLambda 0.05  ]
TCL: Setting parameter firsttimestep to 0
TCL: Setting parameter alchLambda to 0.05
Info: NONBONDED TABLE R-SQUARED SPACING: 0.0625
Info: NONBONDED TABLE SIZE: 705 POINTS
TCL: Setting parameter alchLambda2 to 0.1
Info: NONBONDED TABLE R-SQUARED SPACING: 0.0625
Info: NONBONDED TABLE SIZE: 705 POINTS
TCL: Running for 1500000 steps
ETITLE: TS BOND ANGLE DIHED IMPRP ELECT VDW BOUNDARY MISC KINETIC TOTAL TEMP POTENTIAL TOTALAVG TEMPAVG PRESSURE GPRESSURE VOLUME PRESSAVG GPRESSAVG
ENERGY: 0 1.2493 2.7371 1.8272 0.0000 -10811.7832 1561.5636 0.0000 0.0000 1738.5041 -7505.9019 297.4180 -9244.4060 -7505.9019 297.4180 793.9351 888.0917 29980.7919 793.9351 888.0917
ENERGY: 300000 2.3983 9.6256 1.9631 0.0000 -10737.7371 1439.8032 0.0000 0.0000 1731.0038 -7552.9431 296.1349 -9283.9469 -7489.1261 298.4005 -19.9918 86.5158 29628.5436 78.9764 171.0234
ENERGY: 600000 0.4434 5.4231 2.1305 0.0000 -10578.8010 1372.0217 0.0000 0.0000 1729.1464 -7469.6359 295.8171 -9198.7823 -7451.8240 299.9257 -496.9025 -435.5066 30332.3653 -134.6445 -53.7021
ENERGY: 900000 2.6117 14.6329 1.7778 0.0000 -10543.3062 1397.5490 0.0000 0.0000 1756.8985 -7369.8363 300.5649 -9126.7349 -7432.6433 300.0710 -271.1726 -159.8715 30392.5230 -131.0465 -49.6595
ENERGY: 1200000 2.3707 4.8221 1.9682 0.0000 -10692.3878 1486.5585 0.0000 0.0000 1762.3237 -7434.3447 301.4930 -9196.6684 -7432.4518 300.3604 135.5734 208.3338 30338.2793 -102.4459 -24.7425
ENERGY: 1500000 1.0769 6.3834 3.3338 0.0000 -10669.1430 1412.8714 0.0000 0.0000 1770.2742 -7475.2033 302.8531 -9245.4775 -7438.0095 300.4073 -233.9181 -192.8820 29955.2968 -82.8729 -14.0955
TCL: Running FEP window   3: Lambda1 0.1    Lambda2 0.15000000000000002 [dLambda 0.05000000000000002]
TCL: Setting parameter firsttimestep to 0
TCL: Setting parameter alchLambda to 0.1
Info: NONBONDED TABLE R-SQUARED SPACING: 0.0625
Info: NONBONDED TABLE SIZE: 705 POINTS
TCL: Setting parameter alchLambda2 to 0.15000000000000002
Info: NONBONDED TABLE R-SQUARED SPACING: 0.0625
Info: NONBONDED TABLE SIZE: 705 POINTS
TCL: Running for 1500000 steps
ETITLE: TS BOND ANGLE DIHED IMPRP ELECT VDW BOUNDARY MISC KINETIC TOTAL TEMP POTENTIAL TOTALAVG TEMPAVG PRESSURE GPRESSURE VOLUME PRESSAVG GPRESSAVG
ENERGY: 0 1.0769 6.3834 3.3338 0.0000 -10669.1432 1415.4093 0.0000 0.0000 1769.4306 -7473.5091 302.7088 -9242.9398 -7473.5091 302.7088 -258.4829 -183.7953 29955.2968 -258.4829 -183.7953
ENERGY: 300000 1.0839 5.2480 3.9356 0.0000 -10611.2905 1357.5273 0.0000 0.0000 1803.1379 -7440.3579 308.4754 -9243.4958 -7459.1573 303.6007 -712.1234 -674.1256 30115.2163 -88.5072 -20.9059
ENERGY: 600000 1.0371 4.4323 2.2709 0.0000 -10625.2902 1446.5852 0.0000 0.0000 1779.3425 -7391.6222 304.4045 -9170.9647 -7432.7864 303.4705 26.4995 67.6112 30863.1584 -136.2665 -64.9491
ENERGY: 900000 0.6653 7.1450 3.7595 0.0000 -10617.4482 1401.9935 0.0000 0.0000 1787.0001 -7416.8849 305.7145 -9203.8850 -7424.8104 303.2078 -90.8197 -38.2819 29842.1698 -0.7700 63.1340
ENERGY: 1200000 0.6847 10.1158 1.9397 0.0000 -10668.4811 1441.8482 0.0000 0.0000 1717.3880 -7496.5047 293.8055 -9213.8927 -7434.6001 300.9739 -142.7047 -107.0094 30273.8183 -25.3539 41.8607
ENERGY: 1500000 0.0995 6.6768 2.3967 0.0000 -10731.9444 1481.5714 0.0000 0.0000 1757.9466 -7483.2535 300.7442 -9241.2001 -7438.5523 301.1590 240.4403 306.2114 30053.5962 7.3877 73.0363
TCL: Running FEP window   4: Lambda1 0.15000000000000002 Lambda2 0.2    [dLambda 0.04999999999999999]
TCL: Setting parameter firsttimestep to 0
TCL: Setting parameter alchLambda to 0.15000000000000002
Info: NONBONDED TABLE R-SQUARED SPACING: 0.0625
Info: NONBONDED TABLE SIZE: 705 POINTS
TCL: Setting parameter alchLambda2 to 0.2
Info: NONBONDED TABLE R-SQUARED SPACING: 0.0625
Info: NONBONDED TABLE SIZE: 705 POINTS
TCL: Running for 1500000 steps
ETITLE: TS BOND ANGLE DIHED IMPRP ELECT VDW BOUNDARY MISC KINETIC TOTAL TEMP POTENTIAL TOTALAVG TEMPAVG PRESSURE GPRESSURE VOLUME PRESSAVG GPRESSAVG
ENERGY: 0 0.0995 6.6768 2.3967 0.0000 -10731.9438 1481.5660 0.0000 0.0000 1757.0875 -7484.1174 300.5972 -9241.2049 -7484.1174 300.5972 241.9429 310.6351 30053.5962 241.9429 310.6351
ENERGY: 300000 2.1306 6.8182 2.4027 0.0000 -10524.1712 1384.9606 0.0000 0.0000 1767.3375 -7360.5217 302.3507 -9127.8592 -7431.7249 299.7091 -381.4478 -288.3095 30449.2744 -3.4983 81.7457
ENERGY: 600000 0.9650 7.5173 2.5742 0.0000 -10755.3409 1560.9675 0.0000 0.0000 1722.4989 -7460.8180 294.6799 -9183.3169 -7434.2917 301.4394 890.3374 869.1002 30452.3602 166.7670 217.5756
ENERGY: 900000 0.3046 4.6592 2.2774 0.0000 -10679.6636 1403.7860 0.0000 0.0000 1716.8234 -7551.8130 293.7089 -9268.6364 -7446.9855 299.6497 -477.4512 -460.3051 30155.3255 -1.2022 57.2811
ENERGY: 1200000 0.1383 4.3556 2.2501 0.0000 -10699.2357 1470.8117 0.0000 0.0000 1739.6036 -7482.0763 297.6061 -9221.6799 -7447.6372 299.0905 171.4431 246.0031 30196.7845 2.9467 60.9528
ENERGY: 1500000 0.7452 6.1427 2.7069 0.0000 -10567.9013 1367.5863 0.0000 0.0000 1746.5728 -7444.1475 298.7984 -9190.7202 -7444.9190 299.5659 -465.9487 -431.6483 30252.2045 -60.0736 -4.1243
TCL: Running FEP window   5: Lambda1 0.2    Lambda2 0.25   [dLambda 0.04999999999999999]
TCL: Setting parameter firsttimestep to 0
TCL: Setting parameter alchLambda to 0.2
Info: NONBONDED TABLE R-SQUARED SPACING: 0.0625
Info: NONBONDED TABLE SIZE: 705 POINTS
TCL: Setting parameter alchLambda2 to 0.25
Info: NONBONDED TABLE R-SQUARED SPACING: 0.0625
Info: NONBONDED TABLE SIZE: 705 POINTS
TCL: Running for 1500000 steps
ETITLE: TS BOND ANGLE DIHED IMPRP ELECT VDW BOUNDARY MISC KINETIC TOTAL TEMP POTENTIAL TOTALAVG TEMPAVG PRESSURE GPRESSURE VOLUME PRESSAVG GPRESSAVG
ENERGY: 0 0.7452 6.1427 2.7069 0.0000 -10567.9007 1368.2825 0.0000 0.0000 1745.7127 -7444.3107 298.6512 -9190.0234 -7444.3107 298.6512 -495.2701 -425.7474 30252.2045 -495.2701 -425.7474
ENERGY: 300000 2.1858 6.1660 2.9436 0.0000 -10656.4404 1473.1054 0.0000 0.0000 1691.4786 -7480.5611 289.3730 -9172.0397 -7443.2861 298.3362 370.8761 370.3229 30162.2377 -205.1955 -145.9897
ENERGY: 600000 1.1626 10.4279 3.3009 0.0000 -10633.8622 1463.9502 0.0000 0.0000 1780.9188 -7374.1018 304.6742 -9155.0206 -7419.8551 301.0672 337.9868 384.1521 30347.7588 -125.9406 -73.3968
ENERGY: 900000 2.2097 8.2578 2.2223 0.0000 -10526.6315 1353.3526 0.0000 0.0000 1731.0229 -7429.5662 296.1382 -9160.5891 -7430.6591 300.3464 -490.7834 -508.2847 30344.4848 -70.2199 -12.2981
ENERGY: 1200000 1.0126 8.6896 2.5364 0.0000 -10554.8041 1399.2675 0.0000 0.0000 1797.8430 -7345.4548 307.5695 -9143.2979 -7413.5576 301.4289 -41.1814 55.2203 29994.9008 -31.5236 28.7661
ENERGY: 1500000 1.7092 7.1804 3.0810 0.0000 -10585.5956 1377.6084 0.0000 0.0000 1734.0108 -7462.0059 296.6493 -9196.0167 -7428.5471 299.8711 -292.7924 -304.8726 29874.6097 -93.0575 -35.9638
TCL: Running FEP window   6: Lambda1 0.25   Lambda2 0.3    [dLambda 0.04999999999999999]
TCL: Setting parameter firsttimestep to 0
TCL: Setting parameter alchLambda to 0.25
Info: NONBONDED TABLE R-SQUARED SPACING: 0.0625
Info: NONBONDED TABLE SIZE: 705 POINTS
TCL: Setting parameter alchLambda2 to 0.3
Info: NONBONDED TABLE R-SQUARED SPACING: 0.0625
Info: NONBONDED TABLE SIZE: 705 POINTS
TCL: Running for 1500000 steps
ETITLE: TS BOND ANGLE DIHED IMPRP ELECT VDW BOUNDARY MISC KINETIC TOTAL TEMP POTENTIAL TOTALAVG TEMPAVG PRESSURE GPRESSURE VOLUME PRESSAVG GPRESSAVG
ENERGY: 0 1.7092 7.1804 3.0810 0.0000 -10585.5956 1378.2278 0.0000 0.0000 1733.1997 -7462.1976 296.5105 -9195.3973 -7462.1976 296.5105 -374.7534 -297.4467 29874.6097 -374.7534 -297.4467
ENERGY: 300000 1.1895 5.5967 2.9140 0.0000 -10558.9373 1355.8390 0.0000 0.0000 1817.8825 -7375.5156 310.9978 -9193.3981 -7444.0317 301.0421 -660.8185 -579.5844 30147.8683 -310.6675 -253.5646
ENERGY: 600000 0.7209 8.5008 3.3781 0.0000 -10573.7207 1380.4722 0.0000 0.0000 1810.5236 -7370.1250 309.7389 -9180.6486 -7442.0224 302.0460 -389.4318 -344.5611 30246.6194 -210.3841 -135.2978
ENERGY: 900000 2.2839 6.8419 2.3996 0.0000 -10803.3074 1565.2467 0.0000 0.0000 1744.1021 -7482.4332 298.3757 -9226.5353 -7463.3454 300.0965 857.6441 894.8184 30086.7443 40.6568 107.7792
ENERGY: 1200000 1.1010 4.4207 2.0907 0.0000 -10642.2879 1408.9288 0.0000 0.0000 1759.3247 -7466.4219 300.9799 -9225.7467 -7462.4718 300.4710 -219.9702 -197.4594 30099.8862 -122.5631 -57.2589
ENERGY: 1500000 0.7181 7.6388 2.2074 0.0000 -10655.7432 1425.8985 0.0000 0.0000 1755.5828 -7463.6977 300.3398 -9219.2805 -7465.4299 300.2574 -238.4421 -129.4576 30336.1058 -171.9926 -102.6690
TCL: Running FEP window   7: Lambda1 0.3    Lambda2 0.35   [dLambda 0.04999999999999999]
TCL: Setting parameter firsttimestep to 0
TCL: Setting parameter alchLambda to 0.3
Info: NONBONDED TABLE R-SQUARED SPACING: 0.0625
Info: NONBONDED TABLE SIZE: 705 POINTS
TCL: Setting parameter alchLambda2 to 0.35
Info: NONBONDED TABLE R-SQUARED SPACING: 0.0625
Info: NONBONDED TABLE SIZE: 705 POINTS
TCL: Running for 1500000 steps
ETITLE: TS BOND ANGLE DIHED IMPRP ELECT VDW BOUNDARY MISC KINETIC TOTAL TEMP POTENTIAL TOTALAVG TEMPAVG PRESSURE GPRESSURE VOLUME PRESSAVG GPRESSAVG
ENERGY: 0 0.7181 7.6388 2.2074 0.0000 -10655.7446 1426.0182 0.0000 0.0000 1754.7027 -7464.4594 300.1892 -9219.1621 -7464.4594 300.1892 -208.9466 -122.5300 30336.1058 -208.9466 -122.5300
ENERGY: 300000 1.4598 5.0848 3.2087 0.0000 -10630.4504 1369.2427 0.0000 0.0000 1766.1435 -7485.3109 302.1465 -9251.4544 -7464.6677 301.0589 -612.8976 -561.2210 30315.7336 131.7168 219.7474
ENERGY: 600000 0.4437 9.1799 2.8158 0.0000 -10712.4674 1456.6525 0.0000 0.0000 1736.5196 -7506.8559 297.0785 -9243.3755 -7488.7696 299.8958 49.3048 151.9716 29878.1454 173.4216 255.0888
ENERGY: 900000 0.9311 6.7685 2.1031 0.0000 -10566.3395 1399.5328 0.0000 0.0000 1778.2456 -7378.7584 304.2169 -9157.0040 -7460.9249 300.4574 -255.1897 -184.5809 30454.8971 6.9384 82.4621
ENERGY: 1200000 1.0274 3.6649 2.0903 0.0000 -10489.5465 1355.9863 0.0000 0.0000 1759.9747 -7366.8028 301.0911 -9126.7776 -7449.1803 301.1608 -251.5683 -188.9125 29750.2567 -85.9305 -7.2438
ENERGY: 1500000 0.2835 8.2307 2.8297 0.0000 -10730.9904 1469.3394 0.0000 0.0000 1759.9023 -7490.4048 301.0787 -9250.3071 -7455.7531 300.5356 178.5772 273.2615 30174.7502 -52.9070 22.4680
TCL: Running FEP window   8: Lambda1 0.35   Lambda2 0.39999999999999997 [dLambda 0.04999999999999999]
TCL: Setting parameter firsttimestep to 0
TCL: Setting parameter alchLambda to 0.35
Info: NONBONDED TABLE R-SQUARED SPACING: 0.0625
Info: NONBONDED TABLE SIZE: 705 POINTS
TCL: Setting parameter alchLambda2 to 0.39999999999999997
Info: NONBONDED TABLE R-SQUARED SPACING: 0.0625
Info: NONBONDED TABLE SIZE: 705 POINTS
TCL: Running for 1500000 steps
ETITLE: TS BOND ANGLE DIHED IMPRP ELECT VDW BOUNDARY MISC KINETIC TOTAL TEMP POTENTIAL TOTALAVG TEMPAVG PRESSURE GPRESSURE VOLUME PRESSAVG GPRESSAVG
ENERGY: 0 0.2835 8.2307 2.8297 0.0000 -10730.9888 1469.1509 0.0000 0.0000 1759.0525 -7491.4414 300.9334 -9250.4939 -7491.4414 300.9334 193.5000 276.6771 30174.7502 193.5000 276.6771
ENERGY: 300000 2.3258 9.5844 2.2174 0.0000 -10797.2910 1577.4548 0.0000 0.0000 1705.0295 -7500.6791 291.6913 -9205.7086 -7489.2155 297.8647 981.2074 1029.7546 30243.3366 -20.0567 55.4716
ENERGY: 600000 0.9428 7.1105 2.0260 0.0000 -10567.7105 1400.9325 0.0000 0.0000 1761.3517 -7395.3469 301.3267 -9156.6986 -7441.0631 298.9076 -144.0940 -21.5211 30049.3544 -233.6255 -162.2502
ENERGY: 900000 1.7217 6.0831 1.8455 0.0000 -10729.2501 1495.2425 0.0000 0.0000 1698.7540 -7525.6032 290.6177 -9224.3572 -7461.5629 298.4844 496.0656 517.8326 30015.6884 54.5490 105.3205
ENERGY: 1200000 1.6866 5.6836 4.4298 0.0000 -10751.0983 1487.0181 0.0000 0.0000 1693.9694 -7558.3107 289.7991 -9252.2802 -7455.5001 298.2677 335.6063 383.3317 29842.8262 69.3891 122.9854
ENERGY: 1500000 1.3634 3.8279 2.1282 0.0000 -10535.4124 1344.5581 0.0000 0.0000 1747.2480 -7436.2868 298.9139 -9183.5348 -7435.9462 299.6763 -786.1068 -688.4890 30366.4235 25.0370 84.9097
TCL: Running FEP window   9: Lambda1 0.39999999999999997 Lambda2 0.44999999999999996 [dLambda 0.04999999999999999]
TCL: Setting parameter firsttimestep to 0
TCL: Setting parameter alchLambda to 0.39999999999999997
Info: NONBONDED TABLE R-SQUARED SPACING: 0.0625
Info: NONBONDED TABLE SIZE: 705 POINTS
TCL: Setting parameter alchLambda2 to 0.44999999999999996
Info: NONBONDED TABLE R-SQUARED SPACING: 0.0625
Info: NONBONDED TABLE SIZE: 705 POINTS
TCL: Running for 1500000 steps
ETITLE: TS BOND ANGLE DIHED IMPRP ELECT VDW BOUNDARY MISC KINETIC TOTAL TEMP POTENTIAL TOTALAVG TEMPAVG PRESSURE GPRESSURE VOLUME PRESSAVG GPRESSAVG
ENERGY: 0 1.3634 3.8279 2.1282 0.0000 -10535.4128 1345.1793 0.0000 0.0000 1746.3749 -7436.5390 298.7645 -9182.9139 -7436.5390 298.7645 -765.5070 -680.6376 30366.4235 -765.5070 -680.6376
ENERGY: 300000 1.2681 5.2316 2.0516 0.0000 -10569.1381 1357.3479 0.0000 0.0000 1767.3154 -7435.9235 302.3470 -9203.2389 -7453.2507 303.2491 -383.3201 -329.9159 29735.7810 -504.2080 -434.6695
ENERGY: 600000 0.4443 8.2901 1.7512 0.0000 -10645.9667 1406.9211 0.0000 0.0000 1786.2858 -7442.2741 305.5924 -9228.5600 -7464.2122 302.9701 -380.9415 -311.5669 30467.4404 -198.2272 -127.7847
ENERGY: 900000 1.3050 6.0246 2.0509 0.0000 -10592.1454 1375.9595 0.0000 0.0000 1748.3402 -7458.4653 299.1007 -9206.8055 -7460.8970 301.3429 -461.3446 -332.7811 30103.0598 -129.0142 -65.3795
ENERGY: 1200000 2.4785 4.2114 2.0915 0.0000 -10827.1701 1552.8593 0.0000 0.0000 1832.4576 -7433.0717 313.4913 -9265.5294 -7456.3012 302.2317 1002.0205 1042.8095 29530.8988 -127.0756 -70.0649
ENERGY: 1500000 1.9473 9.5044 2.6536 0.0000 -10615.7150 1384.5201 0.0000 0.0000 1771.5362 -7445.5533 303.0690 -9217.0895 -7450.1545 302.3786 -301.1680 -258.3567 29857.4676 -122.2905 -68.1502
TCL: Running FEP window  10: Lambda1 0.44999999999999996 Lambda2 0.49999999999999994 [dLambda 0.04999999999999999]
TCL: Setting parameter firsttimestep to 0
TCL: Setting parameter alchLambda to 0.44999999999999996
Info: NONBONDED TABLE R-SQUARED SPACING: 0.0625
Info: NONBONDED TABLE SIZE: 705 POINTS
TCL: Setting parameter alchLambda2 to 0.49999999999999994
Info: NONBONDED TABLE R-SQUARED SPACING: 0.0625
Info: NONBONDED TABLE SIZE: 705 POINTS
TCL: Running for 1500000 steps
ETITLE: TS BOND ANGLE DIHED IMPRP ELECT VDW BOUNDARY MISC KINETIC TOTAL TEMP POTENTIAL TOTALAVG TEMPAVG PRESSURE GPRESSURE VOLUME PRESSAVG GPRESSAVG
ENERGY: 0 1.9473 9.5044 2.6536 0.0000 -10615.7150 1384.8164 0.0000 0.0000 1770.6562 -7446.1370 302.9185 -9216.7932 -7446.1370 302.9185 -341.7139 -255.7815 29857.4676 -341.7139 -255.7815
ENERGY: 300000 2.2620 6.7327 2.3757 0.0000 -10532.3764 1339.1088 0.0000 0.0000 1767.7278 -7414.1694 302.4175 -9181.8972 -7467.9156 303.9691 -689.0288 -621.0169 29904.4751 -190.2910 -120.1088
ENERGY: 600000 0.7852 5.3101 1.7584 0.0000 -10630.6940 1410.8147 0.0000 0.0000 1750.2114 -7461.8142 299.4209 -9212.0256 -7448.9579 303.4404 -262.8172 -188.9527 30221.1564 -125.6511 -60.6257
ENERGY: 900000 1.4076 6.6046 2.4540 0.0000 -10707.8918 1459.1149 0.0000 0.0000 1741.3961 -7496.9146 297.9128 -9238.3108 -7462.5513 301.1565 241.9622 271.3033 30007.5809 -108.0910 -47.9107
ENERGY: 1200000 0.4690 8.1923 1.9826 0.0000 -10689.9830 1469.5340 0.0000 0.0000 1769.8228 -7439.9823 302.7759 -9209.8051 -7457.4963 301.2849 251.0130 301.2977 30341.7915 -159.2100 -102.2256
ENERGY: 1500000 1.6104 9.4373 1.7955 0.0000 -10608.8637 1408.8035 0.0000 0.0000 1797.2071 -7390.0100 307.4607 -9187.2171 -7449.7124 301.7307 -99.9723 -26.1985 30095.2144 -244.4222 -183.4445
TCL: Running FEP window  11: Lambda1 0.49999999999999994 Lambda2 0.5499999999999999 [dLambda 0.04999999999999999]
TCL: Setting parameter firsttimestep to 0
TCL: Setting parameter alchLambda to 0.49999999999999994
Info: NONBONDED TABLE R-SQUARED SPACING: 0.0625
Info: NONBONDED TABLE SIZE: 705 POINTS
TCL: Setting parameter alchLambda2 to 0.5499999999999999
Info: NONBONDED TABLE R-SQUARED SPACING: 0.0625
Info: NONBONDED TABLE SIZE: 705 POINTS
TCL: Running for 1500000 steps
ETITLE: TS BOND ANGLE DIHED IMPRP ELECT VDW BOUNDARY MISC KINETIC TOTAL TEMP POTENTIAL TOTALAVG TEMPAVG PRESSURE GPRESSURE VOLUME PRESSAVG GPRESSAVG
ENERGY: 0 1.6104 9.4373 1.7955 0.0000 -10608.8644 1409.0870 0.0000 0.0000 1796.2936 -7390.6407 307.3045 -9186.9343 -7390.6407 307.3045 -100.3337 -15.2264 30095.2144 -100.3337 -15.2264
ENERGY: 300000 0.7590 7.4492 2.6194 0.0000 -10660.5743 1380.3494 0.0000 0.0000 1706.5082 -7562.8891 291.9442 -9269.3973 -7448.8965 299.9469 -535.6268 -461.1779 29785.3276 99.7556 162.1945
ENERGY: 600000 0.1967 7.5760 2.6001 0.0000 -10674.3848 1381.7414 0.0000 0.0000 1762.3810 -7519.8896 301.5028 -9282.2706 -7467.4566 298.8183 -543.9105 -544.7214 30207.8905 28.5970 82.7346
ENERGY: 900000 0.8481 11.8071 2.0441 0.0000 -10714.5192 1459.1724 0.0000 0.0000 1763.1922 -7477.4554 301.6416 -9240.6476 -7481.5994 299.0679 55.9165 133.1220 30291.4026 -60.6161 -27.8748
ENERGY: 1200000 1.2854 5.5910 2.9805 0.0000 -10439.9737 1271.4177 0.0000 0.0000 1722.2377 -7436.4614 294.6352 -9158.6991 -7473.7685 299.8807 -954.5185 -892.5196 30056.9972 -219.4160 -179.1884
ENERGY: 1500000 0.3164 6.3632 1.7741 0.0000 -10588.0492 1419.2156 0.0000 0.0000 1746.1238 -7414.2560 298.7216 -9160.3798 -7467.1624 300.1604 -126.1980 -19.9137 30533.0991 -182.4394 -131.9624
TCL: Running FEP window  12: Lambda1 0.5499999999999999 Lambda2 0.6    [dLambda 0.050000000000000044]
TCL: Setting parameter firsttimestep to 0
TCL: Setting parameter alchLambda to 0.5499999999999999
Info: NONBONDED TABLE R-SQUARED SPACING: 0.0625
Info: NONBONDED TABLE SIZE: 705 POINTS
TCL: Setting parameter alchLambda2 to 0.6
Info: NONBONDED TABLE R-SQUARED SPACING: 0.0625
Info: NONBONDED TABLE SIZE: 705 POINTS
TCL: Running for 1500000 steps
ETITLE: TS BOND ANGLE DIHED IMPRP ELECT VDW BOUNDARY MISC KINETIC TOTAL TEMP POTENTIAL TOTALAVG TEMPAVG PRESSURE GPRESSURE VOLUME PRESSAVG GPRESSAVG
ENERGY: 0 0.3164 6.3632 1.7741 0.0000 -10588.1348 1419.9808 0.0000 0.0000 1745.2691 -7414.4312 298.5753 -9159.7003 -7414.4312 298.5753 -89.2548 -7.0876 30533.0991 -89.2548 -7.0876
ENERGY: 300000 1.3242 6.5065 2.2225 0.0000 -10642.4346 1426.2028 0.0000 0.0000 1715.5876 -7490.5911 293.4975 -9206.1786 -7479.9364 296.7380 -227.4000 -167.6843 30407.3458 -215.6363 -148.4284
ENERGY: 600000 0.3714 6.5137 2.6757 0.0000 -10598.6151 1394.1058 0.0000 0.0000 1734.7198 -7460.2288 296.7706 -9194.9486 -7456.6049 299.3650 -191.1900 -59.4037 30006.9844 -318.3152 -242.0471
ENERGY: 900000 1.9573 4.7297 3.7598 0.0000 -10780.6374 1506.8152 0.0000 0.0000 1797.4299 -7465.9455 307.4989 -9263.3754 -7456.6062 300.0940 323.4075 429.1984 30231.7046 -215.2389 -141.3765
ENERGY: 1200000 1.7362 6.5878 2.9194 0.0000 -10623.4457 1451.2112 0.0000 0.0000 1777.3629 -7383.6282 304.0659 -9160.9911 -7449.0204 300.7215 350.6697 453.7651 29989.1404 -192.9556 -118.2886
ENERGY: 1500000 0.3786 5.8655 2.1584 0.0000 -10545.5504 1406.8319 0.0000 0.0000 1737.6135 -7392.7026 297.2656 -9130.3160 -7446.2949 300.6443 22.4758 71.6085 30278.0541 -215.8769 -143.3579
TCL: Running FEP window  13: Lambda1 0.6    Lambda2 0.65   [dLambda 0.050000000000000044]
TCL: Setting parameter firsttimestep to 0
TCL: Setting parameter alchLambda to 0.6
Info: NONBONDED TABLE R-SQUARED SPACING: 0.0625
Info: NONBONDED TABLE SIZE: 705 POINTS
TCL: Setting parameter alchLambda2 to 0.65
Info: NONBONDED TABLE R-SQUARED SPACING: 0.0625
Info: NONBONDED TABLE SIZE: 705 POINTS
TCL: Running for 1500000 steps
ETITLE: TS BOND ANGLE DIHED IMPRP ELECT VDW BOUNDARY MISC KINETIC TOTAL TEMP POTENTIAL TOTALAVG TEMPAVG PRESSURE GPRESSURE VOLUME PRESSAVG GPRESSAVG
ENERGY: 0 0.3786 5.8655 2.1584 0.0000 -10545.4946 1406.8452 0.0000 0.0000 1736.7037 -7393.5432 297.1100 -9130.2469 -7393.5432 297.1100 -2.3773 81.5811 30278.0541 -2.3773 81.5811
ENERGY: 300000 0.9620 4.2812 1.8109 0.0000 -10540.7047 1325.8637 0.0000 0.0000 1711.6692 -7496.1176 292.8272 -9207.7868 -7502.3907 295.4341 -848.1559 -879.7899 30402.1877 -318.1590 -275.7308
ENERGY: 600000 0.0230 6.4794 6.2059 0.0000 -10633.1237 1442.8842 0.0000 0.0000 1684.3933 -7493.1379 288.1609 -9177.5313 -7501.3520 294.4096 222.5420 294.4863 30065.2920 -44.1353 10.4487
ENERGY: 900000 1.8232 6.3798 2.4694 0.0000 -10767.3117 1478.7916 0.0000 0.0000 1799.0671 -7478.7806 307.7789 -9277.8477 -7467.7998 297.6497 419.7911 523.2692 29946.3659 35.5092 97.6360
ENERGY: 1200000 3.4431 6.5903 1.6846 0.0000 -10509.8981 1303.0733 0.0000 0.0000 1754.4769 -7440.6299 300.1506 -9195.1068 -7454.2604 298.4590 -1329.0261 -1261.7128 30977.5837 -166.6586 -97.9772
ENERGY: 1500000 0.5321 6.2441 2.6641 0.0000 -10670.4257 1432.2361 0.0000 0.0000 1805.6906 -7423.0587 308.9121 -9228.7493 -7449.5854 299.9709 278.7189 405.3390 29880.3587 -179.7762 -109.1417
TCL: Running FEP window  14: Lambda1 0.65   Lambda2 0.7000000000000001 [dLambda 0.050000000000000044]
TCL: Setting parameter firsttimestep to 0
TCL: Setting parameter alchLambda to 0.65
Info: NONBONDED TABLE R-SQUARED SPACING: 0.0625
Info: NONBONDED TABLE SIZE: 705 POINTS
TCL: Setting parameter alchLambda2 to 0.7000000000000001
Info: NONBONDED TABLE R-SQUARED SPACING: 0.0625
Info: NONBONDED TABLE SIZE: 705 POINTS
TCL: Running for 1500000 steps
ETITLE: TS BOND ANGLE DIHED IMPRP ELECT VDW BOUNDARY MISC KINETIC TOTAL TEMP POTENTIAL TOTALAVG TEMPAVG PRESSURE GPRESSURE VOLUME PRESSAVG GPRESSAVG
ENERGY: 0 0.5321 6.2441 2.6641 0.0000 -10670.5143 1432.8985 0.0000 0.0000 1804.8404 -7423.3350 308.7666 -9228.1754 -7423.3350 308.7666 331.2509 419.6133 29880.3587 331.2509 419.6133
ENERGY: 300000 1.4923 9.4730 2.3508 0.0000 -10599.8006 1383.1935 0.0000 0.0000 1745.3336 -7457.9574 298.5864 -9203.2910 -7477.2361 300.0556 -92.0608 -90.9954 29834.0779 153.0505 196.3321
ENERGY: 600000 1.6565 6.0020 2.0417 0.0000 -10599.2958 1392.1712 0.0000 0.0000 1753.0126 -7444.4119 299.9001 -9197.4245 -7473.2867 300.5780 -127.7055 -88.2112 29925.6023 -91.6286 -43.7298
ENERGY: 900000 1.0077 8.7372 4.1770 0.0000 -10604.5587 1409.9150 0.0000 0.0000 1755.9207 -7424.8011 300.3976 -9180.7217 -7467.8236 299.6822 -66.3761 -34.1044 30273.0081 -181.2998 -129.0835
ENERGY: 1200000 0.5611 6.9340 1.7685 0.0000 -10502.0403 1332.0632 0.0000 0.0000 1729.5095 -7431.2040 295.8792 -9160.7135 -7458.0809 299.4390 -696.9483 -679.8144 30196.7576 -229.7146 -170.7162
ENERGY: 1500000 2.5180 4.7282 2.9334 0.0000 -10765.7366 1472.4291 0.0000 0.0000 1797.1348 -7485.9931 307.4484 -9283.1279 -7471.0252 299.0862 40.7195 121.5415 30278.0809 -148.0076 -88.6917
TCL: Running FEP window  15: Lambda1 0.7000000000000001 Lambda2 0.7500000000000001 [dLambda 0.050000000000000044]
TCL: Setting parameter firsttimestep to 0
TCL: Setting parameter alchLambda to 0.7000000000000001
Info: NONBONDED TABLE R-SQUARED SPACING: 0.0625
Info: NONBONDED TABLE SIZE: 705 POINTS
TCL: Setting parameter alchLambda2 to 0.7500000000000001
Info: NONBONDED TABLE R-SQUARED SPACING: 0.0625
Info: NONBONDED TABLE SIZE: 705 POINTS
TCL: Running for 1500000 steps
ETITLE: TS BOND ANGLE DIHED IMPRP ELECT VDW BOUNDARY MISC KINETIC TOTAL TEMP POTENTIAL TOTALAVG TEMPAVG PRESSURE GPRESSURE VOLUME PRESSAVG GPRESSAVG
ENERGY: 0 2.5180 4.7282 2.9334 0.0000 -10765.9683 1472.9891 0.0000 0.0000 1796.2719 -7486.5277 307.3007 -9282.7995 -7486.5277 307.3007 65.5395 134.1883 30278.0809 65.5395 134.1883
ENERGY: 300000 0.8603 5.3631 1.7167 0.0000 -10533.2111 1388.4493 0.0000 0.0000 1733.1180 -7403.7037 296.4966 -9136.8217 -7487.0994 298.9190 -63.8538 -18.9680 29982.5643 -178.3706 -94.1572
ENERGY: 600000 0.5919 4.1958 2.7266 0.0000 -10667.1855 1504.8495 0.0000 0.0000 1716.7937 -7438.0281 293.7039 -9154.8218 -7467.3155 298.0590 662.6499 715.4415 30258.0872 -113.7813 -41.7861
ENERGY: 900000 3.4582 9.7355 1.8502 0.0000 -10682.9834 1476.9708 0.0000 0.0000 1780.5664 -7410.4023 304.6139 -9190.9687 -7446.8323 298.7333 413.4816 508.5494 30146.5492 -103.1339 -29.6866
ENERGY: 1200000 3.3721 6.3367 2.1691 0.0000 -10636.3512 1444.0375 0.0000 0.0000 1717.9533 -7462.4825 293.9022 -9180.4359 -7447.6744 298.9500 -281.8162 -208.6242 30799.8314 -69.2745 -1.0498
ENERGY: 1500000 0.8968 8.3039 2.5415 0.0000 -10671.0950 1454.3989 0.0000 0.0000 1725.1850 -7479.7689 295.1394 -9204.9539 -7450.0778 298.6670 377.9068 462.0428 29793.7653 9.9702 88.3069
TCL: Running FEP window  16: Lambda1 0.7500000000000001 Lambda2 0.8000000000000002 [dLambda 0.050000000000000044]
TCL: Setting parameter firsttimestep to 0
TCL: Setting parameter alchLambda to 0.7500000000000001
Info: NONBONDED TABLE R-SQUARED SPACING: 0.0625
Info: NONBONDED TABLE SIZE: 705 POINTS
TCL: Setting parameter alchLambda2 to 0.8000000000000002
Info: NONBONDED TABLE R-SQUARED SPACING: 0.0625
Info: NONBONDED TABLE SIZE: 705 POINTS
TCL: Running for 1500000 steps
ETITLE: TS BOND ANGLE DIHED IMPRP ELECT VDW BOUNDARY MISC KINETIC TOTAL TEMP POTENTIAL TOTALAVG TEMPAVG PRESSURE GPRESSURE VOLUME PRESSAVG GPRESSAVG
ENERGY: 0 0.8968 8.3039 2.5415 0.0000 -10671.4405 1454.8870 0.0000 0.0000 1724.3214 -7480.4899 294.9917 -9204.8113 -7480.4899 294.9917 391.2044 474.1296 29793.7653 391.2044 474.1296
ENERGY: 300000 3.5785 5.9712 3.5430 0.0000 -10641.8264 1430.4985 0.0000 0.0000 1727.8012 -7470.4340 295.5870 -9198.2352 -7456.0247 298.5118 -122.2591 -92.6695 30125.6249 280.0780 332.3198
ENERGY: 600000 0.4776 4.0764 1.6916 0.0000 -10698.5901 1445.9749 0.0000 0.0000 1724.6556 -7521.7139 295.0488 -9246.3695 -7458.0249 298.0124 -77.4097 -11.9774 30189.9171 165.1511 228.3283
ENERGY: 900000 0.0586 5.6569 2.0161 0.0000 -10790.2204 1520.8902 0.0000 0.0000 1759.5971 -7502.0016 301.0265 -9261.5987 -7456.5577 299.4836 654.4303 683.0510 30211.1993 109.0595 169.0306
ENERGY: 1200000 3.5226 5.4079 3.0949 0.0000 -10584.5433 1390.3528 0.0000 0.0000 1717.5412 -7464.6240 293.8317 -9182.1652 -7448.0868 300.5245 -284.8593 -250.6177 30618.7102 37.0372 93.3951
ENERGY: 1500000 0.8565 2.3451 3.0537 0.0000 -10556.6088 1375.9999 0.0000 0.0000 1752.3046 -7422.0490 299.7789 -9174.3536 -7444.8569 300.1230 -466.1863 -495.5927 30900.8744 17.7071 67.6692
TCL: Running FEP window  17: Lambda1 0.8000000000000002 Lambda2 0.8500000000000002 [dLambda 0.050000000000000044]
TCL: Setting parameter firsttimestep to 0
TCL: Setting parameter alchLambda to 0.8000000000000002
Info: NONBONDED TABLE R-SQUARED SPACING: 0.0625
Info: NONBONDED TABLE SIZE: 705 POINTS
TCL: Setting parameter alchLambda2 to 0.8500000000000002
Info: NONBONDED TABLE R-SQUARED SPACING: 0.0625
Info: NONBONDED TABLE SIZE: 705 POINTS
TCL: Running for 1500000 steps
ETITLE: TS BOND ANGLE DIHED IMPRP ELECT VDW BOUNDARY MISC KINETIC TOTAL TEMP POTENTIAL TOTALAVG TEMPAVG PRESSURE GPRESSURE VOLUME PRESSAVG GPRESSAVG
ENERGY: 0 0.8565 2.3451 3.0537 0.0000 -10557.0220 1376.2414 0.0000 0.0000 1751.4295 -7423.0958 299.6292 -9174.5253 -7423.0958 299.6292 -575.1585 -486.8381 30900.8744 -575.1585 -486.8381
ENERGY: 300000 1.1167 4.3278 1.7157 0.0000 -10553.8486 1409.2522 0.0000 0.0000 1750.7767 -7386.6595 299.5176 -9137.4363 -7419.9971 300.7577 23.9621 92.9247 30240.3643 -213.1669 -104.0116
ENERGY: 600000 0.6659 5.3088 2.8307 0.0000 -10608.4013 1392.3606 0.0000 0.0000 1761.5359 -7445.6994 301.3582 -9207.2353 -7435.6844 300.0418 -271.8443 -190.8708 30320.7312 -85.7317 25.6531
ENERGY: 900000 0.2746 9.2700 2.3269 0.0000 -10598.8482 1397.1256 0.0000 0.0000 1759.8612 -7429.9898 301.0717 -9189.8510 -7439.4425 299.8816 -72.1266 -44.0660 29986.2354 37.6421 129.4708
ENERGY: 1200000 0.8171 6.7148 2.1663 0.0000 -10588.1186 1409.0681 0.0000 0.0000 1745.3259 -7424.0264 298.5851 -9169.3523 -7438.9776 300.1509 -90.1795 -5.3985 30393.3364 40.8702 116.9794
ENERGY: 1500000 1.9244 3.4851 3.2768 0.0000 -10667.9671 1450.9535 0.0000 0.0000 1757.6221 -7450.7052 300.6887 -9208.3273 -7446.6280 300.1417 197.7416 264.6451 30121.1001 124.6108 198.1613
TCL: Running FEP window  18: Lambda1 0.8500000000000002 Lambda2 0.9000000000000002 [dLambda 0.050000000000000044]
TCL: Setting parameter firsttimestep to 0
TCL: Setting parameter alchLambda to 0.8500000000000002
Info: NONBONDED TABLE R-SQUARED SPACING: 0.0625
Info: NONBONDED TABLE SIZE: 705 POINTS
TCL: Setting parameter alchLambda2 to 0.9000000000000002
Info: NONBONDED TABLE R-SQUARED SPACING: 0.0625
Info: NONBONDED TABLE SIZE: 705 POINTS
TCL: Running for 1500000 steps
ETITLE: TS BOND ANGLE DIHED IMPRP ELECT VDW BOUNDARY MISC KINETIC TOTAL TEMP POTENTIAL TOTALAVG TEMPAVG PRESSURE GPRESSURE VOLUME PRESSAVG GPRESSAVG
ENERGY: 0 1.9244 3.4851 3.2768 0.0000 -10668.2933 1451.0617 0.0000 0.0000 1756.7508 -7451.7945 300.5396 -9208.5452 -7451.7945 300.5396 199.0660 276.6288 30121.1001 199.0660 276.6288
ENERGY: 300000 0.5404 8.3082 1.9552 0.0000 -10710.0321 1520.5214 0.0000 0.0000 1732.7701 -7445.9368 296.4370 -9178.7069 -7471.4169 298.2104 858.5991 934.8959 30213.2112 341.4281 405.5899
ENERGY: 600000 1.0219 6.3635 1.7859 0.0000 -10631.4508 1386.5586 0.0000 0.0000 1713.0816 -7522.6392 293.0688 -9235.7208 -7456.0459 298.1047 -478.5810 -472.4580 30534.2472 56.8944 98.0732
ENERGY: 900000 2.4029 7.5034 2.2990 0.0000 -10663.9597 1429.1875 0.0000 0.0000 1776.1365 -7446.4304 303.8560 -9222.5669 -7453.8104 298.6995 -2.3158 42.2980 30257.6042 -16.7564 38.9406
ENERGY: 1200000 1.6428 7.0425 3.0548 0.0000 -10719.8304 1534.1811 0.0000 0.0000 1706.4939 -7467.4152 291.9418 -9173.9091 -7451.1362 298.8493 1178.3580 1283.5472 29807.7129 56.2166 117.4937
ENERGY: 1500000 0.5535 6.2173 2.2889 0.0000 -10584.6936 1408.5922 0.0000 0.0000 1766.3861 -7400.6555 302.1880 -9167.0417 -7447.1094 299.2026 -380.4215 -301.0248 30733.1660 -0.4987 63.0936
TCL: Running FEP window  19: Lambda1 0.9000000000000002 Lambda2 0.9500000000000003 [dLambda 0.050000000000000044]
TCL: Setting parameter firsttimestep to 0
TCL: Setting parameter alchLambda to 0.9000000000000002
Info: NONBONDED TABLE R-SQUARED SPACING: 0.0625
Info: NONBONDED TABLE SIZE: 705 POINTS
TCL: Setting parameter alchLambda2 to 0.9500000000000003
Info: NONBONDED TABLE R-SQUARED SPACING: 0.0625
Info: NONBONDED TABLE SIZE: 705 POINTS
TCL: Running for 1500000 steps
ETITLE: TS BOND ANGLE DIHED IMPRP ELECT VDW BOUNDARY MISC KINETIC TOTAL TEMP POTENTIAL TOTALAVG TEMPAVG PRESSURE GPRESSURE VOLUME PRESSAVG GPRESSAVG
ENERGY: 0 0.5535 6.2173 2.2889 0.0000 -10585.1788 1408.8124 0.0000 0.0000 1765.5056 -7401.8011 302.0373 -9167.3067 -7401.8011 302.0373 -381.9397 -292.7209 30733.1660 -381.9397 -292.7209
ENERGY: 300000 1.2466 4.9950 2.8815 0.0000 -10714.2008 1502.4609 0.0000 0.0000 1769.0596 -7433.5573 302.6454 -9202.6170 -7448.6203 298.7692 619.3389 680.0211 30203.2332 441.3124 506.6301
ENERGY: 600000 2.0878 5.7805 3.4033 0.0000 -10659.3662 1456.2856 0.0000 0.0000 1763.8866 -7427.9223 301.7604 -9191.8089 -7458.8220 297.3041 125.1693 177.0613 30576.4754 273.4019 327.5063
ENERGY: 900000 0.2447 7.0719 2.0202 0.0000 -10562.9345 1365.4606 0.0000 0.0000 1748.7284 -7439.4087 299.1671 -9188.1370 -7451.7636 298.5992 -611.0113 -592.2737 30580.2514 53.1238 99.8164
ENERGY: 1200000 0.2346 9.5173 2.7754 0.0000 -10528.6442 1378.8860 0.0000 0.0000 1792.8133 -7344.4176 306.7091 -9137.2309 -7437.6239 299.3939 -460.2061 -424.5229 30880.5972 -104.0909 -50.6694
ENERGY: 1500000 1.0331 8.7988 3.6932 0.0000 -10675.7716 1494.0784 0.0000 0.0000 1734.3356 -7433.8326 296.7049 -9168.1682 -7441.4157 299.4275 127.4690 132.1859 31081.7867 -131.6743 -78.6328
TCL: Running FEP window  20: Lambda1 0.9500000000000003 Lambda2 1.0    [dLambda 0.04999999999999971]
TCL: Setting parameter firsttimestep to 0
TCL: Setting parameter alchLambda to 0.9500000000000003
Info: NONBONDED TABLE R-SQUARED SPACING: 0.0625
Info: NONBONDED TABLE SIZE: 705 POINTS
TCL: Setting parameter alchLambda2 to 1.0
Info: NONBONDED TABLE R-SQUARED SPACING: 0.0625
Info: NONBONDED TABLE SIZE: 705 POINTS
TCL: Running for 1500000 steps
ETITLE: TS BOND ANGLE DIHED IMPRP ELECT VDW BOUNDARY MISC KINETIC TOTAL TEMP POTENTIAL TOTALAVG TEMPAVG PRESSURE GPRESSURE VOLUME PRESSAVG GPRESSAVG
ENERGY: 0 1.0331 8.7988 3.6932 0.0000 -10675.9009 1493.8474 0.0000 0.0000 1733.4756 -7435.0527 296.5577 -9168.5283 -7435.0527 296.5577 60.6203 138.9583 31081.7867 60.6203 138.9583
ENERGY: 300000 3.6717 6.3783 2.2572 0.0000 -10822.1311 1566.2837 0.0000 0.0000 1708.5146 -7535.0256 292.2875 -9243.5403 -7479.8402 299.5754 1234.3748 1224.6461 29829.4571 720.1881 773.5100
ENERGY: 600000 1.9323 2.1503 2.3569 0.0000 -10776.7429 1466.6305 0.0000 0.0000 1751.9636 -7551.7092 299.7206 -9303.6728 -7477.7272 299.9361 -36.5865 24.5551 30268.1876 299.9675 350.2385
ENERGY: 900000 1.3836 8.0758 1.8075 0.0000 -10697.3809 1443.9893 0.0000 0.0000 1740.8965 -7501.2282 297.8273 -9242.1247 -7475.2230 300.5591 -43.9589 28.5956 30551.1884 175.0452 223.5197
ENERGY: 1200000 0.5027 9.0838 3.4940 0.0000 -10542.0208 1382.8238 0.0000 0.0000 1790.5259 -7355.5907 306.3177 -9146.1166 -7460.3190 301.4555 -218.2582 -180.1917 30409.9697 184.3305 236.4212
ENERGY: 1500000 1.1002 5.6337 2.4266 0.0000 -10631.7226 1418.2352 0.0000 0.0000 1750.0491 -7454.2777 299.3931 -9204.3268 -7454.9447 301.5745 -114.6983 -62.5276 30163.7959 183.9945 241.7827
TCL: Exiting due to exit command.
