Info: SIMULATION PARAMETERS:
Info: TIMESTEP               2
Info: NUMBER OF STEPS        0
Info: STEPS PER CYCLE        10
Info: PERIODIC CELL BASIS 1  31.0324 0 0
Info: PERIODIC CELL BASIS 2  0 30.3884 0
Info: PERIODIC CELL BASIS 3  0 0 32.1083
Info: PERIODIC CELL CENTER   0 0 0
Info: WRAPPING WATERS AROUND PERIODIC BOUNDARIES ON OUTPUT.
Info: WRAPPING ALL CLUSTERS AROUND PERIODIC BOUNDARIES ON OUTPUT.
Info: FIRST LDB TIMESTEP     50
Info: LAST LDB TIMESTEP     -1
Info: HOM BACKGROUND SCALING 1
Info: PME BACKGROUND SCALING 1
Info: MIN ATOMS PER PATCH    40
Info: EMPTY PATCH LOAD       40 ATOMS
Info: VELOCITY FILE          mobley_5310099_equil.vel
Info: CENTER OF MASS MOVING INITIALLY? NO
Info: DIELECTRIC             1
Info: EXCLUDE                SCALED ONE-FOUR
Info: 1-4 ELECTROSTATICS SCALED BY 0.833333
Info: MODIFIED 1-4 VDW PARAMETERS WILL BE USED
Info: DCD FILENAME           mobley_5310099_prod.dcd
Info: DCD FREQUENCY          100000
Info: DCD FIRST STEP         100000
Info: DCD FILE WILL CONTAIN UNIT CELL DATA
Info: XST FILENAME           mobley_5310099_prod.xst
Info: XST FREQUENCY          100000
Info: NO VELOCITY DCD OUTPUT
Info: NO FORCE DCD OUTPUT
Info: OUTPUT FILENAME        mobley_5310099_prod
Info: BINARY OUTPUT FILES WILL BE USED
Info: RESTART FILENAME       mobley_5310099_prod.restart
Info: RESTART FREQUENCY      100000
Info: BINARY RESTART FILES WILL BE USED
Info: CUTOFF                 9
Info: PAIRLIST DISTANCE      11
Info: PAIRLIST SHRINK RATE   0.01
Info: PAIRLIST GROW RATE     0.01
Info: PAIRLIST TRIGGER       0.3
Info: PAIRLISTS PER CYCLE    2
Info: PAIRLISTS ENABLED
Info: MARGIN                 2
Info: HYDROGEN GROUP CUTOFF  2.5
Info: PATCH DIMENSION        15.5
Info: ENERGY OUTPUT STEPS    100000
Info: ENERGY EVALUATION STEPS    100000
Info: OUTPUT ENERGY PRECISION 4
Info: CROSSTERM ENERGY INCLUDED IN DIHEDRAL
Info: TIMING OUTPUT STEPS    1000000
Info: PRESSURE OUTPUT STEPS  100000
Info: ALCHEMICAL FEP ON
Info: FEP CURRENT LAMBDA VALUE     1
Info: FEP COMPARISON LAMBDA VALUE  0.95
Info: FEP INTRA-ALCHEMICAL NON-BONDED INTERACTIONS WILL BE RETAINED
Info: FEP INTRA-ALCHEMICAL BONDED INTERACTIONS WILL BE RETAINED
Info: FEP VDW SHIFTING COEFFICIENT 5
Info: FEP ELEC. ACTIVE FOR ANNIHILATED PARTICLES BETWEEN LAMBDA = 0 AND LAMBDA = 0.5
Info: FEP ELEC. ACTIVE FOR EXNIHILATED PARTICLES BETWEEN LAMBDA = 0.5 AND LAMBDA = 1
Info: FEP VDW ACTIVE FOR ANNIHILATED PARTICLES BETWEEN LAMBDA = 0 AND LAMBDA = 1
Info: FEP VDW ACTIVE FOR EXNIHILATED PARTICLES BETWEEN LAMBDA = 0 AND LAMBDA = 1
Info: FEP BOND ACTIVE FOR ANNIHILATED PARTICLES BETWEEN LAMBDA = 1 AND LAMBDA = 1
Info: FEP BOND ACTIVE FOR EXNIHILATED PARTICLES BETWEEN LAMBDA = 0 AND LAMBDA = 0
Info: LANGEVIN DYNAMICS ACTIVE
Info: LANGEVIN TEMPERATURE   300
Info: LANGEVIN USING BBK INTEGRATOR
Info: LANGEVIN DAMPING COEFFICIENT IS 1 INVERSE PS
Info: LANGEVIN DYNAMICS APPLIED TO HYDROGENS
Info: LANGEVIN PISTON PRESSURE CONTROL ACTIVE
Info:        TARGET PRESSURE IS 1.01325 BAR
Info:     OSCILLATION PERIOD IS 50 FS
Info:             DECAY TIME IS 25 FS
Info:     PISTON TEMPERATURE IS 300 K
Info:       PRESSURE CONTROL IS GROUP-BASED
Info:    INITIAL STRAIN RATE IS -0.000374697 -0.000374697 -0.000374697
Info:       CELL FLUCTUATION IS ISOTROPIC
Info: PARTICLE MESH EWALD (PME) ACTIVE
Info: PME TOLERANCE               1e-06
Info: PME EWALD COEFFICIENT       0.348832
Info: PME INTERPOLATION ORDER     4
Info: PME GRID DIMENSIONS         32 32 36
Info: PME MAXIMUM GRID SPACING    1
Info: PME CALCULATION WILL BE PERFORMED ON GPU
Info: FULL ELECTROSTATIC EVALUATION FREQUENCY      2
Info: USING VERLET I (r-RESPA) MTS SCHEME.
Info: C1 SPLITTING OF LONG RANGE ELECTROSTATICS
Info: PLACING ATOMS IN PATCHES BY HYDROGEN GROUPS
Info: RIGID BONDS TO HYDROGEN : ALL
Info:         ERROR TOLERANCE : 1e-08
Info:          MAX ITERATIONS : 100
Info: RIGID WATER USING SETTLE ALGORITHM
Info: RANDOM NUMBER SEED     1743918878
Info: USE HYDROGEN BONDS?    NO
Info: Using AMBER format force field!
Info: AMBER PARM FILE        mobley_5310099.prmtop
Info: COORDINATE PDB         mobley_5310099.pdb
Info: Exclusions will be read from PARM file!
Info: SCNB (VDW SCALING)     2
Info: USING ARITHMETIC MEAN TO COMBINE L-J SIGMA PARAMETERS
Info: BINARY COORDINATES     mobley_5310099_equil.coor
Info: SUMMARY OF PARAMETERS:
Info: 7 BONDS
Info: 9 ANGLES
Info:   9 HARMONIC
Info:   0 COSINE-BASED
Info: 11 DIHEDRAL
Info: 0 IMPROPER
Info: 0 CROSSTERM
Info: 0 VDW
Info: 21 VDW_PAIRS
Info: 0 NBTHOLE_PAIRS
Info: To read alchdata from file: mobley_5310099.pdb
Info: To read alchflag data from column: 5
Info: STRUCTURE SUMMARY:
Info: 2922 ATOMS
Info: 2921 BONDS
Info: 30 ANGLES
Info: 45 DIHEDRALS
Info: 0 IMPROPERS
Info: 0 CROSSTERMS
Info: 2988 EXCLUSIONS
Info: 2916 RIGID BONDS
Info: ALCH: 0 ATOMS TO DISAPPEAR IN FINAL STATE
Info: ALCH: 18 ATOMS TO APPEAR IN FINAL STATE
Info: 5850 DEGREES OF FREEDOM
Info: 974 HYDROGEN GROUPS
Info: 4 ATOMS IN LARGEST HYDROGEN GROUP
Info: 974 MIGRATION GROUPS
Info: 4 ATOMS IN LARGEST MIGRATION GROUP
Info: TOTAL MASS = 17523.6 amu
Info: TOTAL CHARGE = -0.000100039 e
Info: MASS DENSITY = 0.961044 g/cm^3
Info: ATOM DENSITY = 0.0965028 atoms/A^3
Info: ADDED 0 IMPLICIT EXCLUSIONS
Info: NONBONDED TABLE R-SQUARED SPACING: 0.0625
Info: NONBONDED TABLE SIZE: 705 POINTS
Info: REMOVING COM VELOCITY -0.0587429 0.149918 0.0933323
Info: Use 3D box decompostion in PME FFT.
Info: Updated CUDA force table with 4096 elements.
Info: Updated CUDA LJ table with 6 x 6 elements.
Info: Found 21 unique exclusion lists needing 52 bytes
TCL: Running for 1500000 steps
ETITLE: TS BOND ANGLE DIHED IMPRP ELECT VDW BOUNDARY MISC KINETIC TOTAL TEMP POTENTIAL TOTALAVG TEMPAVG PRESSURE GPRESSURE VOLUME PRESSAVG GPRESSAVG
ENERGY: 0 2.2030 8.5350 2.4664 0.0000 -10502.0521 1417.4241 0.0000 0.0000 1706.6434 -7364.7802 293.6144 -9071.4236 -7364.7802 293.6144 -47.2217 35.3887 30278.9084 -47.2217 35.3887
ENERGY: 300000 0.7989 9.4240 5.2436 0.0000 -10545.3071 1405.6754 0.0000 0.0000 1803.6072 -7320.5581 310.2962 -9124.1653 -7348.6724 303.3738 -194.2082 -118.7360 30302.7041 31.9041 85.5913
ENERGY: 600000 1.8530 8.0294 5.1031 0.0000 -10658.2891 1444.5839 0.0000 0.0000 1769.8581 -7428.8616 304.4899 -9198.7197 -7371.7850 300.8396 17.4473 74.2631 29850.6414 64.5733 129.2512
ENERGY: 900000 1.1627 7.2660 2.9415 0.0000 -10715.2628 1583.3012 0.0000 0.0000 1773.4079 -7347.1836 305.1007 -9120.5915 -7369.6126 302.1164 1617.4587 1632.9929 29742.7738 176.8249 240.2395
ENERGY: 1200000 2.3807 7.7282 4.8489 0.0000 -10579.4113 1416.3178 0.0000 0.0000 1783.4283 -7364.7074 306.8246 -9148.1357 -7368.3297 301.5664 -103.9549 -22.8868 30238.7376 179.7466 241.1802
ENERGY: 1500000 1.1191 13.7833 2.6825 0.0000 -10712.9175 1512.3355 0.0000 0.0000 1708.5764 -7474.4208 293.9469 -9182.9972 -7374.3719 301.5330 504.6815 547.8105 30187.3297 191.2548 251.7490
TCL: Running FEP window   2: Lambda1 0.95   Lambda2 0.8999999999999999 [dLambda -0.050000000000000044]
TCL: Setting parameter firsttimestep to 0
TCL: Setting parameter alchLambda to 0.95
Info: NONBONDED TABLE R-SQUARED SPACING: 0.0625
Info: NONBONDED TABLE SIZE: 705 POINTS
TCL: Setting parameter alchLambda2 to 0.8999999999999999
Info: NONBONDED TABLE R-SQUARED SPACING: 0.0625
Info: NONBONDED TABLE SIZE: 705 POINTS
TCL: Running for 1500000 steps
ETITLE: TS BOND ANGLE DIHED IMPRP ELECT VDW BOUNDARY MISC KINETIC TOTAL TEMP POTENTIAL TOTALAVG TEMPAVG PRESSURE GPRESSURE VOLUME PRESSAVG GPRESSAVG
ENERGY: 0 1.1191 13.7833 2.6825 0.0000 -10712.7372 1512.0851 0.0000 0.0000 1707.7618 -7475.3054 293.8068 -9183.0672 -7475.3054 293.8068 465.9631 533.6711 30187.3297 465.9631 533.6711
ENERGY: 300000 1.6889 8.9258 4.9211 0.0000 -10553.3248 1401.2012 0.0000 0.0000 1748.0010 -7388.5867 300.7296 -9136.5877 -7406.8480 298.0226 -211.6887 -130.4825 30535.9105 218.6609 278.7247
ENERGY: 600000 2.3997 7.8256 5.1136 0.0000 -10531.2354 1377.7079 0.0000 0.0000 1747.0847 -7391.1040 300.5720 -9138.1887 -7375.5344 302.0499 -532.4119 -492.2906 30264.9822 32.3819 92.7747
ENERGY: 900000 1.1608 3.7865 5.3067 0.0000 -10645.5261 1464.0420 0.0000 0.0000 1734.6506 -7436.5794 298.4328 -9171.2300 -7384.8855 301.6546 137.5930 212.4350 30067.1859 -21.7580 40.7701
ENERGY: 1200000 2.7152 7.1687 5.5201 0.0000 -10510.2680 1398.2115 0.0000 0.0000 1764.6190 -7332.0335 303.5886 -9096.6525 -7386.4629 301.3853 62.3096 111.5098 29882.0223 -48.4795 14.6787
ENERGY: 1500000 1.3248 8.8699 3.9207 0.0000 -10557.1549 1437.1371 0.0000 0.0000 1692.4554 -7413.4471 291.1734 -9105.9024 -7394.9744 300.2459 -60.0981 7.4682 30644.6209 -10.4793 48.0122
TCL: Running FEP window   3: Lambda1 0.8999999999999999 Lambda2 0.8499999999999999 [dLambda -0.050000000000000044]
TCL: Setting parameter firsttimestep to 0
TCL: Setting parameter alchLambda to 0.8999999999999999
Info: NONBONDED TABLE R-SQUARED SPACING: 0.0625
Info: NONBONDED TABLE SIZE: 705 POINTS
TCL: Setting parameter alchLambda2 to 0.8499999999999999
Info: NONBONDED TABLE R-SQUARED SPACING: 0.0625
Info: NONBONDED TABLE SIZE: 705 POINTS
TCL: Running for 1500000 steps
ETITLE: TS BOND ANGLE DIHED IMPRP ELECT VDW BOUNDARY MISC KINETIC TOTAL TEMP POTENTIAL TOTALAVG TEMPAVG PRESSURE GPRESSURE VOLUME PRESSAVG GPRESSAVG
ENERGY: 0 1.3248 8.8699 3.9207 0.0000 -10557.0495 1437.8130 0.0000 0.0000 1691.5692 -7413.5519 291.0210 -9105.1211 -7413.5519 291.0210 -67.9670 9.7886 30644.6209 -67.9670 9.7886
ENERGY: 300000 0.4189 7.6016 5.6955 0.0000 -10518.9838 1351.8474 0.0000 0.0000 1752.2352 -7401.1852 301.4581 -9153.4205 -7386.7706 297.2514 -672.9049 -624.4308 30314.7398 -631.0873 -571.3863
ENERGY: 600000 0.6808 7.2449 5.0333 0.0000 -10440.7116 1360.7268 0.0000 0.0000 1767.9043 -7299.1215 304.1538 -9067.0258 -7371.2173 298.1813 -210.3856 -200.4215 30213.2917 -438.8771 -391.9332
ENERGY: 900000 2.6123 6.6440 5.0489 0.0000 -10623.3465 1396.8998 0.0000 0.0000 1769.5709 -7442.5706 304.4405 -9212.1415 -7385.3960 299.2858 -465.3866 -414.1496 30039.8060 -377.7465 -326.9807
ENERGY: 1200000 1.6202 3.2997 5.0922 0.0000 -10540.6270 1476.6806 0.0000 0.0000 1735.0968 -7318.8374 298.5096 -9053.9342 -7374.9117 299.3831 598.5029 663.1967 30412.2040 -190.6657 -134.5677
ENERGY: 1500000 0.5793 7.9673 1.8676 0.0000 -10401.2217 1338.5485 0.0000 0.0000 1726.2583 -7326.0007 296.9889 -9052.2589 -7373.4564 299.3031 -525.4578 -441.0224 30363.8567 -144.4695 -83.9588
TCL: Running FEP window   4: Lambda1 0.8499999999999999 Lambda2 0.7999999999999998 [dLambda -0.050000000000000044]
TCL: Setting parameter firsttimestep to 0
TCL: Setting parameter alchLambda to 0.8499999999999999
Info: NONBONDED TABLE R-SQUARED SPACING: 0.0625
Info: NONBONDED TABLE SIZE: 705 POINTS
TCL: Setting parameter alchLambda2 to 0.7999999999999998
Info: NONBONDED TABLE R-SQUARED SPACING: 0.0625
Info: NONBONDED TABLE SIZE: 705 POINTS
TCL: Running for 1500000 steps
ETITLE: TS BOND ANGLE DIHED IMPRP ELECT VDW BOUNDARY MISC KINETIC TOTAL TEMP POTENTIAL TOTALAVG TEMPAVG PRESSURE GPRESSURE VOLUME PRESSAVG GPRESSAVG
ENERGY: 0 0.5792 7.9673 1.8676 0.0000 -10401.1852 1338.9776 0.0000 0.0000 1725.3877 -7326.4057 296.8392 -9051.7934 -7326.4057 296.8392 -532.1093 -445.6731 30363.8567 -532.1093 -445.6731
ENERGY: 300000 0.3262 5.3812 5.5341 0.0000 -10613.4795 1445.1476 0.0000 0.0000 1749.8515 -7407.2388 301.0480 -9157.0903 -7372.8989 299.8593 293.7363 310.9752 29888.7357 -130.2658 -82.6897
ENERGY: 600000 0.8396 5.0138 5.4432 0.0000 -10605.3552 1391.1494 0.0000 0.0000 1707.7869 -7495.1223 293.8111 -9202.9092 -7389.4819 299.3038 -160.2708 -182.8173 29713.5302 -159.7428 -122.5603
ENERGY: 900000 1.8253 6.6764 5.9651 0.0000 -10467.1534 1412.6245 0.0000 0.0000 1734.8717 -7305.1904 298.4708 -9040.0621 -7391.0348 298.8816 150.9986 171.0995 29936.9767 -83.3505 -56.5840
ENERGY: 1200000 1.6770 10.0720 6.3697 0.0000 -10672.5271 1469.1341 0.0000 0.0000 1762.3785 -7422.8958 303.2031 -9185.2743 -7395.9705 299.2343 122.6063 278.3176 29905.9996 -159.9061 -119.3908
ENERGY: 1500000 2.9816 11.1595 4.0658 0.0000 -10567.3328 1418.3897 0.0000 0.0000 1781.1138 -7349.6224 306.4264 -9130.7363 -7406.2591 299.2881 -189.0038 -104.4772 30349.8084 -96.5013 -55.8954
TCL: Running FEP window   5: Lambda1 0.7999999999999998 Lambda2 0.7499999999999998 [dLambda -0.050000000000000044]
TCL: Setting parameter firsttimestep to 0
TCL: Setting parameter alchLambda to 0.7999999999999998
Info: NONBONDED TABLE R-SQUARED SPACING: 0.0625
Info: NONBONDED TABLE SIZE: 705 POINTS
TCL: Setting parameter alchLambda2 to 0.7499999999999998
Info: NONBONDED TABLE R-SQUARED SPACING: 0.0625
Info: NONBONDED TABLE SIZE: 705 POINTS
TCL: Running for 1500000 steps
ETITLE: TS BOND ANGLE DIHED IMPRP ELECT VDW BOUNDARY MISC KINETIC TOTAL TEMP POTENTIAL TOTALAVG TEMPAVG PRESSURE GPRESSURE VOLUME PRESSAVG GPRESSAVG
ENERGY: 0 2.9816 11.1595 4.0658 0.0000 -10567.1662 1418.7327 0.0000 0.0000 1780.2590 -7349.9677 306.2793 -9130.2267 -7349.9677 306.2793 -189.5113 -109.7180 30349.8084 -189.5113 -109.7180
ENERGY: 300000 0.7095 6.8129 2.6212 0.0000 -10486.2098 1377.0756 0.0000 0.0000 1725.8607 -7373.1299 296.9206 -9098.9906 -7371.9390 302.1939 -398.5120 -278.5403 29998.3398 -192.3296 -94.3223
ENERGY: 600000 0.9417 4.7720 4.9418 0.0000 -10535.9420 1381.2836 0.0000 0.0000 1709.2920 -7434.7109 294.0700 -9144.0029 -7374.9998 301.1361 -454.8095 -456.6377 30230.1401 -68.9481 10.8463
ENERGY: 900000 2.4565 8.5505 4.7196 0.0000 -10551.6211 1339.2660 0.0000 0.0000 1745.7245 -7450.9041 300.3380 -9196.6286 -7384.6411 301.0983 -761.9247 -687.1092 30101.4878 -145.8284 -66.1229
ENERGY: 1200000 1.2917 5.1160 3.0335 0.0000 -10566.4489 1436.4754 0.0000 0.0000 1687.6199 -7432.9124 290.3415 -9120.5324 -7384.9671 300.3276 11.7736 76.5974 30234.5151 -170.3943 -92.9281
ENERGY: 1500000 2.0316 12.7993 5.1640 0.0000 -10463.7716 1365.2875 0.0000 0.0000 1749.9269 -7328.5624 301.0609 -9078.4893 -7385.5170 299.5524 -250.0393 -218.3139 30088.8903 -183.7825 -109.6848
TCL: Running FEP window   6: Lambda1 0.7499999999999998 Lambda2 0.6999999999999997 [dLambda -0.050000000000000044]
TCL: Setting parameter firsttimestep to 0
TCL: Setting parameter alchLambda to 0.7499999999999998
Info: NONBONDED TABLE R-SQUARED SPACING: 0.0625
Info: NONBONDED TABLE SIZE: 705 POINTS
TCL: Setting parameter alchLambda2 to 0.6999999999999997
Info: NONBONDED TABLE R-SQUARED SPACING: 0.0625
Info: NONBONDED TABLE SIZE: 705 POINTS
TCL: Running for 1500000 steps
ETITLE: TS BOND ANGLE DIHED IMPRP ELECT VDW BOUNDARY MISC KINETIC TOTAL TEMP POTENTIAL TOTALAVG TEMPAVG PRESSURE GPRESSURE VOLUME PRESSAVG GPRESSAVG
ENERGY: 0 2.0316 12.7993 5.1640 0.0000 -10463.5018 1365.3238 0.0000 0.0000 1749.0440 -7329.1391 300.9091 -9078.1831 -7329.1391 300.9091 -304.8939 -224.8748 30088.8903 -304.8939 -224.8748
ENERGY: 300000 3.2482 10.8409 6.7621 0.0000 -10720.0123 1476.1232 0.0000 0.0000 1707.2632 -7515.7748 293.7210 -9223.0380 -7433.1855 294.8021 148.6988 189.4985 29631.5711 -161.1813 -117.8536
ENERGY: 600000 0.4823 6.8533 5.0734 0.0000 -10521.3674 1407.9351 0.0000 0.0000 1729.2192 -7371.8041 297.4984 -9101.0233 -7425.6367 296.1090 177.4507 156.3159 29940.9612 -106.2693 -69.3684
ENERGY: 900000 1.1136 6.1054 4.3180 0.0000 -10758.3331 1495.9072 0.0000 0.0000 1738.9923 -7511.8965 299.1797 -9250.8889 -7431.8748 296.4108 535.6008 535.1432 29554.3747 8.5074 49.4995
ENERGY: 1200000 2.3099 4.4627 5.2513 0.0000 -10583.4511 1446.3518 0.0000 0.0000 1738.5791 -7386.4963 299.1086 -9125.0754 -7417.0935 296.5866 181.4427 287.8335 30065.9313 -4.4411 45.8062
ENERGY: 1500000 3.0467 10.0660 3.8323 0.0000 -10713.1547 1499.4306 0.0000 0.0000 1720.4105 -7476.3686 295.9829 -9196.7790 -7413.0836 296.9658 678.9231 732.6707 29761.2100 -3.9404 44.6325
TCL: Running FEP window   7: Lambda1 0.6999999999999997 Lambda2 0.6499999999999997 [dLambda -0.050000000000000044]
TCL: Setting parameter firsttimestep to 0
TCL: Setting parameter alchLambda to 0.6999999999999997
Info: NONBONDED TABLE R-SQUARED SPACING: 0.0625
Info: NONBONDED TABLE SIZE: 705 POINTS
TCL: Setting parameter alchLambda2 to 0.6499999999999997
Info: NONBONDED TABLE R-SQUARED SPACING: 0.0625
Info: NONBONDED TABLE SIZE: 705 POINTS
TCL: Running for 1500000 steps
ETITLE: TS BOND ANGLE DIHED IMPRP ELECT VDW BOUNDARY MISC KINETIC TOTAL TEMP POTENTIAL TOTALAVG TEMPAVG PRESSURE GPRESSURE VOLUME PRESSAVG GPRESSAVG
ENERGY: 0 3.0467 10.0660 3.8323 0.0000 -10713.1203 1499.6226 0.0000 0.0000 1719.5317 -7477.0209 295.8317 -9196.5526 -7477.0209 295.8317 649.7136 726.2637 29761.2100 649.7136 726.2637
ENERGY: 300000 1.1143 9.1284 3.5703 0.0000 -10395.5391 1348.0614 0.0000 0.0000 1782.3359 -7251.3286 306.6367 -9033.6645 -7376.0544 301.8602 -370.1679 -325.5100 30416.1461 -5.2987 70.1578
ENERGY: 600000 2.0267 8.5212 7.9958 0.0000 -10628.3347 1444.1499 0.0000 0.0000 1748.6169 -7417.0243 300.8356 -9165.6412 -7365.6435 301.8101 -23.0358 16.5681 30155.2177 -10.2928 44.8177
ENERGY: 900000 3.9064 8.4786 6.8432 0.0000 -10519.5593 1388.1619 0.0000 0.0000 1810.5985 -7301.5708 311.4990 -9112.1692 -7367.5019 302.6491 -119.5156 -59.9117 29936.9254 20.2743 74.6094
ENERGY: 1200000 2.7656 6.5128 4.2535 0.0000 -10486.8700 1358.4241 0.0000 0.0000 1683.9139 -7431.0001 289.7039 -9114.9140 -7383.3986 300.4626 -614.7255 -551.5043 30387.5169 -51.9353 1.5340
ENERGY: 1500000 1.1619 7.2378 5.4806 0.0000 -10545.8787 1432.0139 0.0000 0.0000 1733.8252 -7366.1593 298.2908 -9099.9845 -7382.0824 300.8525 84.5243 157.0620 30221.8568 -67.6049 -11.5010
TCL: Running FEP window   8: Lambda1 0.6499999999999997 Lambda2 0.5999999999999996 [dLambda -0.050000000000000044]
TCL: Setting parameter firsttimestep to 0
TCL: Setting parameter alchLambda to 0.6499999999999997
Info: NONBONDED TABLE R-SQUARED SPACING: 0.0625
Info: NONBONDED TABLE SIZE: 705 POINTS
TCL: Setting parameter alchLambda2 to 0.5999999999999996
Info: NONBONDED TABLE R-SQUARED SPACING: 0.0625
Info: NONBONDED TABLE SIZE: 705 POINTS
TCL: Running for 1500000 steps
ETITLE: TS BOND ANGLE DIHED IMPRP ELECT VDW BOUNDARY MISC KINETIC TOTAL TEMP POTENTIAL TOTALAVG TEMPAVG PRESSURE GPRESSURE VOLUME PRESSAVG GPRESSAVG
ENERGY: 0 1.1619 7.2378 5.4806 0.0000 -10545.8781 1432.1999 0.0000 0.0000 1732.9677 -7366.8302 298.1433 -9099.7979 -7366.8302 298.1433 60.6189 149.9618 30221.8568 60.6189 149.9618
ENERGY: 300000 5.0629 8.2637 2.9629 0.0000 -10529.1050 1389.7452 0.0000 0.0000 1708.5938 -7414.4764 293.9499 -9123.0703 -7353.1394 300.4484 -301.1358 -186.6261 30177.8941 -185.3444 -110.0840
ENERGY: 600000 2.4713 6.6632 6.5505 0.0000 -10519.0530 1368.5690 0.0000 0.0000 1757.3454 -7377.4537 302.3372 -9134.7990 -7392.2419 300.1309 -536.3274 -505.0589 30078.1402 -261.5439 -204.0442
ENERGY: 900000 1.0823 10.2825 4.1297 0.0000 -10574.1685 1426.3699 0.0000 0.0000 1806.7150 -7325.5892 310.8309 -9132.3042 -7397.6306 300.8331 -157.8759 -117.5466 30368.8321 -178.5209 -114.6472
ENERGY: 1200000 3.6020 9.6169 5.3690 0.0000 -10312.0524 1268.9574 0.0000 0.0000 1743.5786 -7280.9285 299.9688 -9024.5071 -7384.0649 301.4377 -1094.2304 -1021.8143 30542.7039 -172.1498 -106.1939
ENERGY: 1500000 1.9838 5.8333 3.9181 0.0000 -10625.3565 1518.2860 0.0000 0.0000 1802.7869 -7292.5484 310.1551 -9095.3353 -7387.1136 300.9917 1054.0580 1052.1063 29806.5721 -37.4214 23.7335
TCL: Running FEP window   9: Lambda1 0.5999999999999996 Lambda2 0.5499999999999996 [dLambda -0.050000000000000044]
TCL: Setting parameter firsttimestep to 0
TCL: Setting parameter alchLambda to 0.5999999999999996
Info: NONBONDED TABLE R-SQUARED SPACING: 0.0625
Info: NONBONDED TABLE SIZE: 705 POINTS
TCL: Setting parameter alchLambda2 to 0.5499999999999996
Info: NONBONDED TABLE R-SQUARED SPACING: 0.0625
Info: NONBONDED TABLE SIZE: 705 POINTS
TCL: Running for 1500000 steps
ETITLE: TS BOND ANGLE DIHED IMPRP ELECT VDW BOUNDARY MISC KINETIC TOTAL TEMP POTENTIAL TOTALAVG TEMPAVG PRESSURE GPRESSURE VOLUME PRESSAVG GPRESSAVG
ENERGY: 0 1.9838 5.8333 3.9181 0.0000 -10625.3884 1518.2197 0.0000 0.0000 1801.9102 -7293.5233 310.0043 -9095.4335 -7293.5233 310.0043 966.7523 1040.4345 29806.5721 966.7523 1040.4345
ENERGY: 300000 3.6421 7.7640 6.6654 0.0000 -10563.8794 1385.5067 0.0000 0.0000 1791.6968 -7368.6044 308.2471 -9160.3011 -7364.7441 305.2178 -536.8009 -479.0804 30341.2689 82.2703 174.2821
ENERGY: 600000 0.4028 7.5252 5.8082 0.0000 -10480.8378 1358.5828 0.0000 0.0000 1768.1618 -7340.3570 304.1981 -9108.5188 -7356.1766 304.6762 -229.6895 -120.4854 29500.2185 -146.0758 -55.4749
ENERGY: 900000 3.5958 6.4719 5.0692 0.0000 -10562.4507 1422.3812 0.0000 0.0000 1737.3212 -7387.6114 298.8922 -9124.9325 -7369.1634 302.4665 -226.8521 -227.4669 30228.2301 -67.2524 7.4776
ENERGY: 1200000 1.2183 7.5673 4.7949 0.0000 -10566.2940 1417.9021 0.0000 0.0000 1717.9786 -7416.8328 295.5645 -9134.8114 -7378.8631 301.5183 18.0048 89.7986 30116.7341 -73.1512 7.9376
ENERGY: 1500000 0.4402 10.7449 4.5763 0.0000 -10609.5497 1444.6264 0.0000 0.0000 1728.8751 -7420.2867 297.4392 -9149.1619 -7383.1721 300.8188 -124.0957 -63.6065 30502.7914 -84.3460 -5.8684
TCL: Running FEP window  10: Lambda1 0.5499999999999996 Lambda2 0.4999999999999996 [dLambda -0.04999999999999999]
TCL: Setting parameter firsttimestep to 0
TCL: Setting parameter alchLambda to 0.5499999999999996
Info: NONBONDED TABLE R-SQUARED SPACING: 0.0625
Info: NONBONDED TABLE SIZE: 705 POINTS
TCL: Setting parameter alchLambda2 to 0.4999999999999996
Info: NONBONDED TABLE R-SQUARED SPACING: 0.0625
Info: NONBONDED TABLE SIZE: 705 POINTS
TCL: Running for 1500000 steps
ETITLE: TS BOND ANGLE DIHED IMPRP ELECT VDW BOUNDARY MISC KINETIC TOTAL TEMP POTENTIAL TOTALAVG TEMPAVG PRESSURE GPRESSURE VOLUME PRESSAVG GPRESSAVG
ENERGY: 0 0.4402 10.7449 4.5763 0.0000 -10609.5525 1445.1448 0.0000 0.0000 1728.0302 -7420.6161 297.2938 -9148.6463 -7420.6161 297.2938 -146.8204 -64.6963 30502.7914 -146.8204 -64.6963
ENERGY: 300000 2.2734 12.5883 3.8621 0.0000 -10609.6983 1402.8942 0.0000 0.0000 1708.1764 -7479.9040 293.8781 -9188.0804 -7458.2558 295.8507 -164.8607 -141.8832 29554.9379 227.6660 270.9113
ENERGY: 600000 1.3069 7.2712 4.2513 0.0000 -10668.4680 1468.6125 0.0000 0.0000 1681.6084 -7505.4178 289.3073 -9187.0262 -7436.3676 296.0734 292.9318 359.8791 29652.4960 124.8748 174.4001
ENERGY: 900000 1.2097 5.7421 3.6602 0.0000 -10553.9749 1381.4556 0.0000 0.0000 1728.8676 -7433.0396 297.4379 -9161.9072 -7436.2183 296.3240 -376.7761 -265.7907 29812.8023 44.3726 103.5735
ENERGY: 1200000 4.1558 4.3540 5.5939 0.0000 -10570.7045 1394.1919 0.0000 0.0000 1748.8716 -7413.5374 300.8794 -9162.4090 -7430.2834 296.4167 -279.9423 -208.6700 30048.4877 -2.4311 54.1937
ENERGY: 1500000 1.8326 10.3560 6.6179 0.0000 -10516.3170 1383.3707 0.0000 0.0000 1759.5110 -7354.6289 302.7098 -9114.1399 -7427.0455 296.7895 -131.9165 -94.8150 30000.8346 -72.5828 -11.9814
TCL: Running FEP window  11: Lambda1 0.4999999999999996 Lambda2 0.4499999999999996 [dLambda -0.04999999999999999]
TCL: Setting parameter firsttimestep to 0
TCL: Setting parameter alchLambda to 0.4999999999999996
Info: NONBONDED TABLE R-SQUARED SPACING: 0.0625
Info: NONBONDED TABLE SIZE: 705 POINTS
TCL: Setting parameter alchLambda2 to 0.4499999999999996
Info: NONBONDED TABLE R-SQUARED SPACING: 0.0625
Info: NONBONDED TABLE SIZE: 705 POINTS
TCL: Running for 1500000 steps
ETITLE: TS BOND ANGLE DIHED IMPRP ELECT VDW BOUNDARY MISC KINETIC TOTAL TEMP POTENTIAL TOTALAVG TEMPAVG PRESSURE GPRESSURE VOLUME PRESSAVG GPRESSAVG
ENERGY: 0 1.8326 10.3560 6.6179 0.0000 -10516.3683 1383.8380 0.0000 0.0000 1758.6720 -7355.0519 302.5655 -9113.7239 -7355.0519 302.5655 -166.9593 -94.9499 30000.8346 -166.9593 -94.9499
ENERGY: 300000 1.7472 5.1514 4.6866 0.0000 -10582.8028 1421.7576 0.0000 0.0000 1758.8949 -7390.5652 302.6038 -9149.4601 -7358.4448 302.8980 8.9707 -4.9332 29941.5795 -271.6666 -232.4451
ENERGY: 600000 2.7395 8.2598 6.3891 0.0000 -10543.7669 1404.5677 0.0000 0.0000 1742.5683 -7379.2424 299.7950 -9121.8107 -7371.5982 301.1040 -99.1524 20.2923 29818.0957 24.9643 79.2308
ENERGY: 900000 1.2172 6.1342 4.7239 0.0000 -10406.6166 1362.7087 0.0000 0.0000 1781.6970 -7250.1356 306.5267 -9031.8326 -7354.1087 301.6354 -192.4650 -109.0866 30335.1277 -111.3994 -59.9021
ENERGY: 1200000 1.4259 8.2856 2.7710 0.0000 -10508.1682 1398.8439 0.0000 0.0000 1771.9383 -7324.9037 304.8478 -9096.8419 -7356.9398 301.8603 -28.0192 48.8384 29820.5593 -60.3708 -5.7954
ENERGY: 1500000 0.6849 6.7224 4.5968 0.0000 -10715.1974 1428.5555 0.0000 0.0000 1735.9454 -7538.6924 298.6555 -9274.6378 -7376.1435 300.9119 -180.0738 -140.6810 29609.6698 -35.3391 14.1590
TCL: Running FEP window  12: Lambda1 0.4499999999999996 Lambda2 0.39999999999999963 [dLambda -0.04999999999999999]
TCL: Setting parameter firsttimestep to 0
TCL: Setting parameter alchLambda to 0.4499999999999996
Info: NONBONDED TABLE R-SQUARED SPACING: 0.0625
Info: NONBONDED TABLE SIZE: 705 POINTS
TCL: Setting parameter alchLambda2 to 0.39999999999999963
Info: NONBONDED TABLE R-SQUARED SPACING: 0.0625
Info: NONBONDED TABLE SIZE: 705 POINTS
TCL: Running for 1500000 steps
ETITLE: TS BOND ANGLE DIHED IMPRP ELECT VDW BOUNDARY MISC KINETIC TOTAL TEMP POTENTIAL TOTALAVG TEMPAVG PRESSURE GPRESSURE VOLUME PRESSAVG GPRESSAVG
ENERGY: 0 0.6849 6.7224 4.5968 0.0000 -10715.1962 1428.3942 0.0000 0.0000 1735.0679 -7539.7300 298.5046 -9274.7979 -7539.7300 298.5046 -234.9294 -149.5358 29609.6698 -234.9294 -149.5358
ENERGY: 300000 1.1906 9.8849 4.1865 0.0000 -10535.0971 1427.2026 0.0000 0.0000 1666.3367 -7426.2957 286.6799 -9092.6325 -7433.0500 296.6481 390.9565 458.5504 29562.8547 42.6737 121.5012
ENERGY: 600000 2.3883 3.7654 4.4409 0.0000 -10513.6108 1380.6279 0.0000 0.0000 1756.6503 -7365.7379 302.2177 -9122.3882 -7432.3869 296.5477 -477.0584 -474.8256 30222.7889 -93.7655 -22.1826
ENERGY: 900000 0.8454 6.1072 4.3809 0.0000 -10440.1443 1328.0109 0.0000 0.0000 1725.6020 -7375.1980 296.8760 -9100.8000 -7421.1444 296.0986 -770.0943 -671.9945 30454.8609 -174.3778 -106.0986
ENERGY: 1200000 0.7601 11.1259 7.1575 0.0000 -10585.1155 1436.5867 0.0000 0.0000 1773.0390 -7356.4463 305.0372 -9129.4853 -7405.1716 297.5463 317.3180 251.9181 29711.4287 -169.8444 -110.5782
ENERGY: 1500000 0.7635 6.7007 5.5579 0.0000 -10528.9036 1373.8437 0.0000 0.0000 1749.3871 -7392.6506 300.9681 -9142.0378 -7407.7720 297.4163 -430.7316 -336.6742 29935.0397 -254.3724 -197.0018
TCL: Running FEP window  13: Lambda1 0.39999999999999963 Lambda2 0.34999999999999964 [dLambda -0.04999999999999999]
TCL: Setting parameter firsttimestep to 0
TCL: Setting parameter alchLambda to 0.39999999999999963
Info: NONBONDED TABLE R-SQUARED SPACING: 0.0625
Info: NONBONDED TABLE SIZE: 705 POINTS
TCL: Setting parameter alchLambda2 to 0.34999999999999964
Info: NONBONDED TABLE R-SQUARED SPACING: 0.0625
Info: NONBONDED TABLE SIZE: 705 POINTS
TCL: Running for 1500000 steps
ETITLE: TS BOND ANGLE DIHED IMPRP ELECT VDW BOUNDARY MISC KINETIC TOTAL TEMP POTENTIAL TOTALAVG TEMPAVG PRESSURE GPRESSURE VOLUME PRESSAVG GPRESSAVG
ENERGY: 0 0.7636 6.7008 5.5579 0.0000 -10528.9057 1373.6628 0.0000 0.0000 1748.5338 -7393.6869 300.8213 -9142.2207 -7393.6869 300.8213 -429.5302 -341.5243 29935.0397 -429.5302 -341.5243
ENERGY: 300000 1.3381 6.3290 6.1622 0.0000 -10519.7617 1387.1281 0.0000 0.0000 1698.1530 -7420.6513 292.1537 -9118.8042 -7360.2407 303.0417 -314.1574 -257.0961 30048.7102 35.3012 106.3880
ENERGY: 600000 1.5018 7.3972 3.2648 0.0000 -10593.6008 1462.8248 0.0000 0.0000 1785.7869 -7332.8253 307.2304 -9118.6122 -7378.7388 301.9940 193.1422 269.1463 30121.9266 -146.9747 -79.3866
ENERGY: 900000 0.9170 7.3621 4.4263 0.0000 -10577.9839 1406.5679 0.0000 0.0000 1683.8479 -7474.8627 289.6926 -9158.7105 -7385.2360 301.0365 -446.9903 -437.8046 30368.2338 -203.5111 -145.1483
ENERGY: 1200000 1.6956 5.6533 6.0022 0.0000 -10668.3836 1402.3736 0.0000 0.0000 1687.7218 -7564.9371 290.3591 -9252.6589 -7401.7441 299.6233 -483.6648 -430.6155 29668.4424 -113.4674 -53.4484
ENERGY: 1500000 2.4816 10.2916 5.9716 0.0000 -10584.8704 1476.9390 0.0000 0.0000 1749.6634 -7339.5232 301.0156 -9089.1866 -7392.0917 299.7255 265.7765 347.6271 30225.0922 -80.5570 -18.2988
TCL: Running FEP window  14: Lambda1 0.34999999999999964 Lambda2 0.29999999999999966 [dLambda -0.04999999999999999]
TCL: Setting parameter firsttimestep to 0
TCL: Setting parameter alchLambda to 0.34999999999999964
Info: NONBONDED TABLE R-SQUARED SPACING: 0.0625
Info: NONBONDED TABLE SIZE: 705 POINTS
TCL: Setting parameter alchLambda2 to 0.29999999999999966
Info: NONBONDED TABLE R-SQUARED SPACING: 0.0625
Info: NONBONDED TABLE SIZE: 705 POINTS
TCL: Running for 1500000 steps
ETITLE: TS BOND ANGLE DIHED IMPRP ELECT VDW BOUNDARY MISC KINETIC TOTAL TEMP POTENTIAL TOTALAVG TEMPAVG PRESSURE GPRESSURE VOLUME PRESSAVG GPRESSAVG
ENERGY: 0 2.4816 10.2916 5.9716 0.0000 -10584.8701 1476.6749 0.0000 0.0000 1748.8123 -7340.6381 300.8692 -9089.4504 -7340.6381 300.8692 251.7049 339.8424 30225.0922 251.7049 339.8424
ENERGY: 300000 1.7959 9.8230 4.8627 0.0000 -10479.7466 1392.5593 0.0000 0.0000 1737.0228 -7333.6829 298.8409 -9070.7057 -7386.6251 299.7132 49.6006 96.4814 29843.7413 -139.9794 -47.6470
ENERGY: 600000 0.6258 4.3092 5.8045 0.0000 -10489.5621 1395.6303 0.0000 0.0000 1731.8230 -7351.3693 297.9463 -9083.1922 -7398.1612 298.1060 65.6791 112.8266 29850.3960 96.9621 175.0245
ENERGY: 900000 1.1549 5.4221 6.2437 0.0000 -10658.7472 1423.7910 0.0000 0.0000 1833.7004 -7388.4351 315.4735 -9222.1355 -7392.4984 301.4689 -144.9577 -68.2501 29787.9129 135.8320 214.1262
ENERGY: 1200000 1.9745 6.7282 5.2444 0.0000 -10621.8372 1443.8237 0.0000 0.0000 1786.0031 -7378.0633 307.2676 -9164.0665 -7390.4900 301.8208 243.0890 275.2390 29801.0849 55.8836 129.5027
ENERGY: 1500000 1.2755 6.1888 4.5251 0.0000 -10644.9380 1481.6975 0.0000 0.0000 1736.4145 -7414.8366 298.7362 -9151.2510 -7385.3896 301.9954 168.4260 226.2415 30062.3359 -21.7937 51.4935
TCL: Running FEP window  15: Lambda1 0.29999999999999966 Lambda2 0.24999999999999967 [dLambda -0.04999999999999999]
TCL: Setting parameter firsttimestep to 0
TCL: Setting parameter alchLambda to 0.29999999999999966
Info: NONBONDED TABLE R-SQUARED SPACING: 0.0625
Info: NONBONDED TABLE SIZE: 705 POINTS
TCL: Setting parameter alchLambda2 to 0.24999999999999967
Info: NONBONDED TABLE R-SQUARED SPACING: 0.0625
Info: NONBONDED TABLE SIZE: 705 POINTS
TCL: Running for 1500000 steps
ETITLE: TS BOND ANGLE DIHED IMPRP ELECT VDW BOUNDARY MISC KINETIC TOTAL TEMP POTENTIAL TOTALAVG TEMPAVG PRESSURE GPRESSURE VOLUME PRESSAVG GPRESSAVG
ENERGY: 0 1.2755 6.1888 4.5251 0.0000 -10644.9381 1482.0653 0.0000 0.0000 1735.5718 -7415.3115 298.5913 -9150.8833 -7415.3115 298.5913 144.2808 227.1159 30062.3359 144.2808 227.1159
ENERGY: 300000 1.0988 8.3449 5.3215 0.0000 -10619.9723 1442.1903 0.0000 0.0000 1733.3881 -7429.6287 298.2156 -9163.0169 -7383.4859 297.5936 175.0408 297.0092 29381.0222 52.1369 151.4684
ENERGY: 600000 2.0677 6.3459 5.2385 0.0000 -10547.4622 1417.0483 0.0000 0.0000 1757.1485 -7359.6134 302.3034 -9116.7619 -7368.9949 300.4680 23.4623 44.0549 29935.3491 110.5879 188.2495
ENERGY: 900000 1.7451 7.5554 6.9505 0.0000 -10474.9520 1416.6068 0.0000 0.0000 1732.8913 -7309.2029 298.1301 -9042.0943 -7384.1002 300.0597 59.8668 130.7877 30210.9984 49.7735 136.2410
ENERGY: 1200000 0.7318 6.6042 8.3072 0.0000 -10476.3069 1407.9736 0.0000 0.0000 1776.7253 -7275.9647 305.6714 -9052.6900 -7364.8851 301.0257 -15.4425 54.0748 30005.6376 55.2712 138.6257
ENERGY: 1500000 1.2138 7.1815 6.6384 0.0000 -10563.1688 1400.2417 0.0000 0.0000 1712.3209 -7435.5726 294.5911 -9147.8935 -7364.1368 300.4931 -304.3851 -364.5420 30041.3240 35.9286 107.6164
TCL: Running FEP window  16: Lambda1 0.24999999999999967 Lambda2 0.19999999999999968 [dLambda -0.04999999999999999]
TCL: Setting parameter firsttimestep to 0
TCL: Setting parameter alchLambda to 0.24999999999999967
Info: NONBONDED TABLE R-SQUARED SPACING: 0.0625
Info: NONBONDED TABLE SIZE: 705 POINTS
TCL: Setting parameter alchLambda2 to 0.19999999999999968
Info: NONBONDED TABLE R-SQUARED SPACING: 0.0625
Info: NONBONDED TABLE SIZE: 705 POINTS
TCL: Running for 1500000 steps
ETITLE: TS BOND ANGLE DIHED IMPRP ELECT VDW BOUNDARY MISC KINETIC TOTAL TEMP POTENTIAL TOTALAVG TEMPAVG PRESSURE GPRESSURE VOLUME PRESSAVG GPRESSAVG
ENERGY: 0 1.2138 7.1815 6.6384 0.0000 -10563.1696 1400.0199 0.0000 0.0000 1711.4739 -7436.6422 294.4454 -9148.1161 -7436.6422 294.4454 -452.1545 -370.9846 30041.3240 -452.1545 -370.9846
ENERGY: 300000 3.1303 7.0106 5.7183 0.0000 -10575.1910 1427.8725 0.0000 0.0000 1726.5495 -7404.9098 297.0391 -9131.4593 -7400.2006 297.9216 42.9032 57.2906 29856.0832 -22.6249 31.2691
ENERGY: 600000 2.2001 8.5056 8.3171 0.0000 -10536.9981 1421.6152 0.0000 0.0000 1761.2487 -7335.1115 303.0088 -9096.3602 -7375.1835 300.9410 -142.2929 -48.4953 29886.3225 -6.4936 61.5345
ENERGY: 900000 0.9987 6.4204 3.2764 0.0000 -10620.6682 1453.8519 0.0000 0.0000 1755.0809 -7401.0399 301.9477 -9156.1208 -7377.2041 301.0699 126.0335 205.5174 29929.3163 -108.8156 -34.5912
ENERGY: 1200000 3.2042 4.3266 5.6674 0.0000 -10619.0975 1449.4076 0.0000 0.0000 1720.0109 -7436.4809 295.9141 -9156.4918 -7383.4247 300.2383 -46.4693 -12.1959 30055.1495 -181.6443 -105.7552
ENERGY: 1500000 3.4638 9.3382 4.6128 0.0000 -10616.8386 1454.5807 0.0000 0.0000 1725.7957 -7419.0474 296.9094 -9144.8431 -7386.3654 299.9960 50.5824 151.5812 30123.9706 -180.1328 -106.3554
TCL: Running FEP window  17: Lambda1 0.19999999999999968 Lambda2 0.1499999999999997 [dLambda -0.04999999999999999]
TCL: Setting parameter firsttimestep to 0
TCL: Setting parameter alchLambda to 0.19999999999999968
Info: NONBONDED TABLE R-SQUARED SPACING: 0.0625
Info: NONBONDED TABLE SIZE: 705 POINTS
TCL: Setting parameter alchLambda2 to 0.1499999999999997
Info: NONBONDED TABLE R-SQUARED SPACING: 0.0625
Info: NONBONDED TABLE SIZE: 705 POINTS
TCL: Running for 1500000 steps
ETITLE: TS BOND ANGLE DIHED IMPRP ELECT VDW BOUNDARY MISC KINETIC TOTAL TEMP POTENTIAL TOTALAVG TEMPAVG PRESSURE GPRESSURE VOLUME PRESSAVG GPRESSAVG
ENERGY: 0 3.4637 9.3382 4.6128 0.0000 -10616.8386 1454.2236 0.0000 0.0000 1724.9420 -7420.2582 296.7625 -9145.2002 -7420.2582 296.7625 67.3822 146.0274 30123.9706 67.3822 146.0274
ENERGY: 300000 0.5114 7.3361 6.8154 0.0000 -10479.0759 1376.3575 0.0000 0.0000 1742.9803 -7345.0751 299.8658 -9088.0555 -7362.2590 299.6319 -364.3832 -303.2627 30323.8419 95.1480 176.5222
ENERGY: 600000 0.7794 3.4497 5.8271 0.0000 -10604.8704 1396.6431 0.0000 0.0000 1721.9480 -7476.2230 296.2474 -9198.1711 -7407.2659 296.9759 -450.4827 -300.8011 29768.8959 -188.1289 -117.3266
ENERGY: 900000 2.5740 10.1529 5.0009 0.0000 -10419.0126 1311.8058 0.0000 0.0000 1751.9872 -7337.4918 301.4154 -9089.4790 -7382.6985 299.1027 -760.0808 -671.2620 30251.8521 -203.8618 -126.8702
ENERGY: 1200000 1.7415 10.5030 7.1876 0.0000 -10478.9232 1428.3727 0.0000 0.0000 1687.2846 -7343.8338 290.2838 -9031.1184 -7379.7197 299.0178 426.8515 514.9971 29764.3401 -97.2273 -25.5965
ENERGY: 1500000 1.4260 7.7995 7.2242 0.0000 -10631.9496 1506.4598 0.0000 0.0000 1711.4926 -7397.5476 294.4486 -9109.0401 -7383.9860 299.0255 703.7720 773.1534 29719.2024 42.8223 112.5304
TCL: Running FEP window  18: Lambda1 0.1499999999999997 Lambda2 0.09999999999999969 [dLambda -0.05 ]
TCL: Setting parameter firsttimestep to 0
TCL: Setting parameter alchLambda to 0.1499999999999997
Info: NONBONDED TABLE R-SQUARED SPACING: 0.0625
Info: NONBONDED TABLE SIZE: 705 POINTS
TCL: Setting parameter alchLambda2 to 0.09999999999999969
Info: NONBONDED TABLE R-SQUARED SPACING: 0.0625
Info: NONBONDED TABLE SIZE: 705 POINTS
TCL: Running for 1500000 steps
ETITLE: TS BOND ANGLE DIHED IMPRP ELECT VDW BOUNDARY MISC KINETIC TOTAL TEMP POTENTIAL TOTALAVG TEMPAVG PRESSURE GPRESSURE VOLUME PRESSAVG GPRESSAVG
ENERGY: 0 1.4260 7.7995 7.2242 0.0000 -10631.9492 1506.3420 0.0000 0.0000 1710.6453 -7398.5123 294.3029 -9109.1576 -7398.5123 294.3029 675.2318 768.9628 29719.2024 675.2318 768.9628
ENERGY: 300000 2.6661 8.6957 6.3583 0.0000 -10554.2890 1381.6250 0.0000 0.0000 1700.0262 -7454.9178 292.4759 -9154.9440 -7399.9575 297.8771 -285.3425 -208.0221 29583.5952 -71.0829 6.7079
ENERGY: 600000 2.7740 6.0889 4.4434 0.0000 -10521.1960 1400.0485 0.0000 0.0000 1744.4390 -7363.4022 300.1168 -9107.8412 -7384.6572 299.2150 -173.0046 -134.4140 30045.5416 -31.0599 39.1124
ENERGY: 900000 1.6563 10.4640 3.4695 0.0000 -10469.8852 1400.9123 0.0000 0.0000 1798.0272 -7255.3559 309.3362 -9053.3831 -7371.9470 299.1853 -46.8255 -2.9966 30227.3304 -106.4247 -40.7856
ENERGY: 1200000 0.7837 5.3323 4.1187 0.0000 -10538.2334 1387.6565 0.0000 0.0000 1744.0079 -7396.3342 300.0426 -9140.3422 -7384.0550 299.9269 -296.8780 -220.2711 29951.5033 -207.3626 -138.0581
ENERGY: 1500000 2.0869 8.4263 5.7083 0.0000 -10451.9399 1383.5497 0.0000 0.0000 1754.4463 -7297.7225 301.8385 -9052.1688 -7379.5365 300.1127 -8.8312 -53.5514 30215.6559 -167.9290 -105.3396
TCL: Running FEP window  19: Lambda1 0.09999999999999969 Lambda2 0.049999999999999684 [dLambda -0.05 ]
TCL: Setting parameter firsttimestep to 0
TCL: Setting parameter alchLambda to 0.09999999999999969
Info: NONBONDED TABLE R-SQUARED SPACING: 0.0625
Info: NONBONDED TABLE SIZE: 705 POINTS
TCL: Setting parameter alchLambda2 to 0.049999999999999684
Info: NONBONDED TABLE R-SQUARED SPACING: 0.0625
Info: NONBONDED TABLE SIZE: 705 POINTS
TCL: Running for 1500000 steps
ETITLE: TS BOND ANGLE DIHED IMPRP ELECT VDW BOUNDARY MISC KINETIC TOTAL TEMP POTENTIAL TOTALAVG TEMPAVG PRESSURE GPRESSURE VOLUME PRESSAVG GPRESSAVG
ENERGY: 0 2.0869 8.4263 5.7083 0.0000 -10451.9396 1383.3587 0.0000 0.0000 1753.5590 -7298.8005 301.6858 -9052.3595 -7298.8005 301.6858 -137.3159 -56.9601 30215.6559 -137.3159 -56.9601
ENERGY: 300000 2.8564 7.8705 5.5114 0.0000 -10422.6669 1351.6220 0.0000 0.0000 1743.9231 -7310.8836 300.0280 -9054.8066 -7352.9110 301.0588 -636.6444 -643.0128 30273.9263 39.5271 87.6517
ENERGY: 600000 0.8708 8.9936 4.8805 0.0000 -10525.3526 1487.8999 0.0000 0.0000 1758.8122 -7263.8957 302.5896 -9022.7079 -7347.4393 301.9737 688.8546 812.1672 30089.5025 -15.2480 46.8545
ENERGY: 900000 2.1271 9.7035 6.2197 0.0000 -10440.7008 1402.3338 0.0000 0.0000 1698.1993 -7322.1174 292.1616 -9020.3167 -7344.0067 301.3836 95.9109 170.3659 30139.3756 36.9254 92.6685
ENERGY: 1200000 0.2733 6.6555 4.8353 0.0000 -10561.8621 1428.8396 0.0000 0.0000 1709.3994 -7411.8590 294.0885 -9121.2584 -7351.9057 299.8089 -111.3750 -92.3225 30005.9278 52.1250 101.5053
ENERGY: 1500000 0.5095 9.9488 2.7725 0.0000 -10428.4725 1325.0992 0.0000 0.0000 1790.1232 -7300.0192 307.9764 -9090.1424 -7353.7680 300.4119 -705.4551 -700.6974 30170.4949 -2.9878 40.2235
TCL: Running FEP window  20: Lambda1 0.049999999999999684 Lambda2 0.0    [dLambda -0.049999999999999684]
TCL: Setting parameter firsttimestep to 0
TCL: Setting parameter alchLambda to 0.049999999999999684
Info: NONBONDED TABLE R-SQUARED SPACING: 0.0625
Info: NONBONDED TABLE SIZE: 705 POINTS
TCL: Setting parameter alchLambda2 to 0.0
Info: NONBONDED TABLE R-SQUARED SPACING: 0.0625
Info: NONBONDED TABLE SIZE: 705 POINTS
TCL: Running for 1500000 steps
ETITLE: TS BOND ANGLE DIHED IMPRP ELECT VDW BOUNDARY MISC KINETIC TOTAL TEMP POTENTIAL TOTALAVG TEMPAVG PRESSURE GPRESSURE VOLUME PRESSAVG GPRESSAVG
ENERGY: 0 0.5095 9.9488 2.7725 0.0000 -10428.4706 1324.1030 0.0000 0.0000 1789.2552 -7301.8815 307.8271 -9091.1367 -7301.8815 307.8271 -778.5982 -705.9265 30170.4949 -778.5982 -705.9265
ENERGY: 300000 1.1456 7.2586 4.6776 0.0000 -10603.4750 1460.9407 0.0000 0.0000 1748.2434 -7381.2092 300.7713 -9129.4526 -7352.1717 303.5985 552.6022 605.2845 29505.1955 -172.9557 -113.7292
ENERGY: 600000 1.9393 7.5378 4.9407 0.0000 -10592.1024 1406.9933 0.0000 0.0000 1703.6210 -7467.0704 293.0944 -9170.6915 -7369.1595 302.8472 42.7958 163.4422 29490.5608 -147.3598 -82.2591
ENERGY: 900000 0.9522 5.4422 6.2151 0.0000 -10607.3749 1426.4214 0.0000 0.0000 1778.0168 -7390.3272 305.8936 -9168.3440 -7368.5911 302.6315 -77.2516 -38.7241 30123.4423 -120.8095 -64.0643
ENERGY: 1200000 2.3272 6.3240 6.9789 0.0000 -10465.1132 1367.0353 0.0000 0.0000 1716.1547 -7366.2930 295.2507 -9082.4477 -7369.4413 302.1301 -434.7622 -372.9910 29962.2329 -80.7429 -19.4677
ENERGY: 1500000 1.2567 4.8141 5.4080 0.0000 -10386.0086 1329.4111 0.0000 0.0000 1724.8039 -7320.3148 296.7387 -9045.1187 -7366.9013 301.6835 -664.3774 -545.8472 30223.8816 -90.9393 -23.0976
TCL: Exiting due to exit command.
