Info: SIMULATION PARAMETERS:
Info: TIMESTEP               2
Info: NUMBER OF STEPS        0
Info: STEPS PER CYCLE        10
Info: PERIODIC CELL BASIS 1  31.7169 0 0
Info: PERIODIC CELL BASIS 2  0 29.5473 0
Info: PERIODIC CELL BASIS 3  0 0 31.8878
Info: PERIODIC CELL CENTER   0 0 0
Info: WRAPPING WATERS AROUND PERIODIC BOUNDARIES ON OUTPUT.
Info: WRAPPING ALL CLUSTERS AROUND PERIODIC BOUNDARIES ON OUTPUT.
Info: FIRST LDB TIMESTEP     50
Info: LAST LDB TIMESTEP     -1
Info: HOM BACKGROUND SCALING 1
Info: PME BACKGROUND SCALING 1
Info: MIN ATOMS PER PATCH    40
Info: EMPTY PATCH LOAD       40 ATOMS
Info: VELOCITY FILE          mobley_2850833_equil.vel
Info: CENTER OF MASS MOVING INITIALLY? NO
Info: DIELECTRIC             1
Info: EXCLUDE                SCALED ONE-FOUR
Info: 1-4 ELECTROSTATICS SCALED BY 0.833333
Info: MODIFIED 1-4 VDW PARAMETERS WILL BE USED
Info: DCD FILENAME           mobley_2850833_prod.dcd
Info: DCD FREQUENCY          100000
Info: DCD FIRST STEP         100000
Info: DCD FILE WILL CONTAIN UNIT CELL DATA
Info: XST FILENAME           mobley_2850833_prod.xst
Info: XST FREQUENCY          100000
Info: NO VELOCITY DCD OUTPUT
Info: NO FORCE DCD OUTPUT
Info: OUTPUT FILENAME        mobley_2850833_prod
Info: BINARY OUTPUT FILES WILL BE USED
Info: RESTART FILENAME       mobley_2850833_prod.restart
Info: RESTART FREQUENCY      100000
Info: BINARY RESTART FILES WILL BE USED
Info: CUTOFF                 9
Info: PAIRLIST DISTANCE      11
Info: PAIRLIST SHRINK RATE   0.01
Info: PAIRLIST GROW RATE     0.01
Info: PAIRLIST TRIGGER       0.3
Info: PAIRLISTS PER CYCLE    2
Info: PAIRLISTS ENABLED
Info: MARGIN                 2
Info: HYDROGEN GROUP CUTOFF  2.5
Info: PATCH DIMENSION        15.5
Info: ENERGY OUTPUT STEPS    100000
Info: ENERGY EVALUATION STEPS    100000
Info: OUTPUT ENERGY PRECISION 4
Info: CROSSTERM ENERGY INCLUDED IN DIHEDRAL
Info: TIMING OUTPUT STEPS    1000000
Info: PRESSURE OUTPUT STEPS  100000
Info: ALCHEMICAL FEP ON
Info: FEP CURRENT LAMBDA VALUE     0
Info: FEP COMPARISON LAMBDA VALUE  0.05
Info: FEP INTRA-ALCHEMICAL NON-BONDED INTERACTIONS WILL BE RETAINED
Info: FEP INTRA-ALCHEMICAL BONDED INTERACTIONS WILL BE RETAINED
Info: FEP VDW SHIFTING COEFFICIENT 5
Info: FEP ELEC. ACTIVE FOR ANNIHILATED PARTICLES BETWEEN LAMBDA = 0 AND LAMBDA = 0.5
Info: FEP ELEC. ACTIVE FOR EXNIHILATED PARTICLES BETWEEN LAMBDA = 0.5 AND LAMBDA = 1
Info: FEP VDW ACTIVE FOR ANNIHILATED PARTICLES BETWEEN LAMBDA = 0 AND LAMBDA = 1
Info: FEP VDW ACTIVE FOR EXNIHILATED PARTICLES BETWEEN LAMBDA = 0 AND LAMBDA = 1
Info: FEP BOND ACTIVE FOR ANNIHILATED PARTICLES BETWEEN LAMBDA = 1 AND LAMBDA = 1
Info: FEP BOND ACTIVE FOR EXNIHILATED PARTICLES BETWEEN LAMBDA = 0 AND LAMBDA = 0
Info: LANGEVIN DYNAMICS ACTIVE
Info: LANGEVIN TEMPERATURE   300
Info: LANGEVIN USING BBK INTEGRATOR
Info: LANGEVIN DAMPING COEFFICIENT IS 1 INVERSE PS
Info: LANGEVIN DYNAMICS APPLIED TO HYDROGENS
Info: LANGEVIN PISTON PRESSURE CONTROL ACTIVE
Info:        TARGET PRESSURE IS 1.01325 BAR
Info:     OSCILLATION PERIOD IS 50 FS
Info:             DECAY TIME IS 25 FS
Info:     PISTON TEMPERATURE IS 300 K
Info:       PRESSURE CONTROL IS GROUP-BASED
Info:    INITIAL STRAIN RATE IS -0.000323469 -0.000323469 -0.000323469
Info:       CELL FLUCTUATION IS ISOTROPIC
Info: PARTICLE MESH EWALD (PME) ACTIVE
Info: PME TOLERANCE               1e-06
Info: PME EWALD COEFFICIENT       0.348832
Info: PME INTERPOLATION ORDER     4
Info: PME GRID DIMENSIONS         32 32 32
Info: PME MAXIMUM GRID SPACING    1
Info: PME CALCULATION WILL BE PERFORMED ON GPU
Info: FULL ELECTROSTATIC EVALUATION FREQUENCY      2
Info: USING VERLET I (r-RESPA) MTS SCHEME.
Info: C1 SPLITTING OF LONG RANGE ELECTROSTATICS
Info: PLACING ATOMS IN PATCHES BY HYDROGEN GROUPS
Info: RIGID BONDS TO HYDROGEN : ALL
Info:         ERROR TOLERANCE : 1e-08
Info:          MAX ITERATIONS : 100
Info: RIGID WATER USING SETTLE ALGORITHM
Info: RANDOM NUMBER SEED     1743758544
Info: USE HYDROGEN BONDS?    NO
Info: Using AMBER format force field!
Info: AMBER PARM FILE        mobley_2850833.prmtop
Info: COORDINATE PDB         mobley_2850833.pdb
Info: Exclusions will be read from PARM file!
Info: SCNB (VDW SCALING)     2
Info: USING ARITHMETIC MEAN TO COMBINE L-J SIGMA PARAMETERS
Info: BINARY COORDINATES     mobley_2850833_equil.coor
Info: SUMMARY OF PARAMETERS:
Info: 9 BONDS
Info: 8 ANGLES
Info:   8 HARMONIC
Info:   0 COSINE-BASED
Info: 5 DIHEDRAL
Info: 0 IMPROPER
Info: 0 CROSSTERM
Info: 0 VDW
Info: 28 VDW_PAIRS
Info: 0 NBTHOLE_PAIRS
Info: To read alchdata from file: mobley_2850833.pdb
Info: To read alchflag data from column: 5
Info: STRUCTURE SUMMARY:
Info: 2931 ATOMS
Info: 2931 BONDS
Info: 22 ANGLES
Info: 37 DIHEDRALS
Info: 0 IMPROPERS
Info: 0 CROSSTERMS
Info: 2980 EXCLUSIONS
Info: 2922 RIGID BONDS
Info: ALCH: 0 ATOMS TO DISAPPEAR IN FINAL STATE
Info: ALCH: 15 ATOMS TO APPEAR IN FINAL STATE
Info: 5871 DEGREES OF FREEDOM
Info: 981 HYDROGEN GROUPS
Info: 3 ATOMS IN LARGEST HYDROGEN GROUP
Info: 981 MIGRATION GROUPS
Info: 3 ATOMS IN LARGEST MIGRATION GROUP
Info: TOTAL MASS = 17633.7 amu
Info: TOTAL CHARGE = -0.000199957 e
Info: MASS DENSITY = 0.979869 g/cm^3
Info: ATOM DENSITY = 0.0980803 atoms/A^3
Info: ADDED 0 IMPLICIT EXCLUSIONS
Info: NONBONDED TABLE R-SQUARED SPACING: 0.0625
Info: NONBONDED TABLE SIZE: 705 POINTS
Info: REMOVING COM VELOCITY -0.0424184 -0.135391 0.00717946
Info: Use 3D box decompostion in PME FFT.
Info: Updated CUDA force table with 4096 elements.
Info: Updated CUDA LJ table with 7 x 7 elements.
Info: Found 17 unique exclusion lists needing 36 bytes
TCL: Running for 1500000 steps
ETITLE: TS BOND ANGLE DIHED IMPRP ELECT VDW BOUNDARY MISC KINETIC TOTAL TEMP POTENTIAL TOTALAVG TEMPAVG PRESSURE GPRESSURE VOLUME PRESSAVG GPRESSAVG
ENERGY: 0 5.1591 2.1596 1.2143 0.0000 -10593.3003 1437.0237 0.0000 0.0000 1735.1449 -7412.5988 297.4500 -9147.7437 -7412.5988 297.4500 106.9799 197.5905 29883.6672 106.9799 197.5905
ENERGY: 300000 1.3984 4.1426 5.0468 0.0000 -10687.2989 1422.1538 0.0000 0.0000 1751.1088 -7503.4486 300.1867 -9254.5574 -7433.9399 300.6336 -371.6703 -273.4126 29989.0796 74.5353 176.1424
ENERGY: 600000 3.4283 2.9526 6.0220 0.0000 -10535.5935 1333.8401 0.0000 0.0000 1767.6395 -7421.7111 303.0205 -9189.3505 -7435.1970 301.3095 -654.3327 -558.3790 29838.4655 -79.3782 -1.4352
ENERGY: 900000 2.2908 3.7037 2.9073 0.0000 -10653.4132 1442.6705 0.0000 0.0000 1775.9119 -7425.9291 304.4386 -9201.8410 -7432.5437 301.9093 -98.3150 35.5895 30109.2915 -17.8824 62.3839
ENERGY: 1200000 5.6939 2.7726 5.0626 0.0000 -10621.9078 1347.6753 0.0000 0.0000 1739.1935 -7521.5099 298.1441 -9260.7034 -7436.4828 301.1824 -1453.4363 -1388.2066 30631.3233 -137.2550 -57.0942
ENERGY: 1500000 2.4596 3.7027 6.0801 0.0000 -10447.0991 1316.9312 0.0000 0.0000 1715.9111 -7402.0145 294.1529 -9117.9256 -7438.7861 301.1838 -1085.3644 -998.4704 30461.3253 -227.8852 -142.1046
TCL: Running FEP window   2: Lambda1 0.05   Lambda2 0.1    [dLambda 0.05  ]
TCL: Setting parameter firsttimestep to 0
TCL: Setting parameter alchLambda to 0.05
Info: NONBONDED TABLE R-SQUARED SPACING: 0.0625
Info: NONBONDED TABLE SIZE: 705 POINTS
TCL: Setting parameter alchLambda2 to 0.1
Info: NONBONDED TABLE R-SQUARED SPACING: 0.0625
Info: NONBONDED TABLE SIZE: 705 POINTS
TCL: Running for 1500000 steps
ETITLE: TS BOND ANGLE DIHED IMPRP ELECT VDW BOUNDARY MISC KINETIC TOTAL TEMP POTENTIAL TOTALAVG TEMPAVG PRESSURE GPRESSURE VOLUME PRESSAVG GPRESSAVG
ENERGY: 0 2.4596 3.7027 6.0801 0.0000 -10447.0996 1318.3947 0.0000 0.0000 1715.0187 -7401.4439 293.9999 -9116.4626 -7401.4439 293.9999 -1080.9377 -996.5655 30461.3253 -1080.9377 -996.5655
ENERGY: 300000 1.6147 2.8583 2.5999 0.0000 -10688.1992 1385.3332 0.0000 0.0000 1747.1817 -7548.6114 299.5135 -9295.7931 -7490.1238 295.8380 -499.7230 -485.5298 29610.4895 -426.0696 -371.1858
ENERGY: 600000 2.0213 5.6575 3.5847 0.0000 -10601.4956 1442.9938 0.0000 0.0000 1786.3498 -7360.8885 306.2279 -9147.2383 -7461.7880 298.4650 224.2835 304.1108 30069.2620 -178.1982 -114.7587
ENERGY: 900000 2.4895 4.1732 3.0934 0.0000 -10533.3137 1375.0626 0.0000 0.0000 1742.8968 -7405.5982 298.7789 -9148.4949 -7463.8799 297.6257 -27.1705 30.4147 29691.6117 -44.5041 10.6903
ENERGY: 1200000 3.7696 3.2420 4.3461 0.0000 -10678.6245 1405.6154 0.0000 0.0000 1706.7830 -7554.8685 292.5881 -9261.6514 -7469.2408 297.6044 -632.5386 -571.6865 30133.2464 -158.9863 -97.5487
ENERGY: 1500000 2.8675 2.9099 1.3602 0.0000 -10780.2341 1519.3691 0.0000 0.0000 1731.2270 -7522.5005 296.7784 -9253.7275 -7468.9860 298.0359 881.6282 904.0297 29531.9324 -127.9203 -71.3365
TCL: Running FEP window   3: Lambda1 0.1    Lambda2 0.15000000000000002 [dLambda 0.05000000000000002]
TCL: Setting parameter firsttimestep to 0
TCL: Setting parameter alchLambda to 0.1
Info: NONBONDED TABLE R-SQUARED SPACING: 0.0625
Info: NONBONDED TABLE SIZE: 705 POINTS
TCL: Setting parameter alchLambda2 to 0.15000000000000002
Info: NONBONDED TABLE R-SQUARED SPACING: 0.0625
Info: NONBONDED TABLE SIZE: 705 POINTS
TCL: Running for 1500000 steps
ETITLE: TS BOND ANGLE DIHED IMPRP ELECT VDW BOUNDARY MISC KINETIC TOTAL TEMP POTENTIAL TOTALAVG TEMPAVG PRESSURE GPRESSURE VOLUME PRESSAVG GPRESSAVG
ENERGY: 0 2.8675 2.9099 1.3602 0.0000 -10780.2341 1519.3011 0.0000 0.0000 1730.3385 -7523.4569 296.6261 -9253.7954 -7523.4569 296.6261 815.6217 902.8229 29531.9324 815.6217 902.8229
ENERGY: 300000 2.9430 3.1081 3.9629 0.0000 -10556.9622 1390.9399 0.0000 0.0000 1728.4788 -7427.5295 296.3073 -9156.0083 -7443.8434 297.7739 -301.8776 -289.3752 30421.3343 -73.4902 -28.3181
ENERGY: 600000 3.1578 8.8902 2.9815 0.0000 -10486.8497 1338.9885 0.0000 0.0000 1773.9501 -7358.8816 304.1023 -9132.8317 -7441.8479 298.5469 -600.1812 -528.8767 30298.7774 -215.7084 -160.2917
ENERGY: 900000 3.3834 3.6039 3.6885 0.0000 -10608.6819 1407.7118 0.0000 0.0000 1785.4558 -7404.8385 306.0747 -9190.2943 -7426.3578 300.4289 -98.9708 13.7659 29688.6774 -156.2102 -88.0831
ENERGY: 1200000 3.0261 4.8577 3.9053 0.0000 -10651.6886 1485.2247 0.0000 0.0000 1717.5838 -7437.0910 294.4396 -9154.6749 -7432.4496 300.0929 521.6582 592.5346 29986.5392 -151.3787 -71.8948
ENERGY: 1500000 1.3999 4.2105 5.3635 0.0000 -10729.4611 1481.4646 0.0000 0.0000 1780.1236 -7456.8990 305.1606 -9237.0226 -7434.5745 299.4429 93.9050 202.4230 30115.4909 -148.1419 -71.6525
TCL: Running FEP window   4: Lambda1 0.15000000000000002 Lambda2 0.2    [dLambda 0.04999999999999999]
TCL: Setting parameter firsttimestep to 0
TCL: Setting parameter alchLambda to 0.15000000000000002
Info: NONBONDED TABLE R-SQUARED SPACING: 0.0625
Info: NONBONDED TABLE SIZE: 705 POINTS
TCL: Setting parameter alchLambda2 to 0.2
Info: NONBONDED TABLE R-SQUARED SPACING: 0.0625
Info: NONBONDED TABLE SIZE: 705 POINTS
TCL: Running for 1500000 steps
ETITLE: TS BOND ANGLE DIHED IMPRP ELECT VDW BOUNDARY MISC KINETIC TOTAL TEMP POTENTIAL TOTALAVG TEMPAVG PRESSURE GPRESSURE VOLUME PRESSAVG GPRESSAVG
ENERGY: 0 1.3999 4.2105 5.3635 0.0000 -10729.4615 1482.0582 0.0000 0.0000 1779.2455 -7457.1838 305.0101 -9236.4294 -7457.1838 305.0101 126.9731 203.4430 30115.4909 126.9731 203.4430
ENERGY: 300000 3.0659 2.3906 1.3873 0.0000 -10598.1423 1383.8918 0.0000 0.0000 1791.6707 -7415.7361 307.1401 -9207.4068 -7453.9012 303.3908 -463.4748 -330.4771 29983.0026 -171.1348 -65.6050
ENERGY: 600000 3.2046 4.1381 2.6962 0.0000 -10728.3644 1494.2525 0.0000 0.0000 1764.5393 -7459.5336 302.4890 -9224.0729 -7446.8984 303.1738 319.4446 404.0614 29954.9470 -151.4067 -62.8925
ENERGY: 900000 2.3819 4.1587 3.5726 0.0000 -10676.4617 1483.6783 0.0000 0.0000 1756.3215 -7426.3489 301.0803 -9182.6704 -7435.4454 302.1751 484.1920 541.2374 30246.6234 -80.8358 -2.1970
ENERGY: 1200000 3.1282 3.6198 3.4945 0.0000 -10563.2695 1415.9414 0.0000 0.0000 1727.9757 -7409.1099 296.2211 -9137.0856 -7435.3518 301.3076 -22.1361 76.1506 30000.4306 -89.1695 -7.5146
ENERGY: 1500000 3.2185 3.7662 5.4116 0.0000 -10621.9564 1482.0285 0.0000 0.0000 1756.6487 -7370.8829 301.1364 -9127.5316 -7432.7391 300.6395 566.9242 633.4481 30268.3015 9.9403 87.0070
TCL: Running FEP window   5: Lambda1 0.2    Lambda2 0.25   [dLambda 0.04999999999999999]
TCL: Setting parameter firsttimestep to 0
TCL: Setting parameter alchLambda to 0.2
Info: NONBONDED TABLE R-SQUARED SPACING: 0.0625
Info: NONBONDED TABLE SIZE: 705 POINTS
TCL: Setting parameter alchLambda2 to 0.25
Info: NONBONDED TABLE R-SQUARED SPACING: 0.0625
Info: NONBONDED TABLE SIZE: 705 POINTS
TCL: Running for 1500000 steps
ETITLE: TS BOND ANGLE DIHED IMPRP ELECT VDW BOUNDARY MISC KINETIC TOTAL TEMP POTENTIAL TOTALAVG TEMPAVG PRESSURE GPRESSURE VOLUME PRESSAVG GPRESSAVG
ENERGY: 0 3.2185 3.7662 5.4116 0.0000 -10621.9565 1483.8476 0.0000 0.0000 1755.7694 -7369.9432 300.9856 -9125.7126 -7369.9432 300.9856 567.7899 644.7500 30268.3015 567.7899 644.7500
ENERGY: 300000 3.5042 3.4488 0.8084 0.0000 -10643.3786 1456.1461 0.0000 0.0000 1751.0747 -7428.3965 300.1808 -9179.4712 -7427.6424 300.2619 416.0820 477.3455 29898.9286 356.1903 410.0652
ENERGY: 600000 2.1535 5.3777 4.2991 0.0000 -10706.7055 1449.0667 0.0000 0.0000 1769.8865 -7475.9220 303.4057 -9245.8085 -7440.4446 299.9502 135.0875 203.8687 29716.3846 267.7449 335.8162
ENERGY: 900000 3.9893 1.5199 3.6619 0.0000 -10646.6230 1405.7820 0.0000 0.0000 1814.6870 -7416.9829 311.0857 -9231.6699 -7438.5317 301.3154 -505.4399 -424.4097 30172.6767 135.3003 201.5464
ENERGY: 1200000 1.7795 0.9678 4.9559 0.0000 -10684.4462 1405.8245 0.0000 0.0000 1784.2272 -7486.6913 305.8641 -9270.9185 -7432.9841 302.0923 -307.9248 -223.0505 30071.9967 -1.7203 63.8165
ENERGY: 1500000 1.5833 1.5100 3.8945 0.0000 -10753.5452 1508.2297 0.0000 0.0000 1742.5221 -7495.8056 298.7147 -9238.3277 -7442.4350 302.0062 467.6300 569.2013 30012.1109 79.9445 145.0562
TCL: Running FEP window   6: Lambda1 0.25   Lambda2 0.3    [dLambda 0.04999999999999999]
TCL: Setting parameter firsttimestep to 0
TCL: Setting parameter alchLambda to 0.25
Info: NONBONDED TABLE R-SQUARED SPACING: 0.0625
Info: NONBONDED TABLE SIZE: 705 POINTS
TCL: Setting parameter alchLambda2 to 0.3
Info: NONBONDED TABLE R-SQUARED SPACING: 0.0625
Info: NONBONDED TABLE SIZE: 705 POINTS
TCL: Running for 1500000 steps
ETITLE: TS BOND ANGLE DIHED IMPRP ELECT VDW BOUNDARY MISC KINETIC TOTAL TEMP POTENTIAL TOTALAVG TEMPAVG PRESSURE GPRESSURE VOLUME PRESSAVG GPRESSAVG
ENERGY: 0 1.5833 1.5100 3.8945 0.0000 -10753.5429 1508.5540 0.0000 0.0000 1741.6333 -7496.3678 298.5623 -9238.0012 -7496.3678 298.5623 487.9967 577.2594 30012.1109 487.9967 577.2594
ENERGY: 300000 2.4934 3.9330 3.6991 0.0000 -10648.9114 1428.0628 0.0000 0.0000 1804.5532 -7406.1697 309.3485 -9210.7230 -7439.1152 300.4463 163.4062 239.4859 29713.0215 -296.3665 -210.7036
ENERGY: 600000 2.2830 3.1024 3.4166 0.0000 -10626.2611 1425.6192 0.0000 0.0000 1715.5373 -7476.3026 294.0888 -9191.8399 -7444.0493 300.0076 89.2538 163.1471 29894.2242 -300.0412 -230.2372
ENERGY: 900000 0.9889 4.0806 3.0937 0.0000 -10765.6244 1539.7819 0.0000 0.0000 1787.6484 -7430.0308 306.4506 -9217.6792 -7442.2596 301.2585 865.1258 955.9610 30053.8083 -181.5341 -107.7560
ENERGY: 1200000 1.5375 2.2462 10.5586 0.0000 -10674.0647 1444.1048 0.0000 0.0000 1722.3479 -7493.2697 295.2563 -9215.6176 -7444.0956 300.3713 -120.8859 -28.6705 29974.8938 -69.5161 5.3353
ENERGY: 1500000 1.3779 7.0922 1.5842 0.0000 -10537.2108 1331.9201 0.0000 0.0000 1728.8631 -7466.3733 296.3732 -9195.2364 -7440.6199 299.2870 -955.2448 -911.3581 30467.4926 -177.5103 -103.4328
TCL: Running FEP window   7: Lambda1 0.3    Lambda2 0.35   [dLambda 0.04999999999999999]
TCL: Setting parameter firsttimestep to 0
TCL: Setting parameter alchLambda to 0.3
Info: NONBONDED TABLE R-SQUARED SPACING: 0.0625
Info: NONBONDED TABLE SIZE: 705 POINTS
TCL: Setting parameter alchLambda2 to 0.35
Info: NONBONDED TABLE R-SQUARED SPACING: 0.0625
Info: NONBONDED TABLE SIZE: 705 POINTS
TCL: Running for 1500000 steps
ETITLE: TS BOND ANGLE DIHED IMPRP ELECT VDW BOUNDARY MISC KINETIC TOTAL TEMP POTENTIAL TOTALAVG TEMPAVG PRESSURE GPRESSURE VOLUME PRESSAVG GPRESSAVG
ENERGY: 0 1.3779 7.0922 1.5842 0.0000 -10537.2118 1331.9163 0.0000 0.0000 1727.9942 -7467.2469 296.2242 -9195.2411 -7467.2469 296.2242 -992.1204 -907.1236 30467.4926 -992.1204 -907.1236
ENERGY: 300000 3.8229 2.5778 1.9654 0.0000 -10591.8205 1348.4492 0.0000 0.0000 1669.7405 -7565.2647 286.2380 -9235.0052 -7504.2001 295.6382 -554.6678 -474.7655 29892.8908 -523.9426 -426.0086
ENERGY: 600000 3.3606 1.9319 3.7480 0.0000 -10561.6401 1336.3657 0.0000 0.0000 1731.3663 -7484.8676 296.8023 -9216.2339 -7488.7023 296.6363 -1114.1532 -1052.9437 30765.9935 -448.5362 -358.6178
ENERGY: 900000 1.8576 3.7638 4.5399 0.0000 -10566.7204 1394.5247 0.0000 0.0000 1740.4640 -7421.5703 298.3619 -9162.0343 -7473.2259 297.6259 -191.4642 -146.2419 30105.1265 -319.0901 -238.6928
ENERGY: 1200000 2.7621 3.3355 6.4027 0.0000 -10653.2702 1407.4264 0.0000 0.0000 1750.9075 -7482.4362 300.1522 -9233.3436 -7458.9206 297.9284 -435.4644 -348.7465 29834.8482 -298.0193 -225.2651
ENERGY: 1500000 0.9715 3.3339 3.4672 0.0000 -10777.8028 1458.5512 0.0000 0.0000 1800.2264 -7511.2526 308.6068 -9311.4791 -7465.5354 298.2613 94.6080 166.0144 29781.0263 -244.5618 -174.4445
TCL: Running FEP window   8: Lambda1 0.35   Lambda2 0.39999999999999997 [dLambda 0.04999999999999999]
TCL: Setting parameter firsttimestep to 0
TCL: Setting parameter alchLambda to 0.35
Info: NONBONDED TABLE R-SQUARED SPACING: 0.0625
Info: NONBONDED TABLE SIZE: 705 POINTS
TCL: Setting parameter alchLambda2 to 0.39999999999999997
Info: NONBONDED TABLE R-SQUARED SPACING: 0.0625
Info: NONBONDED TABLE SIZE: 705 POINTS
TCL: Running for 1500000 steps
ETITLE: TS BOND ANGLE DIHED IMPRP ELECT VDW BOUNDARY MISC KINETIC TOTAL TEMP POTENTIAL TOTALAVG TEMPAVG PRESSURE GPRESSURE VOLUME PRESSAVG GPRESSAVG
ENERGY: 0 0.9715 3.3339 3.4672 0.0000 -10777.8033 1458.3794 0.0000 0.0000 1799.3670 -7512.2842 308.4594 -9311.6513 -7512.2842 308.4594 76.2055 170.9287 29781.0263 76.2055 170.9287
ENERGY: 300000 3.5411 3.3278 4.1016 0.0000 -10623.1761 1446.0000 0.0000 0.0000 1733.7425 -7432.4632 297.2096 -9166.2057 -7411.7014 305.5282 75.0095 149.0519 30363.5260 90.9121 153.4888
ENERGY: 600000 4.8969 3.2181 6.7779 0.0000 -10514.7094 1389.4582 0.0000 0.0000 1781.1803 -7329.1782 305.3417 -9110.3584 -7390.5449 304.1620 -350.0807 -312.4345 30674.1696 165.2960 215.6833
ENERGY: 900000 3.4133 2.6264 1.5626 0.0000 -10650.2084 1445.9556 0.0000 0.0000 1719.6780 -7476.9726 294.7986 -9196.6507 -7401.9245 303.3579 101.9041 130.1401 30148.6588 43.2160 98.6683
ENERGY: 1200000 5.2469 5.2087 6.3706 0.0000 -10717.4440 1469.9330 0.0000 0.0000 1780.1045 -7450.5803 305.1573 -9230.6849 -7403.3891 303.8870 385.6559 422.3981 29892.5256 26.2813 82.0198
ENERGY: 1500000 2.8154 2.6242 3.5568 0.0000 -10630.1556 1389.6599 0.0000 0.0000 1712.9932 -7518.5061 293.6527 -9231.4993 -7421.2279 302.0028 -384.7645 -334.3202 30295.3515 -23.0202 36.5162
TCL: Running FEP window   9: Lambda1 0.39999999999999997 Lambda2 0.44999999999999996 [dLambda 0.04999999999999999]
TCL: Setting parameter firsttimestep to 0
TCL: Setting parameter alchLambda to 0.39999999999999997
Info: NONBONDED TABLE R-SQUARED SPACING: 0.0625
Info: NONBONDED TABLE SIZE: 705 POINTS
TCL: Setting parameter alchLambda2 to 0.44999999999999996
Info: NONBONDED TABLE R-SQUARED SPACING: 0.0625
Info: NONBONDED TABLE SIZE: 705 POINTS
TCL: Running for 1500000 steps
ETITLE: TS BOND ANGLE DIHED IMPRP ELECT VDW BOUNDARY MISC KINETIC TOTAL TEMP POTENTIAL TOTALAVG TEMPAVG PRESSURE GPRESSURE VOLUME PRESSAVG GPRESSAVG
ENERGY: 0 2.8154 2.6242 3.5568 0.0000 -10630.1563 1389.6813 0.0000 0.0000 1712.1267 -7519.3520 293.5041 -9231.4787 -7519.3520 293.5041 -415.3254 -326.4498 30295.3515 -415.3254 -326.4498
ENERGY: 300000 4.2361 7.6146 3.1523 0.0000 -10647.6703 1396.7332 0.0000 0.0000 1743.6466 -7492.2875 298.9075 -9235.9341 -7465.2422 300.0186 -379.6292 -278.4112 30063.8924 128.7070 228.3745
ENERGY: 600000 2.5014 8.9452 4.0283 0.0000 -10516.6922 1374.4686 0.0000 0.0000 1767.7697 -7358.9791 303.0428 -9126.7487 -7436.2838 299.5788 -372.8031 -265.6658 30263.3201 -38.4436 45.7470
ENERGY: 900000 2.9450 3.2885 5.8537 0.0000 -10581.2302 1423.2371 0.0000 0.0000 1806.6030 -7339.3029 309.6999 -9145.9059 -7438.3526 299.5723 -54.0811 -3.3337 30545.5380 55.5694 134.6654
ENERGY: 1200000 1.8920 8.1003 3.1278 0.0000 -10594.4661 1422.9155 0.0000 0.0000 1718.0636 -7440.3668 294.5219 -9158.4304 -7442.4544 299.7151 102.4588 128.5040 30152.5149 34.5516 102.8456
ENERGY: 1500000 7.2645 1.9732 4.9807 0.0000 -10658.2356 1444.8500 0.0000 0.0000 1728.1996 -7470.9676 296.2594 -9199.1672 -7440.7836 299.4370 71.7634 152.0583 29982.2180 26.1902 95.7784
TCL: Running FEP window  10: Lambda1 0.44999999999999996 Lambda2 0.49999999999999994 [dLambda 0.04999999999999999]
TCL: Setting parameter firsttimestep to 0
TCL: Setting parameter alchLambda to 0.44999999999999996
Info: NONBONDED TABLE R-SQUARED SPACING: 0.0625
Info: NONBONDED TABLE SIZE: 705 POINTS
TCL: Setting parameter alchLambda2 to 0.49999999999999994
Info: NONBONDED TABLE R-SQUARED SPACING: 0.0625
Info: NONBONDED TABLE SIZE: 705 POINTS
TCL: Running for 1500000 steps
ETITLE: TS BOND ANGLE DIHED IMPRP ELECT VDW BOUNDARY MISC KINETIC TOTAL TEMP POTENTIAL TOTALAVG TEMPAVG PRESSURE GPRESSURE VOLUME PRESSAVG GPRESSAVG
ENERGY: 0 7.2645 1.9732 4.9807 0.0000 -10658.2365 1444.9894 0.0000 0.0000 1727.3337 -7471.6948 296.1110 -9199.0286 -7471.6948 296.1110 66.1226 160.0728 29982.2180 66.1226 160.0728
ENERGY: 300000 1.4956 2.9662 6.5826 0.0000 -10614.9074 1422.4038 0.0000 0.0000 1774.0624 -7407.3967 304.1216 -9181.4592 -7453.9636 301.1447 -280.2172 -190.1810 30819.2501 140.4083 205.8893
ENERGY: 600000 2.5587 4.9619 2.5021 0.0000 -10618.0484 1419.8902 0.0000 0.0000 1737.0767 -7451.0589 297.7812 -9188.1356 -7467.6516 299.0005 -276.2854 -236.6797 30268.4372 70.3398 132.5353
ENERGY: 900000 3.1417 2.3790 3.1825 0.0000 -10738.5162 1467.8070 0.0000 0.0000 1760.1285 -7501.8775 301.7329 -9262.0060 -7456.5252 300.2574 260.0038 317.9969 29548.7173 57.2986 105.9498
ENERGY: 1200000 5.0288 5.9046 3.4207 0.0000 -10637.2993 1409.6283 0.0000 0.0000 1736.6784 -7476.6385 297.7129 -9213.3169 -7443.1105 300.3610 -166.6546 -125.1544 30005.8853 24.8065 67.5111
ENERGY: 1500000 2.9907 2.3981 1.5941 0.0000 -10558.6270 1418.7512 0.0000 0.0000 1733.7961 -7399.0968 297.2188 -9132.8929 -7441.8152 300.2666 -4.1829 51.2872 30214.1391 32.3318 78.8588
TCL: Running FEP window  11: Lambda1 0.49999999999999994 Lambda2 0.5499999999999999 [dLambda 0.04999999999999999]
TCL: Setting parameter firsttimestep to 0
TCL: Setting parameter alchLambda to 0.49999999999999994
Info: NONBONDED TABLE R-SQUARED SPACING: 0.0625
Info: NONBONDED TABLE SIZE: 705 POINTS
TCL: Setting parameter alchLambda2 to 0.5499999999999999
Info: NONBONDED TABLE R-SQUARED SPACING: 0.0625
Info: NONBONDED TABLE SIZE: 705 POINTS
TCL: Running for 1500000 steps
ETITLE: TS BOND ANGLE DIHED IMPRP ELECT VDW BOUNDARY MISC KINETIC TOTAL TEMP POTENTIAL TOTALAVG TEMPAVG PRESSURE GPRESSURE VOLUME PRESSAVG GPRESSAVG
ENERGY: 0 2.9907 2.3981 1.5941 0.0000 -10558.6274 1418.1168 0.0000 0.0000 1732.8848 -7400.6430 297.0626 -9133.5278 -7400.6430 297.0626 -26.2874 52.9436 30214.1391 -26.2874 52.9436
ENERGY: 300000 1.6546 3.4646 3.0219 0.0000 -10695.5815 1468.2903 0.0000 0.0000 1742.7122 -7476.4379 298.7473 -9219.1501 -7425.7110 301.4001 258.7873 284.6558 30250.0552 -65.6646 -10.3558
ENERGY: 600000 4.5437 4.1984 1.9987 0.0000 -10594.0195 1441.5112 0.0000 0.0000 1844.4809 -7297.2867 316.1931 -9141.7675 -7406.2616 302.1805 274.6193 321.3776 29960.3727 54.3076 124.4294
ENERGY: 900000 4.0822 3.4823 1.7780 0.0000 -10776.2654 1521.0109 0.0000 0.0000 1797.6784 -7448.2336 308.1700 -9245.9120 -7436.0393 302.2253 971.5918 1056.1685 29508.3690 86.5527 168.2882
ENERGY: 1200000 0.9316 4.6749 3.7411 0.0000 -10725.9737 1447.9880 0.0000 0.0000 1735.8836 -7532.7544 297.5767 -9268.6380 -7442.9101 301.5364 176.0295 247.9248 29779.9410 112.7454 191.2126
ENERGY: 1500000 0.7948 6.8785 1.5069 0.0000 -10512.2661 1356.6687 0.0000 0.0000 1751.3488 -7395.0684 300.2278 -9146.4172 -7434.3731 301.1449 -414.2342 -354.0958 30211.3637 22.1792 95.4587
TCL: Running FEP window  12: Lambda1 0.5499999999999999 Lambda2 0.6    [dLambda 0.050000000000000044]
TCL: Setting parameter firsttimestep to 0
TCL: Setting parameter alchLambda to 0.5499999999999999
Info: NONBONDED TABLE R-SQUARED SPACING: 0.0625
Info: NONBONDED TABLE SIZE: 705 POINTS
TCL: Setting parameter alchLambda2 to 0.6
Info: NONBONDED TABLE R-SQUARED SPACING: 0.0625
Info: NONBONDED TABLE SIZE: 705 POINTS
TCL: Running for 1500000 steps
ETITLE: TS BOND ANGLE DIHED IMPRP ELECT VDW BOUNDARY MISC KINETIC TOTAL TEMP POTENTIAL TOTALAVG TEMPAVG PRESSURE GPRESSURE VOLUME PRESSAVG GPRESSAVG
ENERGY: 0 0.7947 6.8785 1.5069 0.0000 -10512.1563 1356.3774 0.0000 0.0000 1750.4396 -7396.1592 300.0720 -9146.5988 -7396.1592 300.0720 -441.7649 -348.6355 30211.3637 -441.7649 -348.6355
ENERGY: 300000 2.9841 1.6776 2.2444 0.0000 -10686.1362 1441.7195 0.0000 0.0000 1762.6344 -7474.8762 302.1625 -9237.5106 -7402.3904 306.3325 -144.5788 -106.1379 30434.8316 149.6777 231.0164
ENERGY: 600000 2.0916 3.7733 3.0812 0.0000 -10565.3109 1365.4763 0.0000 0.0000 1755.9000 -7434.9885 301.0080 -9190.8885 -7415.9472 302.5558 -498.6431 -440.1551 30313.2094 -77.2422 -12.4316
ENERGY: 900000 3.3333 4.6129 2.4192 0.0000 -10604.1718 1372.7025 0.0000 0.0000 1669.0125 -7552.0914 286.1132 -9221.1038 -7430.6445 300.4425 -906.2633 -815.4743 30567.7730 -204.4520 -136.3875
ENERGY: 1200000 2.7622 5.0970 5.7508 0.0000 -10585.7223 1383.1591 0.0000 0.0000 1726.3571 -7462.5962 295.9436 -9188.9533 -7438.3138 300.7947 -392.1523 -345.2166 30208.0535 -170.5098 -102.8941
ENERGY: 1500000 2.9550 2.8764 3.3077 0.0000 -10712.0383 1450.9494 0.0000 0.0000 1742.3096 -7509.6401 298.6783 -9251.9497 -7445.8824 300.2649 186.4563 209.2489 29635.9237 -160.2545 -101.7899
TCL: Running FEP window  13: Lambda1 0.6    Lambda2 0.65   [dLambda 0.050000000000000044]
TCL: Setting parameter firsttimestep to 0
TCL: Setting parameter alchLambda to 0.6
Info: NONBONDED TABLE R-SQUARED SPACING: 0.0625
Info: NONBONDED TABLE SIZE: 705 POINTS
TCL: Setting parameter alchLambda2 to 0.65
Info: NONBONDED TABLE R-SQUARED SPACING: 0.0625
Info: NONBONDED TABLE SIZE: 705 POINTS
TCL: Running for 1500000 steps
ETITLE: TS BOND ANGLE DIHED IMPRP ELECT VDW BOUNDARY MISC KINETIC TOTAL TEMP POTENTIAL TOTALAVG TEMPAVG PRESSURE GPRESSURE VOLUME PRESSAVG GPRESSAVG
ENERGY: 0 2.9550 2.8764 3.3077 0.0000 -10712.5651 1451.3810 0.0000 0.0000 1741.4662 -7510.5789 298.5337 -9252.0450 -7510.5789 298.5337 136.5376 217.6151 29635.9237 136.5376 217.6151
ENERGY: 300000 2.0359 5.2766 2.0414 0.0000 -10670.6835 1492.6877 0.0000 0.0000 1768.3338 -7400.3082 303.1395 -9168.6419 -7432.5818 299.0732 431.3419 556.1853 30436.2620 152.8708 227.3800
ENERGY: 600000 3.0674 4.1334 2.2587 0.0000 -10539.5118 1403.1940 0.0000 0.0000 1718.6636 -7408.1947 294.6247 -9126.8583 -7422.2530 298.7315 69.4973 133.3507 29955.5538 52.9672 119.7390
ENERGY: 900000 1.7864 2.3249 2.2358 0.0000 -10568.9593 1417.5503 0.0000 0.0000 1715.2810 -7429.7810 294.0448 -9145.0620 -7421.4183 298.7034 72.5432 150.6256 30132.9690 -3.2192 62.1841
ENERGY: 1200000 1.3775 5.6381 2.3926 0.0000 -10601.7514 1405.9014 0.0000 0.0000 1781.7358 -7404.7060 305.4370 -9186.4418 -7427.5784 298.9496 -120.6607 28.8957 29744.9565 -35.5301 35.9444
ENERGY: 1500000 4.2880 3.2398 3.3260 0.0000 -10658.1221 1459.3199 0.0000 0.0000 1740.4310 -7447.5175 298.3562 -9187.9485 -7427.7758 298.8915 2.6932 16.6708 30306.2107 -82.8102 -13.1057
TCL: Running FEP window  14: Lambda1 0.65   Lambda2 0.7000000000000001 [dLambda 0.050000000000000044]
TCL: Setting parameter firsttimestep to 0
TCL: Setting parameter alchLambda to 0.65
Info: NONBONDED TABLE R-SQUARED SPACING: 0.0625
Info: NONBONDED TABLE SIZE: 705 POINTS
TCL: Setting parameter alchLambda2 to 0.7000000000000001
Info: NONBONDED TABLE R-SQUARED SPACING: 0.0625
Info: NONBONDED TABLE SIZE: 705 POINTS
TCL: Running for 1500000 steps
ETITLE: TS BOND ANGLE DIHED IMPRP ELECT VDW BOUNDARY MISC KINETIC TOTAL TEMP POTENTIAL TOTALAVG TEMPAVG PRESSURE GPRESSURE VOLUME PRESSAVG GPRESSAVG
ENERGY: 0 4.2880 3.2398 3.3260 0.0000 -10658.6709 1458.9707 0.0000 0.0000 1739.5432 -7449.3033 298.2040 -9188.8465 -7449.3033 298.2040 -59.7846 20.1724 30306.2107 -59.7846 20.1724
ENERGY: 300000 1.7363 5.0384 3.4948 0.0000 -10527.6512 1300.2827 0.0000 0.0000 1755.3839 -7461.7151 300.9196 -9217.0990 -7431.6633 300.3280 -1139.4471 -1092.3164 30373.6269 -423.2802 -362.9511
ENERGY: 600000 2.4036 4.0819 2.2475 0.0000 -10636.9663 1425.2102 0.0000 0.0000 1718.4233 -7484.5999 294.5835 -9203.0232 -7449.1328 298.0704 -435.9993 -250.0986 30538.2773 -117.1087 -35.3488
ENERGY: 900000 1.7442 5.8048 3.2254 0.0000 -10573.6860 1377.4505 0.0000 0.0000 1737.1272 -7448.3340 297.7899 -9185.4612 -7457.5499 299.1207 -627.0221 -565.8347 30630.0891 -209.2777 -128.7209
ENERGY: 1200000 2.1921 3.3834 4.3505 0.0000 -10643.1587 1378.8436 0.0000 0.0000 1709.6088 -7544.7802 293.0725 -9254.3890 -7463.8649 299.1955 -689.5368 -615.0969 30341.0819 -196.1873 -122.5249
ENERGY: 1500000 2.6650 4.0851 2.1781 0.0000 -10540.1491 1392.7288 0.0000 0.0000 1751.3674 -7387.1246 300.2310 -9138.4921 -7449.2794 300.0034 -61.4251 -8.9445 30196.2246 -128.5817 -54.9623
TCL: Running FEP window  15: Lambda1 0.7000000000000001 Lambda2 0.7500000000000001 [dLambda 0.050000000000000044]
TCL: Setting parameter firsttimestep to 0
TCL: Setting parameter alchLambda to 0.7000000000000001
Info: NONBONDED TABLE R-SQUARED SPACING: 0.0625
Info: NONBONDED TABLE SIZE: 705 POINTS
TCL: Setting parameter alchLambda2 to 0.7500000000000001
Info: NONBONDED TABLE R-SQUARED SPACING: 0.0625
Info: NONBONDED TABLE SIZE: 705 POINTS
TCL: Running for 1500000 steps
ETITLE: TS BOND ANGLE DIHED IMPRP ELECT VDW BOUNDARY MISC KINETIC TOTAL TEMP POTENTIAL TOTALAVG TEMPAVG PRESSURE GPRESSURE VOLUME PRESSAVG GPRESSAVG
ENERGY: 0 2.6650 4.0851 2.1781 0.0000 -10541.2761 1392.4174 0.0000 0.0000 1750.5332 -7389.3973 300.0880 -9139.9305 -7389.3973 300.0880 -89.2718 -2.4124 30196.2246 -89.2718 -2.4124
ENERGY: 300000 2.5638 3.3944 4.4669 0.0000 -10459.6694 1297.5980 0.0000 0.0000 1725.3415 -7426.3048 295.7695 -9151.6463 -7441.7432 296.7622 -1156.2556 -1063.6739 30519.4476 -247.1775 -167.1422
ENERGY: 600000 2.5398 3.0600 2.6373 0.0000 -10656.6220 1431.3156 0.0000 0.0000 1670.1356 -7546.9336 286.3057 -9217.0693 -7452.4163 296.2428 -107.4836 -27.4872 30232.4700 -186.9096 -117.9305
ENERGY: 900000 2.6990 1.5106 4.3916 0.0000 -10617.3670 1444.7706 0.0000 0.0000 1759.3929 -7404.6022 301.6068 -9163.9952 -7466.4390 295.8951 374.0319 419.8966 29905.7567 -156.2624 -91.5316
ENERGY: 1200000 3.0174 2.5511 2.4321 0.0000 -10606.6603 1405.3332 0.0000 0.0000 1775.5544 -7417.7720 304.3773 -9193.3264 -7452.1931 297.8046 -41.0883 -13.6407 30052.1965 -144.0822 -82.0776
ENERGY: 1500000 1.1193 5.4763 2.8924 0.0000 -10586.5248 1394.7232 0.0000 0.0000 1727.9527 -7454.3609 296.2171 -9182.3136 -7450.6745 298.0582 -27.9895 4.5672 30032.2860 -157.7377 -97.2973
TCL: Running FEP window  16: Lambda1 0.7500000000000001 Lambda2 0.8000000000000002 [dLambda 0.050000000000000044]
TCL: Setting parameter firsttimestep to 0
TCL: Setting parameter alchLambda to 0.7500000000000001
Info: NONBONDED TABLE R-SQUARED SPACING: 0.0625
Info: NONBONDED TABLE SIZE: 705 POINTS
TCL: Setting parameter alchLambda2 to 0.8000000000000002
Info: NONBONDED TABLE R-SQUARED SPACING: 0.0625
Info: NONBONDED TABLE SIZE: 705 POINTS
TCL: Running for 1500000 steps
ETITLE: TS BOND ANGLE DIHED IMPRP ELECT VDW BOUNDARY MISC KINETIC TOTAL TEMP POTENTIAL TOTALAVG TEMPAVG PRESSURE GPRESSURE VOLUME PRESSAVG GPRESSAVG
ENERGY: 0 1.1193 5.4763 2.8924 0.0000 -10587.9953 1394.8023 0.0000 0.0000 1727.0781 -7456.6269 296.0672 -9183.7049 -7456.6269 296.0672 -69.6547 13.7709 30032.2860 -69.6547 13.7709
ENERGY: 300000 1.6107 4.6669 4.0559 0.0000 -10673.0329 1449.1738 0.0000 0.0000 1760.0291 -7453.4965 301.7159 -9213.5255 -7419.2396 302.9010 456.3670 550.0988 29862.2431 27.7719 94.4846
ENERGY: 600000 5.0739 3.9380 2.3561 0.0000 -10651.3852 1555.2887 0.0000 0.0000 1765.1267 -7319.6019 302.5897 -9084.7286 -7417.0820 304.1093 1218.3823 1221.4489 30296.6055 455.4539 519.9470
ENERGY: 900000 1.5881 3.4601 5.9711 0.0000 -10608.9743 1401.4383 0.0000 0.0000 1767.9009 -7428.6158 303.0653 -9196.5167 -7433.4322 303.0231 -447.3582 -400.1702 30557.5857 239.9028 293.6999
ENERGY: 1200000 3.0261 5.1578 3.1451 0.0000 -10658.6593 1431.4309 0.0000 0.0000 1752.7695 -7463.1299 300.4714 -9215.8993 -7433.7815 303.2422 -418.8464 -346.4550 30847.8478 219.4618 269.4641
ENERGY: 1500000 5.1540 4.5586 3.4703 0.0000 -10560.2302 1369.3483 0.0000 0.0000 1777.8423 -7399.8567 304.7695 -9177.6990 -7435.8458 302.7898 -441.8645 -370.7303 30361.0514 133.9226 186.8880
TCL: Running FEP window  17: Lambda1 0.8000000000000002 Lambda2 0.8500000000000002 [dLambda 0.050000000000000044]
TCL: Setting parameter firsttimestep to 0
TCL: Setting parameter alchLambda to 0.8000000000000002
Info: NONBONDED TABLE R-SQUARED SPACING: 0.0625
Info: NONBONDED TABLE SIZE: 705 POINTS
TCL: Setting parameter alchLambda2 to 0.8500000000000002
Info: NONBONDED TABLE R-SQUARED SPACING: 0.0625
Info: NONBONDED TABLE SIZE: 705 POINTS
TCL: Running for 1500000 steps
ETITLE: TS BOND ANGLE DIHED IMPRP ELECT VDW BOUNDARY MISC KINETIC TOTAL TEMP POTENTIAL TOTALAVG TEMPAVG PRESSURE GPRESSURE VOLUME PRESSAVG GPRESSAVG
ENERGY: 0 5.1540 4.5586 3.4703 0.0000 -10561.4840 1369.9417 0.0000 0.0000 1776.9248 -7401.4346 304.6122 -9178.3594 -7401.4346 304.6122 -436.7676 -358.8769 30361.0514 -436.7676 -358.8769
ENERGY: 300000 1.6986 1.7978 3.9342 0.0000 -10605.8986 1409.9988 0.0000 0.0000 1762.4213 -7426.0479 302.1259 -9188.4691 -7447.7071 303.1557 -53.8448 15.2274 30359.9128 -218.1612 -159.5674
ENERGY: 600000 3.5471 4.5171 3.0064 0.0000 -10701.3233 1427.1690 0.0000 0.0000 1722.7898 -7540.2938 295.3321 -9263.0836 -7452.3656 301.6220 -141.4007 -134.5880 30297.3579 -242.9603 -184.7082
ENERGY: 900000 2.2928 4.0409 3.0769 0.0000 -10504.2084 1369.4697 0.0000 0.0000 1775.6186 -7349.7095 304.3883 -9125.3281 -7443.9473 301.9532 -482.5924 -425.5699 31005.5683 -321.6827 -248.9940
ENERGY: 1200000 3.3522 4.3498 5.0418 0.0000 -10717.2333 1408.3065 0.0000 0.0000 1704.5770 -7591.6061 292.2099 -9296.1830 -7460.7079 301.2004 -458.4748 -341.3686 30260.2548 -272.9953 -198.4721
ENERGY: 1500000 2.4246 3.4168 5.8059 0.0000 -10707.0073 1463.6632 0.0000 0.0000 1727.9616 -7503.7352 296.2186 -9231.6968 -7462.6539 300.2910 13.0335 65.6376 30253.6863 -169.4598 -102.3048
TCL: Running FEP window  18: Lambda1 0.8500000000000002 Lambda2 0.9000000000000002 [dLambda 0.050000000000000044]
TCL: Setting parameter firsttimestep to 0
TCL: Setting parameter alchLambda to 0.8500000000000002
Info: NONBONDED TABLE R-SQUARED SPACING: 0.0625
Info: NONBONDED TABLE SIZE: 705 POINTS
TCL: Setting parameter alchLambda2 to 0.9000000000000002
Info: NONBONDED TABLE R-SQUARED SPACING: 0.0625
Info: NONBONDED TABLE SIZE: 705 POINTS
TCL: Running for 1500000 steps
ETITLE: TS BOND ANGLE DIHED IMPRP ELECT VDW BOUNDARY MISC KINETIC TOTAL TEMP POTENTIAL TOTALAVG TEMPAVG PRESSURE GPRESSURE VOLUME PRESSAVG GPRESSAVG
ENERGY: 0 2.4246 3.4168 5.8059 0.0000 -10709.8228 1465.8717 0.0000 0.0000 1727.0996 -7505.2042 296.0709 -9232.3038 -7505.2042 296.0709 -10.1353 92.3918 30253.6863 -10.1353 92.3918
ENERGY: 300000 3.5707 3.7379 2.1026 0.0000 -10768.0142 1467.4153 0.0000 0.0000 1762.7428 -7528.4449 302.1811 -9291.1877 -7502.6354 299.9492 137.0554 279.8701 30134.0556 -59.1489 28.6954
ENERGY: 600000 4.4694 3.3623 3.2528 0.0000 -10625.6051 1411.3309 0.0000 0.0000 1781.0729 -7422.1169 305.3233 -9203.1898 -7482.5911 299.5574 127.0208 161.3445 29856.8356 -97.1836 -39.4790
ENERGY: 900000 2.9066 1.9705 2.7079 0.0000 -10683.8571 1451.0639 0.0000 0.0000 1761.1953 -7464.0128 301.9158 -9225.2081 -7483.6499 300.3472 175.1063 233.2443 30125.8308 0.4768 51.5568
ENERGY: 1200000 5.1485 3.0521 1.2459 0.0000 -10694.4841 1430.7097 0.0000 0.0000 1744.8114 -7509.5164 299.1072 -9254.3278 -7482.6935 299.8456 -192.0238 -180.3344 30344.6815 -43.2830 2.6030
ENERGY: 1500000 1.3293 1.2733 2.0974 0.0000 -10589.1740 1415.0988 0.0000 0.0000 1731.9922 -7437.3831 296.9096 -9169.3752 -7476.7787 299.0946 218.2671 226.3731 29869.2976 28.7200 73.0574
TCL: Running FEP window  19: Lambda1 0.9000000000000002 Lambda2 0.9500000000000003 [dLambda 0.050000000000000044]
TCL: Setting parameter firsttimestep to 0
TCL: Setting parameter alchLambda to 0.9000000000000002
Info: NONBONDED TABLE R-SQUARED SPACING: 0.0625
Info: NONBONDED TABLE SIZE: 705 POINTS
TCL: Setting parameter alchLambda2 to 0.9500000000000003
Info: NONBONDED TABLE R-SQUARED SPACING: 0.0625
Info: NONBONDED TABLE SIZE: 705 POINTS
TCL: Running for 1500000 steps
ETITLE: TS BOND ANGLE DIHED IMPRP ELECT VDW BOUNDARY MISC KINETIC TOTAL TEMP POTENTIAL TOTALAVG TEMPAVG PRESSURE GPRESSURE VOLUME PRESSAVG GPRESSAVG
ENERGY: 0 1.3293 1.2733 2.0974 0.0000 -10591.1903 1415.9857 0.0000 0.0000 1731.1248 -7439.3798 296.7609 -9170.5045 -7439.3798 296.7609 168.3790 247.8316 29869.2976 168.3790 247.8316
ENERGY: 300000 1.9743 4.2385 2.3803 0.0000 -10768.6986 1530.3650 0.0000 0.0000 1719.2004 -7510.5401 294.7167 -9229.7405 -7462.7773 296.2766 751.3916 798.1659 30100.3697 162.2560 239.5755
ENERGY: 600000 2.9176 1.3575 3.3254 0.0000 -10625.5133 1384.3929 0.0000 0.0000 1695.4852 -7538.0346 290.6513 -9233.5198 -7489.5063 295.4396 -449.4003 -399.9469 30063.2346 55.4888 128.1121
ENERGY: 900000 3.5942 4.3085 4.8732 0.0000 -10633.2554 1429.8389 0.0000 0.0000 1796.9466 -7393.6940 308.0445 -9190.6406 -7477.8992 297.2982 -132.3076 -25.1826 30032.9204 48.3702 125.9324
ENERGY: 1200000 7.9313 6.6538 3.7597 0.0000 -10524.6806 1316.0166 0.0000 0.0000 1734.2291 -7456.0901 297.2931 -9190.3192 -7478.1703 297.3499 -874.2452 -844.2330 30179.6659 -45.1290 25.2016
ENERGY: 1500000 2.9347 2.0750 3.0447 0.0000 -10566.8934 1388.5921 0.0000 0.0000 1753.1775 -7417.0693 300.5413 -9170.2468 -7472.6884 298.0703 -487.5490 -471.7639 30637.9288 -11.9096 54.3013
TCL: Running FEP window  20: Lambda1 0.9500000000000003 Lambda2 1.0    [dLambda 0.04999999999999971]
TCL: Setting parameter firsttimestep to 0
TCL: Setting parameter alchLambda to 0.9500000000000003
Info: NONBONDED TABLE R-SQUARED SPACING: 0.0625
Info: NONBONDED TABLE SIZE: 705 POINTS
TCL: Setting parameter alchLambda2 to 1.0
Info: NONBONDED TABLE R-SQUARED SPACING: 0.0625
Info: NONBONDED TABLE SIZE: 705 POINTS
TCL: Running for 1500000 steps
ETITLE: TS BOND ANGLE DIHED IMPRP ELECT VDW BOUNDARY MISC KINETIC TOTAL TEMP POTENTIAL TOTALAVG TEMPAVG PRESSURE GPRESSURE VOLUME PRESSAVG GPRESSAVG
ENERGY: 0 2.9347 2.0750 3.0447 0.0000 -10569.1548 1388.9324 0.0000 0.0000 1752.3354 -7419.8327 300.3970 -9172.1680 -7419.8327 300.3970 -550.1304 -458.1778 30637.9288 -550.1304 -458.1778
ENERGY: 300000 2.5419 6.1452 3.7009 0.0000 -10740.4394 1453.1437 0.0000 0.0000 1739.7197 -7535.1880 298.2343 -9274.9077 -7510.5217 297.8353 328.7593 422.3904 29726.3943 4.7943 96.1582
ENERGY: 600000 2.0491 1.7750 5.4529 0.0000 -10739.0524 1466.5083 0.0000 0.0000 1736.3270 -7526.9401 297.6527 -9263.2671 -7486.7022 298.5846 353.9635 366.0167 29786.7168 62.3496 138.8886
ENERGY: 900000 3.5342 4.4636 6.0438 0.0000 -10763.8576 1454.0034 0.0000 0.0000 1701.5307 -7594.2817 291.6877 -9295.8124 -7494.1057 297.9204 147.6388 137.2785 29915.7515 40.5108 111.4310
ENERGY: 1200000 3.5332 1.7478 4.0526 0.0000 -10614.3749 1434.3204 0.0000 0.0000 1739.0324 -7431.6884 298.1165 -9170.7208 -7487.1664 297.9457 -7.0672 109.1529 30203.5683 89.3010 163.4703
ENERGY: 1500000 1.3159 3.3479 5.6330 0.0000 -10611.9747 1390.7083 0.0000 0.0000 1763.7977 -7447.1719 302.3619 -9210.9696 -7479.2314 298.3175 -138.0272 -92.3664 29957.9763 80.5810 149.6120
TCL: Exiting due to exit command.
