Info: SIMULATION PARAMETERS:
Info: TIMESTEP               2
Info: NUMBER OF STEPS        0
Info: STEPS PER CYCLE        10
Info: PERIODIC CELL BASIS 1  32.0941 0 0
Info: PERIODIC CELL BASIS 2  0 31.3245 0
Info: PERIODIC CELL BASIS 3  0 0 30.9202
Info: PERIODIC CELL CENTER   0 0 0
Info: WRAPPING WATERS AROUND PERIODIC BOUNDARIES ON OUTPUT.
Info: WRAPPING ALL CLUSTERS AROUND PERIODIC BOUNDARIES ON OUTPUT.
Info: FIRST LDB TIMESTEP     50
Info: LAST LDB TIMESTEP     -1
Info: HOM BACKGROUND SCALING 1
Info: PME BACKGROUND SCALING 1
Info: MIN ATOMS PER PATCH    40
Info: EMPTY PATCH LOAD       40 ATOMS
Info: VELOCITY FILE          mobley_8573194_equil.vel
Info: CENTER OF MASS MOVING INITIALLY? NO
Info: DIELECTRIC             1
Info: EXCLUDE                SCALED ONE-FOUR
Info: 1-4 ELECTROSTATICS SCALED BY 0.833333
Info: MODIFIED 1-4 VDW PARAMETERS WILL BE USED
Info: DCD FILENAME           mobley_8573194_prod.dcd
Info: DCD FREQUENCY          100000
Info: DCD FIRST STEP         100000
Info: DCD FILE WILL CONTAIN UNIT CELL DATA
Info: XST FILENAME           mobley_8573194_prod.xst
Info: XST FREQUENCY          100000
Info: NO VELOCITY DCD OUTPUT
Info: NO FORCE DCD OUTPUT
Info: OUTPUT FILENAME        mobley_8573194_prod
Info: BINARY OUTPUT FILES WILL BE USED
Info: RESTART FILENAME       mobley_8573194_prod.restart
Info: RESTART FREQUENCY      100000
Info: BINARY RESTART FILES WILL BE USED
Info: CUTOFF                 9
Info: PAIRLIST DISTANCE      11
Info: PAIRLIST SHRINK RATE   0.01
Info: PAIRLIST GROW RATE     0.01
Info: PAIRLIST TRIGGER       0.3
Info: PAIRLISTS PER CYCLE    2
Info: PAIRLISTS ENABLED
Info: MARGIN                 2
Info: HYDROGEN GROUP CUTOFF  2.5
Info: PATCH DIMENSION        15.5
Info: ENERGY OUTPUT STEPS    100000
Info: ENERGY EVALUATION STEPS    100000
Info: OUTPUT ENERGY PRECISION 4
Info: CROSSTERM ENERGY INCLUDED IN DIHEDRAL
Info: TIMING OUTPUT STEPS    1000000
Info: PRESSURE OUTPUT STEPS  100000
Info: ALCHEMICAL FEP ON
Info: FEP CURRENT LAMBDA VALUE     1
Info: FEP COMPARISON LAMBDA VALUE  0.95
Info: FEP INTRA-ALCHEMICAL NON-BONDED INTERACTIONS WILL BE RETAINED
Info: FEP INTRA-ALCHEMICAL BONDED INTERACTIONS WILL BE RETAINED
Info: FEP VDW SHIFTING COEFFICIENT 5
Info: FEP ELEC. ACTIVE FOR ANNIHILATED PARTICLES BETWEEN LAMBDA = 0 AND LAMBDA = 0.5
Info: FEP ELEC. ACTIVE FOR EXNIHILATED PARTICLES BETWEEN LAMBDA = 0.5 AND LAMBDA = 1
Info: FEP VDW ACTIVE FOR ANNIHILATED PARTICLES BETWEEN LAMBDA = 0 AND LAMBDA = 1
Info: FEP VDW ACTIVE FOR EXNIHILATED PARTICLES BETWEEN LAMBDA = 0 AND LAMBDA = 1
Info: FEP BOND ACTIVE FOR ANNIHILATED PARTICLES BETWEEN LAMBDA = 1 AND LAMBDA = 1
Info: FEP BOND ACTIVE FOR EXNIHILATED PARTICLES BETWEEN LAMBDA = 0 AND LAMBDA = 0
Info: LANGEVIN DYNAMICS ACTIVE
Info: LANGEVIN TEMPERATURE   300
Info: LANGEVIN USING BBK INTEGRATOR
Info: LANGEVIN DAMPING COEFFICIENT IS 1 INVERSE PS
Info: LANGEVIN DYNAMICS APPLIED TO HYDROGENS
Info: LANGEVIN PISTON PRESSURE CONTROL ACTIVE
Info:        TARGET PRESSURE IS 1.01325 BAR
Info:     OSCILLATION PERIOD IS 50 FS
Info:             DECAY TIME IS 25 FS
Info:     PISTON TEMPERATURE IS 300 K
Info:       PRESSURE CONTROL IS GROUP-BASED
Info:    INITIAL STRAIN RATE IS 0.000390765 0.000390765 0.000390765
Info:       CELL FLUCTUATION IS ISOTROPIC
Info: PARTICLE MESH EWALD (PME) ACTIVE
Info: PME TOLERANCE               1e-06
Info: PME EWALD COEFFICIENT       0.348832
Info: PME INTERPOLATION ORDER     4
Info: PME GRID DIMENSIONS         36 32 32
Info: PME MAXIMUM GRID SPACING    1
Info: PME CALCULATION WILL BE PERFORMED ON GPU
Info: FULL ELECTROSTATIC EVALUATION FREQUENCY      2
Info: USING VERLET I (r-RESPA) MTS SCHEME.
Info: C1 SPLITTING OF LONG RANGE ELECTROSTATICS
Info: PLACING ATOMS IN PATCHES BY HYDROGEN GROUPS
Info: RIGID BONDS TO HYDROGEN : ALL
Info:         ERROR TOLERANCE : 1e-08
Info:          MAX ITERATIONS : 100
Info: RIGID WATER USING SETTLE ALGORITHM
Info: RANDOM NUMBER SEED     1743830779
Info: USE HYDROGEN BONDS?    NO
Info: Using AMBER format force field!
Info: AMBER PARM FILE        mobley_8573194.prmtop
Info: COORDINATE PDB         mobley_8573194.pdb
Info: Exclusions will be read from PARM file!
Info: SCNB (VDW SCALING)     2
Info: USING ARITHMETIC MEAN TO COMBINE L-J SIGMA PARAMETERS
Info: BINARY COORDINATES     mobley_8573194_equil.coor
Info: SUMMARY OF PARAMETERS:
Info: 7 BONDS
Info: 8 ANGLES
Info:   8 HARMONIC
Info:   0 COSINE-BASED
Info: 8 DIHEDRAL
Info: 0 IMPROPER
Info: 0 CROSSTERM
Info: 0 VDW
Info: 28 VDW_PAIRS
Info: 0 NBTHOLE_PAIRS
Info: To read alchdata from file: mobley_8573194.pdb
Info: To read alchflag data from column: 5
Info: STRUCTURE SUMMARY:
Info: 2965 ATOMS
Info: 2964 BONDS
Info: 21 ANGLES
Info: 29 DIHEDRALS
Info: 0 IMPROPERS
Info: 0 CROSSTERMS
Info: 3009 EXCLUSIONS
Info: 2960 RIGID BONDS
Info: ALCH: 0 ATOMS TO DISAPPEAR IN FINAL STATE
Info: ALCH: 13 ATOMS TO APPEAR IN FINAL STATE
Info: 5935 DEGREES OF FREEDOM
Info: 989 HYDROGEN GROUPS
Info: 4 ATOMS IN LARGEST HYDROGEN GROUP
Info: 989 MIGRATION GROUPS
Info: 4 ATOMS IN LARGEST MIGRATION GROUP
Info: TOTAL MASS = 17799.8 amu
Info: TOTAL CHARGE = 9.99738e-05 e
Info: MASS DENSITY = 0.950877 g/cm^3
Info: ATOM DENSITY = 0.0953835 atoms/A^3
Info: ADDED 0 IMPLICIT EXCLUSIONS
Info: NONBONDED TABLE R-SQUARED SPACING: 0.0625
Info: NONBONDED TABLE SIZE: 705 POINTS
Info: REDUCING NUMBER OF PATCHES TO IMPROVE LOAD BALANCE
Info: REMOVING COM VELOCITY 0.0761918 0.110077 -0.124341
Info: Use 3D box decompostion in PME FFT.
Info: Updated CUDA force table with 4096 elements.
Info: Updated CUDA LJ table with 7 x 7 elements.
Info: Found 16 unique exclusion lists needing 32 bytes
TCL: Running for 1500000 steps
ETITLE: TS BOND ANGLE DIHED IMPRP ELECT VDW BOUNDARY MISC KINETIC TOTAL TEMP POTENTIAL TOTALAVG TEMPAVG PRESSURE GPRESSURE VOLUME PRESSAVG GPRESSAVG
ENERGY: 0 1.6784 4.9781 2.3313 0.0000 -10645.8044 1386.2890 0.0000 0.0000 1778.7589 -7471.7688 301.6385 -9250.5277 -7471.7688 301.6385 -709.5003 -623.0925 31085.0290 -709.5003 -623.0925
ENERGY: 300000 0.2989 6.5587 1.8814 0.0000 -10847.2223 1497.6198 0.0000 0.0000 1799.1094 -7541.7539 305.0895 -9340.8633 -7525.4547 302.7380 494.8104 504.7617 30208.7947 -9.5064 59.7472
ENERGY: 600000 1.3633 5.4711 2.2830 0.0000 -10763.3619 1387.3162 0.0000 0.0000 1782.4659 -7584.4625 302.2671 -9366.9283 -7575.0288 299.3571 -709.1215 -610.8320 30549.7659 -94.3062 -33.3404
ENERGY: 900000 0.9287 4.3627 1.8662 0.0000 -10862.6790 1493.3504 0.0000 0.0000 1770.0880 -7592.0830 300.1681 -9362.1710 -7563.9051 299.4696 187.7995 289.0492 30358.5555 -71.4303 -7.2887
ENERGY: 1200000 1.0305 6.8229 1.8306 0.0000 -10794.3384 1443.7522 0.0000 0.0000 1782.6232 -7558.2790 302.2938 -9340.9022 -7561.4715 299.5795 77.3539 138.8136 30372.3367 -82.7166 -17.3073
ENERGY: 1500000 0.2683 8.0874 2.6024 0.0000 -10731.4521 1374.6434 0.0000 0.0000 1794.9402 -7550.9103 304.3825 -9345.8505 -7547.6860 300.5133 -624.2061 -551.5063 30467.3697 -151.3074 -82.7179
TCL: Running FEP window   2: Lambda1 0.95   Lambda2 0.8999999999999999 [dLambda -0.050000000000000044]
TCL: Setting parameter firsttimestep to 0
TCL: Setting parameter alchLambda to 0.95
Info: NONBONDED TABLE R-SQUARED SPACING: 0.0625
Info: NONBONDED TABLE SIZE: 705 POINTS
TCL: Setting parameter alchLambda2 to 0.8999999999999999
Info: NONBONDED TABLE R-SQUARED SPACING: 0.0625
Info: NONBONDED TABLE SIZE: 705 POINTS
TCL: Running for 1500000 steps
ETITLE: TS BOND ANGLE DIHED IMPRP ELECT VDW BOUNDARY MISC KINETIC TOTAL TEMP POTENTIAL TOTALAVG TEMPAVG PRESSURE GPRESSURE VOLUME PRESSAVG GPRESSAVG
ENERGY: 0 0.2683 8.0874 2.6024 0.0000 -10730.1270 1373.9590 0.0000 0.0000 1794.0930 -7551.1168 304.2388 -9345.2098 -7551.1168 304.2388 -646.5370 -569.2123 30467.3697 -646.5370 -569.2123
ENERGY: 300000 1.7657 5.3804 2.6359 0.0000 -10690.5557 1414.4890 0.0000 0.0000 1751.9806 -7514.3041 297.0975 -9266.2848 -7543.5386 299.1478 -162.4583 -53.9083 30518.8197 -323.8686 -247.0636
ENERGY: 600000 0.6465 8.7525 1.7129 0.0000 -10750.2309 1441.2877 0.0000 0.0000 1729.7306 -7568.1007 293.3244 -9297.8313 -7544.5171 299.2874 -216.5632 -149.8648 30660.2181 -327.1780 -247.4515
ENERGY: 900000 1.1675 6.6573 1.6989 0.0000 -10715.2025 1431.3361 0.0000 0.0000 1780.9142 -7493.4285 302.0040 -9274.3427 -7542.2428 300.2865 -22.8080 109.9655 30290.6175 -373.2667 -287.3176
ENERGY: 1200000 1.9342 7.0742 4.3850 0.0000 -10806.9343 1466.7465 0.0000 0.0000 1729.9106 -7596.8837 293.3549 -9326.7943 -7532.0355 300.6846 209.5420 250.0500 30243.4701 -298.1991 -220.3383
ENERGY: 1500000 1.2072 6.8651 2.7410 0.0000 -10704.3602 1398.4486 0.0000 0.0000 1713.2475 -7581.8507 290.5292 -9295.0982 -7528.1307 299.8681 -378.5071 -360.9442 30471.1591 -229.7350 -155.9035
TCL: Running FEP window   3: Lambda1 0.8999999999999999 Lambda2 0.8499999999999999 [dLambda -0.050000000000000044]
TCL: Setting parameter firsttimestep to 0
TCL: Setting parameter alchLambda to 0.8999999999999999
Info: NONBONDED TABLE R-SQUARED SPACING: 0.0625
Info: NONBONDED TABLE SIZE: 705 POINTS
TCL: Setting parameter alchLambda2 to 0.8499999999999999
Info: NONBONDED TABLE R-SQUARED SPACING: 0.0625
Info: NONBONDED TABLE SIZE: 705 POINTS
TCL: Running for 1500000 steps
ETITLE: TS BOND ANGLE DIHED IMPRP ELECT VDW BOUNDARY MISC KINETIC TOTAL TEMP POTENTIAL TOTALAVG TEMPAVG PRESSURE GPRESSURE VOLUME PRESSAVG GPRESSAVG
ENERGY: 0 1.2072 6.8651 2.7410 0.0000 -10703.3827 1398.7689 0.0000 0.0000 1712.3476 -7581.4530 290.3766 -9293.8005 -7581.4530 290.3766 -451.3763 -359.9453 30471.1591 -451.3763 -359.9453
ENERGY: 300000 1.1255 10.2347 1.4726 0.0000 -10730.5272 1446.1266 0.0000 0.0000 1751.7145 -7519.8534 297.0523 -9271.5679 -7562.4281 297.1399 86.4881 127.3054 30655.7383 15.2680 81.5165
ENERGY: 600000 0.8784 6.5216 1.6980 0.0000 -10591.8862 1384.5354 0.0000 0.0000 1759.1425 -7439.1103 298.3120 -9198.2528 -7536.2576 297.7197 -60.7775 -85.8877 30528.6135 56.1425 109.2236
ENERGY: 900000 0.3540 5.9105 2.9238 0.0000 -10804.2969 1453.3871 0.0000 0.0000 1786.6266 -7555.0949 302.9727 -9341.7215 -7536.7982 298.9950 -128.9108 -37.3795 30482.3156 -54.4000 5.8401
ENERGY: 1200000 1.6560 4.7551 1.1727 0.0000 -10563.4971 1328.1711 0.0000 0.0000 1805.2669 -7422.4753 306.1337 -9227.7422 -7532.4940 298.6873 -630.2427 -612.6453 30630.5752 2.5291 58.6892
ENERGY: 1500000 0.6721 4.0078 2.6527 0.0000 -10861.3976 1501.3733 0.0000 0.0000 1781.1069 -7571.5848 302.0367 -9352.6917 -7530.0499 300.4151 339.6962 371.8172 30148.3786 -50.4824 10.3966
TCL: Running FEP window   4: Lambda1 0.8499999999999999 Lambda2 0.7999999999999998 [dLambda -0.050000000000000044]
TCL: Setting parameter firsttimestep to 0
TCL: Setting parameter alchLambda to 0.8499999999999999
Info: NONBONDED TABLE R-SQUARED SPACING: 0.0625
Info: NONBONDED TABLE SIZE: 705 POINTS
TCL: Setting parameter alchLambda2 to 0.7999999999999998
Info: NONBONDED TABLE R-SQUARED SPACING: 0.0625
Info: NONBONDED TABLE SIZE: 705 POINTS
TCL: Running for 1500000 steps
ETITLE: TS BOND ANGLE DIHED IMPRP ELECT VDW BOUNDARY MISC KINETIC TOTAL TEMP POTENTIAL TOTALAVG TEMPAVG PRESSURE GPRESSURE VOLUME PRESSAVG GPRESSAVG
ENERGY: 0 0.6721 4.0078 2.6527 0.0000 -10860.2360 1501.5360 0.0000 0.0000 1780.2418 -7571.1256 301.8899 -9351.3674 -7571.1256 301.8899 273.7077 367.4113 30148.3786 273.7077 367.4113
ENERGY: 300000 0.5802 4.4868 1.9705 0.0000 -10797.4580 1457.8928 0.0000 0.0000 1760.3077 -7572.2201 298.5096 -9332.5278 -7549.9994 300.3446 206.3465 277.5582 30151.3077 -93.5039 -9.8782
ENERGY: 600000 1.0434 4.6983 2.2039 0.0000 -10648.1320 1401.7371 0.0000 0.0000 1780.4091 -7458.0402 301.9183 -9238.4493 -7538.3677 300.0260 -319.5453 -231.7134 30875.1223 138.1711 197.1677
ENERGY: 900000 1.7575 3.7513 1.7290 0.0000 -10838.6860 1473.1596 0.0000 0.0000 1737.8343 -7620.4542 294.6986 -9358.2885 -7538.4955 299.9222 -55.3064 -58.3556 30595.0544 111.1326 159.5732
ENERGY: 1200000 1.3262 4.4256 1.3526 0.0000 -10838.0008 1506.3200 0.0000 0.0000 1737.9841 -7586.5922 294.7240 -9324.5763 -7547.5868 299.3016 487.4247 552.8717 30544.1722 100.8705 154.3542
ENERGY: 1500000 1.0476 4.2053 1.6442 0.0000 -10661.3940 1357.8726 0.0000 0.0000 1804.4012 -7492.2231 305.9869 -9296.6243 -7548.8243 299.5221 -779.2310 -648.8978 30342.1993 53.1803 111.2532
TCL: Running FEP window   5: Lambda1 0.7999999999999998 Lambda2 0.7499999999999998 [dLambda -0.050000000000000044]
TCL: Setting parameter firsttimestep to 0
TCL: Setting parameter alchLambda to 0.7999999999999998
Info: NONBONDED TABLE R-SQUARED SPACING: 0.0625
Info: NONBONDED TABLE SIZE: 705 POINTS
TCL: Setting parameter alchLambda2 to 0.7499999999999998
Info: NONBONDED TABLE R-SQUARED SPACING: 0.0625
Info: NONBONDED TABLE SIZE: 705 POINTS
TCL: Running for 1500000 steps
ETITLE: TS BOND ANGLE DIHED IMPRP ELECT VDW BOUNDARY MISC KINETIC TOTAL TEMP POTENTIAL TOTALAVG TEMPAVG PRESSURE GPRESSURE VOLUME PRESSAVG GPRESSAVG
ENERGY: 0 1.0476 4.2053 1.6442 0.0000 -10660.5377 1358.3516 0.0000 0.0000 1803.5779 -7491.7111 305.8472 -9295.2890 -7491.7111 305.8472 -724.8675 -646.4337 30342.1993 -724.8675 -646.4337
ENERGY: 300000 0.9044 4.1001 2.7379 0.0000 -10797.2729 1511.7641 0.0000 0.0000 1836.1469 -7441.6194 311.3702 -9277.7664 -7511.3052 304.1718 786.0105 859.1704 30309.6703 -138.6366 -71.3783
ENERGY: 600000 0.4478 3.5185 1.3746 0.0000 -10604.2194 1291.4049 0.0000 0.0000 1752.8344 -7554.6391 297.2422 -9307.4735 -7517.7337 302.8395 -1075.8726 -960.9162 30139.1710 -236.2211 -171.0260
ENERGY: 900000 1.0718 3.7347 1.9280 0.0000 -10778.4069 1451.2222 0.0000 0.0000 1790.4192 -7530.0311 303.6158 -9320.4503 -7522.4420 303.5103 132.0417 184.5334 30120.8331 -169.0402 -101.8909
ENERGY: 1200000 2.1083 4.2550 1.4532 0.0000 -10659.6412 1386.3264 0.0000 0.0000 1745.6081 -7519.8902 296.0168 -9265.4983 -7527.8714 301.9638 -649.4856 -515.1939 30905.3770 -230.1405 -157.9013
ENERGY: 1500000 0.2152 7.8624 2.0385 0.0000 -10652.2480 1384.3410 0.0000 0.0000 1732.6774 -7525.1135 293.8241 -9257.7909 -7531.5311 301.0354 -742.1902 -646.3074 31095.9452 -190.0855 -116.9562
TCL: Running FEP window   6: Lambda1 0.7499999999999998 Lambda2 0.6999999999999997 [dLambda -0.050000000000000044]
TCL: Setting parameter firsttimestep to 0
TCL: Setting parameter alchLambda to 0.7499999999999998
Info: NONBONDED TABLE R-SQUARED SPACING: 0.0625
Info: NONBONDED TABLE SIZE: 705 POINTS
TCL: Setting parameter alchLambda2 to 0.6999999999999997
Info: NONBONDED TABLE R-SQUARED SPACING: 0.0625
Info: NONBONDED TABLE SIZE: 705 POINTS
TCL: Running for 1500000 steps
ETITLE: TS BOND ANGLE DIHED IMPRP ELECT VDW BOUNDARY MISC KINETIC TOTAL TEMP POTENTIAL TOTALAVG TEMPAVG PRESSURE GPRESSURE VOLUME PRESSAVG GPRESSAVG
ENERGY: 0 0.2152 7.8624 2.0385 0.0000 -10651.6139 1384.5394 0.0000 0.0000 1731.7666 -7525.1918 293.6696 -9256.9584 -7525.1918 293.6696 -737.3603 -651.7137 31095.9452 -737.3603 -651.7137
ENERGY: 300000 0.4867 6.7140 2.3916 0.0000 -10736.1983 1400.6327 0.0000 0.0000 1731.4385 -7594.5348 293.6140 -9325.9733 -7559.3598 294.7980 -375.9169 -301.6388 30367.5809 -503.7183 -434.2407
ENERGY: 600000 0.5685 3.3662 1.5519 0.0000 -10697.3068 1484.5509 0.0000 0.0000 1790.3097 -7416.9596 303.5972 -9207.2693 -7522.1110 297.3720 443.1151 507.1717 31002.7016 -289.2617 -231.5493
ENERGY: 900000 1.2357 5.1873 1.5594 0.0000 -10696.0534 1450.4905 0.0000 0.0000 1730.9065 -7506.6741 293.5238 -9237.5805 -7534.0499 297.1690 374.9799 453.9793 30346.3959 -106.2628 -61.5077
ENERGY: 1200000 1.1732 3.2900 2.2613 0.0000 -10717.2087 1417.2257 0.0000 0.0000 1716.8723 -7576.3863 291.1439 -9293.2586 -7538.5051 297.5650 -398.2874 -308.2081 30750.4136 -153.7250 -106.0865
ENERGY: 1500000 0.5752 1.6363 2.0667 0.0000 -10590.1138 1374.9318 0.0000 0.0000 1754.9749 -7455.9289 297.6052 -9210.9038 -7532.0848 297.7214 -429.4305 -320.2864 31132.0368 -170.7655 -115.7394
TCL: Running FEP window   7: Lambda1 0.6999999999999997 Lambda2 0.6499999999999997 [dLambda -0.050000000000000044]
TCL: Setting parameter firsttimestep to 0
TCL: Setting parameter alchLambda to 0.6999999999999997
Info: NONBONDED TABLE R-SQUARED SPACING: 0.0625
Info: NONBONDED TABLE SIZE: 705 POINTS
TCL: Setting parameter alchLambda2 to 0.6499999999999997
Info: NONBONDED TABLE R-SQUARED SPACING: 0.0625
Info: NONBONDED TABLE SIZE: 705 POINTS
TCL: Running for 1500000 steps
ETITLE: TS BOND ANGLE DIHED IMPRP ELECT VDW BOUNDARY MISC KINETIC TOTAL TEMP POTENTIAL TOTALAVG TEMPAVG PRESSURE GPRESSURE VOLUME PRESSAVG GPRESSAVG
ENERGY: 0 0.5752 1.6363 2.0667 0.0000 -10589.1360 1374.9130 0.0000 0.0000 1754.1154 -7455.8295 297.4595 -9209.9449 -7455.8295 297.4595 -408.6394 -326.2995 31132.0368 -408.6394 -326.2995
ENERGY: 300000 2.3606 4.7369 2.3740 0.0000 -10707.3037 1395.3541 0.0000 0.0000 1720.5688 -7581.9092 291.7707 -9302.4780 -7526.3407 295.6134 -743.7234 -646.5139 31018.3777 -429.9588 -359.8694
ENERGY: 600000 1.3569 5.3082 2.9786 0.0000 -10735.6404 1407.9115 0.0000 0.0000 1728.9998 -7589.0853 293.2004 -9318.0851 -7532.1721 297.6302 -506.3740 -378.5502 30434.5890 -139.2270 -70.6625
ENERGY: 900000 0.5150 6.3962 3.2522 0.0000 -10731.5602 1378.0421 0.0000 0.0000 1741.7315 -7601.6233 295.3594 -9343.3548 -7538.3625 297.3713 -657.6499 -664.3396 30720.9797 -261.0924 -204.2622
ENERGY: 1200000 3.5930 3.5577 2.6331 0.0000 -10704.0260 1426.8814 0.0000 0.0000 1787.1777 -7480.1829 303.0661 -9267.3607 -7543.6349 297.8868 -7.2860 25.2253 30594.1452 -185.0832 -128.4106
ENERGY: 1500000 0.4644 4.3481 1.9690 0.0000 -10869.0542 1494.0943 0.0000 0.0000 1761.5220 -7606.6564 298.7155 -9368.1785 -7550.9316 297.2023 -56.9045 -33.0047 30832.3284 -141.9958 -89.4573
TCL: Running FEP window   8: Lambda1 0.6499999999999997 Lambda2 0.5999999999999996 [dLambda -0.050000000000000044]
TCL: Setting parameter firsttimestep to 0
TCL: Setting parameter alchLambda to 0.6499999999999997
Info: NONBONDED TABLE R-SQUARED SPACING: 0.0625
Info: NONBONDED TABLE SIZE: 705 POINTS
TCL: Setting parameter alchLambda2 to 0.5999999999999996
Info: NONBONDED TABLE R-SQUARED SPACING: 0.0625
Info: NONBONDED TABLE SIZE: 705 POINTS
TCL: Running for 1500000 steps
ETITLE: TS BOND ANGLE DIHED IMPRP ELECT VDW BOUNDARY MISC KINETIC TOTAL TEMP POTENTIAL TOTALAVG TEMPAVG PRESSURE GPRESSURE VOLUME PRESSAVG GPRESSAVG
ENERGY: 0 0.4644 4.3481 1.9690 0.0000 -10868.6484 1493.4203 0.0000 0.0000 1760.6220 -7607.8245 298.5629 -9368.4466 -7607.8245 298.5629 -131.6197 -48.4754 30832.3284 -131.6197 -48.4754
ENERGY: 300000 0.5241 3.0634 3.5461 0.0000 -10574.3505 1342.4938 0.0000 0.0000 1744.1887 -7480.5344 295.7761 -9224.7231 -7539.0692 303.3171 -591.2632 -486.0833 30554.1820 -336.5863 -247.0181
ENERGY: 600000 3.3868 9.1321 2.7411 0.0000 -10922.6359 1553.3808 0.0000 0.0000 1767.3326 -7586.6625 299.7008 -9353.9951 -7526.2581 303.3580 167.0704 297.3605 30698.3754 -80.2699 0.0985
ENERGY: 900000 1.3795 4.3660 0.9653 0.0000 -10904.4934 1594.5549 0.0000 0.0000 1767.3348 -7535.8929 299.7012 -9303.2278 -7520.9533 303.3399 1153.0503 1175.2545 30279.0399 26.4750 100.8732
ENERGY: 1200000 2.3459 6.0804 2.9324 0.0000 -10703.4415 1452.9845 0.0000 0.0000 1778.7157 -7460.3825 301.6312 -9239.0983 -7516.5851 302.5712 183.6837 196.5692 30622.3714 54.9758 122.5551
ENERGY: 1500000 2.2265 7.0468 2.0091 0.0000 -10741.8131 1413.2156 0.0000 0.0000 1763.3066 -7554.0085 299.0181 -9317.3151 -7524.3051 301.0424 -3.6921 27.8415 29993.8109 -10.8629 50.9915
TCL: Running FEP window   9: Lambda1 0.5999999999999996 Lambda2 0.5499999999999996 [dLambda -0.050000000000000044]
TCL: Setting parameter firsttimestep to 0
TCL: Setting parameter alchLambda to 0.5999999999999996
Info: NONBONDED TABLE R-SQUARED SPACING: 0.0625
Info: NONBONDED TABLE SIZE: 705 POINTS
TCL: Setting parameter alchLambda2 to 0.5499999999999996
Info: NONBONDED TABLE R-SQUARED SPACING: 0.0625
Info: NONBONDED TABLE SIZE: 705 POINTS
TCL: Running for 1500000 steps
ETITLE: TS BOND ANGLE DIHED IMPRP ELECT VDW BOUNDARY MISC KINETIC TOTAL TEMP POTENTIAL TOTALAVG TEMPAVG PRESSURE GPRESSURE VOLUME PRESSAVG GPRESSAVG
ENERGY: 0 2.2265 7.0468 2.0091 0.0000 -10741.1197 1413.1301 0.0000 0.0000 1762.4204 -7554.2867 298.8678 -9316.7072 -7554.2867 298.8678 -51.0022 22.0558 29993.8109 -51.0022 22.0558
ENERGY: 300000 0.8168 6.7912 2.5641 0.0000 -10777.3230 1420.3313 0.0000 0.0000 1804.0698 -7542.7498 305.9307 -9346.8196 -7557.4722 300.5149 -315.1819 -269.4436 30529.9231 -360.5382 -292.0858
ENERGY: 600000 1.4048 1.6396 2.2062 0.0000 -10737.7789 1481.9299 0.0000 0.0000 1785.0526 -7465.5457 302.7058 -9250.5984 -7535.4122 301.2639 355.3937 455.9428 30432.9523 -190.9142 -113.7913
ENERGY: 900000 0.8155 8.0140 1.8381 0.0000 -10869.5851 1513.5010 0.0000 0.0000 1823.3807 -7522.0358 309.2054 -9345.4166 -7545.1255 301.1663 360.0627 383.4244 30548.3639 -45.9926 22.1260
ENERGY: 1200000 1.6079 4.1619 2.3611 0.0000 -10636.4452 1388.9959 0.0000 0.0000 1722.3882 -7516.9302 292.0792 -9239.3185 -7539.0068 300.6160 -301.0253 -241.3475 30701.8598 -64.8340 4.0568
ENERGY: 1500000 0.2670 6.8498 2.7846 0.0000 -10685.1993 1375.8160 0.0000 0.0000 1700.8012 -7598.6806 288.4186 -9299.4818 -7539.1042 298.8911 -615.5504 -523.1593 30687.8294 -102.2295 -37.8826
TCL: Running FEP window  10: Lambda1 0.5499999999999996 Lambda2 0.4999999999999996 [dLambda -0.04999999999999999]
TCL: Setting parameter firsttimestep to 0
TCL: Setting parameter alchLambda to 0.5499999999999996
Info: NONBONDED TABLE R-SQUARED SPACING: 0.0625
Info: NONBONDED TABLE SIZE: 705 POINTS
TCL: Setting parameter alchLambda2 to 0.4999999999999996
Info: NONBONDED TABLE R-SQUARED SPACING: 0.0625
Info: NONBONDED TABLE SIZE: 705 POINTS
TCL: Running for 1500000 steps
ETITLE: TS BOND ANGLE DIHED IMPRP ELECT VDW BOUNDARY MISC KINETIC TOTAL TEMP POTENTIAL TOTALAVG TEMPAVG PRESSURE GPRESSURE VOLUME PRESSAVG GPRESSAVG
ENERGY: 0 0.2670 6.8498 2.7846 0.0000 -10684.6286 1375.9169 0.0000 0.0000 1699.9305 -7598.8798 288.2709 -9298.8103 -7598.8798 288.2709 -599.0794 -525.0619 30687.8294 -599.0794 -525.0619
ENERGY: 300000 0.4030 3.9516 1.4180 0.0000 -10793.2523 1482.3178 0.0000 0.0000 1761.9053 -7543.2566 298.7805 -9305.1619 -7527.8284 297.1227 285.6079 372.5713 30281.4624 -119.8534 -29.9105
ENERGY: 600000 0.7373 5.6743 3.2511 0.0000 -10827.5383 1518.6131 0.0000 0.0000 1763.4183 -7535.8442 299.0371 -9299.2625 -7517.5458 299.3533 521.5985 582.6295 30415.1833 -53.4348 16.9392
ENERGY: 900000 0.5604 4.6422 2.1435 0.0000 -10880.0552 1520.4385 0.0000 0.0000 1762.9572 -7589.3134 298.9589 -9352.2705 -7520.9036 298.8778 227.0391 325.5439 30646.3997 -99.5584 -22.9972
ENERGY: 1200000 0.9541 6.4248 5.1984 0.0000 -10679.0543 1378.2069 0.0000 0.0000 1747.8504 -7540.4197 296.3971 -9288.2701 -7530.3145 299.4347 -729.8536 -692.9552 30975.0004 -64.5858 10.0768
ENERGY: 1500000 0.8605 2.8029 2.6126 0.0000 -10710.4045 1412.3869 0.0000 0.0000 1759.6952 -7532.0462 298.4057 -9291.7414 -7533.8700 299.5950 -167.8704 -164.2955 30181.5246 -70.2511 -2.0720
TCL: Running FEP window  11: Lambda1 0.4999999999999996 Lambda2 0.4499999999999996 [dLambda -0.04999999999999999]
TCL: Setting parameter firsttimestep to 0
TCL: Setting parameter alchLambda to 0.4999999999999996
Info: NONBONDED TABLE R-SQUARED SPACING: 0.0625
Info: NONBONDED TABLE SIZE: 705 POINTS
TCL: Setting parameter alchLambda2 to 0.4499999999999996
Info: NONBONDED TABLE R-SQUARED SPACING: 0.0625
Info: NONBONDED TABLE SIZE: 705 POINTS
TCL: Running for 1500000 steps
ETITLE: TS BOND ANGLE DIHED IMPRP ELECT VDW BOUNDARY MISC KINETIC TOTAL TEMP POTENTIAL TOTALAVG TEMPAVG PRESSURE GPRESSURE VOLUME PRESSAVG GPRESSAVG
ENERGY: 0 0.8605 2.8029 2.6126 0.0000 -10710.3343 1412.1131 0.0000 0.0000 1758.7849 -7533.1602 298.2513 -9291.9451 -7533.1602 298.2513 -255.2575 -172.2469 30181.5246 -255.2575 -172.2469
ENERGY: 300000 2.9710 4.6887 1.1421 0.0000 -10771.6790 1483.6309 0.0000 0.0000 1819.2505 -7459.9959 308.5050 -9279.2464 -7508.0060 304.4698 21.3203 112.8165 31097.1309 114.7621 203.3937
ENERGY: 600000 0.7986 3.4319 2.4316 0.0000 -10818.5942 1436.5190 0.0000 0.0000 1813.0264 -7562.3868 307.4495 -9375.4132 -7539.9850 301.5531 -406.8120 -361.8888 30730.9799 -54.6714 29.7272
ENERGY: 900000 1.4679 5.5441 1.8876 0.0000 -10713.4003 1458.0962 0.0000 0.0000 1757.8031 -7488.6014 298.0848 -9246.4045 -7543.4618 301.7983 496.2003 579.1478 30232.1459 -16.1528 63.5365
ENERGY: 1200000 0.7634 5.6276 2.9548 0.0000 -10827.7873 1447.6623 0.0000 0.0000 1742.2504 -7628.5288 295.4474 -9370.7792 -7550.1699 300.5771 -186.0046 -106.9711 30203.2799 -86.7374 -10.1470
ENERGY: 1500000 1.7582 7.4311 1.9477 0.0000 -10768.6192 1458.2730 0.0000 0.0000 1753.0856 -7546.1237 297.2849 -9299.2094 -7540.2484 300.2032 188.7882 223.4022 30338.8298 -116.5081 -46.3714
TCL: Running FEP window  12: Lambda1 0.4499999999999996 Lambda2 0.39999999999999963 [dLambda -0.04999999999999999]
TCL: Setting parameter firsttimestep to 0
TCL: Setting parameter alchLambda to 0.4499999999999996
Info: NONBONDED TABLE R-SQUARED SPACING: 0.0625
Info: NONBONDED TABLE SIZE: 705 POINTS
TCL: Setting parameter alchLambda2 to 0.39999999999999963
Info: NONBONDED TABLE R-SQUARED SPACING: 0.0625
Info: NONBONDED TABLE SIZE: 705 POINTS
TCL: Running for 1500000 steps
ETITLE: TS BOND ANGLE DIHED IMPRP ELECT VDW BOUNDARY MISC KINETIC TOTAL TEMP POTENTIAL TOTALAVG TEMPAVG PRESSURE GPRESSURE VOLUME PRESSAVG GPRESSAVG
ENERGY: 0 1.7582 7.4311 1.9477 0.0000 -10768.6187 1458.3419 0.0000 0.0000 1752.1894 -7546.9505 297.1329 -9299.1399 -7546.9505 297.1329 155.5203 218.0765 30338.8298 155.5203 218.0765
ENERGY: 300000 2.1448 4.8692 1.7848 0.0000 -10733.6713 1358.4904 0.0000 0.0000 1736.6954 -7629.6867 294.5054 -9366.3822 -7541.0082 299.3761 -715.1026 -673.2012 30101.5064 -226.3724 -157.7970
ENERGY: 600000 0.1597 4.8107 1.7561 0.0000 -10718.3063 1430.1372 0.0000 0.0000 1779.4024 -7502.0403 301.7476 -9281.4426 -7513.5110 300.6668 -77.1612 -33.9339 30484.4613 -248.9810 -188.1419
ENERGY: 900000 0.9107 4.6735 2.6425 0.0000 -10722.6031 1373.6879 0.0000 0.0000 1754.7878 -7585.9007 297.5735 -9340.6885 -7527.0242 300.0775 -539.7869 -531.7382 30180.7162 -244.3493 -196.8248
ENERGY: 1200000 0.9291 4.8211 1.7542 0.0000 -10804.2538 1463.3664 0.0000 0.0000 1791.7085 -7541.6746 303.8345 -9333.3831 -7532.5884 300.7437 49.1750 130.7392 30347.7577 -233.6204 -183.8763
ENERGY: 1500000 1.2944 4.0020 1.7118 0.0000 -10723.9834 1460.9090 0.0000 0.0000 1783.2044 -7472.8618 302.3923 -9256.0662 -7533.7011 299.9003 9.5151 107.3761 30784.5922 -159.2321 -104.1490
TCL: Running FEP window  13: Lambda1 0.39999999999999963 Lambda2 0.34999999999999964 [dLambda -0.04999999999999999]
TCL: Setting parameter firsttimestep to 0
TCL: Setting parameter alchLambda to 0.39999999999999963
Info: NONBONDED TABLE R-SQUARED SPACING: 0.0625
Info: NONBONDED TABLE SIZE: 705 POINTS
TCL: Setting parameter alchLambda2 to 0.34999999999999964
Info: NONBONDED TABLE R-SQUARED SPACING: 0.0625
Info: NONBONDED TABLE SIZE: 705 POINTS
TCL: Running for 1500000 steps
ETITLE: TS BOND ANGLE DIHED IMPRP ELECT VDW BOUNDARY MISC KINETIC TOTAL TEMP POTENTIAL TOTALAVG TEMPAVG PRESSURE GPRESSURE VOLUME PRESSAVG GPRESSAVG
ENERGY: 0 1.2944 4.0020 1.7118 0.0000 -10723.9842 1461.2601 0.0000 0.0000 1782.3523 -7473.3636 302.2478 -9255.7159 -7473.3636 302.2478 44.4423 105.8407 30784.5922 44.4423 105.8407
ENERGY: 300000 1.4490 4.2451 2.0455 0.0000 -10834.4846 1484.2692 0.0000 0.0000 1782.8325 -7559.6434 302.3293 -9342.4758 -7524.8011 298.6147 46.8300 101.1051 30459.4840 -70.0965 -8.2000
ENERGY: 600000 1.8957 6.5292 1.4977 0.0000 -10884.2479 1547.6378 0.0000 0.0000 1768.1354 -7558.5522 299.8370 -9326.6875 -7512.5410 300.3326 679.3609 758.7906 30330.9422 135.1780 201.0495
ENERGY: 900000 0.6121 5.3014 2.3845 0.0000 -10710.3357 1432.9748 0.0000 0.0000 1769.8304 -7499.2325 300.1244 -9269.0629 -7507.4857 300.3608 132.1600 186.0153 30341.4925 78.4598 142.0452
ENERGY: 1200000 1.3364 9.9034 1.6936 0.0000 -10770.2488 1451.4056 0.0000 0.0000 1800.9282 -7504.9816 305.3979 -9305.9098 -7506.8707 301.5389 231.7147 319.6389 29874.9283 16.5811 83.3308
ENERGY: 1500000 1.8854 4.6114 2.0379 0.0000 -10623.0565 1407.9887 0.0000 0.0000 1725.5706 -7480.9625 292.6189 -9206.5331 -7510.6170 300.8464 -380.7919 -305.3798 30794.8696 -68.0210 3.5383
TCL: Running FEP window  14: Lambda1 0.34999999999999964 Lambda2 0.29999999999999966 [dLambda -0.04999999999999999]
TCL: Setting parameter firsttimestep to 0
TCL: Setting parameter alchLambda to 0.34999999999999964
Info: NONBONDED TABLE R-SQUARED SPACING: 0.0625
Info: NONBONDED TABLE SIZE: 705 POINTS
TCL: Setting parameter alchLambda2 to 0.29999999999999966
Info: NONBONDED TABLE R-SQUARED SPACING: 0.0625
Info: NONBONDED TABLE SIZE: 705 POINTS
TCL: Running for 1500000 steps
ETITLE: TS BOND ANGLE DIHED IMPRP ELECT VDW BOUNDARY MISC KINETIC TOTAL TEMP POTENTIAL TOTALAVG TEMPAVG PRESSURE GPRESSURE VOLUME PRESSAVG GPRESSAVG
ENERGY: 0 1.8854 4.6114 2.0379 0.0000 -10623.0557 1407.7888 0.0000 0.0000 1724.6955 -7482.0367 292.4705 -9206.7322 -7482.0367 292.4705 -386.6641 -314.2637 30794.8696 -386.6641 -314.2637
ENERGY: 300000 0.7256 3.3850 2.6915 0.0000 -10666.5013 1401.0491 0.0000 0.0000 1756.9510 -7501.6991 297.9403 -9258.6501 -7511.4569 297.9468 -55.0298 -8.6218 29838.3260 96.4937 139.0954
ENERGY: 600000 0.4787 7.1512 3.4907 0.0000 -10686.6363 1401.3408 0.0000 0.0000 1790.0177 -7484.1571 303.5477 -9274.1749 -7531.0077 298.2022 -571.3845 -429.1165 30755.8232 -56.5341 4.5333
ENERGY: 900000 0.0106 6.7966 1.0703 0.0000 -10745.9573 1461.7192 0.0000 0.0000 1762.5243 -7513.8364 298.8855 -9276.3607 -7528.2509 298.7367 8.4074 81.8429 30934.5461 95.1007 150.3744
ENERGY: 1200000 1.6411 8.2032 2.5169 0.0000 -10702.9620 1499.3837 0.0000 0.0000 1732.6634 -7458.5538 293.8217 -9191.2171 -7521.2366 298.8660 476.2883 555.8440 30614.8089 153.0912 206.5337
ENERGY: 1500000 0.6476 5.7428 2.7699 0.0000 -10716.6676 1429.2050 0.0000 0.0000 1779.3440 -7498.9583 301.7377 -9278.3023 -7518.9726 298.7825 -240.5165 -182.3657 30539.5002 64.0219 115.6150
TCL: Running FEP window  15: Lambda1 0.29999999999999966 Lambda2 0.24999999999999967 [dLambda -0.04999999999999999]
TCL: Setting parameter firsttimestep to 0
TCL: Setting parameter alchLambda to 0.29999999999999966
Info: NONBONDED TABLE R-SQUARED SPACING: 0.0625
Info: NONBONDED TABLE SIZE: 705 POINTS
TCL: Setting parameter alchLambda2 to 0.24999999999999967
Info: NONBONDED TABLE R-SQUARED SPACING: 0.0625
Info: NONBONDED TABLE SIZE: 705 POINTS
TCL: Running for 1500000 steps
ETITLE: TS BOND ANGLE DIHED IMPRP ELECT VDW BOUNDARY MISC KINETIC TOTAL TEMP POTENTIAL TOTALAVG TEMPAVG PRESSURE GPRESSURE VOLUME PRESSAVG GPRESSAVG
ENERGY: 0 0.6476 5.7428 2.7699 0.0000 -10716.6680 1429.7129 0.0000 0.0000 1778.4382 -7499.3566 301.5841 -9277.7948 -7499.3566 301.5841 -268.8652 -182.0083 30539.5002 -268.8652 -182.0083
ENERGY: 300000 1.6741 6.1268 3.3317 0.0000 -10774.0250 1423.9336 0.0000 0.0000 1749.9556 -7589.0033 296.7541 -9338.9589 -7536.5720 297.2393 -569.9039 -540.8215 30613.5518 -221.7923 -143.0863
ENERGY: 600000 3.4297 3.9069 1.6927 0.0000 -10837.4174 1535.0818 0.0000 0.0000 1825.7742 -7467.5321 309.6112 -9293.3063 -7536.6576 299.4208 785.6069 811.8412 30240.1367 -32.2960 31.6924
ENERGY: 900000 0.1920 2.2529 2.9566 0.0000 -10744.5264 1471.7235 0.0000 0.0000 1758.0982 -7509.3032 298.1349 -9267.4014 -7537.9856 299.6067 270.6273 317.5266 30460.0665 41.8927 98.3701
ENERGY: 1200000 1.2979 4.6392 2.2443 0.0000 -10822.9968 1511.6538 0.0000 0.0000 1827.5129 -7475.6487 309.9061 -9303.1615 -7522.6891 301.1746 767.5238 826.2990 30197.8311 36.0976 99.6595
ENERGY: 1500000 1.2798 3.9828 2.0089 0.0000 -10881.9387 1514.7551 0.0000 0.0000 1772.0479 -7587.8641 300.5005 -9359.9121 -7530.9175 300.2587 301.7328 417.5498 30288.5100 1.9673 63.2825
TCL: Running FEP window  16: Lambda1 0.24999999999999967 Lambda2 0.19999999999999968 [dLambda -0.04999999999999999]
TCL: Setting parameter firsttimestep to 0
TCL: Setting parameter alchLambda to 0.24999999999999967
Info: NONBONDED TABLE R-SQUARED SPACING: 0.0625
Info: NONBONDED TABLE SIZE: 705 POINTS
TCL: Setting parameter alchLambda2 to 0.19999999999999968
Info: NONBONDED TABLE R-SQUARED SPACING: 0.0625
Info: NONBONDED TABLE SIZE: 705 POINTS
TCL: Running for 1500000 steps
ETITLE: TS BOND ANGLE DIHED IMPRP ELECT VDW BOUNDARY MISC KINETIC TOTAL TEMP POTENTIAL TOTALAVG TEMPAVG PRESSURE GPRESSURE VOLUME PRESSAVG GPRESSAVG
ENERGY: 0 1.2798 3.9828 2.0089 0.0000 -10881.9390 1515.0830 0.0000 0.0000 1771.1699 -7588.4145 300.3515 -9359.5844 -7588.4145 300.3515 323.5533 417.4393 30288.5100 323.5533 417.4393
ENERGY: 300000 2.6159 4.8647 3.3951 0.0000 -10803.7148 1473.7387 0.0000 0.0000 1750.9259 -7568.1746 296.9186 -9319.1005 -7572.3684 296.7468 310.6428 351.4828 30106.0300 -144.8492 -69.5483
ENERGY: 600000 0.4547 3.9823 1.9851 0.0000 -10753.6157 1460.6998 0.0000 0.0000 1756.2515 -7530.2423 297.8217 -9286.4938 -7549.7912 296.5080 -12.2680 59.4302 30706.0486 -84.5298 -17.8204
ENERGY: 900000 0.8595 5.7963 1.6049 0.0000 -10860.2308 1497.2128 0.0000 0.0000 1803.9610 -7550.7962 305.9122 -9354.7573 -7542.4275 298.2306 77.2040 111.1532 30552.9715 -5.0252 44.0244
ENERGY: 1200000 2.5880 3.1154 1.1868 0.0000 -10860.4820 1526.2993 0.0000 0.0000 1732.2914 -7595.0010 293.7586 -9327.2924 -7556.7557 296.8187 295.1468 424.5257 30489.2273 58.8948 115.4579
ENERGY: 1500000 0.5854 8.1403 1.4941 0.0000 -10716.1221 1496.3663 0.0000 0.0000 1777.4675 -7432.0685 301.4195 -9209.5361 -7553.2086 297.9726 488.4014 569.0180 30661.4325 87.1245 151.5399
TCL: Running FEP window  17: Lambda1 0.19999999999999968 Lambda2 0.1499999999999997 [dLambda -0.04999999999999999]
TCL: Setting parameter firsttimestep to 0
TCL: Setting parameter alchLambda to 0.19999999999999968
Info: NONBONDED TABLE R-SQUARED SPACING: 0.0625
Info: NONBONDED TABLE SIZE: 705 POINTS
TCL: Setting parameter alchLambda2 to 0.1499999999999997
Info: NONBONDED TABLE R-SQUARED SPACING: 0.0625
Info: NONBONDED TABLE SIZE: 705 POINTS
TCL: Running for 1500000 steps
ETITLE: TS BOND ANGLE DIHED IMPRP ELECT VDW BOUNDARY MISC KINETIC TOTAL TEMP POTENTIAL TOTALAVG TEMPAVG PRESSURE GPRESSURE VOLUME PRESSAVG GPRESSAVG
ENERGY: 0 0.5854 8.1403 1.4941 0.0000 -10716.1229 1496.5951 0.0000 0.0000 1776.5816 -7432.7264 301.2693 -9209.3081 -7432.7264 301.2693 484.8188 568.1456 30661.4325 484.8188 568.1456
ENERGY: 300000 1.5481 6.7059 2.0603 0.0000 -10676.0350 1386.6759 0.0000 0.0000 1784.3984 -7494.6463 302.5948 -9279.0447 -7481.5995 301.5593 -296.9857 -220.1618 30106.3356 -102.1877 -20.7939
ENERGY: 600000 0.4278 4.6798 2.4229 0.0000 -10645.1237 1428.4333 0.0000 0.0000 1741.0207 -7468.1390 295.2389 -9209.1598 -7507.3942 298.2705 34.1300 79.6870 30502.7959 -115.2424 -46.3372
ENERGY: 900000 1.5889 3.3035 2.2272 0.0000 -10753.1620 1480.5609 0.0000 0.0000 1785.9516 -7479.5300 302.8582 -9265.4816 -7501.1341 299.7798 238.9998 309.5923 30576.3863 -151.0996 -84.2707
ENERGY: 1200000 0.8261 7.9128 3.9747 0.0000 -10768.5896 1472.4812 0.0000 0.0000 1771.0127 -7512.3821 300.3249 -9283.3948 -7501.4801 300.5870 262.0260 294.3942 30261.9777 -85.9779 -22.7591
ENERGY: 1500000 0.0780 5.8699 4.0927 0.0000 -10675.0867 1425.7513 0.0000 0.0000 1698.4830 -7540.8118 288.0254 -9239.2948 -7505.2377 299.8478 261.2225 248.9630 29854.4296 -42.8026 13.7496
TCL: Running FEP window  18: Lambda1 0.1499999999999997 Lambda2 0.09999999999999969 [dLambda -0.05 ]
TCL: Setting parameter firsttimestep to 0
TCL: Setting parameter alchLambda to 0.1499999999999997
Info: NONBONDED TABLE R-SQUARED SPACING: 0.0625
Info: NONBONDED TABLE SIZE: 705 POINTS
TCL: Setting parameter alchLambda2 to 0.09999999999999969
Info: NONBONDED TABLE R-SQUARED SPACING: 0.0625
Info: NONBONDED TABLE SIZE: 705 POINTS
TCL: Running for 1500000 steps
ETITLE: TS BOND ANGLE DIHED IMPRP ELECT VDW BOUNDARY MISC KINETIC TOTAL TEMP POTENTIAL TOTALAVG TEMPAVG PRESSURE GPRESSURE VOLUME PRESSAVG GPRESSAVG
ENERGY: 0 0.0780 5.8699 4.0927 0.0000 -10675.0897 1426.1309 0.0000 0.0000 1697.5839 -7541.3343 287.8730 -9238.9182 -7541.3343 287.8730 165.8124 246.8048 29854.4296 165.8124 246.8048
ENERGY: 300000 0.5800 5.1485 3.0492 0.0000 -10760.9905 1494.1982 0.0000 0.0000 1702.9079 -7555.1067 288.7758 -9258.0147 -7520.3207 295.5327 290.2676 341.3492 30694.6079 146.1859 196.4266
ENERGY: 600000 1.0336 7.6766 2.8408 0.0000 -10784.5103 1497.3438 0.0000 0.0000 1751.2578 -7524.3577 296.9749 -9275.6155 -7523.7360 296.9459 407.8792 461.1517 30403.9626 1.0462 53.3299
ENERGY: 900000 1.2491 3.0696 3.6128 0.0000 -10709.5095 1434.1052 0.0000 0.0000 1788.0559 -7479.4169 303.2150 -9267.4727 -7516.8410 298.4251 91.0541 155.2785 30051.4201 57.0693 103.1231
ENERGY: 1200000 2.6478 6.0114 1.2186 0.0000 -10782.8830 1418.0529 0.0000 0.0000 1762.1627 -7592.7896 298.8241 -9354.9523 -7514.9063 299.4846 -399.2595 -368.8523 30602.4011 -5.6184 39.3475
ENERGY: 1500000 1.1409 3.5115 2.8786 0.0000 -10588.3881 1358.6672 0.0000 0.0000 1814.3790 -7407.8110 307.6789 -9222.1900 -7524.1049 299.3470 -732.4624 -676.3498 31205.2855 -55.6796 -8.6187
TCL: Running FEP window  19: Lambda1 0.09999999999999969 Lambda2 0.049999999999999684 [dLambda -0.05 ]
TCL: Setting parameter firsttimestep to 0
TCL: Setting parameter alchLambda to 0.09999999999999969
Info: NONBONDED TABLE R-SQUARED SPACING: 0.0625
Info: NONBONDED TABLE SIZE: 705 POINTS
TCL: Setting parameter alchLambda2 to 0.049999999999999684
Info: NONBONDED TABLE R-SQUARED SPACING: 0.0625
Info: NONBONDED TABLE SIZE: 705 POINTS
TCL: Running for 1500000 steps
ETITLE: TS BOND ANGLE DIHED IMPRP ELECT VDW BOUNDARY MISC KINETIC TOTAL TEMP POTENTIAL TOTALAVG TEMPAVG PRESSURE GPRESSURE VOLUME PRESSAVG GPRESSAVG
ENERGY: 0 1.1409 3.5115 2.8786 0.0000 -10588.3888 1358.8193 0.0000 0.0000 1813.5019 -7408.5366 307.5301 -9222.0385 -7408.5366 307.5301 -756.8154 -678.1231 31205.2855 -756.8154 -678.1231
ENERGY: 300000 1.1895 4.5380 1.6574 0.0000 -10805.8454 1553.8792 0.0000 0.0000 1746.2352 -7498.3461 296.1232 -9244.5813 -7475.6459 302.1202 809.3143 898.6694 30437.3473 68.1805 141.4935
ENERGY: 600000 2.0547 3.6689 1.0680 0.0000 -10811.7283 1539.9620 0.0000 0.0000 1763.9976 -7500.9770 299.1353 -9264.9746 -7501.3844 302.6005 676.1433 840.8395 30255.0233 222.7730 296.0814
ENERGY: 900000 1.0647 3.2759 2.4161 0.0000 -10721.4005 1443.3513 0.0000 0.0000 1749.7015 -7521.5908 296.7110 -9271.2924 -7495.1697 301.5111 152.9971 231.3328 30170.9758 238.1556 312.7522
ENERGY: 1200000 0.2390 4.9497 1.5633 0.0000 -10760.1653 1461.5306 0.0000 0.0000 1774.0729 -7517.8098 300.8438 -9291.8827 -7499.3343 302.0323 -131.5997 -3.7365 30548.8160 91.1390 161.7725
ENERGY: 1500000 0.7151 3.6839 1.6946 0.0000 -10645.0800 1400.0255 0.0000 0.0000 1797.5850 -7441.3759 304.8310 -9238.9609 -7505.4015 301.4402 -63.7742 -33.1345 30477.6177 63.0695 130.6137
TCL: Running FEP window  20: Lambda1 0.049999999999999684 Lambda2 0.0    [dLambda -0.049999999999999684]
TCL: Setting parameter firsttimestep to 0
TCL: Setting parameter alchLambda to 0.049999999999999684
Info: NONBONDED TABLE R-SQUARED SPACING: 0.0625
Info: NONBONDED TABLE SIZE: 705 POINTS
TCL: Setting parameter alchLambda2 to 0.0
Info: NONBONDED TABLE R-SQUARED SPACING: 0.0625
Info: NONBONDED TABLE SIZE: 705 POINTS
TCL: Running for 1500000 steps
ETITLE: TS BOND ANGLE DIHED IMPRP ELECT VDW BOUNDARY MISC KINETIC TOTAL TEMP POTENTIAL TOTALAVG TEMPAVG PRESSURE GPRESSURE VOLUME PRESSAVG GPRESSAVG
ENERGY: 0 0.7151 3.6839 1.6946 0.0000 -10645.0795 1399.6499 0.0000 0.0000 1796.6790 -7442.6570 304.6773 -9239.3360 -7442.6570 304.6773 -126.4947 -36.4826 30477.6177 -126.4947 -36.4826
ENERGY: 300000 1.1436 4.0640 1.4071 0.0000 -10645.6427 1359.7188 0.0000 0.0000 1750.6148 -7528.6945 296.8659 -9279.3093 -7508.5427 298.2155 -955.8656 -860.5731 30890.7648 -356.3849 -302.5319
ENERGY: 600000 0.2657 6.9393 3.5952 0.0000 -10659.0750 1451.2710 0.0000 0.0000 1775.3840 -7421.6198 301.0662 -9197.0038 -7514.4965 297.9484 32.1602 77.3318 31185.0718 -233.8249 -176.7264
ENERGY: 900000 0.1411 7.8713 3.2437 0.0000 -10835.3819 1505.2639 0.0000 0.0000 1784.5885 -7534.2734 302.6271 -9318.8619 -7511.3220 298.8602 290.4139 355.2814 30613.8967 -30.5064 28.8870
ENERGY: 1200000 1.8997 2.1202 2.2740 0.0000 -10774.2179 1455.5852 0.0000 0.0000 1790.5321 -7521.8067 303.6350 -9312.3388 -7503.7029 300.4447 291.4686 352.5091 30085.6301 12.6131 76.4394
ENERGY: 1500000 1.2043 4.2108 2.4491 0.0000 -10677.3596 1394.8872 0.0000 0.0000 1796.0292 -7478.5790 304.5672 -9274.6083 -7516.1181 299.5115 -324.5992 -262.6434 30518.2474 -1.1894 61.9198
TCL: Exiting due to exit command.
