Info: SIMULATION PARAMETERS:
Info: TIMESTEP               2
Info: NUMBER OF STEPS        0
Info: STEPS PER CYCLE        10
Info: PERIODIC CELL BASIS 1  30.8306 0 0
Info: PERIODIC CELL BASIS 2  0 32.0996 0
Info: PERIODIC CELL BASIS 3  0 0 30.7813
Info: PERIODIC CELL CENTER   0 0 0
Info: WRAPPING WATERS AROUND PERIODIC BOUNDARIES ON OUTPUT.
Info: WRAPPING ALL CLUSTERS AROUND PERIODIC BOUNDARIES ON OUTPUT.
Info: FIRST LDB TIMESTEP     50
Info: LAST LDB TIMESTEP     -1
Info: HOM BACKGROUND SCALING 1
Info: PME BACKGROUND SCALING 1
Info: MIN ATOMS PER PATCH    40
Info: EMPTY PATCH LOAD       40 ATOMS
Info: VELOCITY FILE          mobley_6981465_equil.vel
Info: CENTER OF MASS MOVING INITIALLY? NO
Info: DIELECTRIC             1
Info: EXCLUDE                SCALED ONE-FOUR
Info: 1-4 ELECTROSTATICS SCALED BY 0.833333
Info: MODIFIED 1-4 VDW PARAMETERS WILL BE USED
Info: DCD FILENAME           mobley_6981465_prod.dcd
Info: DCD FREQUENCY          100000
Info: DCD FIRST STEP         100000
Info: DCD FILE WILL CONTAIN UNIT CELL DATA
Info: XST FILENAME           mobley_6981465_prod.xst
Info: XST FREQUENCY          100000
Info: NO VELOCITY DCD OUTPUT
Info: NO FORCE DCD OUTPUT
Info: OUTPUT FILENAME        mobley_6981465_prod
Info: BINARY OUTPUT FILES WILL BE USED
Info: RESTART FILENAME       mobley_6981465_prod.restart
Info: RESTART FREQUENCY      100000
Info: BINARY RESTART FILES WILL BE USED
Info: CUTOFF                 9
Info: PAIRLIST DISTANCE      11
Info: PAIRLIST SHRINK RATE   0.01
Info: PAIRLIST GROW RATE     0.01
Info: PAIRLIST TRIGGER       0.3
Info: PAIRLISTS PER CYCLE    2
Info: PAIRLISTS ENABLED
Info: MARGIN                 2
Info: HYDROGEN GROUP CUTOFF  2.5
Info: PATCH DIMENSION        15.5
Info: ENERGY OUTPUT STEPS    100000
Info: ENERGY EVALUATION STEPS    100000
Info: OUTPUT ENERGY PRECISION 4
Info: CROSSTERM ENERGY INCLUDED IN DIHEDRAL
Info: TIMING OUTPUT STEPS    1000000
Info: PRESSURE OUTPUT STEPS  100000
Info: ALCHEMICAL FEP ON
Info: FEP CURRENT LAMBDA VALUE     1
Info: FEP COMPARISON LAMBDA VALUE  0.95
Info: FEP INTRA-ALCHEMICAL NON-BONDED INTERACTIONS WILL BE RETAINED
Info: FEP INTRA-ALCHEMICAL BONDED INTERACTIONS WILL BE RETAINED
Info: FEP VDW SHIFTING COEFFICIENT 5
Info: FEP ELEC. ACTIVE FOR ANNIHILATED PARTICLES BETWEEN LAMBDA = 0 AND LAMBDA = 0.5
Info: FEP ELEC. ACTIVE FOR EXNIHILATED PARTICLES BETWEEN LAMBDA = 0.5 AND LAMBDA = 1
Info: FEP VDW ACTIVE FOR ANNIHILATED PARTICLES BETWEEN LAMBDA = 0 AND LAMBDA = 1
Info: FEP VDW ACTIVE FOR EXNIHILATED PARTICLES BETWEEN LAMBDA = 0 AND LAMBDA = 1
Info: FEP BOND ACTIVE FOR ANNIHILATED PARTICLES BETWEEN LAMBDA = 1 AND LAMBDA = 1
Info: FEP BOND ACTIVE FOR EXNIHILATED PARTICLES BETWEEN LAMBDA = 0 AND LAMBDA = 0
Info: LANGEVIN DYNAMICS ACTIVE
Info: LANGEVIN TEMPERATURE   300
Info: LANGEVIN USING BBK INTEGRATOR
Info: LANGEVIN DAMPING COEFFICIENT IS 1 INVERSE PS
Info: LANGEVIN DYNAMICS APPLIED TO HYDROGENS
Info: LANGEVIN PISTON PRESSURE CONTROL ACTIVE
Info:        TARGET PRESSURE IS 1.01325 BAR
Info:     OSCILLATION PERIOD IS 50 FS
Info:             DECAY TIME IS 25 FS
Info:     PISTON TEMPERATURE IS 300 K
Info:       PRESSURE CONTROL IS GROUP-BASED
Info:    INITIAL STRAIN RATE IS -0.000174471 -0.000174471 -0.000174471
Info:       CELL FLUCTUATION IS ISOTROPIC
Info: PARTICLE MESH EWALD (PME) ACTIVE
Info: PME TOLERANCE               1e-06
Info: PME EWALD COEFFICIENT       0.348832
Info: PME INTERPOLATION ORDER     4
Info: PME GRID DIMENSIONS         32 36 32
Info: PME MAXIMUM GRID SPACING    1
Info: PME CALCULATION WILL BE PERFORMED ON GPU
Info: FULL ELECTROSTATIC EVALUATION FREQUENCY      2
Info: USING VERLET I (r-RESPA) MTS SCHEME.
Info: C1 SPLITTING OF LONG RANGE ELECTROSTATICS
Info: PLACING ATOMS IN PATCHES BY HYDROGEN GROUPS
Info: RIGID BONDS TO HYDROGEN : ALL
Info:         ERROR TOLERANCE : 1e-08
Info:          MAX ITERATIONS : 100
Info: RIGID WATER USING SETTLE ALGORITHM
Info: RANDOM NUMBER SEED     1743792740
Info: USE HYDROGEN BONDS?    NO
Info: Using AMBER format force field!
Info: AMBER PARM FILE        mobley_6981465.prmtop
Info: COORDINATE PDB         mobley_6981465.pdb
Info: Exclusions will be read from PARM file!
Info: SCNB (VDW SCALING)     2
Info: USING ARITHMETIC MEAN TO COMBINE L-J SIGMA PARAMETERS
Info: BINARY COORDINATES     mobley_6981465_equil.coor
Info: SUMMARY OF PARAMETERS:
Info: 9 BONDS
Info: 11 ANGLES
Info:   11 HARMONIC
Info:   0 COSINE-BASED
Info: 16 DIHEDRAL
Info: 0 IMPROPER
Info: 0 CROSSTERM
Info: 0 VDW
Info: 36 VDW_PAIRS
Info: 0 NBTHOLE_PAIRS
Info: To read alchdata from file: mobley_6981465.pdb
Info: To read alchflag data from column: 5
Info: STRUCTURE SUMMARY:
Info: 2948 ATOMS
Info: 2947 BONDS
Info: 28 ANGLES
Info: 47 DIHEDRALS
Info: 0 IMPROPERS
Info: 0 CROSSTERMS
Info: 3004 EXCLUSIONS
Info: 2941 RIGID BONDS
Info: ALCH: 0 ATOMS TO DISAPPEAR IN FINAL STATE
Info: ALCH: 17 ATOMS TO APPEAR IN FINAL STATE
Info: 5903 DEGREES OF FREEDOM
Info: 984 HYDROGEN GROUPS
Info: 4 ATOMS IN LARGEST HYDROGEN GROUP
Info: 984 MIGRATION GROUPS
Info: 4 ATOMS IN LARGEST MIGRATION GROUP
Info: TOTAL MASS = 17703.8 amu
Info: TOTAL CHARGE = -4.47035e-08 e
Info: MASS DENSITY = 0.965066 g/cm^3
Info: ATOM DENSITY = 0.0967742 atoms/A^3
Info: ADDED 0 IMPLICIT EXCLUSIONS
Info: NONBONDED TABLE R-SQUARED SPACING: 0.0625
Info: NONBONDED TABLE SIZE: 705 POINTS
Info: REMOVING COM VELOCITY 0.0231661 0.154249 0.00514904
Info: Use 3D box decompostion in PME FFT.
Info: Updated CUDA force table with 4096 elements.
Info: Updated CUDA LJ table with 8 x 8 elements.
Info: Found 20 unique exclusion lists needing 48 bytes
TCL: Running for 1500000 steps
ETITLE: TS BOND ANGLE DIHED IMPRP ELECT VDW BOUNDARY MISC KINETIC TOTAL TEMP POTENTIAL TOTALAVG TEMPAVG PRESSURE GPRESSURE VOLUME PRESSAVG GPRESSAVG
ENERGY: 0 1.7471 4.6117 7.6879 0.0000 -10697.8019 1435.1844 0.0000 0.0000 1823.4868 -7425.0840 310.8996 -9248.5708 -7425.0840 310.8996 -82.7505 5.1720 30462.6678 -82.7505 5.1720
ENERGY: 300000 3.4167 6.7050 7.6850 0.0000 -10621.0548 1355.5382 0.0000 0.0000 1734.8566 -7512.8535 295.7884 -9247.7101 -7533.0055 299.2864 -889.1746 -783.5336 30445.4615 -322.2749 -236.1038
ENERGY: 600000 1.5376 7.8273 7.7857 0.0000 -10673.8201 1409.5085 0.0000 0.0000 1726.8724 -7520.2887 294.4271 -9247.1611 -7531.6461 299.7739 -306.6847 -223.6484 30423.2458 -61.1385 20.0354
ENERGY: 900000 2.1140 7.3495 7.3012 0.0000 -10725.7928 1465.3516 0.0000 0.0000 1716.6316 -7527.0448 292.6811 -9243.6764 -7546.7581 298.4162 536.2874 616.4913 29954.5370 -4.5002 71.7646
ENERGY: 1200000 3.1506 7.7184 8.6589 0.0000 -10712.3793 1428.8030 0.0000 0.0000 1755.6225 -7508.4258 299.3290 -9264.0484 -7537.4725 298.6879 96.5834 74.1250 30221.7724 0.3286 72.4756
ENERGY: 1500000 0.3674 4.6853 11.1199 0.0000 -10757.3101 1481.9563 0.0000 0.0000 1758.7609 -7500.4203 299.8640 -9259.1812 -7525.0142 298.5340 479.0334 515.9846 30225.4944 40.6088 105.6066
TCL: Running FEP window   2: Lambda1 0.95   Lambda2 0.8999999999999999 [dLambda -0.050000000000000044]
TCL: Setting parameter firsttimestep to 0
TCL: Setting parameter alchLambda to 0.95
Info: NONBONDED TABLE R-SQUARED SPACING: 0.0625
Info: NONBONDED TABLE SIZE: 705 POINTS
TCL: Setting parameter alchLambda2 to 0.8999999999999999
Info: NONBONDED TABLE R-SQUARED SPACING: 0.0625
Info: NONBONDED TABLE SIZE: 705 POINTS
TCL: Running for 1500000 steps
ETITLE: TS BOND ANGLE DIHED IMPRP ELECT VDW BOUNDARY MISC KINETIC TOTAL TEMP POTENTIAL TOTALAVG TEMPAVG PRESSURE GPRESSURE VOLUME PRESSAVG GPRESSAVG
ENERGY: 0 0.3674 4.6853 11.1199 0.0000 -10754.9667 1480.3115 0.0000 0.0000 1757.8844 -7500.5982 299.7146 -9258.4826 -7500.5982 299.7146 408.0771 486.9732 30225.4944 408.0771 486.9732
ENERGY: 300000 1.4761 7.2043 8.3731 0.0000 -10912.3220 1552.7077 0.0000 0.0000 1800.6570 -7541.9039 307.0072 -9342.5609 -7510.9923 300.0408 481.0703 507.6807 30550.2852 -24.7475 43.8165
ENERGY: 600000 2.6347 6.5101 7.3091 0.0000 -10749.8689 1421.5946 0.0000 0.0000 1797.2125 -7514.6079 306.4200 -9311.8205 -7501.6165 301.7030 -55.3122 -36.6703 29937.9742 42.7374 86.4862
ENERGY: 900000 3.1326 5.4426 7.8724 0.0000 -10705.5134 1410.0687 0.0000 0.0000 1808.9547 -7470.0423 308.4220 -9278.9970 -7504.6877 300.8307 -470.6782 -387.2181 30493.3463 -227.6867 -176.6052
ENERGY: 1200000 4.1768 8.5773 7.9853 0.0000 -10813.4159 1479.1779 0.0000 0.0000 1712.1109 -7601.3877 291.9103 -9313.4986 -7509.3359 300.0381 352.5647 390.7002 29977.6397 -147.8367 -92.0736
ENERGY: 1500000 1.2426 3.8821 8.7275 0.0000 -10611.2728 1351.2872 0.0000 0.0000 1771.1300 -7475.0034 301.9729 -9246.1333 -7507.8815 299.6884 -719.0919 -643.5668 30656.4214 -248.2083 -184.7856
TCL: Running FEP window   3: Lambda1 0.8999999999999999 Lambda2 0.8499999999999999 [dLambda -0.050000000000000044]
TCL: Setting parameter firsttimestep to 0
TCL: Setting parameter alchLambda to 0.8999999999999999
Info: NONBONDED TABLE R-SQUARED SPACING: 0.0625
Info: NONBONDED TABLE SIZE: 705 POINTS
TCL: Setting parameter alchLambda2 to 0.8499999999999999
Info: NONBONDED TABLE R-SQUARED SPACING: 0.0625
Info: NONBONDED TABLE SIZE: 705 POINTS
TCL: Running for 1500000 steps
ETITLE: TS BOND ANGLE DIHED IMPRP ELECT VDW BOUNDARY MISC KINETIC TOTAL TEMP POTENTIAL TOTALAVG TEMPAVG PRESSURE GPRESSURE VOLUME PRESSAVG GPRESSAVG
ENERGY: 0 1.2426 3.8821 8.7275 0.0000 -10610.2078 1351.2953 0.0000 0.0000 1770.2691 -7474.7913 301.8262 -9245.0604 -7474.7913 301.8262 -732.2366 -652.4758 30656.4214 -732.2366 -652.4758
ENERGY: 300000 0.4660 4.1596 8.3951 0.0000 -10628.7476 1295.5961 0.0000 0.0000 1730.7140 -7589.4167 295.0821 -9320.1308 -7507.5858 299.4173 -1212.8266 -1107.9568 30273.2617 -619.5233 -554.7775
ENERGY: 600000 1.6298 6.2005 7.8805 0.0000 -10802.1222 1500.2537 0.0000 0.0000 1788.4860 -7497.6716 304.9321 -9286.1576 -7517.0952 300.2481 421.3522 499.3196 30211.5974 -393.0698 -315.4702
ENERGY: 900000 2.5353 8.8023 9.3693 0.0000 -10610.5134 1343.2422 0.0000 0.0000 1796.8585 -7449.7058 306.3596 -9246.5643 -7512.8973 299.9484 -608.2769 -496.6152 30457.9526 -338.8376 -255.9681
ENERGY: 1200000 1.3816 7.2178 7.1697 0.0000 -10628.6121 1377.4115 0.0000 0.0000 1733.7774 -7501.6540 295.6044 -9235.4314 -7513.1668 299.7279 -196.2947 -110.5981 30193.2976 -281.1788 -203.9280
ENERGY: 1500000 2.3529 4.6332 9.7660 0.0000 -10578.0923 1384.7756 0.0000 0.0000 1723.6596 -7452.9049 293.8794 -9176.5645 -7502.8849 299.5675 -112.1485 -50.0599 30530.8213 -228.7096 -152.8851
TCL: Running FEP window   4: Lambda1 0.8499999999999999 Lambda2 0.7999999999999998 [dLambda -0.050000000000000044]
TCL: Setting parameter firsttimestep to 0
TCL: Setting parameter alchLambda to 0.8499999999999999
Info: NONBONDED TABLE R-SQUARED SPACING: 0.0625
Info: NONBONDED TABLE SIZE: 705 POINTS
TCL: Setting parameter alchLambda2 to 0.7999999999999998
Info: NONBONDED TABLE R-SQUARED SPACING: 0.0625
Info: NONBONDED TABLE SIZE: 705 POINTS
TCL: Running for 1500000 steps
ETITLE: TS BOND ANGLE DIHED IMPRP ELECT VDW BOUNDARY MISC KINETIC TOTAL TEMP POTENTIAL TOTALAVG TEMPAVG PRESSURE GPRESSURE VOLUME PRESSAVG GPRESSAVG
ENERGY: 0 2.3530 4.6332 9.7660 0.0000 -10577.5826 1385.3127 0.0000 0.0000 1722.7690 -7452.7486 293.7275 -9175.5176 -7452.7486 293.7275 -127.9391 -48.7083 30530.8213 -127.9391 -48.7083
ENERGY: 300000 1.1562 6.0366 8.7391 0.0000 -10771.5310 1458.5484 0.0000 0.0000 1743.4411 -7553.6097 297.2521 -9297.0508 -7538.8559 294.9706 236.7815 185.2709 30217.4510 250.8449 280.5555
ENERGY: 600000 2.1911 6.5232 8.6582 0.0000 -10762.2538 1470.4995 0.0000 0.0000 1815.2822 -7459.0995 309.5008 -9274.3817 -7503.7106 300.9013 -24.8269 14.8062 30772.0605 186.6265 234.6193
ENERGY: 900000 0.6959 8.3523 7.1798 0.0000 -10818.9169 1421.7891 0.0000 0.0000 1742.9199 -7637.9800 297.1632 -9380.8999 -7514.3038 301.1166 -436.6374 -385.5888 30195.6738 211.4905 259.7324
ENERGY: 1200000 1.6282 6.8974 7.7464 0.0000 -10630.9014 1371.8279 0.0000 0.0000 1721.8240 -7520.9775 293.5664 -9242.8015 -7511.5675 301.0489 -350.2905 -292.5208 30204.7614 166.1509 216.2351
ENERGY: 1500000 0.5276 9.4496 8.6000 0.0000 -10782.1386 1522.4745 0.0000 0.0000 1712.8294 -7528.2575 292.0328 -9241.0869 -7506.9652 300.3162 854.7875 936.5595 29891.9136 232.3199 282.3148
TCL: Running FEP window   5: Lambda1 0.7999999999999998 Lambda2 0.7499999999999998 [dLambda -0.050000000000000044]
TCL: Setting parameter firsttimestep to 0
TCL: Setting parameter alchLambda to 0.7999999999999998
Info: NONBONDED TABLE R-SQUARED SPACING: 0.0625
Info: NONBONDED TABLE SIZE: 705 POINTS
TCL: Setting parameter alchLambda2 to 0.7499999999999998
Info: NONBONDED TABLE R-SQUARED SPACING: 0.0625
Info: NONBONDED TABLE SIZE: 705 POINTS
TCL: Running for 1500000 steps
ETITLE: TS BOND ANGLE DIHED IMPRP ELECT VDW BOUNDARY MISC KINETIC TOTAL TEMP POTENTIAL TOTALAVG TEMPAVG PRESSURE GPRESSURE VOLUME PRESSAVG GPRESSAVG
ENERGY: 0 0.5276 9.4496 8.6000 0.0000 -10780.3599 1521.7084 0.0000 0.0000 1711.9519 -7528.1224 291.8832 -9240.0743 -7528.1224 291.8832 826.7727 916.8729 29891.9136 826.7727 916.8729
ENERGY: 300000 0.3505 6.7724 7.1926 0.0000 -10652.3363 1456.8333 0.0000 0.0000 1796.5799 -7384.6075 306.3121 -9181.1874 -7478.3817 299.9800 322.7266 359.4486 30534.1069 311.8747 371.7311
ENERGY: 600000 1.5008 11.0251 7.8604 0.0000 -10708.2669 1386.1380 0.0000 0.0000 1744.9757 -7556.7668 297.5137 -9301.7425 -7503.6921 300.3778 -393.4276 -321.5625 30008.0718 39.1632 113.4668
ENERGY: 900000 1.2388 7.7133 8.8194 0.0000 -10633.8696 1364.8203 0.0000 0.0000 1769.9623 -7481.3154 301.7739 -9251.2777 -7502.9706 299.3265 -621.5855 -548.3290 30440.7646 -128.8272 -56.5027
ENERGY: 1200000 1.0913 8.4151 7.6960 0.0000 -10802.9997 1454.4774 0.0000 0.0000 1810.5437 -7520.7762 308.6929 -9331.3198 -7491.7841 300.2542 307.1959 407.7759 29720.4521 -66.3184 0.2477
ENERGY: 1500000 1.5138 6.3586 8.3502 0.0000 -10501.3203 1307.2731 0.0000 0.0000 1812.4030 -7365.4215 309.0099 -9177.8246 -7478.3244 300.7584 -887.2548 -792.9184 30682.5382 -194.3821 -129.4859
TCL: Running FEP window   6: Lambda1 0.7499999999999998 Lambda2 0.6999999999999997 [dLambda -0.050000000000000044]
TCL: Setting parameter firsttimestep to 0
TCL: Setting parameter alchLambda to 0.7499999999999998
Info: NONBONDED TABLE R-SQUARED SPACING: 0.0625
Info: NONBONDED TABLE SIZE: 705 POINTS
TCL: Setting parameter alchLambda2 to 0.6999999999999997
Info: NONBONDED TABLE R-SQUARED SPACING: 0.0625
Info: NONBONDED TABLE SIZE: 705 POINTS
TCL: Running for 1500000 steps
ETITLE: TS BOND ANGLE DIHED IMPRP ELECT VDW BOUNDARY MISC KINETIC TOTAL TEMP POTENTIAL TOTALAVG TEMPAVG PRESSURE GPRESSURE VOLUME PRESSAVG GPRESSAVG
ENERGY: 0 1.5138 6.3586 8.3502 0.0000 -10500.3647 1306.8632 0.0000 0.0000 1811.5443 -7365.7345 308.8635 -9177.2788 -7365.7345 308.8635 -896.3005 -807.9077 30682.5382 -896.3005 -807.9077
ENERGY: 300000 1.0169 10.7192 7.6479 0.0000 -10598.2323 1356.2977 0.0000 0.0000 1779.0072 -7443.5434 303.3160 -9222.5506 -7434.1623 304.4550 -518.2683 -449.7259 30533.6048 -355.7025 -252.2402
ENERGY: 600000 1.6244 4.9729 6.5737 0.0000 -10572.6731 1332.6192 0.0000 0.0000 1744.2951 -7482.5877 297.3977 -9226.8828 -7457.3393 302.8542 -770.5134 -725.4128 30834.8881 -341.7391 -256.7287
ENERGY: 900000 3.5200 5.4065 6.9320 0.0000 -10852.1396 1577.0691 0.0000 0.0000 1793.9771 -7465.2349 305.8683 -9259.2120 -7470.2590 302.7950 1321.4085 1389.6814 30139.5557 -182.6051 -104.8547
ENERGY: 1200000 2.1592 9.6338 7.2599 0.0000 -10758.3412 1434.5440 0.0000 0.0000 1717.3274 -7587.4169 292.7998 -9304.7443 -7478.6508 301.5413 -279.5354 -296.6417 30988.9819 -162.7783 -90.9967
ENERGY: 1500000 3.1859 5.4211 7.4366 0.0000 -10777.1285 1387.7100 0.0000 0.0000 1807.3469 -7566.0280 308.1478 -9373.3749 -7490.1840 301.8928 -688.6141 -641.2181 30183.8332 -164.2435 -87.9262
TCL: Running FEP window   7: Lambda1 0.6999999999999997 Lambda2 0.6499999999999997 [dLambda -0.050000000000000044]
TCL: Setting parameter firsttimestep to 0
TCL: Setting parameter alchLambda to 0.6999999999999997
Info: NONBONDED TABLE R-SQUARED SPACING: 0.0625
Info: NONBONDED TABLE SIZE: 705 POINTS
TCL: Setting parameter alchLambda2 to 0.6499999999999997
Info: NONBONDED TABLE R-SQUARED SPACING: 0.0625
Info: NONBONDED TABLE SIZE: 705 POINTS
TCL: Running for 1500000 steps
ETITLE: TS BOND ANGLE DIHED IMPRP ELECT VDW BOUNDARY MISC KINETIC TOTAL TEMP POTENTIAL TOTALAVG TEMPAVG PRESSURE GPRESSURE VOLUME PRESSAVG GPRESSAVG
ENERGY: 0 3.1859 5.4211 7.4366 0.0000 -10776.4745 1387.7622 0.0000 0.0000 1806.4356 -7566.2331 307.9925 -9372.6687 -7566.2331 307.9925 -725.1065 -648.8447 30183.8332 -725.1065 -648.8447
ENERGY: 300000 1.2362 7.4886 8.0792 0.0000 -10723.3742 1442.2547 0.0000 0.0000 1741.9259 -7522.3895 296.9937 -9264.3155 -7489.5286 302.6314 70.1867 113.3374 30125.3300 -496.0507 -408.3403
ENERGY: 600000 1.1393 10.7292 7.5651 0.0000 -10607.2052 1402.7546 0.0000 0.0000 1762.0121 -7423.0049 300.4184 -9185.0171 -7472.5064 301.3929 -89.2145 -12.1651 30549.0934 -328.6507 -263.1800
ENERGY: 900000 2.0862 6.4932 7.9478 0.0000 -10802.2590 1457.3327 0.0000 0.0000 1722.6049 -7605.7942 293.6996 -9328.3992 -7484.2235 300.5989 106.6307 167.9945 29892.3690 -379.0478 -309.7477
ENERGY: 1200000 2.7850 8.0451 6.9776 0.0000 -10758.9830 1514.8830 0.0000 0.0000 1783.1501 -7443.1421 304.0223 -9226.2922 -7481.5538 300.8572 858.8360 960.1360 29957.0579 -320.4451 -241.1747
ENERGY: 1500000 2.9350 5.8718 8.2068 0.0000 -10772.4487 1414.0592 0.0000 0.0000 1754.3329 -7587.0429 299.1091 -9341.3758 -7487.8510 301.1665 -504.2485 -374.2476 30175.9981 -329.8291 -249.5777
TCL: Running FEP window   8: Lambda1 0.6499999999999997 Lambda2 0.5999999999999996 [dLambda -0.050000000000000044]
TCL: Setting parameter firsttimestep to 0
TCL: Setting parameter alchLambda to 0.6499999999999997
Info: NONBONDED TABLE R-SQUARED SPACING: 0.0625
Info: NONBONDED TABLE SIZE: 705 POINTS
TCL: Setting parameter alchLambda2 to 0.5999999999999996
Info: NONBONDED TABLE R-SQUARED SPACING: 0.0625
Info: NONBONDED TABLE SIZE: 705 POINTS
TCL: Running for 1500000 steps
ETITLE: TS BOND ANGLE DIHED IMPRP ELECT VDW BOUNDARY MISC KINETIC TOTAL TEMP POTENTIAL TOTALAVG TEMPAVG PRESSURE GPRESSURE VOLUME PRESSAVG GPRESSAVG
ENERGY: 0 2.9350 5.8718 8.2068 0.0000 -10771.2675 1413.5838 0.0000 0.0000 1753.4324 -7587.2378 298.9556 -9340.6701 -7587.2378 298.9556 -478.3859 -383.5411 30175.9981 -478.3859 -383.5411
ENERGY: 300000 0.3735 6.5354 9.0087 0.0000 -10741.6500 1446.5238 0.0000 0.0000 1744.7515 -7534.4571 297.4755 -9279.2086 -7503.0824 302.2455 62.7607 129.1985 30181.2547 -182.3605 -109.6988
ENERGY: 600000 2.6669 6.8955 6.2686 0.0000 -10691.3862 1402.1537 0.0000 0.0000 1818.6017 -7454.7998 310.0667 -9273.4015 -7486.2456 301.9640 -179.1209 -115.0148 30285.4785 -138.5032 -53.5110
ENERGY: 900000 0.8900 6.5888 7.3797 0.0000 -10714.8069 1438.6550 0.0000 0.0000 1747.2812 -7514.0121 297.9068 -9261.2933 -7484.2378 301.9146 -57.1821 -19.0779 30456.7181 -67.4316 2.7135
ENERGY: 1200000 1.1766 6.2109 9.4302 0.0000 -10754.7713 1446.8569 0.0000 0.0000 1792.8201 -7498.2768 305.6710 -9291.0968 -7500.8497 301.3995 262.6268 309.3803 29864.7583 -62.4937 9.3122
ENERGY: 1500000 1.4851 5.4605 10.9702 0.0000 -10649.5861 1457.6856 0.0000 0.0000 1723.9493 -7450.0355 293.9288 -9173.9848 -7505.6398 300.0443 184.2694 265.8553 30637.5956 -37.9152 38.9819
TCL: Running FEP window   9: Lambda1 0.5999999999999996 Lambda2 0.5499999999999996 [dLambda -0.050000000000000044]
TCL: Setting parameter firsttimestep to 0
TCL: Setting parameter alchLambda to 0.5999999999999996
Info: NONBONDED TABLE R-SQUARED SPACING: 0.0625
Info: NONBONDED TABLE SIZE: 705 POINTS
TCL: Setting parameter alchLambda2 to 0.5499999999999996
Info: NONBONDED TABLE R-SQUARED SPACING: 0.0625
Info: NONBONDED TABLE SIZE: 705 POINTS
TCL: Running for 1500000 steps
ETITLE: TS BOND ANGLE DIHED IMPRP ELECT VDW BOUNDARY MISC KINETIC TOTAL TEMP POTENTIAL TOTALAVG TEMPAVG PRESSURE GPRESSURE VOLUME PRESSAVG GPRESSAVG
ENERGY: 0 1.4851 5.4605 10.9702 0.0000 -10649.6150 1457.7280 0.0000 0.0000 1723.0847 -7450.8865 293.7814 -9173.9712 -7450.8865 293.7814 176.0913 257.3136 30637.5956 176.0913 257.3136
ENERGY: 300000 2.5055 7.1103 7.5727 0.0000 -10824.2985 1487.8992 0.0000 0.0000 1784.5497 -7534.6612 304.2610 -9319.2108 -7474.9248 300.7353 225.0280 228.1253 30325.7244 201.2695 214.9998
ENERGY: 600000 0.4772 7.1211 7.9796 0.0000 -10661.1642 1384.0733 0.0000 0.0000 1773.7283 -7487.7847 302.4160 -9261.5130 -7475.8061 302.0149 -212.6524 -233.6087 30358.7021 43.0035 70.6158
ENERGY: 900000 2.3160 5.6218 7.4985 0.0000 -10576.6157 1344.8798 0.0000 0.0000 1769.0163 -7447.2834 301.6126 -9216.2998 -7471.5409 301.2704 -699.8786 -615.3352 30517.1042 -141.1227 -117.2428
ENERGY: 1200000 0.5417 11.4992 8.4868 0.0000 -10656.7902 1446.5574 0.0000 0.0000 1700.0157 -7489.6894 289.8481 -9189.7051 -7478.1458 299.8798 386.4633 462.3034 30296.0932 -94.1051 -56.1671
ENERGY: 1500000 1.1683 6.4753 7.6124 0.0000 -10774.0699 1480.9592 0.0000 0.0000 1773.1712 -7504.6836 302.3210 -9277.8548 -7485.4017 299.8686 492.5896 594.1827 29963.7573 -46.7743 2.2238
TCL: Running FEP window  10: Lambda1 0.5499999999999996 Lambda2 0.4999999999999996 [dLambda -0.04999999999999999]
TCL: Setting parameter firsttimestep to 0
TCL: Setting parameter alchLambda to 0.5499999999999996
Info: NONBONDED TABLE R-SQUARED SPACING: 0.0625
Info: NONBONDED TABLE SIZE: 705 POINTS
TCL: Setting parameter alchLambda2 to 0.4999999999999996
Info: NONBONDED TABLE R-SQUARED SPACING: 0.0625
Info: NONBONDED TABLE SIZE: 705 POINTS
TCL: Running for 1500000 steps
ETITLE: TS BOND ANGLE DIHED IMPRP ELECT VDW BOUNDARY MISC KINETIC TOTAL TEMP POTENTIAL TOTALAVG TEMPAVG PRESSURE GPRESSURE VOLUME PRESSAVG GPRESSAVG
ENERGY: 0 1.1683 6.4753 7.6124 0.0000 -10773.6430 1481.2589 0.0000 0.0000 1772.2753 -7504.8529 302.1682 -9277.1282 -7504.8529 302.1682 506.0773 589.3664 29963.7573 506.0773 589.3664
ENERGY: 300000 4.4276 5.6028 11.3083 0.0000 -10812.5934 1536.8193 0.0000 0.0000 1710.2484 -7544.1870 291.5928 -9254.4354 -7511.9519 298.7005 695.5291 783.7233 30172.6928 372.0659 456.9529
ENERGY: 600000 1.8100 7.2072 7.9503 0.0000 -10740.3791 1450.9694 0.0000 0.0000 1706.3351 -7566.1072 290.9256 -9272.4423 -7501.3175 298.4531 -56.2215 23.4785 30200.1180 175.0681 262.5301
ENERGY: 900000 5.8043 7.2646 7.5000 0.0000 -10698.2931 1461.5025 0.0000 0.0000 1745.5933 -7470.6285 297.6190 -9216.2218 -7510.5882 297.7460 374.1799 418.5492 30327.1830 159.2660 233.9509
ENERGY: 1200000 0.2931 7.1030 7.1331 0.0000 -10799.4483 1478.7125 0.0000 0.0000 1718.4531 -7587.7534 292.9917 -9306.2065 -7517.9253 297.4998 419.0647 447.5139 29718.8583 83.2517 154.2497
ENERGY: 1500000 2.2353 4.7076 8.0581 0.0000 -10578.1983 1382.4935 0.0000 0.0000 1777.3227 -7403.3810 303.0288 -9180.7037 -7508.2071 298.1226 -324.7658 -272.7959 30674.7983 86.6164 154.7466
TCL: Running FEP window  11: Lambda1 0.4999999999999996 Lambda2 0.4499999999999996 [dLambda -0.04999999999999999]
TCL: Setting parameter firsttimestep to 0
TCL: Setting parameter alchLambda to 0.4999999999999996
Info: NONBONDED TABLE R-SQUARED SPACING: 0.0625
Info: NONBONDED TABLE SIZE: 705 POINTS
TCL: Setting parameter alchLambda2 to 0.4499999999999996
Info: NONBONDED TABLE R-SQUARED SPACING: 0.0625
Info: NONBONDED TABLE SIZE: 705 POINTS
TCL: Running for 1500000 steps
ETITLE: TS BOND ANGLE DIHED IMPRP ELECT VDW BOUNDARY MISC KINETIC TOTAL TEMP POTENTIAL TOTALAVG TEMPAVG PRESSURE GPRESSURE VOLUME PRESSAVG GPRESSAVG
ENERGY: 0 2.2353 4.7076 8.0581 0.0000 -10578.1625 1382.8811 0.0000 0.0000 1776.4340 -7403.8463 302.8773 -9180.2803 -7403.8463 302.8773 -363.1841 -277.1413 30674.7983 -363.1841 -277.1413
ENERGY: 300000 3.7990 8.1538 8.5842 0.0000 -10690.8229 1433.6817 0.0000 0.0000 1750.6009 -7486.0034 298.4728 -9236.6043 -7470.7396 300.2340 97.0522 116.7832 30042.6840 -83.2086 -23.7998
ENERGY: 600000 0.7045 6.9803 7.3403 0.0000 -10767.2801 1537.9163 0.0000 0.0000 1728.9752 -7485.3635 294.7857 -9214.3387 -7487.3100 297.9249 785.6592 912.9846 30317.5896 23.1092 95.0773
ENERGY: 900000 1.4894 5.0458 9.2264 0.0000 -10618.4300 1341.3281 0.0000 0.0000 1767.6608 -7493.6795 301.3815 -9261.3403 -7493.6859 297.7650 -863.3887 -779.3802 30376.0470 -148.6348 -74.5992
ENERGY: 1200000 2.9692 10.5416 9.0006 0.0000 -10713.7015 1427.6813 0.0000 0.0000 1734.8971 -7528.6117 295.7953 -9263.5088 -7499.5661 298.0995 -170.0217 -156.3877 30334.5212 -92.0241 -27.0503
ENERGY: 1500000 0.6880 7.2645 6.4007 0.0000 -10703.9471 1442.8327 0.0000 0.0000 1761.6531 -7485.1081 300.3572 -9246.7611 -7495.3059 298.5580 100.8102 204.4136 30216.4679 -92.6611 -27.5620
TCL: Running FEP window  12: Lambda1 0.4499999999999996 Lambda2 0.39999999999999963 [dLambda -0.04999999999999999]
TCL: Setting parameter firsttimestep to 0
TCL: Setting parameter alchLambda to 0.4499999999999996
Info: NONBONDED TABLE R-SQUARED SPACING: 0.0625
Info: NONBONDED TABLE SIZE: 705 POINTS
TCL: Setting parameter alchLambda2 to 0.39999999999999963
Info: NONBONDED TABLE R-SQUARED SPACING: 0.0625
Info: NONBONDED TABLE SIZE: 705 POINTS
TCL: Running for 1500000 steps
ETITLE: TS BOND ANGLE DIHED IMPRP ELECT VDW BOUNDARY MISC KINETIC TOTAL TEMP POTENTIAL TOTALAVG TEMPAVG PRESSURE GPRESSURE VOLUME PRESSAVG GPRESSAVG
ENERGY: 0 0.6880 7.2645 6.4007 0.0000 -10703.9466 1442.8229 0.0000 0.0000 1760.7982 -7485.9723 300.2114 -9246.7705 -7485.9723 300.2114 113.1734 193.4182 30216.4679 113.1734 193.4182
ENERGY: 300000 3.1113 4.7881 7.4125 0.0000 -10674.7337 1446.4597 0.0000 0.0000 1796.6040 -7416.3581 306.3162 -9212.9622 -7429.7435 304.2424 414.1101 434.6372 30133.4930 63.4605 107.7179
ENERGY: 600000 2.5043 6.9716 8.2956 0.0000 -10604.1844 1387.8772 0.0000 0.0000 1748.6204 -7449.9154 298.1351 -9198.5358 -7454.9625 301.1887 -460.5270 -419.2102 30514.9509 1.7482 49.6645
ENERGY: 900000 2.9678 6.6677 8.0958 0.0000 -10687.3856 1461.8616 0.0000 0.0000 1797.8812 -7409.9114 306.5340 -9207.7927 -7457.7810 302.5868 216.2079 267.4743 30162.2552 -10.8117 44.2214
ENERGY: 1200000 2.3103 7.3618 7.6647 0.0000 -10611.7543 1392.3642 0.0000 0.0000 1737.5178 -7464.5356 296.2422 -9202.0533 -7470.8114 301.9418 -304.8271 -240.2853 30330.3224 -42.1198 10.7694
ENERGY: 1500000 1.3756 7.2962 8.8097 0.0000 -10616.9532 1376.5221 0.0000 0.0000 1758.3095 -7464.6400 299.7871 -9222.9495 -7468.7140 301.8370 -255.2599 -214.0538 30076.3386 -36.0760 15.3983
TCL: Running FEP window  13: Lambda1 0.39999999999999963 Lambda2 0.34999999999999964 [dLambda -0.04999999999999999]
TCL: Setting parameter firsttimestep to 0
TCL: Setting parameter alchLambda to 0.39999999999999963
Info: NONBONDED TABLE R-SQUARED SPACING: 0.0625
Info: NONBONDED TABLE SIZE: 705 POINTS
TCL: Setting parameter alchLambda2 to 0.34999999999999964
Info: NONBONDED TABLE R-SQUARED SPACING: 0.0625
Info: NONBONDED TABLE SIZE: 705 POINTS
TCL: Running for 1500000 steps
ETITLE: TS BOND ANGLE DIHED IMPRP ELECT VDW BOUNDARY MISC KINETIC TOTAL TEMP POTENTIAL TOTALAVG TEMPAVG PRESSURE GPRESSURE VOLUME PRESSAVG GPRESSAVG
ENERGY: 0 1.3756 7.2962 8.8097 0.0000 -10616.9521 1376.8761 0.0000 0.0000 1757.4749 -7465.1195 299.6448 -9222.5944 -7465.1195 299.6448 -305.7715 -220.6021 30076.3386 -305.7715 -220.6021
ENERGY: 300000 0.9986 5.3366 7.4287 0.0000 -10765.3743 1415.9624 0.0000 0.0000 1748.3766 -7587.2714 298.0936 -9335.6480 -7499.1170 300.5364 -615.2862 -529.6618 30354.3870 -301.8438 -226.4962
ENERGY: 600000 1.8827 9.9502 8.9997 0.0000 -10665.3722 1427.3046 0.0000 0.0000 1778.1099 -7439.1251 303.1630 -9217.2350 -7491.7035 299.1812 -178.8041 -119.7663 30820.3306 -278.7172 -194.2106
ENERGY: 900000 1.4792 6.3744 9.6705 0.0000 -10646.9488 1418.2964 0.0000 0.0000 1761.4289 -7449.6994 300.3189 -9211.1282 -7484.7922 299.6097 -128.4994 -0.5728 30371.6191 -253.6393 -165.1805
ENERGY: 1200000 3.4630 5.9983 8.9007 0.0000 -10799.2568 1448.7931 0.0000 0.0000 1776.1161 -7555.9855 302.8231 -9332.1017 -7482.5416 300.6549 35.8853 36.6876 30016.3876 -191.4521 -115.8404
ENERGY: 1500000 1.1980 5.8470 8.4874 0.0000 -10612.1350 1361.5128 0.0000 0.0000 1780.1117 -7454.9781 303.5043 -9235.0897 -7483.9453 300.4925 -784.4881 -681.0451 30763.4415 -217.2613 -143.0112
TCL: Running FEP window  14: Lambda1 0.34999999999999964 Lambda2 0.29999999999999966 [dLambda -0.04999999999999999]
TCL: Setting parameter firsttimestep to 0
TCL: Setting parameter alchLambda to 0.34999999999999964
Info: NONBONDED TABLE R-SQUARED SPACING: 0.0625
Info: NONBONDED TABLE SIZE: 705 POINTS
TCL: Setting parameter alchLambda2 to 0.29999999999999966
Info: NONBONDED TABLE R-SQUARED SPACING: 0.0625
Info: NONBONDED TABLE SIZE: 705 POINTS
TCL: Running for 1500000 steps
ETITLE: TS BOND ANGLE DIHED IMPRP ELECT VDW BOUNDARY MISC KINETIC TOTAL TEMP POTENTIAL TOTALAVG TEMPAVG PRESSURE GPRESSURE VOLUME PRESSAVG GPRESSAVG
ENERGY: 0 1.1980 5.8470 8.4874 0.0000 -10612.1341 1361.8798 0.0000 0.0000 1779.2454 -7455.4765 303.3566 -9234.7219 -7455.4765 303.3566 -772.2552 -685.1316 30763.4415 -772.2552 -685.1316
ENERGY: 300000 2.8412 5.2250 9.6645 0.0000 -10577.6750 1366.7847 0.0000 0.0000 1699.2292 -7493.9304 289.7141 -9193.1595 -7506.5738 297.3668 -363.0495 -332.5327 29968.0670 -329.4511 -272.0027
ENERGY: 600000 1.2927 8.2424 9.4556 0.0000 -10698.6584 1411.9856 0.0000 0.0000 1790.2173 -7477.4647 305.2273 -9267.6820 -7516.0061 299.7553 -325.3654 -223.3946 29871.2188 -119.5692 -50.9181
ENERGY: 900000 0.6591 8.5832 9.7278 0.0000 -10779.7605 1488.4669 0.0000 0.0000 1752.1456 -7520.1780 298.7362 -9272.3236 -7518.0818 297.7986 335.2187 414.2716 30132.5831 -66.2494 -5.7448
ENERGY: 1200000 1.5989 6.2739 7.1514 0.0000 -10765.5045 1431.9368 0.0000 0.0000 1733.8496 -7584.6937 295.6167 -9318.5434 -7513.8575 299.1334 -134.1342 -21.8357 29920.4625 -75.8437 -9.7795
ENERGY: 1500000 1.1200 7.4180 8.5586 0.0000 -10728.9016 1483.8351 0.0000 0.0000 1751.3991 -7476.5709 298.6089 -9227.9700 -7505.0456 300.1668 345.2828 360.4303 30465.9577 -16.1041 47.9184
TCL: Running FEP window  15: Lambda1 0.29999999999999966 Lambda2 0.24999999999999967 [dLambda -0.04999999999999999]
TCL: Setting parameter firsttimestep to 0
TCL: Setting parameter alchLambda to 0.29999999999999966
Info: NONBONDED TABLE R-SQUARED SPACING: 0.0625
Info: NONBONDED TABLE SIZE: 705 POINTS
TCL: Setting parameter alchLambda2 to 0.24999999999999967
Info: NONBONDED TABLE R-SQUARED SPACING: 0.0625
Info: NONBONDED TABLE SIZE: 705 POINTS
TCL: Running for 1500000 steps
ETITLE: TS BOND ANGLE DIHED IMPRP ELECT VDW BOUNDARY MISC KINETIC TOTAL TEMP POTENTIAL TOTALAVG TEMPAVG PRESSURE GPRESSURE VOLUME PRESSAVG GPRESSAVG
ENERGY: 0 1.1200 7.4180 8.5586 0.0000 -10728.9014 1483.9001 0.0000 0.0000 1750.5146 -7477.3902 298.4581 -9227.9048 -7477.3902 298.4581 270.8647 357.4645 30465.9577 270.8647 357.4645
ENERGY: 300000 3.1029 6.9669 8.1337 0.0000 -10748.0818 1514.6225 0.0000 0.0000 1777.4757 -7437.7801 303.0549 -9215.2558 -7466.2739 301.3788 582.4600 646.6512 30447.5990 412.9250 491.6140
ENERGY: 600000 3.5051 8.5189 6.7996 0.0000 -10654.5703 1453.0071 0.0000 0.0000 1741.2621 -7441.4775 296.8806 -9182.7396 -7477.7612 300.4023 174.7654 259.4730 30208.4370 365.2137 442.8024
ENERGY: 900000 1.5761 5.9591 9.1854 0.0000 -10648.5228 1370.4896 0.0000 0.0000 1782.0897 -7479.2228 303.8416 -9261.3125 -7479.9045 301.0514 -708.8524 -542.9598 30370.9118 237.4998 313.9429
ENERGY: 1200000 1.0345 8.5637 7.8124 0.0000 -10653.3794 1360.1426 0.0000 0.0000 1784.0358 -7491.7904 304.1733 -9275.8262 -7493.4770 301.1664 -314.6713 -302.6326 29538.4054 183.7462 255.4011
ENERGY: 1500000 2.4357 8.2144 7.2437 0.0000 -10699.6098 1400.5763 0.0000 0.0000 1792.6337 -7488.5060 305.6393 -9281.1397 -7488.0822 301.4232 -241.4929 -196.9530 29893.0741 82.0332 151.1659
TCL: Running FEP window  16: Lambda1 0.24999999999999967 Lambda2 0.19999999999999968 [dLambda -0.04999999999999999]
TCL: Setting parameter firsttimestep to 0
TCL: Setting parameter alchLambda to 0.24999999999999967
Info: NONBONDED TABLE R-SQUARED SPACING: 0.0625
Info: NONBONDED TABLE SIZE: 705 POINTS
TCL: Setting parameter alchLambda2 to 0.19999999999999968
Info: NONBONDED TABLE R-SQUARED SPACING: 0.0625
Info: NONBONDED TABLE SIZE: 705 POINTS
TCL: Running for 1500000 steps
ETITLE: TS BOND ANGLE DIHED IMPRP ELECT VDW BOUNDARY MISC KINETIC TOTAL TEMP POTENTIAL TOTALAVG TEMPAVG PRESSURE GPRESSURE VOLUME PRESSAVG GPRESSAVG
ENERGY: 0 2.4357 8.2144 7.2437 0.0000 -10699.6090 1400.8437 0.0000 0.0000 1791.7786 -7489.0929 305.4935 -9280.8715 -7489.0929 305.4935 -276.4247 -199.4663 29893.0741 -276.4247 -199.4663
ENERGY: 300000 2.1202 6.2918 7.6539 0.0000 -10813.4885 1485.1444 0.0000 0.0000 1752.7575 -7559.5207 298.8405 -9312.2782 -7493.9413 300.2807 300.6923 324.2994 29916.8422 134.2140 218.1444
ENERGY: 600000 1.9760 5.3796 8.6069 0.0000 -10671.8307 1391.9068 0.0000 0.0000 1733.9814 -7529.9800 295.6392 -9263.9614 -7483.3434 300.0809 -591.7000 -520.9193 30423.4568 70.8881 150.6934
ENERGY: 900000 2.3427 8.6048 8.2910 0.0000 -10521.0600 1278.0832 0.0000 0.0000 1800.7171 -7423.0213 307.0175 -9223.7384 -7475.7673 300.9657 -1597.7212 -1498.3261 30927.7188 -141.5393 -70.1337
ENERGY: 1200000 0.4482 4.9224 7.2060 0.0000 -10786.2487 1484.1860 0.0000 0.0000 1814.4418 -7475.0445 309.3575 -9289.4862 -7481.5222 300.3284 30.2575 86.0639 30600.2414 -178.9167 -114.0232
ENERGY: 1500000 1.8962 10.5255 6.4086 0.0000 -10727.9169 1444.6586 0.0000 0.0000 1747.5437 -7516.8842 297.9515 -9264.4279 -7488.0185 299.6923 -28.4184 21.8187 30302.9631 -164.4923 -101.4368
TCL: Running FEP window  17: Lambda1 0.19999999999999968 Lambda2 0.1499999999999997 [dLambda -0.04999999999999999]
TCL: Setting parameter firsttimestep to 0
TCL: Setting parameter alchLambda to 0.19999999999999968
Info: NONBONDED TABLE R-SQUARED SPACING: 0.0625
Info: NONBONDED TABLE SIZE: 705 POINTS
TCL: Setting parameter alchLambda2 to 0.1499999999999997
Info: NONBONDED TABLE R-SQUARED SPACING: 0.0625
Info: NONBONDED TABLE SIZE: 705 POINTS
TCL: Running for 1500000 steps
ETITLE: TS BOND ANGLE DIHED IMPRP ELECT VDW BOUNDARY MISC KINETIC TOTAL TEMP POTENTIAL TOTALAVG TEMPAVG PRESSURE GPRESSURE VOLUME PRESSAVG GPRESSAVG
ENERGY: 0 1.8962 10.5255 6.4086 0.0000 -10727.9150 1445.1799 0.0000 0.0000 1746.6650 -7517.2398 297.8017 -9263.9048 -7517.2398 297.8017 -66.4052 20.7438 30302.9631 -66.4052 20.7438
ENERGY: 300000 1.5096 6.6170 7.9733 0.0000 -10711.5657 1449.9448 0.0000 0.0000 1688.4797 -7557.0411 287.8813 -9245.5208 -7505.8317 297.2870 -116.3593 -112.4369 30667.7263 114.0301 197.5999
ENERGY: 600000 1.9662 8.3717 7.3959 0.0000 -10740.6284 1485.9012 0.0000 0.0000 1691.5189 -7545.4745 288.3995 -9236.9935 -7518.2376 294.6430 197.3115 214.8501 30424.0298 163.4074 219.1917
ENERGY: 900000 2.0670 10.4435 8.7837 0.0000 -10693.2636 1425.9829 0.0000 0.0000 1757.9808 -7488.0057 299.7310 -9245.9865 -7517.3209 295.3227 26.3067 120.0141 29968.1737 49.8327 114.3761
ENERGY: 1200000 1.9693 6.6671 9.8821 0.0000 -10738.5921 1430.9467 0.0000 0.0000 1781.4274 -7507.6995 303.7286 -9289.1269 -7516.2273 297.0081 -293.3230 -184.5751 30397.2739 -54.4010 16.6852
ENERGY: 1500000 1.5100 4.1669 7.7606 0.0000 -10690.0116 1416.1973 0.0000 0.0000 1764.5231 -7495.8538 300.8465 -9260.3769 -7512.3191 297.8568 -98.6337 -77.7289 30415.0043 -83.0570 -15.8853
TCL: Running FEP window  18: Lambda1 0.1499999999999997 Lambda2 0.09999999999999969 [dLambda -0.05 ]
TCL: Setting parameter firsttimestep to 0
TCL: Setting parameter alchLambda to 0.1499999999999997
Info: NONBONDED TABLE R-SQUARED SPACING: 0.0625
Info: NONBONDED TABLE SIZE: 705 POINTS
TCL: Setting parameter alchLambda2 to 0.09999999999999969
Info: NONBONDED TABLE R-SQUARED SPACING: 0.0625
Info: NONBONDED TABLE SIZE: 705 POINTS
TCL: Running for 1500000 steps
ETITLE: TS BOND ANGLE DIHED IMPRP ELECT VDW BOUNDARY MISC KINETIC TOTAL TEMP POTENTIAL TOTALAVG TEMPAVG PRESSURE GPRESSURE VOLUME PRESSAVG GPRESSAVG
ENERGY: 0 1.5100 4.1669 7.7606 0.0000 -10690.0122 1415.8370 0.0000 0.0000 1763.6586 -7497.0791 300.6991 -9260.7377 -7497.0791 300.6991 -160.6723 -82.8078 30415.0043 -160.6723 -82.8078
ENERGY: 300000 1.1325 7.9930 8.2417 0.0000 -10629.4723 1420.2885 0.0000 0.0000 1697.5190 -7494.2976 289.4225 -9191.8166 -7480.4947 298.7936 33.7116 114.8757 30065.4763 13.7507 40.8204
ENERGY: 600000 3.5571 5.2001 8.6437 0.0000 -10792.7946 1486.1821 0.0000 0.0000 1746.4686 -7542.7430 297.7682 -9289.2116 -7492.5624 300.4253 139.3849 198.7150 29924.9633 143.1846 184.6276
ENERGY: 900000 1.5803 9.1576 8.2281 0.0000 -10661.8732 1453.8152 0.0000 0.0000 1741.8297 -7447.2623 296.9773 -9189.0920 -7490.7223 299.3019 105.2491 153.8538 30524.0199 92.6667 134.3787
ENERGY: 1200000 1.4820 11.5538 7.6581 0.0000 -10748.8626 1474.8123 0.0000 0.0000 1750.5769 -7502.7795 298.4687 -9253.3564 -7491.8025 298.7643 36.5056 109.1165 30228.1194 116.3001 156.7749
ENERGY: 1500000 2.4834 12.0114 7.9642 0.0000 -10700.8058 1473.1985 0.0000 0.0000 1810.7758 -7394.3725 308.7325 -9205.1483 -7492.9255 299.1975 297.9260 335.9854 30502.7993 -26.1486 17.9892
TCL: Running FEP window  19: Lambda1 0.09999999999999969 Lambda2 0.049999999999999684 [dLambda -0.05 ]
TCL: Setting parameter firsttimestep to 0
TCL: Setting parameter alchLambda to 0.09999999999999969
Info: NONBONDED TABLE R-SQUARED SPACING: 0.0625
Info: NONBONDED TABLE SIZE: 705 POINTS
TCL: Setting parameter alchLambda2 to 0.049999999999999684
Info: NONBONDED TABLE R-SQUARED SPACING: 0.0625
Info: NONBONDED TABLE SIZE: 705 POINTS
TCL: Running for 1500000 steps
ETITLE: TS BOND ANGLE DIHED IMPRP ELECT VDW BOUNDARY MISC KINETIC TOTAL TEMP POTENTIAL TOTALAVG TEMPAVG PRESSURE GPRESSURE VOLUME PRESSAVG GPRESSAVG
ENERGY: 0 2.4834 12.0114 7.9642 0.0000 -10700.8056 1473.5608 0.0000 0.0000 1809.8953 -7394.8906 308.5823 -9204.7859 -7394.8906 308.5823 258.3857 333.5599 30502.7993 258.3857 333.5599
ENERGY: 300000 3.6116 8.8647 9.2424 0.0000 -10669.5875 1407.0050 0.0000 0.0000 1763.0603 -7477.8035 300.5971 -9240.8638 -7482.7646 299.1916 -470.0714 -412.4787 30451.9774 -23.7523 49.6031
ENERGY: 600000 3.1351 8.1008 7.5666 0.0000 -10814.1463 1495.4397 0.0000 0.0000 1737.2754 -7562.6287 296.2008 -9299.9042 -7494.2959 299.8710 175.8225 212.3715 30144.2844 214.0667 284.6303
ENERGY: 900000 1.2783 4.3556 6.8125 0.0000 -10647.8108 1389.8991 0.0000 0.0000 1726.1127 -7519.3526 294.2976 -9245.4653 -7496.7340 300.3618 -306.6969 -244.5237 30006.9513 96.1930 166.5305
ENERGY: 1200000 2.0816 8.7094 8.8230 0.0000 -10673.5270 1413.2702 0.0000 0.0000 1748.9767 -7491.6662 298.1959 -9240.6429 -7494.6806 300.9041 -489.6532 -424.8651 30583.0010 32.7821 104.3681
ENERGY: 1500000 0.7178 7.7199 8.5209 0.0000 -10721.9848 1494.6745 0.0000 0.0000 1750.0836 -7460.2680 298.3846 -9210.3517 -7486.5375 301.5282 360.9621 468.7609 30553.0693 48.2099 121.2145
TCL: Running FEP window  20: Lambda1 0.049999999999999684 Lambda2 0.0    [dLambda -0.049999999999999684]
TCL: Setting parameter firsttimestep to 0
TCL: Setting parameter alchLambda to 0.049999999999999684
Info: NONBONDED TABLE R-SQUARED SPACING: 0.0625
Info: NONBONDED TABLE SIZE: 705 POINTS
TCL: Setting parameter alchLambda2 to 0.0
Info: NONBONDED TABLE R-SQUARED SPACING: 0.0625
Info: NONBONDED TABLE SIZE: 705 POINTS
TCL: Running for 1500000 steps
ETITLE: TS BOND ANGLE DIHED IMPRP ELECT VDW BOUNDARY MISC KINETIC TOTAL TEMP POTENTIAL TOTALAVG TEMPAVG PRESSURE GPRESSURE VOLUME PRESSAVG GPRESSAVG
ENERGY: 0 0.7178 7.7199 8.5209 0.0000 -10721.9851 1493.7447 0.0000 0.0000 1749.2245 -7462.0572 298.2381 -9211.2817 -7462.0572 298.2381 387.7048 464.5325 30553.0693 387.7048 464.5325
ENERGY: 300000 1.1042 12.0400 7.7384 0.0000 -10875.0769 1565.2171 0.0000 0.0000 1715.6248 -7573.3524 292.5095 -9288.9772 -7513.7341 297.3963 819.3533 881.3249 30006.7833 197.8312 273.9174
ENERGY: 600000 3.8361 7.3898 12.1430 0.0000 -10731.9131 1431.6181 0.0000 0.0000 1777.0875 -7499.8386 302.9887 -9276.9261 -7497.8986 299.9127 -42.5325 -3.7376 29801.1325 173.2277 231.4715
ENERGY: 900000 2.1273 9.2649 7.9525 0.0000 -10611.2448 1378.8173 0.0000 0.0000 1752.3137 -7460.7691 298.7648 -9213.0828 -7486.3057 300.1013 -401.6625 -376.1819 30196.1048 184.6060 238.0418
ENERGY: 1200000 3.1274 6.0724 8.4238 0.0000 -10841.0389 1576.2161 0.0000 0.0000 1803.8026 -7443.3966 307.5435 -9247.1991 -7481.6854 301.0877 759.9408 866.4542 30353.8858 208.7651 268.0750
ENERGY: 1500000 1.3947 7.4763 7.6151 0.0000 -10781.2499 1534.1822 0.0000 0.0000 1808.8390 -7421.7426 308.4022 -9230.5816 -7478.5437 301.4343 685.0456 715.4825 30534.0224 197.1382 255.8809
TCL: Exiting due to exit command.
