Info: SIMULATION PARAMETERS:
Info: TIMESTEP               2
Info: NUMBER OF STEPS        0
Info: STEPS PER CYCLE        10
Info: PERIODIC CELL BASIS 1  32.2345 0 0
Info: PERIODIC CELL BASIS 2  0 30.1802 0
Info: PERIODIC CELL BASIS 3  0 0 31.469
Info: PERIODIC CELL CENTER   0 0 0
Info: WRAPPING WATERS AROUND PERIODIC BOUNDARIES ON OUTPUT.
Info: WRAPPING ALL CLUSTERS AROUND PERIODIC BOUNDARIES ON OUTPUT.
Info: FIRST LDB TIMESTEP     50
Info: LAST LDB TIMESTEP     -1
Info: HOM BACKGROUND SCALING 1
Info: PME BACKGROUND SCALING 1
Info: MIN ATOMS PER PATCH    40
Info: EMPTY PATCH LOAD       40 ATOMS
Info: VELOCITY FILE          mobley_1034539_equil.vel
Info: CENTER OF MASS MOVING INITIALLY? NO
Info: DIELECTRIC             1
Info: EXCLUDE                SCALED ONE-FOUR
Info: 1-4 ELECTROSTATICS SCALED BY 0.833333
Info: MODIFIED 1-4 VDW PARAMETERS WILL BE USED
Info: DCD FILENAME           mobley_1034539_prod.dcd
Info: DCD FREQUENCY          100000
Info: DCD FIRST STEP         100000
Info: DCD FILE WILL CONTAIN UNIT CELL DATA
Info: XST FILENAME           mobley_1034539_prod.xst
Info: XST FREQUENCY          100000
Info: NO VELOCITY DCD OUTPUT
Info: NO FORCE DCD OUTPUT
Info: OUTPUT FILENAME        mobley_1034539_prod
Info: BINARY OUTPUT FILES WILL BE USED
Info: RESTART FILENAME       mobley_1034539_prod.restart
Info: RESTART FREQUENCY      100000
Info: BINARY RESTART FILES WILL BE USED
Info: CUTOFF                 9
Info: PAIRLIST DISTANCE      11
Info: PAIRLIST SHRINK RATE   0.01
Info: PAIRLIST GROW RATE     0.01
Info: PAIRLIST TRIGGER       0.3
Info: PAIRLISTS PER CYCLE    2
Info: PAIRLISTS ENABLED
Info: MARGIN                 2
Info: HYDROGEN GROUP CUTOFF  2.5
Info: PATCH DIMENSION        15.5
Info: ENERGY OUTPUT STEPS    100000
Info: ENERGY EVALUATION STEPS    100000
Info: OUTPUT ENERGY PRECISION 4
Info: CROSSTERM ENERGY INCLUDED IN DIHEDRAL
Info: TIMING OUTPUT STEPS    1000000
Info: PRESSURE OUTPUT STEPS  100000
Info: ALCHEMICAL FEP ON
Info: FEP CURRENT LAMBDA VALUE     0
Info: FEP COMPARISON LAMBDA VALUE  0.05
Info: FEP INTRA-ALCHEMICAL NON-BONDED INTERACTIONS WILL BE RETAINED
Info: FEP INTRA-ALCHEMICAL BONDED INTERACTIONS WILL BE RETAINED
Info: FEP VDW SHIFTING COEFFICIENT 5
Info: FEP ELEC. ACTIVE FOR ANNIHILATED PARTICLES BETWEEN LAMBDA = 0 AND LAMBDA = 0.5
Info: FEP ELEC. ACTIVE FOR EXNIHILATED PARTICLES BETWEEN LAMBDA = 0.5 AND LAMBDA = 1
Info: FEP VDW ACTIVE FOR ANNIHILATED PARTICLES BETWEEN LAMBDA = 0 AND LAMBDA = 1
Info: FEP VDW ACTIVE FOR EXNIHILATED PARTICLES BETWEEN LAMBDA = 0 AND LAMBDA = 1
Info: FEP BOND ACTIVE FOR ANNIHILATED PARTICLES BETWEEN LAMBDA = 1 AND LAMBDA = 1
Info: FEP BOND ACTIVE FOR EXNIHILATED PARTICLES BETWEEN LAMBDA = 0 AND LAMBDA = 0
Info: LANGEVIN DYNAMICS ACTIVE
Info: LANGEVIN TEMPERATURE   300
Info: LANGEVIN USING BBK INTEGRATOR
Info: LANGEVIN DAMPING COEFFICIENT IS 1 INVERSE PS
Info: LANGEVIN DYNAMICS APPLIED TO HYDROGENS
Info: LANGEVIN PISTON PRESSURE CONTROL ACTIVE
Info:        TARGET PRESSURE IS 1.01325 BAR
Info:     OSCILLATION PERIOD IS 50 FS
Info:             DECAY TIME IS 25 FS
Info:     PISTON TEMPERATURE IS 300 K
Info:       PRESSURE CONTROL IS GROUP-BASED
Info:    INITIAL STRAIN RATE IS 0.000377914 0.000377914 0.000377914
Info:       CELL FLUCTUATION IS ISOTROPIC
Info: PARTICLE MESH EWALD (PME) ACTIVE
Info: PME TOLERANCE               1e-06
Info: PME EWALD COEFFICIENT       0.348832
Info: PME INTERPOLATION ORDER     4
Info: PME GRID DIMENSIONS         36 32 32
Info: PME MAXIMUM GRID SPACING    1
Info: PME CALCULATION WILL BE PERFORMED ON GPU
Info: FULL ELECTROSTATIC EVALUATION FREQUENCY      2
Info: USING VERLET I (r-RESPA) MTS SCHEME.
Info: C1 SPLITTING OF LONG RANGE ELECTROSTATICS
Info: PLACING ATOMS IN PATCHES BY HYDROGEN GROUPS
Info: RIGID BONDS TO HYDROGEN : ALL
Info:         ERROR TOLERANCE : 1e-08
Info:          MAX ITERATIONS : 100
Info: RIGID WATER USING SETTLE ALGORITHM
Info: RANDOM NUMBER SEED     1743787817
Info: USE HYDROGEN BONDS?    NO
Info: Using AMBER format force field!
Info: AMBER PARM FILE        mobley_1034539.prmtop
Info: COORDINATE PDB         mobley_1034539.pdb
Info: Exclusions will be read from PARM file!
Info: SCNB (VDW SCALING)     2
Info: USING ARITHMETIC MEAN TO COMBINE L-J SIGMA PARAMETERS
Info: BINARY COORDINATES     mobley_1034539_equil.coor
Info: SUMMARY OF PARAMETERS:
Info: 7 BONDS
Info: 8 ANGLES
Info:   8 HARMONIC
Info:   0 COSINE-BASED
Info: 3 DIHEDRAL
Info: 0 IMPROPER
Info: 0 CROSSTERM
Info: 0 VDW
Info: 15 VDW_PAIRS
Info: 0 NBTHOLE_PAIRS
Info: To read alchdata from file: mobley_1034539.pdb
Info: To read alchflag data from column: 5
Info: STRUCTURE SUMMARY:
Info: 2968 ATOMS
Info: 2969 BONDS
Info: 36 ANGLES
Info: 64 DIHEDRALS
Info: 0 IMPROPERS
Info: 0 CROSSTERMS
Info: 3051 EXCLUSIONS
Info: 2950 RIGID BONDS
Info: ALCH: 0 ATOMS TO DISAPPEAR IN FINAL STATE
Info: ALCH: 22 ATOMS TO APPEAR IN FINAL STATE
Info: 5954 DEGREES OF FREEDOM
Info: 1000 HYDROGEN GROUPS
Info: 3 ATOMS IN LARGEST HYDROGEN GROUP
Info: 1000 MIGRATION GROUPS
Info: 3 ATOMS IN LARGEST MIGRATION GROUP
Info: TOTAL MASS = 18052.6 amu
Info: TOTAL CHARGE = -8.3819e-09 e
Info: MASS DENSITY = 0.979201 g/cm^3
Info: ATOM DENSITY = 0.0969477 atoms/A^3
Info: ADDED 0 IMPLICIT EXCLUSIONS
Info: NONBONDED TABLE R-SQUARED SPACING: 0.0625
Info: NONBONDED TABLE SIZE: 705 POINTS
Info: REMOVING COM VELOCITY -0.119102 0.0870179 -0.0402231
Info: Use 3D box decompostion in PME FFT.
Info: Updated CUDA force table with 4096 elements.
Info: Updated CUDA LJ table with 5 x 5 elements.
Info: Found 25 unique exclusion lists needing 76 bytes
TCL: Running for 1500000 steps
ETITLE: TS BOND ANGLE DIHED IMPRP ELECT VDW BOUNDARY MISC KINETIC TOTAL TEMP POTENTIAL TOTALAVG TEMPAVG PRESSURE GPRESSURE VOLUME PRESSAVG GPRESSAVG
ENERGY: 0 3.2169 7.0832 14.6244 0.0000 -10741.8129 1476.4694 0.0000 0.0000 1786.7390 -7453.6799 302.0248 -9240.4189 -7453.6799 302.0248 43.6806 136.1366 30614.4410 43.6806 136.1366
ENERGY: 300000 6.9480 4.1466 12.8838 0.0000 -10745.4531 1507.1608 0.0000 0.0000 1801.5503 -7412.7637 304.5285 -9214.3140 -7422.1466 304.4731 637.8712 702.7705 30475.2804 7.7382 72.2284
ENERGY: 600000 6.0443 4.2840 12.6975 0.0000 -10798.3420 1503.1382 0.0000 0.0000 1730.5281 -7541.6499 292.5231 -9272.1780 -7451.8196 301.7233 207.4865 305.5397 30136.9544 -49.4745 12.8290
ENERGY: 900000 5.2201 3.0540 11.6488 0.0000 -10827.6093 1578.7994 0.0000 0.0000 1757.2593 -7471.6278 297.0417 -9228.8871 -7449.4500 300.0675 1087.8877 1200.6108 30248.7077 97.4536 154.1982
ENERGY: 1200000 6.7372 6.1909 10.7627 0.0000 -10763.6761 1457.5840 0.0000 0.0000 1750.5399 -7531.8614 295.9059 -9282.4013 -7467.6202 299.3763 -216.2712 -138.9600 30544.9035 6.3131 64.2921
ENERGY: 1500000 5.0412 5.1011 16.3801 0.0000 -10587.0400 1410.2244 0.0000 0.0000 1775.7705 -7374.5227 300.1708 -9150.2932 -7449.0524 300.5773 -14.8727 31.7572 30121.5117 -86.7021 -29.5192
TCL: Running FEP window   2: Lambda1 0.05   Lambda2 0.1    [dLambda 0.05  ]
TCL: Setting parameter firsttimestep to 0
TCL: Setting parameter alchLambda to 0.05
Info: NONBONDED TABLE R-SQUARED SPACING: 0.0625
Info: NONBONDED TABLE SIZE: 705 POINTS
TCL: Setting parameter alchLambda2 to 0.1
Info: NONBONDED TABLE R-SQUARED SPACING: 0.0625
Info: NONBONDED TABLE SIZE: 705 POINTS
TCL: Running for 1500000 steps
ETITLE: TS BOND ANGLE DIHED IMPRP ELECT VDW BOUNDARY MISC KINETIC TOTAL TEMP POTENTIAL TOTALAVG TEMPAVG PRESSURE GPRESSURE VOLUME PRESSAVG GPRESSAVG
ENERGY: 0 5.0412 5.1011 16.3801 0.0000 -10587.0404 1419.6021 0.0000 0.0000 1774.9172 -7365.9987 300.0265 -9140.9159 -7365.9987 300.0265 -30.2332 58.0172 30121.5117 -30.2332 58.0172
ENERGY: 300000 6.2139 4.5190 9.3368 0.0000 -10704.8941 1486.7474 0.0000 0.0000 1730.8223 -7467.2548 292.5729 -9198.0771 -7401.5830 300.6166 197.0010 347.5428 30352.4733 -469.6645 -390.4088
ENERGY: 600000 7.9705 4.4424 11.7107 0.0000 -10795.2558 1551.8539 0.0000 0.0000 1750.0311 -7469.2472 295.8199 -9219.2783 -7432.6500 299.2354 517.2629 528.1472 30762.1181 -471.2914 -403.2895
ENERGY: 900000 6.6344 5.8414 13.1718 0.0000 -10758.9733 1416.7136 0.0000 0.0000 1789.8991 -7526.7129 302.5590 -9316.6120 -7439.4102 299.5384 -662.6770 -608.1993 30364.6397 -353.5853 -289.2996
ENERGY: 1200000 6.0128 7.4354 11.8178 0.0000 -10849.4167 1512.6611 0.0000 0.0000 1817.3914 -7494.0983 307.2062 -9311.4897 -7448.6787 300.9617 326.4084 421.7413 30245.1853 -351.6560 -286.9263
ENERGY: 1500000 3.1667 3.6378 7.5685 0.0000 -10690.7298 1429.6872 0.0000 0.0000 1725.3573 -7521.3124 291.6491 -9246.6696 -7469.8419 299.4746 -218.3034 -169.9291 30518.9220 -341.2921 -272.8923
TCL: Running FEP window   3: Lambda1 0.1    Lambda2 0.15000000000000002 [dLambda 0.05000000000000002]
TCL: Setting parameter firsttimestep to 0
TCL: Setting parameter alchLambda to 0.1
Info: NONBONDED TABLE R-SQUARED SPACING: 0.0625
Info: NONBONDED TABLE SIZE: 705 POINTS
TCL: Setting parameter alchLambda2 to 0.15000000000000002
Info: NONBONDED TABLE R-SQUARED SPACING: 0.0625
Info: NONBONDED TABLE SIZE: 705 POINTS
TCL: Running for 1500000 steps
ETITLE: TS BOND ANGLE DIHED IMPRP ELECT VDW BOUNDARY MISC KINETIC TOTAL TEMP POTENTIAL TOTALAVG TEMPAVG PRESSURE GPRESSURE VOLUME PRESSAVG GPRESSAVG
ENERGY: 0 3.1667 3.6378 7.5685 0.0000 -10690.7294 1434.7682 0.0000 0.0000 1724.4204 -7517.1677 291.4907 -9241.5882 -7517.1677 291.4907 -229.5732 -146.8313 30518.9220 -229.5732 -146.8313
ENERGY: 300000 7.7426 2.8653 9.5904 0.0000 -10814.3937 1474.3858 0.0000 0.0000 1777.5533 -7542.2563 300.4721 -9319.8096 -7521.6901 292.8108 -182.0282 -57.9649 30277.1234 -184.4420 -115.3233
ENERGY: 600000 6.4952 4.4815 11.7268 0.0000 -10748.4228 1473.7325 0.0000 0.0000 1729.8681 -7522.1187 292.4116 -9251.9867 -7514.3576 295.1308 192.8406 283.3840 30465.7252 203.6224 272.3522
ENERGY: 900000 6.6813 7.9287 12.3958 0.0000 -10595.6487 1382.1966 0.0000 0.0000 1712.4955 -7473.9507 289.4749 -9186.4462 -7500.0201 295.2040 -820.6245 -720.2152 30749.9346 81.4401 148.2194
ENERGY: 1200000 6.3971 6.2511 18.1288 0.0000 -10815.0381 1469.2346 0.0000 0.0000 1788.2848 -7526.7418 302.2861 -9315.0266 -7495.8031 297.1123 58.7310 76.8829 30156.0994 6.3360 69.6978
ENERGY: 1500000 6.3330 3.8921 11.9423 0.0000 -10752.9864 1447.7466 0.0000 0.0000 1746.6730 -7536.3995 295.2522 -9283.0725 -7501.5656 297.4498 -195.3281 -167.3588 30776.3468 -24.0941 36.6129
TCL: Running FEP window   4: Lambda1 0.15000000000000002 Lambda2 0.2    [dLambda 0.04999999999999999]
TCL: Setting parameter firsttimestep to 0
TCL: Setting parameter alchLambda to 0.15000000000000002
Info: NONBONDED TABLE R-SQUARED SPACING: 0.0625
Info: NONBONDED TABLE SIZE: 705 POINTS
TCL: Setting parameter alchLambda2 to 0.2
Info: NONBONDED TABLE R-SQUARED SPACING: 0.0625
Info: NONBONDED TABLE SIZE: 705 POINTS
TCL: Running for 1500000 steps
ETITLE: TS BOND ANGLE DIHED IMPRP ELECT VDW BOUNDARY MISC KINETIC TOTAL TEMP POTENTIAL TOTALAVG TEMPAVG PRESSURE GPRESSURE VOLUME PRESSAVG GPRESSAVG
ENERGY: 0 6.3330 3.8921 11.9423 0.0000 -10752.9859 1447.5986 0.0000 0.0000 1745.8352 -7537.3847 295.1106 -9283.2200 -7537.3847 295.1106 -246.6681 -161.8154 30776.3468 -246.6681 -161.8154
ENERGY: 300000 5.4317 3.5612 9.8824 0.0000 -10632.0486 1386.5183 0.0000 0.0000 1818.2869 -7408.3682 307.3576 -9226.6551 -7479.3780 299.9210 -215.0056 -60.7630 30433.1515 12.8998 72.1924
ENERGY: 600000 5.5179 5.9635 14.9614 0.0000 -10741.9281 1461.2946 0.0000 0.0000 1803.8073 -7450.3836 304.9100 -9254.1909 -7472.6243 300.8037 -8.4952 108.1849 30491.4384 12.6289 74.1665
ENERGY: 900000 6.4821 5.7017 12.0219 0.0000 -10694.4651 1421.7751 0.0000 0.0000 1809.3402 -7439.1440 305.8453 -9248.4842 -7469.5577 301.4274 -177.8207 -111.0605 30682.5588 -64.3120 0.6373
ENERGY: 1200000 6.1428 3.7377 9.1040 0.0000 -10757.8060 1500.5921 0.0000 0.0000 1754.5517 -7483.6776 296.5840 -9238.2294 -7480.4653 300.1701 263.8018 335.8070 30343.8915 -20.9899 40.7661
ENERGY: 1500000 12.3277 10.7452 6.8964 0.0000 -10621.5751 1398.9217 0.0000 0.0000 1796.4388 -7396.2453 303.6645 -9192.6841 -7470.8523 301.4559 -446.0524 -387.5738 30732.1652 -66.5085 -7.9794
TCL: Running FEP window   5: Lambda1 0.2    Lambda2 0.25   [dLambda 0.04999999999999999]
TCL: Setting parameter firsttimestep to 0
TCL: Setting parameter alchLambda to 0.2
Info: NONBONDED TABLE R-SQUARED SPACING: 0.0625
Info: NONBONDED TABLE SIZE: 705 POINTS
TCL: Setting parameter alchLambda2 to 0.25
Info: NONBONDED TABLE R-SQUARED SPACING: 0.0625
Info: NONBONDED TABLE SIZE: 705 POINTS
TCL: Running for 1500000 steps
ETITLE: TS BOND ANGLE DIHED IMPRP ELECT VDW BOUNDARY MISC KINETIC TOTAL TEMP POTENTIAL TOTALAVG TEMPAVG PRESSURE GPRESSURE VOLUME PRESSAVG GPRESSAVG
ENERGY: 0 12.3277 10.7452 6.8964 0.0000 -10621.5752 1403.8416 0.0000 0.0000 1795.5707 -7392.1935 303.5177 -9187.7642 -7392.1935 303.5177 -458.3250 -362.5031 30732.1652 -458.3250 -362.5031
ENERGY: 300000 5.3033 2.9367 13.0904 0.0000 -10775.7060 1445.4849 0.0000 0.0000 1799.2712 -7509.6196 304.1432 -9308.8907 -7462.7593 300.0900 -359.1826 -293.2566 30585.0476 -100.4987 -36.2106
ENERGY: 600000 7.3674 4.9853 10.2630 0.0000 -10831.0518 1558.7705 0.0000 0.0000 1765.9325 -7483.7332 298.5078 -9249.6657 -7441.6207 302.4572 808.5352 890.5027 30516.0130 78.0305 138.3985
ENERGY: 900000 6.1883 6.1554 8.9417 0.0000 -10700.0081 1412.7412 0.0000 0.0000 1809.8859 -7456.0955 305.9375 -9265.9814 -7441.1677 301.7646 -276.1197 -167.7035 30281.2555 109.0519 180.4166
ENERGY: 1200000 4.5523 6.8683 5.5885 0.0000 -10716.3635 1479.2855 0.0000 0.0000 1806.9037 -7413.1651 305.4334 -9220.0688 -7449.8175 301.4455 283.5498 401.8704 30601.1456 156.7913 223.7049
ENERGY: 1500000 4.9039 4.3189 12.0294 0.0000 -10691.3896 1462.9232 0.0000 0.0000 1772.4497 -7434.7646 299.6094 -9207.2143 -7460.5766 301.3774 193.1724 310.5125 30531.3270 145.0788 217.3241
TCL: Running FEP window   6: Lambda1 0.25   Lambda2 0.3    [dLambda 0.04999999999999999]
TCL: Setting parameter firsttimestep to 0
TCL: Setting parameter alchLambda to 0.25
Info: NONBONDED TABLE R-SQUARED SPACING: 0.0625
Info: NONBONDED TABLE SIZE: 705 POINTS
TCL: Setting parameter alchLambda2 to 0.3
Info: NONBONDED TABLE R-SQUARED SPACING: 0.0625
Info: NONBONDED TABLE SIZE: 705 POINTS
TCL: Running for 1500000 steps
ETITLE: TS BOND ANGLE DIHED IMPRP ELECT VDW BOUNDARY MISC KINETIC TOTAL TEMP POTENTIAL TOTALAVG TEMPAVG PRESSURE GPRESSURE VOLUME PRESSAVG GPRESSAVG
ENERGY: 0 4.9039 4.3189 12.0294 0.0000 -10691.3899 1462.2738 0.0000 0.0000 1771.5174 -7436.3465 299.4518 -9207.8640 -7436.3465 299.4518 218.1313 315.0903 30531.3270 218.1313 315.0903
ENERGY: 300000 6.3517 3.9675 10.0821 0.0000 -10725.9101 1470.7958 0.0000 0.0000 1802.2715 -7432.4414 304.6504 -9234.7129 -7452.0792 300.3548 -206.2307 -147.3202 31153.6722 171.2631 231.5325
ENERGY: 600000 5.1424 4.1370 9.6989 0.0000 -10672.5115 1408.2872 0.0000 0.0000 1747.5514 -7497.6946 295.4007 -9245.2460 -7478.5383 300.9360 -486.5782 -377.2182 30955.2059 -60.7080 7.4848
ENERGY: 900000 8.6964 5.5877 10.4499 0.0000 -10771.9953 1478.7958 0.0000 0.0000 1784.0335 -7484.4320 301.5675 -9268.4655 -7472.6052 302.1034 7.9533 124.2015 30166.6190 -131.5986 -67.4886
ENERGY: 1200000 4.4229 8.2385 9.5504 0.0000 -10756.5407 1466.9544 0.0000 0.0000 1722.6155 -7544.7589 291.1856 -9267.3744 -7479.3334 300.2593 258.0815 345.3318 29985.1417 -49.5290 15.2792
ENERGY: 1500000 8.7792 6.8970 11.9222 0.0000 -10774.9144 1482.4339 0.0000 0.0000 1783.2153 -7481.6669 301.4292 -9264.8822 -7472.4941 300.7833 258.2566 332.9419 30482.6764 -27.4327 39.1172
TCL: Running FEP window   7: Lambda1 0.3    Lambda2 0.35   [dLambda 0.04999999999999999]
TCL: Setting parameter firsttimestep to 0
TCL: Setting parameter alchLambda to 0.3
Info: NONBONDED TABLE R-SQUARED SPACING: 0.0625
Info: NONBONDED TABLE SIZE: 705 POINTS
TCL: Setting parameter alchLambda2 to 0.35
Info: NONBONDED TABLE R-SQUARED SPACING: 0.0625
Info: NONBONDED TABLE SIZE: 705 POINTS
TCL: Running for 1500000 steps
ETITLE: TS BOND ANGLE DIHED IMPRP ELECT VDW BOUNDARY MISC KINETIC TOTAL TEMP POTENTIAL TOTALAVG TEMPAVG PRESSURE GPRESSURE VOLUME PRESSAVG GPRESSAVG
ENERGY: 0 8.7792 6.8970 11.9222 0.0000 -10774.9158 1482.8614 0.0000 0.0000 1782.3010 -7482.1550 301.2747 -9264.4560 -7482.1550 301.2747 247.6905 342.7891 30482.6764 247.6905 342.7891
ENERGY: 300000 7.9057 8.1718 6.6435 0.0000 -10791.5500 1544.8415 0.0000 0.0000 1711.1603 -7512.8273 289.2493 -9223.9876 -7489.3115 295.7902 187.7911 297.5972 31005.1827 465.6322 527.8304
ENERGY: 600000 7.6813 4.3561 13.4933 0.0000 -10702.5052 1430.6314 0.0000 0.0000 1795.6783 -7450.6647 303.5359 -9246.3431 -7481.8841 297.9606 -241.2416 -169.2362 30685.9389 342.6897 410.1900
ENERGY: 900000 8.5387 5.2860 15.5325 0.0000 -10571.7001 1311.0654 0.0000 0.0000 1788.5181 -7442.7594 302.3256 -9231.2774 -7463.0039 298.6266 -1194.2813 -1166.5612 31069.7809 105.5034 172.5989
ENERGY: 1200000 8.6616 8.9280 8.0398 0.0000 -10686.7822 1423.6207 0.0000 0.0000 1796.6922 -7440.8400 303.7073 -9237.5322 -7462.3881 298.3597 -194.7055 -148.0445 30347.9843 147.4627 218.9537
ENERGY: 1500000 7.8785 3.0213 11.8846 0.0000 -10697.7133 1432.8669 0.0000 0.0000 1750.1403 -7491.9218 295.8383 -9242.0620 -7454.8110 298.2037 -257.4937 -176.0871 30426.2714 134.8445 211.6628
TCL: Running FEP window   8: Lambda1 0.35   Lambda2 0.39999999999999997 [dLambda 0.04999999999999999]
TCL: Setting parameter firsttimestep to 0
TCL: Setting parameter alchLambda to 0.35
Info: NONBONDED TABLE R-SQUARED SPACING: 0.0625
Info: NONBONDED TABLE SIZE: 705 POINTS
TCL: Setting parameter alchLambda2 to 0.39999999999999997
Info: NONBONDED TABLE R-SQUARED SPACING: 0.0625
Info: NONBONDED TABLE SIZE: 705 POINTS
TCL: Running for 1500000 steps
ETITLE: TS BOND ANGLE DIHED IMPRP ELECT VDW BOUNDARY MISC KINETIC TOTAL TEMP POTENTIAL TOTALAVG TEMPAVG PRESSURE GPRESSURE VOLUME PRESSAVG GPRESSAVG
ENERGY: 0 7.8785 3.0213 11.8846 0.0000 -10697.7131 1433.1993 0.0000 0.0000 1749.2477 -7492.4817 295.6874 -9241.7294 -7492.4817 295.6874 -250.5734 -166.3621 30426.2714 -250.5734 -166.3621
ENERGY: 300000 6.2746 2.0007 8.0887 0.0000 -10668.7582 1360.1877 0.0000 0.0000 1789.3904 -7502.8160 302.4730 -9292.2064 -7447.8212 299.7641 -665.1145 -606.8580 30131.0123 -131.4569 -83.0156
ENERGY: 600000 4.0497 4.3859 16.3088 0.0000 -10650.8093 1396.4270 0.0000 0.0000 1769.0394 -7460.5986 299.0330 -9229.6380 -7466.8696 299.4734 -267.2919 -175.6220 30594.8263 -298.1059 -248.2590
ENERGY: 900000 4.6464 6.5075 8.1138 0.0000 -10737.8662 1405.7325 0.0000 0.0000 1795.7195 -7517.1465 303.5429 -9312.8660 -7476.4359 300.1744 -682.3146 -576.1940 30467.1001 -242.9910 -187.6138
ENERGY: 1200000 8.1540 3.6174 9.4440 0.0000 -10642.3767 1406.7004 0.0000 0.0000 1707.3363 -7507.1246 288.6029 -9214.4609 -7481.0266 299.1429 -87.2763 -48.2761 30312.1393 -168.5599 -112.9639
ENERGY: 1500000 4.5682 9.5888 11.9045 0.0000 -10753.6151 1435.6381 0.0000 0.0000 1798.0468 -7493.8688 303.9363 -9291.9156 -7484.1976 299.5412 -388.9048 -285.7495 30921.8104 -151.2774 -91.7915
TCL: Running FEP window   9: Lambda1 0.39999999999999997 Lambda2 0.44999999999999996 [dLambda 0.04999999999999999]
TCL: Setting parameter firsttimestep to 0
TCL: Setting parameter alchLambda to 0.39999999999999997
Info: NONBONDED TABLE R-SQUARED SPACING: 0.0625
Info: NONBONDED TABLE SIZE: 705 POINTS
TCL: Setting parameter alchLambda2 to 0.44999999999999996
Info: NONBONDED TABLE R-SQUARED SPACING: 0.0625
Info: NONBONDED TABLE SIZE: 705 POINTS
TCL: Running for 1500000 steps
ETITLE: TS BOND ANGLE DIHED IMPRP ELECT VDW BOUNDARY MISC KINETIC TOTAL TEMP POTENTIAL TOTALAVG TEMPAVG PRESSURE GPRESSURE VOLUME PRESSAVG GPRESSAVG
ENERGY: 0 4.5682 9.5887 11.9045 0.0000 -10753.6151 1436.4641 0.0000 0.0000 1797.1618 -7493.9277 303.7867 -9291.0895 -7493.9277 303.7867 -345.3419 -271.0312 30921.8104 -345.3419 -271.0312
ENERGY: 300000 7.0054 3.5952 10.8479 0.0000 -10593.7067 1345.4892 0.0000 0.0000 1777.4192 -7449.3499 300.4495 -9226.7691 -7469.2414 300.2398 -666.3813 -701.9302 30599.9759 -319.6056 -270.8543
ENERGY: 600000 5.2380 4.0401 16.4189 0.0000 -10712.0524 1433.3897 0.0000 0.0000 1746.1382 -7506.8275 295.1618 -9252.9656 -7467.9213 301.9505 -447.6119 -388.0006 31073.4089 -24.8985 21.1562
ENERGY: 900000 8.0826 5.8523 8.6461 0.0000 -10707.2243 1449.2753 0.0000 0.0000 1793.0877 -7442.2803 303.0980 -9235.3680 -7462.4060 301.9818 36.4838 104.9593 30651.8627 38.9937 90.6755
ENERGY: 1200000 7.7584 4.6225 11.2407 0.0000 -10765.4670 1444.8369 0.0000 0.0000 1772.3030 -7524.7056 299.5846 -9297.0085 -7463.6374 301.2924 -378.3240 -339.6022 30664.3599 5.5360 56.5472
ENERGY: 1500000 8.2135 8.5704 8.5049 0.0000 -10664.5091 1451.2519 0.0000 0.0000 1743.2949 -7444.6736 294.6812 -9187.9685 -7460.8497 300.8478 13.0762 -3.7722 30764.2006 -45.4924 3.6234
TCL: Running FEP window  10: Lambda1 0.44999999999999996 Lambda2 0.49999999999999994 [dLambda 0.04999999999999999]
TCL: Setting parameter firsttimestep to 0
TCL: Setting parameter alchLambda to 0.44999999999999996
Info: NONBONDED TABLE R-SQUARED SPACING: 0.0625
Info: NONBONDED TABLE SIZE: 705 POINTS
TCL: Setting parameter alchLambda2 to 0.49999999999999994
Info: NONBONDED TABLE R-SQUARED SPACING: 0.0625
Info: NONBONDED TABLE SIZE: 705 POINTS
TCL: Running for 1500000 steps
ETITLE: TS BOND ANGLE DIHED IMPRP ELECT VDW BOUNDARY MISC KINETIC TOTAL TEMP POTENTIAL TOTALAVG TEMPAVG PRESSURE GPRESSURE VOLUME PRESSAVG GPRESSAVG
ENERGY: 0 8.2135 8.5704 8.5049 0.0000 -10664.5096 1450.5192 0.0000 0.0000 1742.4345 -7446.2672 294.5358 -9188.7017 -7446.2672 294.5358 -67.9532 1.9710 30764.2006 -67.9532 1.9710
ENERGY: 300000 6.7280 3.5318 11.3600 0.0000 -10628.9927 1405.3213 0.0000 0.0000 1754.3261 -7447.7256 296.5459 -9202.0517 -7467.9143 299.2117 -493.9253 -415.7399 30913.8136 -307.8136 -244.2931
ENERGY: 600000 5.5323 5.8659 11.7719 0.0000 -10953.4922 1549.4245 0.0000 0.0000 1756.4904 -7624.4073 296.9117 -9380.8977 -7485.0243 300.0836 528.0461 625.5426 30144.7254 -250.4381 -173.1792
ENERGY: 900000 10.0582 5.4236 11.7448 0.0000 -10705.9793 1401.3456 0.0000 0.0000 1755.4289 -7521.9781 296.7323 -9277.4071 -7475.8912 301.4109 -347.1539 -283.4592 30391.3077 -128.6986 -61.2472
ENERGY: 1200000 6.9009 8.6310 11.2086 0.0000 -10698.9072 1443.8879 0.0000 0.0000 1716.9477 -7511.3310 290.2275 -9228.2787 -7471.3240 300.6642 -372.2089 -333.6181 30878.9535 -149.3107 -91.4110
ENERGY: 1500000 5.1619 6.5964 12.6541 0.0000 -10574.1337 1364.6699 0.0000 0.0000 1737.0551 -7447.9964 293.6264 -9185.0515 -7467.4466 300.1604 -294.5825 -254.9231 30681.1950 -88.4652 -30.4019
TCL: Running FEP window  11: Lambda1 0.49999999999999994 Lambda2 0.5499999999999999 [dLambda 0.04999999999999999]
TCL: Setting parameter firsttimestep to 0
TCL: Setting parameter alchLambda to 0.49999999999999994
Info: NONBONDED TABLE R-SQUARED SPACING: 0.0625
Info: NONBONDED TABLE SIZE: 705 POINTS
TCL: Setting parameter alchLambda2 to 0.5499999999999999
Info: NONBONDED TABLE R-SQUARED SPACING: 0.0625
Info: NONBONDED TABLE SIZE: 705 POINTS
TCL: Running for 1500000 steps
ETITLE: TS BOND ANGLE DIHED IMPRP ELECT VDW BOUNDARY MISC KINETIC TOTAL TEMP POTENTIAL TOTALAVG TEMPAVG PRESSURE GPRESSURE VOLUME PRESSAVG GPRESSAVG
ENERGY: 0 5.1618 6.5964 12.6541 0.0000 -10574.1312 1364.2987 0.0000 0.0000 1736.1461 -7449.2741 293.4728 -9185.4202 -7449.2741 293.4728 -332.9863 -248.8483 30681.1950 -332.9863 -248.8483
ENERGY: 300000 9.7004 6.0408 10.9106 0.0000 -10724.2828 1431.2018 0.0000 0.0000 1755.1862 -7511.2430 296.6913 -9266.4292 -7460.9052 298.9249 -219.9997 -108.8219 30534.2315 -266.1667 -190.0654
ENERGY: 600000 6.9746 4.7167 10.5585 0.0000 -10604.5655 1305.3923 0.0000 0.0000 1806.6362 -7470.2872 305.3882 -9276.9234 -7491.3148 297.5677 -1198.3982 -1114.4405 30833.5169 -281.1405 -216.8103
ENERGY: 900000 5.3266 6.9946 10.9503 0.0000 -10683.4367 1434.5715 0.0000 0.0000 1789.4049 -7436.1888 302.4755 -9225.5937 -7483.1109 298.4611 11.6799 38.2951 30507.7657 -202.7375 -136.5838
ENERGY: 1200000 7.6000 7.2973 8.1019 0.0000 -10761.7960 1421.7341 0.0000 0.0000 1762.0016 -7555.0611 297.8433 -9317.0627 -7485.2162 298.6691 -252.1769 -194.5829 30528.7126 -169.3313 -104.6809
ENERGY: 1500000 8.2828 7.1280 11.2376 0.0000 -10650.4097 1383.8047 0.0000 0.0000 1820.0518 -7419.9049 307.6559 -9239.9567 -7480.4212 299.8831 -433.0161 -402.7550 30658.2193 -164.4225 -102.3621
TCL: Running FEP window  12: Lambda1 0.5499999999999999 Lambda2 0.6    [dLambda 0.050000000000000044]
TCL: Setting parameter firsttimestep to 0
TCL: Setting parameter alchLambda to 0.5499999999999999
Info: NONBONDED TABLE R-SQUARED SPACING: 0.0625
Info: NONBONDED TABLE SIZE: 705 POINTS
TCL: Setting parameter alchLambda2 to 0.6
Info: NONBONDED TABLE R-SQUARED SPACING: 0.0625
Info: NONBONDED TABLE SIZE: 705 POINTS
TCL: Running for 1500000 steps
ETITLE: TS BOND ANGLE DIHED IMPRP ELECT VDW BOUNDARY MISC KINETIC TOTAL TEMP POTENTIAL TOTALAVG TEMPAVG PRESSURE GPRESSURE VOLUME PRESSAVG GPRESSAVG
ENERGY: 0 8.2828 7.1280 11.2376 0.0000 -10650.2457 1384.0581 0.0000 0.0000 1819.1294 -7420.4100 307.5000 -9239.5394 -7420.4100 307.5000 -473.0293 -384.1976 30658.2193 -473.0293 -384.1976
ENERGY: 300000 7.4542 8.2387 11.1309 0.0000 -10632.8284 1451.4237 0.0000 0.0000 1725.9732 -7428.6078 291.7532 -9154.5810 -7450.3758 301.2954 335.9388 377.2849 30725.9800 -151.3269 -79.2650
ENERGY: 600000 6.9190 5.2437 12.5337 0.0000 -10932.0886 1572.0211 0.0000 0.0000 1793.5518 -7541.8193 303.1765 -9335.3711 -7477.1820 300.5597 1145.1236 1153.0082 30452.6504 99.1050 171.1172
ENERGY: 900000 6.2146 2.5699 8.6077 0.0000 -10712.9674 1456.4690 0.0000 0.0000 1782.2086 -7456.8977 301.2590 -9239.1063 -7472.4974 300.8741 85.4035 164.7836 30690.8417 -54.3678 11.9098
ENERGY: 1200000 7.5325 5.7291 9.3897 0.0000 -10620.8196 1412.5375 0.0000 0.0000 1758.9259 -7426.7049 297.3234 -9185.6308 -7464.8399 300.9570 77.2366 200.9335 30405.2677 -42.1751 24.9308
ENERGY: 1500000 5.6617 5.0719 9.7457 0.0000 -10651.6937 1356.9414 0.0000 0.0000 1819.1905 -7455.0826 307.5103 -9274.2731 -7465.1468 301.1022 -804.2688 -730.0066 30797.2653 -79.9638 -20.2952
TCL: Running FEP window  13: Lambda1 0.6    Lambda2 0.65   [dLambda 0.050000000000000044]
TCL: Setting parameter firsttimestep to 0
TCL: Setting parameter alchLambda to 0.6
Info: NONBONDED TABLE R-SQUARED SPACING: 0.0625
Info: NONBONDED TABLE SIZE: 705 POINTS
TCL: Setting parameter alchLambda2 to 0.65
Info: NONBONDED TABLE R-SQUARED SPACING: 0.0625
Info: NONBONDED TABLE SIZE: 705 POINTS
TCL: Running for 1500000 steps
ETITLE: TS BOND ANGLE DIHED IMPRP ELECT VDW BOUNDARY MISC KINETIC TOTAL TEMP POTENTIAL TOTALAVG TEMPAVG PRESSURE GPRESSURE VOLUME PRESSAVG GPRESSAVG
ENERGY: 0 5.6617 5.0719 9.7457 0.0000 -10651.8766 1356.3852 0.0000 0.0000 1818.3324 -7456.6798 307.3653 -9275.0122 -7456.6798 307.3653 -813.3445 -723.5869 30797.2653 -813.3445 -723.5869
ENERGY: 300000 7.5432 3.2306 14.3604 0.0000 -10728.2678 1434.9621 0.0000 0.0000 1811.3358 -7456.8356 306.1826 -9268.1714 -7460.9078 301.6314 42.5205 88.8772 30763.3118 -185.6442 -135.2428
ENERGY: 600000 6.3866 3.9341 11.5286 0.0000 -10628.0532 1373.5542 0.0000 0.0000 1845.7566 -7386.8932 312.0010 -9232.6498 -7457.4761 303.8115 -315.3025 -291.6025 30667.4996 -215.6730 -160.9027
ENERGY: 900000 4.6609 2.6931 11.8842 0.0000 -10855.0780 1529.8330 0.0000 0.0000 1750.9485 -7555.0584 295.9749 -9306.0069 -7468.2683 301.9916 360.0379 425.2217 30814.3932 -6.8638 50.6033
ENERGY: 1200000 3.8650 5.9956 9.3308 0.0000 -10795.9742 1539.4104 0.0000 0.0000 1806.7550 -7430.6174 305.4083 -9237.3724 -7478.9540 301.6149 1122.4207 1236.9961 30193.8537 73.4116 136.4459
ENERGY: 1500000 7.3645 4.3396 8.7933 0.0000 -10739.0849 1483.1721 0.0000 0.0000 1784.3459 -7451.0696 301.6203 -9235.4155 -7477.5928 300.5073 605.5723 651.9172 30276.3841 21.6055 85.4189
TCL: Running FEP window  14: Lambda1 0.65   Lambda2 0.7000000000000001 [dLambda 0.050000000000000044]
TCL: Setting parameter firsttimestep to 0
TCL: Setting parameter alchLambda to 0.65
Info: NONBONDED TABLE R-SQUARED SPACING: 0.0625
Info: NONBONDED TABLE SIZE: 705 POINTS
TCL: Setting parameter alchLambda2 to 0.7000000000000001
Info: NONBONDED TABLE R-SQUARED SPACING: 0.0625
Info: NONBONDED TABLE SIZE: 705 POINTS
TCL: Running for 1500000 steps
ETITLE: TS BOND ANGLE DIHED IMPRP ELECT VDW BOUNDARY MISC KINETIC TOTAL TEMP POTENTIAL TOTALAVG TEMPAVG PRESSURE GPRESSURE VOLUME PRESSAVG GPRESSAVG
ENERGY: 0 7.3645 4.3396 8.7933 0.0000 -10739.5061 1483.3479 0.0000 0.0000 1783.5072 -7452.1538 301.4785 -9235.6609 -7452.1538 301.4785 600.3047 666.9495 30276.3841 600.3047 666.9495
ENERGY: 300000 3.0684 4.4035 13.4135 0.0000 -10902.2346 1561.6866 0.0000 0.0000 1797.8477 -7521.8149 303.9026 -9319.6626 -7459.0499 299.7226 943.0606 1013.5113 30192.8286 269.0201 347.3632
ENERGY: 600000 5.8119 9.4418 10.0639 0.0000 -10807.4012 1482.2980 0.0000 0.0000 1746.6574 -7553.1281 295.2496 -9299.7856 -7468.8724 299.8171 112.1747 163.7636 30969.9399 312.7031 374.7315
ENERGY: 900000 4.9130 6.8500 8.8344 0.0000 -10794.4020 1451.1416 0.0000 0.0000 1797.0558 -7525.6071 303.7688 -9322.6629 -7481.7880 299.7383 -29.7045 1.3796 30199.8674 247.6458 309.6374
ENERGY: 1200000 6.0986 4.2997 10.3411 0.0000 -10731.3526 1438.9490 0.0000 0.0000 1782.1397 -7489.5245 301.2474 -9271.6642 -7486.8186 300.0669 -67.1750 28.4856 30723.9295 162.9481 229.9700
ENERGY: 1500000 4.5273 8.9552 13.1218 0.0000 -10506.1462 1352.4688 0.0000 0.0000 1757.6723 -7369.4008 297.1115 -9127.0732 -7476.2347 300.2557 -500.5044 -409.3447 30855.9576 145.4708 217.3812
TCL: Running FEP window  15: Lambda1 0.7000000000000001 Lambda2 0.7500000000000001 [dLambda 0.050000000000000044]
TCL: Setting parameter firsttimestep to 0
TCL: Setting parameter alchLambda to 0.7000000000000001
Info: NONBONDED TABLE R-SQUARED SPACING: 0.0625
Info: NONBONDED TABLE SIZE: 705 POINTS
TCL: Setting parameter alchLambda2 to 0.7500000000000001
Info: NONBONDED TABLE R-SQUARED SPACING: 0.0625
Info: NONBONDED TABLE SIZE: 705 POINTS
TCL: Running for 1500000 steps
ETITLE: TS BOND ANGLE DIHED IMPRP ELECT VDW BOUNDARY MISC KINETIC TOTAL TEMP POTENTIAL TOTALAVG TEMPAVG PRESSURE GPRESSURE VOLUME PRESSAVG GPRESSAVG
ENERGY: 0 4.5273 8.9552 13.1218 0.0000 -10506.6528 1352.0373 0.0000 0.0000 1756.8046 -7371.2067 296.9648 -9128.0113 -7371.2067 296.9648 -497.6925 -398.4105 30855.9576 -497.6925 -398.4105
ENERGY: 300000 5.9869 7.2317 10.3822 0.0000 -10675.8184 1414.2049 0.0000 0.0000 1781.0505 -7456.9624 301.0633 -9238.0129 -7430.0758 298.9810 20.8653 14.2143 30817.6711 -241.5955 -186.2752
ENERGY: 600000 5.3060 4.5563 15.2320 0.0000 -10689.9814 1438.3346 0.0000 0.0000 1761.8877 -7464.6648 297.8241 -9226.5525 -7456.5807 298.4017 -85.3714 -16.9442 31066.3333 -59.0627 -0.5035
ENERGY: 900000 6.1360 6.1862 14.9581 0.0000 -10767.8418 1426.0254 0.0000 0.0000 1786.8795 -7527.6566 302.0486 -9314.5360 -7469.0203 297.8292 106.7618 207.4063 30130.0961 -217.9598 -154.9987
ENERGY: 1200000 5.4509 4.3958 14.2495 0.0000 -10613.1383 1416.0150 0.0000 0.0000 1754.4775 -7418.5496 296.5715 -9173.0271 -7457.6468 298.7431 204.0123 258.0375 30678.8910 -135.8282 -74.2872
ENERGY: 1500000 2.6618 9.7077 11.4209 0.0000 -10632.6972 1352.4251 0.0000 0.0000 1791.9283 -7464.5535 302.9020 -9256.4817 -7459.7973 299.1038 -652.8394 -653.7227 30805.8182 -177.8827 -121.6336
TCL: Running FEP window  16: Lambda1 0.7500000000000001 Lambda2 0.8000000000000002 [dLambda 0.050000000000000044]
TCL: Setting parameter firsttimestep to 0
TCL: Setting parameter alchLambda to 0.7500000000000001
Info: NONBONDED TABLE R-SQUARED SPACING: 0.0625
Info: NONBONDED TABLE SIZE: 705 POINTS
TCL: Setting parameter alchLambda2 to 0.8000000000000002
Info: NONBONDED TABLE R-SQUARED SPACING: 0.0625
Info: NONBONDED TABLE SIZE: 705 POINTS
TCL: Running for 1500000 steps
ETITLE: TS BOND ANGLE DIHED IMPRP ELECT VDW BOUNDARY MISC KINETIC TOTAL TEMP POTENTIAL TOTALAVG TEMPAVG PRESSURE GPRESSURE VOLUME PRESSAVG GPRESSAVG
ENERGY: 0 2.6618 9.7077 11.4209 0.0000 -10632.9808 1351.5631 0.0000 0.0000 1791.0577 -7466.5696 302.7549 -9257.6273 -7466.5696 302.7549 -735.5448 -644.0698 30805.8182 -735.5448 -644.0698
ENERGY: 300000 5.0006 4.3525 13.0159 0.0000 -10661.8720 1401.0991 0.0000 0.0000 1800.9853 -7437.4186 304.4330 -9238.4039 -7467.6741 300.2550 -336.3105 -252.9703 30915.0861 -337.9847 -256.0460
ENERGY: 600000 5.9234 4.1817 7.6476 0.0000 -10723.0365 1453.1956 0.0000 0.0000 1812.3511 -7439.7371 306.3542 -9252.0882 -7461.5437 301.2362 160.1513 178.5845 30809.6837 -251.6934 -205.9817
ENERGY: 900000 4.8157 6.0514 11.2964 0.0000 -10798.4787 1437.8479 0.0000 0.0000 1756.0590 -7582.4083 296.8388 -9338.4674 -7449.6468 301.8873 -345.6330 -314.3281 30623.5323 -106.5791 -57.0249
ENERGY: 1200000 3.2628 5.6651 9.5095 0.0000 -10667.0407 1466.0631 0.0000 0.0000 1750.2017 -7432.3385 295.8487 -9182.5402 -7463.5564 300.2613 491.6363 528.4868 30731.3017 -99.8966 -45.7014
ENERGY: 1500000 5.7359 3.3229 12.9432 0.0000 -10896.9540 1513.9940 0.0000 0.0000 1729.7435 -7631.2145 292.3905 -9360.9580 -7476.9700 299.3722 323.7121 412.9833 30426.8796 -110.7655 -55.3068
TCL: Running FEP window  17: Lambda1 0.8000000000000002 Lambda2 0.8500000000000002 [dLambda 0.050000000000000044]
TCL: Setting parameter firsttimestep to 0
TCL: Setting parameter alchLambda to 0.8000000000000002
Info: NONBONDED TABLE R-SQUARED SPACING: 0.0625
Info: NONBONDED TABLE SIZE: 705 POINTS
TCL: Setting parameter alchLambda2 to 0.8500000000000002
Info: NONBONDED TABLE R-SQUARED SPACING: 0.0625
Info: NONBONDED TABLE SIZE: 705 POINTS
TCL: Running for 1500000 steps
ETITLE: TS BOND ANGLE DIHED IMPRP ELECT VDW BOUNDARY MISC KINETIC TOTAL TEMP POTENTIAL TOTALAVG TEMPAVG PRESSURE GPRESSURE VOLUME PRESSAVG GPRESSAVG
ENERGY: 0 5.7359 3.3229 12.9432 0.0000 -10897.4863 1514.1584 0.0000 0.0000 1728.8943 -7632.4317 292.2469 -9361.3259 -7632.4317 292.2469 333.9042 429.8558 30426.8796 333.9042 429.8558
ENERGY: 300000 12.2492 4.3483 10.7035 0.0000 -10619.7667 1383.2446 0.0000 0.0000 1784.4483 -7424.7728 301.6376 -9209.2211 -7499.7847 301.6521 -50.2424 21.8831 30063.3349 111.8843 187.5752
ENERGY: 600000 5.4833 1.6109 12.3229 0.0000 -10856.4065 1519.9358 0.0000 0.0000 1775.0721 -7541.9816 300.0527 -9317.0537 -7490.6231 301.0945 573.5115 620.3354 30298.5150 199.0687 250.3004
ENERGY: 900000 3.0739 3.6288 13.8846 0.0000 -10797.0929 1502.5395 0.0000 0.0000 1783.3744 -7490.5916 301.4561 -9273.9660 -7489.1044 301.4088 697.3638 697.9731 30365.7068 239.4825 281.4105
ENERGY: 1200000 7.2139 3.4103 8.6913 0.0000 -10849.4982 1473.1594 0.0000 0.0000 1766.3993 -7590.6239 298.5867 -9357.0232 -7476.9873 302.8984 427.1814 526.1316 30056.8011 125.5615 170.9256
ENERGY: 1500000 5.5011 6.7946 9.2960 0.0000 -10742.9813 1507.9691 0.0000 0.0000 1750.2935 -7463.1271 295.8642 -9213.4206 -7469.8717 302.8402 581.0426 667.2924 30657.3556 107.5511 157.8807
TCL: Running FEP window  18: Lambda1 0.8500000000000002 Lambda2 0.9000000000000002 [dLambda 0.050000000000000044]
TCL: Setting parameter firsttimestep to 0
TCL: Setting parameter alchLambda to 0.8500000000000002
Info: NONBONDED TABLE R-SQUARED SPACING: 0.0625
Info: NONBONDED TABLE SIZE: 705 POINTS
TCL: Setting parameter alchLambda2 to 0.9000000000000002
Info: NONBONDED TABLE R-SQUARED SPACING: 0.0625
Info: NONBONDED TABLE SIZE: 705 POINTS
TCL: Running for 1500000 steps
ETITLE: TS BOND ANGLE DIHED IMPRP ELECT VDW BOUNDARY MISC KINETIC TOTAL TEMP POTENTIAL TOTALAVG TEMPAVG PRESSURE GPRESSURE VOLUME PRESSAVG GPRESSAVG
ENERGY: 0 5.5011 6.7946 9.2960 0.0000 -10743.2527 1507.4951 0.0000 0.0000 1749.4257 -7464.7402 295.7175 -9214.1660 -7464.7402 295.7175 588.0158 681.4218 30657.3556 588.0158 681.4218
ENERGY: 300000 3.2560 4.5825 8.5330 0.0000 -10818.7916 1513.9709 0.0000 0.0000 1727.4516 -7560.9976 292.0031 -9288.4492 -7484.6304 297.0235 523.1234 627.2689 30656.9072 147.4149 244.6701
ENERGY: 600000 7.3184 3.5760 10.3980 0.0000 -10737.2029 1439.6041 0.0000 0.0000 1714.7116 -7561.5948 289.8496 -9276.3064 -7499.1868 295.5128 11.2697 94.6707 30810.2136 117.4328 200.7369
ENERGY: 900000 4.2272 3.6158 11.7737 0.0000 -10729.5674 1445.4179 0.0000 0.0000 1730.0855 -7534.4474 292.4483 -9264.5329 -7502.2267 296.7878 -157.0718 -122.6230 31029.7487 -27.9665 49.2095
ENERGY: 1200000 5.9959 6.8762 12.7941 0.0000 -10766.3144 1487.0583 0.0000 0.0000 1777.5969 -7475.9930 300.4795 -9253.5899 -7489.0134 297.8824 399.3710 496.5077 30759.1736 53.4367 123.9109
ENERGY: 1500000 9.6892 4.1475 12.2060 0.0000 -10643.0568 1337.0507 0.0000 0.0000 1742.7017 -7537.2616 294.5809 -9279.9633 -7501.7275 297.5291 -1088.2590 -951.5351 30745.4158 -79.4574 -9.6096
TCL: Running FEP window  19: Lambda1 0.9000000000000002 Lambda2 0.9500000000000003 [dLambda 0.050000000000000044]
TCL: Setting parameter firsttimestep to 0
TCL: Setting parameter alchLambda to 0.9000000000000002
Info: NONBONDED TABLE R-SQUARED SPACING: 0.0625
Info: NONBONDED TABLE SIZE: 705 POINTS
TCL: Setting parameter alchLambda2 to 0.9500000000000003
Info: NONBONDED TABLE R-SQUARED SPACING: 0.0625
Info: NONBONDED TABLE SIZE: 705 POINTS
TCL: Running for 1500000 steps
ETITLE: TS BOND ANGLE DIHED IMPRP ELECT VDW BOUNDARY MISC KINETIC TOTAL TEMP POTENTIAL TOTALAVG TEMPAVG PRESSURE GPRESSURE VOLUME PRESSAVG GPRESSAVG
ENERGY: 0 9.6892 4.1475 12.2060 0.0000 -10643.4593 1337.6321 0.0000 0.0000 1741.7748 -7538.0096 294.4242 -9279.7844 -7538.0096 294.4242 -1002.0810 -923.5331 30745.4158 -1002.0810 -923.5331
ENERGY: 300000 7.1633 7.4166 11.8094 0.0000 -10578.9934 1349.6894 0.0000 0.0000 1744.3503 -7458.5644 294.8596 -9202.9148 -7482.7302 296.9855 -580.3412 -566.4159 31033.4990 -570.9403 -507.3111
ENERGY: 600000 5.7704 6.6260 9.4214 0.0000 -10690.7228 1442.0459 0.0000 0.0000 1771.0690 -7455.7901 299.3760 -9226.8591 -7486.9901 296.7157 -188.2085 -28.2630 30532.2116 -407.8310 -317.5038
ENERGY: 900000 5.2540 6.0486 11.9796 0.0000 -10596.2977 1406.9745 0.0000 0.0000 1756.6752 -7409.3659 296.9429 -9166.0411 -7471.3195 297.6784 34.5580 109.0968 30501.2407 -295.6729 -205.0767
ENERGY: 1200000 4.7828 5.7543 12.2664 0.0000 -10724.3365 1376.3011 0.0000 0.0000 1769.1749 -7556.0570 299.0559 -9325.2319 -7476.9636 297.5351 -521.2529 -465.1048 30593.7506 -392.7837 -306.4641
ENERGY: 1500000 7.9003 7.7854 14.6663 0.0000 -10775.2331 1449.0352 0.0000 0.0000 1772.5793 -7523.2667 299.6313 -9295.8460 -7479.8397 298.5170 20.5635 53.0301 30743.8309 -237.2898 -165.1076
TCL: Running FEP window  20: Lambda1 0.9500000000000003 Lambda2 1.0    [dLambda 0.04999999999999971]
TCL: Setting parameter firsttimestep to 0
TCL: Setting parameter alchLambda to 0.9500000000000003
Info: NONBONDED TABLE R-SQUARED SPACING: 0.0625
Info: NONBONDED TABLE SIZE: 705 POINTS
TCL: Setting parameter alchLambda2 to 1.0
Info: NONBONDED TABLE R-SQUARED SPACING: 0.0625
Info: NONBONDED TABLE SIZE: 705 POINTS
TCL: Running for 1500000 steps
ETITLE: TS BOND ANGLE DIHED IMPRP ELECT VDW BOUNDARY MISC KINETIC TOTAL TEMP POTENTIAL TOTALAVG TEMPAVG PRESSURE GPRESSURE VOLUME PRESSAVG GPRESSAVG
ENERGY: 0 7.9003 7.7854 14.6663 0.0000 -10775.3225 1448.7928 0.0000 0.0000 1771.7049 -7524.4728 299.4835 -9296.1777 -7524.4728 299.4835 -11.9328 68.2163 30743.8309 -11.9328 68.2163
ENERGY: 300000 6.2361 4.6491 11.6169 0.0000 -10665.4088 1379.0350 0.0000 0.0000 1781.7842 -7482.0876 301.1873 -9263.8717 -7514.1461 299.2051 -493.7069 -404.9413 30774.8316 199.9174 272.5703
ENERGY: 600000 9.9520 4.7140 8.4703 0.0000 -10475.1775 1289.9222 0.0000 0.0000 1780.3029 -7381.8162 300.9369 -9162.1191 -7485.3369 299.2294 -1045.6755 -936.4170 31089.6296 12.6935 88.4276
ENERGY: 900000 9.4367 5.9306 12.2477 0.0000 -10681.2847 1366.2731 0.0000 0.0000 1713.6508 -7573.7458 289.6702 -9287.3967 -7488.5803 299.3634 -653.1367 -614.9768 30543.2052 112.4942 173.9929
ENERGY: 1200000 7.1828 4.4485 12.5344 0.0000 -10821.1649 1484.2891 0.0000 0.0000 1782.9689 -7529.7412 301.3876 -9312.7101 -7489.6021 299.8771 369.2302 434.4891 30390.5708 12.3917 73.7481
ENERGY: 1500000 4.7615 2.2353 10.2048 0.0000 -10794.5794 1468.2010 0.0000 0.0000 1746.6426 -7562.5342 295.2471 -9309.1768 -7499.1769 299.8649 393.3575 421.2731 30288.9296 -7.8824 55.0866
TCL: Exiting due to exit command.
