Info: SIMULATION PARAMETERS:
Info: TIMESTEP               2
Info: NUMBER OF STEPS        0
Info: STEPS PER CYCLE        10
Info: PERIODIC CELL BASIS 1  31.57 0 0
Info: PERIODIC CELL BASIS 2  0 30.0399 0
Info: PERIODIC CELL BASIS 3  0 0 31.3227
Info: PERIODIC CELL CENTER   0 0 0
Info: WRAPPING WATERS AROUND PERIODIC BOUNDARIES ON OUTPUT.
Info: WRAPPING ALL CLUSTERS AROUND PERIODIC BOUNDARIES ON OUTPUT.
Info: FIRST LDB TIMESTEP     50
Info: LAST LDB TIMESTEP     -1
Info: HOM BACKGROUND SCALING 1
Info: PME BACKGROUND SCALING 1
Info: MIN ATOMS PER PATCH    40
Info: EMPTY PATCH LOAD       40 ATOMS
Info: VELOCITY FILE          mobley_8798016_equil.vel
Info: CENTER OF MASS MOVING INITIALLY? NO
Info: DIELECTRIC             1
Info: EXCLUDE                SCALED ONE-FOUR
Info: 1-4 ELECTROSTATICS SCALED BY 0.833333
Info: MODIFIED 1-4 VDW PARAMETERS WILL BE USED
Info: DCD FILENAME           mobley_8798016_prod.dcd
Info: DCD FREQUENCY          100000
Info: DCD FIRST STEP         100000
Info: DCD FILE WILL CONTAIN UNIT CELL DATA
Info: XST FILENAME           mobley_8798016_prod.xst
Info: XST FREQUENCY          100000
Info: NO VELOCITY DCD OUTPUT
Info: NO FORCE DCD OUTPUT
Info: OUTPUT FILENAME        mobley_8798016_prod
Info: BINARY OUTPUT FILES WILL BE USED
Info: RESTART FILENAME       mobley_8798016_prod.restart
Info: RESTART FREQUENCY      100000
Info: BINARY RESTART FILES WILL BE USED
Info: CUTOFF                 9
Info: PAIRLIST DISTANCE      11
Info: PAIRLIST SHRINK RATE   0.01
Info: PAIRLIST GROW RATE     0.01
Info: PAIRLIST TRIGGER       0.3
Info: PAIRLISTS PER CYCLE    2
Info: PAIRLISTS ENABLED
Info: MARGIN                 2
Info: HYDROGEN GROUP CUTOFF  2.5
Info: PATCH DIMENSION        15.5
Info: ENERGY OUTPUT STEPS    100000
Info: ENERGY EVALUATION STEPS    100000
Info: OUTPUT ENERGY PRECISION 4
Info: CROSSTERM ENERGY INCLUDED IN DIHEDRAL
Info: TIMING OUTPUT STEPS    1000000
Info: PRESSURE OUTPUT STEPS  100000
Info: ALCHEMICAL FEP ON
Info: FEP CURRENT LAMBDA VALUE     0
Info: FEP COMPARISON LAMBDA VALUE  0.05
Info: FEP INTRA-ALCHEMICAL NON-BONDED INTERACTIONS WILL BE RETAINED
Info: FEP INTRA-ALCHEMICAL BONDED INTERACTIONS WILL BE RETAINED
Info: FEP VDW SHIFTING COEFFICIENT 5
Info: FEP ELEC. ACTIVE FOR ANNIHILATED PARTICLES BETWEEN LAMBDA = 0 AND LAMBDA = 0.5
Info: FEP ELEC. ACTIVE FOR EXNIHILATED PARTICLES BETWEEN LAMBDA = 0.5 AND LAMBDA = 1
Info: FEP VDW ACTIVE FOR ANNIHILATED PARTICLES BETWEEN LAMBDA = 0 AND LAMBDA = 1
Info: FEP VDW ACTIVE FOR EXNIHILATED PARTICLES BETWEEN LAMBDA = 0 AND LAMBDA = 1
Info: FEP BOND ACTIVE FOR ANNIHILATED PARTICLES BETWEEN LAMBDA = 1 AND LAMBDA = 1
Info: FEP BOND ACTIVE FOR EXNIHILATED PARTICLES BETWEEN LAMBDA = 0 AND LAMBDA = 0
Info: LANGEVIN DYNAMICS ACTIVE
Info: LANGEVIN TEMPERATURE   300
Info: LANGEVIN USING BBK INTEGRATOR
Info: LANGEVIN DAMPING COEFFICIENT IS 1 INVERSE PS
Info: LANGEVIN DYNAMICS APPLIED TO HYDROGENS
Info: LANGEVIN PISTON PRESSURE CONTROL ACTIVE
Info:        TARGET PRESSURE IS 1.01325 BAR
Info:     OSCILLATION PERIOD IS 50 FS
Info:             DECAY TIME IS 25 FS
Info:     PISTON TEMPERATURE IS 300 K
Info:       PRESSURE CONTROL IS GROUP-BASED
Info:    INITIAL STRAIN RATE IS -0.000562505 -0.000562505 -0.000562505
Info:       CELL FLUCTUATION IS ISOTROPIC
Info: PARTICLE MESH EWALD (PME) ACTIVE
Info: PME TOLERANCE               1e-06
Info: PME EWALD COEFFICIENT       0.348832
Info: PME INTERPOLATION ORDER     4
Info: PME GRID DIMENSIONS         32 32 32
Info: PME MAXIMUM GRID SPACING    1
Info: PME CALCULATION WILL BE PERFORMED ON GPU
Info: FULL ELECTROSTATIC EVALUATION FREQUENCY      2
Info: USING VERLET I (r-RESPA) MTS SCHEME.
Info: C1 SPLITTING OF LONG RANGE ELECTROSTATICS
Info: PLACING ATOMS IN PATCHES BY HYDROGEN GROUPS
Info: RIGID BONDS TO HYDROGEN : ALL
Info:         ERROR TOLERANCE : 1e-08
Info:          MAX ITERATIONS : 100
Info: RIGID WATER USING SETTLE ALGORITHM
Info: RANDOM NUMBER SEED     1743732544
Info: USE HYDROGEN BONDS?    NO
Info: Using AMBER format force field!
Info: AMBER PARM FILE        mobley_8798016.prmtop
Info: COORDINATE PDB         mobley_8798016.pdb
Info: Exclusions will be read from PARM file!
Info: SCNB (VDW SCALING)     2
Info: USING ARITHMETIC MEAN TO COMBINE L-J SIGMA PARAMETERS
Info: BINARY COORDINATES     mobley_8798016_equil.coor
Info: SUMMARY OF PARAMETERS:
Info: 9 BONDS
Info: 10 ANGLES
Info:   10 HARMONIC
Info:   0 COSINE-BASED
Info: 5 DIHEDRAL
Info: 0 IMPROPER
Info: 0 CROSSTERM
Info: 0 VDW
Info: 28 VDW_PAIRS
Info: 0 NBTHOLE_PAIRS
Info: To read alchdata from file: mobley_8798016.pdb
Info: To read alchflag data from column: 5
Info: STRUCTURE SUMMARY:
Info: 2947 ATOMS
Info: 2947 BONDS
Info: 19 ANGLES
Info: 30 DIHEDRALS
Info: 0 IMPROPERS
Info: 0 CROSSTERMS
Info: 2987 EXCLUSIONS
Info: 2939 RIGID BONDS
Info: ALCH: 0 ATOMS TO DISAPPEAR IN FINAL STATE
Info: ALCH: 13 ATOMS TO APPEAR IN FINAL STATE
Info: 5902 DEGREES OF FREEDOM
Info: 986 HYDROGEN GROUPS
Info: 3 ATOMS IN LARGEST HYDROGEN GROUP
Info: 986 MIGRATION GROUPS
Info: 3 ATOMS IN LARGEST MIGRATION GROUP
Info: TOTAL MASS = 17726.8 amu
Info: TOTAL CHARGE = -0.000299999 e
Info: MASS DENSITY = 0.990961 g/cm^3
Info: ATOM DENSITY = 0.0992083 atoms/A^3
Info: ADDED 0 IMPLICIT EXCLUSIONS
Info: NONBONDED TABLE R-SQUARED SPACING: 0.0625
Info: NONBONDED TABLE SIZE: 705 POINTS
Info: REMOVING COM VELOCITY -0.0532559 -0.0138929 0.0310539
Info: Use 3D box decompostion in PME FFT.
Info: Updated CUDA force table with 4096 elements.
Info: Updated CUDA LJ table with 7 x 7 elements.
Info: Found 14 unique exclusion lists needing 24 bytes
TCL: Running for 1500000 steps
ETITLE: TS BOND ANGLE DIHED IMPRP ELECT VDW BOUNDARY MISC KINETIC TOTAL TEMP POTENTIAL TOTALAVG TEMPAVG PRESSURE GPRESSURE VOLUME PRESSAVG GPRESSAVG
ENERGY: 0 0.8218 5.2372 2.1500 0.0000 -10786.4883 1479.8838 0.0000 0.0000 1730.4372 -7567.9583 295.0849 -9298.3955 -7567.9583 295.0849 412.9874 501.5957 29705.1810 412.9874 501.5957
ENERGY: 300000 1.6695 4.3666 4.0435 0.0000 -10630.1492 1382.6218 0.0000 0.0000 1779.0267 -7458.4211 303.3707 -9237.4478 -7467.1328 299.7766 -716.7221 -595.5856 30606.3837 2.0897 78.7333
ENERGY: 600000 3.7951 1.2873 2.5925 0.0000 -10622.1361 1412.5894 0.0000 0.0000 1788.3199 -7413.5518 304.9554 -9201.8717 -7435.9808 301.1165 -114.5130 12.5128 29962.8068 -125.7450 -31.8156
ENERGY: 900000 2.2751 3.2688 5.1651 0.0000 -10616.8303 1411.2051 0.0000 0.0000 1777.5392 -7417.3770 303.1170 -9194.9162 -7443.7764 300.7243 -74.8339 -0.2890 29952.3136 -114.7775 -37.7006
ENERGY: 1200000 1.9537 2.3392 2.7739 0.0000 -10555.3086 1316.9997 0.0000 0.0000 1745.4278 -7485.8143 297.6412 -9231.2421 -7457.7347 300.4976 -1219.7900 -1195.4361 30814.5702 -193.1066 -127.2000
ENERGY: 1500000 3.3225 4.2618 3.0813 0.0000 -10636.0613 1408.8652 0.0000 0.0000 1748.3749 -7468.1555 298.1438 -9216.5304 -7464.2880 300.2549 -482.7228 -365.3390 30392.2354 -207.9769 -135.0590
TCL: Running FEP window   2: Lambda1 0.05   Lambda2 0.1    [dLambda 0.05  ]
TCL: Setting parameter firsttimestep to 0
TCL: Setting parameter alchLambda to 0.05
Info: NONBONDED TABLE R-SQUARED SPACING: 0.0625
Info: NONBONDED TABLE SIZE: 705 POINTS
TCL: Setting parameter alchLambda2 to 0.1
Info: NONBONDED TABLE R-SQUARED SPACING: 0.0625
Info: NONBONDED TABLE SIZE: 705 POINTS
TCL: Running for 1500000 steps
ETITLE: TS BOND ANGLE DIHED IMPRP ELECT VDW BOUNDARY MISC KINETIC TOTAL TEMP POTENTIAL TOTALAVG TEMPAVG PRESSURE GPRESSURE VOLUME PRESSAVG GPRESSAVG
ENERGY: 0 3.3225 4.2618 3.0813 0.0000 -10636.0620 1412.1464 0.0000 0.0000 1747.5409 -7465.7091 298.0015 -9213.2500 -7465.7091 298.0015 -439.5625 -355.8604 30392.2354 -439.5625 -355.8604
ENERGY: 300000 1.8475 2.2547 0.9716 0.0000 -10657.4831 1480.6029 0.0000 0.0000 1726.9785 -7444.8279 294.4951 -9171.8064 -7454.2625 297.2062 330.2969 380.8751 30564.3388 -486.2155 -412.3403
ENERGY: 600000 2.6839 3.2154 3.6059 0.0000 -10636.8829 1413.2632 0.0000 0.0000 1761.2952 -7452.8193 300.3470 -9214.1145 -7471.6632 296.3372 -317.8605 -264.4158 30481.3219 -352.9146 -291.4571
ENERGY: 900000 2.3311 4.2281 2.6920 0.0000 -10554.7178 1342.4256 0.0000 0.0000 1802.1119 -7400.9290 307.3073 -9203.0409 -7459.8185 298.8374 -621.0553 -553.0034 30238.3747 -341.6786 -284.7235
ENERGY: 1200000 2.0092 3.5722 2.1201 0.0000 -10727.8750 1504.3193 0.0000 0.0000 1708.4144 -7507.4398 291.3295 -9215.8541 -7461.7759 298.7962 377.0592 424.8356 30354.6502 -320.0898 -264.1985
ENERGY: 1500000 3.3589 3.3356 4.7419 0.0000 -10631.5975 1401.8166 0.0000 0.0000 1735.0505 -7483.2940 295.8716 -9218.3445 -7463.0514 298.5792 -310.7326 -250.2078 30309.3920 -395.3366 -335.7198
TCL: Running FEP window   3: Lambda1 0.1    Lambda2 0.15000000000000002 [dLambda 0.05000000000000002]
TCL: Setting parameter firsttimestep to 0
TCL: Setting parameter alchLambda to 0.1
Info: NONBONDED TABLE R-SQUARED SPACING: 0.0625
Info: NONBONDED TABLE SIZE: 705 POINTS
TCL: Setting parameter alchLambda2 to 0.15000000000000002
Info: NONBONDED TABLE R-SQUARED SPACING: 0.0625
Info: NONBONDED TABLE SIZE: 705 POINTS
TCL: Running for 1500000 steps
ETITLE: TS BOND ANGLE DIHED IMPRP ELECT VDW BOUNDARY MISC KINETIC TOTAL TEMP POTENTIAL TOTALAVG TEMPAVG PRESSURE GPRESSURE VOLUME PRESSAVG GPRESSAVG
ENERGY: 0 3.3588 3.3356 4.7419 0.0000 -10631.5965 1403.9250 0.0000 0.0000 1734.1985 -7482.0367 295.7263 -9216.2352 -7482.0367 295.7263 -326.1903 -242.2548 30309.3920 -326.1903 -242.2548
ENERGY: 300000 3.0755 6.0373 2.0462 0.0000 -10764.1275 1502.3923 0.0000 0.0000 1753.6707 -7496.9056 299.0468 -9250.5763 -7458.9949 299.0168 274.9554 352.5731 30243.2143 214.0245 300.5055
ENERGY: 600000 1.2223 3.3383 2.8641 0.0000 -10632.9727 1350.9192 0.0000 0.0000 1771.2349 -7503.3940 302.0420 -9274.6289 -7449.7646 300.8191 -909.2641 -830.9454 30304.0175 122.3081 206.6143
ENERGY: 900000 1.8599 3.0068 4.0813 0.0000 -10638.3669 1419.1196 0.0000 0.0000 1690.1178 -7520.1815 288.2094 -9210.2993 -7460.4185 299.6913 -185.1022 -136.4896 30085.4241 76.9376 153.8519
ENERGY: 1200000 1.5142 0.9249 1.5774 0.0000 -10604.0143 1364.9643 0.0000 0.0000 1695.9875 -7539.0460 289.2103 -9235.0335 -7469.9325 298.9349 -614.0722 -566.1647 29914.9653 -35.1387 30.9817
ENERGY: 1500000 1.6585 4.4314 2.5184 0.0000 -10700.3515 1447.8515 0.0000 0.0000 1738.5147 -7505.3770 296.4624 -9243.8917 -7471.8238 299.2977 81.6457 153.0958 29948.2910 -80.1310 -16.9561
TCL: Running FEP window   4: Lambda1 0.15000000000000002 Lambda2 0.2    [dLambda 0.04999999999999999]
TCL: Setting parameter firsttimestep to 0
TCL: Setting parameter alchLambda to 0.15000000000000002
Info: NONBONDED TABLE R-SQUARED SPACING: 0.0625
Info: NONBONDED TABLE SIZE: 705 POINTS
TCL: Setting parameter alchLambda2 to 0.2
Info: NONBONDED TABLE R-SQUARED SPACING: 0.0625
Info: NONBONDED TABLE SIZE: 705 POINTS
TCL: Running for 1500000 steps
ETITLE: TS BOND ANGLE DIHED IMPRP ELECT VDW BOUNDARY MISC KINETIC TOTAL TEMP POTENTIAL TOTALAVG TEMPAVG PRESSURE GPRESSURE VOLUME PRESSAVG GPRESSAVG
ENERGY: 0 1.6585 4.4314 2.5184 0.0000 -10700.3521 1450.3834 0.0000 0.0000 1737.6412 -7503.7193 296.3134 -9241.3605 -7503.7193 296.3134 75.8714 163.7529 29948.2910 75.8714 163.7529
ENERGY: 300000 1.9106 1.5605 2.1933 0.0000 -10639.6580 1411.4039 0.0000 0.0000 1726.6426 -7495.9470 294.4379 -9222.5897 -7472.2431 299.7847 -153.2311 -113.3521 30181.5411 -78.9503 -11.4770
ENERGY: 600000 2.8607 2.3529 3.5641 0.0000 -10688.4249 1456.7156 0.0000 0.0000 1743.8150 -7479.1165 297.3662 -9222.9316 -7463.8514 301.0032 152.2972 162.7838 29984.8054 -65.2313 6.5460
ENERGY: 900000 4.7218 4.0566 3.9400 0.0000 -10578.6528 1341.1044 0.0000 0.0000 1764.9594 -7459.8706 300.9719 -9224.8300 -7452.8997 300.9734 -606.9975 -524.0896 30178.7264 -123.4452 -53.1141
ENERGY: 1200000 3.5581 3.3106 2.2549 0.0000 -10652.2982 1453.2554 0.0000 0.0000 1766.3087 -7423.6104 301.2020 -9189.9192 -7448.3811 301.1674 112.0788 179.0652 30377.9806 -127.2988 -55.9471
ENERGY: 1500000 2.0923 1.6903 4.7583 0.0000 -10677.1380 1432.6509 0.0000 0.0000 1746.2555 -7489.6908 297.7824 -9235.9463 -7457.6998 300.8361 371.7819 390.7170 29677.8375 -108.6677 -39.2889
TCL: Running FEP window   5: Lambda1 0.2    Lambda2 0.25   [dLambda 0.04999999999999999]
TCL: Setting parameter firsttimestep to 0
TCL: Setting parameter alchLambda to 0.2
Info: NONBONDED TABLE R-SQUARED SPACING: 0.0625
Info: NONBONDED TABLE SIZE: 705 POINTS
TCL: Setting parameter alchLambda2 to 0.25
Info: NONBONDED TABLE R-SQUARED SPACING: 0.0625
Info: NONBONDED TABLE SIZE: 705 POINTS
TCL: Running for 1500000 steps
ETITLE: TS BOND ANGLE DIHED IMPRP ELECT VDW BOUNDARY MISC KINETIC TOTAL TEMP POTENTIAL TOTALAVG TEMPAVG PRESSURE GPRESSURE VOLUME PRESSAVG GPRESSAVG
ENERGY: 0 2.0923 1.6903 4.7583 0.0000 -10677.1373 1433.7134 0.0000 0.0000 1745.3653 -7489.5177 297.6306 -9234.8831 -7489.5177 297.6306 304.7694 397.4618 29677.8375 304.7694 397.4618
ENERGY: 300000 0.8579 1.8321 1.6870 0.0000 -10827.3634 1532.6107 0.0000 0.0000 1747.2317 -7543.1441 297.9488 -9290.3758 -7493.7843 298.4340 491.7114 488.5518 30327.8910 348.5803 405.6254
ENERGY: 600000 2.5142 1.5127 4.7626 0.0000 -10662.4477 1459.9841 0.0000 0.0000 1768.1030 -7425.5711 301.5079 -9193.6741 -7482.6497 299.2880 23.1796 103.5572 30561.0978 207.2088 266.8379
ENERGY: 900000 3.0412 6.6982 4.1837 0.0000 -10792.8824 1510.3988 0.0000 0.0000 1784.7888 -7483.7716 304.3533 -9268.5604 -7491.5122 299.3101 671.0951 726.2010 29833.4327 230.0509 284.9961
ENERGY: 1200000 1.2507 3.2590 3.9353 0.0000 -10576.7658 1329.2562 0.0000 0.0000 1762.3870 -7476.6776 300.5332 -9239.0646 -7480.5411 300.1429 -998.7705 -928.8279 30637.7706 60.1373 118.0783
ENERGY: 1500000 2.6913 5.8876 2.9481 0.0000 -10541.5168 1336.4562 0.0000 0.0000 1738.5328 -7455.0007 296.4654 -9193.5335 -7475.8382 300.4250 -924.4149 -836.2334 30235.5067 19.2984 82.0428
TCL: Running FEP window   6: Lambda1 0.25   Lambda2 0.3    [dLambda 0.04999999999999999]
TCL: Setting parameter firsttimestep to 0
TCL: Setting parameter alchLambda to 0.25
Info: NONBONDED TABLE R-SQUARED SPACING: 0.0625
Info: NONBONDED TABLE SIZE: 705 POINTS
TCL: Setting parameter alchLambda2 to 0.3
Info: NONBONDED TABLE R-SQUARED SPACING: 0.0625
Info: NONBONDED TABLE SIZE: 705 POINTS
TCL: Running for 1500000 steps
ETITLE: TS BOND ANGLE DIHED IMPRP ELECT VDW BOUNDARY MISC KINETIC TOTAL TEMP POTENTIAL TOTALAVG TEMPAVG PRESSURE GPRESSURE VOLUME PRESSAVG GPRESSAVG
ENERGY: 0 2.6913 5.8876 2.9481 0.0000 -10541.5156 1338.3238 0.0000 0.0000 1737.6438 -7454.0209 296.3138 -9191.6647 -7454.0209 296.3138 -919.2542 -824.7841 30235.5067 -919.2542 -824.7841
ENERGY: 300000 4.5881 3.5751 4.3077 0.0000 -10726.1858 1463.1931 0.0000 0.0000 1740.8124 -7509.7094 296.8542 -9250.5218 -7440.8684 301.0967 -143.8665 10.6491 30286.7412 -104.1573 -2.6981
ENERGY: 600000 0.5374 2.8864 3.1450 0.0000 -10649.8449 1410.5569 0.0000 0.0000 1742.5742 -7490.1449 297.1546 -9232.7192 -7419.1021 302.9807 -542.1499 -462.1133 30893.9081 -207.7917 -122.2721
ENERGY: 900000 2.1724 2.5537 4.0689 0.0000 -10604.4930 1389.1455 0.0000 0.0000 1713.4245 -7493.1280 292.1838 -9206.5525 -7426.9966 301.8270 -436.3195 -364.3492 30354.8310 -219.6485 -144.9318
ENERGY: 1200000 3.3683 5.2088 0.4524 0.0000 -10798.2912 1533.6111 0.0000 0.0000 1725.0808 -7530.5699 294.1715 -9255.6507 -7428.5366 301.0920 414.2613 541.5399 30308.2244 -136.9178 -64.6916
ENERGY: 1500000 1.6767 0.9316 2.2714 0.0000 -10537.9006 1389.2256 0.0000 0.0000 1755.5651 -7388.2303 299.3699 -9143.7954 -7429.8237 300.3208 -206.2189 -91.4444 30506.5663 -157.0164 -86.5470
TCL: Running FEP window   7: Lambda1 0.3    Lambda2 0.35   [dLambda 0.04999999999999999]
TCL: Setting parameter firsttimestep to 0
TCL: Setting parameter alchLambda to 0.3
Info: NONBONDED TABLE R-SQUARED SPACING: 0.0625
Info: NONBONDED TABLE SIZE: 705 POINTS
TCL: Setting parameter alchLambda2 to 0.35
Info: NONBONDED TABLE R-SQUARED SPACING: 0.0625
Info: NONBONDED TABLE SIZE: 705 POINTS
TCL: Running for 1500000 steps
ETITLE: TS BOND ANGLE DIHED IMPRP ELECT VDW BOUNDARY MISC KINETIC TOTAL TEMP POTENTIAL TOTALAVG TEMPAVG PRESSURE GPRESSURE VOLUME PRESSAVG GPRESSAVG
ENERGY: 0 1.6767 0.9316 2.2714 0.0000 -10537.9011 1389.6006 0.0000 0.0000 1754.7267 -7388.6941 299.2269 -9143.4209 -7388.6941 299.2269 -168.7570 -86.0613 30506.5663 -168.7570 -86.0613
ENERGY: 300000 2.2354 2.0116 4.0421 0.0000 -10590.1651 1433.4374 0.0000 0.0000 1794.1951 -7354.2435 305.9573 -9148.4386 -7383.1419 301.2137 381.8551 471.9008 30048.3941 52.9637 153.2323
ENERGY: 600000 1.3539 3.6965 3.0376 0.0000 -10677.7204 1415.1713 0.0000 0.0000 1777.7998 -7476.6614 303.1615 -9254.4611 -7420.3485 300.6902 46.6335 77.8395 29687.1481 -39.3697 48.8546
ENERGY: 900000 0.8515 6.3187 3.6476 0.0000 -10816.1764 1538.7240 0.0000 0.0000 1781.6959 -7484.9388 303.8259 -9266.6347 -7450.8753 300.6018 858.9136 868.9280 30204.0302 83.8532 150.6502
ENERGY: 1200000 5.1388 4.1303 3.6851 0.0000 -10776.6182 1482.7560 0.0000 0.0000 1774.2647 -7506.6433 302.5587 -9280.9080 -7467.3114 300.1624 117.1618 147.6716 30189.1942 -67.7681 3.4826
ENERGY: 1500000 1.1975 1.8718 3.6096 0.0000 -10764.2004 1515.3412 0.0000 0.0000 1764.3780 -7477.8024 300.8727 -9242.1803 -7471.2761 299.8870 823.2120 845.6988 29624.3129 17.3074 85.9985
TCL: Running FEP window   8: Lambda1 0.35   Lambda2 0.39999999999999997 [dLambda 0.04999999999999999]
TCL: Setting parameter firsttimestep to 0
TCL: Setting parameter alchLambda to 0.35
Info: NONBONDED TABLE R-SQUARED SPACING: 0.0625
Info: NONBONDED TABLE SIZE: 705 POINTS
TCL: Setting parameter alchLambda2 to 0.39999999999999997
Info: NONBONDED TABLE R-SQUARED SPACING: 0.0625
Info: NONBONDED TABLE SIZE: 705 POINTS
TCL: Running for 1500000 steps
ETITLE: TS BOND ANGLE DIHED IMPRP ELECT VDW BOUNDARY MISC KINETIC TOTAL TEMP POTENTIAL TOTALAVG TEMPAVG PRESSURE GPRESSURE VOLUME PRESSAVG GPRESSAVG
ENERGY: 0 1.1975 1.8718 3.6096 0.0000 -10764.2005 1515.6514 0.0000 0.0000 1763.5216 -7478.3487 300.7267 -9241.8702 -7478.3487 300.7267 764.3344 850.8153 29624.3129 764.3344 850.8153
ENERGY: 300000 0.8856 2.5694 4.3094 0.0000 -10750.6070 1486.3466 0.0000 0.0000 1810.0602 -7446.4357 308.6627 -9256.4959 -7450.6037 301.9055 416.9603 437.0326 30250.8814 332.5772 406.4300
ENERGY: 600000 4.1965 2.6860 1.8722 0.0000 -10657.0937 1464.6280 0.0000 0.0000 1773.3034 -7410.4076 302.3947 -9183.7110 -7448.2911 302.2265 344.2609 435.7598 30411.8969 228.0077 293.9632
ENERGY: 900000 2.2616 3.9311 5.3611 0.0000 -10703.1897 1467.8742 0.0000 0.0000 1766.3173 -7457.4445 301.2034 -9223.7618 -7452.2432 301.3423 194.3203 216.1832 30491.9582 244.5321 308.4188
ENERGY: 1200000 3.3982 2.8924 4.1187 0.0000 -10615.1362 1437.2847 0.0000 0.0000 1774.2765 -7393.1657 302.5607 -9167.4422 -7447.5655 301.8060 76.8089 130.3895 30243.9559 194.7898 260.1363
ENERGY: 1500000 4.5661 2.0499 4.6309 0.0000 -10543.3323 1337.9167 0.0000 0.0000 1767.7281 -7426.4406 301.4440 -9194.1687 -7447.4873 301.9815 -376.2846 -320.4899 30090.0947 109.5071 173.6277
TCL: Running FEP window   9: Lambda1 0.39999999999999997 Lambda2 0.44999999999999996 [dLambda 0.04999999999999999]
TCL: Setting parameter firsttimestep to 0
TCL: Setting parameter alchLambda to 0.39999999999999997
Info: NONBONDED TABLE R-SQUARED SPACING: 0.0625
Info: NONBONDED TABLE SIZE: 705 POINTS
TCL: Setting parameter alchLambda2 to 0.44999999999999996
Info: NONBONDED TABLE R-SQUARED SPACING: 0.0625
Info: NONBONDED TABLE SIZE: 705 POINTS
TCL: Running for 1500000 steps
ETITLE: TS BOND ANGLE DIHED IMPRP ELECT VDW BOUNDARY MISC KINETIC TOTAL TEMP POTENTIAL TOTALAVG TEMPAVG PRESSURE GPRESSURE VOLUME PRESSAVG GPRESSAVG
ENERGY: 0 4.5661 2.0499 4.6309 0.0000 -10543.3326 1338.3925 0.0000 0.0000 1766.8571 -7426.8362 301.2955 -9193.6933 -7426.8362 301.2955 -393.5011 -312.8024 30090.0947 -393.5011 -312.8024
ENERGY: 300000 5.2392 5.8679 1.7311 0.0000 -10698.3017 1459.2171 0.0000 0.0000 1804.8561 -7421.3902 307.7753 -9226.2464 -7438.4687 303.1212 -250.0198 -224.9110 30838.6513 -147.3314 -96.4036
ENERGY: 600000 2.6078 4.1181 2.9772 0.0000 -10788.3215 1537.8339 0.0000 0.0000 1787.9169 -7452.8676 304.8867 -9240.7846 -7438.4377 301.5390 987.4420 1056.9122 29836.5691 60.8560 119.9299
ENERGY: 900000 2.0577 1.5442 7.7170 0.0000 -10717.0404 1480.0592 0.0000 0.0000 1738.9579 -7486.7044 296.5379 -9225.6622 -7450.2963 300.5762 3.3879 106.0757 30826.1804 146.1272 211.3176
ENERGY: 1200000 1.6075 2.8861 4.1307 0.0000 -10553.2429 1373.2270 0.0000 0.0000 1687.0968 -7484.2948 287.6942 -9171.3916 -7459.1883 298.7152 -376.3876 -297.3656 30448.5675 -56.6183 12.7240
ENERGY: 1500000 0.5932 2.0958 2.0387 0.0000 -10631.4101 1461.8916 0.0000 0.0000 1781.4961 -7383.2947 303.7918 -9164.7908 -7460.9680 299.1887 40.2560 88.6715 30941.8167 -65.3063 0.0504
TCL: Running FEP window  10: Lambda1 0.44999999999999996 Lambda2 0.49999999999999994 [dLambda 0.04999999999999999]
TCL: Setting parameter firsttimestep to 0
TCL: Setting parameter alchLambda to 0.44999999999999996
Info: NONBONDED TABLE R-SQUARED SPACING: 0.0625
Info: NONBONDED TABLE SIZE: 705 POINTS
TCL: Setting parameter alchLambda2 to 0.49999999999999994
Info: NONBONDED TABLE R-SQUARED SPACING: 0.0625
Info: NONBONDED TABLE SIZE: 705 POINTS
TCL: Running for 1500000 steps
ETITLE: TS BOND ANGLE DIHED IMPRP ELECT VDW BOUNDARY MISC KINETIC TOTAL TEMP POTENTIAL TOTALAVG TEMPAVG PRESSURE GPRESSURE VOLUME PRESSAVG GPRESSAVG
ENERGY: 0 0.5932 2.0958 2.0387 0.0000 -10631.4093 1461.5823 0.0000 0.0000 1780.6033 -7384.4960 303.6396 -9165.0993 -7384.4960 303.6396 7.3183 91.5745 30941.8167 7.3183 91.5745
ENERGY: 300000 3.7962 4.3122 3.9407 0.0000 -10725.0540 1480.5145 0.0000 0.0000 1733.4590 -7499.0314 295.6002 -9232.4904 -7444.6299 301.0472 -48.6368 -49.3962 30942.2823 -69.8258 -15.4480
ENERGY: 600000 2.6332 5.5322 2.3721 0.0000 -10639.5191 1400.8146 0.0000 0.0000 1742.2980 -7485.8691 297.1075 -9228.1671 -7453.6407 299.4614 -280.5111 -249.9995 30437.9399 -211.9724 -165.7262
ENERGY: 900000 0.7855 2.5301 5.3193 0.0000 -10660.6421 1454.0469 0.0000 0.0000 1725.7979 -7472.1624 294.2938 -9197.9603 -7459.1902 298.7413 64.5960 76.3447 30855.0068 -134.4774 -97.1179
ENERGY: 1200000 4.8935 1.6708 2.9137 0.0000 -10613.0211 1384.9906 0.0000 0.0000 1762.5657 -7455.9868 300.5637 -9218.5525 -7470.7065 298.1978 -629.9251 -563.7114 30737.3598 -162.7133 -122.4616
ENERGY: 1500000 2.8416 2.7280 2.7933 0.0000 -10599.8124 1410.0296 0.0000 0.0000 1797.4904 -7383.9296 306.5192 -9181.4200 -7468.2890 298.4731 -328.3193 -224.1436 30706.7356 -157.4067 -105.1598
TCL: Running FEP window  11: Lambda1 0.49999999999999994 Lambda2 0.5499999999999999 [dLambda 0.04999999999999999]
TCL: Setting parameter firsttimestep to 0
TCL: Setting parameter alchLambda to 0.49999999999999994
Info: NONBONDED TABLE R-SQUARED SPACING: 0.0625
Info: NONBONDED TABLE SIZE: 705 POINTS
TCL: Setting parameter alchLambda2 to 0.5499999999999999
Info: NONBONDED TABLE R-SQUARED SPACING: 0.0625
Info: NONBONDED TABLE SIZE: 705 POINTS
TCL: Running for 1500000 steps
ETITLE: TS BOND ANGLE DIHED IMPRP ELECT VDW BOUNDARY MISC KINETIC TOTAL TEMP POTENTIAL TOTALAVG TEMPAVG PRESSURE GPRESSURE VOLUME PRESSAVG GPRESSAVG
ENERGY: 0 2.8416 2.7280 2.7933 0.0000 -10599.8111 1410.3823 0.0000 0.0000 1796.6299 -7384.4360 306.3725 -9181.0659 -7384.4360 306.3725 -311.7873 -215.6666 30706.7356 -311.7873 -215.6666
ENERGY: 300000 5.8678 1.5273 3.2525 0.0000 -10766.2672 1484.3091 0.0000 0.0000 1721.9158 -7549.3947 293.6318 -9271.3105 -7479.0031 298.3574 102.2881 226.0021 30073.4827 -239.7436 -170.4923
ENERGY: 600000 3.1744 2.5784 1.1736 0.0000 -10737.8849 1524.7873 0.0000 0.0000 1764.5591 -7441.6121 300.9036 -9206.1712 -7471.1716 299.4149 801.1663 864.6557 30252.1605 -32.9734 40.6873
ENERGY: 900000 4.2031 2.0359 2.0521 0.0000 -10706.3728 1456.8092 0.0000 0.0000 1830.3197 -7410.9528 312.1175 -9241.2726 -7460.3835 301.1049 334.5090 384.0475 30090.3812 100.7319 164.4172
ENERGY: 1200000 4.2175 2.2280 4.1234 0.0000 -10723.9406 1415.0911 0.0000 0.0000 1798.8717 -7499.4090 306.7548 -9298.2807 -7460.2971 301.9132 -416.5846 -369.3424 30185.1748 84.2451 147.5061
ENERGY: 1500000 3.2852 2.6183 3.4695 0.0000 -10737.6423 1407.5938 0.0000 0.0000 1747.7314 -7572.9441 298.0340 -9320.6755 -7475.6043 301.1652 -841.2798 -751.0672 30751.2408 58.7779 121.9987
TCL: Running FEP window  12: Lambda1 0.5499999999999999 Lambda2 0.6    [dLambda 0.050000000000000044]
TCL: Setting parameter firsttimestep to 0
TCL: Setting parameter alchLambda to 0.5499999999999999
Info: NONBONDED TABLE R-SQUARED SPACING: 0.0625
Info: NONBONDED TABLE SIZE: 705 POINTS
TCL: Setting parameter alchLambda2 to 0.6
Info: NONBONDED TABLE R-SQUARED SPACING: 0.0625
Info: NONBONDED TABLE SIZE: 705 POINTS
TCL: Running for 1500000 steps
ETITLE: TS BOND ANGLE DIHED IMPRP ELECT VDW BOUNDARY MISC KINETIC TOTAL TEMP POTENTIAL TOTALAVG TEMPAVG PRESSURE GPRESSURE VOLUME PRESSAVG GPRESSAVG
ENERGY: 0 3.2852 2.6183 3.4695 0.0000 -10737.9318 1407.3099 0.0000 0.0000 1746.8602 -7574.3888 297.8855 -9321.2490 -7574.3888 297.8855 -844.7141 -746.1502 30751.2408 -844.7141 -746.1502
ENERGY: 300000 2.8731 2.0963 1.9349 0.0000 -10726.7168 1461.9586 0.0000 0.0000 1822.3913 -7435.4627 310.7655 -9257.8540 -7468.0248 303.0214 463.4757 456.2530 29950.5386 -39.5174 1.2253
ENERGY: 600000 3.5823 3.5163 2.7710 0.0000 -10689.3053 1400.2178 0.0000 0.0000 1691.4686 -7587.7495 288.4398 -9279.2180 -7483.3915 301.4589 -511.1345 -475.3716 30196.8481 -131.2013 -76.2152
ENERGY: 900000 1.1340 1.1681 6.0158 0.0000 -10719.4939 1416.2410 0.0000 0.0000 1737.8622 -7557.0729 296.3511 -9294.9351 -7468.7410 301.4664 -249.8782 -162.4291 29931.0041 -145.2728 -84.8007
ENERGY: 1200000 2.3682 3.2391 5.1005 0.0000 -10576.1041 1400.3776 0.0000 0.0000 1742.5504 -7422.4684 297.1505 -9165.0187 -7461.9522 300.9177 -520.2602 -470.4971 31149.8816 -221.0377 -160.9068
ENERGY: 1500000 5.2834 3.1350 4.5518 0.0000 -10551.5713 1353.9264 0.0000 0.0000 1720.5787 -7464.0959 293.4038 -9184.6746 -7458.2932 300.3675 -922.5043 -870.1256 31016.3366 -305.8454 -245.3933
TCL: Running FEP window  13: Lambda1 0.6    Lambda2 0.65   [dLambda 0.050000000000000044]
TCL: Setting parameter firsttimestep to 0
TCL: Setting parameter alchLambda to 0.6
Info: NONBONDED TABLE R-SQUARED SPACING: 0.0625
Info: NONBONDED TABLE SIZE: 705 POINTS
TCL: Setting parameter alchLambda2 to 0.65
Info: NONBONDED TABLE R-SQUARED SPACING: 0.0625
Info: NONBONDED TABLE SIZE: 705 POINTS
TCL: Running for 1500000 steps
ETITLE: TS BOND ANGLE DIHED IMPRP ELECT VDW BOUNDARY MISC KINETIC TOTAL TEMP POTENTIAL TOTALAVG TEMPAVG PRESSURE GPRESSURE VOLUME PRESSAVG GPRESSAVG
ENERGY: 0 5.2834 3.1350 4.5518 0.0000 -10551.5273 1353.7831 0.0000 0.0000 1719.6915 -7465.0824 293.2525 -9184.7739 -7465.0824 293.2525 -954.7972 -866.3884 31016.3366 -954.7972 -866.3884
ENERGY: 300000 0.6766 3.6860 0.9070 0.0000 -10747.7854 1464.3881 0.0000 0.0000 1759.4903 -7518.6373 300.0392 -9278.1276 -7472.2709 298.9917 178.2538 218.6906 30219.2634 -435.4225 -355.9644
ENERGY: 600000 1.6429 3.1799 1.0596 0.0000 -10627.0919 1410.5820 0.0000 0.0000 1704.3884 -7506.2392 290.6429 -9210.6276 -7485.2922 296.5870 -385.0313 -327.0526 30559.9555 -245.3652 -172.3117
ENERGY: 900000 3.8664 2.4734 4.4847 0.0000 -10585.0040 1409.6609 0.0000 0.0000 1790.2550 -7374.2636 305.2854 -9164.5186 -7463.9118 298.2886 -270.9824 -158.9119 30600.5566 -180.5130 -105.2778
ENERGY: 1200000 4.1821 2.1204 2.9918 0.0000 -10554.7928 1407.0544 0.0000 0.0000 1791.2888 -7347.1552 305.4617 -9138.4440 -7452.5632 298.3236 -97.9072 -51.8899 30440.2823 -228.0728 -161.6895
ENERGY: 1500000 3.1702 2.7330 1.3538 0.0000 -10769.3718 1479.4376 0.0000 0.0000 1816.7733 -7465.9038 309.8075 -9282.6771 -7454.8796 299.0315 523.3002 640.0437 29646.0187 -211.0056 -141.1001
TCL: Running FEP window  14: Lambda1 0.65   Lambda2 0.7000000000000001 [dLambda 0.050000000000000044]
TCL: Setting parameter firsttimestep to 0
TCL: Setting parameter alchLambda to 0.65
Info: NONBONDED TABLE R-SQUARED SPACING: 0.0625
Info: NONBONDED TABLE SIZE: 705 POINTS
TCL: Setting parameter alchLambda2 to 0.7000000000000001
Info: NONBONDED TABLE R-SQUARED SPACING: 0.0625
Info: NONBONDED TABLE SIZE: 705 POINTS
TCL: Running for 1500000 steps
ETITLE: TS BOND ANGLE DIHED IMPRP ELECT VDW BOUNDARY MISC KINETIC TOTAL TEMP POTENTIAL TOTALAVG TEMPAVG PRESSURE GPRESSURE VOLUME PRESSAVG GPRESSAVG
ENERGY: 0 3.1702 2.7330 1.3538 0.0000 -10770.3459 1479.1796 0.0000 0.0000 1815.8773 -7468.0319 309.6547 -9283.9092 -7468.0319 309.6547 562.9819 643.9977 29646.0187 562.9819 643.9977
ENERGY: 300000 4.6513 3.5846 6.8280 0.0000 -10648.6150 1453.8562 0.0000 0.0000 1751.3353 -7428.3596 298.6486 -9179.6949 -7469.9388 297.6204 424.6560 500.8860 29898.6047 252.3554 324.0780
ENERGY: 600000 3.4878 4.3348 4.8080 0.0000 -10717.9333 1451.8691 0.0000 0.0000 1756.4288 -7497.0048 299.5172 -9253.4336 -7453.4541 299.1892 140.1490 145.1524 30023.1681 107.7728 162.0096
ENERGY: 900000 1.8441 3.9508 5.2858 0.0000 -10778.5336 1485.2286 0.0000 0.0000 1781.5656 -7500.6587 303.8037 -9282.2243 -7467.5618 298.4897 417.2827 405.0230 30175.9890 -39.8901 13.0353
ENERGY: 1200000 4.4334 1.5250 3.4604 0.0000 -10712.8901 1453.8433 0.0000 0.0000 1779.3123 -7470.3157 303.4194 -9249.6280 -7468.5683 298.2549 327.5166 421.6885 29847.4821 -15.9084 36.6345
ENERGY: 1500000 6.8015 4.3904 2.7448 0.0000 -10572.8697 1375.7739 0.0000 0.0000 1746.9616 -7436.1974 297.9028 -9183.1590 -7467.9207 298.5484 -583.7919 -608.6394 30376.1557 13.2476 59.8930
TCL: Running FEP window  15: Lambda1 0.7000000000000001 Lambda2 0.7500000000000001 [dLambda 0.050000000000000044]
TCL: Setting parameter firsttimestep to 0
TCL: Setting parameter alchLambda to 0.7000000000000001
Info: NONBONDED TABLE R-SQUARED SPACING: 0.0625
Info: NONBONDED TABLE SIZE: 705 POINTS
TCL: Setting parameter alchLambda2 to 0.7500000000000001
Info: NONBONDED TABLE R-SQUARED SPACING: 0.0625
Info: NONBONDED TABLE SIZE: 705 POINTS
TCL: Running for 1500000 steps
ETITLE: TS BOND ANGLE DIHED IMPRP ELECT VDW BOUNDARY MISC KINETIC TOTAL TEMP POTENTIAL TOTALAVG TEMPAVG PRESSURE GPRESSURE VOLUME PRESSAVG GPRESSAVG
ENERGY: 0 6.8015 4.3904 2.7448 0.0000 -10573.7222 1376.3621 0.0000 0.0000 1746.0773 -7437.3460 297.7520 -9183.4233 -7437.3460 297.7520 -698.0288 -598.8124 30376.1557 -698.0288 -598.8124
ENERGY: 300000 2.3471 7.2369 5.0326 0.0000 -10633.4527 1401.1008 0.0000 0.0000 1784.3309 -7433.4044 304.2752 -9217.7353 -7456.0958 302.4772 -222.9238 -215.1191 30387.5994 -301.5758 -262.6011
ENERGY: 600000 1.8622 1.9533 2.4668 0.0000 -10504.9747 1342.7032 0.0000 0.0000 1745.8049 -7410.1842 297.7055 -9155.9891 -7449.2230 301.3220 -555.3054 -509.4398 30252.3064 -216.0876 -164.2350
ENERGY: 900000 3.3693 3.0791 1.6583 0.0000 -10605.0796 1366.6677 0.0000 0.0000 1802.9736 -7427.3316 307.4543 -9230.3052 -7447.1331 302.9070 -966.8396 -863.9670 31137.8101 -242.9268 -184.2885
ENERGY: 1200000 1.8859 4.6337 2.3651 0.0000 -10839.4724 1497.9549 0.0000 0.0000 1752.4709 -7580.1620 298.8422 -9332.6328 -7455.9094 302.3623 331.3686 261.4350 30130.5284 -116.8722 -71.0448
ENERGY: 1500000 6.1548 1.0787 4.9906 0.0000 -10673.5301 1410.6831 0.0000 0.0000 1748.0986 -7502.5243 298.0966 -9250.6228 -7463.2918 301.4988 -271.9472 -218.2725 30321.2615 -119.9162 -64.8514
TCL: Running FEP window  16: Lambda1 0.7500000000000001 Lambda2 0.8000000000000002 [dLambda 0.050000000000000044]
TCL: Setting parameter firsttimestep to 0
TCL: Setting parameter alchLambda to 0.7500000000000001
Info: NONBONDED TABLE R-SQUARED SPACING: 0.0625
Info: NONBONDED TABLE SIZE: 705 POINTS
TCL: Setting parameter alchLambda2 to 0.8000000000000002
Info: NONBONDED TABLE R-SQUARED SPACING: 0.0625
Info: NONBONDED TABLE SIZE: 705 POINTS
TCL: Running for 1500000 steps
ETITLE: TS BOND ANGLE DIHED IMPRP ELECT VDW BOUNDARY MISC KINETIC TOTAL TEMP POTENTIAL TOTALAVG TEMPAVG PRESSURE GPRESSURE VOLUME PRESSAVG GPRESSAVG
ENERGY: 0 6.1548 1.0787 4.9906 0.0000 -10675.0583 1410.6385 0.0000 0.0000 1747.2224 -7504.9733 297.9472 -9252.1957 -7504.9733 297.9472 -279.4780 -211.5534 30321.2615 -279.4780 -211.5534
ENERGY: 300000 3.4798 3.8224 2.5722 0.0000 -10693.8855 1481.5475 0.0000 0.0000 1744.7669 -7457.6968 297.5285 -9202.4637 -7467.1586 302.1557 593.9133 643.6250 30233.5446 148.7218 219.4687
ENERGY: 600000 4.1231 4.1185 5.6804 0.0000 -10792.6242 1489.4565 0.0000 0.0000 1775.8729 -7513.3728 302.8329 -9289.2457 -7491.3541 300.6398 379.9540 386.4929 30130.1967 182.8049 246.8689
ENERGY: 900000 2.4250 2.5262 6.2960 0.0000 -10730.6131 1502.6658 0.0000 0.0000 1753.0713 -7463.6289 298.9446 -9216.7002 -7478.6824 300.7358 623.7467 676.4021 29763.5131 93.1462 151.4331
ENERGY: 1200000 0.7563 2.9628 1.7714 0.0000 -10537.1799 1389.7624 0.0000 0.0000 1719.9721 -7421.9549 293.3004 -9141.9270 -7480.9034 300.3717 -145.3186 -98.2724 30627.0974 41.2199 96.1125
ENERGY: 1500000 2.4004 3.4276 0.8791 0.0000 -10621.1780 1411.4981 0.0000 0.0000 1769.1186 -7433.8541 301.6811 -9202.9727 -7476.1492 300.3847 6.7862 151.5013 30086.9532 31.7627 93.3286
TCL: Running FEP window  17: Lambda1 0.8000000000000002 Lambda2 0.8500000000000002 [dLambda 0.050000000000000044]
TCL: Setting parameter firsttimestep to 0
TCL: Setting parameter alchLambda to 0.8000000000000002
Info: NONBONDED TABLE R-SQUARED SPACING: 0.0625
Info: NONBONDED TABLE SIZE: 705 POINTS
TCL: Setting parameter alchLambda2 to 0.8500000000000002
Info: NONBONDED TABLE R-SQUARED SPACING: 0.0625
Info: NONBONDED TABLE SIZE: 705 POINTS
TCL: Running for 1500000 steps
ETITLE: TS BOND ANGLE DIHED IMPRP ELECT VDW BOUNDARY MISC KINETIC TOTAL TEMP POTENTIAL TOTALAVG TEMPAVG PRESSURE GPRESSURE VOLUME PRESSAVG GPRESSAVG
ENERGY: 0 2.4004 3.4276 0.8791 0.0000 -10622.3717 1411.5771 0.0000 0.0000 1768.2418 -7435.8456 301.5316 -9204.0874 -7435.8456 301.5316 82.2675 162.4039 30086.9532 82.2675 162.4039
ENERGY: 300000 5.3206 2.9886 1.8756 0.0000 -10596.5504 1416.5122 0.0000 0.0000 1693.3661 -7476.4873 288.7633 -9169.8534 -7475.8496 296.3737 -6.9722 19.1301 30322.4823 134.2820 188.9486
ENERGY: 600000 3.0421 2.6881 1.5373 0.0000 -10610.0356 1374.6528 0.0000 0.0000 1798.7002 -7429.4151 306.7256 -9228.1153 -7474.0621 298.5064 -516.3043 -513.9382 30631.5376 249.8866 312.7388
ENERGY: 900000 3.3397 4.1750 0.8347 0.0000 -10595.2960 1382.8514 0.0000 0.0000 1729.6876 -7474.4075 294.9571 -9204.0951 -7477.3995 298.3241 -525.6206 -445.4965 30556.2995 69.9288 129.5655
ENERGY: 1200000 1.7438 1.1039 3.7663 0.0000 -10715.2644 1421.4592 0.0000 0.0000 1757.3727 -7529.8187 299.6781 -9287.1914 -7478.2282 299.5641 -440.0353 -306.2067 30409.3107 88.3164 156.2067
ENERGY: 1500000 0.8424 4.1012 3.6131 0.0000 -10696.1876 1429.7865 0.0000 0.0000 1745.3125 -7512.5319 297.6216 -9257.8444 -7483.5477 298.9414 -93.0170 -56.2816 30309.5771 33.7130 98.5721
TCL: Running FEP window  18: Lambda1 0.8500000000000002 Lambda2 0.9000000000000002 [dLambda 0.050000000000000044]
TCL: Setting parameter firsttimestep to 0
TCL: Setting parameter alchLambda to 0.8500000000000002
Info: NONBONDED TABLE R-SQUARED SPACING: 0.0625
Info: NONBONDED TABLE SIZE: 705 POINTS
TCL: Setting parameter alchLambda2 to 0.9000000000000002
Info: NONBONDED TABLE R-SQUARED SPACING: 0.0625
Info: NONBONDED TABLE SIZE: 705 POINTS
TCL: Running for 1500000 steps
ETITLE: TS BOND ANGLE DIHED IMPRP ELECT VDW BOUNDARY MISC KINETIC TOTAL TEMP POTENTIAL TOTALAVG TEMPAVG PRESSURE GPRESSURE VOLUME PRESSAVG GPRESSAVG
ENERGY: 0 0.8424 4.1012 3.6131 0.0000 -10697.8358 1429.8640 0.0000 0.0000 1744.4251 -7514.9900 297.4702 -9259.4151 -7514.9900 297.4702 -137.9464 -50.1063 30309.5771 -137.9464 -50.1063
ENERGY: 300000 5.2626 2.2776 3.9938 0.0000 -10688.3870 1454.5644 0.0000 0.0000 1710.9478 -7511.3409 291.7615 -9222.2887 -7486.8710 297.7348 -133.1861 -68.0605 30699.6846 178.0452 244.5596
ENERGY: 600000 6.6935 1.9032 0.7360 0.0000 -10623.9738 1373.4458 0.0000 0.0000 1798.2470 -7442.9484 306.6483 -9241.1954 -7481.0056 299.2847 -517.6467 -482.5964 30539.7988 -1.6622 60.9920
ENERGY: 900000 3.8108 5.3122 3.1386 0.0000 -10797.3836 1494.0776 0.0000 0.0000 1744.4218 -7546.6226 297.4697 -9291.0444 -7472.9699 300.3703 600.4432 609.3395 29760.1664 -15.5049 40.8665
ENERGY: 1200000 2.2728 1.5289 1.9075 0.0000 -10802.1761 1533.0647 0.0000 0.0000 1770.5202 -7492.8820 301.9201 -9263.4022 -7477.3088 300.2242 549.5384 602.2252 30499.5593 -32.7453 26.5148
ENERGY: 1500000 1.9820 1.9364 4.0468 0.0000 -10637.8842 1436.1233 0.0000 0.0000 1758.4712 -7435.3245 299.8654 -9193.7956 -7480.8449 300.1085 19.8484 38.2763 30482.5311 -23.7144 31.1943
TCL: Running FEP window  19: Lambda1 0.9000000000000002 Lambda2 0.9500000000000003 [dLambda 0.050000000000000044]
TCL: Setting parameter firsttimestep to 0
TCL: Setting parameter alchLambda to 0.9000000000000002
Info: NONBONDED TABLE R-SQUARED SPACING: 0.0625
Info: NONBONDED TABLE SIZE: 705 POINTS
TCL: Setting parameter alchLambda2 to 0.9500000000000003
Info: NONBONDED TABLE R-SQUARED SPACING: 0.0625
Info: NONBONDED TABLE SIZE: 705 POINTS
TCL: Running for 1500000 steps
ETITLE: TS BOND ANGLE DIHED IMPRP ELECT VDW BOUNDARY MISC KINETIC TOTAL TEMP POTENTIAL TOTALAVG TEMPAVG PRESSURE GPRESSURE VOLUME PRESSAVG GPRESSAVG
ENERGY: 0 1.9820 1.9364 4.0468 0.0000 -10640.1992 1437.6357 0.0000 0.0000 1757.6020 -7436.9963 299.7172 -9194.5983 -7436.9963 299.7172 -27.8993 63.0464 30482.5311 -27.8993 63.0464
ENERGY: 300000 5.4727 6.7683 5.0205 0.0000 -10646.8254 1418.7281 0.0000 0.0000 1809.6904 -7401.1453 308.5997 -9210.8357 -7419.1681 301.7958 -202.5157 -124.0344 30643.2898 -158.4027 -88.0161
ENERGY: 600000 0.9878 2.9844 2.6613 0.0000 -10677.2360 1423.6500 0.0000 0.0000 1817.4130 -7429.5395 309.9166 -9246.9525 -7442.1007 302.8612 -150.4903 -83.0120 30423.3262 -331.1772 -268.4355
ENERGY: 900000 3.3794 3.0885 6.7414 0.0000 -10802.1576 1550.5564 0.0000 0.0000 1763.5539 -7474.8380 300.7322 -9238.3919 -7440.0572 302.6087 947.8761 931.2278 30310.0209 -173.0811 -117.3266
ENERGY: 1200000 1.4281 3.5957 3.9813 0.0000 -10763.9309 1465.8611 0.0000 0.0000 1754.5781 -7534.4865 299.2016 -9289.0646 -7457.7262 302.4280 -55.7654 109.2370 30373.3952 -46.7207 17.6307
ENERGY: 1500000 1.5735 2.6139 2.1225 0.0000 -10652.2681 1392.3269 0.0000 0.0000 1800.0834 -7453.5480 306.9614 -9253.6314 -7464.5931 301.6540 -494.7371 -443.9598 31042.9490 32.4851 94.1089
TCL: Running FEP window  20: Lambda1 0.9500000000000003 Lambda2 1.0    [dLambda 0.04999999999999971]
TCL: Setting parameter firsttimestep to 0
TCL: Setting parameter alchLambda to 0.9500000000000003
Info: NONBONDED TABLE R-SQUARED SPACING: 0.0625
Info: NONBONDED TABLE SIZE: 705 POINTS
TCL: Setting parameter alchLambda2 to 1.0
Info: NONBONDED TABLE R-SQUARED SPACING: 0.0625
Info: NONBONDED TABLE SIZE: 705 POINTS
TCL: Running for 1500000 steps
ETITLE: TS BOND ANGLE DIHED IMPRP ELECT VDW BOUNDARY MISC KINETIC TOTAL TEMP POTENTIAL TOTALAVG TEMPAVG PRESSURE GPRESSURE VOLUME PRESSAVG GPRESSAVG
ENERGY: 0 1.5735 2.6139 2.1225 0.0000 -10654.3750 1393.4687 0.0000 0.0000 1799.2199 -7455.3766 306.8142 -9254.5965 -7455.3766 306.8142 -516.5552 -421.9423 31042.9490 -516.5552 -421.9423
ENERGY: 300000 2.5135 4.0600 5.1789 0.0000 -10619.4418 1373.2037 0.0000 0.0000 1746.9222 -7487.5635 297.8960 -9234.4857 -7488.6821 298.7592 -447.7172 -421.6083 30393.3250 -220.1231 -154.5474
ENERGY: 600000 3.3696 3.2851 3.3414 0.0000 -10728.6688 1480.0048 0.0000 0.0000 1792.9525 -7445.7154 305.7454 -9238.6679 -7486.1801 299.8593 431.6379 512.5914 30261.1391 1.4376 82.3223
ENERGY: 900000 2.3413 2.5483 2.3001 0.0000 -10644.0978 1422.1198 0.0000 0.0000 1734.0328 -7480.7557 295.6981 -9214.7884 -7487.9423 299.5653 -3.2654 -12.4370 30350.6897 39.5968 98.0392
ENERGY: 1200000 3.2618 3.7666 2.0425 0.0000 -10685.6953 1447.4539 0.0000 0.0000 1749.3459 -7479.8245 298.3094 -9229.1704 -7476.4036 300.5611 79.8695 154.7943 30420.0051 107.6146 170.6375
ENERGY: 1500000 1.0391 3.3957 2.0179 0.0000 -10818.2693 1450.9068 0.0000 0.0000 1769.1176 -7591.7921 301.6810 -9360.9097 -7472.5289 300.9156 313.6433 370.4864 29575.2921 36.2760 100.9033
TCL: Exiting due to exit command.
