Info: SIMULATION PARAMETERS:
Info: TIMESTEP               2
Info: NUMBER OF STEPS        0
Info: STEPS PER CYCLE        10
Info: PERIODIC CELL BASIS 1  31.0092 0 0
Info: PERIODIC CELL BASIS 2  0 29.7293 0
Info: PERIODIC CELL BASIS 3  0 0 32.9671
Info: PERIODIC CELL CENTER   0 0 0
Info: WRAPPING WATERS AROUND PERIODIC BOUNDARIES ON OUTPUT.
Info: WRAPPING ALL CLUSTERS AROUND PERIODIC BOUNDARIES ON OUTPUT.
Info: FIRST LDB TIMESTEP     50
Info: LAST LDB TIMESTEP     -1
Info: HOM BACKGROUND SCALING 1
Info: PME BACKGROUND SCALING 1
Info: MIN ATOMS PER PATCH    40
Info: EMPTY PATCH LOAD       40 ATOMS
Info: VELOCITY FILE          mobley_5072416_equil.vel
Info: CENTER OF MASS MOVING INITIALLY? NO
Info: DIELECTRIC             1
Info: EXCLUDE                SCALED ONE-FOUR
Info: 1-4 ELECTROSTATICS SCALED BY 0.833333
Info: MODIFIED 1-4 VDW PARAMETERS WILL BE USED
Info: DCD FILENAME           mobley_5072416_prod.dcd
Info: DCD FREQUENCY          100000
Info: DCD FIRST STEP         100000
Info: DCD FILE WILL CONTAIN UNIT CELL DATA
Info: XST FILENAME           mobley_5072416_prod.xst
Info: XST FREQUENCY          100000
Info: NO VELOCITY DCD OUTPUT
Info: NO FORCE DCD OUTPUT
Info: OUTPUT FILENAME        mobley_5072416_prod
Info: BINARY OUTPUT FILES WILL BE USED
Info: RESTART FILENAME       mobley_5072416_prod.restart
Info: RESTART FREQUENCY      100000
Info: BINARY RESTART FILES WILL BE USED
Info: CUTOFF                 9
Info: PAIRLIST DISTANCE      11
Info: PAIRLIST SHRINK RATE   0.01
Info: PAIRLIST GROW RATE     0.01
Info: PAIRLIST TRIGGER       0.3
Info: PAIRLISTS PER CYCLE    2
Info: PAIRLISTS ENABLED
Info: MARGIN                 2
Info: HYDROGEN GROUP CUTOFF  2.5
Info: PATCH DIMENSION        15.5
Info: ENERGY OUTPUT STEPS    100000
Info: ENERGY EVALUATION STEPS    100000
Info: OUTPUT ENERGY PRECISION 4
Info: CROSSTERM ENERGY INCLUDED IN DIHEDRAL
Info: TIMING OUTPUT STEPS    1000000
Info: PRESSURE OUTPUT STEPS  100000
Info: ALCHEMICAL FEP ON
Info: FEP CURRENT LAMBDA VALUE     1
Info: FEP COMPARISON LAMBDA VALUE  0.95
Info: FEP INTRA-ALCHEMICAL NON-BONDED INTERACTIONS WILL BE RETAINED
Info: FEP INTRA-ALCHEMICAL BONDED INTERACTIONS WILL BE RETAINED
Info: FEP VDW SHIFTING COEFFICIENT 5
Info: FEP ELEC. ACTIVE FOR ANNIHILATED PARTICLES BETWEEN LAMBDA = 0 AND LAMBDA = 0.5
Info: FEP ELEC. ACTIVE FOR EXNIHILATED PARTICLES BETWEEN LAMBDA = 0.5 AND LAMBDA = 1
Info: FEP VDW ACTIVE FOR ANNIHILATED PARTICLES BETWEEN LAMBDA = 0 AND LAMBDA = 1
Info: FEP VDW ACTIVE FOR EXNIHILATED PARTICLES BETWEEN LAMBDA = 0 AND LAMBDA = 1
Info: FEP BOND ACTIVE FOR ANNIHILATED PARTICLES BETWEEN LAMBDA = 1 AND LAMBDA = 1
Info: FEP BOND ACTIVE FOR EXNIHILATED PARTICLES BETWEEN LAMBDA = 0 AND LAMBDA = 0
Info: LANGEVIN DYNAMICS ACTIVE
Info: LANGEVIN TEMPERATURE   300
Info: LANGEVIN USING BBK INTEGRATOR
Info: LANGEVIN DAMPING COEFFICIENT IS 1 INVERSE PS
Info: LANGEVIN DYNAMICS APPLIED TO HYDROGENS
Info: LANGEVIN PISTON PRESSURE CONTROL ACTIVE
Info:        TARGET PRESSURE IS 1.01325 BAR
Info:     OSCILLATION PERIOD IS 50 FS
Info:             DECAY TIME IS 25 FS
Info:     PISTON TEMPERATURE IS 300 K
Info:       PRESSURE CONTROL IS GROUP-BASED
Info:    INITIAL STRAIN RATE IS -0.000183043 -0.000183043 -0.000183043
Info:       CELL FLUCTUATION IS ISOTROPIC
Info: PARTICLE MESH EWALD (PME) ACTIVE
Info: PME TOLERANCE               1e-06
Info: PME EWALD COEFFICIENT       0.348832
Info: PME INTERPOLATION ORDER     4
Info: PME GRID DIMENSIONS         32 32 36
Info: PME MAXIMUM GRID SPACING    1
Info: PME CALCULATION WILL BE PERFORMED ON GPU
Info: FULL ELECTROSTATIC EVALUATION FREQUENCY      2
Info: USING VERLET I (r-RESPA) MTS SCHEME.
Info: C1 SPLITTING OF LONG RANGE ELECTROSTATICS
Info: PLACING ATOMS IN PATCHES BY HYDROGEN GROUPS
Info: RIGID BONDS TO HYDROGEN : ALL
Info:         ERROR TOLERANCE : 1e-08
Info:          MAX ITERATIONS : 100
Info: RIGID WATER USING SETTLE ALGORITHM
Info: RANDOM NUMBER SEED     1743776926
Info: USE HYDROGEN BONDS?    NO
Info: Using AMBER format force field!
Info: AMBER PARM FILE        mobley_5072416.prmtop
Info: COORDINATE PDB         mobley_5072416.pdb
Info: Exclusions will be read from PARM file!
Info: SCNB (VDW SCALING)     2
Info: USING ARITHMETIC MEAN TO COMBINE L-J SIGMA PARAMETERS
Info: BINARY COORDINATES     mobley_5072416_equil.coor
Info: SUMMARY OF PARAMETERS:
Info: 9 BONDS
Info: 9 ANGLES
Info:   9 HARMONIC
Info:   0 COSINE-BASED
Info: 5 DIHEDRAL
Info: 0 IMPROPER
Info: 0 CROSSTERM
Info: 0 VDW
Info: 45 VDW_PAIRS
Info: 0 NBTHOLE_PAIRS
Info: To read alchdata from file: mobley_5072416.pdb
Info: To read alchflag data from column: 5
Info: STRUCTURE SUMMARY:
Info: 2955 ATOMS
Info: 2955 BONDS
Info: 28 ANGLES
Info: 40 DIHEDRALS
Info: 0 IMPROPERS
Info: 0 CROSSTERMS
Info: 3013 EXCLUSIONS
Info: 2946 RIGID BONDS
Info: ALCH: 0 ATOMS TO DISAPPEAR IN FINAL STATE
Info: ALCH: 18 ATOMS TO APPEAR IN FINAL STATE
Info: 5919 DEGREES OF FREEDOM
Info: 988 HYDROGEN GROUPS
Info: 4 ATOMS IN LARGEST HYDROGEN GROUP
Info: 988 MIGRATION GROUPS
Info: 4 ATOMS IN LARGEST MIGRATION GROUP
Info: TOTAL MASS = 17760.8 amu
Info: TOTAL CHARGE = 4.65661e-08 e
Info: MASS DENSITY = 0.970433 g/cm^3
Info: ATOM DENSITY = 0.0972302 atoms/A^3
Info: ADDED 0 IMPLICIT EXCLUSIONS
Info: NONBONDED TABLE R-SQUARED SPACING: 0.0625
Info: NONBONDED TABLE SIZE: 705 POINTS
Info: REMOVING COM VELOCITY -0.0424715 -0.0135049 -0.146985
Info: Use 3D box decompostion in PME FFT.
Info: Updated CUDA force table with 4096 elements.
Info: Updated CUDA LJ table with 9 x 9 elements.
Info: Found 17 unique exclusion lists needing 40 bytes
TCL: Running for 1500000 steps
ETITLE: TS BOND ANGLE DIHED IMPRP ELECT VDW BOUNDARY MISC KINETIC TOTAL TEMP POTENTIAL TOTALAVG TEMPAVG PRESSURE GPRESSURE VOLUME PRESSAVG GPRESSAVG
ENERGY: 0 5.2734 3.4648 3.8900 0.0000 -10718.4014 1431.8520 0.0000 0.0000 1818.2487 -7455.6725 309.1686 -9273.9212 -7455.6725 309.1686 -74.5928 16.5295 30391.8068 -74.5928 16.5295
ENERGY: 300000 1.5306 8.2429 5.8941 0.0000 -10723.9918 1475.4280 0.0000 0.0000 1743.3052 -7489.5909 296.4254 -9232.8962 -7477.0829 300.1867 266.8448 339.5927 30619.6628 -103.0502 -35.4716
ENERGY: 600000 1.3274 3.6210 6.0321 0.0000 -10755.5269 1447.9195 0.0000 0.0000 1748.5084 -7548.1186 297.3102 -9296.6270 -7492.8531 300.7965 -107.9421 -96.7386 30800.9488 5.8399 79.0174
ENERGY: 900000 11.0238 4.4592 4.7894 0.0000 -10563.7685 1383.1530 0.0000 0.0000 1747.7067 -7412.6365 297.1739 -9160.3431 -7491.3755 299.3719 -556.5668 -534.2439 31291.5386 -147.9292 -92.5564
ENERGY: 1200000 2.8561 7.0768 4.9104 0.0000 -10597.9864 1323.4277 0.0000 0.0000 1819.7784 -7439.9369 309.4287 -9259.7153 -7488.7635 301.1253 -1098.5099 -1060.9802 30554.9081 -293.4814 -235.3326
ENERGY: 1500000 3.2920 7.2415 4.6178 0.0000 -10753.2842 1430.9521 0.0000 0.0000 1728.4005 -7578.7803 293.8911 -9307.1808 -7496.3367 300.8600 -465.9557 -429.8901 30626.7138 -283.4546 -223.2860
TCL: Running FEP window   2: Lambda1 0.95   Lambda2 0.8999999999999999 [dLambda -0.050000000000000044]
TCL: Setting parameter firsttimestep to 0
TCL: Setting parameter alchLambda to 0.95
Info: NONBONDED TABLE R-SQUARED SPACING: 0.0625
Info: NONBONDED TABLE SIZE: 705 POINTS
TCL: Setting parameter alchLambda2 to 0.8999999999999999
Info: NONBONDED TABLE R-SQUARED SPACING: 0.0625
Info: NONBONDED TABLE SIZE: 705 POINTS
TCL: Running for 1500000 steps
ETITLE: TS BOND ANGLE DIHED IMPRP ELECT VDW BOUNDARY MISC KINETIC TOTAL TEMP POTENTIAL TOTALAVG TEMPAVG PRESSURE GPRESSURE VOLUME PRESSAVG GPRESSAVG
ENERGY: 0 3.2920 7.2415 4.6178 0.0000 -10751.6710 1431.4737 0.0000 0.0000 1727.5089 -7577.5372 293.7395 -9305.0461 -7577.5372 293.7395 -516.2086 -430.2156 30626.7138 -516.2086 -430.2156
ENERGY: 300000 5.3705 5.0647 4.7628 0.0000 -10674.9678 1367.2002 0.0000 0.0000 1759.7510 -7532.8186 299.2218 -9292.5696 -7515.8917 297.9440 -640.7058 -561.6871 30305.7405 -244.8645 -153.6965
ENERGY: 600000 2.3595 7.2996 4.9808 0.0000 -10770.1119 1416.8938 0.0000 0.0000 1744.8805 -7593.6976 296.6933 -9338.5782 -7545.8263 298.0935 -54.4797 27.5437 29801.3903 -348.8833 -264.0194
ENERGY: 900000 1.8400 6.5428 2.4274 0.0000 -10712.3131 1442.0977 0.0000 0.0000 1676.8562 -7582.5490 285.1267 -9259.4052 -7531.4414 298.0468 -317.7608 -193.2637 30982.4854 -287.5443 -196.6129
ENERGY: 1200000 3.9497 1.7382 7.8645 0.0000 -10892.5609 1535.1361 0.0000 0.0000 1780.9667 -7562.9058 302.8293 -9343.8725 -7525.8047 298.8979 559.2667 624.1270 30325.9286 -191.2601 -103.2608
ENERGY: 1500000 3.1625 5.6009 7.5817 0.0000 -10711.0485 1429.9736 0.0000 0.0000 1766.4792 -7498.2506 300.3659 -9264.7299 -7509.2506 299.7354 -7.9277 50.8756 30162.2997 -210.5283 -132.0057
TCL: Running FEP window   3: Lambda1 0.8999999999999999 Lambda2 0.8499999999999999 [dLambda -0.050000000000000044]
TCL: Setting parameter firsttimestep to 0
TCL: Setting parameter alchLambda to 0.8999999999999999
Info: NONBONDED TABLE R-SQUARED SPACING: 0.0625
Info: NONBONDED TABLE SIZE: 705 POINTS
TCL: Setting parameter alchLambda2 to 0.8499999999999999
Info: NONBONDED TABLE R-SQUARED SPACING: 0.0625
Info: NONBONDED TABLE SIZE: 705 POINTS
TCL: Running for 1500000 steps
ETITLE: TS BOND ANGLE DIHED IMPRP ELECT VDW BOUNDARY MISC KINETIC TOTAL TEMP POTENTIAL TOTALAVG TEMPAVG PRESSURE GPRESSURE VOLUME PRESSAVG GPRESSAVG
ENERGY: 0 3.1625 5.6009 7.5817 0.0000 -10709.5403 1430.2439 0.0000 0.0000 1765.5993 -7497.3521 300.2162 -9262.9514 -7497.3521 300.2162 -30.9038 46.7072 30162.2997 -30.9038 46.7072
ENERGY: 300000 1.6420 5.4542 8.4546 0.0000 -10694.0662 1432.2123 0.0000 0.0000 1795.8416 -7450.4616 305.3585 -9246.3032 -7480.9752 303.4818 188.0419 228.9683 30262.4433 -48.0755 -19.1490
ENERGY: 600000 3.7358 4.7468 5.5094 0.0000 -10729.4468 1423.8469 0.0000 0.0000 1684.1350 -7607.4729 286.3644 -9291.6079 -7502.6981 299.2779 5.2563 71.5261 30004.7225 -26.5420 22.9034
ENERGY: 900000 2.4975 5.2249 6.0830 0.0000 -10749.7569 1517.8499 0.0000 0.0000 1798.3434 -7419.7582 305.7839 -9218.1017 -7487.9451 302.0366 857.5800 958.2950 30052.3454 4.9447 56.0110
ENERGY: 1200000 2.6440 3.0961 5.8396 0.0000 -10630.5443 1357.4129 0.0000 0.0000 1769.1925 -7492.3591 300.8272 -9261.5516 -7492.4614 301.5993 -742.9265 -703.8723 30464.1972 -37.2964 15.0526
ENERGY: 1500000 2.5040 8.2346 3.4450 0.0000 -10581.9382 1399.9785 0.0000 0.0000 1788.7765 -7378.9996 304.1572 -9167.7762 -7484.8125 301.3602 -200.0310 -101.9643 30456.6977 -117.0898 -53.9875
TCL: Running FEP window   4: Lambda1 0.8499999999999999 Lambda2 0.7999999999999998 [dLambda -0.050000000000000044]
TCL: Setting parameter firsttimestep to 0
TCL: Setting parameter alchLambda to 0.8499999999999999
Info: NONBONDED TABLE R-SQUARED SPACING: 0.0625
Info: NONBONDED TABLE SIZE: 705 POINTS
TCL: Setting parameter alchLambda2 to 0.7999999999999998
Info: NONBONDED TABLE R-SQUARED SPACING: 0.0625
Info: NONBONDED TABLE SIZE: 705 POINTS
TCL: Running for 1500000 steps
ETITLE: TS BOND ANGLE DIHED IMPRP ELECT VDW BOUNDARY MISC KINETIC TOTAL TEMP POTENTIAL TOTALAVG TEMPAVG PRESSURE GPRESSURE VOLUME PRESSAVG GPRESSAVG
ENERGY: 0 2.5040 8.2346 3.4450 0.0000 -10580.0349 1399.9450 0.0000 0.0000 1787.9150 -7377.9913 304.0107 -9165.9063 -7377.9913 304.0107 -196.4889 -110.9648 30456.6977 -196.4889 -110.9648
ENERGY: 300000 1.7938 5.7581 2.9399 0.0000 -10819.0085 1466.3792 0.0000 0.0000 1731.8386 -7610.2988 294.4757 -9342.1374 -7480.0045 299.7782 -6.5780 117.3119 30219.1908 -181.0421 -105.5091
ENERGY: 600000 1.7162 5.4561 4.0904 0.0000 -10849.8519 1497.4555 0.0000 0.0000 1765.3116 -7575.8221 300.1673 -9341.1336 -7495.7195 299.2385 228.5738 319.5809 30267.8820 -163.8785 -95.0156
ENERGY: 900000 3.4401 8.0463 6.3880 0.0000 -10806.6284 1525.7894 0.0000 0.0000 1747.0770 -7515.8876 297.0668 -9262.9646 -7495.6993 298.5801 697.2856 759.2799 30190.3958 -3.3682 71.2037
ENERGY: 1200000 4.0820 6.5922 13.1854 0.0000 -10685.4769 1419.2639 0.0000 0.0000 1736.9991 -7505.3543 295.3532 -9242.3534 -7505.3655 298.5995 -366.3948 -297.3078 30284.0997 48.7729 119.4241
ENERGY: 1500000 2.3134 4.6397 7.3464 0.0000 -10658.4263 1402.8090 0.0000 0.0000 1766.7456 -7474.5721 300.4112 -9241.3178 -7507.0635 299.3164 -321.7658 -276.1775 30670.4495 24.1307 94.2837
TCL: Running FEP window   5: Lambda1 0.7999999999999998 Lambda2 0.7499999999999998 [dLambda -0.050000000000000044]
TCL: Setting parameter firsttimestep to 0
TCL: Setting parameter alchLambda to 0.7999999999999998
Info: NONBONDED TABLE R-SQUARED SPACING: 0.0625
Info: NONBONDED TABLE SIZE: 705 POINTS
TCL: Setting parameter alchLambda2 to 0.7499999999999998
Info: NONBONDED TABLE R-SQUARED SPACING: 0.0625
Info: NONBONDED TABLE SIZE: 705 POINTS
TCL: Running for 1500000 steps
ETITLE: TS BOND ANGLE DIHED IMPRP ELECT VDW BOUNDARY MISC KINETIC TOTAL TEMP POTENTIAL TOTALAVG TEMPAVG PRESSURE GPRESSURE VOLUME PRESSAVG GPRESSAVG
ENERGY: 0 2.3134 4.6397 7.3464 0.0000 -10655.9608 1401.5418 0.0000 0.0000 1765.8570 -7474.2625 300.2601 -9240.1196 -7474.2625 300.2601 -386.9773 -300.0872 30670.4495 -386.9773 -300.0872
ENERGY: 300000 2.6543 7.6985 4.2291 0.0000 -10671.4135 1418.2987 0.0000 0.0000 1704.8704 -7533.6625 289.8901 -9238.5329 -7496.2885 298.9682 -86.9814 -77.4376 30240.4850 -12.0361 49.7546
ENERGY: 600000 2.2260 4.1224 7.0519 0.0000 -10742.6910 1535.2195 0.0000 0.0000 1745.0443 -7449.0270 296.7212 -9194.0713 -7472.8548 300.1619 857.6541 975.6558 30540.0640 174.5565 230.8065
ENERGY: 900000 1.1197 6.8078 8.5018 0.0000 -10606.6920 1421.1870 0.0000 0.0000 1781.5529 -7387.5228 302.9289 -9169.0756 -7459.7438 300.3918 -118.2289 -65.6192 31040.5135 19.1724 75.0887
ENERGY: 1200000 1.6112 8.5019 5.0197 0.0000 -10787.1440 1471.3154 0.0000 0.0000 1698.4895 -7602.2062 288.8051 -9300.6958 -7480.3157 299.8474 412.0953 444.5586 29802.8005 111.2853 167.3467
ENERGY: 1500000 4.9256 8.5297 5.1786 0.0000 -10807.9257 1531.2418 0.0000 0.0000 1774.0986 -7483.9514 301.6614 -9258.0500 -7491.0074 299.1927 890.5335 955.6319 30278.6684 90.4898 149.5331
TCL: Running FEP window   6: Lambda1 0.7499999999999998 Lambda2 0.6999999999999997 [dLambda -0.050000000000000044]
TCL: Setting parameter firsttimestep to 0
TCL: Setting parameter alchLambda to 0.7499999999999998
Info: NONBONDED TABLE R-SQUARED SPACING: 0.0625
Info: NONBONDED TABLE SIZE: 705 POINTS
TCL: Setting parameter alchLambda2 to 0.6999999999999997
Info: NONBONDED TABLE R-SQUARED SPACING: 0.0625
Info: NONBONDED TABLE SIZE: 705 POINTS
TCL: Running for 1500000 steps
ETITLE: TS BOND ANGLE DIHED IMPRP ELECT VDW BOUNDARY MISC KINETIC TOTAL TEMP POTENTIAL TOTALAVG TEMPAVG PRESSURE GPRESSURE VOLUME PRESSAVG GPRESSAVG
ENERGY: 0 4.9256 8.5297 5.1786 0.0000 -10806.3066 1531.4860 0.0000 0.0000 1773.2419 -7482.9447 301.5158 -9256.1866 -7482.9447 301.5158 873.4919 950.9957 30278.6684 873.4919 950.9957
ENERGY: 300000 2.6576 5.0989 7.4843 0.0000 -10621.7881 1384.5424 0.0000 0.0000 1734.7321 -7487.2727 294.9677 -9222.0048 -7502.3142 299.1609 -453.2960 -335.9677 30300.0312 139.7044 198.4719
ENERGY: 600000 1.7072 7.7647 3.0439 0.0000 -10677.0274 1455.9371 0.0000 0.0000 1745.1705 -7463.4040 296.7426 -9208.5745 -7499.3052 296.7414 212.6327 241.7886 30284.9730 27.4690 80.7852
ENERGY: 900000 5.9775 8.9050 3.8560 0.0000 -10648.4995 1433.6134 0.0000 0.0000 1753.6856 -7442.4620 298.1905 -9196.1476 -7499.0963 296.4173 27.8360 113.6870 30673.7713 149.0083 212.8788
ENERGY: 1200000 3.7682 5.8881 6.2274 0.0000 -10630.8616 1362.3131 0.0000 0.0000 1752.0384 -7500.6264 297.9104 -9252.6648 -7498.5744 297.4273 -715.6353 -660.6360 30521.1096 -16.6354 39.3848
ENERGY: 1500000 2.5763 3.9584 3.0823 0.0000 -10754.5958 1477.0060 0.0000 0.0000 1772.0835 -7495.8894 301.3188 -9267.9729 -7493.3015 297.4539 288.0896 374.3925 30316.3210 23.7861 82.1423
TCL: Running FEP window   7: Lambda1 0.6999999999999997 Lambda2 0.6499999999999997 [dLambda -0.050000000000000044]
TCL: Setting parameter firsttimestep to 0
TCL: Setting parameter alchLambda to 0.6999999999999997
Info: NONBONDED TABLE R-SQUARED SPACING: 0.0625
Info: NONBONDED TABLE SIZE: 705 POINTS
TCL: Setting parameter alchLambda2 to 0.6499999999999997
Info: NONBONDED TABLE R-SQUARED SPACING: 0.0625
Info: NONBONDED TABLE SIZE: 705 POINTS
TCL: Running for 1500000 steps
ETITLE: TS BOND ANGLE DIHED IMPRP ELECT VDW BOUNDARY MISC KINETIC TOTAL TEMP POTENTIAL TOTALAVG TEMPAVG PRESSURE GPRESSURE VOLUME PRESSAVG GPRESSAVG
ENERGY: 0 2.5763 3.9584 3.0823 0.0000 -10753.6531 1476.0275 0.0000 0.0000 1771.2151 -7496.7935 301.1711 -9268.0086 -7496.7935 301.1711 280.7008 358.8007 30316.3210 280.7008 358.8007
ENERGY: 300000 1.5298 6.0299 4.8018 0.0000 -10639.0497 1358.6802 0.0000 0.0000 1726.5682 -7541.4398 293.5795 -9268.0080 -7525.5658 297.4029 -609.0540 -524.7186 30241.9484 232.4297 293.8074
ENERGY: 600000 2.3075 8.9590 3.1917 0.0000 -10730.2954 1442.5353 0.0000 0.0000 1782.0832 -7491.2187 303.0191 -9273.3018 -7506.4971 297.3682 -361.4643 -238.8529 30820.3385 -30.3617 35.6702
ENERGY: 900000 1.3177 6.6732 3.7825 0.0000 -10622.6799 1399.1035 0.0000 0.0000 1796.9986 -7414.8044 305.5553 -9211.8030 -7491.5178 299.6660 -350.7256 -296.3776 30893.8863 -48.6788 11.2987
ENERGY: 1200000 7.2224 6.7496 8.7194 0.0000 -10778.0460 1524.9035 0.0000 0.0000 1791.3070 -7439.1441 304.5875 -9230.4512 -7492.4510 300.2275 460.0774 592.8133 30540.2939 -14.3000 57.3980
ENERGY: 1500000 2.2650 5.3585 10.7593 0.0000 -10594.4716 1369.2048 0.0000 0.0000 1792.6142 -7414.2698 304.8098 -9206.8840 -7485.1069 300.8379 -462.0029 -438.3976 30479.9188 -52.3060 12.9843
TCL: Running FEP window   8: Lambda1 0.6499999999999997 Lambda2 0.5999999999999996 [dLambda -0.050000000000000044]
TCL: Setting parameter firsttimestep to 0
TCL: Setting parameter alchLambda to 0.6499999999999997
Info: NONBONDED TABLE R-SQUARED SPACING: 0.0625
Info: NONBONDED TABLE SIZE: 705 POINTS
TCL: Setting parameter alchLambda2 to 0.5999999999999996
Info: NONBONDED TABLE R-SQUARED SPACING: 0.0625
Info: NONBONDED TABLE SIZE: 705 POINTS
TCL: Running for 1500000 steps
ETITLE: TS BOND ANGLE DIHED IMPRP ELECT VDW BOUNDARY MISC KINETIC TOTAL TEMP POTENTIAL TOTALAVG TEMPAVG PRESSURE GPRESSURE VOLUME PRESSAVG GPRESSAVG
ENERGY: 0 2.2650 5.3585 10.7593 0.0000 -10593.2799 1369.7166 0.0000 0.0000 1791.7719 -7413.4086 304.6665 -9205.1805 -7413.4086 304.6665 -526.3438 -437.2513 30479.9188 -526.3438 -437.2513
ENERGY: 300000 4.9143 4.2428 6.1476 0.0000 -10674.6025 1458.7867 0.0000 0.0000 1745.2960 -7455.2150 296.7639 -9200.5110 -7478.6263 299.3289 408.4547 395.3566 29911.8572 153.9939 229.9829
ENERGY: 600000 2.6900 11.7612 2.8607 0.0000 -10622.5477 1359.8021 0.0000 0.0000 1726.6271 -7518.8066 293.5895 -9245.4337 -7481.8436 299.6095 -650.5387 -601.5932 30486.6021 -125.0494 -57.1766
ENERGY: 900000 4.7522 7.3439 6.9614 0.0000 -10817.8132 1507.9909 0.0000 0.0000 1759.6335 -7531.1312 299.2018 -9290.7648 -7471.6140 300.6476 576.1094 659.7495 29869.7037 3.8408 71.0863
ENERGY: 1200000 1.6806 6.8616 3.1092 0.0000 -10642.2571 1378.3496 0.0000 0.0000 1748.6382 -7503.6178 297.3322 -9252.2561 -7486.5224 299.5156 -745.7704 -703.5124 30943.5465 -101.3966 -38.1888
ENERGY: 1500000 0.8857 4.6638 6.8478 0.0000 -10821.6903 1540.3276 0.0000 0.0000 1730.3785 -7538.5870 294.2274 -9268.9655 -7486.3925 299.4214 656.0830 813.9364 30335.4744 -38.4900 35.3572
TCL: Running FEP window   9: Lambda1 0.5999999999999996 Lambda2 0.5499999999999996 [dLambda -0.050000000000000044]
TCL: Setting parameter firsttimestep to 0
TCL: Setting parameter alchLambda to 0.5999999999999996
Info: NONBONDED TABLE R-SQUARED SPACING: 0.0625
Info: NONBONDED TABLE SIZE: 705 POINTS
TCL: Setting parameter alchLambda2 to 0.5499999999999996
Info: NONBONDED TABLE R-SQUARED SPACING: 0.0625
Info: NONBONDED TABLE SIZE: 705 POINTS
TCL: Running for 1500000 steps
ETITLE: TS BOND ANGLE DIHED IMPRP ELECT VDW BOUNDARY MISC KINETIC TOTAL TEMP POTENTIAL TOTALAVG TEMPAVG PRESSURE GPRESSURE VOLUME PRESSAVG GPRESSAVG
ENERGY: 0 0.8857 4.6638 6.8478 0.0000 -10821.0812 1540.4746 0.0000 0.0000 1729.5230 -7538.6863 294.0820 -9268.2093 -7538.6863 294.0820 723.0837 805.9942 30335.4744 723.0837 805.9942
ENERGY: 300000 3.9934 5.4925 5.4152 0.0000 -10656.0194 1387.9327 0.0000 0.0000 1753.3025 -7499.8833 298.1253 -9253.1857 -7482.1380 297.6821 -458.0853 -384.1312 30351.1101 171.7055 233.6850
ENERGY: 600000 5.0636 4.4527 6.1466 0.0000 -10664.0993 1502.5626 0.0000 0.0000 1790.1449 -7355.7289 304.3899 -9145.8738 -7445.4662 299.8731 647.4429 718.9655 30814.9493 121.5470 182.4328
ENERGY: 900000 3.1905 5.1611 3.4167 0.0000 -10647.7392 1418.4305 0.0000 0.0000 1730.1477 -7487.3927 294.1882 -9217.5404 -7460.6572 299.4531 -25.4428 32.0771 30414.7150 78.1508 142.7020
ENERGY: 1200000 1.6288 6.7516 2.8411 0.0000 -10589.5543 1354.6531 0.0000 0.0000 1738.4814 -7485.1983 295.6052 -9223.6797 -7474.5597 298.5644 -527.6590 -472.3258 30336.4510 -15.5961 52.9527
ENERGY: 1500000 2.7654 7.7061 8.7450 0.0000 -10797.9423 1508.1380 0.0000 0.0000 1816.4381 -7454.1496 308.8607 -9270.5878 -7473.3725 299.5702 555.4418 566.6615 30262.7036 -17.8930 46.7814
TCL: Running FEP window  10: Lambda1 0.5499999999999996 Lambda2 0.4999999999999996 [dLambda -0.04999999999999999]
TCL: Setting parameter firsttimestep to 0
TCL: Setting parameter alchLambda to 0.5499999999999996
Info: NONBONDED TABLE R-SQUARED SPACING: 0.0625
Info: NONBONDED TABLE SIZE: 705 POINTS
TCL: Setting parameter alchLambda2 to 0.4999999999999996
Info: NONBONDED TABLE R-SQUARED SPACING: 0.0625
Info: NONBONDED TABLE SIZE: 705 POINTS
TCL: Running for 1500000 steps
ETITLE: TS BOND ANGLE DIHED IMPRP ELECT VDW BOUNDARY MISC KINETIC TOTAL TEMP POTENTIAL TOTALAVG TEMPAVG PRESSURE GPRESSURE VOLUME PRESSAVG GPRESSAVG
ENERGY: 0 2.7654 7.7061 8.7450 0.0000 -10797.1110 1508.4106 0.0000 0.0000 1815.5636 -7453.9202 308.7120 -9269.4838 -7453.9202 308.7120 482.7256 564.6074 30262.7036 482.7256 564.6074
ENERGY: 300000 4.0210 8.6709 7.1123 0.0000 -10812.4390 1540.7506 0.0000 0.0000 1808.6912 -7443.1930 307.5434 -9251.8842 -7444.6365 306.0718 942.9078 982.5329 29952.3412 324.7192 377.0634
ENERGY: 600000 6.0446 7.6820 5.4919 0.0000 -10581.6787 1371.5014 0.0000 0.0000 1751.5082 -7439.4506 297.8202 -9190.9588 -7459.1713 302.8015 -293.0739 -254.2773 30573.5509 175.7047 230.2755
ENERGY: 900000 4.1117 6.8704 7.3809 0.0000 -10628.2101 1387.1443 0.0000 0.0000 1803.9261 -7418.7767 306.7332 -9222.7027 -7454.7866 303.6792 -218.2438 -190.0309 30301.2076 91.2764 138.7992
ENERGY: 1200000 1.1272 6.6360 3.9950 0.0000 -10798.3969 1490.1943 0.0000 0.0000 1788.5952 -7507.8493 304.1264 -9296.4445 -7456.3239 302.6706 347.6956 429.3242 30326.0583 104.2323 147.3304
ENERGY: 1500000 3.0813 7.1579 2.6568 0.0000 -10666.5131 1369.7981 0.0000 0.0000 1812.5931 -7471.2259 308.2069 -9283.8190 -7463.5839 302.4700 -549.6375 -481.6588 30412.1845 68.1734 109.6041
TCL: Running FEP window  11: Lambda1 0.4999999999999996 Lambda2 0.4499999999999996 [dLambda -0.04999999999999999]
TCL: Setting parameter firsttimestep to 0
TCL: Setting parameter alchLambda to 0.4999999999999996
Info: NONBONDED TABLE R-SQUARED SPACING: 0.0625
Info: NONBONDED TABLE SIZE: 705 POINTS
TCL: Setting parameter alchLambda2 to 0.4499999999999996
Info: NONBONDED TABLE R-SQUARED SPACING: 0.0625
Info: NONBONDED TABLE SIZE: 705 POINTS
TCL: Running for 1500000 steps
ETITLE: TS BOND ANGLE DIHED IMPRP ELECT VDW BOUNDARY MISC KINETIC TOTAL TEMP POTENTIAL TOTALAVG TEMPAVG PRESSURE GPRESSURE VOLUME PRESSAVG GPRESSAVG
ENERGY: 0 3.0813 7.1579 2.6568 0.0000 -10666.4565 1369.8872 0.0000 0.0000 1811.7021 -7471.9712 308.0554 -9283.6733 -7471.9712 308.0554 -571.1870 -487.7812 30412.1845 -571.1870 -487.7812
ENERGY: 300000 2.4146 3.6948 2.9737 0.0000 -10633.1715 1387.0993 0.0000 0.0000 1743.7002 -7493.2888 296.4926 -9236.9890 -7472.3468 305.6488 -380.7686 -362.8048 30537.7328 -324.5136 -278.2016
ENERGY: 600000 1.9423 4.8032 4.6844 0.0000 -10556.2197 1362.9372 0.0000 0.0000 1797.4796 -7384.3730 305.6371 -9181.8526 -7470.0833 303.0663 -635.2985 -552.7134 30813.9884 -298.7751 -243.9108
ENERGY: 900000 1.6668 3.5028 4.2562 0.0000 -10731.6410 1405.3956 0.0000 0.0000 1789.8173 -7527.0022 304.3342 -9316.8196 -7479.3500 301.5150 -417.9213 -316.3591 30382.7775 -354.8437 -297.7141
ENERGY: 1200000 1.1590 4.7899 3.1531 0.0000 -10722.4284 1468.9708 0.0000 0.0000 1730.7072 -7513.6483 294.2833 -9244.3555 -7470.4252 300.6060 251.2425 269.1239 30247.2654 -227.7486 -182.0456
ENERGY: 1500000 4.4293 6.5358 3.3617 0.0000 -10508.5553 1315.9921 0.0000 0.0000 1737.4850 -7440.7514 295.4358 -9178.2364 -7468.7554 300.4266 -842.4471 -838.1018 30464.0016 -165.7916 -124.7659
TCL: Running FEP window  12: Lambda1 0.4499999999999996 Lambda2 0.39999999999999963 [dLambda -0.04999999999999999]
TCL: Setting parameter firsttimestep to 0
TCL: Setting parameter alchLambda to 0.4499999999999996
Info: NONBONDED TABLE R-SQUARED SPACING: 0.0625
Info: NONBONDED TABLE SIZE: 705 POINTS
TCL: Setting parameter alchLambda2 to 0.39999999999999963
Info: NONBONDED TABLE R-SQUARED SPACING: 0.0625
Info: NONBONDED TABLE SIZE: 705 POINTS
TCL: Running for 1500000 steps
ETITLE: TS BOND ANGLE DIHED IMPRP ELECT VDW BOUNDARY MISC KINETIC TOTAL TEMP POTENTIAL TOTALAVG TEMPAVG PRESSURE GPRESSURE VOLUME PRESSAVG GPRESSAVG
ENERGY: 0 4.4293 6.5358 3.3617 0.0000 -10508.5560 1316.4659 0.0000 0.0000 1736.6336 -7441.1296 295.2910 -9177.7632 -7441.1296 295.2910 -921.3108 -839.9806 30464.0016 -921.3108 -839.9806
ENERGY: 300000 3.0315 4.1027 7.6090 0.0000 -10714.4329 1401.8103 0.0000 0.0000 1712.3331 -7585.5464 291.1591 -9297.8795 -7567.3381 295.6515 -512.7310 -437.7775 30287.6337 -306.2182 -234.1456
ENERGY: 600000 2.9215 4.3028 6.8784 0.0000 -10706.0670 1432.9673 0.0000 0.0000 1748.6882 -7510.3087 297.3407 -9258.9969 -7527.5328 296.6618 93.1067 91.6969 30272.9236 -101.5407 -47.2639
ENERGY: 900000 3.3807 11.4152 6.8091 0.0000 -10721.3325 1418.8041 0.0000 0.0000 1800.2008 -7480.7226 306.0998 -9280.9234 -7519.6590 297.9295 -258.5572 -271.5323 30407.9003 -86.2757 -45.8552
ENERGY: 1200000 4.7776 8.0743 7.5976 0.0000 -10658.3321 1437.2948 0.0000 0.0000 1744.3316 -7456.2563 296.6000 -9200.5879 -7503.6963 299.0973 -317.1484 -222.3327 30765.3677 -28.0380 20.7001
ENERGY: 1500000 2.8783 5.9885 7.1558 0.0000 -10667.0447 1418.3142 0.0000 0.0000 1781.6884 -7451.0195 302.9520 -9232.7079 -7491.3049 300.2395 -625.3279 -505.3782 31042.3181 -50.2503 6.6309
TCL: Running FEP window  13: Lambda1 0.39999999999999963 Lambda2 0.34999999999999964 [dLambda -0.04999999999999999]
TCL: Setting parameter firsttimestep to 0
TCL: Setting parameter alchLambda to 0.39999999999999963
Info: NONBONDED TABLE R-SQUARED SPACING: 0.0625
Info: NONBONDED TABLE SIZE: 705 POINTS
TCL: Setting parameter alchLambda2 to 0.34999999999999964
Info: NONBONDED TABLE R-SQUARED SPACING: 0.0625
Info: NONBONDED TABLE SIZE: 705 POINTS
TCL: Running for 1500000 steps
ETITLE: TS BOND ANGLE DIHED IMPRP ELECT VDW BOUNDARY MISC KINETIC TOTAL TEMP POTENTIAL TOTALAVG TEMPAVG PRESSURE GPRESSURE VOLUME PRESSAVG GPRESSAVG
ENERGY: 0 2.8783 5.9885 7.1558 0.0000 -10667.0444 1418.7782 0.0000 0.0000 1780.8348 -7451.4087 302.8068 -9232.2435 -7451.4087 302.8068 -576.5321 -503.5012 31042.3181 -576.5321 -503.5012
ENERGY: 300000 2.3805 4.8200 5.7643 0.0000 -10814.1954 1474.8055 0.0000 0.0000 1759.2396 -7567.1855 299.1349 -9326.4251 -7505.2908 299.7363 142.8335 201.9716 30039.5665 165.8184 217.3299
ENERGY: 600000 2.4122 8.6125 2.6115 0.0000 -10650.2174 1456.1685 0.0000 0.0000 1749.1498 -7431.2629 297.4192 -9180.4126 -7477.2123 299.4660 117.7566 188.4599 30571.2645 78.2511 121.7834
ENERGY: 900000 2.3566 7.5877 6.7288 0.0000 -10783.4861 1438.4669 0.0000 0.0000 1762.5023 -7565.8438 299.6896 -9328.3461 -7480.4475 300.6169 -242.8837 -156.9222 29984.8432 18.9761 65.7620
ENERGY: 1200000 3.8633 8.6109 3.6200 0.0000 -10706.9972 1426.9620 0.0000 0.0000 1713.6402 -7550.3009 291.3813 -9263.9410 -7472.6437 300.9122 -281.8890 -233.5291 30345.9355 -32.1278 20.5302
ENERGY: 1500000 3.4462 6.4499 7.2663 0.0000 -10826.7308 1567.7302 0.0000 0.0000 1790.4702 -7451.3679 304.4452 -9241.8382 -7476.9646 300.9278 1235.6788 1169.4575 29958.1051 105.0822 146.6996
TCL: Running FEP window  14: Lambda1 0.34999999999999964 Lambda2 0.29999999999999966 [dLambda -0.04999999999999999]
TCL: Setting parameter firsttimestep to 0
TCL: Setting parameter alchLambda to 0.34999999999999964
Info: NONBONDED TABLE R-SQUARED SPACING: 0.0625
Info: NONBONDED TABLE SIZE: 705 POINTS
TCL: Setting parameter alchLambda2 to 0.29999999999999966
Info: NONBONDED TABLE R-SQUARED SPACING: 0.0625
Info: NONBONDED TABLE SIZE: 705 POINTS
TCL: Running for 1500000 steps
ETITLE: TS BOND ANGLE DIHED IMPRP ELECT VDW BOUNDARY MISC KINETIC TOTAL TEMP POTENTIAL TOTALAVG TEMPAVG PRESSURE GPRESSURE VOLUME PRESSAVG GPRESSAVG
ENERGY: 0 3.4462 6.4499 7.2663 0.0000 -10826.7313 1568.1939 0.0000 0.0000 1789.5542 -7451.8207 304.2894 -9241.3749 -7451.8207 304.2894 1091.6186 1166.5488 29958.1051 1091.6186 1166.5488
ENERGY: 300000 3.5020 5.2854 10.5252 0.0000 -10611.7593 1400.9870 0.0000 0.0000 1753.2583 -7438.2015 298.1178 -9191.4597 -7469.3780 298.8808 -280.1021 -191.2534 30637.6298 534.6258 606.2165
ENERGY: 600000 1.1802 6.8839 8.1310 0.0000 -10714.4382 1361.0981 0.0000 0.0000 1744.1698 -7592.9751 296.5724 -9337.1449 -7499.9190 298.5929 -1001.4088 -892.0791 30493.9747 178.9979 261.1602
ENERGY: 900000 1.9926 7.6527 6.7176 0.0000 -10706.6868 1423.9609 0.0000 0.0000 1783.2544 -7483.1086 303.2183 -9266.3630 -7499.6782 298.4875 -437.7774 -381.3896 30585.6298 128.1028 192.6893
ENERGY: 1200000 4.0935 2.3047 5.8352 0.0000 -10792.3350 1540.6615 0.0000 0.0000 1774.7334 -7464.7068 301.7694 -9239.4402 -7496.3239 300.1914 782.8319 873.6192 30189.2837 196.1583 259.0490
ENERGY: 1500000 2.5875 3.4083 3.6235 0.0000 -10648.8508 1358.4061 0.0000 0.0000 1777.3592 -7503.4663 302.2159 -9280.8254 -7495.7167 299.5682 -994.7998 -900.6035 30688.1681 199.6154 268.5394
TCL: Running FEP window  15: Lambda1 0.29999999999999966 Lambda2 0.24999999999999967 [dLambda -0.04999999999999999]
TCL: Setting parameter firsttimestep to 0
TCL: Setting parameter alchLambda to 0.29999999999999966
Info: NONBONDED TABLE R-SQUARED SPACING: 0.0625
Info: NONBONDED TABLE SIZE: 705 POINTS
TCL: Setting parameter alchLambda2 to 0.24999999999999967
Info: NONBONDED TABLE R-SQUARED SPACING: 0.0625
Info: NONBONDED TABLE SIZE: 705 POINTS
TCL: Running for 1500000 steps
ETITLE: TS BOND ANGLE DIHED IMPRP ELECT VDW BOUNDARY MISC KINETIC TOTAL TEMP POTENTIAL TOTALAVG TEMPAVG PRESSURE GPRESSURE VOLUME PRESSAVG GPRESSAVG
ENERGY: 0 2.5875 3.4083 3.6235 0.0000 -10648.8521 1358.7689 0.0000 0.0000 1776.4594 -7504.0045 302.0629 -9280.4639 -7504.0045 302.0629 -989.7496 -904.3360 30688.1681 -989.7496 -904.3360
ENERGY: 300000 3.2526 4.2416 4.9343 0.0000 -10664.5624 1461.0483 0.0000 0.0000 1757.5374 -7433.5482 298.8454 -9191.0856 -7482.3556 299.5510 463.8794 517.8230 30410.3610 -145.4791 -76.3165
ENERGY: 600000 3.3505 4.4204 5.0247 0.0000 -10764.2760 1420.1735 0.0000 0.0000 1779.0543 -7552.2527 302.5041 -9331.3069 -7479.6723 298.4684 -501.0361 -440.8322 30311.0108 -255.1346 -184.8026
ENERGY: 900000 2.2738 8.0440 1.5035 0.0000 -10643.4695 1447.9315 0.0000 0.0000 1798.4565 -7385.2602 305.8032 -9183.7167 -7475.8248 298.9017 47.4810 126.0108 30830.7434 -97.1078 -28.5760
ENERGY: 1200000 4.0488 6.0063 10.0668 0.0000 -10736.4732 1441.6582 0.0000 0.0000 1802.9662 -7471.7269 306.5700 -9274.6931 -7491.0973 299.6839 -226.7732 -117.7364 30277.0192 -121.3688 -51.9755
ENERGY: 1500000 5.8431 4.1020 2.8876 0.0000 -10592.1798 1355.7866 0.0000 0.0000 1718.4529 -7505.1076 292.1996 -9223.5605 -7484.2624 299.6509 -745.9118 -704.3047 30301.4083 -182.1757 -112.4308
TCL: Running FEP window  16: Lambda1 0.24999999999999967 Lambda2 0.19999999999999968 [dLambda -0.04999999999999999]
TCL: Setting parameter firsttimestep to 0
TCL: Setting parameter alchLambda to 0.24999999999999967
Info: NONBONDED TABLE R-SQUARED SPACING: 0.0625
Info: NONBONDED TABLE SIZE: 705 POINTS
TCL: Setting parameter alchLambda2 to 0.19999999999999968
Info: NONBONDED TABLE R-SQUARED SPACING: 0.0625
Info: NONBONDED TABLE SIZE: 705 POINTS
TCL: Running for 1500000 steps
ETITLE: TS BOND ANGLE DIHED IMPRP ELECT VDW BOUNDARY MISC KINETIC TOTAL TEMP POTENTIAL TOTALAVG TEMPAVG PRESSURE GPRESSURE VOLUME PRESSAVG GPRESSAVG
ENERGY: 0 5.8431 4.1020 2.8876 0.0000 -10592.1809 1355.4419 0.0000 0.0000 1717.6012 -7506.3051 292.0548 -9223.9063 -7506.3051 292.0548 -769.7010 -706.8662 30301.4083 -769.7010 -706.8662
ENERGY: 300000 3.2786 7.8994 9.9205 0.0000 -10725.9262 1443.7399 0.0000 0.0000 1721.5581 -7539.5296 292.7276 -9261.0878 -7516.0829 296.3332 -32.8453 83.8882 29988.4235 -343.8844 -290.0219
ENERGY: 600000 1.5274 6.5652 7.7482 0.0000 -10695.6611 1459.0479 0.0000 0.0000 1755.8430 -7464.9294 298.5573 -9220.7725 -7479.5681 298.5974 343.4110 436.6124 30141.5123 -188.2899 -117.7613
ENERGY: 900000 2.5963 6.8618 6.1191 0.0000 -10707.2105 1416.3425 0.0000 0.0000 1753.4910 -7521.7999 298.1574 -9275.2909 -7490.5159 299.0748 -253.3620 -132.6589 30269.0085 -76.3341 -5.4606
ENERGY: 1200000 2.8036 4.2642 1.7381 0.0000 -10906.8856 1600.2461 0.0000 0.0000 1796.4054 -7501.4283 305.4544 -9297.8336 -7495.4533 299.6156 1201.6750 1283.6438 30100.7068 24.9565 102.5106
ENERGY: 1500000 2.5847 5.1364 8.5433 0.0000 -10824.1309 1522.7814 0.0000 0.0000 1714.5521 -7570.5329 291.5364 -9285.0850 -7495.9058 298.3366 460.8765 506.9691 30186.5019 85.7837 159.7239
TCL: Running FEP window  17: Lambda1 0.19999999999999968 Lambda2 0.1499999999999997 [dLambda -0.04999999999999999]
TCL: Setting parameter firsttimestep to 0
TCL: Setting parameter alchLambda to 0.19999999999999968
Info: NONBONDED TABLE R-SQUARED SPACING: 0.0625
Info: NONBONDED TABLE SIZE: 705 POINTS
TCL: Setting parameter alchLambda2 to 0.1499999999999997
Info: NONBONDED TABLE R-SQUARED SPACING: 0.0625
Info: NONBONDED TABLE SIZE: 705 POINTS
TCL: Running for 1500000 steps
ETITLE: TS BOND ANGLE DIHED IMPRP ELECT VDW BOUNDARY MISC KINETIC TOTAL TEMP POTENTIAL TOTALAVG TEMPAVG PRESSURE GPRESSURE VOLUME PRESSAVG GPRESSAVG
ENERGY: 0 2.5847 5.1364 8.5433 0.0000 -10824.1309 1522.1246 0.0000 0.0000 1713.6641 -7572.0778 291.3854 -9285.7419 -7572.0778 291.3854 413.2949 499.9741 30186.5019 413.2949 499.9741
ENERGY: 300000 4.8313 9.3683 5.1844 0.0000 -10672.4649 1400.5192 0.0000 0.0000 1790.9186 -7461.6431 304.5214 -9252.5617 -7501.1687 300.4053 -865.2691 -802.9303 31090.1700 -107.9420 -44.8859
ENERGY: 600000 2.8410 5.5041 6.4964 0.0000 -10687.2560 1426.6731 0.0000 0.0000 1746.5181 -7499.2234 296.9717 -9245.7414 -7475.1839 301.4110 -465.8787 -372.7941 30694.2305 -195.4957 -132.5154
ENERGY: 900000 4.4222 11.3505 5.4238 0.0000 -10670.5642 1359.8863 0.0000 0.0000 1762.1757 -7527.3057 299.6341 -9289.4814 -7498.1274 300.1167 -797.4015 -693.3700 30159.8833 -254.8522 -192.7042
ENERGY: 1200000 4.4028 4.4447 7.7215 0.0000 -10600.4215 1381.5188 0.0000 0.0000 1756.3118 -7446.0219 298.6370 -9202.3338 -7485.0398 299.2090 -439.5126 -360.6009 30324.6227 -196.1518 -133.6242
ENERGY: 1500000 3.5545 7.7076 5.5166 0.0000 -10725.5028 1474.4182 0.0000 0.0000 1778.6686 -7455.6374 302.4385 -9234.3060 -7478.9654 300.2066 383.3155 437.3490 30146.7718 -138.6780 -69.9201
TCL: Running FEP window  18: Lambda1 0.1499999999999997 Lambda2 0.09999999999999969 [dLambda -0.05 ]
TCL: Setting parameter firsttimestep to 0
TCL: Setting parameter alchLambda to 0.1499999999999997
Info: NONBONDED TABLE R-SQUARED SPACING: 0.0625
Info: NONBONDED TABLE SIZE: 705 POINTS
TCL: Setting parameter alchLambda2 to 0.09999999999999969
Info: NONBONDED TABLE R-SQUARED SPACING: 0.0625
Info: NONBONDED TABLE SIZE: 705 POINTS
TCL: Running for 1500000 steps
ETITLE: TS BOND ANGLE DIHED IMPRP ELECT VDW BOUNDARY MISC KINETIC TOTAL TEMP POTENTIAL TOTALAVG TEMPAVG PRESSURE GPRESSURE VOLUME PRESSAVG GPRESSAVG
ENERGY: 0 3.5545 7.7076 5.5166 0.0000 -10725.5035 1474.9868 0.0000 0.0000 1777.7966 -7455.9414 302.2902 -9233.7380 -7455.9414 302.2902 349.0446 437.3485 30146.7718 349.0446 437.3485
ENERGY: 300000 1.0800 3.1633 5.9332 0.0000 -10673.9686 1407.7531 0.0000 0.0000 1763.4084 -7492.6307 299.8437 -9256.0390 -7448.6017 302.9149 -353.1603 -231.5635 30467.7371 -191.1813 -109.5937
ENERGY: 600000 2.9155 4.6145 7.0965 0.0000 -10688.9673 1432.1446 0.0000 0.0000 1760.3970 -7481.7991 299.3317 -9242.1961 -7475.1622 299.4332 -29.9638 -32.4469 30240.3946 -185.2037 -121.4215
ENERGY: 900000 2.8992 4.5455 4.7588 0.0000 -10680.2884 1509.8609 0.0000 0.0000 1761.8540 -7396.3701 299.5794 -9158.2240 -7457.2115 298.8747 761.3562 856.3675 30121.2786 -80.8305 -17.7580
ENERGY: 1200000 4.7990 4.5084 5.4510 0.0000 -10686.0073 1457.4216 0.0000 0.0000 1770.2404 -7443.5869 301.0054 -9213.8274 -7448.8688 300.4991 333.3398 361.4812 30157.5209 -79.2602 -15.8540
ENERGY: 1500000 1.9419 5.0946 3.6978 0.0000 -10632.9199 1452.5652 0.0000 0.0000 1794.6434 -7374.9771 305.1548 -9169.6204 -7450.7717 300.6519 122.6225 207.0048 30386.0343 -119.2242 -55.0260
TCL: Running FEP window  19: Lambda1 0.09999999999999969 Lambda2 0.049999999999999684 [dLambda -0.05 ]
TCL: Setting parameter firsttimestep to 0
TCL: Setting parameter alchLambda to 0.09999999999999969
Info: NONBONDED TABLE R-SQUARED SPACING: 0.0625
Info: NONBONDED TABLE SIZE: 705 POINTS
TCL: Setting parameter alchLambda2 to 0.049999999999999684
Info: NONBONDED TABLE R-SQUARED SPACING: 0.0625
Info: NONBONDED TABLE SIZE: 705 POINTS
TCL: Running for 1500000 steps
ETITLE: TS BOND ANGLE DIHED IMPRP ELECT VDW BOUNDARY MISC KINETIC TOTAL TEMP POTENTIAL TOTALAVG TEMPAVG PRESSURE GPRESSURE VOLUME PRESSAVG GPRESSAVG
ENERGY: 0 1.9419 5.0946 3.6978 0.0000 -10632.9200 1451.9019 0.0000 0.0000 1793.7538 -7376.5300 305.0035 -9170.2838 -7376.5300 305.0035 111.0566 203.1598 30386.0343 111.0566 203.1598
ENERGY: 300000 2.0981 3.9776 7.9323 0.0000 -10673.3041 1402.1361 0.0000 0.0000 1769.4517 -7487.7083 300.8713 -9257.1600 -7496.4233 300.6783 -396.0654 -361.8493 30356.3937 77.7830 140.8487
ENERGY: 600000 1.3953 6.2663 5.3345 0.0000 -10543.8484 1298.6397 0.0000 0.0000 1776.9068 -7455.3059 302.1389 -9232.2127 -7475.2887 302.6545 -1089.3168 -1012.9382 30368.1129 -274.8966 -206.3564
ENERGY: 900000 2.9777 8.8613 6.5440 0.0000 -10542.5207 1327.4039 0.0000 0.0000 1777.3885 -7419.3454 302.2208 -9196.7339 -7479.2064 300.8346 -838.1828 -784.4192 30655.0489 -362.3982 -302.9139
ENERGY: 1200000 1.4248 4.6777 6.0518 0.0000 -10672.4848 1372.6870 0.0000 0.0000 1723.4861 -7564.1574 293.0555 -9287.6435 -7481.2253 300.4615 -615.8658 -595.2858 29992.9239 -350.8887 -295.6626
ENERGY: 1500000 1.5247 4.7929 6.4522 0.0000 -10686.1669 1472.5596 0.0000 0.0000 1730.7737 -7470.0639 294.2946 -9200.8376 -7481.0923 299.8718 55.0779 163.1950 30753.8476 -348.5690 -289.3518
TCL: Running FEP window  20: Lambda1 0.049999999999999684 Lambda2 0.0    [dLambda -0.049999999999999684]
TCL: Setting parameter firsttimestep to 0
TCL: Setting parameter alchLambda to 0.049999999999999684
Info: NONBONDED TABLE R-SQUARED SPACING: 0.0625
Info: NONBONDED TABLE SIZE: 705 POINTS
TCL: Setting parameter alchLambda2 to 0.0
Info: NONBONDED TABLE R-SQUARED SPACING: 0.0625
Info: NONBONDED TABLE SIZE: 705 POINTS
TCL: Running for 1500000 steps
ETITLE: TS BOND ANGLE DIHED IMPRP ELECT VDW BOUNDARY MISC KINETIC TOTAL TEMP POTENTIAL TOTALAVG TEMPAVG PRESSURE GPRESSURE VOLUME PRESSAVG GPRESSAVG
ENERGY: 0 1.5247 4.7929 6.4522 0.0000 -10686.1669 1473.0294 0.0000 0.0000 1729.9150 -7470.4528 294.1486 -9200.3678 -7470.4528 294.1486 88.7807 160.7140 30753.8476 88.7807 160.7140
ENERGY: 300000 2.9214 5.3016 4.1347 0.0000 -10652.7100 1453.7231 0.0000 0.0000 1789.2505 -7397.3787 304.2378 -9186.6292 -7462.3869 299.8352 -36.3370 83.0869 30630.2135 124.9625 209.9562
ENERGY: 600000 4.2868 7.0059 3.4354 0.0000 -10769.1200 1529.6536 0.0000 0.0000 1769.3611 -7455.3772 300.8559 -9224.7383 -7442.3418 301.8997 522.9818 587.5078 30316.6901 261.2271 325.6593
ENERGY: 900000 1.9810 4.7529 5.5015 0.0000 -10653.4337 1387.7184 0.0000 0.0000 1812.6762 -7440.8035 308.2210 -9253.4797 -7446.0021 302.5181 -569.4672 -475.0998 30596.9219 155.5650 226.3329
ENERGY: 1200000 3.7510 11.1989 6.8014 0.0000 -10758.3848 1493.7013 0.0000 0.0000 1757.8996 -7485.0326 298.9070 -9242.9322 -7454.4497 302.2354 335.7711 410.6353 30260.0867 144.9982 209.1532
ENERGY: 1500000 3.7122 9.8828 3.6852 0.0000 -10657.0294 1375.4228 0.0000 0.0000 1800.1960 -7464.1303 306.0990 -9264.3263 -7458.4088 302.8202 -551.1737 -473.8347 30399.9593 41.7257 106.1548
TCL: Exiting due to exit command.
