Info: SIMULATION PARAMETERS:
Info: TIMESTEP               2
Info: NUMBER OF STEPS        0
Info: STEPS PER CYCLE        10
Info: PERIODIC CELL BASIS 1  29.3241 0 0
Info: PERIODIC CELL BASIS 2  0 30.343 0
Info: PERIODIC CELL BASIS 3  0 0 34.1506
Info: PERIODIC CELL CENTER   0 0 0
Info: WRAPPING WATERS AROUND PERIODIC BOUNDARIES ON OUTPUT.
Info: WRAPPING ALL CLUSTERS AROUND PERIODIC BOUNDARIES ON OUTPUT.
Info: FIRST LDB TIMESTEP     50
Info: LAST LDB TIMESTEP     -1
Info: HOM BACKGROUND SCALING 1
Info: PME BACKGROUND SCALING 1
Info: MIN ATOMS PER PATCH    40
Info: EMPTY PATCH LOAD       40 ATOMS
Info: VELOCITY FILE          mobley_9717937_equil.vel
Info: CENTER OF MASS MOVING INITIALLY? NO
Info: DIELECTRIC             1
Info: EXCLUDE                SCALED ONE-FOUR
Info: 1-4 ELECTROSTATICS SCALED BY 0.833333
Info: MODIFIED 1-4 VDW PARAMETERS WILL BE USED
Info: DCD FILENAME           mobley_9717937_prod.dcd
Info: DCD FREQUENCY          100000
Info: DCD FIRST STEP         100000
Info: DCD FILE WILL CONTAIN UNIT CELL DATA
Info: XST FILENAME           mobley_9717937_prod.xst
Info: XST FREQUENCY          100000
Info: NO VELOCITY DCD OUTPUT
Info: NO FORCE DCD OUTPUT
Info: OUTPUT FILENAME        mobley_9717937_prod
Info: BINARY OUTPUT FILES WILL BE USED
Info: RESTART FILENAME       mobley_9717937_prod.restart
Info: RESTART FREQUENCY      100000
Info: BINARY RESTART FILES WILL BE USED
Info: CUTOFF                 9
Info: PAIRLIST DISTANCE      11
Info: PAIRLIST SHRINK RATE   0.01
Info: PAIRLIST GROW RATE     0.01
Info: PAIRLIST TRIGGER       0.3
Info: PAIRLISTS PER CYCLE    2
Info: PAIRLISTS ENABLED
Info: MARGIN                 2
Info: HYDROGEN GROUP CUTOFF  2.5
Info: PATCH DIMENSION        15.5
Info: ENERGY OUTPUT STEPS    100000
Info: ENERGY EVALUATION STEPS    100000
Info: OUTPUT ENERGY PRECISION 4
Info: CROSSTERM ENERGY INCLUDED IN DIHEDRAL
Info: TIMING OUTPUT STEPS    1000000
Info: PRESSURE OUTPUT STEPS  100000
Info: ALCHEMICAL FEP ON
Info: FEP CURRENT LAMBDA VALUE     0
Info: FEP COMPARISON LAMBDA VALUE  0.05
Info: FEP INTRA-ALCHEMICAL NON-BONDED INTERACTIONS WILL BE RETAINED
Info: FEP INTRA-ALCHEMICAL BONDED INTERACTIONS WILL BE RETAINED
Info: FEP VDW SHIFTING COEFFICIENT 5
Info: FEP ELEC. ACTIVE FOR ANNIHILATED PARTICLES BETWEEN LAMBDA = 0 AND LAMBDA = 0.5
Info: FEP ELEC. ACTIVE FOR EXNIHILATED PARTICLES BETWEEN LAMBDA = 0.5 AND LAMBDA = 1
Info: FEP VDW ACTIVE FOR ANNIHILATED PARTICLES BETWEEN LAMBDA = 0 AND LAMBDA = 1
Info: FEP VDW ACTIVE FOR EXNIHILATED PARTICLES BETWEEN LAMBDA = 0 AND LAMBDA = 1
Info: FEP BOND ACTIVE FOR ANNIHILATED PARTICLES BETWEEN LAMBDA = 1 AND LAMBDA = 1
Info: FEP BOND ACTIVE FOR EXNIHILATED PARTICLES BETWEEN LAMBDA = 0 AND LAMBDA = 0
Info: LANGEVIN DYNAMICS ACTIVE
Info: LANGEVIN TEMPERATURE   300
Info: LANGEVIN USING BBK INTEGRATOR
Info: LANGEVIN DAMPING COEFFICIENT IS 1 INVERSE PS
Info: LANGEVIN DYNAMICS APPLIED TO HYDROGENS
Info: LANGEVIN PISTON PRESSURE CONTROL ACTIVE
Info:        TARGET PRESSURE IS 1.01325 BAR
Info:     OSCILLATION PERIOD IS 50 FS
Info:             DECAY TIME IS 25 FS
Info:     PISTON TEMPERATURE IS 300 K
Info:       PRESSURE CONTROL IS GROUP-BASED
Info:    INITIAL STRAIN RATE IS -0.000233466 -0.000233466 -0.000233466
Info:       CELL FLUCTUATION IS ISOTROPIC
Info: PARTICLE MESH EWALD (PME) ACTIVE
Info: PME TOLERANCE               1e-06
Info: PME EWALD COEFFICIENT       0.348832
Info: PME INTERPOLATION ORDER     4
Info: PME GRID DIMENSIONS         32 32 36
Info: PME MAXIMUM GRID SPACING    1
Info: PME CALCULATION WILL BE PERFORMED ON GPU
Info: FULL ELECTROSTATIC EVALUATION FREQUENCY      2
Info: USING VERLET I (r-RESPA) MTS SCHEME.
Info: C1 SPLITTING OF LONG RANGE ELECTROSTATICS
Info: PLACING ATOMS IN PATCHES BY HYDROGEN GROUPS
Info: RIGID BONDS TO HYDROGEN : ALL
Info:         ERROR TOLERANCE : 1e-08
Info:          MAX ITERATIONS : 100
Info: RIGID WATER USING SETTLE ALGORITHM
Info: RANDOM NUMBER SEED     1743803890
Info: USE HYDROGEN BONDS?    NO
Info: Using AMBER format force field!
Info: AMBER PARM FILE        mobley_9717937.prmtop
Info: COORDINATE PDB         mobley_9717937.pdb
Info: Exclusions will be read from PARM file!
Info: SCNB (VDW SCALING)     2
Info: USING ARITHMETIC MEAN TO COMBINE L-J SIGMA PARAMETERS
Info: BINARY COORDINATES     mobley_9717937_equil.coor
Info: SUMMARY OF PARAMETERS:
Info: 7 BONDS
Info: 8 ANGLES
Info:   8 HARMONIC
Info:   0 COSINE-BASED
Info: 3 DIHEDRAL
Info: 0 IMPROPER
Info: 0 CROSSTERM
Info: 0 VDW
Info: 15 VDW_PAIRS
Info: 0 NBTHOLE_PAIRS
Info: To read alchdata from file: mobley_9717937.pdb
Info: To read alchflag data from column: 5
Info: STRUCTURE SUMMARY:
Info: 2908 ATOMS
Info: 2909 BONDS
Info: 36 ANGLES
Info: 64 DIHEDRALS
Info: 0 IMPROPERS
Info: 0 CROSSTERMS
Info: 2991 EXCLUSIONS
Info: 2895 RIGID BONDS
Info: ALCH: 0 ATOMS TO DISAPPEAR IN FINAL STATE
Info: ALCH: 22 ATOMS TO APPEAR IN FINAL STATE
Info: 5829 DEGREES OF FREEDOM
Info: 975 HYDROGEN GROUPS
Info: 3 ATOMS IN LARGEST HYDROGEN GROUP
Info: 975 MIGRATION GROUPS
Info: 3 ATOMS IN LARGEST MIGRATION GROUP
Info: TOTAL MASS = 17520 amu
Info: TOTAL CHARGE = 0.000100028 e
Info: MASS DENSITY = 0.957442 g/cm^3
Info: ATOM DENSITY = 0.0957002 atoms/A^3
Info: ADDED 0 IMPLICIT EXCLUSIONS
Info: NONBONDED TABLE R-SQUARED SPACING: 0.0625
Info: NONBONDED TABLE SIZE: 705 POINTS
Info: REMOVING COM VELOCITY 0.109893 -0.0800613 -0.208422
Info: Use 3D box decompostion in PME FFT.
Info: Updated CUDA force table with 4096 elements.
Info: Updated CUDA LJ table with 5 x 5 elements.
Info: Found 20 unique exclusion lists needing 60 bytes
TCL: Running for 1500000 steps
ETITLE: TS BOND ANGLE DIHED IMPRP ELECT VDW BOUNDARY MISC KINETIC TOTAL TEMP POTENTIAL TOTALAVG TEMPAVG PRESSURE GPRESSURE VOLUME PRESSAVG GPRESSAVG
ENERGY: 0 3.8134 5.9221 8.7016 0.0000 -10436.2314 1410.6512 0.0000 0.0000 1734.0160 -7273.1270 299.3984 -9007.1430 -7273.1270 299.3984 -12.2802 53.7741 30386.5631 -12.2802 53.7741
ENERGY: 300000 3.6506 2.0244 12.7682 0.0000 -10517.2892 1453.2699 0.0000 0.0000 1669.3054 -7376.2708 288.2253 -9045.5762 -7343.2022 295.9615 682.2527 691.9216 29335.3862 211.7835 250.1351
ENERGY: 600000 3.8541 5.1525 8.5248 0.0000 -10442.3214 1424.4398 0.0000 0.0000 1707.8908 -7292.4595 294.8875 -9000.3503 -7324.5691 298.6313 -20.1261 68.0635 30187.2547 296.5931 351.7823
ENERGY: 900000 5.1399 3.5395 7.6238 0.0000 -10442.5900 1344.0490 0.0000 0.0000 1712.3441 -7369.8937 295.6565 -9082.2378 -7317.1663 298.3206 -717.5330 -642.2738 29700.5182 156.9681 221.4687
ENERGY: 1200000 3.3751 7.0196 11.7979 0.0000 -10457.0430 1391.9026 0.0000 0.0000 1793.2420 -7249.7059 309.6244 -9042.9479 -7319.8843 298.7682 -470.8699 -339.0346 30044.0332 72.0847 147.0034
ENERGY: 1500000 4.0292 4.0764 10.8021 0.0000 -10596.8576 1461.0474 0.0000 0.0000 1749.9125 -7366.9900 302.1431 -9116.9025 -7328.0648 298.3127 484.3239 527.1335 29556.5926 105.7029 173.7531
TCL: Running FEP window   2: Lambda1 0.05   Lambda2 0.1    [dLambda 0.05  ]
TCL: Setting parameter firsttimestep to 0
TCL: Setting parameter alchLambda to 0.05
Info: NONBONDED TABLE R-SQUARED SPACING: 0.0625
Info: NONBONDED TABLE SIZE: 705 POINTS
TCL: Setting parameter alchLambda2 to 0.1
Info: NONBONDED TABLE R-SQUARED SPACING: 0.0625
Info: NONBONDED TABLE SIZE: 705 POINTS
TCL: Running for 1500000 steps
ETITLE: TS BOND ANGLE DIHED IMPRP ELECT VDW BOUNDARY MISC KINETIC TOTAL TEMP POTENTIAL TOTALAVG TEMPAVG PRESSURE GPRESSURE VOLUME PRESSAVG GPRESSAVG
ENERGY: 0 4.0292 4.0764 10.8021 0.0000 -10596.8597 1464.1189 0.0000 0.0000 1749.1119 -7364.7212 302.0049 -9113.8332 -7364.7212 302.0049 449.4212 533.2988 29556.5926 449.4212 533.2988
ENERGY: 300000 1.7723 9.0493 11.9317 0.0000 -10620.7672 1468.6433 0.0000 0.0000 1732.3027 -7397.0680 299.1025 -9129.3707 -7395.8063 299.5487 186.5609 249.5282 29582.0231 181.1722 235.1375
ENERGY: 600000 5.0086 6.5321 14.2586 0.0000 -10346.2152 1333.6932 0.0000 0.0000 1772.6656 -7214.0571 306.0717 -8986.7227 -7350.5245 302.1254 -706.3954 -584.1555 30214.9451 -32.3437 20.9906
ENERGY: 900000 3.2454 10.0294 10.5106 0.0000 -10654.8133 1476.9344 0.0000 0.0000 1735.8114 -7418.2820 299.7084 -9154.0935 -7338.3506 301.7236 378.4198 391.1587 29554.5995 -17.4825 28.9671
ENERGY: 1200000 5.8894 9.1524 6.6297 0.0000 -10431.3053 1435.8188 0.0000 0.0000 1719.3230 -7254.4920 296.8614 -8973.8150 -7313.9542 301.9841 14.6398 26.0482 30178.7490 -82.3877 -39.1809
ENERGY: 1500000 5.3106 3.3925 11.2136 0.0000 -10405.6506 1318.7326 0.0000 0.0000 1709.0942 -7357.9071 295.0953 -9067.0013 -7322.5771 300.7564 -727.4421 -710.6492 29632.8950 -142.0239 -98.1081
TCL: Running FEP window   3: Lambda1 0.1    Lambda2 0.15000000000000002 [dLambda 0.05000000000000002]
TCL: Setting parameter firsttimestep to 0
TCL: Setting parameter alchLambda to 0.1
Info: NONBONDED TABLE R-SQUARED SPACING: 0.0625
Info: NONBONDED TABLE SIZE: 705 POINTS
TCL: Setting parameter alchLambda2 to 0.15000000000000002
Info: NONBONDED TABLE R-SQUARED SPACING: 0.0625
Info: NONBONDED TABLE SIZE: 705 POINTS
TCL: Running for 1500000 steps
ETITLE: TS BOND ANGLE DIHED IMPRP ELECT VDW BOUNDARY MISC KINETIC TOTAL TEMP POTENTIAL TOTALAVG TEMPAVG PRESSURE GPRESSURE VOLUME PRESSAVG GPRESSAVG
ENERGY: 0 5.3106 3.3925 11.2136 0.0000 -10405.6503 1319.2517 0.0000 0.0000 1708.2025 -7358.2795 294.9414 -9066.4820 -7358.2795 294.9414 -758.4912 -704.9529 29632.8950 -758.4912 -704.9529
ENERGY: 300000 6.8669 4.1730 10.8640 0.0000 -10416.8264 1335.2150 0.0000 0.0000 1763.8242 -7295.8834 304.5451 -9059.7075 -7331.3924 297.6407 -644.7493 -581.4737 29985.8183 -25.2810 24.3716
ENERGY: 600000 6.5321 4.3316 10.7468 0.0000 -10370.9796 1383.5488 0.0000 0.0000 1745.8590 -7219.9614 301.4432 -8965.8204 -7311.6076 297.1823 113.2642 141.1618 29566.6731 216.0211 277.7725
ENERGY: 900000 6.5675 5.2078 9.6108 0.0000 -10491.0615 1435.7479 0.0000 0.0000 1805.7889 -7228.1386 311.7908 -9033.9275 -7296.3747 299.7781 4.8453 57.9120 29884.9528 219.6887 280.3687
ENERGY: 1200000 3.5764 7.6912 8.0859 0.0000 -10530.6422 1420.1756 0.0000 0.0000 1768.0111 -7323.1021 305.2680 -9091.1131 -7312.6720 299.9377 -311.3418 -227.0505 29964.0065 102.5218 165.5626
ENERGY: 1500000 5.4034 5.7252 12.6685 0.0000 -10459.8868 1395.3205 0.0000 0.0000 1803.6953 -7237.0739 311.4293 -9040.7692 -7307.5973 300.9534 -221.7216 -113.1586 29842.6772 74.8585 141.8219
TCL: Running FEP window   4: Lambda1 0.15000000000000002 Lambda2 0.2    [dLambda 0.04999999999999999]
TCL: Setting parameter firsttimestep to 0
TCL: Setting parameter alchLambda to 0.15000000000000002
Info: NONBONDED TABLE R-SQUARED SPACING: 0.0625
Info: NONBONDED TABLE SIZE: 705 POINTS
TCL: Setting parameter alchLambda2 to 0.2
Info: NONBONDED TABLE R-SQUARED SPACING: 0.0625
Info: NONBONDED TABLE SIZE: 705 POINTS
TCL: Running for 1500000 steps
ETITLE: TS BOND ANGLE DIHED IMPRP ELECT VDW BOUNDARY MISC KINETIC TOTAL TEMP POTENTIAL TOTALAVG TEMPAVG PRESSURE GPRESSURE VOLUME PRESSAVG GPRESSAVG
ENERGY: 0 5.4034 5.7252 12.6685 0.0000 -10459.8866 1395.7494 0.0000 0.0000 1802.8347 -7237.5054 311.2807 -9040.3401 -7237.5054 311.2807 -214.5198 -109.1867 29842.6772 -214.5198 -109.1867
ENERGY: 300000 7.6806 8.3201 7.9134 0.0000 -10625.5957 1485.6469 0.0000 0.0000 1754.3237 -7361.7110 302.9047 -9116.0347 -7314.8361 301.8225 484.4577 522.6768 29727.8750 144.4640 208.5499
ENERGY: 600000 2.6344 3.5165 9.7792 0.0000 -10532.0416 1474.9103 0.0000 0.0000 1800.2408 -7240.9603 310.8329 -9041.2012 -7285.5196 303.3839 420.6506 451.1130 30212.4934 26.6431 89.1863
ENERGY: 900000 6.7698 3.5970 10.5195 0.0000 -10450.0057 1311.1177 0.0000 0.0000 1725.4189 -7392.5827 297.9140 -9118.0017 -7309.4972 301.0903 -762.8997 -702.5522 29768.9919 -19.5221 46.2923
ENERGY: 1200000 4.7891 5.3097 8.0708 0.0000 -10481.2257 1397.6597 0.0000 0.0000 1729.5175 -7335.8791 298.6216 -9065.3965 -7324.7828 298.9770 -395.6617 -360.9538 30292.3967 -11.0328 50.5001
ENERGY: 1500000 3.4048 6.0068 9.0913 0.0000 -10398.3606 1313.6858 0.0000 0.0000 1712.8535 -7353.3184 295.7444 -9066.1719 -7326.6961 299.4430 -754.0085 -744.1410 29662.6106 -128.1715 -65.7838
TCL: Running FEP window   5: Lambda1 0.2    Lambda2 0.25   [dLambda 0.04999999999999999]
TCL: Setting parameter firsttimestep to 0
TCL: Setting parameter alchLambda to 0.2
Info: NONBONDED TABLE R-SQUARED SPACING: 0.0625
Info: NONBONDED TABLE SIZE: 705 POINTS
TCL: Setting parameter alchLambda2 to 0.25
Info: NONBONDED TABLE R-SQUARED SPACING: 0.0625
Info: NONBONDED TABLE SIZE: 705 POINTS
TCL: Running for 1500000 steps
ETITLE: TS BOND ANGLE DIHED IMPRP ELECT VDW BOUNDARY MISC KINETIC TOTAL TEMP POTENTIAL TOTALAVG TEMPAVG PRESSURE GPRESSURE VOLUME PRESSAVG GPRESSAVG
ENERGY: 0 3.4048 6.0068 9.0913 0.0000 -10398.3599 1313.9711 0.0000 0.0000 1711.9859 -7353.9000 295.5946 -9065.8859 -7353.9000 295.5946 -813.7313 -740.6830 29662.6106 -813.7313 -740.6830
ENERGY: 300000 6.6236 4.9529 11.9165 0.0000 -10564.5668 1460.1283 0.0000 0.0000 1723.1677 -7357.7779 297.5253 -9080.9456 -7304.2903 301.8228 146.1894 318.1088 29461.3219 -40.6414 57.2060
ENERGY: 600000 5.9880 5.5552 11.7629 0.0000 -10506.7711 1377.6876 0.0000 0.0000 1677.9123 -7427.8650 289.7114 -9105.7773 -7314.5370 299.3941 -807.3623 -725.1394 30147.1059 -115.9342 -27.0437
ENERGY: 900000 7.1214 5.8573 9.0507 0.0000 -10508.7365 1451.2432 0.0000 0.0000 1703.1798 -7332.2841 294.0741 -9035.4639 -7316.3052 299.1159 105.4129 192.0911 30207.2723 -142.8641 -66.3333
ENERGY: 1200000 5.8032 7.5408 7.8899 0.0000 -10426.3157 1397.7595 0.0000 0.0000 1740.1764 -7267.1459 300.4620 -9007.3224 -7314.0329 298.7541 -366.3221 -250.5506 30075.0041 -171.6235 -98.0222
ENERGY: 1500000 2.3976 6.1210 9.6267 0.0000 -10346.7029 1343.2344 0.0000 0.0000 1703.1409 -7282.1823 294.0674 -8985.3232 -7310.1865 299.3562 -598.5188 -538.3053 30098.4125 -175.1380 -102.9002
TCL: Running FEP window   6: Lambda1 0.25   Lambda2 0.3    [dLambda 0.04999999999999999]
TCL: Setting parameter firsttimestep to 0
TCL: Setting parameter alchLambda to 0.25
Info: NONBONDED TABLE R-SQUARED SPACING: 0.0625
Info: NONBONDED TABLE SIZE: 705 POINTS
TCL: Setting parameter alchLambda2 to 0.3
Info: NONBONDED TABLE R-SQUARED SPACING: 0.0625
Info: NONBONDED TABLE SIZE: 705 POINTS
TCL: Running for 1500000 steps
ETITLE: TS BOND ANGLE DIHED IMPRP ELECT VDW BOUNDARY MISC KINETIC TOTAL TEMP POTENTIAL TOTALAVG TEMPAVG PRESSURE GPRESSURE VOLUME PRESSAVG GPRESSAVG
ENERGY: 0 2.3976 6.1210 9.6267 0.0000 -10346.7040 1344.5280 0.0000 0.0000 1702.2982 -7281.7325 293.9219 -8984.0306 -7281.7325 293.9219 -612.3072 -524.8157 30098.4125 -612.3072 -524.8157
ENERGY: 300000 5.3445 2.7383 11.5670 0.0000 -10393.7694 1326.8350 0.0000 0.0000 1788.2758 -7259.0088 308.7670 -9047.2846 -7290.5295 304.3057 -474.1719 -399.0753 29729.5207 -330.3320 -270.3929
ENERGY: 600000 6.9150 3.0815 12.6758 0.0000 -10465.3274 1462.0970 0.0000 0.0000 1768.9307 -7211.6274 305.4268 -8980.5582 -7291.8936 303.4034 467.0411 496.5161 30089.0790 -211.1195 -147.4346
ENERGY: 900000 4.3242 4.0842 8.6668 0.0000 -10557.9018 1496.1561 0.0000 0.0000 1713.3982 -7331.2723 295.8385 -9044.6706 -7304.1338 302.9975 701.4774 768.1545 29637.6217 -127.7133 -64.5499
ENERGY: 1200000 5.7477 6.6203 12.3530 0.0000 -10462.0057 1452.3054 0.0000 0.0000 1747.6989 -7237.2805 301.7609 -8984.9793 -7299.5342 302.6604 217.3063 302.5214 29969.5432 -137.9318 -76.5023
ENERGY: 1500000 4.7152 4.6867 9.0305 0.0000 -10514.7379 1423.7866 0.0000 0.0000 1750.9694 -7321.5495 302.3256 -9072.5189 -7301.8295 302.5503 107.2051 99.4242 29695.4911 -48.7939 8.0204
TCL: Running FEP window   7: Lambda1 0.3    Lambda2 0.35   [dLambda 0.04999999999999999]
TCL: Setting parameter firsttimestep to 0
TCL: Setting parameter alchLambda to 0.3
Info: NONBONDED TABLE R-SQUARED SPACING: 0.0625
Info: NONBONDED TABLE SIZE: 705 POINTS
TCL: Setting parameter alchLambda2 to 0.35
Info: NONBONDED TABLE R-SQUARED SPACING: 0.0625
Info: NONBONDED TABLE SIZE: 705 POINTS
TCL: Running for 1500000 steps
ETITLE: TS BOND ANGLE DIHED IMPRP ELECT VDW BOUNDARY MISC KINETIC TOTAL TEMP POTENTIAL TOTALAVG TEMPAVG PRESSURE GPRESSURE VOLUME PRESSAVG GPRESSAVG
ENERGY: 0 4.7152 4.6867 9.0305 0.0000 -10514.7388 1423.9852 0.0000 0.0000 1750.1740 -7322.1472 302.1882 -9072.3212 -7322.1472 302.1882 26.3254 106.7313 29695.4911 26.3254 106.7313
ENERGY: 300000 4.6915 5.1576 12.0477 0.0000 -10509.7981 1400.0816 0.0000 0.0000 1741.6786 -7346.1412 300.7214 -9087.8198 -7327.6137 300.8935 -395.8694 -365.9058 30180.8481 135.3850 206.7720
ENERGY: 600000 2.4535 6.8139 7.7641 0.0000 -10613.4654 1439.9399 0.0000 0.0000 1679.5244 -7476.9696 289.9897 -9156.4939 -7348.7183 298.5100 -50.3601 22.7555 29643.8046 169.5406 234.9982
ENERGY: 900000 2.8309 5.2173 10.1941 0.0000 -10557.1507 1434.5005 0.0000 0.0000 1690.2932 -7414.1147 291.8491 -9104.4079 -7348.2133 299.6373 232.1480 312.4765 29474.6127 31.0914 93.9863
ENERGY: 1200000 4.5296 8.0225 9.3406 0.0000 -10389.5381 1338.7584 0.0000 0.0000 1799.8840 -7229.0029 310.7713 -9028.8869 -7326.4311 301.3290 -487.1866 -471.8981 30116.6656 -16.8653 45.2114
ENERGY: 1500000 3.6437 4.6955 9.4271 0.0000 -10523.9417 1463.5355 0.0000 0.0000 1699.7862 -7342.8537 293.4882 -9042.6399 -7319.4233 300.7375 451.2636 564.9283 29891.2771 -98.5716 -28.9540
TCL: Running FEP window   8: Lambda1 0.35   Lambda2 0.39999999999999997 [dLambda 0.04999999999999999]
TCL: Setting parameter firsttimestep to 0
TCL: Setting parameter alchLambda to 0.35
Info: NONBONDED TABLE R-SQUARED SPACING: 0.0625
Info: NONBONDED TABLE SIZE: 705 POINTS
TCL: Setting parameter alchLambda2 to 0.39999999999999997
Info: NONBONDED TABLE R-SQUARED SPACING: 0.0625
Info: NONBONDED TABLE SIZE: 705 POINTS
TCL: Running for 1500000 steps
ETITLE: TS BOND ANGLE DIHED IMPRP ELECT VDW BOUNDARY MISC KINETIC TOTAL TEMP POTENTIAL TOTALAVG TEMPAVG PRESSURE GPRESSURE VOLUME PRESSAVG GPRESSAVG
ENERGY: 0 3.6437 4.6955 9.4271 0.0000 -10523.9423 1462.7193 0.0000 0.0000 1698.9168 -7344.5399 293.3381 -9043.4567 -7344.5399 293.3381 484.3768 562.7117 29891.2771 484.3768 562.7117
ENERGY: 300000 6.5892 3.5809 10.3791 0.0000 -10556.8974 1421.3663 0.0000 0.0000 1785.0768 -7329.9052 308.2146 -9114.9819 -7292.0912 300.6006 6.8776 40.5024 30023.9391 -375.2966 -307.6786
ENERGY: 600000 4.8311 7.5748 9.3023 0.0000 -10500.7845 1466.1298 0.0000 0.0000 1722.0345 -7290.9120 297.3296 -9012.9465 -7291.7662 299.0883 292.7444 382.9909 30191.4819 44.1173 121.6462
ENERGY: 900000 3.1325 5.0275 9.6278 0.0000 -10438.3739 1356.6887 0.0000 0.0000 1699.9585 -7363.9389 293.5179 -9063.8974 -7307.4196 297.2196 -816.2944 -771.0154 30228.9947 46.4206 110.9434
ENERGY: 1200000 2.3661 4.4405 9.7489 0.0000 -10526.3150 1439.2578 0.0000 0.0000 1707.0332 -7363.4685 294.7395 -9070.5017 -7320.0082 297.5231 198.0450 218.9065 29924.2081 60.7531 125.0241
ENERGY: 1500000 5.5594 4.6415 9.7746 0.0000 -10465.0104 1404.1989 0.0000 0.0000 1749.3507 -7291.4852 302.0461 -9040.8359 -7321.7079 297.3368 -431.3537 -405.3014 30477.1622 16.5703 73.6863
TCL: Running FEP window   9: Lambda1 0.39999999999999997 Lambda2 0.44999999999999996 [dLambda 0.04999999999999999]
TCL: Setting parameter firsttimestep to 0
TCL: Setting parameter alchLambda to 0.39999999999999997
Info: NONBONDED TABLE R-SQUARED SPACING: 0.0625
Info: NONBONDED TABLE SIZE: 705 POINTS
TCL: Setting parameter alchLambda2 to 0.44999999999999996
Info: NONBONDED TABLE R-SQUARED SPACING: 0.0625
Info: NONBONDED TABLE SIZE: 705 POINTS
TCL: Running for 1500000 steps
ETITLE: TS BOND ANGLE DIHED IMPRP ELECT VDW BOUNDARY MISC KINETIC TOTAL TEMP POTENTIAL TOTALAVG TEMPAVG PRESSURE GPRESSURE VOLUME PRESSAVG GPRESSAVG
ENERGY: 0 5.5594 4.6415 9.7746 0.0000 -10465.0111 1404.0736 0.0000 0.0000 1748.4801 -7292.4818 301.8958 -9040.9619 -7292.4818 301.8958 -479.6555 -399.1355 30477.1622 -479.6555 -399.1355
ENERGY: 300000 12.2130 5.8514 10.2945 0.0000 -10512.3184 1461.3884 0.0000 0.0000 1737.3254 -7285.2458 299.9698 -9022.5712 -7287.2022 300.4388 192.5208 236.4834 29881.9989 -114.7116 -34.7760
ENERGY: 600000 5.3999 8.2588 8.0170 0.0000 -10574.6706 1475.4361 0.0000 0.0000 1769.6064 -7307.9524 305.5435 -9077.5588 -7288.0599 303.5573 310.9098 426.4922 30122.2291 40.0842 120.5524
ENERGY: 900000 5.8309 9.4274 12.4628 0.0000 -10427.0637 1328.1020 0.0000 0.0000 1751.8504 -7319.3902 302.4777 -9071.2406 -7279.0611 304.1186 -874.2742 -814.9967 30033.3539 82.3481 164.8147
ENERGY: 1200000 2.2090 4.1089 12.3429 0.0000 -10566.8950 1505.9832 0.0000 0.0000 1748.8720 -7293.3790 301.9634 -9042.2510 -7283.1803 303.3917 1106.9519 1158.9684 29481.0297 129.1890 208.1422
ENERGY: 1500000 3.9207 4.9421 11.3600 0.0000 -10567.1401 1389.0919 0.0000 0.0000 1752.3229 -7405.5025 302.5593 -9157.8254 -7285.1230 303.6046 -754.6959 -735.9482 30180.8522 89.7012 163.9252
TCL: Running FEP window  10: Lambda1 0.44999999999999996 Lambda2 0.49999999999999994 [dLambda 0.04999999999999999]
TCL: Setting parameter firsttimestep to 0
TCL: Setting parameter alchLambda to 0.44999999999999996
Info: NONBONDED TABLE R-SQUARED SPACING: 0.0625
Info: NONBONDED TABLE SIZE: 705 POINTS
TCL: Setting parameter alchLambda2 to 0.49999999999999994
Info: NONBONDED TABLE R-SQUARED SPACING: 0.0625
Info: NONBONDED TABLE SIZE: 705 POINTS
TCL: Running for 1500000 steps
ETITLE: TS BOND ANGLE DIHED IMPRP ELECT VDW BOUNDARY MISC KINETIC TOTAL TEMP POTENTIAL TOTALAVG TEMPAVG PRESSURE GPRESSURE VOLUME PRESSAVG GPRESSAVG
ENERGY: 0 3.9207 4.9421 11.3600 0.0000 -10567.1405 1388.8325 0.0000 0.0000 1751.4474 -7406.6378 302.4081 -9158.0852 -7406.6378 302.4081 -821.7965 -733.4841 30180.8522 -821.7965 -733.4841
ENERGY: 300000 4.8803 4.4834 12.6967 0.0000 -10457.4018 1414.4165 0.0000 0.0000 1749.4327 -7271.4921 302.0602 -9020.9248 -7342.3878 301.0177 -23.5677 -9.7366 29901.7841 108.5607 160.0593
ENERGY: 600000 6.7952 3.6536 9.9243 0.0000 -10532.9947 1414.8424 0.0000 0.0000 1708.5896 -7389.1896 295.0082 -9097.7792 -7329.4999 300.5712 96.4814 96.4566 29671.5192 44.6818 100.5994
ENERGY: 900000 5.2556 2.6581 9.9782 0.0000 -10550.2470 1447.4268 0.0000 0.0000 1768.0945 -7316.8337 305.2824 -9084.9283 -7329.9444 300.5447 185.1329 233.9555 29958.3622 -153.8014 -102.9546
ENERGY: 1200000 7.9513 4.1009 11.5654 0.0000 -10515.7344 1442.3648 0.0000 0.0000 1763.4693 -7286.2828 304.4838 -9049.7521 -7316.3739 301.3431 66.8620 119.0911 29632.5097 -39.7401 14.7406
ENERGY: 1500000 2.0016 5.8182 13.2149 0.0000 -10437.1654 1388.9278 0.0000 0.0000 1727.7883 -7299.4146 298.3231 -9027.2029 -7315.5023 300.9813 -58.6330 31.3252 29837.4659 -97.2379 -38.4557
TCL: Running FEP window  11: Lambda1 0.49999999999999994 Lambda2 0.5499999999999999 [dLambda 0.04999999999999999]
TCL: Setting parameter firsttimestep to 0
TCL: Setting parameter alchLambda to 0.49999999999999994
Info: NONBONDED TABLE R-SQUARED SPACING: 0.0625
Info: NONBONDED TABLE SIZE: 705 POINTS
TCL: Setting parameter alchLambda2 to 0.5499999999999999
Info: NONBONDED TABLE R-SQUARED SPACING: 0.0625
Info: NONBONDED TABLE SIZE: 705 POINTS
TCL: Running for 1500000 steps
ETITLE: TS BOND ANGLE DIHED IMPRP ELECT VDW BOUNDARY MISC KINETIC TOTAL TEMP POTENTIAL TOTALAVG TEMPAVG PRESSURE GPRESSURE VOLUME PRESSAVG GPRESSAVG
ENERGY: 0 2.0016 5.8182 13.2149 0.0000 -10437.1649 1388.7645 0.0000 0.0000 1726.8756 -7300.4901 298.1655 -9027.3657 -7300.4901 298.1655 -40.9268 38.9005 29837.4659 -40.9268 38.9005
ENERGY: 300000 5.8017 9.8998 7.5752 0.0000 -10548.4009 1477.6225 0.0000 0.0000 1775.5053 -7271.9963 306.5620 -9047.5016 -7301.3043 299.0815 78.8100 122.5125 30391.1205 100.3270 141.9674
ENERGY: 600000 7.3998 6.9712 12.5518 0.0000 -10603.3108 1503.6456 0.0000 0.0000 1668.3736 -7404.3688 288.0644 -9072.7424 -7310.8043 299.8011 187.1551 275.8100 30327.5146 264.8182 327.7258
ENERGY: 900000 5.0025 4.5612 12.7294 0.0000 -10449.7841 1359.5382 0.0000 0.0000 1749.1494 -7318.8034 302.0113 -9067.9528 -7315.5540 299.3516 -591.1969 -521.3703 30012.5651 148.3492 210.8137
ENERGY: 1200000 5.2537 6.9794 9.5244 0.0000 -10511.1691 1424.4629 0.0000 0.0000 1776.0769 -7288.8719 306.6607 -9064.9488 -7306.3408 301.2057 -368.0050 -287.9051 30589.0749 56.7687 123.3833
ENERGY: 1500000 6.7403 6.4442 12.1342 0.0000 -10406.1829 1370.6196 0.0000 0.0000 1680.1978 -7330.0469 290.1060 -9010.2447 -7312.7059 300.3579 -34.0678 -31.3432 29683.7071 42.7545 107.2013
TCL: Running FEP window  12: Lambda1 0.5499999999999999 Lambda2 0.6    [dLambda 0.050000000000000044]
TCL: Setting parameter firsttimestep to 0
TCL: Setting parameter alchLambda to 0.5499999999999999
Info: NONBONDED TABLE R-SQUARED SPACING: 0.0625
Info: NONBONDED TABLE SIZE: 705 POINTS
TCL: Setting parameter alchLambda2 to 0.6
Info: NONBONDED TABLE R-SQUARED SPACING: 0.0625
Info: NONBONDED TABLE SIZE: 705 POINTS
TCL: Running for 1500000 steps
ETITLE: TS BOND ANGLE DIHED IMPRP ELECT VDW BOUNDARY MISC KINETIC TOTAL TEMP POTENTIAL TOTALAVG TEMPAVG PRESSURE GPRESSURE VOLUME PRESSAVG GPRESSAVG
ENERGY: 0 6.7403 6.4442 12.1342 0.0000 -10406.1467 1370.5312 0.0000 0.0000 1679.3114 -7330.9853 289.9530 -9010.2967 -7330.9853 289.9530 -117.6787 -25.7627 29683.7071 -117.6787 -25.7627
ENERGY: 300000 2.5743 6.6630 9.7586 0.0000 -10524.4451 1430.2822 0.0000 0.0000 1682.4508 -7392.7162 290.4950 -9075.1670 -7363.0291 296.0613 241.8798 315.9325 29623.5801 -63.7160 13.1693
ENERGY: 600000 4.4370 5.3197 9.3380 0.0000 -10500.6931 1409.4442 0.0000 0.0000 1797.6009 -7274.5532 310.3771 -9072.1541 -7346.2093 296.5631 -54.2576 61.8038 29898.0786 -18.1860 53.5423
ENERGY: 900000 5.2007 6.3681 8.4675 0.0000 -10588.6652 1502.6991 0.0000 0.0000 1749.0711 -7316.8586 301.9978 -9065.9297 -7352.2559 296.6031 552.8798 559.9266 29929.4761 -75.9293 -20.8054
ENERGY: 1200000 9.1288 4.2675 9.3109 0.0000 -10454.5709 1392.8217 0.0000 0.0000 1689.3059 -7349.7362 291.6786 -9039.0421 -7351.2293 296.4995 -396.8128 -338.1194 30193.4614 -131.1345 -77.3620
ENERGY: 1500000 5.3169 4.3973 11.7087 0.0000 -10563.7658 1479.4954 0.0000 0.0000 1730.0570 -7332.7905 298.7148 -9062.8474 -7335.0021 298.0580 757.4247 846.4454 29657.8789 -64.6947 -9.8823
TCL: Running FEP window  13: Lambda1 0.6    Lambda2 0.65   [dLambda 0.050000000000000044]
TCL: Setting parameter firsttimestep to 0
TCL: Setting parameter alchLambda to 0.6
Info: NONBONDED TABLE R-SQUARED SPACING: 0.0625
Info: NONBONDED TABLE SIZE: 705 POINTS
TCL: Setting parameter alchLambda2 to 0.65
Info: NONBONDED TABLE R-SQUARED SPACING: 0.0625
Info: NONBONDED TABLE SIZE: 705 POINTS
TCL: Running for 1500000 steps
ETITLE: TS BOND ANGLE DIHED IMPRP ELECT VDW BOUNDARY MISC KINETIC TOTAL TEMP POTENTIAL TOTALAVG TEMPAVG PRESSURE GPRESSURE VOLUME PRESSAVG GPRESSAVG
ENERGY: 0 5.3169 4.3973 11.7087 0.0000 -10563.5793 1479.2401 0.0000 0.0000 1729.1893 -7333.7269 298.5650 -9062.9162 -7333.7269 298.5650 767.5012 857.4530 29657.8789 767.5012 857.4530
ENERGY: 300000 4.7023 4.1923 9.4549 0.0000 -10475.2266 1426.3195 0.0000 0.0000 1702.8143 -7327.7433 294.0110 -9030.5576 -7332.3045 299.9638 188.1172 222.3051 29853.1873 293.7902 362.6375
ENERGY: 600000 3.9555 3.8256 11.3011 0.0000 -10548.4733 1455.7441 0.0000 0.0000 1703.2972 -7370.3499 294.0944 -9073.6471 -7345.2161 299.5542 404.8483 389.3578 29750.4188 237.2804 301.9272
ENERGY: 900000 5.9004 5.9879 11.3002 0.0000 -10529.0787 1443.8619 0.0000 0.0000 1782.1851 -7279.8432 307.7153 -9062.0283 -7324.9642 300.0959 -14.4213 -18.7007 30275.7547 94.8534 160.3900
ENERGY: 1200000 4.0053 3.9404 12.3180 0.0000 -10549.5365 1445.8859 0.0000 0.0000 1790.5087 -7292.8783 309.1525 -9083.3870 -7318.3501 300.7599 500.3902 506.9167 29787.4581 82.7462 140.1432
ENERGY: 1500000 5.8875 3.3215 14.2674 0.0000 -10426.8810 1331.0602 0.0000 0.0000 1687.2696 -7385.0748 291.3270 -9072.3444 -7323.9503 299.6059 -1026.0462 -906.3126 30162.3789 19.1869 78.0800
TCL: Running FEP window  14: Lambda1 0.65   Lambda2 0.7000000000000001 [dLambda 0.050000000000000044]
TCL: Setting parameter firsttimestep to 0
TCL: Setting parameter alchLambda to 0.65
Info: NONBONDED TABLE R-SQUARED SPACING: 0.0625
Info: NONBONDED TABLE SIZE: 705 POINTS
TCL: Setting parameter alchLambda2 to 0.7000000000000001
Info: NONBONDED TABLE R-SQUARED SPACING: 0.0625
Info: NONBONDED TABLE SIZE: 705 POINTS
TCL: Running for 1500000 steps
ETITLE: TS BOND ANGLE DIHED IMPRP ELECT VDW BOUNDARY MISC KINETIC TOTAL TEMP POTENTIAL TOTALAVG TEMPAVG PRESSURE GPRESSURE VOLUME PRESSAVG GPRESSAVG
ENERGY: 0 5.8875 3.3215 14.2674 0.0000 -10427.1551 1331.7849 0.0000 0.0000 1686.3815 -7385.5123 291.1737 -9071.8938 -7385.5123 291.1737 -981.6151 -891.2697 30162.3789 -981.6151 -891.2697
ENERGY: 300000 1.9732 6.1699 12.3114 0.0000 -10416.9041 1337.8010 0.0000 0.0000 1712.7059 -7345.9426 295.7189 -9058.6486 -7337.3157 293.5346 -522.5783 -442.4670 30188.1255 -402.2788 -309.7272
ENERGY: 600000 8.0998 5.2823 14.1828 0.0000 -10338.1619 1308.8586 0.0000 0.0000 1742.2881 -7259.4503 300.8266 -9001.7384 -7321.4849 297.3304 -786.1090 -690.8373 30042.1728 -524.7001 -444.9580
ENERGY: 900000 5.3861 7.6861 8.3216 0.0000 -10495.7570 1498.6727 0.0000 0.0000 1758.9370 -7216.7536 303.7013 -8975.6906 -7300.8592 299.4389 1161.4103 1194.7573 29521.7859 -224.3039 -144.6485
ENERGY: 1200000 8.2669 2.4644 8.9227 0.0000 -10609.9262 1487.8854 0.0000 0.0000 1680.5203 -7421.8664 290.1617 -9102.3867 -7318.2957 297.5020 521.2556 602.4364 29477.3917 -180.0047 -99.8846
ENERGY: 1500000 3.1524 3.9611 13.3221 0.0000 -10563.5430 1454.2173 0.0000 0.0000 1712.3993 -7376.4908 295.6660 -9088.8901 -7328.8377 297.3436 216.2505 289.2691 29844.9981 -130.6072 -53.8920
TCL: Running FEP window  15: Lambda1 0.7000000000000001 Lambda2 0.7500000000000001 [dLambda 0.050000000000000044]
TCL: Setting parameter firsttimestep to 0
TCL: Setting parameter alchLambda to 0.7000000000000001
Info: NONBONDED TABLE R-SQUARED SPACING: 0.0625
Info: NONBONDED TABLE SIZE: 705 POINTS
TCL: Setting parameter alchLambda2 to 0.7500000000000001
Info: NONBONDED TABLE R-SQUARED SPACING: 0.0625
Info: NONBONDED TABLE SIZE: 705 POINTS
TCL: Running for 1500000 steps
ETITLE: TS BOND ANGLE DIHED IMPRP ELECT VDW BOUNDARY MISC KINETIC TOTAL TEMP POTENTIAL TOTALAVG TEMPAVG PRESSURE GPRESSURE VOLUME PRESSAVG GPRESSAVG
ENERGY: 0 3.1524 3.9611 13.3221 0.0000 -10564.1714 1454.0950 0.0000 0.0000 1711.4832 -7378.1576 295.5078 -9089.6408 -7378.1576 295.5078 210.3187 297.0113 29844.9981 210.3187 297.0113
ENERGY: 300000 3.7155 6.5802 14.5088 0.0000 -10454.0608 1387.9940 0.0000 0.0000 1701.6346 -7339.6276 293.8073 -9041.2622 -7306.4072 300.5958 -282.3150 -228.5365 30030.1435 -260.9234 -169.0664
ENERGY: 600000 4.0804 4.9177 12.4813 0.0000 -10443.1151 1415.0535 0.0000 0.0000 1752.4675 -7254.1147 302.5842 -9006.5822 -7312.8403 298.9683 301.9253 334.9650 29776.6333 -2.2571 70.0045
ENERGY: 900000 5.9436 4.6239 7.7407 0.0000 -10641.7295 1472.4935 0.0000 0.0000 1707.7063 -7443.2215 294.8557 -9150.9278 -7321.3992 297.7058 10.2855 84.3594 29898.3466 -41.7624 27.2746
ENERGY: 1200000 7.9210 4.9503 14.7290 0.0000 -10418.3929 1337.6450 0.0000 0.0000 1699.3047 -7353.8430 293.4050 -9053.1476 -7327.8990 297.1778 -793.6901 -701.2151 30132.3922 -124.5200 -55.1325
ENERGY: 1500000 5.9721 9.7634 11.9363 0.0000 -10530.7920 1431.9197 0.0000 0.0000 1705.8661 -7365.3344 294.5380 -9071.2005 -7324.6749 298.0709 63.6269 126.3702 29957.2793 -128.7879 -60.2932
TCL: Running FEP window  16: Lambda1 0.7500000000000001 Lambda2 0.8000000000000002 [dLambda 0.050000000000000044]
TCL: Setting parameter firsttimestep to 0
TCL: Setting parameter alchLambda to 0.7500000000000001
Info: NONBONDED TABLE R-SQUARED SPACING: 0.0625
Info: NONBONDED TABLE SIZE: 705 POINTS
TCL: Setting parameter alchLambda2 to 0.8000000000000002
Info: NONBONDED TABLE R-SQUARED SPACING: 0.0625
Info: NONBONDED TABLE SIZE: 705 POINTS
TCL: Running for 1500000 steps
ETITLE: TS BOND ANGLE DIHED IMPRP ELECT VDW BOUNDARY MISC KINETIC TOTAL TEMP POTENTIAL TOTALAVG TEMPAVG PRESSURE GPRESSURE VOLUME PRESSAVG GPRESSAVG
ENERGY: 0 5.9721 9.7634 11.9363 0.0000 -10531.1650 1431.8505 0.0000 0.0000 1705.0045 -7366.6382 294.3892 -9071.6427 -7366.6382 294.3892 50.3725 138.1034 29957.2793 50.3725 138.1034
ENERGY: 300000 4.8355 4.2375 10.3551 0.0000 -10658.5560 1440.0796 0.0000 0.0000 1728.9254 -7470.1230 298.5194 -9199.0483 -7381.6978 298.3225 -150.8926 -64.7913 29467.4715 -170.5916 -120.0731
ENERGY: 600000 5.7712 5.6784 8.0917 0.0000 -10563.3338 1450.8565 0.0000 0.0000 1740.7007 -7352.2353 300.5526 -9092.9360 -7329.8401 300.4044 345.0926 380.8024 30020.7843 -102.3515 -45.4564
ENERGY: 900000 6.2081 5.0354 8.0006 0.0000 -10567.9030 1451.8786 0.0000 0.0000 1728.8858 -7367.8946 298.5126 -9096.7804 -7329.4353 300.5871 322.8497 353.9970 29638.9625 -122.6999 -72.8535
ENERGY: 1200000 4.3830 6.6232 11.3139 0.0000 -10402.3149 1323.2749 0.0000 0.0000 1738.2425 -7318.4774 300.1281 -9056.7199 -7322.3770 300.0111 -1040.8465 -905.2160 30386.6487 -213.0490 -154.7562
ENERGY: 1500000 2.7808 8.5504 6.4630 0.0000 -10516.6942 1429.9241 0.0000 0.0000 1782.2119 -7286.7640 307.7200 -9068.9759 -7310.3576 301.2028 325.5026 334.5229 29804.1086 -105.4079 -49.5172
TCL: Running FEP window  17: Lambda1 0.8000000000000002 Lambda2 0.8500000000000002 [dLambda 0.050000000000000044]
TCL: Setting parameter firsttimestep to 0
TCL: Setting parameter alchLambda to 0.8000000000000002
Info: NONBONDED TABLE R-SQUARED SPACING: 0.0625
Info: NONBONDED TABLE SIZE: 705 POINTS
TCL: Setting parameter alchLambda2 to 0.8500000000000002
Info: NONBONDED TABLE R-SQUARED SPACING: 0.0625
Info: NONBONDED TABLE SIZE: 705 POINTS
TCL: Running for 1500000 steps
ETITLE: TS BOND ANGLE DIHED IMPRP ELECT VDW BOUNDARY MISC KINETIC TOTAL TEMP POTENTIAL TOTALAVG TEMPAVG PRESSURE GPRESSURE VOLUME PRESSAVG GPRESSAVG
ENERGY: 0 2.7808 8.5504 6.4630 0.0000 -10517.1270 1430.1260 0.0000 0.0000 1781.3505 -7287.8562 307.5712 -9069.2067 -7287.8562 307.5712 274.4797 352.7712 29804.1086 274.4797 352.7712
ENERGY: 300000 3.6533 5.1159 9.5593 0.0000 -10418.5038 1342.8894 0.0000 0.0000 1720.6313 -7336.6545 297.0873 -9057.2858 -7323.0768 301.3934 -696.3697 -605.3932 30034.4202 -359.3407 -283.4137
ENERGY: 600000 2.4537 6.4288 8.5073 0.0000 -10586.4600 1457.2351 0.0000 0.0000 1751.2369 -7360.5983 302.3718 -9111.8351 -7332.4711 300.8019 449.4262 505.7255 29580.2892 -128.7648 -57.1137
ENERGY: 900000 2.7778 6.7475 12.0253 0.0000 -10482.2836 1425.8692 0.0000 0.0000 1773.9768 -7260.8871 306.2981 -9034.8639 -7329.1789 301.8291 326.7804 290.4154 29966.9241 -68.7115 -7.7068
ENERGY: 1200000 3.6931 6.8887 11.0325 0.0000 -10526.7084 1351.8611 0.0000 0.0000 1717.3769 -7435.8561 296.5254 -9153.2330 -7335.3807 301.3455 -561.7788 -529.0579 29733.7205 -183.5392 -118.2729
ENERGY: 1500000 3.6919 3.0071 7.7548 0.0000 -10520.3318 1390.2947 0.0000 0.0000 1762.5458 -7353.0376 304.3244 -9115.5833 -7339.9509 301.1735 -123.3422 -144.3469 29622.2810 -185.5845 -126.6041
TCL: Running FEP window  18: Lambda1 0.8500000000000002 Lambda2 0.9000000000000002 [dLambda 0.050000000000000044]
TCL: Setting parameter firsttimestep to 0
TCL: Setting parameter alchLambda to 0.8500000000000002
Info: NONBONDED TABLE R-SQUARED SPACING: 0.0625
Info: NONBONDED TABLE SIZE: 705 POINTS
TCL: Setting parameter alchLambda2 to 0.9000000000000002
Info: NONBONDED TABLE R-SQUARED SPACING: 0.0625
Info: NONBONDED TABLE SIZE: 705 POINTS
TCL: Running for 1500000 steps
ETITLE: TS BOND ANGLE DIHED IMPRP ELECT VDW BOUNDARY MISC KINETIC TOTAL TEMP POTENTIAL TOTALAVG TEMPAVG PRESSURE GPRESSURE VOLUME PRESSAVG GPRESSAVG
ENERGY: 0 3.6919 3.0071 7.7548 0.0000 -10521.0094 1390.2449 0.0000 0.0000 1761.6733 -7354.6375 304.1737 -9116.3108 -7354.6375 304.1737 -199.7030 -130.7315 29622.2810 -199.7030 -130.7315
ENERGY: 300000 6.6371 4.4459 11.2425 0.0000 -10604.1300 1474.1223 0.0000 0.0000 1755.6366 -7352.0455 303.1314 -9107.6821 -7351.4969 304.2724 128.1978 119.1471 30114.7527 -266.0911 -213.7702
ENERGY: 600000 4.8908 6.5897 14.6819 0.0000 -10563.9248 1447.5602 0.0000 0.0000 1751.7955 -7338.4067 302.4682 -9090.2022 -7337.5480 301.7763 123.8149 200.5002 29868.2669 -161.1956 -111.7838
ENERGY: 900000 4.1487 7.3380 11.7626 0.0000 -10527.7998 1496.2833 0.0000 0.0000 1780.5556 -7227.7116 307.4340 -9008.2672 -7311.7992 301.9398 907.4370 934.4818 29721.3850 -48.8730 -7.5622
ENERGY: 1200000 6.9398 4.7153 11.2669 0.0000 -10435.5467 1384.8007 0.0000 0.0000 1752.5331 -7275.2910 302.5956 -9027.8240 -7310.5507 301.9546 -202.1534 -187.4018 30276.8918 31.8086 59.7185
ENERGY: 1500000 4.4634 4.4432 8.3673 0.0000 -10434.3649 1328.2002 0.0000 0.0000 1694.4891 -7394.4017 292.5736 -9088.8908 -7321.8134 301.0679 -652.1600 -595.6108 29894.3679 -104.7613 -69.7012
TCL: Running FEP window  19: Lambda1 0.9000000000000002 Lambda2 0.9500000000000003 [dLambda 0.050000000000000044]
TCL: Setting parameter firsttimestep to 0
TCL: Setting parameter alchLambda to 0.9000000000000002
Info: NONBONDED TABLE R-SQUARED SPACING: 0.0625
Info: NONBONDED TABLE SIZE: 705 POINTS
TCL: Setting parameter alchLambda2 to 0.9500000000000003
Info: NONBONDED TABLE R-SQUARED SPACING: 0.0625
Info: NONBONDED TABLE SIZE: 705 POINTS
TCL: Running for 1500000 steps
ETITLE: TS BOND ANGLE DIHED IMPRP ELECT VDW BOUNDARY MISC KINETIC TOTAL TEMP POTENTIAL TOTALAVG TEMPAVG PRESSURE GPRESSURE VOLUME PRESSAVG GPRESSAVG
ENERGY: 0 4.4634 4.4432 8.3673 0.0000 -10434.8348 1328.1962 0.0000 0.0000 1693.6550 -7395.7098 292.4296 -9089.3648 -7395.7098 292.4296 -670.9227 -583.0965 29894.3679 -670.9227 -583.0965
ENERGY: 300000 4.2753 5.4867 12.1456 0.0000 -10497.2402 1439.4838 0.0000 0.0000 1773.2640 -7262.5847 306.1750 -9035.8487 -7334.1157 299.7214 627.8904 690.0134 29567.2465 166.1566 223.8390
ENERGY: 600000 5.0167 4.1717 12.8503 0.0000 -10470.3649 1400.7876 0.0000 0.0000 1744.0594 -7303.4792 301.1325 -9047.5385 -7329.8623 299.2608 -104.3630 5.7267 29890.5013 20.1567 87.1746
ENERGY: 900000 3.6727 2.0213 10.9558 0.0000 -10574.4652 1463.6508 0.0000 0.0000 1714.8903 -7379.2743 296.0961 -9094.1646 -7340.3412 297.6803 391.6102 475.8227 29919.6545 87.8901 153.1251
ENERGY: 1200000 2.8668 10.8394 8.0741 0.0000 -10644.4858 1513.5982 0.0000 0.0000 1680.5380 -7428.5694 290.1648 -9109.1074 -7348.8867 297.7165 582.7580 708.9565 29955.3121 132.9138 201.9016
ENERGY: 1500000 4.8312 4.3930 8.1703 0.0000 -10475.8517 1324.3627 0.0000 0.0000 1712.0837 -7422.0108 295.6115 -9134.0945 -7348.3096 298.0562 -1083.7033 -1012.7802 30480.9230 33.7876 102.9203
TCL: Running FEP window  20: Lambda1 0.9500000000000003 Lambda2 1.0    [dLambda 0.04999999999999971]
TCL: Setting parameter firsttimestep to 0
TCL: Setting parameter alchLambda to 0.9500000000000003
Info: NONBONDED TABLE R-SQUARED SPACING: 0.0625
Info: NONBONDED TABLE SIZE: 705 POINTS
TCL: Setting parameter alchLambda2 to 1.0
Info: NONBONDED TABLE R-SQUARED SPACING: 0.0625
Info: NONBONDED TABLE SIZE: 705 POINTS
TCL: Running for 1500000 steps
ETITLE: TS BOND ANGLE DIHED IMPRP ELECT VDW BOUNDARY MISC KINETIC TOTAL TEMP POTENTIAL TOTALAVG TEMPAVG PRESSURE GPRESSURE VOLUME PRESSAVG GPRESSAVG
ENERGY: 0 4.8312 4.3930 8.1703 0.0000 -10476.6022 1324.1249 0.0000 0.0000 1711.2104 -7423.8724 295.4607 -9135.0828 -7423.8724 295.4607 -1088.2864 -1005.3762 30480.9230 -1088.2864 -1005.3762
ENERGY: 300000 3.7059 4.3205 11.9204 0.0000 -10416.0857 1338.0383 0.0000 0.0000 1696.7992 -7361.3015 292.9724 -9058.1007 -7355.8604 299.7711 -593.9538 -531.5867 30186.5070 -475.7646 -425.2611
ENERGY: 600000 5.9523 4.2318 12.0033 0.0000 -10399.1091 1324.5502 0.0000 0.0000 1743.5129 -7308.8586 301.0381 -9052.3715 -7334.3793 299.8706 -694.5628 -675.3566 30113.1065 -263.4480 -215.2375
ENERGY: 900000 8.1632 7.2392 9.7086 0.0000 -10512.4937 1388.1831 0.0000 0.0000 1692.8360 -7406.3636 292.2882 -9099.1996 -7340.5189 298.9849 -413.0747 -375.8664 30076.8476 -193.5382 -142.6674
ENERGY: 1200000 3.8147 4.2639 11.3568 0.0000 -10499.6714 1429.7693 0.0000 0.0000 1736.3199 -7314.1467 299.7962 -9050.4666 -7333.1014 299.4718 196.8800 293.1615 30105.0545 -90.1113 -37.6228
ENERGY: 1500000 3.4780 2.4363 10.3445 0.0000 -10202.0261 1208.9271 0.0000 0.0000 1751.1472 -7225.6931 302.3563 -8976.8402 -7330.0519 299.4641 -1371.4476 -1299.3188 30309.6721 -199.9022 -141.1536
TCL: Exiting due to exit command.
