Info: SIMULATION PARAMETERS:
Info: TIMESTEP               2
Info: NUMBER OF STEPS        0
Info: STEPS PER CYCLE        10
Info: PERIODIC CELL BASIS 1  29.2259 0 0
Info: PERIODIC CELL BASIS 2  0 30.3833 0
Info: PERIODIC CELL BASIS 3  0 0 34.0362
Info: PERIODIC CELL CENTER   0 0 0
Info: WRAPPING WATERS AROUND PERIODIC BOUNDARIES ON OUTPUT.
Info: WRAPPING ALL CLUSTERS AROUND PERIODIC BOUNDARIES ON OUTPUT.
Info: FIRST LDB TIMESTEP     50
Info: LAST LDB TIMESTEP     -1
Info: HOM BACKGROUND SCALING 1
Info: PME BACKGROUND SCALING 1
Info: MIN ATOMS PER PATCH    40
Info: EMPTY PATCH LOAD       40 ATOMS
Info: VELOCITY FILE          mobley_2792521_equil.vel
Info: CENTER OF MASS MOVING INITIALLY? NO
Info: DIELECTRIC             1
Info: EXCLUDE                SCALED ONE-FOUR
Info: 1-4 ELECTROSTATICS SCALED BY 0.833333
Info: MODIFIED 1-4 VDW PARAMETERS WILL BE USED
Info: DCD FILENAME           mobley_2792521_prod.dcd
Info: DCD FREQUENCY          100000
Info: DCD FIRST STEP         100000
Info: DCD FILE WILL CONTAIN UNIT CELL DATA
Info: XST FILENAME           mobley_2792521_prod.xst
Info: XST FREQUENCY          100000
Info: NO VELOCITY DCD OUTPUT
Info: NO FORCE DCD OUTPUT
Info: OUTPUT FILENAME        mobley_2792521_prod
Info: BINARY OUTPUT FILES WILL BE USED
Info: RESTART FILENAME       mobley_2792521_prod.restart
Info: RESTART FREQUENCY      100000
Info: BINARY RESTART FILES WILL BE USED
Info: CUTOFF                 9
Info: PAIRLIST DISTANCE      11
Info: PAIRLIST SHRINK RATE   0.01
Info: PAIRLIST GROW RATE     0.01
Info: PAIRLIST TRIGGER       0.3
Info: PAIRLISTS PER CYCLE    2
Info: PAIRLISTS ENABLED
Info: MARGIN                 2
Info: HYDROGEN GROUP CUTOFF  2.5
Info: PATCH DIMENSION        15.5
Info: ENERGY OUTPUT STEPS    100000
Info: ENERGY EVALUATION STEPS    100000
Info: OUTPUT ENERGY PRECISION 4
Info: CROSSTERM ENERGY INCLUDED IN DIHEDRAL
Info: TIMING OUTPUT STEPS    1000000
Info: PRESSURE OUTPUT STEPS  100000
Info: ALCHEMICAL FEP ON
Info: FEP CURRENT LAMBDA VALUE     1
Info: FEP COMPARISON LAMBDA VALUE  0.95
Info: FEP INTRA-ALCHEMICAL NON-BONDED INTERACTIONS WILL BE RETAINED
Info: FEP INTRA-ALCHEMICAL BONDED INTERACTIONS WILL BE RETAINED
Info: FEP VDW SHIFTING COEFFICIENT 5
Info: FEP ELEC. ACTIVE FOR ANNIHILATED PARTICLES BETWEEN LAMBDA = 0 AND LAMBDA = 0.5
Info: FEP ELEC. ACTIVE FOR EXNIHILATED PARTICLES BETWEEN LAMBDA = 0.5 AND LAMBDA = 1
Info: FEP VDW ACTIVE FOR ANNIHILATED PARTICLES BETWEEN LAMBDA = 0 AND LAMBDA = 1
Info: FEP VDW ACTIVE FOR EXNIHILATED PARTICLES BETWEEN LAMBDA = 0 AND LAMBDA = 1
Info: FEP BOND ACTIVE FOR ANNIHILATED PARTICLES BETWEEN LAMBDA = 1 AND LAMBDA = 1
Info: FEP BOND ACTIVE FOR EXNIHILATED PARTICLES BETWEEN LAMBDA = 0 AND LAMBDA = 0
Info: LANGEVIN DYNAMICS ACTIVE
Info: LANGEVIN TEMPERATURE   300
Info: LANGEVIN USING BBK INTEGRATOR
Info: LANGEVIN DAMPING COEFFICIENT IS 1 INVERSE PS
Info: LANGEVIN DYNAMICS APPLIED TO HYDROGENS
Info: LANGEVIN PISTON PRESSURE CONTROL ACTIVE
Info:        TARGET PRESSURE IS 1.01325 BAR
Info:     OSCILLATION PERIOD IS 50 FS
Info:             DECAY TIME IS 25 FS
Info:     PISTON TEMPERATURE IS 300 K
Info:       PRESSURE CONTROL IS GROUP-BASED
Info:    INITIAL STRAIN RATE IS -0.000195776 -0.000195776 -0.000195776
Info:       CELL FLUCTUATION IS ISOTROPIC
Info: PARTICLE MESH EWALD (PME) ACTIVE
Info: PME TOLERANCE               1e-06
Info: PME EWALD COEFFICIENT       0.348832
Info: PME INTERPOLATION ORDER     4
Info: PME GRID DIMENSIONS         32 32 36
Info: PME MAXIMUM GRID SPACING    1
Info: PME CALCULATION WILL BE PERFORMED ON GPU
Info: FULL ELECTROSTATIC EVALUATION FREQUENCY      2
Info: USING VERLET I (r-RESPA) MTS SCHEME.
Info: C1 SPLITTING OF LONG RANGE ELECTROSTATICS
Info: PLACING ATOMS IN PATCHES BY HYDROGEN GROUPS
Info: RIGID BONDS TO HYDROGEN : ALL
Info:         ERROR TOLERANCE : 1e-08
Info:          MAX ITERATIONS : 100
Info: RIGID WATER USING SETTLE ALGORITHM
Info: RANDOM NUMBER SEED     1743916120
Info: USE HYDROGEN BONDS?    NO
Info: Using AMBER format force field!
Info: AMBER PARM FILE        mobley_2792521.prmtop
Info: COORDINATE PDB         mobley_2792521.pdb
Info: Exclusions will be read from PARM file!
Info: SCNB (VDW SCALING)     2
Info: USING ARITHMETIC MEAN TO COMBINE L-J SIGMA PARAMETERS
Info: BINARY COORDINATES     mobley_2792521_equil.coor
Info: SUMMARY OF PARAMETERS:
Info: 11 BONDS
Info: 14 ANGLES
Info:   14 HARMONIC
Info:   0 COSINE-BASED
Info: 8 DIHEDRAL
Info: 0 IMPROPER
Info: 0 CROSSTERM
Info: 0 VDW
Info: 36 VDW_PAIRS
Info: 0 NBTHOLE_PAIRS
Info: To read alchdata from file: mobley_2792521.pdb
Info: To read alchflag data from column: 5
Info: STRUCTURE SUMMARY:
Info: 2945 ATOMS
Info: 2944 BONDS
Info: 27 ANGLES
Info: 35 DIHEDRALS
Info: 0 IMPROPERS
Info: 0 CROSSTERMS
Info: 3003 EXCLUSIONS
Info: 2938 RIGID BONDS
Info: ALCH: 0 ATOMS TO DISAPPEAR IN FINAL STATE
Info: ALCH: 17 ATOMS TO APPEAR IN FINAL STATE
Info: 5897 DEGREES OF FREEDOM
Info: 983 HYDROGEN GROUPS
Info: 4 ATOMS IN LARGEST HYDROGEN GROUP
Info: 983 MIGRATION GROUPS
Info: 4 ATOMS IN LARGEST MIGRATION GROUP
Info: TOTAL MASS = 17681.8 amu
Info: TOTAL CHARGE = 0.000200035 e
Info: MASS DENSITY = 0.971495 g/cm^3
Info: ATOM DENSITY = 0.0974409 atoms/A^3
Info: ADDED 0 IMPLICIT EXCLUSIONS
Info: NONBONDED TABLE R-SQUARED SPACING: 0.0625
Info: NONBONDED TABLE SIZE: 705 POINTS
Info: REMOVING COM VELOCITY 0.0423345 0.0462177 -0.139557
Info: Use 3D box decompostion in PME FFT.
Info: Updated CUDA force table with 4096 elements.
Info: Updated CUDA LJ table with 8 x 8 elements.
Info: Found 18 unique exclusion lists needing 44 bytes
TCL: Running for 1500000 steps
ETITLE: TS BOND ANGLE DIHED IMPRP ELECT VDW BOUNDARY MISC KINETIC TOTAL TEMP POTENTIAL TOTALAVG TEMPAVG PRESSURE GPRESSURE VOLUME PRESSAVG GPRESSAVG
ENERGY: 0 1.4911 6.0466 2.6476 0.0000 -10702.1168 1441.7971 0.0000 0.0000 1770.7119 -7479.4225 302.2088 -9250.1343 -7479.4225 302.2088 94.5148 182.7413 30223.4628 94.5148 182.7413
ENERGY: 300000 1.4013 11.7948 2.3136 0.0000 -10701.3092 1462.0910 0.0000 0.0000 1718.2733 -7505.4352 293.2591 -9223.7086 -7504.5732 298.1377 358.3066 451.1782 30063.7584 327.7167 408.6085
ENERGY: 600000 1.6948 4.7424 2.8269 0.0000 -10622.4130 1350.0829 0.0000 0.0000 1735.2684 -7527.7976 296.1597 -9263.0660 -7504.7888 297.4548 -815.5088 -733.8868 30398.3837 176.5194 259.5099
ENERGY: 900000 2.8225 7.4853 3.1568 0.0000 -10669.6306 1451.0958 0.0000 0.0000 1687.7780 -7517.2922 288.0545 -9205.0703 -7510.8419 296.3792 209.5944 293.5339 30114.3786 147.9170 229.8356
ENERGY: 1200000 2.3174 5.1428 1.9100 0.0000 -10693.4139 1478.6999 0.0000 0.0000 1750.6283 -7454.7154 298.7812 -9205.3437 -7500.9274 297.3815 492.2689 597.8552 30366.1989 145.1611 228.7837
ENERGY: 1500000 2.5019 9.2332 1.2144 0.0000 -10622.8860 1400.9184 0.0000 0.0000 1720.2533 -7488.7648 293.5970 -9209.0181 -7500.6603 297.0317 9.6197 10.0418 30593.2174 144.2023 225.4626
TCL: Running FEP window   2: Lambda1 0.95   Lambda2 0.8999999999999999 [dLambda -0.050000000000000044]
TCL: Setting parameter firsttimestep to 0
TCL: Setting parameter alchLambda to 0.95
Info: NONBONDED TABLE R-SQUARED SPACING: 0.0625
Info: NONBONDED TABLE SIZE: 705 POINTS
TCL: Setting parameter alchLambda2 to 0.8999999999999999
Info: NONBONDED TABLE R-SQUARED SPACING: 0.0625
Info: NONBONDED TABLE SIZE: 705 POINTS
TCL: Running for 1500000 steps
ETITLE: TS BOND ANGLE DIHED IMPRP ELECT VDW BOUNDARY MISC KINETIC TOTAL TEMP POTENTIAL TOTALAVG TEMPAVG PRESSURE GPRESSURE VOLUME PRESSAVG GPRESSAVG
ENERGY: 0 2.5019 9.2332 1.2144 0.0000 -10621.6918 1399.8804 0.0000 0.0000 1719.3800 -7489.4818 293.4480 -9208.8619 -7489.4818 293.4480 -99.8245 -11.9252 30593.2174 -99.8245 -11.9252
ENERGY: 300000 0.9244 10.0351 4.5526 0.0000 -10776.0750 1486.0775 0.0000 0.0000 1739.0174 -7535.4679 296.7995 -9274.4853 -7460.4098 299.0702 586.5540 634.3935 29972.8230 -331.0802 -249.2191
ENERGY: 600000 3.5202 8.0532 2.5931 0.0000 -10745.8901 1464.8535 0.0000 0.0000 1723.2088 -7543.6612 294.1014 -9266.8700 -7483.2646 298.5923 110.0960 174.3779 30288.4374 -112.3276 -34.0971
ENERGY: 900000 0.5869 5.2168 0.7397 0.0000 -10599.9181 1407.6690 0.0000 0.0000 1688.3477 -7497.3582 288.1517 -9185.7058 -7472.8833 298.5489 -351.8997 -299.3390 30648.4946 -120.0418 -50.9349
ENERGY: 1200000 2.0981 6.2727 1.8747 0.0000 -10567.2442 1370.9947 0.0000 0.0000 1789.8232 -7396.1807 305.4706 -9186.0039 -7464.7339 298.8697 -496.0625 -465.2176 30659.9266 -116.2028 -52.0546
ENERGY: 1500000 2.1632 5.0217 4.7962 0.0000 -10689.6435 1467.8303 0.0000 0.0000 1740.1028 -7469.7294 296.9848 -9209.8322 -7455.2066 300.1926 401.9624 421.2242 30441.6983 -113.4199 -53.9492
TCL: Running FEP window   3: Lambda1 0.8999999999999999 Lambda2 0.8499999999999999 [dLambda -0.050000000000000044]
TCL: Setting parameter firsttimestep to 0
TCL: Setting parameter alchLambda to 0.8999999999999999
Info: NONBONDED TABLE R-SQUARED SPACING: 0.0625
Info: NONBONDED TABLE SIZE: 705 POINTS
TCL: Setting parameter alchLambda2 to 0.8499999999999999
Info: NONBONDED TABLE R-SQUARED SPACING: 0.0625
Info: NONBONDED TABLE SIZE: 705 POINTS
TCL: Running for 1500000 steps
ETITLE: TS BOND ANGLE DIHED IMPRP ELECT VDW BOUNDARY MISC KINETIC TOTAL TEMP POTENTIAL TOTALAVG TEMPAVG PRESSURE GPRESSURE VOLUME PRESSAVG GPRESSAVG
ENERGY: 0 2.1632 5.0217 4.7963 0.0000 -10688.3630 1468.0935 0.0000 0.0000 1739.2050 -7469.0834 296.8315 -9208.2884 -7469.0834 296.8315 336.2041 413.3076 30441.6983 336.2041 413.3076
ENERGY: 300000 0.9864 10.9234 2.1801 0.0000 -10552.1420 1351.2489 0.0000 0.0000 1692.2012 -7494.6021 288.8093 -9186.8032 -7451.5326 296.2149 -310.6698 -241.1033 29972.1524 -71.7197 29.7719
ENERGY: 600000 1.6188 3.9898 3.0681 0.0000 -10674.0851 1415.6036 0.0000 0.0000 1741.1451 -7508.6598 297.1626 -9249.8049 -7450.0893 297.3292 -410.6239 -330.1398 30548.3976 -102.8008 -16.4881
ENERGY: 900000 2.5243 5.1889 3.1998 0.0000 -10635.1677 1441.9717 0.0000 0.0000 1738.3677 -7443.9153 296.6886 -9182.2829 -7444.2281 299.0124 -155.7692 -41.9702 30688.3777 9.3937 86.3058
ENERGY: 1200000 2.2846 5.2978 5.6690 0.0000 -10756.4346 1515.3243 0.0000 0.0000 1803.2191 -7424.6398 307.7569 -9227.8589 -7438.2362 299.1265 361.4473 456.9576 30554.9860 26.9405 111.5235
ENERGY: 1500000 2.3341 5.4896 2.9440 0.0000 -10734.8023 1460.1244 0.0000 0.0000 1725.5189 -7538.3912 294.4957 -9263.9101 -7440.4744 298.9788 -127.5855 -21.5246 30595.8150 7.3183 89.6781
TCL: Running FEP window   4: Lambda1 0.8499999999999999 Lambda2 0.7999999999999998 [dLambda -0.050000000000000044]
TCL: Setting parameter firsttimestep to 0
TCL: Setting parameter alchLambda to 0.8499999999999999
Info: NONBONDED TABLE R-SQUARED SPACING: 0.0625
Info: NONBONDED TABLE SIZE: 705 POINTS
TCL: Setting parameter alchLambda2 to 0.7999999999999998
Info: NONBONDED TABLE R-SQUARED SPACING: 0.0625
Info: NONBONDED TABLE SIZE: 705 POINTS
TCL: Running for 1500000 steps
ETITLE: TS BOND ANGLE DIHED IMPRP ELECT VDW BOUNDARY MISC KINETIC TOTAL TEMP POTENTIAL TOTALAVG TEMPAVG PRESSURE GPRESSURE VOLUME PRESSAVG GPRESSAVG
ENERGY: 0 2.3342 5.4896 2.9440 0.0000 -10733.0406 1458.7945 0.0000 0.0000 1724.6115 -7538.8669 294.3408 -9263.4784 -7538.8669 294.3408 -136.3994 -48.4945 30595.8150 -136.3994 -48.4945
ENERGY: 300000 1.0937 4.0009 2.0048 0.0000 -10587.6683 1396.2065 0.0000 0.0000 1757.3682 -7426.9943 299.9315 -9184.3625 -7437.4380 301.6279 -265.3237 -139.8370 30467.4462 116.6767 184.6138
ENERGY: 600000 2.3791 8.9903 1.3117 0.0000 -10443.9309 1380.9019 0.0000 0.0000 1762.1496 -7288.1983 300.7475 -9050.3479 -7420.6934 301.3171 -24.0184 -42.7689 30632.1357 245.6296 292.6194
ENERGY: 900000 4.4220 6.8858 3.9495 0.0000 -10515.9690 1273.7841 0.0000 0.0000 1815.9870 -7410.9406 309.9360 -9226.9276 -7425.1220 301.0504 -1387.4282 -1318.8800 30539.8639 32.1020 85.8540
ENERGY: 1200000 0.3549 6.2831 5.3103 0.0000 -10692.9628 1442.2988 0.0000 0.0000 1798.3881 -7440.3275 306.9324 -9238.7156 -7426.7731 301.3615 -59.1853 -27.4779 30527.0105 60.9768 114.8660
ENERGY: 1500000 1.3192 7.0367 1.5699 0.0000 -10593.3925 1324.3552 0.0000 0.0000 1723.6448 -7535.4667 294.1759 -9259.1116 -7443.6179 301.2470 -787.2088 -676.9919 30126.7078 -35.9550 20.0170
TCL: Running FEP window   5: Lambda1 0.7999999999999998 Lambda2 0.7499999999999998 [dLambda -0.050000000000000044]
TCL: Setting parameter firsttimestep to 0
TCL: Setting parameter alchLambda to 0.7999999999999998
Info: NONBONDED TABLE R-SQUARED SPACING: 0.0625
Info: NONBONDED TABLE SIZE: 705 POINTS
TCL: Setting parameter alchLambda2 to 0.7499999999999998
Info: NONBONDED TABLE R-SQUARED SPACING: 0.0625
Info: NONBONDED TABLE SIZE: 705 POINTS
TCL: Running for 1500000 steps
ETITLE: TS BOND ANGLE DIHED IMPRP ELECT VDW BOUNDARY MISC KINETIC TOTAL TEMP POTENTIAL TOTALAVG TEMPAVG PRESSURE GPRESSURE VOLUME PRESSAVG GPRESSAVG
ENERGY: 0 1.3192 7.0367 1.5699 0.0000 -10591.3073 1322.3133 0.0000 0.0000 1722.7800 -7536.2882 294.0283 -9259.0683 -7536.2882 294.0283 -802.7337 -706.2179 30126.7078 -802.7337 -706.2179
ENERGY: 300000 1.2688 5.3890 2.2465 0.0000 -10614.9817 1451.5247 0.0000 0.0000 1762.7835 -7391.7691 300.8557 -9154.5527 -7433.9307 302.9532 236.7311 325.3902 30290.9884 53.9430 145.4488
ENERGY: 600000 2.7860 7.7240 1.6328 0.0000 -10717.3276 1424.2848 0.0000 0.0000 1750.9951 -7529.9049 298.8437 -9280.9000 -7455.7058 301.3671 -129.7908 -74.5709 30035.7603 39.0803 114.5061
ENERGY: 900000 1.1682 7.4426 2.1227 0.0000 -10666.2876 1460.7526 0.0000 0.0000 1793.8312 -7400.9703 306.1546 -9194.8015 -7447.5996 300.4200 297.5740 385.1653 30299.1676 -21.1115 51.6899
ENERGY: 1200000 2.8562 8.6559 0.6023 0.0000 -10499.3434 1379.8315 0.0000 0.0000 1761.4955 -7345.9020 300.6359 -9107.3975 -7449.5626 299.3248 121.9398 118.1559 30353.6549 -37.4484 21.2525
ENERGY: 1500000 2.0231 5.5286 2.2449 0.0000 -10639.2377 1399.6666 0.0000 0.0000 1739.5842 -7490.1902 296.8962 -9229.7744 -7451.4781 299.3700 -301.9699 -258.0818 30393.1732 -114.5225 -55.1536
TCL: Running FEP window   6: Lambda1 0.7499999999999998 Lambda2 0.6999999999999997 [dLambda -0.050000000000000044]
TCL: Setting parameter firsttimestep to 0
TCL: Setting parameter alchLambda to 0.7499999999999998
Info: NONBONDED TABLE R-SQUARED SPACING: 0.0625
Info: NONBONDED TABLE SIZE: 705 POINTS
TCL: Setting parameter alchLambda2 to 0.6999999999999997
Info: NONBONDED TABLE R-SQUARED SPACING: 0.0625
Info: NONBONDED TABLE SIZE: 705 POINTS
TCL: Running for 1500000 steps
ETITLE: TS BOND ANGLE DIHED IMPRP ELECT VDW BOUNDARY MISC KINETIC TOTAL TEMP POTENTIAL TOTALAVG TEMPAVG PRESSURE GPRESSURE VOLUME PRESSAVG GPRESSAVG
ENERGY: 0 2.0231 5.5286 2.2449 0.0000 -10638.1436 1398.9965 0.0000 0.0000 1738.7355 -7490.6150 296.7514 -9229.3504 -7490.6150 296.7514 -368.1109 -274.6399 30393.1732 -368.1109 -274.6399
ENERGY: 300000 1.0193 6.7122 1.7563 0.0000 -10636.1144 1396.7978 0.0000 0.0000 1731.2287 -7498.6000 295.4702 -9229.8288 -7456.9345 302.1008 -310.5377 -244.8092 30224.8338 -260.3469 -197.6495
ENERGY: 600000 1.8189 5.0422 2.5479 0.0000 -10630.5217 1467.3352 0.0000 0.0000 1743.7012 -7410.0762 297.5989 -9153.7774 -7439.7509 300.5101 418.1576 482.2876 30442.9644 -101.1659 -37.4929
ENERGY: 900000 2.1542 6.2962 1.8051 0.0000 -10709.6089 1488.8468 0.0000 0.0000 1783.4174 -7427.0894 304.3773 -9210.5067 -7462.9245 298.9028 550.6321 584.4570 30351.5602 -128.0665 -71.5478
ENERGY: 1200000 0.9043 4.8972 4.4652 0.0000 -10564.6464 1351.2290 0.0000 0.0000 1746.5354 -7456.6153 298.0826 -9203.1507 -7457.5833 299.3001 -495.9233 -413.7238 30367.5601 -179.9123 -117.7993
ENERGY: 1500000 1.9360 6.8485 1.8053 0.0000 -10747.2026 1500.5202 0.0000 0.0000 1773.5574 -7462.5351 302.6945 -9236.0925 -7459.3824 300.1189 517.4183 492.8674 30502.3570 -153.7540 -98.6201
TCL: Running FEP window   7: Lambda1 0.6999999999999997 Lambda2 0.6499999999999997 [dLambda -0.050000000000000044]
TCL: Setting parameter firsttimestep to 0
TCL: Setting parameter alchLambda to 0.6999999999999997
Info: NONBONDED TABLE R-SQUARED SPACING: 0.0625
Info: NONBONDED TABLE SIZE: 705 POINTS
TCL: Setting parameter alchLambda2 to 0.6499999999999997
Info: NONBONDED TABLE R-SQUARED SPACING: 0.0625
Info: NONBONDED TABLE SIZE: 705 POINTS
TCL: Running for 1500000 steps
ETITLE: TS BOND ANGLE DIHED IMPRP ELECT VDW BOUNDARY MISC KINETIC TOTAL TEMP POTENTIAL TOTALAVG TEMPAVG PRESSURE GPRESSURE VOLUME PRESSAVG GPRESSAVG
ENERGY: 0 1.9360 6.8485 1.8053 0.0000 -10746.2446 1500.6009 0.0000 0.0000 1772.7116 -7462.3424 302.5501 -9235.0540 -7462.3424 302.5501 404.6894 487.4977 30502.3570 404.6894 487.4977
ENERGY: 300000 0.6559 4.0070 2.2380 0.0000 -10532.7055 1356.2668 0.0000 0.0000 1793.1751 -7376.3626 306.0426 -9169.5377 -7421.2311 302.7516 -563.4011 -476.3156 30651.6372 -306.3251 -216.6232
ENERGY: 600000 1.6877 4.1640 1.4954 0.0000 -10669.2536 1431.7404 0.0000 0.0000 1710.6628 -7519.5033 291.9602 -9230.1661 -7447.2053 300.1883 -150.6402 -108.0891 30389.4073 -283.4595 -212.6122
ENERGY: 900000 3.0142 4.3613 2.5496 0.0000 -10615.3530 1388.0330 0.0000 0.0000 1745.5051 -7471.8898 297.9068 -9217.3949 -7439.7203 300.7935 -606.1265 -533.4512 30708.7257 -287.1938 -218.1837
ENERGY: 1200000 1.6894 9.0948 3.1953 0.0000 -10609.2063 1389.1715 0.0000 0.0000 1780.3673 -7425.6881 303.8567 -9206.0554 -7440.9313 301.3142 -273.4090 -212.8237 30043.2513 -284.1462 -216.2123
ENERGY: 1500000 0.9293 7.1019 2.4201 0.0000 -10656.8555 1390.8510 0.0000 0.0000 1754.5437 -7501.0095 299.4494 -9255.5531 -7457.3817 300.4305 -198.8731 -131.3820 29842.3036 -251.5458 -187.6285
TCL: Running FEP window   8: Lambda1 0.6499999999999997 Lambda2 0.5999999999999996 [dLambda -0.050000000000000044]
TCL: Setting parameter firsttimestep to 0
TCL: Setting parameter alchLambda to 0.6499999999999997
Info: NONBONDED TABLE R-SQUARED SPACING: 0.0625
Info: NONBONDED TABLE SIZE: 705 POINTS
TCL: Setting parameter alchLambda2 to 0.5999999999999996
Info: NONBONDED TABLE R-SQUARED SPACING: 0.0625
Info: NONBONDED TABLE SIZE: 705 POINTS
TCL: Running for 1500000 steps
ETITLE: TS BOND ANGLE DIHED IMPRP ELECT VDW BOUNDARY MISC KINETIC TOTAL TEMP POTENTIAL TOTALAVG TEMPAVG PRESSURE GPRESSURE VOLUME PRESSAVG GPRESSAVG
ENERGY: 0 0.9293 7.1018 2.4201 0.0000 -10655.9822 1391.2247 0.0000 0.0000 1753.6722 -7500.6340 299.3007 -9254.3062 -7500.6340 299.3007 -221.1552 -134.8984 29842.3036 -221.1552 -134.8984
ENERGY: 300000 1.5927 6.0844 1.2028 0.0000 -10749.6497 1507.5803 0.0000 0.0000 1789.1990 -7443.9904 305.3641 -9233.1894 -7426.4263 302.1705 842.4390 876.0594 29704.6050 182.6968 269.6646
ENERGY: 600000 0.9307 6.0052 2.1920 0.0000 -10692.1016 1438.7175 0.0000 0.0000 1764.4486 -7479.8075 301.1399 -9244.2561 -7470.8600 301.0261 112.4508 205.9521 29930.6396 17.4588 96.4456
ENERGY: 900000 1.6126 10.3512 3.4073 0.0000 -10599.1920 1391.1608 0.0000 0.0000 1795.7255 -7396.9346 306.4779 -9192.6601 -7460.2060 302.5127 -529.5753 -407.5373 30834.9041 -123.8828 -43.2234
ENERGY: 1200000 0.9360 6.3429 0.9242 0.0000 -10761.7931 1473.3756 0.0000 0.0000 1777.5824 -7502.6319 303.3814 -9280.2143 -7459.3453 301.9033 292.7391 361.1161 30015.0145 -45.8536 35.9966
ENERGY: 1500000 1.9703 5.8886 1.8974 0.0000 -10608.2187 1400.9758 0.0000 0.0000 1828.7040 -7368.7825 312.1064 -9197.4866 -7462.6313 301.9861 -373.3204 -253.4300 30576.4838 -145.6692 -58.5648
TCL: Running FEP window   9: Lambda1 0.5999999999999996 Lambda2 0.5499999999999996 [dLambda -0.050000000000000044]
TCL: Setting parameter firsttimestep to 0
TCL: Setting parameter alchLambda to 0.5999999999999996
Info: NONBONDED TABLE R-SQUARED SPACING: 0.0625
Info: NONBONDED TABLE SIZE: 705 POINTS
TCL: Setting parameter alchLambda2 to 0.5499999999999996
Info: NONBONDED TABLE R-SQUARED SPACING: 0.0625
Info: NONBONDED TABLE SIZE: 705 POINTS
TCL: Running for 1500000 steps
ETITLE: TS BOND ANGLE DIHED IMPRP ELECT VDW BOUNDARY MISC KINETIC TOTAL TEMP POTENTIAL TOTALAVG TEMPAVG PRESSURE GPRESSURE VOLUME PRESSAVG GPRESSAVG
ENERGY: 0 1.9703 5.8886 1.8974 0.0000 -10608.0202 1401.0131 0.0000 0.0000 1827.8433 -7369.4075 311.9595 -9197.2508 -7369.4075 311.9595 -349.5181 -260.8303 30576.4838 -349.5181 -260.8303
ENERGY: 300000 1.6889 4.5037 5.7567 0.0000 -10484.1287 1367.8870 0.0000 0.0000 1773.2235 -7331.0690 302.6375 -9104.2925 -7434.5982 304.1795 -518.6107 -408.4800 31161.4652 -177.6542 -109.2732
ENERGY: 600000 3.0825 7.6219 2.0001 0.0000 -10692.3955 1486.6683 0.0000 0.0000 1734.8579 -7458.1646 296.0896 -9193.0226 -7448.5994 301.5744 510.3805 583.3760 30006.7209 50.6254 117.4494
ENERGY: 900000 3.3774 4.0450 1.4425 0.0000 -10748.2577 1545.9666 0.0000 0.0000 1770.2982 -7423.1279 302.1382 -9193.4261 -7438.6039 302.2102 1299.0892 1415.3359 29577.1919 134.5216 205.8680
ENERGY: 1200000 1.5510 10.0003 1.8154 0.0000 -10765.7261 1451.1953 0.0000 0.0000 1777.7584 -7523.4058 303.4115 -9301.1642 -7457.6394 301.5537 -79.2906 18.1765 30238.0413 138.8711 212.2035
ENERGY: 1500000 3.2678 4.1138 2.4519 0.0000 -10743.2545 1470.7897 0.0000 0.0000 1811.9398 -7450.6915 309.2452 -9262.6313 -7461.7851 301.9474 -78.7464 -40.2975 30696.3170 42.2437 113.5741
TCL: Running FEP window  10: Lambda1 0.5499999999999996 Lambda2 0.4999999999999996 [dLambda -0.04999999999999999]
TCL: Setting parameter firsttimestep to 0
TCL: Setting parameter alchLambda to 0.5499999999999996
Info: NONBONDED TABLE R-SQUARED SPACING: 0.0625
Info: NONBONDED TABLE SIZE: 705 POINTS
TCL: Setting parameter alchLambda2 to 0.4999999999999996
Info: NONBONDED TABLE R-SQUARED SPACING: 0.0625
Info: NONBONDED TABLE SIZE: 705 POINTS
TCL: Running for 1500000 steps
ETITLE: TS BOND ANGLE DIHED IMPRP ELECT VDW BOUNDARY MISC KINETIC TOTAL TEMP POTENTIAL TOTALAVG TEMPAVG PRESSURE GPRESSURE VOLUME PRESSAVG GPRESSAVG
ENERGY: 0 3.2678 4.1138 2.4519 0.0000 -10742.7494 1471.1855 0.0000 0.0000 1811.0516 -7450.6789 309.0937 -9261.7305 -7450.6789 309.0937 -125.4993 -41.5142 30696.3170 -125.4993 -41.5142
ENERGY: 300000 1.2371 7.6900 1.5940 0.0000 -10577.4844 1344.8973 0.0000 0.0000 1743.2350 -7478.8310 297.5193 -9222.0660 -7463.8590 300.5535 -859.4069 -776.4009 30585.2188 -481.6987 -413.6776
ENERGY: 600000 0.8666 9.6649 3.6743 0.0000 -10594.7618 1347.3208 0.0000 0.0000 1768.6512 -7464.5839 301.8571 -9233.2351 -7456.1687 300.0244 -642.2978 -579.8865 30068.3901 -282.0865 -223.0859
ENERGY: 900000 1.8897 4.7464 2.1340 0.0000 -10517.0676 1326.0850 0.0000 0.0000 1773.4399 -7408.7725 302.6744 -9182.2125 -7454.9827 299.9401 -712.0960 -614.3193 30330.4869 -192.6768 -132.3428
ENERGY: 1200000 2.9764 7.4103 2.1894 0.0000 -10651.6871 1391.2776 0.0000 0.0000 1782.3452 -7465.4881 304.1943 -9247.8333 -7461.5375 300.4619 -354.3578 -279.7832 30094.1896 -213.8696 -158.6110
ENERGY: 1500000 0.8080 4.9368 2.2422 0.0000 -10734.7468 1493.6383 0.0000 0.0000 1722.9984 -7510.1231 294.0655 -9233.1215 -7452.9938 300.1731 552.2814 621.1496 29897.1111 -158.5131 -102.7721
TCL: Running FEP window  11: Lambda1 0.4999999999999996 Lambda2 0.4499999999999996 [dLambda -0.04999999999999999]
TCL: Setting parameter firsttimestep to 0
TCL: Setting parameter alchLambda to 0.4999999999999996
Info: NONBONDED TABLE R-SQUARED SPACING: 0.0625
Info: NONBONDED TABLE SIZE: 705 POINTS
TCL: Setting parameter alchLambda2 to 0.4499999999999996
Info: NONBONDED TABLE R-SQUARED SPACING: 0.0625
Info: NONBONDED TABLE SIZE: 705 POINTS
TCL: Running for 1500000 steps
ETITLE: TS BOND ANGLE DIHED IMPRP ELECT VDW BOUNDARY MISC KINETIC TOTAL TEMP POTENTIAL TOTALAVG TEMPAVG PRESSURE GPRESSURE VOLUME PRESSAVG GPRESSAVG
ENERGY: 0 0.8080 4.9368 2.2422 0.0000 -10734.8345 1493.8156 0.0000 0.0000 1722.1300 -7510.9019 293.9173 -9233.0318 -7510.9019 293.9173 526.0839 618.2590 29897.1111 526.0839 618.2590
ENERGY: 300000 1.2664 7.0588 0.6882 0.0000 -10765.9633 1476.5937 0.0000 0.0000 1720.7462 -7559.6099 293.6812 -9280.3562 -7506.2928 296.4780 87.2510 161.7950 30493.8160 178.3501 223.5271
ENERGY: 600000 2.0441 11.7774 2.2334 0.0000 -10767.2189 1481.8921 0.0000 0.0000 1764.0664 -7505.2054 301.0747 -9269.2719 -7478.2886 300.5951 347.1745 352.9434 30026.1114 245.8917 301.0785
ENERGY: 900000 0.8310 7.9719 0.7607 0.0000 -10779.1168 1482.5238 0.0000 0.0000 1704.4015 -7582.6279 290.8916 -9287.0294 -7485.7402 299.6598 154.8138 159.4691 30333.6005 261.5001 321.8273
ENERGY: 1200000 0.9315 6.5486 0.4206 0.0000 -10571.5620 1363.6201 0.0000 0.0000 1787.5010 -7412.5402 305.0742 -9200.0411 -7464.2485 300.6204 -483.5220 -460.4029 30503.4071 46.4833 105.3948
ENERGY: 1500000 1.5955 6.5628 1.5528 0.0000 -10789.0822 1545.7359 0.0000 0.0000 1767.4260 -7466.2092 301.6480 -9233.6352 -7461.0530 301.0960 992.2671 1033.3547 29686.7696 94.9375 154.6054
TCL: Running FEP window  12: Lambda1 0.4499999999999996 Lambda2 0.39999999999999963 [dLambda -0.04999999999999999]
TCL: Setting parameter firsttimestep to 0
TCL: Setting parameter alchLambda to 0.4499999999999996
Info: NONBONDED TABLE R-SQUARED SPACING: 0.0625
Info: NONBONDED TABLE SIZE: 705 POINTS
TCL: Setting parameter alchLambda2 to 0.39999999999999963
Info: NONBONDED TABLE R-SQUARED SPACING: 0.0625
Info: NONBONDED TABLE SIZE: 705 POINTS
TCL: Running for 1500000 steps
ETITLE: TS BOND ANGLE DIHED IMPRP ELECT VDW BOUNDARY MISC KINETIC TOTAL TEMP POTENTIAL TOTALAVG TEMPAVG PRESSURE GPRESSURE VOLUME PRESSAVG GPRESSAVG
ENERGY: 0 1.5955 6.5628 1.5528 0.0000 -10789.0836 1545.9590 0.0000 0.0000 1766.5766 -7466.8369 301.5031 -9233.4135 -7466.8369 301.5031 940.0623 1027.9970 29686.7696 940.0623 1027.9970
ENERGY: 300000 1.6762 6.4698 2.0087 0.0000 -10723.4688 1439.7357 0.0000 0.0000 1730.8114 -7542.7670 295.3990 -9273.5784 -7503.4121 299.0575 -213.4147 -157.5944 30239.4286 75.9934 103.3131
ENERGY: 600000 1.0060 8.8611 3.8938 0.0000 -10565.7019 1362.4234 0.0000 0.0000 1789.5049 -7400.0126 305.4163 -9189.5175 -7480.9225 300.1054 -564.9523 -563.6098 30673.8864 -8.3737 27.7794
ENERGY: 900000 1.2991 5.0052 0.8554 0.0000 -10733.1973 1473.6405 0.0000 0.0000 1763.0300 -7489.3671 300.8978 -9252.3971 -7474.3956 300.6494 311.4677 322.9446 29977.1469 76.7395 120.9844
ENERGY: 1200000 1.0815 5.7933 3.4179 0.0000 -10703.8179 1422.2358 0.0000 0.0000 1720.3563 -7550.9331 293.6146 -9271.2893 -7484.1945 299.7393 -329.5763 -225.7643 30204.9704 41.0010 104.4113
ENERGY: 1500000 0.4989 5.2294 2.3024 0.0000 -10750.4295 1508.9832 0.0000 0.0000 1800.8407 -7432.5749 307.3509 -9233.4156 -7474.3250 300.8988 722.3956 745.4450 29967.1325 121.4329 181.2154
TCL: Running FEP window  13: Lambda1 0.39999999999999963 Lambda2 0.34999999999999964 [dLambda -0.04999999999999999]
TCL: Setting parameter firsttimestep to 0
TCL: Setting parameter alchLambda to 0.39999999999999963
Info: NONBONDED TABLE R-SQUARED SPACING: 0.0625
Info: NONBONDED TABLE SIZE: 705 POINTS
TCL: Setting parameter alchLambda2 to 0.34999999999999964
Info: NONBONDED TABLE R-SQUARED SPACING: 0.0625
Info: NONBONDED TABLE SIZE: 705 POINTS
TCL: Running for 1500000 steps
ETITLE: TS BOND ANGLE DIHED IMPRP ELECT VDW BOUNDARY MISC KINETIC TOTAL TEMP POTENTIAL TOTALAVG TEMPAVG PRESSURE GPRESSURE VOLUME PRESSAVG GPRESSAVG
ENERGY: 0 0.4989 5.2294 2.3024 0.0000 -10750.4297 1508.4178 0.0000 0.0000 1799.9749 -7434.0064 307.2032 -9233.9812 -7434.0064 307.2032 649.4943 737.2736 29967.1325 649.4943 737.2736
ENERGY: 300000 1.4199 7.0080 2.3059 0.0000 -10556.1035 1368.8980 0.0000 0.0000 1750.1795 -7426.2921 298.7046 -9176.4716 -7414.9657 297.7188 -704.3588 -727.7220 30723.3272 -359.4030 -322.8620
ENERGY: 600000 1.1224 6.7812 1.7692 0.0000 -10767.7614 1542.5694 0.0000 0.0000 1787.8296 -7427.6896 305.1303 -9215.5192 -7422.2555 299.2557 784.7181 851.5209 30176.0082 31.1473 78.0727
ENERGY: 900000 0.9639 6.7909 0.8684 0.0000 -10644.2048 1428.1932 0.0000 0.0000 1714.9098 -7492.4785 292.6851 -9207.3884 -7424.8439 297.7212 -154.3187 -18.8944 30488.7592 -86.6225 -33.2688
ENERGY: 1200000 1.7895 5.9917 5.1992 0.0000 -10688.5965 1476.0537 0.0000 0.0000 1688.3103 -7511.2521 288.1453 -9199.5624 -7431.7976 298.0280 460.2140 495.4354 30201.9554 -23.3319 27.3816
ENERGY: 1500000 0.7482 7.5208 2.6224 0.0000 -10462.2035 1336.1325 0.0000 0.0000 1789.4827 -7325.6969 305.4125 -9115.1796 -7431.8933 298.7632 -742.0722 -687.4192 30725.3605 -152.9273 -99.7354
TCL: Running FEP window  14: Lambda1 0.34999999999999964 Lambda2 0.29999999999999966 [dLambda -0.04999999999999999]
TCL: Setting parameter firsttimestep to 0
TCL: Setting parameter alchLambda to 0.34999999999999964
Info: NONBONDED TABLE R-SQUARED SPACING: 0.0625
Info: NONBONDED TABLE SIZE: 705 POINTS
TCL: Setting parameter alchLambda2 to 0.29999999999999966
Info: NONBONDED TABLE R-SQUARED SPACING: 0.0625
Info: NONBONDED TABLE SIZE: 705 POINTS
TCL: Running for 1500000 steps
ETITLE: TS BOND ANGLE DIHED IMPRP ELECT VDW BOUNDARY MISC KINETIC TOTAL TEMP POTENTIAL TOTALAVG TEMPAVG PRESSURE GPRESSURE VOLUME PRESSAVG GPRESSAVG
ENERGY: 0 0.7482 7.5207 2.6224 0.0000 -10462.2014 1336.1875 0.0000 0.0000 1788.5600 -7326.5625 305.2550 -9115.1225 -7326.5625 305.2550 -778.0388 -692.3895 30725.3605 -778.0388 -692.3895
ENERGY: 300000 3.1659 6.9079 0.5871 0.0000 -10863.0935 1541.1041 0.0000 0.0000 1737.7002 -7573.6284 296.5747 -9311.3286 -7442.0235 302.9230 374.5160 411.5016 30301.3546 343.9533 382.0321
ENERGY: 600000 3.2326 7.2199 3.2142 0.0000 -10713.7575 1509.9607 0.0000 0.0000 1751.0479 -7439.0821 298.8528 -9190.1300 -7447.5994 303.7034 722.6922 836.3912 29893.6086 148.3659 202.7135
ENERGY: 900000 2.4530 6.4702 2.2609 0.0000 -10677.4206 1480.0323 0.0000 0.0000 1759.7778 -7426.4264 300.3427 -9186.2042 -7446.5341 302.3650 178.5575 265.8013 30516.7538 67.4169 116.8411
ENERGY: 1200000 1.9988 6.0466 5.4007 0.0000 -10509.0036 1365.9620 0.0000 0.0000 1744.2810 -7385.3145 297.6979 -9129.5955 -7436.5521 302.0146 -539.4751 -459.3966 30463.3883 -59.9130 -11.6374
ENERGY: 1500000 2.0149 5.0934 1.1810 0.0000 -10526.5654 1366.7522 0.0000 0.0000 1797.7277 -7353.7962 306.8196 -9151.5239 -7432.6181 302.6639 -448.4320 -397.9562 30470.1161 -8.4825 36.1320
TCL: Running FEP window  15: Lambda1 0.29999999999999966 Lambda2 0.24999999999999967 [dLambda -0.04999999999999999]
TCL: Setting parameter firsttimestep to 0
TCL: Setting parameter alchLambda to 0.29999999999999966
Info: NONBONDED TABLE R-SQUARED SPACING: 0.0625
Info: NONBONDED TABLE SIZE: 705 POINTS
TCL: Setting parameter alchLambda2 to 0.24999999999999967
Info: NONBONDED TABLE R-SQUARED SPACING: 0.0625
Info: NONBONDED TABLE SIZE: 705 POINTS
TCL: Running for 1500000 steps
ETITLE: TS BOND ANGLE DIHED IMPRP ELECT VDW BOUNDARY MISC KINETIC TOTAL TEMP POTENTIAL TOTALAVG TEMPAVG PRESSURE GPRESSURE VOLUME PRESSAVG GPRESSAVG
ENERGY: 0 2.0149 5.0934 1.1810 0.0000 -10526.5650 1366.5410 0.0000 0.0000 1796.8289 -7354.9058 306.6663 -9151.7347 -7354.9058 306.6663 -481.5568 -405.1749 30470.1161 -481.5568 -405.1749
ENERGY: 300000 0.7385 5.8169 1.7930 0.0000 -10581.5138 1435.9758 0.0000 0.0000 1776.9061 -7360.2835 303.2660 -9137.1896 -7382.0963 305.2995 -52.1927 -8.1232 30695.2511 -280.0993 -256.4685
ENERGY: 600000 2.1463 5.6266 2.0343 0.0000 -10641.3814 1445.4170 0.0000 0.0000 1744.2645 -7441.8927 297.6950 -9186.1572 -7425.1483 302.6888 -128.5591 -32.7243 30501.5193 -188.5507 -141.8198
ENERGY: 900000 2.6076 3.4476 2.3718 0.0000 -10654.5841 1418.8051 0.0000 0.0000 1770.9090 -7456.4431 302.2425 -9227.3521 -7431.4147 301.7097 -252.1945 -190.5134 30292.6878 -213.0257 -163.2981
ENERGY: 1200000 3.0369 5.8038 3.4001 0.0000 -10711.1250 1448.1318 0.0000 0.0000 1789.1628 -7461.5895 305.3579 -9250.7523 -7431.2575 301.9271 29.5286 30.0784 30242.7573 -133.5898 -86.7548
ENERGY: 1500000 1.1307 6.0472 5.6727 0.0000 -10457.5483 1350.0386 0.0000 0.0000 1762.6695 -7331.9896 300.8362 -9094.6592 -7422.1629 301.7632 -543.6910 -507.8892 30661.9926 -174.5568 -130.3181
TCL: Running FEP window  16: Lambda1 0.24999999999999967 Lambda2 0.19999999999999968 [dLambda -0.04999999999999999]
TCL: Setting parameter firsttimestep to 0
TCL: Setting parameter alchLambda to 0.24999999999999967
Info: NONBONDED TABLE R-SQUARED SPACING: 0.0625
Info: NONBONDED TABLE SIZE: 705 POINTS
TCL: Setting parameter alchLambda2 to 0.19999999999999968
Info: NONBONDED TABLE R-SQUARED SPACING: 0.0625
Info: NONBONDED TABLE SIZE: 705 POINTS
TCL: Running for 1500000 steps
ETITLE: TS BOND ANGLE DIHED IMPRP ELECT VDW BOUNDARY MISC KINETIC TOTAL TEMP POTENTIAL TOTALAVG TEMPAVG PRESSURE GPRESSURE VOLUME PRESSAVG GPRESSAVG
ENERGY: 0 1.1307 6.0472 5.6727 0.0000 -10457.5480 1350.2497 0.0000 0.0000 1761.8300 -7332.6178 300.6930 -9094.4478 -7332.6178 300.6930 -594.9179 -513.1614 30661.9926 -594.9179 -513.1614
ENERGY: 300000 4.3536 11.9706 0.8522 0.0000 -10656.9080 1466.0874 0.0000 0.0000 1768.3605 -7405.2837 301.8075 -9173.6442 -7441.7446 298.2654 222.2538 273.0407 30434.0535 -171.5746 -104.4705
ENERGY: 600000 1.0147 6.4596 1.5842 0.0000 -10682.5385 1454.9887 0.0000 0.0000 1729.9314 -7488.5599 295.2488 -9218.4913 -7432.3375 300.0814 222.4342 309.5937 30121.8110 -11.3195 59.7305
ENERGY: 900000 0.3609 5.8328 2.6081 0.0000 -10759.1912 1518.9808 0.0000 0.0000 1788.7459 -7442.6627 305.2867 -9231.4086 -7436.6219 300.3087 346.9526 445.8440 30527.0212 17.3839 91.2109
ENERGY: 1200000 1.5763 7.0421 3.4204 0.0000 -10712.9686 1496.4977 0.0000 0.0000 1765.9757 -7438.4563 301.4005 -9204.4320 -7446.9092 299.5279 412.9786 460.3478 30086.0717 2.3612 80.6757
ENERGY: 1500000 2.1750 7.0078 1.4542 0.0000 -10573.6479 1378.3125 0.0000 0.0000 1756.0170 -7428.6814 299.7008 -9184.6984 -7454.9947 298.7755 -673.5683 -612.6287 31018.6678 -89.3829 -9.9524
TCL: Running FEP window  17: Lambda1 0.19999999999999968 Lambda2 0.1499999999999997 [dLambda -0.04999999999999999]
TCL: Setting parameter firsttimestep to 0
TCL: Setting parameter alchLambda to 0.19999999999999968
Info: NONBONDED TABLE R-SQUARED SPACING: 0.0625
Info: NONBONDED TABLE SIZE: 705 POINTS
TCL: Setting parameter alchLambda2 to 0.1499999999999997
Info: NONBONDED TABLE R-SQUARED SPACING: 0.0625
Info: NONBONDED TABLE SIZE: 705 POINTS
TCL: Running for 1500000 steps
ETITLE: TS BOND ANGLE DIHED IMPRP ELECT VDW BOUNDARY MISC KINETIC TOTAL TEMP POTENTIAL TOTALAVG TEMPAVG PRESSURE GPRESSURE VOLUME PRESSAVG GPRESSAVG
ENERGY: 0 2.1750 7.0078 1.4542 0.0000 -10573.6461 1378.6905 0.0000 0.0000 1755.1762 -7429.1423 299.5573 -9184.3185 -7429.1423 299.5573 -699.1293 -614.5009 31018.6678 -699.1293 -614.5009
ENERGY: 300000 3.3253 4.1597 2.2400 0.0000 -10541.8895 1411.9368 0.0000 0.0000 1752.4237 -7367.8041 299.0876 -9120.2278 -7422.0749 297.3039 74.2601 204.4075 30253.6474 -254.1016 -174.4645
ENERGY: 600000 1.0721 6.2072 3.3577 0.0000 -10528.0470 1392.7324 0.0000 0.0000 1767.9166 -7356.7610 301.7318 -9124.6776 -7439.1689 297.6992 -314.3376 -234.9038 30731.6037 -378.5589 -293.8536
ENERGY: 900000 1.2829 6.1597 1.2824 0.0000 -10737.5566 1498.7338 0.0000 0.0000 1690.4044 -7539.6934 288.5027 -9230.0978 -7464.6939 296.8889 338.4068 377.3998 30061.6458 -331.4106 -253.0892
ENERGY: 1200000 1.1226 4.5825 3.4523 0.0000 -10792.0522 1553.2272 0.0000 0.0000 1795.3985 -7434.2690 306.4221 -9229.6676 -7454.8705 298.8710 712.9664 766.6557 30392.1466 -251.4409 -183.9520
ENERGY: 1500000 1.8769 5.0910 1.3292 0.0000 -10600.6886 1401.7778 0.0000 0.0000 1720.5279 -7470.0858 293.6439 -9190.6137 -7448.9122 298.5189 -299.2024 -234.3385 30397.8784 -198.9528 -130.0934
TCL: Running FEP window  18: Lambda1 0.1499999999999997 Lambda2 0.09999999999999969 [dLambda -0.05 ]
TCL: Setting parameter firsttimestep to 0
TCL: Setting parameter alchLambda to 0.1499999999999997
Info: NONBONDED TABLE R-SQUARED SPACING: 0.0625
Info: NONBONDED TABLE SIZE: 705 POINTS
TCL: Setting parameter alchLambda2 to 0.09999999999999969
Info: NONBONDED TABLE R-SQUARED SPACING: 0.0625
Info: NONBONDED TABLE SIZE: 705 POINTS
TCL: Running for 1500000 steps
ETITLE: TS BOND ANGLE DIHED IMPRP ELECT VDW BOUNDARY MISC KINETIC TOTAL TEMP POTENTIAL TOTALAVG TEMPAVG PRESSURE GPRESSURE VOLUME PRESSAVG GPRESSAVG
ENERGY: 0 1.8769 5.0910 1.3292 0.0000 -10600.6891 1401.8834 0.0000 0.0000 1719.6730 -7470.8357 293.4980 -9190.5087 -7470.8357 293.4980 -328.8287 -239.3648 30397.8784 -328.8287 -239.3648
ENERGY: 300000 3.5954 6.0099 0.8196 0.0000 -10729.9662 1525.2016 0.0000 0.0000 1749.2147 -7445.1249 298.5399 -9194.3396 -7456.1084 297.0497 896.4796 978.2148 30240.9660 9.3021 99.5900
ENERGY: 600000 4.2893 8.0082 2.4049 0.0000 -10739.8494 1496.5808 0.0000 0.0000 1780.5947 -7447.9715 303.8955 -9228.5662 -7456.0928 298.8396 135.0022 231.9354 30418.1408 52.9484 139.2411
ENERGY: 900000 1.2653 4.6865 3.4036 0.0000 -10637.5303 1393.3099 0.0000 0.0000 1739.0288 -7495.8362 296.8015 -9234.8650 -7470.2336 298.2954 -792.7317 -740.5222 30986.5098 -75.5691 3.1002
ENERGY: 1200000 2.4071 6.1777 0.8311 0.0000 -10637.5529 1478.1874 0.0000 0.0000 1819.0768 -7330.8728 310.4633 -9149.9496 -7468.7067 299.2416 396.7519 463.6935 30263.2722 -55.7183 16.2106
ENERGY: 1500000 1.8333 2.9464 2.2857 0.0000 -10661.1366 1406.2046 0.0000 0.0000 1764.2315 -7483.6351 301.1028 -9247.8666 -7468.2574 299.3425 -416.1025 -324.7347 30245.0657 -115.8614 -44.0430
TCL: Running FEP window  19: Lambda1 0.09999999999999969 Lambda2 0.049999999999999684 [dLambda -0.05 ]
TCL: Setting parameter firsttimestep to 0
TCL: Setting parameter alchLambda to 0.09999999999999969
Info: NONBONDED TABLE R-SQUARED SPACING: 0.0625
Info: NONBONDED TABLE SIZE: 705 POINTS
TCL: Setting parameter alchLambda2 to 0.049999999999999684
Info: NONBONDED TABLE R-SQUARED SPACING: 0.0625
Info: NONBONDED TABLE SIZE: 705 POINTS
TCL: Running for 1500000 steps
ETITLE: TS BOND ANGLE DIHED IMPRP ELECT VDW BOUNDARY MISC KINETIC TOTAL TEMP POTENTIAL TOTALAVG TEMPAVG PRESSURE GPRESSURE VOLUME PRESSAVG GPRESSAVG
ENERGY: 0 1.8333 2.9464 2.2857 0.0000 -10661.1374 1406.3199 0.0000 0.0000 1763.3735 -7484.3786 300.9564 -9247.7522 -7484.3786 300.9564 -411.8621 -325.5353 30245.0657 -411.8621 -325.5353
ENERGY: 300000 1.6165 6.6786 1.7297 0.0000 -10699.4329 1500.4992 0.0000 0.0000 1786.0702 -7402.8386 304.8301 -9188.9088 -7450.7081 305.0805 579.2325 677.6321 29894.6009 -198.5897 -114.4217
ENERGY: 600000 3.2289 6.1508 3.5920 0.0000 -10606.5277 1442.3415 0.0000 0.0000 1779.5353 -7371.6793 303.7147 -9151.2146 -7438.2440 301.9578 348.6810 425.6811 30189.7908 -113.2540 -42.4224
ENERGY: 900000 0.5925 7.4714 3.0035 0.0000 -10774.8827 1470.5979 0.0000 0.0000 1774.7095 -7518.5079 302.8911 -9293.2174 -7457.5776 300.7060 204.8121 299.2900 29757.1535 -68.8041 1.6004
ENERGY: 1200000 1.4793 6.0772 1.6789 0.0000 -10648.9109 1368.8787 0.0000 0.0000 1749.7312 -7521.0657 298.6280 -9270.7968 -7468.0817 299.7999 -924.4895 -772.2251 30108.1924 -151.9960 -70.8226
ENERGY: 1500000 1.3219 7.4271 2.6998 0.0000 -10658.2818 1451.0008 0.0000 0.0000 1809.0931 -7386.7392 308.7594 -9195.8322 -7457.5567 300.9873 41.8349 75.8879 30654.4597 -139.4105 -62.6638
TCL: Running FEP window  20: Lambda1 0.049999999999999684 Lambda2 0.0    [dLambda -0.049999999999999684]
TCL: Setting parameter firsttimestep to 0
TCL: Setting parameter alchLambda to 0.049999999999999684
Info: NONBONDED TABLE R-SQUARED SPACING: 0.0625
Info: NONBONDED TABLE SIZE: 705 POINTS
TCL: Setting parameter alchLambda2 to 0.0
Info: NONBONDED TABLE R-SQUARED SPACING: 0.0625
Info: NONBONDED TABLE SIZE: 705 POINTS
TCL: Running for 1500000 steps
ETITLE: TS BOND ANGLE DIHED IMPRP ELECT VDW BOUNDARY MISC KINETIC TOTAL TEMP POTENTIAL TOTALAVG TEMPAVG PRESSURE GPRESSURE VOLUME PRESSAVG GPRESSAVG
ENERGY: 0 1.3219 7.4271 2.6998 0.0000 -10658.2824 1450.7674 0.0000 0.0000 1808.1856 -7387.8806 308.6045 -9196.0662 -7387.8806 308.6045 -12.2029 70.6885 30654.4597 -12.2029 70.6885
ENERGY: 300000 1.9353 5.1498 3.1163 0.0000 -10717.2994 1399.4395 0.0000 0.0000 1787.3343 -7520.3242 305.0458 -9307.6585 -7467.1777 305.1112 -404.9654 -328.8017 30068.9980 -449.3795 -384.9463
ENERGY: 600000 1.1869 7.4257 1.9436 0.0000 -10495.9474 1319.4710 0.0000 0.0000 1788.3375 -7377.5827 305.2170 -9165.9202 -7441.0839 303.2354 -749.1589 -672.8777 30089.8744 -404.2886 -332.8347
ENERGY: 900000 0.9368 4.4839 0.5681 0.0000 -10700.8873 1388.8743 0.0000 0.0000 1816.6735 -7489.3506 310.0531 -9306.0241 -7453.5431 302.3597 -430.2482 -324.1458 29673.2036 -354.2510 -275.3485
ENERGY: 1200000 0.3013 8.9977 2.7092 0.0000 -10691.7110 1481.5139 0.0000 0.0000 1746.4431 -7451.7458 298.0669 -9198.1889 -7453.0077 301.8969 431.2401 484.6925 30095.1847 -326.1638 -248.8300
ENERGY: 1500000 2.5365 6.0711 2.9583 0.0000 -10719.6062 1409.7903 0.0000 0.0000 1763.7094 -7534.5406 301.0137 -9298.2499 -7465.5132 300.9264 -679.4560 -624.0685 30449.2237 -307.0572 -233.3925
TCL: Exiting due to exit command.
