Info: SIMULATION PARAMETERS:
Info: TIMESTEP               2
Info: NUMBER OF STEPS        0
Info: STEPS PER CYCLE        10
Info: PERIODIC CELL BASIS 1  31.0994 0 0
Info: PERIODIC CELL BASIS 2  0 31.7825 0
Info: PERIODIC CELL BASIS 3  0 0 31.0496
Info: PERIODIC CELL CENTER   0 0 0
Info: WRAPPING WATERS AROUND PERIODIC BOUNDARIES ON OUTPUT.
Info: WRAPPING ALL CLUSTERS AROUND PERIODIC BOUNDARIES ON OUTPUT.
Info: FIRST LDB TIMESTEP     50
Info: LAST LDB TIMESTEP     -1
Info: HOM BACKGROUND SCALING 1
Info: PME BACKGROUND SCALING 1
Info: MIN ATOMS PER PATCH    40
Info: EMPTY PATCH LOAD       40 ATOMS
Info: VELOCITY FILE          mobley_2043882_equil.vel
Info: CENTER OF MASS MOVING INITIALLY? NO
Info: DIELECTRIC             1
Info: EXCLUDE                SCALED ONE-FOUR
Info: 1-4 ELECTROSTATICS SCALED BY 0.833333
Info: MODIFIED 1-4 VDW PARAMETERS WILL BE USED
Info: DCD FILENAME           mobley_2043882_prod.dcd
Info: DCD FREQUENCY          100000
Info: DCD FIRST STEP         100000
Info: DCD FILE WILL CONTAIN UNIT CELL DATA
Info: XST FILENAME           mobley_2043882_prod.xst
Info: XST FREQUENCY          100000
Info: NO VELOCITY DCD OUTPUT
Info: NO FORCE DCD OUTPUT
Info: OUTPUT FILENAME        mobley_2043882_prod
Info: BINARY OUTPUT FILES WILL BE USED
Info: RESTART FILENAME       mobley_2043882_prod.restart
Info: RESTART FREQUENCY      100000
Info: BINARY RESTART FILES WILL BE USED
Info: CUTOFF                 9
Info: PAIRLIST DISTANCE      11
Info: PAIRLIST SHRINK RATE   0.01
Info: PAIRLIST GROW RATE     0.01
Info: PAIRLIST TRIGGER       0.3
Info: PAIRLISTS PER CYCLE    2
Info: PAIRLISTS ENABLED
Info: MARGIN                 2
Info: HYDROGEN GROUP CUTOFF  2.5
Info: PATCH DIMENSION        15.5
Info: ENERGY OUTPUT STEPS    100000
Info: ENERGY EVALUATION STEPS    100000
Info: OUTPUT ENERGY PRECISION 4
Info: CROSSTERM ENERGY INCLUDED IN DIHEDRAL
Info: TIMING OUTPUT STEPS    1000000
Info: PRESSURE OUTPUT STEPS  100000
Info: ALCHEMICAL FEP ON
Info: FEP CURRENT LAMBDA VALUE     0
Info: FEP COMPARISON LAMBDA VALUE  0.05
Info: FEP INTRA-ALCHEMICAL NON-BONDED INTERACTIONS WILL BE RETAINED
Info: FEP INTRA-ALCHEMICAL BONDED INTERACTIONS WILL BE RETAINED
Info: FEP VDW SHIFTING COEFFICIENT 5
Info: FEP ELEC. ACTIVE FOR ANNIHILATED PARTICLES BETWEEN LAMBDA = 0 AND LAMBDA = 0.5
Info: FEP ELEC. ACTIVE FOR EXNIHILATED PARTICLES BETWEEN LAMBDA = 0.5 AND LAMBDA = 1
Info: FEP VDW ACTIVE FOR ANNIHILATED PARTICLES BETWEEN LAMBDA = 0 AND LAMBDA = 1
Info: FEP VDW ACTIVE FOR EXNIHILATED PARTICLES BETWEEN LAMBDA = 0 AND LAMBDA = 1
Info: FEP BOND ACTIVE FOR ANNIHILATED PARTICLES BETWEEN LAMBDA = 1 AND LAMBDA = 1
Info: FEP BOND ACTIVE FOR EXNIHILATED PARTICLES BETWEEN LAMBDA = 0 AND LAMBDA = 0
Info: LANGEVIN DYNAMICS ACTIVE
Info: LANGEVIN TEMPERATURE   300
Info: LANGEVIN USING BBK INTEGRATOR
Info: LANGEVIN DAMPING COEFFICIENT IS 1 INVERSE PS
Info: LANGEVIN DYNAMICS APPLIED TO HYDROGENS
Info: LANGEVIN PISTON PRESSURE CONTROL ACTIVE
Info:        TARGET PRESSURE IS 1.01325 BAR
Info:     OSCILLATION PERIOD IS 50 FS
Info:             DECAY TIME IS 25 FS
Info:     PISTON TEMPERATURE IS 300 K
Info:       PRESSURE CONTROL IS GROUP-BASED
Info:    INITIAL STRAIN RATE IS 0.000472613 0.000472613 0.000472613
Info:       CELL FLUCTUATION IS ISOTROPIC
Info: PARTICLE MESH EWALD (PME) ACTIVE
Info: PME TOLERANCE               1e-06
Info: PME EWALD COEFFICIENT       0.348832
Info: PME INTERPOLATION ORDER     4
Info: PME GRID DIMENSIONS         32 32 32
Info: PME MAXIMUM GRID SPACING    1
Info: PME CALCULATION WILL BE PERFORMED ON GPU
Info: FULL ELECTROSTATIC EVALUATION FREQUENCY      2
Info: USING VERLET I (r-RESPA) MTS SCHEME.
Info: C1 SPLITTING OF LONG RANGE ELECTROSTATICS
Info: PLACING ATOMS IN PATCHES BY HYDROGEN GROUPS
Info: RIGID BONDS TO HYDROGEN : ALL
Info:         ERROR TOLERANCE : 1e-08
Info:          MAX ITERATIONS : 100
Info: RIGID WATER USING SETTLE ALGORITHM
Info: RANDOM NUMBER SEED     1743803913
Info: USE HYDROGEN BONDS?    NO
Info: Using AMBER format force field!
Info: AMBER PARM FILE        mobley_2043882.prmtop
Info: COORDINATE PDB         mobley_2043882.pdb
Info: Exclusions will be read from PARM file!
Info: SCNB (VDW SCALING)     2
Info: USING ARITHMETIC MEAN TO COMBINE L-J SIGMA PARAMETERS
Info: BINARY COORDINATES     mobley_2043882_equil.coor
Info: SUMMARY OF PARAMETERS:
Info: 6 BONDS
Info: 7 ANGLES
Info:   7 HARMONIC
Info:   0 COSINE-BASED
Info: 11 DIHEDRAL
Info: 0 IMPROPER
Info: 0 CROSSTERM
Info: 0 VDW
Info: 21 VDW_PAIRS
Info: 0 NBTHOLE_PAIRS
Info: To read alchdata from file: mobley_2043882.pdb
Info: To read alchflag data from column: 5
Info: STRUCTURE SUMMARY:
Info: 2912 ATOMS
Info: 2912 BONDS
Info: 45 ANGLES
Info: 87 DIHEDRALS
Info: 0 IMPROPERS
Info: 0 CROSSTERMS
Info: 3020 EXCLUSIONS
Info: 2903 RIGID BONDS
Info: ALCH: 0 ATOMS TO DISAPPEAR IN FINAL STATE
Info: ALCH: 23 ATOMS TO APPEAR IN FINAL STATE
Info: 5833 DEGREES OF FREEDOM
Info: 972 HYDROGEN GROUPS
Info: 4 ATOMS IN LARGEST HYDROGEN GROUP
Info: 972 MIGRATION GROUPS
Info: 4 ATOMS IN LARGEST MIGRATION GROUP
Info: TOTAL MASS = 17475.6 amu
Info: TOTAL CHARGE = 0.000100017 e
Info: MASS DENSITY = 0.945576 g/cm^3
Info: ATOM DENSITY = 0.0948847 atoms/A^3
Info: ADDED 0 IMPLICIT EXCLUSIONS
Info: NONBONDED TABLE R-SQUARED SPACING: 0.0625
Info: NONBONDED TABLE SIZE: 705 POINTS
Info: REDUCING NUMBER OF PATCHES TO IMPROVE LOAD BALANCE
Info: REMOVING COM VELOCITY -0.0824766 -0.145549 0.0487
Info: Use 3D box decompostion in PME FFT.
Info: Updated CUDA force table with 4096 elements.
Info: Updated CUDA LJ table with 6 x 6 elements.
Info: Found 26 unique exclusion lists needing 76 bytes
TCL: Running for 1500000 steps
ETITLE: TS BOND ANGLE DIHED IMPRP ELECT VDW BOUNDARY MISC KINETIC TOTAL TEMP POTENTIAL TOTALAVG TEMPAVG PRESSURE GPRESSURE VOLUME PRESSAVG GPRESSAVG
ENERGY: 0 4.3737 9.2801 5.9860 0.0000 -10255.8532 1274.8774 0.0000 0.0000 1724.4146 -7236.9214 297.5364 -8961.3360 -7236.9214 297.5364 -1328.0908 -1252.0885 30689.8661 -1328.0908 -1252.0885
ENERGY: 300000 1.9385 6.8694 7.1255 0.0000 -10743.0254 1555.9303 0.0000 0.0000 1738.4834 -7432.6782 299.9639 -9171.1616 -7335.3773 298.4295 1130.1562 1096.0736 29206.9606 -73.2808 -30.4880
ENERGY: 600000 1.0556 12.1375 6.7505 0.0000 -10466.1800 1358.0185 0.0000 0.0000 1846.7242 -7241.4938 318.6401 -9088.2179 -7328.1197 300.9369 -534.8538 -389.2872 29919.5299 -19.7619 38.2857
ENERGY: 900000 2.8006 13.2548 6.2240 0.0000 -10412.7783 1365.4313 0.0000 0.0000 1712.8205 -7312.2470 295.5359 -9025.0675 -7336.0883 300.5518 -369.5552 -308.4078 29896.6151 -112.4745 -53.9407
ENERGY: 1200000 2.0705 12.2776 6.0315 0.0000 -10622.2444 1446.7615 0.0000 0.0000 1719.1885 -7435.9148 296.6347 -9155.1033 -7350.8189 300.4218 75.6324 128.4072 29463.8532 -67.6772 -7.4082
ENERGY: 1500000 2.6933 6.6516 7.3183 0.0000 -10502.6001 1357.8071 0.0000 0.0000 1738.3193 -7389.8106 299.9356 -9128.1298 -7350.0077 301.0213 -497.8407 -369.5045 29674.7097 -165.8438 -94.3391
TCL: Running FEP window   2: Lambda1 0.05   Lambda2 0.1    [dLambda 0.05  ]
TCL: Setting parameter firsttimestep to 0
TCL: Setting parameter alchLambda to 0.05
Info: NONBONDED TABLE R-SQUARED SPACING: 0.0625
Info: NONBONDED TABLE SIZE: 705 POINTS
TCL: Setting parameter alchLambda2 to 0.1
Info: NONBONDED TABLE R-SQUARED SPACING: 0.0625
Info: NONBONDED TABLE SIZE: 705 POINTS
TCL: Running for 1500000 steps
ETITLE: TS BOND ANGLE DIHED IMPRP ELECT VDW BOUNDARY MISC KINETIC TOTAL TEMP POTENTIAL TOTALAVG TEMPAVG PRESSURE GPRESSURE VOLUME PRESSAVG GPRESSAVG
ENERGY: 0 2.6933 6.6516 7.3183 0.0000 -10502.5995 1363.6767 0.0000 0.0000 1737.4736 -7384.7860 299.7896 -9122.2596 -7384.7860 299.7896 -441.2257 -358.7842 29674.7097 -441.2257 -358.7842
ENERGY: 300000 5.2224 15.6203 6.4458 0.0000 -10561.6031 1472.2672 0.0000 0.0000 1812.0782 -7249.9692 312.6622 -9062.0474 -7331.3657 302.7196 754.9671 810.0903 29319.7748 41.8470 99.6725
ENERGY: 600000 5.6665 8.9417 6.4544 0.0000 -10408.6003 1344.3802 0.0000 0.0000 1793.8277 -7249.3299 309.5132 -9043.1576 -7330.3825 303.4566 -510.0773 -412.0990 29819.3181 11.6983 84.4371
ENERGY: 900000 6.3334 15.9137 7.0132 0.0000 -10715.2774 1503.3905 0.0000 0.0000 1762.6792 -7419.9475 304.1387 -9182.6267 -7328.2425 303.2360 167.7107 195.7352 29550.0980 55.6362 119.5892
ENERGY: 1200000 2.9140 10.7380 6.7009 0.0000 -10585.1173 1404.1690 0.0000 0.0000 1744.9755 -7415.6199 301.0840 -9160.5954 -7343.9692 301.3763 -41.5655 -23.5549 29644.3261 -58.0377 5.5309
ENERGY: 1500000 2.5509 17.2927 6.4433 0.0000 -10347.9301 1295.3669 0.0000 0.0000 1758.0685 -7268.2078 303.3432 -9026.2763 -7335.5625 301.8939 -1034.4476 -901.0997 30041.6235 -91.0975 -26.6474
TCL: Running FEP window   3: Lambda1 0.1    Lambda2 0.15000000000000002 [dLambda 0.05000000000000002]
TCL: Setting parameter firsttimestep to 0
TCL: Setting parameter alchLambda to 0.1
Info: NONBONDED TABLE R-SQUARED SPACING: 0.0625
Info: NONBONDED TABLE SIZE: 705 POINTS
TCL: Setting parameter alchLambda2 to 0.15000000000000002
Info: NONBONDED TABLE R-SQUARED SPACING: 0.0625
Info: NONBONDED TABLE SIZE: 705 POINTS
TCL: Running for 1500000 steps
ETITLE: TS BOND ANGLE DIHED IMPRP ELECT VDW BOUNDARY MISC KINETIC TOTAL TEMP POTENTIAL TOTALAVG TEMPAVG PRESSURE GPRESSURE VOLUME PRESSAVG GPRESSAVG
ENERGY: 0 2.5509 17.2927 6.4433 0.0000 -10347.9295 1297.8756 0.0000 0.0000 1757.2019 -7266.5652 303.1936 -9023.7670 -7266.5652 303.1936 -973.0551 -890.7488 30041.6235 -973.0551 -890.7488
ENERGY: 300000 2.0331 11.0077 6.5373 0.0000 -10543.2923 1424.5511 0.0000 0.0000 1759.9995 -7339.1637 303.6763 -9099.1632 -7333.7044 300.6120 -74.7088 4.9989 29967.1061 -240.6311 -194.0821
ENERGY: 600000 3.8785 11.8401 7.2934 0.0000 -10541.9194 1406.6636 0.0000 0.0000 1775.4963 -7336.7474 306.3502 -9112.2437 -7351.0916 300.3123 -338.8975 -247.7650 29972.6688 -97.7567 -36.9589
ENERGY: 900000 2.2146 6.4293 7.9186 0.0000 -10577.4113 1480.3782 0.0000 0.0000 1750.9462 -7329.5244 302.1143 -9080.4706 -7343.8185 300.0405 240.3706 270.3365 30277.6435 -129.4511 -68.9317
ENERGY: 1200000 5.5058 13.4881 7.6628 0.0000 -10543.6933 1489.9180 0.0000 0.0000 1747.5621 -7279.5565 301.5303 -9027.1186 -7341.6708 299.7041 884.9662 943.4746 29572.9690 -80.7163 -26.9835
ENERGY: 1500000 4.5583 13.5107 6.8801 0.0000 -10666.5055 1504.5926 0.0000 0.0000 1781.6833 -7355.2806 307.4177 -9136.9639 -7353.4406 299.7351 375.3375 485.0906 29750.1339 -24.6620 31.0900
TCL: Running FEP window   4: Lambda1 0.15000000000000002 Lambda2 0.2    [dLambda 0.04999999999999999]
TCL: Setting parameter firsttimestep to 0
TCL: Setting parameter alchLambda to 0.15000000000000002
Info: NONBONDED TABLE R-SQUARED SPACING: 0.0625
Info: NONBONDED TABLE SIZE: 705 POINTS
TCL: Setting parameter alchLambda2 to 0.2
Info: NONBONDED TABLE R-SQUARED SPACING: 0.0625
Info: NONBONDED TABLE SIZE: 705 POINTS
TCL: Running for 1500000 steps
ETITLE: TS BOND ANGLE DIHED IMPRP ELECT VDW BOUNDARY MISC KINETIC TOTAL TEMP POTENTIAL TOTALAVG TEMPAVG PRESSURE GPRESSURE VOLUME PRESSAVG GPRESSAVG
ENERGY: 0 4.5584 13.5107 6.8801 0.0000 -10666.5057 1506.3398 0.0000 0.0000 1780.7911 -7354.4257 307.2638 -9135.2168 -7354.4257 307.2638 410.2407 496.7553 29750.1339 410.2407 496.7553
ENERGY: 300000 3.5781 8.4377 9.0214 0.0000 -10543.8102 1411.3238 0.0000 0.0000 1776.0798 -7335.3695 306.4509 -9111.4493 -7348.8897 303.6949 -8.0895 122.5488 29564.9362 130.6449 211.7598
ENERGY: 600000 1.3698 10.0768 6.4708 0.0000 -10545.3574 1403.7615 0.0000 0.0000 1789.6526 -7334.0257 308.7928 -9123.6784 -7350.5423 303.0350 -109.6526 -82.2466 29703.8277 3.6293 73.4111
ENERGY: 900000 4.8144 11.2921 7.3586 0.0000 -10441.3588 1357.3968 0.0000 0.0000 1720.7698 -7339.7270 296.9075 -9060.4968 -7347.3570 300.8935 -635.6465 -608.0756 30228.0234 -9.0962 59.5833
ENERGY: 1200000 3.1385 8.0518 6.8858 0.0000 -10554.0323 1423.9021 0.0000 0.0000 1701.5916 -7410.4624 293.5984 -9112.0540 -7353.2705 300.3641 -63.4661 -4.9465 29920.5318 -10.7312 50.6667
ENERGY: 1500000 2.3306 8.8551 7.0915 0.0000 -10537.2920 1460.5071 0.0000 0.0000 1770.1847 -7288.3230 305.4337 -9058.5077 -7349.5652 301.5831 194.7459 335.9778 30408.6159 62.9364 124.5813
TCL: Running FEP window   5: Lambda1 0.2    Lambda2 0.25   [dLambda 0.04999999999999999]
TCL: Setting parameter firsttimestep to 0
TCL: Setting parameter alchLambda to 0.2
Info: NONBONDED TABLE R-SQUARED SPACING: 0.0625
Info: NONBONDED TABLE SIZE: 705 POINTS
TCL: Setting parameter alchLambda2 to 0.25
Info: NONBONDED TABLE R-SQUARED SPACING: 0.0625
Info: NONBONDED TABLE SIZE: 705 POINTS
TCL: Running for 1500000 steps
ETITLE: TS BOND ANGLE DIHED IMPRP ELECT VDW BOUNDARY MISC KINETIC TOTAL TEMP POTENTIAL TOTALAVG TEMPAVG PRESSURE GPRESSURE VOLUME PRESSAVG GPRESSAVG
ENERGY: 0 2.3306 8.8551 7.0915 0.0000 -10537.2918 1461.1468 0.0000 0.0000 1769.3162 -7288.5515 305.2839 -9057.8678 -7288.5515 305.2839 251.5978 341.4477 30408.6159 251.5978 341.4477
ENERGY: 300000 3.7432 12.3115 7.0593 0.0000 -10457.1453 1341.4815 0.0000 0.0000 1730.5132 -7362.0365 298.5887 -9092.5497 -7322.1033 300.6489 -788.2628 -761.6000 29901.0109 159.9691 201.8993
ENERGY: 600000 2.2989 15.0431 6.2916 0.0000 -10408.6561 1341.9245 0.0000 0.0000 1733.8213 -7309.2767 299.1595 -9043.0979 -7332.2819 299.6739 -416.5243 -372.3569 29878.6514 -20.3355 26.3831
ENERGY: 900000 2.1928 20.3904 6.4314 0.0000 -10634.1987 1532.2557 0.0000 0.0000 1774.0470 -7298.8814 306.1001 -9072.9285 -7318.3504 300.2042 942.6541 1041.5080 29787.0536 123.8464 176.1674
ENERGY: 1200000 4.3807 8.5453 6.8240 0.0000 -10715.6480 1540.7568 0.0000 0.0000 1763.4759 -7391.6653 304.2762 -9155.1412 -7319.4240 300.8369 1140.3817 1186.7446 29241.4470 93.9640 150.6131
ENERGY: 1500000 8.6649 18.7471 7.2019 0.0000 -10692.2995 1513.6131 0.0000 0.0000 1685.3563 -7458.7161 290.7972 -9144.0724 -7321.1313 301.2398 397.6457 422.8401 29763.7094 42.7602 100.0383
TCL: Running FEP window   6: Lambda1 0.25   Lambda2 0.3    [dLambda 0.04999999999999999]
TCL: Setting parameter firsttimestep to 0
TCL: Setting parameter alchLambda to 0.25
Info: NONBONDED TABLE R-SQUARED SPACING: 0.0625
Info: NONBONDED TABLE SIZE: 705 POINTS
TCL: Setting parameter alchLambda2 to 0.3
Info: NONBONDED TABLE R-SQUARED SPACING: 0.0625
Info: NONBONDED TABLE SIZE: 705 POINTS
TCL: Running for 1500000 steps
ETITLE: TS BOND ANGLE DIHED IMPRP ELECT VDW BOUNDARY MISC KINETIC TOTAL TEMP POTENTIAL TOTALAVG TEMPAVG PRESSURE GPRESSURE VOLUME PRESSAVG GPRESSAVG
ENERGY: 0 8.6650 18.7471 7.2019 0.0000 -10692.2997 1514.4450 0.0000 0.0000 1684.4813 -7458.7594 290.6462 -9143.2406 -7458.7594 290.6462 357.6746 427.0755 29763.7094 357.6746 427.0755
ENERGY: 300000 1.1456 9.3344 7.2056 0.0000 -10373.5418 1358.0700 0.0000 0.0000 1750.0962 -7247.6900 301.9676 -8997.7862 -7358.0150 298.4831 -206.2140 -171.6637 30035.6086 -87.6755 -39.2515
ENERGY: 600000 3.8128 13.3521 6.6968 0.0000 -10517.0310 1433.9171 0.0000 0.0000 1760.4991 -7298.7531 303.7625 -9059.2522 -7346.4951 299.8425 -13.9983 42.9482 30139.2772 -81.7761 -16.9712
ENERGY: 900000 1.8469 9.5797 6.3885 0.0000 -10587.0767 1452.4440 0.0000 0.0000 1786.3805 -7330.4370 308.2282 -9116.8175 -7347.0546 301.5435 106.7311 127.1550 30119.6901 -93.4010 -36.9315
ENERGY: 1200000 0.7438 13.8567 6.9500 0.0000 -10694.1702 1505.6443 0.0000 0.0000 1718.7949 -7448.1806 296.5667 -9166.9755 -7350.4416 302.2704 469.8157 573.0502 29430.0568 -32.7577 24.6961
ENERGY: 1500000 1.5054 8.6076 6.9821 0.0000 -10519.8235 1404.8186 0.0000 0.0000 1698.0865 -7399.8233 292.9937 -9097.9098 -7352.7617 302.0173 -164.5403 -68.3352 29876.7409 42.6406 105.7401
TCL: Running FEP window   7: Lambda1 0.3    Lambda2 0.35   [dLambda 0.04999999999999999]
TCL: Setting parameter firsttimestep to 0
TCL: Setting parameter alchLambda to 0.3
Info: NONBONDED TABLE R-SQUARED SPACING: 0.0625
Info: NONBONDED TABLE SIZE: 705 POINTS
TCL: Setting parameter alchLambda2 to 0.35
Info: NONBONDED TABLE R-SQUARED SPACING: 0.0625
Info: NONBONDED TABLE SIZE: 705 POINTS
TCL: Running for 1500000 steps
ETITLE: TS BOND ANGLE DIHED IMPRP ELECT VDW BOUNDARY MISC KINETIC TOTAL TEMP POTENTIAL TOTALAVG TEMPAVG PRESSURE GPRESSURE VOLUME PRESSAVG GPRESSAVG
ENERGY: 0 1.5054 8.6076 6.9821 0.0000 -10519.8249 1403.9876 0.0000 0.0000 1697.2660 -7401.4762 292.8521 -9098.7422 -7401.4762 292.8521 -143.7661 -70.8023 29876.7409 -143.7661 -70.8023
ENERGY: 300000 5.8103 13.9061 5.8197 0.0000 -10490.4409 1398.1933 0.0000 0.0000 1747.0987 -7319.6128 301.4504 -9066.7115 -7341.8446 300.0523 -104.7610 -29.2959 29824.1213 142.7686 199.9417
ENERGY: 600000 4.9076 10.5466 6.3094 0.0000 -10566.5200 1424.1459 0.0000 0.0000 1743.7076 -7376.9029 300.8653 -9120.6105 -7326.9628 302.0006 -300.6208 -218.5127 29879.9967 64.6631 113.3695
ENERGY: 900000 3.7680 11.9311 7.0495 0.0000 -10481.5571 1371.8165 0.0000 0.0000 1724.6275 -7362.3645 297.5731 -9086.9920 -7335.3542 301.2354 -430.5324 -406.7308 29891.9766 6.3351 59.2526
ENERGY: 1200000 5.6842 9.0590 6.5929 0.0000 -10415.9076 1319.8351 0.0000 0.0000 1754.5666 -7320.1699 302.7389 -9074.7365 -7345.8331 301.2537 -658.0329 -644.7633 29963.5851 -120.4444 -71.0009
ENERGY: 1500000 3.5688 13.5570 7.5854 0.0000 -10394.2272 1306.4233 0.0000 0.0000 1714.3490 -7348.7436 295.7997 -9063.0926 -7342.1719 300.9458 -740.2453 -745.1279 29823.8999 -195.3970 -150.6599
TCL: Running FEP window   8: Lambda1 0.35   Lambda2 0.39999999999999997 [dLambda 0.04999999999999999]
TCL: Setting parameter firsttimestep to 0
TCL: Setting parameter alchLambda to 0.35
Info: NONBONDED TABLE R-SQUARED SPACING: 0.0625
Info: NONBONDED TABLE SIZE: 705 POINTS
TCL: Setting parameter alchLambda2 to 0.39999999999999997
Info: NONBONDED TABLE R-SQUARED SPACING: 0.0625
Info: NONBONDED TABLE SIZE: 705 POINTS
TCL: Running for 1500000 steps
ETITLE: TS BOND ANGLE DIHED IMPRP ELECT VDW BOUNDARY MISC KINETIC TOTAL TEMP POTENTIAL TOTALAVG TEMPAVG PRESSURE GPRESSURE VOLUME PRESSAVG GPRESSAVG
ENERGY: 0 3.5688 13.5570 7.5854 0.0000 -10394.2264 1307.8406 0.0000 0.0000 1713.4754 -7348.1992 295.6489 -9061.6746 -7348.1992 295.6489 -784.5920 -726.4415 29823.8999 -784.5920 -726.4415
ENERGY: 300000 3.2463 12.9676 6.3669 0.0000 -10544.6801 1415.7972 0.0000 0.0000 1710.1880 -7396.1141 295.0817 -9106.3021 -7338.2329 297.3194 -159.2134 -108.8240 29907.7184 -303.5855 -253.6182
ENERGY: 600000 2.5177 10.4369 6.3357 0.0000 -10447.9452 1398.7624 0.0000 0.0000 1726.5500 -7303.3425 297.9048 -9029.8925 -7324.1123 297.3247 -42.1197 30.5691 29962.8211 -327.3828 -268.2250
ENERGY: 900000 3.0829 20.8338 6.6310 0.0000 -10512.7128 1422.8915 0.0000 0.0000 1772.7342 -7286.5395 305.8736 -9059.2737 -7329.2509 298.5062 167.7024 197.0736 29814.9105 -176.3529 -115.1159
ENERGY: 1200000 2.6955 12.8660 6.3591 0.0000 -10556.4474 1430.6268 0.0000 0.0000 1757.0476 -7346.8524 303.1670 -9103.9000 -7336.0790 299.4948 -200.4430 -129.8558 29879.9206 -180.6417 -120.1335
ENERGY: 1500000 2.5470 13.6819 6.6249 0.0000 -10456.6422 1395.3928 0.0000 0.0000 1773.8557 -7264.5399 306.0671 -9038.3957 -7329.9586 300.6023 -395.0823 -315.3263 30477.3410 -197.7015 -134.4148
TCL: Running FEP window   9: Lambda1 0.39999999999999997 Lambda2 0.44999999999999996 [dLambda 0.04999999999999999]
TCL: Setting parameter firsttimestep to 0
TCL: Setting parameter alchLambda to 0.39999999999999997
Info: NONBONDED TABLE R-SQUARED SPACING: 0.0625
Info: NONBONDED TABLE SIZE: 705 POINTS
TCL: Setting parameter alchLambda2 to 0.44999999999999996
Info: NONBONDED TABLE R-SQUARED SPACING: 0.0625
Info: NONBONDED TABLE SIZE: 705 POINTS
TCL: Running for 1500000 steps
ETITLE: TS BOND ANGLE DIHED IMPRP ELECT VDW BOUNDARY MISC KINETIC TOTAL TEMP POTENTIAL TOTALAVG TEMPAVG PRESSURE GPRESSURE VOLUME PRESSAVG GPRESSAVG
ENERGY: 0 2.5470 13.6819 6.6249 0.0000 -10456.6432 1396.1818 0.0000 0.0000 1773.0142 -7264.5934 305.9219 -9037.6075 -7264.5934 305.9219 -394.6843 -305.5025 30477.3410 -394.6843 -305.5025
ENERGY: 300000 3.7829 11.7131 6.2615 0.0000 -10613.9693 1454.3954 0.0000 0.0000 1712.4797 -7425.3367 295.4771 -9137.8164 -7340.0438 302.9557 129.3056 193.9095 29602.4828 -169.3263 -104.2703
ENERGY: 600000 2.7940 10.2901 5.7333 0.0000 -10483.6697 1442.1471 0.0000 0.0000 1720.2393 -7302.4659 296.8160 -9022.7052 -7345.0191 299.7436 225.4514 327.2744 29826.8616 -67.7807 -0.6618
ENERGY: 900000 4.2437 15.2456 7.1475 0.0000 -10455.4330 1412.0505 0.0000 0.0000 1761.7561 -7254.9895 303.9794 -9016.7456 -7328.7444 299.2660 -184.9693 -92.9999 30161.8147 -72.9745 -6.2256
ENERGY: 1200000 3.3852 10.0868 5.9162 0.0000 -10414.5398 1365.1940 0.0000 0.0000 1712.9049 -7317.0525 295.5505 -9029.9575 -7340.6760 298.3357 -256.0609 -232.9384 29999.5295 -118.9222 -55.3841
ENERGY: 1500000 2.1334 10.6928 6.2871 0.0000 -10398.6722 1380.3465 0.0000 0.0000 1752.3355 -7246.8770 302.3540 -8999.2125 -7329.1385 298.6870 -478.4166 -386.9632 30465.2964 -223.8709 -157.5873
TCL: Running FEP window  10: Lambda1 0.44999999999999996 Lambda2 0.49999999999999994 [dLambda 0.04999999999999999]
TCL: Setting parameter firsttimestep to 0
TCL: Setting parameter alchLambda to 0.44999999999999996
Info: NONBONDED TABLE R-SQUARED SPACING: 0.0625
Info: NONBONDED TABLE SIZE: 705 POINTS
TCL: Setting parameter alchLambda2 to 0.49999999999999994
Info: NONBONDED TABLE R-SQUARED SPACING: 0.0625
Info: NONBONDED TABLE SIZE: 705 POINTS
TCL: Running for 1500000 steps
ETITLE: TS BOND ANGLE DIHED IMPRP ELECT VDW BOUNDARY MISC KINETIC TOTAL TEMP POTENTIAL TOTALAVG TEMPAVG PRESSURE GPRESSURE VOLUME PRESSAVG GPRESSAVG
ENERGY: 0 2.1334 10.6928 6.2871 0.0000 -10398.6733 1380.2032 0.0000 0.0000 1751.4329 -7247.9239 302.1982 -8999.3568 -7247.9239 302.1982 -473.0080 -381.6063 30465.2964 -473.0080 -381.6063
ENERGY: 300000 5.1587 13.4151 7.2848 0.0000 -10454.7953 1341.0098 0.0000 0.0000 1765.1151 -7322.8119 304.5590 -9087.9269 -7311.5608 299.8449 -642.2687 -540.7378 29867.4700 -213.0672 -123.4333
ENERGY: 600000 2.9634 11.3835 6.0436 0.0000 -10584.8039 1463.0480 0.0000 0.0000 1702.1171 -7399.2482 293.6891 -9101.3653 -7340.2438 298.1629 140.0323 304.7235 29860.8171 -209.3429 -121.0403
ENERGY: 900000 3.8195 11.0547 6.3705 0.0000 -10522.1681 1393.1425 0.0000 0.0000 1788.3157 -7319.4653 308.5621 -9107.7810 -7346.3235 298.1604 -371.0798 -283.0943 30046.1569 -202.5761 -112.4059
ENERGY: 1200000 2.6932 8.0014 7.7225 0.0000 -10573.7300 1509.4363 0.0000 0.0000 1693.8499 -7352.0268 292.2627 -9045.8767 -7342.6216 298.1444 1332.3695 1379.0583 29138.9883 -76.0048 9.0963
ENERGY: 1500000 2.0757 10.8768 6.9148 0.0000 -10505.4045 1423.9473 0.0000 0.0000 1809.1892 -7252.4006 312.1637 -9061.5898 -7339.6458 298.8231 294.7774 373.1601 29740.6633 -65.4797 20.3435
TCL: Running FEP window  11: Lambda1 0.49999999999999994 Lambda2 0.5499999999999999 [dLambda 0.04999999999999999]
TCL: Setting parameter firsttimestep to 0
TCL: Setting parameter alchLambda to 0.49999999999999994
Info: NONBONDED TABLE R-SQUARED SPACING: 0.0625
Info: NONBONDED TABLE SIZE: 705 POINTS
TCL: Setting parameter alchLambda2 to 0.5499999999999999
Info: NONBONDED TABLE R-SQUARED SPACING: 0.0625
Info: NONBONDED TABLE SIZE: 705 POINTS
TCL: Running for 1500000 steps
ETITLE: TS BOND ANGLE DIHED IMPRP ELECT VDW BOUNDARY MISC KINETIC TOTAL TEMP POTENTIAL TOTALAVG TEMPAVG PRESSURE GPRESSURE VOLUME PRESSAVG GPRESSAVG
ENERGY: 0 2.0757 10.8768 6.9148 0.0000 -10505.4040 1423.8312 0.0000 0.0000 1808.3146 -7253.3908 312.0128 -9061.7054 -7253.3908 312.0128 286.3417 381.3273 29740.6633 286.3417 381.3273
ENERGY: 300000 2.3340 10.4655 6.4487 0.0000 -10450.6745 1338.6237 0.0000 0.0000 1717.7103 -7375.0924 296.3796 -9092.8027 -7312.8876 301.3518 -892.7491 -794.7631 30431.6982 -102.6649 -22.1203
ENERGY: 600000 5.2251 15.4223 6.5293 0.0000 -10418.5610 1329.2269 0.0000 0.0000 1767.2826 -7294.8748 304.9330 -9062.1574 -7333.9096 301.0868 -761.1984 -653.3214 29948.2582 -293.9868 -208.6955
ENERGY: 900000 1.0647 9.7181 7.0159 0.0000 -10723.0401 1556.3423 0.0000 0.0000 1758.7974 -7390.1017 303.4689 -9148.8991 -7347.0443 301.2354 1045.2076 1184.0656 29552.6835 -162.4724 -77.0311
ENERGY: 1200000 4.3730 10.5559 6.3775 0.0000 -10584.0554 1426.0943 0.0000 0.0000 1742.0107 -7394.6440 300.5725 -9136.6547 -7343.0743 301.1806 192.8568 184.6491 29532.8981 -44.5531 28.5672
ENERGY: 1500000 3.5194 10.7931 6.8813 0.0000 -10461.7081 1369.5441 0.0000 0.0000 1721.3631 -7349.6072 297.0099 -9070.9702 -7352.1994 300.6282 -441.2251 -385.3429 29836.8071 -45.2257 23.2033
TCL: Running FEP window  12: Lambda1 0.5499999999999999 Lambda2 0.6    [dLambda 0.050000000000000044]
TCL: Setting parameter firsttimestep to 0
TCL: Setting parameter alchLambda to 0.5499999999999999
Info: NONBONDED TABLE R-SQUARED SPACING: 0.0625
Info: NONBONDED TABLE SIZE: 705 POINTS
TCL: Setting parameter alchLambda2 to 0.6
Info: NONBONDED TABLE R-SQUARED SPACING: 0.0625
Info: NONBONDED TABLE SIZE: 705 POINTS
TCL: Running for 1500000 steps
ETITLE: TS BOND ANGLE DIHED IMPRP ELECT VDW BOUNDARY MISC KINETIC TOTAL TEMP POTENTIAL TOTALAVG TEMPAVG PRESSURE GPRESSURE VOLUME PRESSAVG GPRESSAVG
ENERGY: 0 3.5194 10.7931 6.8813 0.0000 -10461.7356 1369.5065 0.0000 0.0000 1720.5152 -7350.5201 296.8636 -9071.0353 -7350.5201 296.8636 -462.1171 -378.6627 29836.8071 -462.1171 -378.6627
ENERGY: 300000 3.2019 7.0739 7.1372 0.0000 -10595.7457 1491.0236 0.0000 0.0000 1723.1048 -7364.2043 297.3104 -9087.3092 -7364.5990 298.8404 387.9018 507.6479 30095.2309 6.2529 88.7819
ENERGY: 600000 1.3400 15.1341 6.4275 0.0000 -10551.9743 1427.8720 0.0000 0.0000 1723.5720 -7377.6288 297.3910 -9101.2008 -7365.7354 299.6913 297.7462 389.7125 29361.8091 -6.1118 64.4350
ENERGY: 900000 3.5093 12.0207 6.5533 0.0000 -10361.3479 1323.0621 0.0000 0.0000 1780.9658 -7235.2366 307.2939 -9016.2025 -7348.6435 299.5264 -879.7344 -788.9561 30749.5650 -224.7888 -148.5052
ENERGY: 1200000 3.6683 13.3643 6.5424 0.0000 -10410.2497 1336.7970 0.0000 0.0000 1772.8492 -7277.0285 305.8935 -9049.8776 -7348.9281 299.9843 -560.7127 -550.6236 29795.7285 -217.8549 -148.1466
ENERGY: 1500000 4.6366 11.9985 6.2675 0.0000 -10616.6837 1477.3094 0.0000 0.0000 1767.8048 -7348.6669 305.0231 -9116.4717 -7351.6143 299.9137 632.0056 632.7402 29586.7287 -126.0501 -60.9696
TCL: Running FEP window  13: Lambda1 0.6    Lambda2 0.65   [dLambda 0.050000000000000044]
TCL: Setting parameter firsttimestep to 0
TCL: Setting parameter alchLambda to 0.6
Info: NONBONDED TABLE R-SQUARED SPACING: 0.0625
Info: NONBONDED TABLE SIZE: 705 POINTS
TCL: Setting parameter alchLambda2 to 0.65
Info: NONBONDED TABLE R-SQUARED SPACING: 0.0625
Info: NONBONDED TABLE SIZE: 705 POINTS
TCL: Running for 1500000 steps
ETITLE: TS BOND ANGLE DIHED IMPRP ELECT VDW BOUNDARY MISC KINETIC TOTAL TEMP POTENTIAL TOTALAVG TEMPAVG PRESSURE GPRESSURE VOLUME PRESSAVG GPRESSAVG
ENERGY: 0 4.6366 11.9985 6.2675 0.0000 -10616.6774 1476.8835 0.0000 0.0000 1766.9219 -7349.9694 304.8708 -9116.8913 -7349.9694 304.8708 566.6565 635.0941 29586.7287 566.6565 635.0941
ENERGY: 300000 2.1928 10.8157 5.9111 0.0000 -10499.7701 1453.7885 0.0000 0.0000 1762.3492 -7264.7128 304.0818 -9027.0621 -7332.9611 301.8808 573.7847 638.1489 29950.6079 361.5350 411.1488
ENERGY: 600000 1.8275 10.5997 6.2435 0.0000 -10532.6760 1385.0741 0.0000 0.0000 1699.2431 -7429.6880 293.1932 -9128.9311 -7362.6079 299.9685 -241.1820 -109.4053 29605.6298 217.9011 283.5127
ENERGY: 900000 0.8815 12.3983 7.1066 0.0000 -10718.7812 1527.2294 0.0000 0.0000 1723.5146 -7447.6507 297.3811 -9171.1653 -7362.0651 301.5142 748.1289 776.4375 29803.4851 155.1790 212.0768
ENERGY: 1200000 2.7028 13.5360 6.7239 0.0000 -10552.2413 1422.2212 0.0000 0.0000 1717.5965 -7389.4609 296.3600 -9107.0574 -7375.8578 300.3163 -170.3671 -78.1762 30252.7797 63.5850 125.8014
ENERGY: 1500000 4.0754 9.8045 7.6168 0.0000 -10512.3809 1395.3062 0.0000 0.0000 1794.4774 -7301.1007 309.6253 -9095.5780 -7364.5231 300.6699 -470.0506 -381.2962 30205.1632 -39.5395 29.5215
TCL: Running FEP window  14: Lambda1 0.65   Lambda2 0.7000000000000001 [dLambda 0.050000000000000044]
TCL: Setting parameter firsttimestep to 0
TCL: Setting parameter alchLambda to 0.65
Info: NONBONDED TABLE R-SQUARED SPACING: 0.0625
Info: NONBONDED TABLE SIZE: 705 POINTS
TCL: Setting parameter alchLambda2 to 0.7000000000000001
Info: NONBONDED TABLE R-SQUARED SPACING: 0.0625
Info: NONBONDED TABLE SIZE: 705 POINTS
TCL: Running for 1500000 steps
ETITLE: TS BOND ANGLE DIHED IMPRP ELECT VDW BOUNDARY MISC KINETIC TOTAL TEMP POTENTIAL TOTALAVG TEMPAVG PRESSURE GPRESSURE VOLUME PRESSAVG GPRESSAVG
ENERGY: 0 4.0754 9.8045 7.6168 0.0000 -10512.5677 1395.3337 0.0000 0.0000 1793.5841 -7302.1533 309.4711 -9095.7373 -7302.1533 309.4711 -456.7734 -370.8800 30205.1632 -456.7734 -370.8800
ENERGY: 300000 1.7798 11.2213 6.2640 0.0000 -10559.0244 1429.0847 0.0000 0.0000 1775.0048 -7335.6698 306.2654 -9110.6746 -7311.2997 306.1489 -69.1428 -16.4240 30237.0579 4.5442 57.4158
ENERGY: 600000 1.9786 8.8358 6.3823 0.0000 -10448.4771 1365.8437 0.0000 0.0000 1740.4474 -7324.9892 300.3028 -9065.4367 -7329.2575 303.3273 -225.8595 -171.5933 30209.4408 19.5415 77.0714
ENERGY: 900000 1.1859 9.6316 6.0466 0.0000 -10572.2768 1456.3731 0.0000 0.0000 1754.0677 -7344.9720 302.6528 -9099.0396 -7337.9257 302.4907 423.3981 499.0010 29838.7994 -6.9589 56.6693
ENERGY: 1200000 1.9128 8.8476 7.8163 0.0000 -10526.5989 1434.2737 0.0000 0.0000 1756.9247 -7316.8238 303.1458 -9073.7485 -7348.3183 301.8455 218.5326 338.5650 29774.5469 2.2601 72.1948
ENERGY: 1500000 2.3610 11.5346 7.2428 0.0000 -10528.4256 1369.7248 0.0000 0.0000 1775.6331 -7361.9292 306.3738 -9137.5623 -7349.3873 302.0912 -617.7519 -555.4744 30060.2016 -30.3536 37.2839
TCL: Running FEP window  15: Lambda1 0.7000000000000001 Lambda2 0.7500000000000001 [dLambda 0.050000000000000044]
TCL: Setting parameter firsttimestep to 0
TCL: Setting parameter alchLambda to 0.7000000000000001
Info: NONBONDED TABLE R-SQUARED SPACING: 0.0625
Info: NONBONDED TABLE SIZE: 705 POINTS
TCL: Setting parameter alchLambda2 to 0.7500000000000001
Info: NONBONDED TABLE R-SQUARED SPACING: 0.0625
Info: NONBONDED TABLE SIZE: 705 POINTS
TCL: Running for 1500000 steps
ETITLE: TS BOND ANGLE DIHED IMPRP ELECT VDW BOUNDARY MISC KINETIC TOTAL TEMP POTENTIAL TOTALAVG TEMPAVG PRESSURE GPRESSURE VOLUME PRESSAVG GPRESSAVG
ENERGY: 0 2.3610 11.5346 7.2428 0.0000 -10529.8632 1369.5069 0.0000 0.0000 1774.7850 -7364.4327 306.2275 -9139.2178 -7364.4327 306.2275 -617.2644 -548.8131 30060.2016 -617.2644 -548.8131
ENERGY: 300000 1.3367 11.0613 6.6561 0.0000 -10406.3943 1303.2402 0.0000 0.0000 1733.6534 -7350.4467 299.1305 -9084.1001 -7332.9335 300.6108 -538.0409 -543.9430 29811.8887 -297.8766 -268.3498
ENERGY: 600000 3.8098 9.9385 6.4103 0.0000 -10706.1553 1482.6675 0.0000 0.0000 1798.4954 -7404.8339 310.3186 -9203.3293 -7328.7526 302.9669 386.9447 438.1498 29703.8757 -37.3047 7.6999
ENERGY: 900000 3.0239 9.8498 6.5284 0.0000 -10549.1943 1371.1740 0.0000 0.0000 1728.0660 -7430.5520 298.1664 -9158.6181 -7359.5730 301.7236 -522.1847 -464.6191 30004.4010 -77.4084 -25.9383
ENERGY: 1200000 6.2960 15.5840 9.2728 0.0000 -10402.9391 1286.1372 0.0000 0.0000 1729.8152 -7355.8338 298.4682 -9085.6490 -7365.5147 301.2530 -1359.6119 -1219.0948 30299.5030 -191.0212 -133.2688
ENERGY: 1500000 1.4696 8.6747 6.0029 0.0000 -10537.7352 1434.6630 0.0000 0.0000 1757.8640 -7329.0609 303.3079 -9086.9249 -7367.4685 301.0214 241.3999 277.4239 29996.4184 -166.8196 -105.2012
TCL: Running FEP window  16: Lambda1 0.7500000000000001 Lambda2 0.8000000000000002 [dLambda 0.050000000000000044]
TCL: Setting parameter firsttimestep to 0
TCL: Setting parameter alchLambda to 0.7500000000000001
Info: NONBONDED TABLE R-SQUARED SPACING: 0.0625
Info: NONBONDED TABLE SIZE: 705 POINTS
TCL: Setting parameter alchLambda2 to 0.8000000000000002
Info: NONBONDED TABLE R-SQUARED SPACING: 0.0625
Info: NONBONDED TABLE SIZE: 705 POINTS
TCL: Running for 1500000 steps
ETITLE: TS BOND ANGLE DIHED IMPRP ELECT VDW BOUNDARY MISC KINETIC TOTAL TEMP POTENTIAL TOTALAVG TEMPAVG PRESSURE GPRESSURE VOLUME PRESSAVG GPRESSAVG
ENERGY: 0 1.4696 8.6747 6.0029 0.0000 -10539.1207 1435.0816 0.0000 0.0000 1756.9896 -7330.9023 303.1570 -9087.8919 -7330.9023 303.1570 199.1304 288.2456 29996.4184 199.1304 288.2456
ENERGY: 300000 4.6413 10.7673 6.5983 0.0000 -10501.2816 1353.9288 0.0000 0.0000 1753.1001 -7372.2458 302.4859 -9125.3460 -7366.9714 298.7196 -493.9383 -358.2524 29837.2473 -11.8660 66.4497
ENERGY: 600000 4.7311 16.4554 7.4454 0.0000 -10555.0873 1439.4095 0.0000 0.0000 1726.8840 -7360.1620 297.9625 -9087.0460 -7385.5547 298.0262 -3.3016 119.6948 29897.2685 -65.2608 11.0997
ENERGY: 900000 3.6000 11.2709 9.2855 0.0000 -10476.5051 1325.5120 0.0000 0.0000 1728.2815 -7398.5552 298.2036 -9126.8367 -7376.5566 299.0125 -747.5143 -744.9503 29907.3326 -220.6070 -147.1748
ENERGY: 1200000 3.2257 10.7340 8.1768 0.0000 -10538.3984 1440.1945 0.0000 0.0000 1765.7806 -7310.2868 304.6738 -9076.0674 -7373.4563 298.7303 304.1720 337.2332 30029.1730 -229.8300 -157.1871
ENERGY: 1500000 2.3442 9.6752 6.4414 0.0000 -10618.9459 1436.6334 0.0000 0.0000 1756.8831 -7406.9686 303.1386 -9163.8517 -7385.9522 298.2943 -122.2871 -6.6612 29957.2575 -262.0939 -186.4769
TCL: Running FEP window  17: Lambda1 0.8000000000000002 Lambda2 0.8500000000000002 [dLambda 0.050000000000000044]
TCL: Setting parameter firsttimestep to 0
TCL: Setting parameter alchLambda to 0.8000000000000002
Info: NONBONDED TABLE R-SQUARED SPACING: 0.0625
Info: NONBONDED TABLE SIZE: 705 POINTS
TCL: Setting parameter alchLambda2 to 0.8500000000000002
Info: NONBONDED TABLE R-SQUARED SPACING: 0.0625
Info: NONBONDED TABLE SIZE: 705 POINTS
TCL: Running for 1500000 steps
ETITLE: TS BOND ANGLE DIHED IMPRP ELECT VDW BOUNDARY MISC KINETIC TOTAL TEMP POTENTIAL TOTALAVG TEMPAVG PRESSURE GPRESSURE VOLUME PRESSAVG GPRESSAVG
ENERGY: 0 2.3443 9.6752 6.4414 0.0000 -10620.2464 1436.6485 0.0000 0.0000 1756.0118 -7409.1252 302.9883 -9165.1370 -7409.1252 302.9883 -75.5397 4.7421 29957.2575 -75.5397 4.7421
ENERGY: 300000 4.8130 9.5841 6.5634 0.0000 -10410.1125 1313.3965 0.0000 0.0000 1763.1427 -7312.6128 304.2187 -9075.7554 -7343.3400 302.9168 -775.0075 -700.7153 29900.5045 -179.6810 -108.6333
ENERGY: 600000 2.8238 13.3977 7.5685 0.0000 -10670.4790 1504.8497 0.0000 0.0000 1688.6679 -7453.1714 291.3685 -9141.8392 -7356.4452 301.3195 501.2860 573.2863 29907.8942 -56.9480 -3.6098
ENERGY: 900000 4.3319 9.4023 7.3369 0.0000 -10488.3543 1396.2145 0.0000 0.0000 1713.0284 -7358.0403 295.5718 -9071.0687 -7345.5035 300.9701 -253.6713 -173.8834 30322.3794 -34.5203 23.1077
ENERGY: 1200000 2.8935 7.7365 6.6504 0.0000 -10679.9252 1470.4352 0.0000 0.0000 1773.4500 -7418.7595 305.9971 -9192.2096 -7348.1490 302.0322 310.6257 373.1130 29744.1608 29.2397 89.4286
ENERGY: 1500000 0.8718 8.8014 7.7553 0.0000 -10517.5482 1415.3770 0.0000 0.0000 1737.6284 -7347.1143 299.8164 -9084.7427 -7355.6025 302.0964 302.8500 330.9363 29624.5800 26.7011 85.0920
TCL: Running FEP window  18: Lambda1 0.8500000000000002 Lambda2 0.9000000000000002 [dLambda 0.050000000000000044]
TCL: Setting parameter firsttimestep to 0
TCL: Setting parameter alchLambda to 0.8500000000000002
Info: NONBONDED TABLE R-SQUARED SPACING: 0.0625
Info: NONBONDED TABLE SIZE: 705 POINTS
TCL: Setting parameter alchLambda2 to 0.9000000000000002
Info: NONBONDED TABLE R-SQUARED SPACING: 0.0625
Info: NONBONDED TABLE SIZE: 705 POINTS
TCL: Running for 1500000 steps
ETITLE: TS BOND ANGLE DIHED IMPRP ELECT VDW BOUNDARY MISC KINETIC TOTAL TEMP POTENTIAL TOTALAVG TEMPAVG PRESSURE GPRESSURE VOLUME PRESSAVG GPRESSAVG
ENERGY: 0 0.8718 8.8014 7.7553 0.0000 -10518.5251 1415.9570 0.0000 0.0000 1736.7420 -7348.3975 299.6634 -9085.1395 -7348.3975 299.6634 277.8162 351.2149 29624.5800 277.8162 351.2149
ENERGY: 300000 4.4684 11.0016 6.1260 0.0000 -10557.8748 1410.9319 0.0000 0.0000 1679.7835 -7445.5634 289.8356 -9125.3469 -7386.4710 297.2374 22.6223 99.5150 29863.1378 342.4477 375.4489
ENERGY: 600000 3.2848 9.8824 7.6935 0.0000 -10449.0398 1339.4962 0.0000 0.0000 1726.9388 -7361.7443 297.9719 -9088.6831 -7375.7069 298.0569 -634.2666 -576.2218 30186.0894 -71.7859 -23.3423
ENERGY: 900000 3.5541 13.0519 6.3190 0.0000 -10456.1799 1378.3543 0.0000 0.0000 1717.0319 -7337.8687 296.2626 -9054.9006 -7372.1243 298.3423 -420.5754 -370.8943 30166.7500 -261.7987 -218.1725
ENERGY: 1200000 2.5412 13.8307 6.7306 0.0000 -10551.4376 1440.5300 0.0000 0.0000 1760.5333 -7327.2718 303.7684 -9087.8051 -7362.3294 299.8355 472.4409 502.3722 29387.8544 -90.2249 -35.3245
ENERGY: 1500000 1.8356 12.4360 6.6229 0.0000 -10453.0282 1428.8551 0.0000 0.0000 1706.6898 -7296.5888 294.4781 -9003.2786 -7357.3763 299.4042 496.6586 658.2158 29746.0828 -74.4071 -13.6240
TCL: Running FEP window  19: Lambda1 0.9000000000000002 Lambda2 0.9500000000000003 [dLambda 0.050000000000000044]
TCL: Setting parameter firsttimestep to 0
TCL: Setting parameter alchLambda to 0.9000000000000002
Info: NONBONDED TABLE R-SQUARED SPACING: 0.0625
Info: NONBONDED TABLE SIZE: 705 POINTS
TCL: Setting parameter alchLambda2 to 0.9500000000000003
Info: NONBONDED TABLE R-SQUARED SPACING: 0.0625
Info: NONBONDED TABLE SIZE: 705 POINTS
TCL: Running for 1500000 steps
ETITLE: TS BOND ANGLE DIHED IMPRP ELECT VDW BOUNDARY MISC KINETIC TOTAL TEMP POTENTIAL TOTALAVG TEMPAVG PRESSURE GPRESSURE VOLUME PRESSAVG GPRESSAVG
ENERGY: 0 1.8356 12.4360 6.6229 0.0000 -10454.2020 1428.2106 0.0000 0.0000 1705.8092 -7299.2877 294.3262 -9005.0969 -7299.2877 294.3262 588.2453 658.5574 29746.0828 588.2453 658.5574
ENERGY: 300000 5.2364 18.2433 6.4996 0.0000 -10581.5781 1408.4791 0.0000 0.0000 1748.4550 -7394.6648 301.6844 -9143.1198 -7329.5440 298.5606 -277.2366 -274.8080 30162.6908 199.0458 231.8586
ENERGY: 600000 6.1812 10.9213 6.7573 0.0000 -10453.8770 1364.0773 0.0000 0.0000 1778.6709 -7287.2690 306.8980 -9065.9399 -7338.9053 301.0946 -196.4820 -195.2589 29830.7678 144.8263 176.9706
ENERGY: 900000 1.6029 11.3096 6.0369 0.0000 -10618.3489 1519.7787 0.0000 0.0000 1699.4437 -7380.1771 293.2278 -9079.6208 -7353.3626 299.5641 963.9669 1011.9781 29908.0404 151.6420 189.7883
ENERGY: 1200000 4.0307 12.0572 6.7748 0.0000 -10690.1412 1521.5068 0.0000 0.0000 1756.2472 -7389.5246 303.0289 -9145.7718 -7364.8437 299.0601 764.1656 815.3484 29783.8188 117.0578 155.1176
ENERGY: 1500000 2.1541 11.0844 7.1911 0.0000 -10434.8351 1348.0050 0.0000 0.0000 1746.0380 -7320.3626 301.2674 -9066.4006 -7360.5486 299.2993 -411.7160 -343.4260 30068.4461 2.4179 35.1307
TCL: Running FEP window  20: Lambda1 0.9500000000000003 Lambda2 1.0    [dLambda 0.04999999999999971]
TCL: Setting parameter firsttimestep to 0
TCL: Setting parameter alchLambda to 0.9500000000000003
Info: NONBONDED TABLE R-SQUARED SPACING: 0.0625
Info: NONBONDED TABLE SIZE: 705 POINTS
TCL: Setting parameter alchLambda2 to 1.0
Info: NONBONDED TABLE R-SQUARED SPACING: 0.0625
Info: NONBONDED TABLE SIZE: 705 POINTS
TCL: Running for 1500000 steps
ETITLE: TS BOND ANGLE DIHED IMPRP ELECT VDW BOUNDARY MISC KINETIC TOTAL TEMP POTENTIAL TOTALAVG TEMPAVG PRESSURE GPRESSURE VOLUME PRESSAVG GPRESSAVG
ENERGY: 0 2.1541 11.0844 7.1911 0.0000 -10435.4573 1347.9280 0.0000 0.0000 1745.1818 -7321.9178 301.1196 -9067.0997 -7321.9178 301.1196 -414.3724 -332.6578 30068.4461 -414.3724 -332.6578
ENERGY: 300000 3.1544 12.2115 6.7250 0.0000 -10548.0718 1434.5202 0.0000 0.0000 1729.3508 -7362.1098 298.3881 -9091.4606 -7328.2685 300.8722 212.2711 228.5913 29658.8577 -64.1628 8.2260
ENERGY: 600000 3.1248 7.3479 7.4446 0.0000 -10502.5053 1393.9447 0.0000 0.0000 1714.3987 -7376.2445 295.8082 -9090.6433 -7365.9580 297.5710 -145.9211 -144.0307 29938.6243 97.5092 158.9328
ENERGY: 900000 3.1012 8.6204 6.4773 0.0000 -10545.0055 1403.5009 0.0000 0.0000 1727.8616 -7395.4440 298.1312 -9123.3057 -7372.6568 297.6882 -114.0260 -63.2562 29868.4548 -41.2997 23.1226
ENERGY: 1200000 2.3332 9.2831 7.2069 0.0000 -10611.0664 1437.1101 0.0000 0.0000 1753.2928 -7401.8404 302.5191 -9155.1332 -7376.8107 298.1209 494.1635 533.2258 29292.8714 -41.2207 18.9372
ENERGY: 1500000 1.6054 10.3438 6.6853 0.0000 -10451.1589 1367.4537 0.0000 0.0000 1730.9044 -7334.1664 298.6562 -9065.0708 -7372.7304 297.8557 -223.6595 -194.8854 30280.9435 -55.5205 -1.8540
TCL: Exiting due to exit command.
