Info: SIMULATION PARAMETERS:
Info: TIMESTEP               2
Info: NUMBER OF STEPS        0
Info: STEPS PER CYCLE        10
Info: PERIODIC CELL BASIS 1  31.1411 0 0
Info: PERIODIC CELL BASIS 2  0 28.6239 0
Info: PERIODIC CELL BASIS 3  0 0 34.673
Info: PERIODIC CELL CENTER   0 0 0
Info: WRAPPING WATERS AROUND PERIODIC BOUNDARIES ON OUTPUT.
Info: WRAPPING ALL CLUSTERS AROUND PERIODIC BOUNDARIES ON OUTPUT.
Info: FIRST LDB TIMESTEP     50
Info: LAST LDB TIMESTEP     -1
Info: HOM BACKGROUND SCALING 1
Info: PME BACKGROUND SCALING 1
Info: MIN ATOMS PER PATCH    40
Info: EMPTY PATCH LOAD       40 ATOMS
Info: VELOCITY FILE          mobley_397645_equil.vel
Info: CENTER OF MASS MOVING INITIALLY? NO
Info: DIELECTRIC             1
Info: EXCLUDE                SCALED ONE-FOUR
Info: 1-4 ELECTROSTATICS SCALED BY 0.833333
Info: MODIFIED 1-4 VDW PARAMETERS WILL BE USED
Info: DCD FILENAME           mobley_397645_prod.dcd
Info: DCD FREQUENCY          100000
Info: DCD FIRST STEP         100000
Info: DCD FILE WILL CONTAIN UNIT CELL DATA
Info: XST FILENAME           mobley_397645_prod.xst
Info: XST FREQUENCY          100000
Info: NO VELOCITY DCD OUTPUT
Info: NO FORCE DCD OUTPUT
Info: OUTPUT FILENAME        mobley_397645_prod
Info: BINARY OUTPUT FILES WILL BE USED
Info: RESTART FILENAME       mobley_397645_prod.restart
Info: RESTART FREQUENCY      100000
Info: BINARY RESTART FILES WILL BE USED
Info: CUTOFF                 9
Info: PAIRLIST DISTANCE      11
Info: PAIRLIST SHRINK RATE   0.01
Info: PAIRLIST GROW RATE     0.01
Info: PAIRLIST TRIGGER       0.3
Info: PAIRLISTS PER CYCLE    2
Info: PAIRLISTS ENABLED
Info: MARGIN                 2
Info: HYDROGEN GROUP CUTOFF  2.5
Info: PATCH DIMENSION        15.5
Info: ENERGY OUTPUT STEPS    100000
Info: ENERGY EVALUATION STEPS    100000
Info: OUTPUT ENERGY PRECISION 4
Info: CROSSTERM ENERGY INCLUDED IN DIHEDRAL
Info: TIMING OUTPUT STEPS    1000000
Info: PRESSURE OUTPUT STEPS  100000
Info: ALCHEMICAL FEP ON
Info: FEP CURRENT LAMBDA VALUE     1
Info: FEP COMPARISON LAMBDA VALUE  0.95
Info: FEP INTRA-ALCHEMICAL NON-BONDED INTERACTIONS WILL BE RETAINED
Info: FEP INTRA-ALCHEMICAL BONDED INTERACTIONS WILL BE RETAINED
Info: FEP VDW SHIFTING COEFFICIENT 5
Info: FEP ELEC. ACTIVE FOR ANNIHILATED PARTICLES BETWEEN LAMBDA = 0 AND LAMBDA = 0.5
Info: FEP ELEC. ACTIVE FOR EXNIHILATED PARTICLES BETWEEN LAMBDA = 0.5 AND LAMBDA = 1
Info: FEP VDW ACTIVE FOR ANNIHILATED PARTICLES BETWEEN LAMBDA = 0 AND LAMBDA = 1
Info: FEP VDW ACTIVE FOR EXNIHILATED PARTICLES BETWEEN LAMBDA = 0 AND LAMBDA = 1
Info: FEP BOND ACTIVE FOR ANNIHILATED PARTICLES BETWEEN LAMBDA = 1 AND LAMBDA = 1
Info: FEP BOND ACTIVE FOR EXNIHILATED PARTICLES BETWEEN LAMBDA = 0 AND LAMBDA = 0
Info: LANGEVIN DYNAMICS ACTIVE
Info: LANGEVIN TEMPERATURE   300
Info: LANGEVIN USING BBK INTEGRATOR
Info: LANGEVIN DAMPING COEFFICIENT IS 1 INVERSE PS
Info: LANGEVIN DYNAMICS APPLIED TO HYDROGENS
Info: LANGEVIN PISTON PRESSURE CONTROL ACTIVE
Info:        TARGET PRESSURE IS 1.01325 BAR
Info:     OSCILLATION PERIOD IS 50 FS
Info:             DECAY TIME IS 25 FS
Info:     PISTON TEMPERATURE IS 300 K
Info:       PRESSURE CONTROL IS GROUP-BASED
Info:    INITIAL STRAIN RATE IS 0.00025267 0.00025267 0.00025267
Info:       CELL FLUCTUATION IS ISOTROPIC
Info: PARTICLE MESH EWALD (PME) ACTIVE
Info: PME TOLERANCE               1e-06
Info: PME EWALD COEFFICIENT       0.348832
Info: PME INTERPOLATION ORDER     4
Info: PME GRID DIMENSIONS         32 32 36
Info: PME MAXIMUM GRID SPACING    1
Info: PME CALCULATION WILL BE PERFORMED ON GPU
Info: FULL ELECTROSTATIC EVALUATION FREQUENCY      2
Info: USING VERLET I (r-RESPA) MTS SCHEME.
Info: C1 SPLITTING OF LONG RANGE ELECTROSTATICS
Info: PLACING ATOMS IN PATCHES BY HYDROGEN GROUPS
Info: RIGID BONDS TO HYDROGEN : ALL
Info:         ERROR TOLERANCE : 1e-08
Info:          MAX ITERATIONS : 100
Info: RIGID WATER USING SETTLE ALGORITHM
Info: RANDOM NUMBER SEED     1743866272
Info: USE HYDROGEN BONDS?    NO
Info: Using AMBER format force field!
Info: AMBER PARM FILE        mobley_397645.prmtop
Info: COORDINATE PDB         mobley_397645.pdb
Info: Exclusions will be read from PARM file!
Info: SCNB (VDW SCALING)     2
Info: USING ARITHMETIC MEAN TO COMBINE L-J SIGMA PARAMETERS
Info: BINARY COORDINATES     mobley_397645_equil.coor
Info: SUMMARY OF PARAMETERS:
Info: 11 BONDS
Info: 13 ANGLES
Info:   13 HARMONIC
Info:   0 COSINE-BASED
Info: 11 DIHEDRAL
Info: 0 IMPROPER
Info: 0 CROSSTERM
Info: 0 VDW
Info: 45 VDW_PAIRS
Info: 0 NBTHOLE_PAIRS
Info: To read alchdata from file: mobley_397645.pdb
Info: To read alchflag data from column: 5
Info: STRUCTURE SUMMARY:
Info: 2967 ATOMS
Info: 2967 BONDS
Info: 34 ANGLES
Info: 54 DIHEDRALS
Info: 0 IMPROPERS
Info: 0 CROSSTERMS
Info: 3040 EXCLUSIONS
Info: 2956 RIGID BONDS
Info: ALCH: 0 ATOMS TO DISAPPEAR IN FINAL STATE
Info: ALCH: 21 ATOMS TO APPEAR IN FINAL STATE
Info: 5945 DEGREES OF FREEDOM
Info: 993 HYDROGEN GROUPS
Info: 4 ATOMS IN LARGEST HYDROGEN GROUP
Info: 993 MIGRATION GROUPS
Info: 4 ATOMS IN LARGEST MIGRATION GROUP
Info: TOTAL MASS = 17841.9 amu
Info: TOTAL CHARGE = 0.00019994 e
Info: MASS DENSITY = 0.95862 g/cm^3
Info: ATOM DENSITY = 0.0959984 atoms/A^3
Info: ADDED 0 IMPLICIT EXCLUSIONS
Info: NONBONDED TABLE R-SQUARED SPACING: 0.0625
Info: NONBONDED TABLE SIZE: 705 POINTS
Info: REMOVING COM VELOCITY 0.113261 0.13869 0.0506785
Info: Use 3D box decompostion in PME FFT.
Info: Updated CUDA force table with 4096 elements.
Info: Updated CUDA LJ table with 9 x 9 elements.
Info: Found 20 unique exclusion lists needing 56 bytes
TCL: Running for 1500000 steps
ETITLE: TS BOND ANGLE DIHED IMPRP ELECT VDW BOUNDARY MISC KINETIC TOTAL TEMP POTENTIAL TOTALAVG TEMPAVG PRESSURE GPRESSURE VOLUME PRESSAVG GPRESSAVG
ENERGY: 0 2.3807 6.3146 8.6303 0.0000 -10601.7501 1361.5114 0.0000 0.0000 1770.3602 -7452.5529 299.7093 -9222.9131 -7452.5529 299.7093 -488.7495 -402.4607 30906.7679 -488.7495 -402.4607
ENERGY: 300000 0.8482 4.0621 5.0170 0.0000 -10792.3992 1491.9682 0.0000 0.0000 1808.2189 -7482.2848 306.1185 -9290.5037 -7515.9822 299.0237 821.8533 810.4726 30255.5931 153.4884 190.2428
ENERGY: 600000 8.7741 6.9676 11.3534 0.0000 -10686.3839 1371.7184 0.0000 0.0000 1743.2075 -7544.3629 295.1125 -9287.5704 -7520.1841 299.0732 -823.7975 -818.0849 30743.0096 -116.8704 -87.1789
ENERGY: 900000 4.7403 6.0917 5.8508 0.0000 -10630.2656 1396.2899 0.0000 0.0000 1790.8157 -7426.4773 303.1722 -9217.2930 -7511.1647 299.9690 -342.7785 -264.9883 30801.4176 -71.4135 -31.8517
ENERGY: 1200000 2.1580 7.1043 7.2121 0.0000 -10518.3663 1332.3605 0.0000 0.0000 1736.6356 -7432.8959 293.9999 -9169.5315 -7503.3876 299.1813 -650.8057 -596.7412 30574.9721 -144.5496 -106.2762
ENERGY: 1500000 6.6395 5.5246 7.8325 0.0000 -10653.0729 1366.1931 0.0000 0.0000 1775.9240 -7490.9592 300.6512 -9266.8832 -7508.3543 299.7337 -671.1427 -649.7759 30679.5616 -205.5888 -163.2088
TCL: Running FEP window   2: Lambda1 0.95   Lambda2 0.8999999999999999 [dLambda -0.050000000000000044]
TCL: Setting parameter firsttimestep to 0
TCL: Setting parameter alchLambda to 0.95
Info: NONBONDED TABLE R-SQUARED SPACING: 0.0625
Info: NONBONDED TABLE SIZE: 705 POINTS
TCL: Setting parameter alchLambda2 to 0.8999999999999999
Info: NONBONDED TABLE R-SQUARED SPACING: 0.0625
Info: NONBONDED TABLE SIZE: 705 POINTS
TCL: Running for 1500000 steps
ETITLE: TS BOND ANGLE DIHED IMPRP ELECT VDW BOUNDARY MISC KINETIC TOTAL TEMP POTENTIAL TOTALAVG TEMPAVG PRESSURE GPRESSURE VOLUME PRESSAVG GPRESSAVG
ENERGY: 0 6.6396 5.5246 7.8325 0.0000 -10651.6574 1366.6828 0.0000 0.0000 1775.0473 -7489.9306 300.5027 -9264.9779 -7489.9306 300.5027 -746.0820 -656.4605 30679.5616 -746.0820 -656.4605
ENERGY: 300000 3.4554 8.7879 5.2085 0.0000 -10605.7290 1389.2592 0.0000 0.0000 1752.5510 -7446.4670 296.6943 -9199.0179 -7470.9904 301.2876 -332.3677 -250.5624 30810.3971 -614.2894 -514.6062
ENERGY: 600000 1.9470 9.7093 2.8811 0.0000 -10585.4241 1368.5521 0.0000 0.0000 1745.8816 -7456.4531 295.5652 -9202.3347 -7471.8912 300.2199 -253.4936 -304.4733 30905.9643 -372.7803 -301.5940
ENERGY: 900000 3.2049 11.1903 5.9719 0.0000 -10851.3938 1453.3336 0.0000 0.0000 1821.9407 -7555.7524 308.4415 -9377.6931 -7476.3867 300.7981 -12.0386 22.2365 30248.1390 -314.9488 -238.7370
ENERGY: 1200000 3.5040 5.1423 5.5429 0.0000 -10736.2106 1446.1625 0.0000 0.0000 1820.9349 -7454.9240 308.2712 -9275.8590 -7476.3343 300.6342 38.8322 47.9811 30657.2780 -259.3577 -190.8552
ENERGY: 1500000 2.3123 6.4653 5.4058 0.0000 -10818.1302 1392.9317 0.0000 0.0000 1802.9292 -7608.0858 305.2230 -9411.0150 -7497.3679 299.4847 -568.3083 -480.3895 30397.6706 -306.1656 -238.3731
TCL: Running FEP window   3: Lambda1 0.8999999999999999 Lambda2 0.8499999999999999 [dLambda -0.050000000000000044]
TCL: Setting parameter firsttimestep to 0
TCL: Setting parameter alchLambda to 0.8999999999999999
Info: NONBONDED TABLE R-SQUARED SPACING: 0.0625
Info: NONBONDED TABLE SIZE: 705 POINTS
TCL: Setting parameter alchLambda2 to 0.8499999999999999
Info: NONBONDED TABLE R-SQUARED SPACING: 0.0625
Info: NONBONDED TABLE SIZE: 705 POINTS
TCL: Running for 1500000 steps
ETITLE: TS BOND ANGLE DIHED IMPRP ELECT VDW BOUNDARY MISC KINETIC TOTAL TEMP POTENTIAL TOTALAVG TEMPAVG PRESSURE GPRESSURE VOLUME PRESSAVG GPRESSAVG
ENERGY: 0 2.3123 6.4653 5.4058 0.0000 -10816.2151 1392.0287 0.0000 0.0000 1802.0680 -7607.9350 305.0772 -9410.0030 -7607.9350 305.0772 -593.0473 -504.8391 30397.6706 -593.0473 -504.8391
ENERGY: 300000 1.6818 4.9914 4.0977 0.0000 -10878.5430 1515.2288 0.0000 0.0000 1793.7694 -7558.7741 303.6723 -9352.5434 -7531.1064 302.4738 641.6654 713.3139 30083.4881 440.9345 505.1766
ENERGY: 600000 3.3010 4.5961 5.2905 0.0000 -10834.5060 1482.5384 0.0000 0.0000 1705.9463 -7632.8338 288.8045 -9338.7801 -7525.5024 299.5181 53.1088 148.4470 30472.3061 251.1338 313.3126
ENERGY: 900000 3.5068 4.8895 4.8333 0.0000 -10637.5019 1374.4374 0.0000 0.0000 1801.7716 -7448.0633 305.0270 -9249.8349 -7505.5543 300.3855 -668.9700 -576.0754 31011.3472 21.1536 83.9830
ENERGY: 1200000 2.6870 6.9217 8.4712 0.0000 -10603.9330 1384.4964 0.0000 0.0000 1754.2609 -7447.0959 296.9838 -9201.3569 -7495.3906 300.1504 -307.3782 -223.7164 30620.6371 5.3426 65.1596
ENERGY: 1500000 2.7583 2.9595 7.2875 0.0000 -10629.6813 1374.9608 0.0000 0.0000 1758.4815 -7483.2338 297.6983 -9241.7152 -7501.7563 300.1111 -352.9906 -331.7184 30566.5248 -3.5377 52.1279
TCL: Running FEP window   4: Lambda1 0.8499999999999999 Lambda2 0.7999999999999998 [dLambda -0.050000000000000044]
TCL: Setting parameter firsttimestep to 0
TCL: Setting parameter alchLambda to 0.8499999999999999
Info: NONBONDED TABLE R-SQUARED SPACING: 0.0625
Info: NONBONDED TABLE SIZE: 705 POINTS
TCL: Setting parameter alchLambda2 to 0.7999999999999998
Info: NONBONDED TABLE R-SQUARED SPACING: 0.0625
Info: NONBONDED TABLE SIZE: 705 POINTS
TCL: Running for 1500000 steps
ETITLE: TS BOND ANGLE DIHED IMPRP ELECT VDW BOUNDARY MISC KINETIC TOTAL TEMP POTENTIAL TOTALAVG TEMPAVG PRESSURE GPRESSURE VOLUME PRESSAVG GPRESSAVG
ENERGY: 0 2.7583 2.9595 7.2875 0.0000 -10628.0214 1374.3630 0.0000 0.0000 1757.6215 -7483.0316 297.5527 -9240.6531 -7483.0316 297.5527 -431.6346 -349.4444 30566.5248 -431.6346 -349.4444
ENERGY: 300000 3.2671 6.1275 4.9845 0.0000 -10686.9264 1377.4284 0.0000 0.0000 1797.0785 -7498.0403 304.2325 -9295.1188 -7475.3251 304.3783 -818.0528 -755.6751 30846.0659 -324.6865 -260.1237
ENERGY: 600000 5.5938 6.7126 6.7002 0.0000 -10717.5904 1406.8590 0.0000 0.0000 1795.3935 -7496.3314 303.9472 -9291.7249 -7471.6905 303.0920 -438.1418 -394.3726 30420.7537 -293.1531 -239.5030
ENERGY: 900000 2.4767 5.5420 6.2195 0.0000 -10654.5435 1385.8276 0.0000 0.0000 1768.3525 -7486.1252 299.3694 -9254.4778 -7479.3611 301.5303 -521.7559 -468.7280 30821.6635 -278.7987 -222.1456
ENERGY: 1200000 3.8122 5.2020 9.7023 0.0000 -10723.2572 1402.0095 0.0000 0.0000 1744.9659 -7557.5652 295.4102 -9302.5311 -7485.8208 301.5901 -337.4458 -252.5064 30162.9414 -188.1561 -131.7212
ENERGY: 1500000 2.9858 6.3813 6.3797 0.0000 -10736.7034 1475.1740 0.0000 0.0000 1748.5648 -7497.2177 296.0195 -9245.7826 -7495.4244 300.6394 126.1911 218.1757 31001.1555 -179.9050 -124.7214
TCL: Running FEP window   5: Lambda1 0.7999999999999998 Lambda2 0.7499999999999998 [dLambda -0.050000000000000044]
TCL: Setting parameter firsttimestep to 0
TCL: Setting parameter alchLambda to 0.7999999999999998
Info: NONBONDED TABLE R-SQUARED SPACING: 0.0625
Info: NONBONDED TABLE SIZE: 705 POINTS
TCL: Setting parameter alchLambda2 to 0.7499999999999998
Info: NONBONDED TABLE R-SQUARED SPACING: 0.0625
Info: NONBONDED TABLE SIZE: 705 POINTS
TCL: Running for 1500000 steps
ETITLE: TS BOND ANGLE DIHED IMPRP ELECT VDW BOUNDARY MISC KINETIC TOTAL TEMP POTENTIAL TOTALAVG TEMPAVG PRESSURE GPRESSURE VOLUME PRESSAVG GPRESSAVG
ENERGY: 0 2.9858 6.3813 6.3797 0.0000 -10735.5772 1475.0908 0.0000 0.0000 1747.6325 -7497.1070 295.8616 -9244.7396 -7497.1070 295.8616 119.2444 203.0568 31001.1555 119.2444 203.0568
ENERGY: 300000 2.2893 7.1230 4.4251 0.0000 -10621.3201 1328.8837 0.0000 0.0000 1782.2561 -7496.3430 301.7232 -9278.5991 -7464.1743 301.6932 -936.7698 -934.8848 30548.9696 -202.0588 -167.8677
ENERGY: 600000 5.6825 11.1501 6.8486 0.0000 -10729.0870 1438.5363 0.0000 0.0000 1752.5876 -7514.2820 296.7005 -9266.8696 -7496.5377 299.3663 -293.5781 -215.6650 30502.9567 -263.2487 -214.8456
ENERGY: 900000 3.3167 8.3673 9.0228 0.0000 -10788.8650 1506.3272 0.0000 0.0000 1770.8184 -7491.0127 299.7868 -9261.8311 -7487.6294 299.7766 403.7793 497.0306 30421.0642 -268.2431 -215.3026
ENERGY: 1200000 3.1925 12.0712 13.4634 0.0000 -10669.8571 1442.0741 0.0000 0.0000 1754.5589 -7444.4971 297.0342 -9199.0560 -7480.3360 299.6511 -47.4724 -75.3943 31285.8062 -215.8390 -170.1178
ENERGY: 1500000 2.0669 4.0935 7.7289 0.0000 -10742.0449 1431.1743 0.0000 0.0000 1765.2277 -7531.7536 298.8404 -9296.9812 -7467.7844 300.3381 -72.3084 9.9785 30395.7302 -164.5316 -116.0573
TCL: Running FEP window   6: Lambda1 0.7499999999999998 Lambda2 0.6999999999999997 [dLambda -0.050000000000000044]
TCL: Setting parameter firsttimestep to 0
TCL: Setting parameter alchLambda to 0.7499999999999998
Info: NONBONDED TABLE R-SQUARED SPACING: 0.0625
Info: NONBONDED TABLE SIZE: 705 POINTS
TCL: Setting parameter alchLambda2 to 0.6999999999999997
Info: NONBONDED TABLE R-SQUARED SPACING: 0.0625
Info: NONBONDED TABLE SIZE: 705 POINTS
TCL: Running for 1500000 steps
ETITLE: TS BOND ANGLE DIHED IMPRP ELECT VDW BOUNDARY MISC KINETIC TOTAL TEMP POTENTIAL TOTALAVG TEMPAVG PRESSURE GPRESSURE VOLUME PRESSAVG GPRESSAVG
ENERGY: 0 2.0669 4.0935 7.7289 0.0000 -10740.4084 1430.7054 0.0000 0.0000 1764.3496 -7531.4640 298.6917 -9295.8137 -7531.4640 298.6917 -88.8615 -4.9431 30395.7302 -88.8615 -4.9431
ENERGY: 300000 4.8217 5.7967 6.5665 0.0000 -10685.2070 1384.6223 0.0000 0.0000 1745.8549 -7537.5450 295.5607 -9283.3999 -7487.9727 298.9358 -653.9430 -573.4139 30476.9022 6.2483 68.6797
ENERGY: 600000 2.6779 10.8968 4.2717 0.0000 -10717.1073 1401.6847 0.0000 0.0000 1759.6110 -7537.9652 297.8895 -9297.5761 -7517.6892 297.8022 -204.9065 -138.0543 30424.8221 190.3582 249.2011
ENERGY: 900000 1.9603 10.5557 7.0831 0.0000 -10718.6037 1441.9217 0.0000 0.0000 1712.9627 -7544.1203 289.9923 -9257.0830 -7533.5841 296.6721 -16.8566 27.8799 30552.2833 -41.6524 10.0345
ENERGY: 1200000 2.2752 8.3171 6.3683 0.0000 -10720.2311 1410.4715 0.0000 0.0000 1776.9548 -7515.8442 300.8257 -9292.7990 -7525.7095 297.1453 -148.1161 -105.7855 30196.8976 -62.3205 -10.3311
ENERGY: 1500000 3.4478 4.6346 6.0253 0.0000 -10629.4631 1342.6957 0.0000 0.0000 1794.7979 -7477.8617 303.8464 -9272.6596 -7519.4142 297.6626 -776.4898 -755.6002 30778.3107 -101.2306 -49.1903
TCL: Running FEP window   7: Lambda1 0.6999999999999997 Lambda2 0.6499999999999997 [dLambda -0.050000000000000044]
TCL: Setting parameter firsttimestep to 0
TCL: Setting parameter alchLambda to 0.6999999999999997
Info: NONBONDED TABLE R-SQUARED SPACING: 0.0625
Info: NONBONDED TABLE SIZE: 705 POINTS
TCL: Setting parameter alchLambda2 to 0.6499999999999997
Info: NONBONDED TABLE R-SQUARED SPACING: 0.0625
Info: NONBONDED TABLE SIZE: 705 POINTS
TCL: Running for 1500000 steps
ETITLE: TS BOND ANGLE DIHED IMPRP ELECT VDW BOUNDARY MISC KINETIC TOTAL TEMP POTENTIAL TOTALAVG TEMPAVG PRESSURE GPRESSURE VOLUME PRESSAVG GPRESSAVG
ENERGY: 0 3.4478 4.6346 6.0253 0.0000 -10627.7223 1342.3045 0.0000 0.0000 1793.8831 -7477.4270 303.6915 -9271.3101 -7477.4270 303.6915 -837.7692 -760.9211 30778.3107 -837.7692 -760.9211
ENERGY: 300000 5.4782 5.0522 6.4500 0.0000 -10714.1712 1431.7777 0.0000 0.0000 1762.7640 -7502.6492 298.4233 -9265.4131 -7513.1152 302.3144 -369.0935 -244.7196 30567.2668 -551.8097 -478.7566
ENERGY: 600000 2.1748 6.3239 6.2436 0.0000 -10878.4704 1559.3157 0.0000 0.0000 1823.3217 -7481.0907 308.6753 -9304.4124 -7504.4563 303.0845 929.9016 965.5059 30446.4233 -240.6988 -178.8967
ENERGY: 900000 3.2332 6.3228 11.1832 0.0000 -10609.9463 1367.1597 0.0000 0.0000 1767.1710 -7454.8765 299.1693 -9222.0474 -7501.3163 302.4627 -442.8459 -340.4338 30503.1415 -261.4040 -196.3734
ENERGY: 1200000 3.4200 6.0717 2.9916 0.0000 -10721.8662 1437.6369 0.0000 0.0000 1821.0206 -7450.7254 308.2857 -9271.7460 -7501.8919 302.0108 237.8457 313.2507 30144.1721 -183.1668 -115.0004
ENERGY: 1500000 3.2039 7.8709 7.0325 0.0000 -10779.7304 1458.0979 0.0000 0.0000 1815.4159 -7488.1094 307.3369 -9303.5253 -7497.4206 301.8900 15.4966 59.7037 30651.2424 -154.5958 -81.4839
TCL: Running FEP window   8: Lambda1 0.6499999999999997 Lambda2 0.5999999999999996 [dLambda -0.050000000000000044]
TCL: Setting parameter firsttimestep to 0
TCL: Setting parameter alchLambda to 0.6499999999999997
Info: NONBONDED TABLE R-SQUARED SPACING: 0.0625
Info: NONBONDED TABLE SIZE: 705 POINTS
TCL: Setting parameter alchLambda2 to 0.5999999999999996
Info: NONBONDED TABLE R-SQUARED SPACING: 0.0625
Info: NONBONDED TABLE SIZE: 705 POINTS
TCL: Running for 1500000 steps
ETITLE: TS BOND ANGLE DIHED IMPRP ELECT VDW BOUNDARY MISC KINETIC TOTAL TEMP POTENTIAL TOTALAVG TEMPAVG PRESSURE GPRESSURE VOLUME PRESSAVG GPRESSAVG
ENERGY: 0 3.2039 7.8709 7.0325 0.0000 -10778.9051 1458.6241 0.0000 0.0000 1814.5038 -7487.6701 307.1824 -9302.1738 -7487.6701 307.1824 -15.2483 57.9646 30651.2424 -15.2483 57.9646
ENERGY: 300000 2.8242 6.2470 5.3624 0.0000 -10688.6227 1410.3861 0.0000 0.0000 1806.2869 -7457.5162 305.7914 -9263.8031 -7478.9342 305.7887 -237.9556 -177.3016 30357.0743 -328.6974 -274.3145
ENERGY: 600000 4.6269 7.3529 7.5046 0.0000 -10771.6223 1530.6510 0.0000 0.0000 1754.3092 -7467.1777 296.9919 -9221.4868 -7464.7467 303.9002 1024.8465 1129.0288 29667.6291 -142.7660 -77.4971
ENERGY: 900000 1.3701 9.5868 6.1460 0.0000 -10785.5918 1439.2825 0.0000 0.0000 1774.8018 -7554.4046 300.4612 -9329.2065 -7482.9955 301.7842 -88.4827 -56.3692 30353.9107 -143.9844 -74.2922
ENERGY: 1200000 4.4704 10.9986 8.9847 0.0000 -10794.1007 1491.4043 0.0000 0.0000 1738.7746 -7539.4681 294.3620 -9278.2427 -7492.6822 300.9335 479.6239 618.4171 30038.0512 -125.0775 -51.6023
ENERGY: 1500000 5.2041 8.4412 6.3073 0.0000 -10701.1097 1361.1645 0.0000 0.0000 1770.4359 -7549.5566 299.7221 -9319.9926 -7504.6732 299.8773 -1063.7548 -984.1728 30984.0645 -183.6900 -111.3638
TCL: Running FEP window   9: Lambda1 0.5999999999999996 Lambda2 0.5499999999999996 [dLambda -0.050000000000000044]
TCL: Setting parameter firsttimestep to 0
TCL: Setting parameter alchLambda to 0.5999999999999996
Info: NONBONDED TABLE R-SQUARED SPACING: 0.0625
Info: NONBONDED TABLE SIZE: 705 POINTS
TCL: Setting parameter alchLambda2 to 0.5499999999999996
Info: NONBONDED TABLE R-SQUARED SPACING: 0.0625
Info: NONBONDED TABLE SIZE: 705 POINTS
TCL: Running for 1500000 steps
ETITLE: TS BOND ANGLE DIHED IMPRP ELECT VDW BOUNDARY MISC KINETIC TOTAL TEMP POTENTIAL TOTALAVG TEMPAVG PRESSURE GPRESSURE VOLUME PRESSAVG GPRESSAVG
ENERGY: 0 5.2041 8.4412 6.3073 0.0000 -10701.2572 1361.7456 0.0000 0.0000 1769.5717 -7549.9874 299.5758 -9319.5590 -7549.9874 299.5758 -1085.3683 -989.3165 30984.0645 -1085.3683 -989.3165
ENERGY: 300000 4.0322 6.4882 3.6311 0.0000 -10665.4746 1409.6676 0.0000 0.0000 1768.3432 -7473.3123 299.3678 -9241.6555 -7472.2665 303.4697 -381.1874 -276.6974 30624.6248 -313.4415 -219.0143
ENERGY: 600000 1.6725 6.5090 3.8607 0.0000 -10757.4370 1467.2676 0.0000 0.0000 1740.7857 -7537.3415 294.7025 -9278.1272 -7482.3670 300.1395 77.2229 148.4611 30771.9104 -216.5460 -133.4060
ENERGY: 900000 3.6448 5.6490 5.1152 0.0000 -10801.3929 1518.6706 0.0000 0.0000 1781.7708 -7486.5425 301.6410 -9268.3133 -7470.8560 301.6784 561.8195 696.1114 30098.0293 -47.8633 33.2760
ENERGY: 1200000 5.3775 8.3802 4.5633 0.0000 -10551.6975 1314.4580 0.0000 0.0000 1781.5194 -7437.3990 301.5984 -9218.9184 -7482.8401 300.5109 -1202.1623 -1097.8442 31483.3570 -153.4739 -74.7146
ENERGY: 1500000 5.8364 8.7488 11.2630 0.0000 -10660.0051 1349.7763 0.0000 0.0000 1857.0268 -7427.3537 314.3813 -9284.3806 -7487.2596 301.4263 -578.2732 -539.5899 30188.9653 -140.6433 -60.0522
TCL: Running FEP window  10: Lambda1 0.5499999999999996 Lambda2 0.4999999999999996 [dLambda -0.04999999999999999]
TCL: Setting parameter firsttimestep to 0
TCL: Setting parameter alchLambda to 0.5499999999999996
Info: NONBONDED TABLE R-SQUARED SPACING: 0.0625
Info: NONBONDED TABLE SIZE: 705 POINTS
TCL: Setting parameter alchLambda2 to 0.4999999999999996
Info: NONBONDED TABLE R-SQUARED SPACING: 0.0625
Info: NONBONDED TABLE SIZE: 705 POINTS
TCL: Running for 1500000 steps
ETITLE: TS BOND ANGLE DIHED IMPRP ELECT VDW BOUNDARY MISC KINETIC TOTAL TEMP POTENTIAL TOTALAVG TEMPAVG PRESSURE GPRESSURE VOLUME PRESSAVG GPRESSAVG
ENERGY: 0 5.8364 8.7488 11.2630 0.0000 -10659.3878 1349.1505 0.0000 0.0000 1856.1530 -7428.2361 314.2334 -9284.3890 -7428.2361 314.2334 -645.9999 -553.0703 30188.9653 -645.9999 -553.0703
ENERGY: 300000 6.2957 10.1956 6.2339 0.0000 -10761.4400 1495.9285 0.0000 0.0000 1821.2121 -7421.5741 308.3181 -9242.7862 -7441.8421 303.1228 308.5755 337.5514 30735.1358 -362.2269 -293.1746
ENERGY: 600000 5.3084 5.0893 5.3310 0.0000 -10711.3109 1489.6276 0.0000 0.0000 1767.9708 -7437.9838 299.3047 -9205.9546 -7450.4738 301.8623 309.5884 419.4102 30661.1844 -113.3017 -35.2347
ENERGY: 900000 2.7664 7.2758 5.4112 0.0000 -10590.0577 1387.5703 0.0000 0.0000 1770.6209 -7416.4131 299.7534 -9187.0340 -7458.5981 300.7948 -138.8318 -123.6561 30515.9722 151.0107 214.5826
ENERGY: 1200000 4.1638 5.3054 8.6415 0.0000 -10780.1927 1494.4775 0.0000 0.0000 1778.7981 -7488.8064 301.1377 -9267.6045 -7454.2062 300.5360 352.5880 377.0777 30838.5570 76.4329 140.1549
ENERGY: 1500000 6.8211 7.1037 4.7527 0.0000 -10640.8517 1432.4518 0.0000 0.0000 1798.1707 -7391.5517 304.4174 -9189.7224 -7456.8976 300.4334 -115.9342 -78.0585 30787.7004 105.0836 168.3854
TCL: Running FEP window  11: Lambda1 0.4999999999999996 Lambda2 0.4499999999999996 [dLambda -0.04999999999999999]
TCL: Setting parameter firsttimestep to 0
TCL: Setting parameter alchLambda to 0.4999999999999996
Info: NONBONDED TABLE R-SQUARED SPACING: 0.0625
Info: NONBONDED TABLE SIZE: 705 POINTS
TCL: Setting parameter alchLambda2 to 0.4499999999999996
Info: NONBONDED TABLE R-SQUARED SPACING: 0.0625
Info: NONBONDED TABLE SIZE: 705 POINTS
TCL: Running for 1500000 steps
ETITLE: TS BOND ANGLE DIHED IMPRP ELECT VDW BOUNDARY MISC KINETIC TOTAL TEMP POTENTIAL TOTALAVG TEMPAVG PRESSURE GPRESSURE VOLUME PRESSAVG GPRESSAVG
ENERGY: 0 6.8211 7.1037 4.7527 0.0000 -10641.0500 1433.1721 0.0000 0.0000 1797.2461 -7391.9542 304.2609 -9189.2004 -7391.9542 304.2609 -162.9201 -79.6665 30787.7004 -162.9201 -79.6665
ENERGY: 300000 6.0766 8.6786 6.5225 0.0000 -10737.1526 1465.6705 0.0000 0.0000 1783.1164 -7467.0880 301.8688 -9250.2044 -7483.1570 301.7505 160.5104 271.2774 30313.3869 82.7922 141.6174
ENERGY: 600000 3.2825 6.2592 4.3872 0.0000 -10821.0396 1540.3563 0.0000 0.0000 1806.4880 -7460.2666 305.8254 -9266.7546 -7483.0646 302.5035 548.4695 617.9207 30799.8782 198.0495 271.9876
ENERGY: 900000 3.9998 6.5599 5.5752 0.0000 -10787.5884 1492.3691 0.0000 0.0000 1791.9493 -7487.1351 303.3641 -9279.0845 -7485.0542 302.7639 192.3007 213.5356 30477.0782 160.1076 215.5503
ENERGY: 1200000 2.3324 4.7777 6.6070 0.0000 -10636.7110 1406.8582 0.0000 0.0000 1736.1543 -7479.9814 293.9185 -9216.1357 -7482.6094 301.8716 -260.0535 -144.3714 30462.8743 26.6091 88.0468
ENERGY: 1500000 2.3326 3.5698 7.8261 0.0000 -10591.9011 1337.2232 0.0000 0.0000 1775.3075 -7465.6420 300.5468 -9240.9495 -7470.7922 302.2544 -759.5427 -705.3861 30382.5057 -49.1515 12.2503
TCL: Running FEP window  12: Lambda1 0.4499999999999996 Lambda2 0.39999999999999963 [dLambda -0.04999999999999999]
TCL: Setting parameter firsttimestep to 0
TCL: Setting parameter alchLambda to 0.4499999999999996
Info: NONBONDED TABLE R-SQUARED SPACING: 0.0625
Info: NONBONDED TABLE SIZE: 705 POINTS
TCL: Setting parameter alchLambda2 to 0.39999999999999963
Info: NONBONDED TABLE R-SQUARED SPACING: 0.0625
Info: NONBONDED TABLE SIZE: 705 POINTS
TCL: Running for 1500000 steps
ETITLE: TS BOND ANGLE DIHED IMPRP ELECT VDW BOUNDARY MISC KINETIC TOTAL TEMP POTENTIAL TOTALAVG TEMPAVG PRESSURE GPRESSURE VOLUME PRESSAVG GPRESSAVG
ENERGY: 0 2.3326 3.5698 7.8261 0.0000 -10591.9007 1337.7151 0.0000 0.0000 1774.4214 -7466.0357 300.3968 -9240.4571 -7466.0357 300.3968 -793.8285 -711.2401 30382.5057 -793.8285 -711.2401
ENERGY: 300000 1.6225 7.0663 5.4188 0.0000 -10878.3189 1526.3380 0.0000 0.0000 1718.2515 -7619.6218 290.8876 -9337.8733 -7516.7246 296.5341 531.5041 651.3932 30223.5159 45.8824 121.6054
ENERGY: 600000 6.4212 9.3822 8.0171 0.0000 -10895.3761 1606.4086 0.0000 0.0000 1789.5178 -7475.6292 302.9525 -9265.1469 -7491.8888 298.4949 1194.2726 1237.0026 30224.8128 93.4565 164.7965
ENERGY: 900000 3.9843 8.4077 6.6332 0.0000 -10823.5571 1512.5476 0.0000 0.0000 1795.4597 -7496.5246 303.9584 -9291.9843 -7497.5268 298.9796 634.5353 637.2367 30400.4594 163.1985 232.5871
ENERGY: 1200000 5.8114 8.5351 5.6539 0.0000 -10766.2183 1505.0585 0.0000 0.0000 1773.5892 -7467.5702 300.2559 -9241.1594 -7497.9930 298.8413 489.4317 502.9692 30402.7308 97.9682 164.6598
ENERGY: 1500000 5.8898 4.0687 7.1444 0.0000 -10637.6158 1365.9646 0.0000 0.0000 1691.1690 -7563.3792 286.3028 -9254.5482 -7506.2798 297.9222 -856.7705 -844.1742 30656.5238 -24.3909 29.5263
TCL: Running FEP window  13: Lambda1 0.39999999999999963 Lambda2 0.34999999999999964 [dLambda -0.04999999999999999]
TCL: Setting parameter firsttimestep to 0
TCL: Setting parameter alchLambda to 0.39999999999999963
Info: NONBONDED TABLE R-SQUARED SPACING: 0.0625
Info: NONBONDED TABLE SIZE: 705 POINTS
TCL: Setting parameter alchLambda2 to 0.34999999999999964
Info: NONBONDED TABLE R-SQUARED SPACING: 0.0625
Info: NONBONDED TABLE SIZE: 705 POINTS
TCL: Running for 1500000 steps
ETITLE: TS BOND ANGLE DIHED IMPRP ELECT VDW BOUNDARY MISC KINETIC TOTAL TEMP POTENTIAL TOTALAVG TEMPAVG PRESSURE GPRESSURE VOLUME PRESSAVG GPRESSAVG
ENERGY: 0 5.8898 4.0687 7.1444 0.0000 -10637.6158 1366.3319 0.0000 0.0000 1690.2695 -7563.9115 286.1505 -9254.1810 -7563.9115 286.1505 -934.4765 -848.0815 30656.5238 -934.4765 -848.0815
ENERGY: 300000 3.1624 6.9039 7.9197 0.0000 -10691.5930 1441.3977 0.0000 0.0000 1793.2032 -7439.0062 303.5764 -9232.2094 -7488.0216 295.7425 -2.3167 58.8934 30526.6406 -193.1185 -116.1786
ENERGY: 600000 2.4251 7.0432 6.1823 0.0000 -10603.8337 1404.4600 0.0000 0.0000 1775.9974 -7407.7257 300.6636 -9183.7231 -7491.3416 297.2919 38.8982 53.2709 30260.9463 -45.9961 11.1410
ENERGY: 900000 4.7348 8.5296 4.3968 0.0000 -10864.9591 1491.6099 0.0000 0.0000 1762.5523 -7593.1356 298.3874 -9355.6880 -7507.2659 297.3098 260.8199 244.0736 29976.8143 -60.4865 -1.9064
ENERGY: 1200000 1.8621 8.0165 8.6154 0.0000 -10714.4710 1421.0681 0.0000 0.0000 1809.7129 -7465.1961 306.3714 -9274.9090 -7502.3478 297.7781 -154.6359 -67.4336 30321.8294 -149.5424 -90.4439
ENERGY: 1500000 4.3580 3.1726 5.3490 0.0000 -10724.2614 1422.9127 0.0000 0.0000 1747.9267 -7540.5422 295.9114 -9288.4689 -7497.9536 297.8041 -257.9039 -209.0203 30260.0506 -114.1290 -53.3965
TCL: Running FEP window  14: Lambda1 0.34999999999999964 Lambda2 0.29999999999999966 [dLambda -0.04999999999999999]
TCL: Setting parameter firsttimestep to 0
TCL: Setting parameter alchLambda to 0.34999999999999964
Info: NONBONDED TABLE R-SQUARED SPACING: 0.0625
Info: NONBONDED TABLE SIZE: 705 POINTS
TCL: Setting parameter alchLambda2 to 0.29999999999999966
Info: NONBONDED TABLE R-SQUARED SPACING: 0.0625
Info: NONBONDED TABLE SIZE: 705 POINTS
TCL: Running for 1500000 steps
ETITLE: TS BOND ANGLE DIHED IMPRP ELECT VDW BOUNDARY MISC KINETIC TOTAL TEMP POTENTIAL TOTALAVG TEMPAVG PRESSURE GPRESSURE VOLUME PRESSAVG GPRESSAVG
ENERGY: 0 4.3580 3.1726 5.3490 0.0000 -10724.2604 1423.0623 0.0000 0.0000 1747.0928 -7541.2256 295.7703 -9288.3184 -7541.2256 295.7703 -291.7481 -214.3038 30260.0506 -291.7481 -214.3038
ENERGY: 300000 2.2068 8.3810 7.2515 0.0000 -10815.2720 1533.5158 0.0000 0.0000 1753.2804 -7510.6365 296.8178 -9263.9169 -7498.4004 295.8051 739.1094 858.7608 30215.8812 5.0983 84.3706
ENERGY: 600000 6.1608 3.5764 9.1425 0.0000 -10613.4717 1363.3723 0.0000 0.0000 1801.3515 -7429.8681 304.9559 -9231.2196 -7485.5741 299.7063 -235.2329 -157.0186 30381.7179 -50.7833 18.8005
ENERGY: 900000 2.0774 5.9228 6.7464 0.0000 -10817.7962 1534.0319 0.0000 0.0000 1759.4177 -7509.5999 297.8568 -9269.0176 -7483.6402 299.8340 818.6491 888.6067 29893.3136 -10.7034 61.3203
ENERGY: 1200000 2.6074 7.8388 5.7842 0.0000 -10579.3416 1309.9436 0.0000 0.0000 1814.8384 -7438.3291 307.2391 -9253.1675 -7468.8486 300.4093 -1327.2035 -1305.4087 31168.7305 -144.2371 -81.4516
ENERGY: 1500000 2.2547 6.4047 8.8335 0.0000 -10791.0141 1476.7347 0.0000 0.0000 1748.6818 -7548.1046 296.0393 -9296.7865 -7474.9339 300.1096 -39.9479 -52.6601 30659.6807 -125.2151 -64.6217
TCL: Running FEP window  15: Lambda1 0.29999999999999966 Lambda2 0.24999999999999967 [dLambda -0.04999999999999999]
TCL: Setting parameter firsttimestep to 0
TCL: Setting parameter alchLambda to 0.29999999999999966
Info: NONBONDED TABLE R-SQUARED SPACING: 0.0625
Info: NONBONDED TABLE SIZE: 705 POINTS
TCL: Setting parameter alchLambda2 to 0.24999999999999967
Info: NONBONDED TABLE R-SQUARED SPACING: 0.0625
Info: NONBONDED TABLE SIZE: 705 POINTS
TCL: Running for 1500000 steps
ETITLE: TS BOND ANGLE DIHED IMPRP ELECT VDW BOUNDARY MISC KINETIC TOTAL TEMP POTENTIAL TOTALAVG TEMPAVG PRESSURE GPRESSURE VOLUME PRESSAVG GPRESSAVG
ENERGY: 0 2.2547 6.4047 8.8335 0.0000 -10791.0154 1476.7161 0.0000 0.0000 1747.8076 -7548.9987 295.8913 -9296.8063 -7548.9987 295.8913 -144.7676 -57.8452 30659.6807 -144.7676 -57.8452
ENERGY: 300000 2.5236 4.9600 7.7718 0.0000 -10774.9666 1510.9366 0.0000 0.0000 1781.8128 -7466.9619 301.6481 -9248.7747 -7472.8816 302.0775 568.5755 634.8232 30316.6048 156.5977 218.9438
ENERGY: 600000 3.0677 9.9411 6.5847 0.0000 -10649.7657 1421.1304 0.0000 0.0000 1749.5876 -7459.4541 296.1926 -9209.0417 -7457.7662 302.4432 29.6296 76.3457 30736.3539 203.9545 256.4941
ENERGY: 900000 3.1545 5.4112 8.0699 0.0000 -10836.6050 1513.0172 0.0000 0.0000 1726.6105 -7580.3417 292.3028 -9306.9522 -7467.6360 302.3714 472.2519 519.2661 30239.3178 198.6908 252.7698
ENERGY: 1200000 1.2935 9.4642 7.0273 0.0000 -10659.0721 1429.1681 0.0000 0.0000 1729.8123 -7482.3066 292.8448 -9212.1189 -7469.6697 300.4821 -264.4974 -149.8792 30614.3595 67.8176 128.6590
ENERGY: 1500000 3.9342 7.2486 5.5297 0.0000 -10741.0509 1459.8714 0.0000 0.0000 1745.6547 -7518.8122 295.5268 -9264.4669 -7468.7785 300.1169 -24.1440 86.4692 30908.5170 -21.8894 42.6108
TCL: Running FEP window  16: Lambda1 0.24999999999999967 Lambda2 0.19999999999999968 [dLambda -0.04999999999999999]
TCL: Setting parameter firsttimestep to 0
TCL: Setting parameter alchLambda to 0.24999999999999967
Info: NONBONDED TABLE R-SQUARED SPACING: 0.0625
Info: NONBONDED TABLE SIZE: 705 POINTS
TCL: Setting parameter alchLambda2 to 0.19999999999999968
Info: NONBONDED TABLE R-SQUARED SPACING: 0.0625
Info: NONBONDED TABLE SIZE: 705 POINTS
TCL: Running for 1500000 steps
ETITLE: TS BOND ANGLE DIHED IMPRP ELECT VDW BOUNDARY MISC KINETIC TOTAL TEMP POTENTIAL TOTALAVG TEMPAVG PRESSURE GPRESSURE VOLUME PRESSAVG GPRESSAVG
ENERGY: 0 3.9342 7.2486 5.5297 0.0000 -10741.0508 1460.5320 0.0000 0.0000 1744.7577 -7519.0486 295.3749 -9263.8063 -7519.0486 295.3749 9.5663 87.0194 30908.5170 9.5663 87.0194
ENERGY: 300000 1.5777 6.0612 5.2618 0.0000 -10711.8513 1439.2971 0.0000 0.0000 1782.2500 -7477.4035 301.7221 -9259.6535 -7508.9207 296.9456 3.7087 53.4352 30231.6025 27.0666 80.5160
ENERGY: 600000 4.2366 5.2570 6.0136 0.0000 -10625.6966 1410.2645 0.0000 0.0000 1761.6732 -7438.2516 298.2386 -9199.9249 -7493.0302 298.0018 -115.2218 -101.3417 30625.7575 -107.9997 -68.7762
ENERGY: 900000 5.6706 9.5989 7.2380 0.0000 -10795.1313 1494.7877 0.0000 0.0000 1763.8432 -7513.9929 298.6060 -9277.8361 -7492.8365 299.3464 123.5411 184.5386 30433.7905 -147.9973 -102.7537
ENERGY: 1200000 4.9877 6.4387 5.2404 0.0000 -10796.3109 1449.4497 0.0000 0.0000 1731.3369 -7598.8574 293.1029 -9330.1943 -7507.1719 299.0556 -190.8188 -136.5246 29994.0339 -175.6067 -133.5276
ENERGY: 1500000 3.9497 5.6142 9.4742 0.0000 -10685.4273 1362.5475 0.0000 0.0000 1804.6401 -7499.2017 305.5126 -9303.8418 -7506.3802 299.5515 -596.7560 -582.1404 30223.7954 -214.4441 -170.3031
TCL: Running FEP window  17: Lambda1 0.19999999999999968 Lambda2 0.1499999999999997 [dLambda -0.04999999999999999]
TCL: Setting parameter firsttimestep to 0
TCL: Setting parameter alchLambda to 0.19999999999999968
Info: NONBONDED TABLE R-SQUARED SPACING: 0.0625
Info: NONBONDED TABLE SIZE: 705 POINTS
TCL: Setting parameter alchLambda2 to 0.1499999999999997
Info: NONBONDED TABLE R-SQUARED SPACING: 0.0625
Info: NONBONDED TABLE SIZE: 705 POINTS
TCL: Running for 1500000 steps
ETITLE: TS BOND ANGLE DIHED IMPRP ELECT VDW BOUNDARY MISC KINETIC TOTAL TEMP POTENTIAL TOTALAVG TEMPAVG PRESSURE GPRESSURE VOLUME PRESSAVG GPRESSAVG
ENERGY: 0 3.9497 5.6142 9.4742 0.0000 -10685.4301 1363.0796 0.0000 0.0000 1803.7396 -7499.5729 305.3601 -9303.3124 -7499.5729 305.3601 -660.0667 -584.8917 30223.7954 -660.0667 -584.8917
ENERGY: 300000 4.9060 7.2107 8.7879 0.0000 -10776.0791 1426.0072 0.0000 0.0000 1753.8562 -7575.3111 296.9152 -9329.1673 -7522.8425 299.6382 -215.0254 -203.4997 30308.0717 -394.1936 -328.6650
ENERGY: 600000 5.4032 7.6809 6.4436 0.0000 -10649.2598 1424.0469 0.0000 0.0000 1811.5042 -7394.1810 306.6746 -9205.6852 -7487.3140 303.1513 -132.8198 -128.2535 30728.5455 -356.8387 -296.2584
ENERGY: 900000 3.4024 7.3898 5.5510 0.0000 -10787.3531 1464.2876 0.0000 0.0000 1769.1638 -7537.5585 299.5067 -9306.7223 -7495.6752 302.4969 -24.7133 42.7898 30240.4196 -452.3817 -391.7376
ENERGY: 1200000 3.0411 9.0565 3.2939 0.0000 -10796.9091 1511.7861 0.0000 0.0000 1784.2442 -7485.4873 302.0597 -9269.7314 -7488.0047 302.8576 765.5005 836.1135 30121.9145 -284.4076 -219.3442
ENERGY: 1500000 3.2781 7.9308 8.9486 0.0000 -10767.3805 1544.4641 0.0000 0.0000 1776.0170 -7426.7420 300.6669 -9202.7590 -7489.0176 302.4676 1223.1468 1301.5582 30096.0205 -134.2849 -68.4656
TCL: Running FEP window  18: Lambda1 0.1499999999999997 Lambda2 0.09999999999999969 [dLambda -0.05 ]
TCL: Setting parameter firsttimestep to 0
TCL: Setting parameter alchLambda to 0.1499999999999997
Info: NONBONDED TABLE R-SQUARED SPACING: 0.0625
Info: NONBONDED TABLE SIZE: 705 POINTS
TCL: Setting parameter alchLambda2 to 0.09999999999999969
Info: NONBONDED TABLE R-SQUARED SPACING: 0.0625
Info: NONBONDED TABLE SIZE: 705 POINTS
TCL: Running for 1500000 steps
ETITLE: TS BOND ANGLE DIHED IMPRP ELECT VDW BOUNDARY MISC KINETIC TOTAL TEMP POTENTIAL TOTALAVG TEMPAVG PRESSURE GPRESSURE VOLUME PRESSAVG GPRESSAVG
ENERGY: 0 3.2781 7.9308 8.9486 0.0000 -10767.3812 1543.9053 0.0000 0.0000 1775.1365 -7428.1819 300.5178 -9203.3184 -7428.1819 300.5178 1209.3854 1292.1643 30096.0205 1209.3854 1292.1643
ENERGY: 300000 4.1078 5.8584 6.2047 0.0000 -10528.1316 1318.7371 0.0000 0.0000 1755.1771 -7438.0464 297.1389 -9193.2235 -7480.3296 296.2047 -555.9371 -516.9739 30334.7152 -226.2147 -162.0458
ENERGY: 600000 1.8910 5.0443 8.3540 0.0000 -10742.0122 1504.2687 0.0000 0.0000 1797.8580 -7424.5961 304.3644 -9222.4542 -7469.8755 298.7682 599.5786 651.4510 30282.0020 -72.8250 -11.4748
ENERGY: 900000 4.6908 6.0725 5.1752 0.0000 -10870.8769 1565.8266 0.0000 0.0000 1751.0514 -7538.0604 296.4404 -9289.1119 -7479.3379 298.4100 974.3783 1012.9116 29763.8744 86.6133 133.5567
ENERGY: 1200000 2.0586 8.4063 4.7783 0.0000 -10669.9461 1422.0150 0.0000 0.0000 1804.6911 -7427.9967 305.5212 -9232.6879 -7475.2680 298.8745 -110.0400 -84.4316 30509.2119 118.3713 157.3388
ENERGY: 1500000 3.3268 8.7852 6.8367 0.0000 -10776.3827 1524.7610 0.0000 0.0000 1750.2485 -7482.4245 296.3045 -9232.6730 -7472.8457 298.6737 623.0719 661.5154 30183.8227 143.0862 186.5500
TCL: Running FEP window  19: Lambda1 0.09999999999999969 Lambda2 0.049999999999999684 [dLambda -0.05 ]
TCL: Setting parameter firsttimestep to 0
TCL: Setting parameter alchLambda to 0.09999999999999969
Info: NONBONDED TABLE R-SQUARED SPACING: 0.0625
Info: NONBONDED TABLE SIZE: 705 POINTS
TCL: Setting parameter alchLambda2 to 0.049999999999999684
Info: NONBONDED TABLE R-SQUARED SPACING: 0.0625
Info: NONBONDED TABLE SIZE: 705 POINTS
TCL: Running for 1500000 steps
ETITLE: TS BOND ANGLE DIHED IMPRP ELECT VDW BOUNDARY MISC KINETIC TOTAL TEMP POTENTIAL TOTALAVG TEMPAVG PRESSURE GPRESSURE VOLUME PRESSAVG GPRESSAVG
ENERGY: 0 3.3268 8.7852 6.8367 0.0000 -10776.3827 1524.1027 0.0000 0.0000 1749.3161 -7484.0153 296.1466 -9233.3314 -7484.0153 296.1466 592.2919 657.5257 30183.8227 592.2919 657.5257
ENERGY: 300000 4.5082 4.0854 6.7404 0.0000 -10870.1310 1529.9075 0.0000 0.0000 1727.8876 -7597.0019 292.5190 -9324.8895 -7521.5635 297.2878 409.8905 489.9496 30306.1799 252.2610 337.5972
ENERGY: 600000 6.8878 5.4051 5.4846 0.0000 -10755.4645 1394.0929 0.0000 0.0000 1768.7061 -7574.8881 299.4292 -9343.5942 -7506.8317 299.1573 -749.8233 -682.6598 30160.5208 6.4032 71.4364
ENERGY: 900000 2.8650 6.1706 4.0532 0.0000 -10740.5379 1436.7771 0.0000 0.0000 1761.7511 -7528.9209 298.2518 -9290.6720 -7509.4689 298.2007 -180.6167 -177.6755 30411.5484 17.2730 68.9018
ENERGY: 1200000 2.4029 6.7415 8.9681 0.0000 -10825.9290 1461.1580 0.0000 0.0000 1777.1533 -7569.5052 300.8593 -9346.6586 -7516.0005 298.8913 -216.6518 -174.4669 30313.2514 -48.7060 9.1629
ENERGY: 1500000 6.5959 7.2378 6.1068 0.0000 -10610.7093 1332.8880 0.0000 0.0000 1789.9847 -7467.8960 303.0315 -9257.8807 -7503.1565 300.1462 -1007.8297 -993.1469 30267.2646 -74.3894 -17.9343
TCL: Running FEP window  20: Lambda1 0.049999999999999684 Lambda2 0.0    [dLambda -0.049999999999999684]
TCL: Setting parameter firsttimestep to 0
TCL: Setting parameter alchLambda to 0.049999999999999684
Info: NONBONDED TABLE R-SQUARED SPACING: 0.0625
Info: NONBONDED TABLE SIZE: 705 POINTS
TCL: Setting parameter alchLambda2 to 0.0
Info: NONBONDED TABLE R-SQUARED SPACING: 0.0625
Info: NONBONDED TABLE SIZE: 705 POINTS
TCL: Running for 1500000 steps
ETITLE: TS BOND ANGLE DIHED IMPRP ELECT VDW BOUNDARY MISC KINETIC TOTAL TEMP POTENTIAL TOTALAVG TEMPAVG PRESSURE GPRESSURE VOLUME PRESSAVG GPRESSAVG
ENERGY: 0 6.5959 7.2378 6.1068 0.0000 -10610.7093 1331.6738 0.0000 0.0000 1789.1102 -7469.9847 302.8835 -9259.0950 -7469.9847 302.8835 -1080.1890 -1000.2998 30267.2646 -1080.1890 -1000.2998
ENERGY: 300000 3.4644 4.2306 6.5690 0.0000 -10817.9923 1510.4649 0.0000 0.0000 1741.6200 -7551.6434 294.8438 -9293.2635 -7488.6585 299.4701 288.6651 395.0518 30380.2607 -158.8909 -63.5100
ENERGY: 600000 2.0453 5.9624 9.7432 0.0000 -10504.9993 1304.0688 0.0000 0.0000 1785.8817 -7397.2980 302.3369 -9183.1797 -7469.7762 299.8728 -978.5515 -976.9707 30703.5729 -275.2743 -198.2467
ENERGY: 900000 4.1653 6.1620 8.2594 0.0000 -10654.9703 1434.1408 0.0000 0.0000 1728.2772 -7473.9656 292.5849 -9202.2428 -7477.7887 299.4755 -106.1438 -21.7847 30479.2641 -173.0433 -100.5133
ENERGY: 1200000 3.5298 5.5107 3.6887 0.0000 -10760.6224 1452.0657 0.0000 0.0000 1812.2185 -7483.6089 306.7956 -9295.8274 -7485.2090 299.6268 79.7038 78.1463 30138.1991 -103.6637 -44.9438
ENERGY: 1500000 3.6873 5.3800 7.4800 0.0000 -10722.6831 1463.0301 0.0000 0.0000 1812.0249 -7431.0808 306.7628 -9243.1057 -7488.0635 300.1447 -120.3144 -5.8898 30471.1396 -51.4289 15.0276
TCL: Exiting due to exit command.
