Info: SIMULATION PARAMETERS:
Info: TIMESTEP               2
Info: NUMBER OF STEPS        0
Info: STEPS PER CYCLE        10
Info: PERIODIC CELL BASIS 1  31.6202 0 0
Info: PERIODIC CELL BASIS 2  0 31.5224 0
Info: PERIODIC CELL BASIS 3  0 0 30.7955
Info: PERIODIC CELL CENTER   0 0 0
Info: WRAPPING WATERS AROUND PERIODIC BOUNDARIES ON OUTPUT.
Info: WRAPPING ALL CLUSTERS AROUND PERIODIC BOUNDARIES ON OUTPUT.
Info: FIRST LDB TIMESTEP     50
Info: LAST LDB TIMESTEP     -1
Info: HOM BACKGROUND SCALING 1
Info: PME BACKGROUND SCALING 1
Info: MIN ATOMS PER PATCH    40
Info: EMPTY PATCH LOAD       40 ATOMS
Info: VELOCITY FILE          mobley_9671033_equil.vel
Info: CENTER OF MASS MOVING INITIALLY? NO
Info: DIELECTRIC             1
Info: EXCLUDE                SCALED ONE-FOUR
Info: 1-4 ELECTROSTATICS SCALED BY 0.833333
Info: MODIFIED 1-4 VDW PARAMETERS WILL BE USED
Info: DCD FILENAME           mobley_9671033_prod.dcd
Info: DCD FREQUENCY          100000
Info: DCD FIRST STEP         100000
Info: DCD FILE WILL CONTAIN UNIT CELL DATA
Info: XST FILENAME           mobley_9671033_prod.xst
Info: XST FREQUENCY          100000
Info: NO VELOCITY DCD OUTPUT
Info: NO FORCE DCD OUTPUT
Info: OUTPUT FILENAME        mobley_9671033_prod
Info: BINARY OUTPUT FILES WILL BE USED
Info: RESTART FILENAME       mobley_9671033_prod.restart
Info: RESTART FREQUENCY      100000
Info: BINARY RESTART FILES WILL BE USED
Info: CUTOFF                 9
Info: PAIRLIST DISTANCE      11
Info: PAIRLIST SHRINK RATE   0.01
Info: PAIRLIST GROW RATE     0.01
Info: PAIRLIST TRIGGER       0.3
Info: PAIRLISTS PER CYCLE    2
Info: PAIRLISTS ENABLED
Info: MARGIN                 2
Info: HYDROGEN GROUP CUTOFF  2.5
Info: PATCH DIMENSION        15.5
Info: ENERGY OUTPUT STEPS    100000
Info: ENERGY EVALUATION STEPS    100000
Info: OUTPUT ENERGY PRECISION 4
Info: CROSSTERM ENERGY INCLUDED IN DIHEDRAL
Info: TIMING OUTPUT STEPS    1000000
Info: PRESSURE OUTPUT STEPS  100000
Info: ALCHEMICAL FEP ON
Info: FEP CURRENT LAMBDA VALUE     0
Info: FEP COMPARISON LAMBDA VALUE  0.05
Info: FEP INTRA-ALCHEMICAL NON-BONDED INTERACTIONS WILL BE RETAINED
Info: FEP INTRA-ALCHEMICAL BONDED INTERACTIONS WILL BE RETAINED
Info: FEP VDW SHIFTING COEFFICIENT 5
Info: FEP ELEC. ACTIVE FOR ANNIHILATED PARTICLES BETWEEN LAMBDA = 0 AND LAMBDA = 0.5
Info: FEP ELEC. ACTIVE FOR EXNIHILATED PARTICLES BETWEEN LAMBDA = 0.5 AND LAMBDA = 1
Info: FEP VDW ACTIVE FOR ANNIHILATED PARTICLES BETWEEN LAMBDA = 0 AND LAMBDA = 1
Info: FEP VDW ACTIVE FOR EXNIHILATED PARTICLES BETWEEN LAMBDA = 0 AND LAMBDA = 1
Info: FEP BOND ACTIVE FOR ANNIHILATED PARTICLES BETWEEN LAMBDA = 1 AND LAMBDA = 1
Info: FEP BOND ACTIVE FOR EXNIHILATED PARTICLES BETWEEN LAMBDA = 0 AND LAMBDA = 0
Info: LANGEVIN DYNAMICS ACTIVE
Info: LANGEVIN TEMPERATURE   300
Info: LANGEVIN USING BBK INTEGRATOR
Info: LANGEVIN DAMPING COEFFICIENT IS 1 INVERSE PS
Info: LANGEVIN DYNAMICS APPLIED TO HYDROGENS
Info: LANGEVIN PISTON PRESSURE CONTROL ACTIVE
Info:        TARGET PRESSURE IS 1.01325 BAR
Info:     OSCILLATION PERIOD IS 50 FS
Info:             DECAY TIME IS 25 FS
Info:     PISTON TEMPERATURE IS 300 K
Info:       PRESSURE CONTROL IS GROUP-BASED
Info:    INITIAL STRAIN RATE IS -6.31897e-05 -6.31897e-05 -6.31897e-05
Info:       CELL FLUCTUATION IS ISOTROPIC
Info: PARTICLE MESH EWALD (PME) ACTIVE
Info: PME TOLERANCE               1e-06
Info: PME EWALD COEFFICIENT       0.348832
Info: PME INTERPOLATION ORDER     4
Info: PME GRID DIMENSIONS         32 32 32
Info: PME MAXIMUM GRID SPACING    1
Info: PME CALCULATION WILL BE PERFORMED ON GPU
Info: FULL ELECTROSTATIC EVALUATION FREQUENCY      2
Info: USING VERLET I (r-RESPA) MTS SCHEME.
Info: C1 SPLITTING OF LONG RANGE ELECTROSTATICS
Info: PLACING ATOMS IN PATCHES BY HYDROGEN GROUPS
Info: RIGID BONDS TO HYDROGEN : ALL
Info:         ERROR TOLERANCE : 1e-08
Info:          MAX ITERATIONS : 100
Info: RIGID WATER USING SETTLE ALGORITHM
Info: RANDOM NUMBER SEED     1743840099
Info: USE HYDROGEN BONDS?    NO
Info: Using AMBER format force field!
Info: AMBER PARM FILE        mobley_9671033.prmtop
Info: COORDINATE PDB         mobley_9671033.pdb
Info: Exclusions will be read from PARM file!
Info: SCNB (VDW SCALING)     2
Info: USING ARITHMETIC MEAN TO COMBINE L-J SIGMA PARAMETERS
Info: BINARY COORDINATES     mobley_9671033_equil.coor
Info: SUMMARY OF PARAMETERS:
Info: 7 BONDS
Info: 9 ANGLES
Info:   9 HARMONIC
Info:   0 COSINE-BASED
Info: 4 DIHEDRAL
Info: 0 IMPROPER
Info: 0 CROSSTERM
Info: 0 VDW
Info: 28 VDW_PAIRS
Info: 0 NBTHOLE_PAIRS
Info: To read alchdata from file: mobley_9671033.pdb
Info: To read alchflag data from column: 5
Info: STRUCTURE SUMMARY:
Info: 2935 ATOMS
Info: 2934 BONDS
Info: 21 ANGLES
Info: 24 DIHEDRALS
Info: 0 IMPROPERS
Info: 0 CROSSTERMS
Info: 2979 EXCLUSIONS
Info: 2929 RIGID BONDS
Info: ALCH: 0 ATOMS TO DISAPPEAR IN FINAL STATE
Info: ALCH: 13 ATOMS TO APPEAR IN FINAL STATE
Info: 5876 DEGREES OF FREEDOM
Info: 980 HYDROGEN GROUPS
Info: 4 ATOMS IN LARGEST HYDROGEN GROUP
Info: 980 MIGRATION GROUPS
Info: 4 ATOMS IN LARGEST MIGRATION GROUP
Info: TOTAL MASS = 17636.7 amu
Info: TOTAL CHARGE = -4.47035e-08 e
Info: MASS DENSITY = 0.954123 g/cm^3
Info: ATOM DENSITY = 0.0956173 atoms/A^3
Info: ADDED 0 IMPLICIT EXCLUSIONS
Info: NONBONDED TABLE R-SQUARED SPACING: 0.0625
Info: NONBONDED TABLE SIZE: 705 POINTS
Info: REDUCING NUMBER OF PATCHES TO IMPROVE LOAD BALANCE
Info: REMOVING COM VELOCITY 0.0318221 0.0549944 -0.104275
Info: Use 3D box decompostion in PME FFT.
Info: Updated CUDA force table with 4096 elements.
Info: Updated CUDA LJ table with 7 x 7 elements.
Info: Found 16 unique exclusion lists needing 32 bytes
TCL: Running for 1500000 steps
ETITLE: TS BOND ANGLE DIHED IMPRP ELECT VDW BOUNDARY MISC KINETIC TOTAL TEMP POTENTIAL TOTALAVG TEMPAVG PRESSURE GPRESSURE VOLUME PRESSAVG GPRESSAVG
ENERGY: 0 0.9156 4.3364 1.1739 0.0000 -10566.3824 1413.1050 0.0000 0.0000 1788.9237 -7357.9278 306.4082 -9146.8515 -7357.9278 306.4082 -221.3933 -144.6584 30695.2761 -221.3933 -144.6584
ENERGY: 300000 0.7872 6.6501 2.4042 0.0000 -10678.8996 1454.0513 0.0000 0.0000 1728.9728 -7486.0340 296.1398 -9215.0068 -7456.2543 300.9648 349.1688 385.5095 29585.9979 -73.6023 0.3750
ENERGY: 600000 2.6128 4.0633 1.1148 0.0000 -10616.3301 1430.5528 0.0000 0.0000 1767.6135 -7410.3729 302.7582 -9177.9864 -7422.9107 301.6485 -32.3280 67.3319 30200.7007 -18.8797 56.2571
ENERGY: 900000 0.5934 2.2858 0.2010 0.0000 -10719.5655 1438.9886 0.0000 0.0000 1748.7543 -7528.7424 299.5280 -9277.4968 -7434.4375 300.7078 -35.9133 22.5579 29565.3874 -90.4835 -19.7690
ENERGY: 1200000 0.7271 4.8842 0.4037 0.0000 -10649.4540 1443.2447 0.0000 0.0000 1733.3594 -7466.8350 296.8911 -9200.1944 -7444.8897 300.2630 260.2135 274.4948 29961.5356 -151.2972 -95.4661
ENERGY: 1500000 1.7215 3.8793 0.1379 0.0000 -10776.6258 1487.3599 0.0000 0.0000 1802.4138 -7481.1135 308.7188 -9283.5273 -7449.8114 301.5888 381.3741 459.4545 29849.3745 -121.3105 -60.0103
TCL: Running FEP window   2: Lambda1 0.05   Lambda2 0.1    [dLambda 0.05  ]
TCL: Setting parameter firsttimestep to 0
TCL: Setting parameter alchLambda to 0.05
Info: NONBONDED TABLE R-SQUARED SPACING: 0.0625
Info: NONBONDED TABLE SIZE: 705 POINTS
TCL: Setting parameter alchLambda2 to 0.1
Info: NONBONDED TABLE R-SQUARED SPACING: 0.0625
Info: NONBONDED TABLE SIZE: 705 POINTS
TCL: Running for 1500000 steps
ETITLE: TS BOND ANGLE DIHED IMPRP ELECT VDW BOUNDARY MISC KINETIC TOTAL TEMP POTENTIAL TOTALAVG TEMPAVG PRESSURE GPRESSURE VOLUME PRESSAVG GPRESSAVG
ENERGY: 0 1.7215 3.8793 0.1379 0.0000 -10776.6254 1489.3843 0.0000 0.0000 1801.5182 -7479.9843 308.5654 -9281.5025 -7479.9843 308.5654 383.3285 463.7443 29849.3745 383.3285 463.7443
ENERGY: 300000 1.8890 3.5742 0.3466 0.0000 -10697.5586 1440.3941 0.0000 0.0000 1698.8713 -7552.4835 290.9840 -9251.3548 -7460.7244 298.3417 8.5810 20.8729 29897.9473 99.8918 161.7668
ENERGY: 600000 1.3843 3.5021 1.8761 0.0000 -10759.8654 1498.0670 0.0000 0.0000 1756.5725 -7498.4635 300.8671 -9255.0360 -7463.9088 299.2819 584.7639 638.9834 29677.2387 33.7645 96.1577
ENERGY: 900000 0.3117 4.2613 0.1450 0.0000 -10557.5223 1390.8519 0.0000 0.0000 1795.0018 -7366.9506 307.4493 -9161.9524 -7460.9791 299.5386 -104.0697 0.3312 29965.7917 6.1320 78.3041
ENERGY: 1200000 2.3949 6.5391 0.6427 0.0000 -10703.2197 1466.6782 0.0000 0.0000 1846.6679 -7380.2968 316.2987 -9226.9647 -7453.3429 300.4618 350.1085 370.5969 29967.3439 -53.5478 14.7130
ENERGY: 1500000 0.2404 4.9313 0.1505 0.0000 -10646.7343 1432.5242 0.0000 0.0000 1714.0228 -7494.8651 293.5791 -9208.8880 -7459.6722 299.5592 -3.3008 110.0985 29841.4689 -62.8185 7.2707
TCL: Running FEP window   3: Lambda1 0.1    Lambda2 0.15000000000000002 [dLambda 0.05000000000000002]
TCL: Setting parameter firsttimestep to 0
TCL: Setting parameter alchLambda to 0.1
Info: NONBONDED TABLE R-SQUARED SPACING: 0.0625
Info: NONBONDED TABLE SIZE: 705 POINTS
TCL: Setting parameter alchLambda2 to 0.15000000000000002
Info: NONBONDED TABLE R-SQUARED SPACING: 0.0625
Info: NONBONDED TABLE SIZE: 705 POINTS
TCL: Running for 1500000 steps
ETITLE: TS BOND ANGLE DIHED IMPRP ELECT VDW BOUNDARY MISC KINETIC TOTAL TEMP POTENTIAL TOTALAVG TEMPAVG PRESSURE GPRESSURE VOLUME PRESSAVG GPRESSAVG
ENERGY: 0 0.2404 4.9313 0.1505 0.0000 -10646.7351 1433.4478 0.0000 0.0000 1713.1512 -7494.8140 293.4298 -9207.9652 -7494.8140 293.4298 31.3561 111.5168 29841.4689 31.3561 111.5168
ENERGY: 300000 1.6095 7.2117 0.6557 0.0000 -10676.9210 1433.3971 0.0000 0.0000 1738.2147 -7495.8323 297.7227 -9234.0470 -7487.1557 297.6786 59.3705 150.8252 29803.2661 108.4754 176.9390
ENERGY: 600000 1.4493 6.5591 0.7213 0.0000 -10562.2130 1336.8999 0.0000 0.0000 1767.1393 -7449.4442 302.6770 -9216.5834 -7475.5345 299.9814 -918.9933 -826.5457 30317.4822 -138.9258 -79.8792
ENERGY: 900000 1.0173 6.4091 0.5152 0.0000 -10658.3796 1439.6347 0.0000 0.0000 1733.1875 -7477.6158 296.8617 -9210.8033 -7469.5727 298.8328 259.5541 379.1654 29425.3877 -27.5543 36.3000
ENERGY: 1200000 4.4768 6.2751 0.1766 0.0000 -10554.7946 1386.1245 0.0000 0.0000 1756.0425 -7401.6991 300.7763 -9157.7416 -7452.2625 299.8670 -629.1858 -546.2772 30630.4787 -59.2352 -0.5320
ENERGY: 1500000 1.3408 4.1889 0.2446 0.0000 -10496.3605 1314.7332 0.0000 0.0000 1738.5794 -7437.2736 297.7852 -9175.8530 -7453.7257 299.3058 -952.1653 -883.6860 30110.0171 -69.9094 -8.1188
TCL: Running FEP window   4: Lambda1 0.15000000000000002 Lambda2 0.2    [dLambda 0.04999999999999999]
TCL: Setting parameter firsttimestep to 0
TCL: Setting parameter alchLambda to 0.15000000000000002
Info: NONBONDED TABLE R-SQUARED SPACING: 0.0625
Info: NONBONDED TABLE SIZE: 705 POINTS
TCL: Setting parameter alchLambda2 to 0.2
Info: NONBONDED TABLE R-SQUARED SPACING: 0.0625
Info: NONBONDED TABLE SIZE: 705 POINTS
TCL: Running for 1500000 steps
ETITLE: TS BOND ANGLE DIHED IMPRP ELECT VDW BOUNDARY MISC KINETIC TOTAL TEMP POTENTIAL TOTALAVG TEMPAVG PRESSURE GPRESSURE VOLUME PRESSAVG GPRESSAVG
ENERGY: 0 1.3408 4.1889 0.2446 0.0000 -10496.3600 1315.7324 0.0000 0.0000 1737.7416 -7437.1117 297.6417 -9174.8533 -7437.1117 297.6417 -952.5188 -876.4149 30110.0171 -952.5188 -876.4149
ENERGY: 300000 1.0718 4.2481 1.9871 0.0000 -10678.4767 1445.7873 0.0000 0.0000 1765.1077 -7460.2747 302.3290 -9225.3824 -7420.1750 301.0972 -386.6895 -336.6335 30875.2115 -557.9236 -500.8695
ENERGY: 600000 0.8183 4.3571 1.1049 0.0000 -10713.0704 1422.3180 0.0000 0.0000 1762.8317 -7521.6405 301.9392 -9284.4722 -7431.3911 303.8550 -319.6191 -236.7739 30119.9817 -381.6489 -323.9803
ENERGY: 900000 1.6762 3.0753 0.7955 0.0000 -10590.2347 1432.3994 0.0000 0.0000 1703.3435 -7448.9449 291.7500 -9152.2884 -7438.6059 301.2203 -50.3196 2.1791 30366.1256 -286.9001 -225.0785
ENERGY: 1200000 2.6621 7.0466 0.1409 0.0000 -10703.3757 1503.7769 0.0000 0.0000 1775.0912 -7414.6579 304.0390 -9189.7492 -7439.3870 300.7332 632.3618 703.6872 29878.0595 -227.1677 -166.4233
ENERGY: 1500000 1.2567 4.7311 0.0447 0.0000 -10582.2896 1375.3942 0.0000 0.0000 1748.5305 -7452.3322 299.4896 -9200.8627 -7443.2625 300.7186 -424.4871 -402.5060 29785.0938 -236.5782 -181.6020
TCL: Running FEP window   5: Lambda1 0.2    Lambda2 0.25   [dLambda 0.04999999999999999]
TCL: Setting parameter firsttimestep to 0
TCL: Setting parameter alchLambda to 0.2
Info: NONBONDED TABLE R-SQUARED SPACING: 0.0625
Info: NONBONDED TABLE SIZE: 705 POINTS
TCL: Setting parameter alchLambda2 to 0.25
Info: NONBONDED TABLE R-SQUARED SPACING: 0.0625
Info: NONBONDED TABLE SIZE: 705 POINTS
TCL: Running for 1500000 steps
ETITLE: TS BOND ANGLE DIHED IMPRP ELECT VDW BOUNDARY MISC KINETIC TOTAL TEMP POTENTIAL TOTALAVG TEMPAVG PRESSURE GPRESSURE VOLUME PRESSAVG GPRESSAVG
ENERGY: 0 1.2567 4.7311 0.0447 0.0000 -10582.2894 1376.9290 0.0000 0.0000 1747.6786 -7451.6493 299.3437 -9199.3279 -7451.6493 299.3437 -472.7350 -390.8407 29785.0938 -472.7350 -390.8407
ENERGY: 300000 2.3890 6.0838 0.5439 0.0000 -10663.4619 1444.8616 0.0000 0.0000 1735.1376 -7474.4459 297.1957 -9209.5835 -7462.6006 300.7634 215.6474 285.4771 29731.5183 75.2983 143.9976
ENERGY: 600000 1.2204 7.0073 0.1493 0.0000 -10629.7543 1366.9552 0.0000 0.0000 1728.9632 -7525.4589 296.1381 -9254.4220 -7467.8343 300.2799 -466.5507 -447.2149 29794.2137 -3.9182 69.0442
ENERGY: 900000 1.8856 6.2554 0.1783 0.0000 -10760.9825 1466.3102 0.0000 0.0000 1721.2115 -7565.1415 294.8104 -9286.3530 -7467.7876 301.0240 115.9855 141.8237 29994.3229 21.9298 85.1532
ENERGY: 1200000 1.5073 2.8627 0.0502 0.0000 -10536.1636 1361.5576 0.0000 0.0000 1693.9381 -7476.2476 290.1390 -9170.1858 -7464.3278 300.0380 -524.7340 -496.6466 30220.2205 -46.4937 12.9268
ENERGY: 1500000 1.4863 12.2569 0.1926 0.0000 -10558.5958 1384.3113 0.0000 0.0000 1724.5725 -7435.7762 295.3861 -9160.3487 -7454.3647 300.0579 -416.2598 -401.1841 30099.1301 -52.5029 3.6938
TCL: Running FEP window   6: Lambda1 0.25   Lambda2 0.3    [dLambda 0.04999999999999999]
TCL: Setting parameter firsttimestep to 0
TCL: Setting parameter alchLambda to 0.25
Info: NONBONDED TABLE R-SQUARED SPACING: 0.0625
Info: NONBONDED TABLE SIZE: 705 POINTS
TCL: Setting parameter alchLambda2 to 0.3
Info: NONBONDED TABLE R-SQUARED SPACING: 0.0625
Info: NONBONDED TABLE SIZE: 705 POINTS
TCL: Running for 1500000 steps
ETITLE: TS BOND ANGLE DIHED IMPRP ELECT VDW BOUNDARY MISC KINETIC TOTAL TEMP POTENTIAL TOTALAVG TEMPAVG PRESSURE GPRESSURE VOLUME PRESSAVG GPRESSAVG
ENERGY: 0 1.4863 12.2569 0.1926 0.0000 -10558.5976 1385.5076 0.0000 0.0000 1723.6707 -7435.4835 295.2316 -9159.1542 -7435.4835 295.2316 -488.4456 -394.9096 30099.1301 -488.4456 -394.9096
ENERGY: 300000 0.1485 5.4116 0.3242 0.0000 -10584.1596 1433.3248 0.0000 0.0000 1752.3932 -7392.5574 300.1512 -9144.9506 -7426.8991 298.6886 358.6499 473.8760 29686.2998 -342.1420 -245.8031
ENERGY: 600000 4.7902 4.5153 0.3657 0.0000 -10567.2186 1386.1693 0.0000 0.0000 1738.8588 -7432.5194 297.8331 -9171.3782 -7452.2528 297.1659 -320.4747 -274.1008 30200.7677 -264.4976 -183.1052
ENERGY: 900000 3.5682 7.8605 0.4484 0.0000 -10651.2305 1470.9477 0.0000 0.0000 1780.5223 -7387.8834 304.9692 -9168.4056 -7440.4846 298.1006 229.0321 359.0554 30300.6213 -85.0782 -13.9852
ENERGY: 1200000 1.2517 4.9838 0.1990 0.0000 -10499.1634 1315.0839 0.0000 0.0000 1755.7176 -7421.9274 300.7207 -9177.6450 -7427.5129 300.3516 -1063.4929 -1027.1972 30525.0074 -197.4294 -130.2182
ENERGY: 1500000 3.2108 6.1116 0.2680 0.0000 -10504.6123 1383.4139 0.0000 0.0000 1808.1767 -7303.4312 309.7059 -9111.6079 -7431.3351 300.5775 -323.1712 -210.7437 30496.4073 -196.4279 -125.5189
TCL: Running FEP window   7: Lambda1 0.3    Lambda2 0.35   [dLambda 0.04999999999999999]
TCL: Setting parameter firsttimestep to 0
TCL: Setting parameter alchLambda to 0.3
Info: NONBONDED TABLE R-SQUARED SPACING: 0.0625
Info: NONBONDED TABLE SIZE: 705 POINTS
TCL: Setting parameter alchLambda2 to 0.35
Info: NONBONDED TABLE R-SQUARED SPACING: 0.0625
Info: NONBONDED TABLE SIZE: 705 POINTS
TCL: Running for 1500000 steps
ETITLE: TS BOND ANGLE DIHED IMPRP ELECT VDW BOUNDARY MISC KINETIC TOTAL TEMP POTENTIAL TOTALAVG TEMPAVG PRESSURE GPRESSURE VOLUME PRESSAVG GPRESSAVG
ENERGY: 0 3.2108 6.1116 0.2680 0.0000 -10504.6135 1383.1405 0.0000 0.0000 1807.2689 -7304.6137 309.5504 -9111.8826 -7304.6137 309.5504 -292.4271 -211.1650 30496.4073 -292.4271 -211.1650
ENERGY: 300000 1.1643 5.2019 0.5284 0.0000 -10533.7453 1374.0587 0.0000 0.0000 1749.7787 -7403.0133 299.7034 -9152.7920 -7404.9222 302.9832 -270.9080 -241.0005 29880.7284 104.8977 169.1716
ENERGY: 600000 1.7807 5.6707 1.1123 0.0000 -10609.4714 1401.9262 0.0000 0.0000 1729.6351 -7469.3465 296.2532 -9198.9816 -7434.4849 299.5411 -163.3898 -193.0340 30305.0199 18.1477 71.6359
ENERGY: 900000 0.7878 3.5759 0.3097 0.0000 -10597.7655 1400.0747 0.0000 0.0000 1770.5712 -7422.4460 303.2648 -9193.0172 -7428.7172 300.0696 -300.5906 -182.6283 30219.6574 33.1538 92.6165
ENERGY: 1200000 1.2519 4.8765 1.0328 0.0000 -10624.1114 1375.5544 0.0000 0.0000 1764.6119 -7476.7839 302.2441 -9241.3958 -7441.8525 299.9751 -372.4944 -287.5097 29748.5751 49.3431 108.2822
ENERGY: 1500000 1.9805 5.7582 2.4155 0.0000 -10697.8719 1475.2284 0.0000 0.0000 1731.2467 -7481.2425 296.5293 -9212.4892 -7451.6643 300.3909 138.5760 156.6567 30462.2311 27.9803 85.8992
TCL: Running FEP window   8: Lambda1 0.35   Lambda2 0.39999999999999997 [dLambda 0.04999999999999999]
TCL: Setting parameter firsttimestep to 0
TCL: Setting parameter alchLambda to 0.35
Info: NONBONDED TABLE R-SQUARED SPACING: 0.0625
Info: NONBONDED TABLE SIZE: 705 POINTS
TCL: Setting parameter alchLambda2 to 0.39999999999999997
Info: NONBONDED TABLE R-SQUARED SPACING: 0.0625
Info: NONBONDED TABLE SIZE: 705 POINTS
TCL: Running for 1500000 steps
ETITLE: TS BOND ANGLE DIHED IMPRP ELECT VDW BOUNDARY MISC KINETIC TOTAL TEMP POTENTIAL TOTALAVG TEMPAVG PRESSURE GPRESSURE VOLUME PRESSAVG GPRESSAVG
ENERGY: 0 1.9805 5.7582 2.4155 0.0000 -10697.8726 1475.9103 0.0000 0.0000 1730.3785 -7481.4296 296.3805 -9211.8080 -7481.4296 296.3805 93.0196 167.1749 30462.2311 93.0196 167.1749
ENERGY: 300000 0.6066 5.0234 0.4711 0.0000 -10639.3728 1463.5700 0.0000 0.0000 1783.7377 -7385.9642 305.5200 -9169.7019 -7434.3582 301.8063 401.8871 408.9276 30308.5883 400.4574 433.8221
ENERGY: 600000 0.8270 4.8040 0.8248 0.0000 -10478.7550 1321.9989 0.0000 0.0000 1790.1434 -7360.1569 306.6171 -9150.3003 -7424.1453 302.7433 -663.3101 -656.0810 30127.7255 -99.7664 -55.1667
ENERGY: 900000 2.3162 6.9196 0.6347 0.0000 -10689.9004 1478.9390 0.0000 0.0000 1770.8495 -7430.2413 303.3125 -9201.0909 -7440.7025 301.3982 566.6475 610.6938 29787.7982 -43.5869 -1.6750
ENERGY: 1200000 0.9029 2.4085 0.6805 0.0000 -10691.4373 1507.8201 0.0000 0.0000 1728.0881 -7451.5372 295.9883 -9179.6253 -7461.5229 300.2339 431.4406 535.3556 30239.7618 11.1074 71.4365
ENERGY: 1500000 1.0270 7.4138 0.3440 0.0000 -10572.0493 1396.1213 0.0000 0.0000 1698.4397 -7468.7035 290.9101 -9167.1432 -7458.7886 299.9442 -195.6634 -172.1493 30237.3373 -21.4869 38.1544
TCL: Running FEP window   9: Lambda1 0.39999999999999997 Lambda2 0.44999999999999996 [dLambda 0.04999999999999999]
TCL: Setting parameter firsttimestep to 0
TCL: Setting parameter alchLambda to 0.39999999999999997
Info: NONBONDED TABLE R-SQUARED SPACING: 0.0625
Info: NONBONDED TABLE SIZE: 705 POINTS
TCL: Setting parameter alchLambda2 to 0.44999999999999996
Info: NONBONDED TABLE R-SQUARED SPACING: 0.0625
Info: NONBONDED TABLE SIZE: 705 POINTS
TCL: Running for 1500000 steps
ETITLE: TS BOND ANGLE DIHED IMPRP ELECT VDW BOUNDARY MISC KINETIC TOTAL TEMP POTENTIAL TOTALAVG TEMPAVG PRESSURE GPRESSURE VOLUME PRESSAVG GPRESSAVG
ENERGY: 0 1.0270 7.4138 0.3440 0.0000 -10572.0495 1396.1906 0.0000 0.0000 1697.5240 -7469.5499 290.7532 -9167.0740 -7469.5499 290.7532 -270.4099 -167.0735 30237.3373 -270.4099 -167.0735
ENERGY: 300000 1.4624 2.9345 0.4773 0.0000 -10723.7815 1477.1026 0.0000 0.0000 1744.2235 -7497.5813 298.7519 -9241.8047 -7504.6263 293.9398 198.2881 260.3965 29997.2185 -311.6775 -244.8525
ENERGY: 600000 3.0109 8.5814 1.1514 0.0000 -10676.3475 1455.6963 0.0000 0.0000 1685.1640 -7522.7434 288.6362 -9207.9074 -7501.9482 294.1246 457.8512 622.4427 29508.1493 -346.1554 -269.7889
ENERGY: 900000 5.3650 5.5944 1.0987 0.0000 -10515.5823 1328.2156 0.0000 0.0000 1751.7388 -7423.5698 300.0392 -9175.3086 -7470.9582 296.3424 -918.2733 -881.8521 30287.9296 -352.2103 -276.0351
ENERGY: 1200000 2.2293 7.8960 1.9528 0.0000 -10615.0695 1433.0865 0.0000 0.0000 1714.3695 -7455.5356 293.6385 -9169.9050 -7460.9978 296.6299 70.4870 92.8009 30323.2337 -193.9810 -128.1561
ENERGY: 1500000 1.4033 3.5025 0.1733 0.0000 -10599.3632 1407.8468 0.0000 0.0000 1730.8892 -7455.5481 296.4680 -9186.4373 -7462.5910 296.8193 2.8767 35.1882 30047.0632 -190.3873 -124.4089
TCL: Running FEP window  10: Lambda1 0.44999999999999996 Lambda2 0.49999999999999994 [dLambda 0.04999999999999999]
TCL: Setting parameter firsttimestep to 0
TCL: Setting parameter alchLambda to 0.44999999999999996
Info: NONBONDED TABLE R-SQUARED SPACING: 0.0625
Info: NONBONDED TABLE SIZE: 705 POINTS
TCL: Setting parameter alchLambda2 to 0.49999999999999994
Info: NONBONDED TABLE R-SQUARED SPACING: 0.0625
Info: NONBONDED TABLE SIZE: 705 POINTS
TCL: Running for 1500000 steps
ETITLE: TS BOND ANGLE DIHED IMPRP ELECT VDW BOUNDARY MISC KINETIC TOTAL TEMP POTENTIAL TOTALAVG TEMPAVG PRESSURE GPRESSURE VOLUME PRESSAVG GPRESSAVG
ENERGY: 0 1.4033 3.5025 0.1733 0.0000 -10599.3630 1407.6908 0.0000 0.0000 1730.0053 -7456.5878 296.3166 -9186.5931 -7456.5878 296.3166 -54.4131 39.5890 30047.0632 -54.4131 39.5890
ENERGY: 300000 1.0476 4.7045 2.0261 0.0000 -10613.6304 1396.1449 0.0000 0.0000 1743.9403 -7465.7670 298.7034 -9209.7073 -7478.8750 299.9046 -325.2978 -307.8462 30178.0602 -269.0795 -229.6736
ENERGY: 600000 2.7079 8.0482 0.1480 0.0000 -10620.3694 1434.3030 0.0000 0.0000 1763.2439 -7411.9183 302.0098 -9175.1622 -7466.4170 300.0223 242.8477 330.8816 29906.9487 -38.2360 18.9123
ENERGY: 900000 1.5160 6.4371 0.9204 0.0000 -10546.6344 1397.8155 0.0000 0.0000 1719.3259 -7420.6195 294.4875 -9139.9454 -7455.8098 299.9228 -294.1921 -179.3439 30384.7841 -109.9979 -42.8900
ENERGY: 1200000 1.6598 4.6374 1.0267 0.0000 -10576.9456 1423.5133 0.0000 0.0000 1760.2645 -7385.8438 301.4995 -9146.1084 -7452.5898 300.0536 176.6723 293.8541 30062.8109 -11.0948 54.0514
ENERGY: 1500000 1.2435 5.6864 0.5518 0.0000 -10671.5552 1473.8357 0.0000 0.0000 1790.8918 -7399.3461 306.7453 -9190.2379 -7448.5975 300.8719 -18.7589 76.9142 31003.1495 30.4205 102.7498
TCL: Running FEP window  11: Lambda1 0.49999999999999994 Lambda2 0.5499999999999999 [dLambda 0.04999999999999999]
TCL: Setting parameter firsttimestep to 0
TCL: Setting parameter alchLambda to 0.49999999999999994
Info: NONBONDED TABLE R-SQUARED SPACING: 0.0625
Info: NONBONDED TABLE SIZE: 705 POINTS
TCL: Setting parameter alchLambda2 to 0.5499999999999999
Info: NONBONDED TABLE R-SQUARED SPACING: 0.0625
Info: NONBONDED TABLE SIZE: 705 POINTS
TCL: Running for 1500000 steps
ETITLE: TS BOND ANGLE DIHED IMPRP ELECT VDW BOUNDARY MISC KINETIC TOTAL TEMP POTENTIAL TOTALAVG TEMPAVG PRESSURE GPRESSURE VOLUME PRESSAVG GPRESSAVG
ENERGY: 0 1.2435 5.6864 0.5518 0.0000 -10671.5545 1473.5568 0.0000 0.0000 1790.0144 -7400.5017 306.5950 -9190.5161 -7400.5017 306.5950 6.2923 81.1963 31003.1495 6.2923 81.1963
ENERGY: 300000 0.2761 3.9833 0.4194 0.0000 -10564.7079 1436.0692 0.0000 0.0000 1769.3243 -7354.6356 303.0512 -9123.9599 -7410.0567 304.7330 181.1804 242.1683 30405.5263 7.8409 44.7011
ENERGY: 600000 0.8871 7.6431 0.6905 0.0000 -10599.2654 1336.3701 0.0000 0.0000 1832.6204 -7421.0542 313.8926 -9253.6746 -7431.2049 305.8214 -821.4124 -749.0482 30107.9037 -128.2763 -66.5230
ENERGY: 900000 1.2267 5.5334 0.1562 0.0000 -10705.0159 1434.9008 0.0000 0.0000 1779.5796 -7483.6192 304.8078 -9263.1988 -7432.6118 304.7067 -74.4378 -40.9641 30102.1213 8.5074 71.1324
ENERGY: 1200000 0.8257 4.0534 0.5388 0.0000 -10760.6332 1443.1706 0.0000 0.0000 1728.8965 -7583.1481 296.1267 -9312.0446 -7430.0344 304.3104 21.5755 68.8520 29685.1207 -20.4217 38.1842
ENERGY: 1500000 1.9570 5.0997 0.7055 0.0000 -10688.5121 1444.7554 0.0000 0.0000 1766.5369 -7469.4575 302.5738 -9235.9944 -7428.0852 303.9246 -57.4907 -40.2145 30302.6281 -25.0884 28.0085
TCL: Running FEP window  12: Lambda1 0.5499999999999999 Lambda2 0.6    [dLambda 0.050000000000000044]
TCL: Setting parameter firsttimestep to 0
TCL: Setting parameter alchLambda to 0.5499999999999999
Info: NONBONDED TABLE R-SQUARED SPACING: 0.0625
Info: NONBONDED TABLE SIZE: 705 POINTS
TCL: Setting parameter alchLambda2 to 0.6
Info: NONBONDED TABLE R-SQUARED SPACING: 0.0625
Info: NONBONDED TABLE SIZE: 705 POINTS
TCL: Running for 1500000 steps
ETITLE: TS BOND ANGLE DIHED IMPRP ELECT VDW BOUNDARY MISC KINETIC TOTAL TEMP POTENTIAL TOTALAVG TEMPAVG PRESSURE GPRESSURE VOLUME PRESSAVG GPRESSAVG
ENERGY: 0 1.9570 5.0997 0.7055 0.0000 -10688.7976 1444.3388 0.0000 0.0000 1765.6954 -7471.0011 302.4297 -9236.6965 -7471.0011 302.4297 -106.0136 -40.4225 30302.6281 -106.0136 -40.4225
ENERGY: 300000 0.7866 4.8191 0.3944 0.0000 -10771.1960 1434.4546 0.0000 0.0000 1774.0222 -7556.7191 303.8559 -9330.7412 -7480.9893 298.2981 -340.1547 -228.5775 29910.9834 -438.8433 -367.4869
ENERGY: 600000 3.2817 4.8159 0.6537 0.0000 -10613.4082 1443.1344 0.0000 0.0000 1769.2271 -7392.2954 303.0346 -9161.5224 -7449.2656 299.9918 189.1226 225.7263 30659.5167 -193.0762 -132.4805
ENERGY: 900000 0.9294 5.7191 0.1491 0.0000 -10533.6582 1349.1596 0.0000 0.0000 1749.4226 -7428.2783 299.6424 -9177.7009 -7437.3176 300.0249 -466.7127 -408.5327 30174.1961 -42.0383 23.2230
ENERGY: 1200000 0.3957 6.3135 0.1673 0.0000 -10446.2517 1318.7510 0.0000 0.0000 1753.8870 -7366.7372 300.4071 -9120.6242 -7436.1136 299.9296 -707.4213 -636.8242 30204.2868 -84.8893 -16.9365
ENERGY: 1500000 1.5258 6.5900 0.8287 0.0000 -10700.8609 1499.8236 0.0000 0.0000 1714.5779 -7477.5150 293.6742 -9192.0929 -7436.4029 299.3138 617.1626 750.1143 29979.2368 -50.0513 26.8247
TCL: Running FEP window  13: Lambda1 0.6    Lambda2 0.65   [dLambda 0.050000000000000044]
TCL: Setting parameter firsttimestep to 0
TCL: Setting parameter alchLambda to 0.6
Info: NONBONDED TABLE R-SQUARED SPACING: 0.0625
Info: NONBONDED TABLE SIZE: 705 POINTS
TCL: Setting parameter alchLambda2 to 0.65
Info: NONBONDED TABLE R-SQUARED SPACING: 0.0625
Info: NONBONDED TABLE SIZE: 705 POINTS
TCL: Running for 1500000 steps
ETITLE: TS BOND ANGLE DIHED IMPRP ELECT VDW BOUNDARY MISC KINETIC TOTAL TEMP POTENTIAL TOTALAVG TEMPAVG PRESSURE GPRESSURE VOLUME PRESSAVG GPRESSAVG
ENERGY: 0 1.5258 6.5900 0.8287 0.0000 -10701.2126 1500.0215 0.0000 0.0000 1713.7070 -7478.5396 293.5251 -9192.2467 -7478.5396 293.5251 668.5562 755.8179 29979.2368 668.5562 755.8179
ENERGY: 300000 1.1883 4.0372 0.2644 0.0000 -10532.9255 1371.3269 0.0000 0.0000 1808.5167 -7347.5920 309.7641 -9156.1087 -7459.7126 300.5086 -299.1490 -199.5583 30521.2684 -3.2481 74.6290
ENERGY: 600000 1.1785 6.9210 0.1977 0.0000 -10755.6007 1497.1629 0.0000 0.0000 1736.2224 -7513.9183 297.3815 -9250.1407 -7455.7782 300.1149 109.2009 217.8299 30504.3753 -22.5387 39.9556
ENERGY: 900000 0.9494 4.9847 0.5619 0.0000 -10547.2362 1422.1739 0.0000 0.0000 1789.9254 -7328.6409 306.5798 -9118.5663 -7442.1926 299.5711 216.9132 273.0036 30396.3369 -79.2598 -22.2021
ENERGY: 1200000 0.5802 5.2926 0.6829 0.0000 -10610.6346 1400.4030 0.0000 0.0000 1771.8643 -7431.8116 303.4863 -9203.6759 -7431.5406 301.7082 -263.4747 -189.6128 30348.1011 -110.3320 -50.4070
ENERGY: 1500000 1.2356 4.5262 0.7270 0.0000 -10868.2154 1512.3491 0.0000 0.0000 1743.3821 -7605.9954 298.6078 -9349.3775 -7438.3975 301.6399 304.7608 322.8444 29893.4117 -11.6052 47.3696
TCL: Running FEP window  14: Lambda1 0.65   Lambda2 0.7000000000000001 [dLambda 0.050000000000000044]
TCL: Setting parameter firsttimestep to 0
TCL: Setting parameter alchLambda to 0.65
Info: NONBONDED TABLE R-SQUARED SPACING: 0.0625
Info: NONBONDED TABLE SIZE: 705 POINTS
TCL: Setting parameter alchLambda2 to 0.7000000000000001
Info: NONBONDED TABLE R-SQUARED SPACING: 0.0625
Info: NONBONDED TABLE SIZE: 705 POINTS
TCL: Running for 1500000 steps
ETITLE: TS BOND ANGLE DIHED IMPRP ELECT VDW BOUNDARY MISC KINETIC TOTAL TEMP POTENTIAL TOTALAVG TEMPAVG PRESSURE GPRESSURE VOLUME PRESSAVG GPRESSAVG
ENERGY: 0 1.2356 4.5262 0.7270 0.0000 -10868.0486 1512.5758 0.0000 0.0000 1742.4884 -7606.4956 298.4547 -9348.9839 -7606.4956 298.4547 253.4148 333.8873 29893.4117 253.4148 333.8873
ENERGY: 300000 1.1318 5.4348 0.6435 0.0000 -10567.1211 1388.2635 0.0000 0.0000 1798.4358 -7373.2117 308.0375 -9171.6475 -7422.9037 303.5831 -238.5496 -202.6519 30124.9358 96.8284 147.7691
ENERGY: 600000 1.1084 3.8358 0.0438 0.0000 -10705.8150 1487.6472 0.0000 0.0000 1751.0510 -7462.1287 299.9214 -9213.1797 -7446.1777 301.8493 590.6028 693.9957 29774.8524 87.2719 150.7944
ENERGY: 900000 0.2972 4.2252 0.0949 0.0000 -10718.3660 1493.1867 0.0000 0.0000 1788.5582 -7432.0039 306.3456 -9220.5621 -7434.3736 303.1803 467.9332 479.3243 30190.9424 150.1717 208.6366
ENERGY: 1200000 4.4754 5.3948 0.1562 0.0000 -10601.5086 1418.0583 0.0000 0.0000 1806.0135 -7367.4104 309.3354 -9173.4239 -7431.8999 302.7488 -175.8829 -45.4556 30207.8329 50.2359 115.2546
ENERGY: 1500000 1.1641 8.2525 0.8079 0.0000 -10610.9135 1422.0429 0.0000 0.0000 1744.8856 -7433.7606 298.8653 -9178.6462 -7438.0679 301.9925 -48.8638 -4.8929 30388.7439 57.9562 128.3239
TCL: Running FEP window  15: Lambda1 0.7000000000000001 Lambda2 0.7500000000000001 [dLambda 0.050000000000000044]
TCL: Setting parameter firsttimestep to 0
TCL: Setting parameter alchLambda to 0.7000000000000001
Info: NONBONDED TABLE R-SQUARED SPACING: 0.0625
Info: NONBONDED TABLE SIZE: 705 POINTS
TCL: Setting parameter alchLambda2 to 0.7500000000000001
Info: NONBONDED TABLE R-SQUARED SPACING: 0.0625
Info: NONBONDED TABLE SIZE: 705 POINTS
TCL: Running for 1500000 steps
ETITLE: TS BOND ANGLE DIHED IMPRP ELECT VDW BOUNDARY MISC KINETIC TOTAL TEMP POTENTIAL TOTALAVG TEMPAVG PRESSURE GPRESSURE VOLUME PRESSAVG GPRESSAVG
ENERGY: 0 1.1641 8.2525 0.8079 0.0000 -10611.0604 1422.1650 0.0000 0.0000 1743.9867 -7434.6843 298.7114 -9178.6710 -7434.6843 298.7114 -74.1649 4.4835 30388.7439 -74.1649 4.4835
ENERGY: 300000 2.3788 4.9186 0.7218 0.0000 -10506.6973 1361.6256 0.0000 0.0000 1701.0823 -7435.9702 291.3627 -9137.0525 -7461.3956 296.8296 -15.7969 16.7695 29750.4229 -322.9054 -254.7154
ENERGY: 600000 1.2772 5.7196 0.2069 0.0000 -10681.5046 1454.4180 0.0000 0.0000 1752.4912 -7467.3916 300.1680 -9219.8828 -7470.3244 298.0738 182.7883 180.7896 30322.4284 -98.8031 -50.8562
ENERGY: 900000 1.0429 5.2838 1.1605 0.0000 -10615.6621 1395.6995 0.0000 0.0000 1760.2155 -7452.2599 301.4911 -9212.4754 -7467.0481 299.5334 -270.7547 -205.1188 30135.1680 -102.8499 -54.2464
ENERGY: 1200000 1.6628 3.7813 0.6055 0.0000 -10577.0832 1356.8892 0.0000 0.0000 1745.3075 -7468.8369 298.9376 -9214.1444 -7466.3744 299.8264 -559.2891 -395.8849 30056.1112 -91.5653 -31.0854
ENERGY: 1500000 1.9455 5.7785 0.5274 0.0000 -10577.5688 1406.2189 0.0000 0.0000 1769.9643 -7393.1341 303.1608 -9163.0984 -7457.1147 300.0321 -6.6739 78.8436 30203.7013 -119.8202 -59.3695
TCL: Running FEP window  16: Lambda1 0.7500000000000001 Lambda2 0.8000000000000002 [dLambda 0.050000000000000044]
TCL: Setting parameter firsttimestep to 0
TCL: Setting parameter alchLambda to 0.7500000000000001
Info: NONBONDED TABLE R-SQUARED SPACING: 0.0625
Info: NONBONDED TABLE SIZE: 705 POINTS
TCL: Setting parameter alchLambda2 to 0.8000000000000002
Info: NONBONDED TABLE R-SQUARED SPACING: 0.0625
Info: NONBONDED TABLE SIZE: 705 POINTS
TCL: Running for 1500000 steps
ETITLE: TS BOND ANGLE DIHED IMPRP ELECT VDW BOUNDARY MISC KINETIC TOTAL TEMP POTENTIAL TOTALAVG TEMPAVG PRESSURE GPRESSURE VOLUME PRESSAVG GPRESSAVG
ENERGY: 0 1.9455 5.7785 0.5274 0.0000 -10577.4763 1406.8880 0.0000 0.0000 1769.0620 -7393.2748 303.0063 -9162.3368 -7393.2748 303.0063 13.4564 95.9910 30203.7013 13.4564 95.9910
ENERGY: 300000 1.9630 5.6477 0.1320 0.0000 -10633.9791 1427.2517 0.0000 0.0000 1760.4653 -7438.5195 301.5338 -9198.9847 -7456.8350 299.7009 -131.8983 -54.6079 30291.3879 186.9978 260.1806
ENERGY: 600000 1.5218 3.5131 0.1674 0.0000 -10591.9861 1477.2477 0.0000 0.0000 1670.1717 -7439.3645 286.0683 -9109.5362 -7466.0644 296.5953 405.0309 490.9237 30550.5452 144.5720 215.4179
ENERGY: 900000 1.3983 6.4391 0.1850 0.0000 -10675.2555 1430.7254 0.0000 0.0000 1748.4155 -7488.0922 299.4699 -9236.5077 -7460.6021 298.6807 -54.6216 27.4204 29854.7715 103.5667 175.1713
ENERGY: 1200000 0.3354 2.3505 0.5939 0.0000 -10789.7936 1517.5137 0.0000 0.0000 1797.7272 -7471.2730 307.9161 -9269.0001 -7453.3194 299.5105 506.3501 533.9153 30096.1339 132.4471 198.1343
ENERGY: 1500000 0.3696 7.9920 2.6697 0.0000 -10672.4835 1479.4134 0.0000 0.0000 1716.7561 -7465.2827 294.0473 -9182.0388 -7446.4297 300.2737 435.3159 434.6910 30322.6911 94.2446 153.9918
TCL: Running FEP window  17: Lambda1 0.8000000000000002 Lambda2 0.8500000000000002 [dLambda 0.050000000000000044]
TCL: Setting parameter firsttimestep to 0
TCL: Setting parameter alchLambda to 0.8000000000000002
Info: NONBONDED TABLE R-SQUARED SPACING: 0.0625
Info: NONBONDED TABLE SIZE: 705 POINTS
TCL: Setting parameter alchLambda2 to 0.8500000000000002
Info: NONBONDED TABLE R-SQUARED SPACING: 0.0625
Info: NONBONDED TABLE SIZE: 705 POINTS
TCL: Running for 1500000 steps
ETITLE: TS BOND ANGLE DIHED IMPRP ELECT VDW BOUNDARY MISC KINETIC TOTAL TEMP POTENTIAL TOTALAVG TEMPAVG PRESSURE GPRESSURE VOLUME PRESSAVG GPRESSAVG
ENERGY: 0 0.3696 7.9920 2.6697 0.0000 -10672.8739 1479.5664 0.0000 0.0000 1715.9146 -7466.3616 293.9032 -9182.2762 -7466.3616 293.9032 377.7971 445.4158 30322.6911 377.7971 445.4158
ENERGY: 300000 2.6552 4.3331 0.2425 0.0000 -10723.0785 1456.3552 0.0000 0.0000 1694.1667 -7565.3258 290.1782 -9259.4925 -7474.3383 295.8801 -50.7834 4.4960 30217.3641 -115.6284 -78.0795
ENERGY: 600000 0.6769 3.7961 0.2151 0.0000 -10565.7694 1340.9907 0.0000 0.0000 1708.3878 -7511.7027 292.6140 -9220.0905 -7471.5188 297.2464 -658.8673 -540.3809 29864.7436 -161.5518 -111.3372
ENERGY: 900000 1.0417 4.1845 0.3941 0.0000 -10672.6003 1485.9052 0.0000 0.0000 1761.1626 -7419.9123 301.6533 -9181.0749 -7459.0734 298.9719 551.5085 593.0009 30395.6848 -89.4450 -40.5353
ENERGY: 1200000 0.9570 6.7901 2.7486 0.0000 -10543.1544 1367.9384 0.0000 0.0000 1728.2617 -7436.4587 296.0180 -9164.7203 -7453.1989 297.6796 -252.0247 -212.4542 30198.2115 -185.8887 -135.2936
ENERGY: 1500000 1.8065 5.8471 0.2603 0.0000 -10640.0724 1407.6842 0.0000 0.0000 1777.1930 -7447.2813 304.3990 -9224.4743 -7444.8854 299.5408 -463.2623 -384.7306 30490.3476 -173.0691 -121.6136
TCL: Running FEP window  18: Lambda1 0.8500000000000002 Lambda2 0.9000000000000002 [dLambda 0.050000000000000044]
TCL: Setting parameter firsttimestep to 0
TCL: Setting parameter alchLambda to 0.8500000000000002
Info: NONBONDED TABLE R-SQUARED SPACING: 0.0625
Info: NONBONDED TABLE SIZE: 705 POINTS
TCL: Setting parameter alchLambda2 to 0.9000000000000002
Info: NONBONDED TABLE R-SQUARED SPACING: 0.0625
Info: NONBONDED TABLE SIZE: 705 POINTS
TCL: Running for 1500000 steps
ETITLE: TS BOND ANGLE DIHED IMPRP ELECT VDW BOUNDARY MISC KINETIC TOTAL TEMP POTENTIAL TOTALAVG TEMPAVG PRESSURE GPRESSURE VOLUME PRESSAVG GPRESSAVG
ENERGY: 0 1.8065 5.8471 0.2603 0.0000 -10640.5930 1408.4007 0.0000 0.0000 1776.3272 -7447.9511 304.2507 -9224.2783 -7447.9511 304.2507 -459.5372 -367.7379 30490.3476 -459.5372 -367.7379
ENERGY: 300000 1.4055 8.1154 0.9667 0.0000 -10450.8441 1349.9051 0.0000 0.0000 1773.7270 -7316.7243 303.8053 -9090.4513 -7404.2475 304.3007 -527.7364 -510.0762 30859.0011 -261.8753 -175.3481
ENERGY: 600000 0.1544 3.2523 0.0378 0.0000 -10697.2731 1498.6769 0.0000 0.0000 1713.0470 -7482.1046 293.4120 -9195.1516 -7432.2936 300.1390 986.7442 1022.2484 29404.7112 -61.8733 14.2929
ENERGY: 900000 0.8548 4.4739 0.1216 0.0000 -10575.9156 1390.1516 0.0000 0.0000 1746.7159 -7433.5978 299.1788 -9180.3137 -7448.5731 299.3309 -38.7998 -8.2496 30063.0517 -127.7998 -54.1244
ENERGY: 1200000 0.4903 6.0379 0.0959 0.0000 -10639.8663 1405.3833 0.0000 0.0000 1833.7803 -7394.0787 314.0913 -9227.8590 -7449.2230 300.1762 -131.4722 -12.5882 29874.2526 -104.1986 -20.0677
ENERGY: 1500000 0.9294 5.1883 1.9072 0.0000 -10647.4377 1418.8773 0.0000 0.0000 1679.3413 -7541.1942 287.6389 -9220.5355 -7445.9411 299.7297 -347.4288 -194.5282 30499.3617 -133.4696 -49.3342
TCL: Running FEP window  19: Lambda1 0.9000000000000002 Lambda2 0.9500000000000003 [dLambda 0.050000000000000044]
TCL: Setting parameter firsttimestep to 0
TCL: Setting parameter alchLambda to 0.9000000000000002
Info: NONBONDED TABLE R-SQUARED SPACING: 0.0625
Info: NONBONDED TABLE SIZE: 705 POINTS
TCL: Setting parameter alchLambda2 to 0.9500000000000003
Info: NONBONDED TABLE R-SQUARED SPACING: 0.0625
Info: NONBONDED TABLE SIZE: 705 POINTS
TCL: Running for 1500000 steps
ETITLE: TS BOND ANGLE DIHED IMPRP ELECT VDW BOUNDARY MISC KINETIC TOTAL TEMP POTENTIAL TOTALAVG TEMPAVG PRESSURE GPRESSURE VOLUME PRESSAVG GPRESSAVG
ENERGY: 0 0.9294 5.1883 1.9072 0.0000 -10647.9554 1418.9144 0.0000 0.0000 1678.4495 -7542.5665 287.4861 -9221.0161 -7542.5665 287.4861 -275.1034 -184.7374 30499.3617 -275.1034 -184.7374
ENERGY: 300000 1.7708 5.8738 1.3889 0.0000 -10641.2639 1451.2470 0.0000 0.0000 1798.3916 -7382.5918 308.0299 -9180.9834 -7448.8773 298.3621 417.7651 441.6049 30153.5339 69.4639 122.9704
ENERGY: 600000 0.2690 3.4974 1.0782 0.0000 -10600.5290 1420.7396 0.0000 0.0000 1780.8807 -7394.0640 305.0306 -9174.9448 -7468.7130 299.9451 45.8601 158.5137 30358.8118 218.9060 274.1977
ENERGY: 900000 2.3048 5.7652 0.8454 0.0000 -10538.2933 1335.0015 0.0000 0.0000 1808.9682 -7385.4082 309.8415 -9194.3763 -7466.2412 300.4217 -644.3198 -571.2269 30178.1678 214.9989 270.5282
ENERGY: 1200000 0.8586 4.9541 1.1839 0.0000 -10678.9635 1381.2245 0.0000 0.0000 1766.6948 -7524.0477 302.6008 -9290.7424 -7473.0531 300.4134 -727.7480 -701.8851 30491.8863 149.3996 197.8794
ENERGY: 1500000 0.7474 4.2540 0.6145 0.0000 -10775.6629 1504.4654 0.0000 0.0000 1770.5981 -7494.9835 303.2694 -9265.5816 -7463.5638 301.3744 468.2955 524.5686 30097.2359 124.4472 177.2345
TCL: Running FEP window  20: Lambda1 0.9500000000000003 Lambda2 1.0    [dLambda 0.04999999999999971]
TCL: Setting parameter firsttimestep to 0
TCL: Setting parameter alchLambda to 0.9500000000000003
Info: NONBONDED TABLE R-SQUARED SPACING: 0.0625
Info: NONBONDED TABLE SIZE: 705 POINTS
TCL: Setting parameter alchLambda2 to 1.0
Info: NONBONDED TABLE R-SQUARED SPACING: 0.0625
Info: NONBONDED TABLE SIZE: 705 POINTS
TCL: Running for 1500000 steps
ETITLE: TS BOND ANGLE DIHED IMPRP ELECT VDW BOUNDARY MISC KINETIC TOTAL TEMP POTENTIAL TOTALAVG TEMPAVG PRESSURE GPRESSURE VOLUME PRESSAVG GPRESSAVG
ENERGY: 0 0.7474 4.2540 0.6145 0.0000 -10776.3962 1504.9009 0.0000 0.0000 1769.7508 -7496.1287 303.1243 -9265.8794 -7496.1287 303.1243 476.0383 541.0997 30097.2359 476.0383 541.0997
ENERGY: 300000 0.9720 4.3393 0.2623 0.0000 -10731.6702 1465.4960 0.0000 0.0000 1761.5670 -7499.0335 301.7226 -9260.6006 -7490.1582 299.7438 189.5752 282.2916 29877.6451 541.3704 608.0163
ENERGY: 600000 1.6909 6.4591 0.5322 0.0000 -10661.2307 1427.1533 0.0000 0.0000 1704.4250 -7520.9702 291.9352 -9225.3952 -7485.0240 299.4291 -94.5899 91.2779 30124.6341 332.4026 413.2144
ENERGY: 900000 1.6785 5.4649 0.2970 0.0000 -10502.2232 1365.2732 0.0000 0.0000 1731.1502 -7398.3594 296.5127 -9129.5096 -7479.8479 298.8028 -257.6272 -201.2105 30380.9767 167.5828 239.0393
ENERGY: 1200000 2.7554 4.8848 0.3671 0.0000 -10484.6312 1370.8463 0.0000 0.0000 1750.4961 -7355.2815 299.8263 -9105.7776 -7455.5401 299.0041 -225.9600 -195.8323 30623.1727 78.3402 138.9855
ENERGY: 1500000 0.9278 5.0666 0.0832 0.0000 -10655.0314 1427.6186 0.0000 0.0000 1773.6687 -7447.6665 303.7953 -9221.3353 -7455.4868 299.3999 149.1329 196.0090 29919.9041 85.1057 149.9317
TCL: Exiting due to exit command.
