Info: SIMULATION PARAMETERS:
Info: TIMESTEP               2
Info: NUMBER OF STEPS        0
Info: STEPS PER CYCLE        10
Info: PERIODIC CELL BASIS 1  30.4866 0 0
Info: PERIODIC CELL BASIS 2  0 29.8939 0
Info: PERIODIC CELL BASIS 3  0 0 33.3778
Info: PERIODIC CELL CENTER   0 0 0
Info: WRAPPING WATERS AROUND PERIODIC BOUNDARIES ON OUTPUT.
Info: WRAPPING ALL CLUSTERS AROUND PERIODIC BOUNDARIES ON OUTPUT.
Info: FIRST LDB TIMESTEP     50
Info: LAST LDB TIMESTEP     -1
Info: HOM BACKGROUND SCALING 1
Info: PME BACKGROUND SCALING 1
Info: MIN ATOMS PER PATCH    40
Info: EMPTY PATCH LOAD       40 ATOMS
Info: VELOCITY FILE          mobley_8127829_equil.vel
Info: CENTER OF MASS MOVING INITIALLY? NO
Info: DIELECTRIC             1
Info: EXCLUDE                SCALED ONE-FOUR
Info: 1-4 ELECTROSTATICS SCALED BY 0.833333
Info: MODIFIED 1-4 VDW PARAMETERS WILL BE USED
Info: DCD FILENAME           mobley_8127829_prod.dcd
Info: DCD FREQUENCY          100000
Info: DCD FIRST STEP         100000
Info: DCD FILE WILL CONTAIN UNIT CELL DATA
Info: XST FILENAME           mobley_8127829_prod.xst
Info: XST FREQUENCY          100000
Info: NO VELOCITY DCD OUTPUT
Info: NO FORCE DCD OUTPUT
Info: OUTPUT FILENAME        mobley_8127829_prod
Info: BINARY OUTPUT FILES WILL BE USED
Info: RESTART FILENAME       mobley_8127829_prod.restart
Info: RESTART FREQUENCY      100000
Info: BINARY RESTART FILES WILL BE USED
Info: CUTOFF                 9
Info: PAIRLIST DISTANCE      11
Info: PAIRLIST SHRINK RATE   0.01
Info: PAIRLIST GROW RATE     0.01
Info: PAIRLIST TRIGGER       0.3
Info: PAIRLISTS PER CYCLE    2
Info: PAIRLISTS ENABLED
Info: MARGIN                 2
Info: HYDROGEN GROUP CUTOFF  2.5
Info: PATCH DIMENSION        15.5
Info: ENERGY OUTPUT STEPS    100000
Info: ENERGY EVALUATION STEPS    100000
Info: OUTPUT ENERGY PRECISION 4
Info: CROSSTERM ENERGY INCLUDED IN DIHEDRAL
Info: TIMING OUTPUT STEPS    1000000
Info: PRESSURE OUTPUT STEPS  100000
Info: ALCHEMICAL FEP ON
Info: FEP CURRENT LAMBDA VALUE     1
Info: FEP COMPARISON LAMBDA VALUE  0.95
Info: FEP INTRA-ALCHEMICAL NON-BONDED INTERACTIONS WILL BE RETAINED
Info: FEP INTRA-ALCHEMICAL BONDED INTERACTIONS WILL BE RETAINED
Info: FEP VDW SHIFTING COEFFICIENT 5
Info: FEP ELEC. ACTIVE FOR ANNIHILATED PARTICLES BETWEEN LAMBDA = 0 AND LAMBDA = 0.5
Info: FEP ELEC. ACTIVE FOR EXNIHILATED PARTICLES BETWEEN LAMBDA = 0.5 AND LAMBDA = 1
Info: FEP VDW ACTIVE FOR ANNIHILATED PARTICLES BETWEEN LAMBDA = 0 AND LAMBDA = 1
Info: FEP VDW ACTIVE FOR EXNIHILATED PARTICLES BETWEEN LAMBDA = 0 AND LAMBDA = 1
Info: FEP BOND ACTIVE FOR ANNIHILATED PARTICLES BETWEEN LAMBDA = 1 AND LAMBDA = 1
Info: FEP BOND ACTIVE FOR EXNIHILATED PARTICLES BETWEEN LAMBDA = 0 AND LAMBDA = 0
Info: LANGEVIN DYNAMICS ACTIVE
Info: LANGEVIN TEMPERATURE   300
Info: LANGEVIN USING BBK INTEGRATOR
Info: LANGEVIN DAMPING COEFFICIENT IS 1 INVERSE PS
Info: LANGEVIN DYNAMICS APPLIED TO HYDROGENS
Info: LANGEVIN PISTON PRESSURE CONTROL ACTIVE
Info:        TARGET PRESSURE IS 1.01325 BAR
Info:     OSCILLATION PERIOD IS 50 FS
Info:             DECAY TIME IS 25 FS
Info:     PISTON TEMPERATURE IS 300 K
Info:       PRESSURE CONTROL IS GROUP-BASED
Info:    INITIAL STRAIN RATE IS -6.30812e-06 -6.30812e-06 -6.30812e-06
Info:       CELL FLUCTUATION IS ISOTROPIC
Info: PARTICLE MESH EWALD (PME) ACTIVE
Info: PME TOLERANCE               1e-06
Info: PME EWALD COEFFICIENT       0.348832
Info: PME INTERPOLATION ORDER     4
Info: PME GRID DIMENSIONS         32 32 36
Info: PME MAXIMUM GRID SPACING    1
Info: PME CALCULATION WILL BE PERFORMED ON GPU
Info: FULL ELECTROSTATIC EVALUATION FREQUENCY      2
Info: USING VERLET I (r-RESPA) MTS SCHEME.
Info: C1 SPLITTING OF LONG RANGE ELECTROSTATICS
Info: PLACING ATOMS IN PATCHES BY HYDROGEN GROUPS
Info: RIGID BONDS TO HYDROGEN : ALL
Info:         ERROR TOLERANCE : 1e-08
Info:          MAX ITERATIONS : 100
Info: RIGID WATER USING SETTLE ALGORITHM
Info: RANDOM NUMBER SEED     1743786655
Info: USE HYDROGEN BONDS?    NO
Info: Using AMBER format force field!
Info: AMBER PARM FILE        mobley_8127829.prmtop
Info: COORDINATE PDB         mobley_8127829.pdb
Info: Exclusions will be read from PARM file!
Info: SCNB (VDW SCALING)     2
Info: USING ARITHMETIC MEAN TO COMBINE L-J SIGMA PARAMETERS
Info: BINARY COORDINATES     mobley_8127829_equil.coor
Info: SUMMARY OF PARAMETERS:
Info: 7 BONDS
Info: 7 ANGLES
Info:   7 HARMONIC
Info:   0 COSINE-BASED
Info: 5 DIHEDRAL
Info: 0 IMPROPER
Info: 0 CROSSTERM
Info: 0 VDW
Info: 21 VDW_PAIRS
Info: 0 NBTHOLE_PAIRS
Info: To read alchdata from file: mobley_8127829.pdb
Info: To read alchflag data from column: 5
Info: STRUCTURE SUMMARY:
Info: 2970 ATOMS
Info: 2970 BONDS
Info: 30 ANGLES
Info: 45 DIHEDRALS
Info: 0 IMPROPERS
Info: 0 CROSSTERMS
Info: 3036 EXCLUSIONS
Info: 2962 RIGID BONDS
Info: ALCH: 0 ATOMS TO DISAPPEAR IN FINAL STATE
Info: ALCH: 18 ATOMS TO APPEAR IN FINAL STATE
Info: 5948 DEGREES OF FREEDOM
Info: 992 HYDROGEN GROUPS
Info: 4 ATOMS IN LARGEST HYDROGEN GROUP
Info: 992 MIGRATION GROUPS
Info: 4 ATOMS IN LARGEST MIGRATION GROUP
Info: TOTAL MASS = 17833.9 amu
Info: TOTAL CHARGE = 1.86265e-08 e
Info: MASS DENSITY = 0.973544 g/cm^3
Info: ATOM DENSITY = 0.0976352 atoms/A^3
Info: ADDED 0 IMPLICIT EXCLUSIONS
Info: NONBONDED TABLE R-SQUARED SPACING: 0.0625
Info: NONBONDED TABLE SIZE: 705 POINTS
Info: REMOVING COM VELOCITY 0.02764 0.0697772 0.112428
Info: Use 3D box decompostion in PME FFT.
Info: Updated CUDA force table with 4096 elements.
Info: Updated CUDA LJ table with 6 x 6 elements.
Info: Found 17 unique exclusion lists needing 44 bytes
TCL: Running for 1500000 steps
ETITLE: TS BOND ANGLE DIHED IMPRP ELECT VDW BOUNDARY MISC KINETIC TOTAL TEMP POTENTIAL TOTALAVG TEMPAVG PRESSURE GPRESSURE VOLUME PRESSAVG GPRESSAVG
ENERGY: 0 1.6095 6.9019 1.6620 0.0000 -10720.7861 1423.3732 0.0000 0.0000 1787.5664 -7499.6732 302.4695 -9287.2396 -7499.6732 302.4695 25.0599 112.3705 30419.3595 25.0599 112.3705
ENERGY: 300000 1.8993 4.3048 4.5970 0.0000 -10832.0242 1539.5026 0.0000 0.0000 1794.7000 -7487.0204 303.6766 -9281.7204 -7472.8330 303.3346 735.4266 824.1938 30419.1858 549.7877 636.7809
ENERGY: 600000 2.9953 5.5079 2.3583 0.0000 -10925.9803 1536.2419 0.0000 0.0000 1807.0404 -7571.8365 305.7647 -9378.8770 -7496.8329 301.7728 467.4494 544.8083 30385.7962 404.6099 478.5687
ENERGY: 900000 1.3942 4.5124 2.3070 0.0000 -10683.8809 1382.3301 0.0000 0.0000 1815.1806 -7478.1565 307.1420 -9293.3371 -7500.3845 301.1024 -610.6087 -576.3027 30803.3470 243.8334 311.7659
ENERGY: 1200000 2.3316 6.5636 3.7874 0.0000 -10659.4910 1411.3317 0.0000 0.0000 1780.1478 -7455.3289 301.2142 -9235.4766 -7491.0876 302.3596 -13.4038 -4.4748 30619.0547 154.7466 218.3187
ENERGY: 1500000 2.0605 7.3715 3.2201 0.0000 -10744.8253 1446.0210 0.0000 0.0000 1766.9297 -7519.2225 298.9776 -9286.1522 -7491.7455 301.8793 199.8357 277.6679 30367.7150 161.6510 223.9941
TCL: Running FEP window   2: Lambda1 0.95   Lambda2 0.8999999999999999 [dLambda -0.050000000000000044]
TCL: Setting parameter firsttimestep to 0
TCL: Setting parameter alchLambda to 0.95
Info: NONBONDED TABLE R-SQUARED SPACING: 0.0625
Info: NONBONDED TABLE SIZE: 705 POINTS
TCL: Setting parameter alchLambda2 to 0.8999999999999999
Info: NONBONDED TABLE R-SQUARED SPACING: 0.0625
Info: NONBONDED TABLE SIZE: 705 POINTS
TCL: Running for 1500000 steps
ETITLE: TS BOND ANGLE DIHED IMPRP ELECT VDW BOUNDARY MISC KINETIC TOTAL TEMP POTENTIAL TOTALAVG TEMPAVG PRESSURE GPRESSURE VOLUME PRESSAVG GPRESSAVG
ENERGY: 0 2.0605 7.3715 3.2201 0.0000 -10743.8510 1445.4968 0.0000 0.0000 1766.0478 -7519.6543 298.8284 -9285.7021 -7519.6543 298.8284 171.1574 262.7827 30367.7150 171.1574 262.7827
ENERGY: 300000 2.6864 3.7949 1.9403 0.0000 -10787.5639 1466.4168 0.0000 0.0000 1830.9193 -7481.8063 309.8051 -9312.7256 -7509.6511 301.6205 268.3501 290.5409 30456.4250 -17.0900 57.9289
ENERGY: 600000 4.5738 6.8248 4.1335 0.0000 -10761.3549 1449.4799 0.0000 0.0000 1781.8471 -7514.4957 301.5018 -9296.3428 -7528.6096 300.9358 -63.5566 37.1812 30759.1233 -72.4135 3.0107
ENERGY: 900000 1.0370 2.5718 2.4598 0.0000 -10656.4952 1365.9159 0.0000 0.0000 1720.1003 -7564.4104 291.0538 -9284.5107 -7532.5608 299.3529 -562.8677 -483.4181 30631.2688 -171.9265 -102.0451
ENERGY: 1200000 2.8010 7.4368 2.0734 0.0000 -10673.7479 1421.6783 0.0000 0.0000 1734.2785 -7505.4799 293.4528 -9239.7584 -7523.4545 299.8655 -223.4257 -138.7492 30882.4542 -98.5332 -25.0801
ENERGY: 1500000 1.9126 3.3235 2.5783 0.0000 -10876.8323 1493.2888 0.0000 0.0000 1782.9094 -7592.8197 301.6815 -9375.7291 -7528.4369 300.2195 278.6322 319.2882 30203.5196 -82.0238 -9.5675
TCL: Running FEP window   3: Lambda1 0.8999999999999999 Lambda2 0.8499999999999999 [dLambda -0.050000000000000044]
TCL: Setting parameter firsttimestep to 0
TCL: Setting parameter alchLambda to 0.8999999999999999
Info: NONBONDED TABLE R-SQUARED SPACING: 0.0625
Info: NONBONDED TABLE SIZE: 705 POINTS
TCL: Setting parameter alchLambda2 to 0.8499999999999999
Info: NONBONDED TABLE R-SQUARED SPACING: 0.0625
Info: NONBONDED TABLE SIZE: 705 POINTS
TCL: Running for 1500000 steps
ETITLE: TS BOND ANGLE DIHED IMPRP ELECT VDW BOUNDARY MISC KINETIC TOTAL TEMP POTENTIAL TOTALAVG TEMPAVG PRESSURE GPRESSURE VOLUME PRESSAVG GPRESSAVG
ENERGY: 0 1.9126 3.3235 2.5783 0.0000 -10876.2380 1493.1354 0.0000 0.0000 1782.0162 -7593.2719 301.5304 -9375.2882 -7593.2719 301.5304 226.0937 306.0709 30203.5196 226.0937 306.0709
ENERGY: 300000 2.3064 4.6796 5.4652 0.0000 -10719.1043 1466.4147 0.0000 0.0000 1744.8547 -7495.3838 295.2424 -9240.2385 -7480.6921 300.3307 99.0876 243.4921 30769.5868 123.8162 176.5895
ENERGY: 600000 1.0879 5.2994 3.0948 0.0000 -10802.4301 1456.6551 0.0000 0.0000 1769.8562 -7566.4367 299.4728 -9336.2929 -7507.2327 298.3184 -8.7889 51.1862 30693.7901 149.3106 207.6104
ENERGY: 900000 2.6418 6.1724 4.2387 0.0000 -10581.4059 1363.1475 0.0000 0.0000 1759.7332 -7445.4723 297.7599 -9205.2055 -7507.7004 297.8632 -360.7186 -326.4146 30765.0932 57.9487 109.6729
ENERGY: 1200000 1.6403 5.5106 3.6213 0.0000 -10804.0965 1446.6839 0.0000 0.0000 1797.4476 -7549.1928 304.1415 -9346.6404 -7519.1838 298.2866 -100.8717 -70.7512 30565.5100 11.6036 69.8826
ENERGY: 1500000 2.7236 7.7282 3.1188 0.0000 -10718.8590 1441.0078 0.0000 0.0000 1736.6626 -7527.6181 293.8562 -9264.2807 -7518.2958 298.5898 -281.3676 -247.1123 31129.9969 53.2865 108.4348
TCL: Running FEP window   4: Lambda1 0.8499999999999999 Lambda2 0.7999999999999998 [dLambda -0.050000000000000044]
TCL: Setting parameter firsttimestep to 0
TCL: Setting parameter alchLambda to 0.8499999999999999
Info: NONBONDED TABLE R-SQUARED SPACING: 0.0625
Info: NONBONDED TABLE SIZE: 705 POINTS
TCL: Setting parameter alchLambda2 to 0.7999999999999998
Info: NONBONDED TABLE R-SQUARED SPACING: 0.0625
Info: NONBONDED TABLE SIZE: 705 POINTS
TCL: Running for 1500000 steps
ETITLE: TS BOND ANGLE DIHED IMPRP ELECT VDW BOUNDARY MISC KINETIC TOTAL TEMP POTENTIAL TOTALAVG TEMPAVG PRESSURE GPRESSURE VOLUME PRESSAVG GPRESSAVG
ENERGY: 0 2.7236 7.7282 3.1188 0.0000 -10718.1118 1441.2197 0.0000 0.0000 1735.7599 -7527.5617 293.7035 -9263.3216 -7527.5617 293.7035 -331.9398 -252.7201 31129.9969 -331.9398 -252.7201
ENERGY: 300000 2.1376 5.5824 2.3773 0.0000 -10834.1573 1506.7821 0.0000 0.0000 1827.7225 -7489.5554 309.2642 -9317.2779 -7515.9186 303.1871 652.2319 703.8501 30447.5046 -96.0314 -36.8316
ENERGY: 600000 1.3917 6.1017 3.7131 0.0000 -10791.6988 1465.6692 0.0000 0.0000 1810.6403 -7504.1828 306.3738 -9314.8231 -7518.9078 302.2807 219.4121 296.8649 30231.3459 -18.1808 47.7028
ENERGY: 900000 1.5307 4.7436 4.9642 0.0000 -10693.6854 1415.9497 0.0000 0.0000 1796.6742 -7469.8230 304.0106 -9266.4971 -7507.8479 303.2247 -280.5624 -216.9784 31332.1378 -77.2518 -19.9590
ENERGY: 1200000 1.7044 5.1733 2.6008 0.0000 -10581.4398 1302.5198 0.0000 0.0000 1783.8858 -7485.5558 301.8467 -9269.4416 -7500.8981 302.3890 -1319.7571 -1204.1220 30931.6939 -179.1765 -117.6408
ENERGY: 1500000 0.7668 5.0512 3.6667 0.0000 -10822.5172 1517.0554 0.0000 0.0000 1744.8952 -7551.0819 295.2492 -9295.9771 -7510.4288 301.2681 834.3590 897.9596 30111.2314 -74.6901 -11.4558
TCL: Running FEP window   5: Lambda1 0.7999999999999998 Lambda2 0.7499999999999998 [dLambda -0.050000000000000044]
TCL: Setting parameter firsttimestep to 0
TCL: Setting parameter alchLambda to 0.7999999999999998
Info: NONBONDED TABLE R-SQUARED SPACING: 0.0625
Info: NONBONDED TABLE SIZE: 705 POINTS
TCL: Setting parameter alchLambda2 to 0.7499999999999998
Info: NONBONDED TABLE R-SQUARED SPACING: 0.0625
Info: NONBONDED TABLE SIZE: 705 POINTS
TCL: Running for 1500000 steps
ETITLE: TS BOND ANGLE DIHED IMPRP ELECT VDW BOUNDARY MISC KINETIC TOTAL TEMP POTENTIAL TOTALAVG TEMPAVG PRESSURE GPRESSURE VOLUME PRESSAVG GPRESSAVG
ENERGY: 0 0.7668 5.0512 3.6667 0.0000 -10822.3550 1517.1824 0.0000 0.0000 1744.0204 -7551.6675 295.1012 -9295.6879 -7551.6675 295.1012 816.4210 890.4084 30111.2314 816.4210 890.4084
ENERGY: 300000 1.3041 5.2603 2.1291 0.0000 -10776.0411 1449.3185 0.0000 0.0000 1836.7479 -7481.2812 310.7914 -9318.0291 -7511.1088 303.6057 122.2105 116.2459 30749.0119 115.3062 179.1876
ENERGY: 600000 1.4840 6.5452 3.4918 0.0000 -10762.8791 1480.9699 0.0000 0.0000 1796.7951 -7473.5931 304.0311 -9270.3882 -7505.6506 302.5071 227.0609 317.5179 30723.9710 159.0648 220.4755
ENERGY: 900000 4.5953 4.1286 5.0391 0.0000 -10823.2822 1494.8717 0.0000 0.0000 1820.1508 -7494.4967 307.9830 -9314.6475 -7517.2466 302.0721 365.3426 357.5061 30587.5356 150.1513 204.4165
ENERGY: 1200000 1.8211 4.4889 2.1476 0.0000 -10734.1873 1439.4985 0.0000 0.0000 1773.6478 -7512.5833 300.1144 -9286.2311 -7522.1186 301.2545 -284.1871 -179.7743 30848.6346 130.0645 181.3130
ENERGY: 1500000 5.2070 2.7468 2.4936 0.0000 -10684.1132 1380.6626 0.0000 0.0000 1849.2613 -7443.7419 312.9088 -9293.0033 -7505.9223 302.1285 -305.7969 -255.3379 30653.6908 176.0412 226.6897
TCL: Running FEP window   6: Lambda1 0.7499999999999998 Lambda2 0.6999999999999997 [dLambda -0.050000000000000044]
TCL: Setting parameter firsttimestep to 0
TCL: Setting parameter alchLambda to 0.7499999999999998
Info: NONBONDED TABLE R-SQUARED SPACING: 0.0625
Info: NONBONDED TABLE SIZE: 705 POINTS
TCL: Setting parameter alchLambda2 to 0.6999999999999997
Info: NONBONDED TABLE R-SQUARED SPACING: 0.0625
Info: NONBONDED TABLE SIZE: 705 POINTS
TCL: Running for 1500000 steps
ETITLE: TS BOND ANGLE DIHED IMPRP ELECT VDW BOUNDARY MISC KINETIC TOTAL TEMP POTENTIAL TOTALAVG TEMPAVG PRESSURE GPRESSURE VOLUME PRESSAVG GPRESSAVG
ENERGY: 0 5.2070 2.7468 2.4936 0.0000 -10683.7922 1380.9722 0.0000 0.0000 1848.4033 -7443.9693 312.7636 -9292.3726 -7443.9693 312.7636 -359.5903 -260.4698 30653.6908 -359.5903 -260.4698
ENERGY: 300000 3.7954 2.8722 2.5819 0.0000 -10671.5000 1390.3477 0.0000 0.0000 1686.6232 -7585.2796 285.3892 -9271.9028 -7518.3764 297.9453 -476.2193 -382.7301 30499.7079 -435.5865 -344.0159
ENERGY: 600000 1.4174 7.3231 4.6544 0.0000 -10626.7885 1413.7334 0.0000 0.0000 1788.0537 -7411.6065 302.5520 -9199.6601 -7501.9403 299.1738 116.8823 143.5373 30716.0205 -346.9717 -264.9343
ENERGY: 900000 1.7161 4.1070 2.9908 0.0000 -10810.8103 1458.0830 0.0000 0.0000 1756.4129 -7587.5004 297.1981 -9343.9133 -7509.5867 299.8514 -49.5067 7.5608 30226.3265 -207.9706 -129.8314
ENERGY: 1200000 1.5866 6.3785 1.9145 0.0000 -10719.4814 1430.7956 0.0000 0.0000 1827.1954 -7451.6107 309.1750 -9278.8061 -7517.6271 299.8799 263.9238 294.5804 30002.0729 -197.9072 -122.2105
ENERGY: 1500000 2.7686 5.5814 1.5067 0.0000 -10753.3728 1398.2398 0.0000 0.0000 1778.6260 -7566.6502 300.9567 -9345.2763 -7525.7570 299.3903 -691.4914 -682.9548 30910.3958 -156.7486 -87.0019
TCL: Running FEP window   7: Lambda1 0.6999999999999997 Lambda2 0.6499999999999997 [dLambda -0.050000000000000044]
TCL: Setting parameter firsttimestep to 0
TCL: Setting parameter alchLambda to 0.6999999999999997
Info: NONBONDED TABLE R-SQUARED SPACING: 0.0625
Info: NONBONDED TABLE SIZE: 705 POINTS
TCL: Setting parameter alchLambda2 to 0.6499999999999997
Info: NONBONDED TABLE R-SQUARED SPACING: 0.0625
Info: NONBONDED TABLE SIZE: 705 POINTS
TCL: Running for 1500000 steps
ETITLE: TS BOND ANGLE DIHED IMPRP ELECT VDW BOUNDARY MISC KINETIC TOTAL TEMP POTENTIAL TOTALAVG TEMPAVG PRESSURE GPRESSURE VOLUME PRESSAVG GPRESSAVG
ENERGY: 0 2.7686 5.5814 1.5067 0.0000 -10753.0413 1398.4706 0.0000 0.0000 1777.7520 -7566.9621 300.8088 -9344.7141 -7566.9621 300.8088 -784.4954 -691.9213 30910.3958 -784.4954 -691.9213
ENERGY: 300000 2.6498 8.8155 6.7389 0.0000 -10628.4374 1375.8491 0.0000 0.0000 1774.3583 -7460.0259 300.2346 -9234.3841 -7480.9552 300.7004 -566.0492 -480.2302 30937.3927 -92.2451 -18.7859
ENERGY: 600000 1.6978 4.8125 2.8774 0.0000 -10643.1304 1407.0705 0.0000 0.0000 1732.1957 -7494.4765 293.1004 -9226.6722 -7496.9124 299.3352 -360.4227 -281.3803 30868.7412 30.2915 98.7481
ENERGY: 900000 2.4450 3.4072 2.0764 0.0000 -10691.5975 1448.5636 0.0000 0.0000 1766.7313 -7468.3740 298.9441 -9235.1052 -7486.1006 299.7639 -260.5645 -197.6816 31209.1856 -11.4433 64.8533
ENERGY: 1200000 1.9021 4.1983 3.8727 0.0000 -10701.5429 1476.3726 0.0000 0.0000 1787.6016 -7427.5956 302.4755 -9215.1972 -7485.0996 299.8202 340.4489 376.0765 31175.5969 -57.9898 14.6581
ENERGY: 1500000 4.1473 4.3552 4.3969 0.0000 -10722.4576 1462.7744 0.0000 0.0000 1754.5915 -7492.1923 296.8899 -9246.7838 -7491.3518 299.7914 490.6730 588.1271 29784.0449 -79.9998 -9.4400
TCL: Running FEP window   8: Lambda1 0.6499999999999997 Lambda2 0.5999999999999996 [dLambda -0.050000000000000044]
TCL: Setting parameter firsttimestep to 0
TCL: Setting parameter alchLambda to 0.6499999999999997
Info: NONBONDED TABLE R-SQUARED SPACING: 0.0625
Info: NONBONDED TABLE SIZE: 705 POINTS
TCL: Setting parameter alchLambda2 to 0.5999999999999996
Info: NONBONDED TABLE R-SQUARED SPACING: 0.0625
Info: NONBONDED TABLE SIZE: 705 POINTS
TCL: Running for 1500000 steps
ETITLE: TS BOND ANGLE DIHED IMPRP ELECT VDW BOUNDARY MISC KINETIC TOTAL TEMP POTENTIAL TOTALAVG TEMPAVG PRESSURE GPRESSURE VOLUME PRESSAVG GPRESSAVG
ENERGY: 0 4.1473 4.3552 4.3969 0.0000 -10722.0702 1462.9617 0.0000 0.0000 1753.7217 -7492.4875 296.7427 -9246.2092 -7492.4875 296.7427 506.4790 582.4588 29784.0449 506.4790 582.4588
ENERGY: 300000 4.7270 8.8560 3.2410 0.0000 -10742.0539 1418.2482 0.0000 0.0000 1762.4068 -7544.5749 298.2123 -9306.9817 -7512.3832 297.9801 -261.6112 -108.4985 30153.8011 421.5721 511.7678
ENERGY: 600000 2.7799 8.6152 2.7620 0.0000 -10920.1389 1562.4105 0.0000 0.0000 1723.8200 -7619.7512 291.6831 -9343.5712 -7524.7626 298.5171 689.4187 764.0618 30353.2938 342.1918 429.5304
ENERGY: 900000 2.6408 7.6977 1.1795 0.0000 -10895.0418 1545.4573 0.0000 0.0000 1750.4671 -7587.5994 296.1920 -9338.0665 -7527.7386 298.7972 502.8179 572.4469 30321.6389 243.1192 319.2885
ENERGY: 1200000 3.0527 7.5030 4.8656 0.0000 -10877.5055 1502.6882 0.0000 0.0000 1784.9495 -7574.4465 302.0267 -9359.3961 -7528.5037 299.7197 220.7643 334.4816 30737.8180 292.6168 363.4901
ENERGY: 1500000 4.1646 6.2586 2.2699 0.0000 -10763.7694 1428.2798 0.0000 0.0000 1772.5872 -7550.2093 299.9349 -9322.7965 -7534.6764 299.9851 -252.0884 -127.2888 30413.8973 225.5747 301.8093
TCL: Running FEP window   9: Lambda1 0.5999999999999996 Lambda2 0.5499999999999996 [dLambda -0.050000000000000044]
TCL: Setting parameter firsttimestep to 0
TCL: Setting parameter alchLambda to 0.5999999999999996
Info: NONBONDED TABLE R-SQUARED SPACING: 0.0625
Info: NONBONDED TABLE SIZE: 705 POINTS
TCL: Setting parameter alchLambda2 to 0.5499999999999996
Info: NONBONDED TABLE R-SQUARED SPACING: 0.0625
Info: NONBONDED TABLE SIZE: 705 POINTS
TCL: Running for 1500000 steps
ETITLE: TS BOND ANGLE DIHED IMPRP ELECT VDW BOUNDARY MISC KINETIC TOTAL TEMP POTENTIAL TOTALAVG TEMPAVG PRESSURE GPRESSURE VOLUME PRESSAVG GPRESSAVG
ENERGY: 0 4.1646 6.2586 2.2699 0.0000 -10763.0447 1428.4455 0.0000 0.0000 1771.6930 -7550.2131 299.7836 -9321.9061 -7550.2131 299.7836 -208.7653 -131.1292 30413.8973 -208.7653 -131.1292
ENERGY: 300000 2.7426 8.5100 1.3535 0.0000 -10568.5646 1362.7877 0.0000 0.0000 1793.7992 -7399.3716 303.5241 -9193.1708 -7493.6874 300.8019 -322.0250 -251.2126 30640.7244 -7.9798 53.9170
ENERGY: 600000 2.2583 5.2717 1.3579 0.0000 -10747.4093 1438.0884 0.0000 0.0000 1759.8052 -7540.6279 297.7721 -9300.4331 -7511.6615 300.5757 194.0829 246.3169 30106.5292 -53.5122 3.1793
ENERGY: 900000 2.9501 5.7763 5.8024 0.0000 -10700.0510 1414.1602 0.0000 0.0000 1808.9088 -7462.4532 306.0808 -9271.3620 -7510.3546 301.6473 -198.1666 -181.3627 30509.9676 19.8428 71.0541
ENERGY: 1200000 2.8065 3.1406 3.4072 0.0000 -10685.5825 1375.4505 0.0000 0.0000 1753.0701 -7547.7077 296.6325 -9300.7777 -7498.0058 302.1031 -780.6296 -677.0325 31031.7264 -121.7422 -60.1848
ENERGY: 1500000 1.2072 6.2249 2.1520 0.0000 -10674.6018 1405.5412 0.0000 0.0000 1790.1833 -7469.2931 302.9123 -9259.4765 -7504.2052 301.5918 -339.9030 -244.3194 30706.4550 -73.5855 -9.6406
TCL: Running FEP window  10: Lambda1 0.5499999999999996 Lambda2 0.4999999999999996 [dLambda -0.04999999999999999]
TCL: Setting parameter firsttimestep to 0
TCL: Setting parameter alchLambda to 0.5499999999999996
Info: NONBONDED TABLE R-SQUARED SPACING: 0.0625
Info: NONBONDED TABLE SIZE: 705 POINTS
TCL: Setting parameter alchLambda2 to 0.4999999999999996
Info: NONBONDED TABLE R-SQUARED SPACING: 0.0625
Info: NONBONDED TABLE SIZE: 705 POINTS
TCL: Running for 1500000 steps
ETITLE: TS BOND ANGLE DIHED IMPRP ELECT VDW BOUNDARY MISC KINETIC TOTAL TEMP POTENTIAL TOTALAVG TEMPAVG PRESSURE GPRESSURE VOLUME PRESSAVG GPRESSAVG
ENERGY: 0 1.2072 6.2249 2.1520 0.0000 -10673.6361 1405.6168 0.0000 0.0000 1789.3393 -7469.0958 302.7695 -9258.4351 -7469.0958 302.7695 -333.5521 -251.2959 30706.4550 -333.5521 -251.2959
ENERGY: 300000 0.7092 5.0330 3.1183 0.0000 -10812.9957 1471.4945 0.0000 0.0000 1770.2619 -7562.3789 299.5415 -9332.6408 -7498.9953 298.7567 -93.5004 41.7861 30655.5420 111.1649 156.6348
ENERGY: 600000 2.5657 7.4693 4.2753 0.0000 -10873.9685 1575.1825 0.0000 0.0000 1768.4488 -7516.0270 299.2347 -9284.4758 -7536.9642 296.8884 1238.9290 1363.2114 30059.8769 219.4467 293.0915
ENERGY: 900000 5.0008 3.3088 3.1814 0.0000 -10854.9752 1511.4360 0.0000 0.0000 1765.2654 -7566.7828 298.6960 -9332.0482 -7526.5466 297.4770 221.8996 274.0677 30897.7588 137.3659 200.6543
ENERGY: 1200000 1.4963 5.6940 1.6398 0.0000 -10763.9982 1467.0233 0.0000 0.0000 1778.9668 -7509.1781 301.0144 -9288.1448 -7525.1757 298.4755 183.2657 257.1503 30608.5918 17.8861 85.1811
ENERGY: 1500000 2.1566 4.1965 2.9286 0.0000 -10730.0811 1473.7018 0.0000 0.0000 1773.6049 -7473.4928 300.1071 -9247.0977 -7534.3549 298.1008 546.5561 657.6748 30200.0993 104.7420 172.3952
TCL: Running FEP window  11: Lambda1 0.4999999999999996 Lambda2 0.4499999999999996 [dLambda -0.04999999999999999]
TCL: Setting parameter firsttimestep to 0
TCL: Setting parameter alchLambda to 0.4999999999999996
Info: NONBONDED TABLE R-SQUARED SPACING: 0.0625
Info: NONBONDED TABLE SIZE: 705 POINTS
TCL: Setting parameter alchLambda2 to 0.4499999999999996
Info: NONBONDED TABLE R-SQUARED SPACING: 0.0625
Info: NONBONDED TABLE SIZE: 705 POINTS
TCL: Running for 1500000 steps
ETITLE: TS BOND ANGLE DIHED IMPRP ELECT VDW BOUNDARY MISC KINETIC TOTAL TEMP POTENTIAL TOTALAVG TEMPAVG PRESSURE GPRESSURE VOLUME PRESSAVG GPRESSAVG
ENERGY: 0 2.1566 4.1965 2.9286 0.0000 -10729.8418 1473.6190 0.0000 0.0000 1772.7445 -7474.1967 299.9615 -9246.9412 -7474.1967 299.9615 556.4987 649.0417 30200.0993 556.4987 649.0417
ENERGY: 300000 1.8390 5.5051 4.1750 0.0000 -10628.8002 1368.6325 0.0000 0.0000 1751.3815 -7497.2671 296.3468 -9248.6485 -7496.2654 302.5783 -572.3898 -507.3611 30569.8964 -19.2284 25.5717
ENERGY: 600000 1.4182 6.8429 2.6538 0.0000 -10757.6879 1450.3399 0.0000 0.0000 1799.3231 -7497.1100 304.4588 -9296.4331 -7505.0592 302.9089 -96.6410 -23.1126 30866.8657 87.6228 141.5751
ENERGY: 900000 3.6820 5.1966 5.5298 0.0000 -10754.1249 1406.0293 0.0000 0.0000 1804.7578 -7528.9293 305.3784 -9333.6871 -7515.4531 301.8234 -789.0582 -704.4488 30792.0544 131.9805 189.6402
ENERGY: 1200000 0.9726 8.0620 2.3160 0.0000 -10789.9395 1434.5250 0.0000 0.0000 1720.0387 -7624.0251 291.0433 -9344.0638 -7525.7290 300.9894 -199.7956 -118.4592 30406.3559 168.7216 231.0990
ENERGY: 1500000 7.6619 6.5585 4.9484 0.0000 -10807.1131 1413.3297 0.0000 0.0000 1773.2457 -7601.3689 300.0463 -9374.6146 -7522.1186 301.3783 -541.9013 -508.7936 30544.0329 154.9199 206.6486
TCL: Running FEP window  12: Lambda1 0.4499999999999996 Lambda2 0.39999999999999963 [dLambda -0.04999999999999999]
TCL: Setting parameter firsttimestep to 0
TCL: Setting parameter alchLambda to 0.4499999999999996
Info: NONBONDED TABLE R-SQUARED SPACING: 0.0625
Info: NONBONDED TABLE SIZE: 705 POINTS
TCL: Setting parameter alchLambda2 to 0.39999999999999963
Info: NONBONDED TABLE R-SQUARED SPACING: 0.0625
Info: NONBONDED TABLE SIZE: 705 POINTS
TCL: Running for 1500000 steps
ETITLE: TS BOND ANGLE DIHED IMPRP ELECT VDW BOUNDARY MISC KINETIC TOTAL TEMP POTENTIAL TOTALAVG TEMPAVG PRESSURE GPRESSURE VOLUME PRESSAVG GPRESSAVG
ENERGY: 0 7.6620 6.5585 4.9484 0.0000 -10807.1135 1413.3606 0.0000 0.0000 1772.3853 -7602.1988 299.9008 -9374.5841 -7602.1988 299.9008 -605.3029 -515.1929 30544.0329 -605.3029 -515.1929
ENERGY: 300000 1.1656 4.2274 3.2036 0.0000 -10905.6111 1529.0109 0.0000 0.0000 1756.5795 -7611.4242 297.2263 -9368.0036 -7571.8542 300.8341 337.5616 337.3875 30728.8779 10.4143 93.7260
ENERGY: 600000 3.3344 4.6934 1.7437 0.0000 -10804.8377 1531.6347 0.0000 0.0000 1774.0624 -7489.3691 300.1845 -9263.4315 -7553.6576 300.3317 902.7049 949.4704 30189.9961 208.0979 279.0780
ENERGY: 900000 3.3939 4.4450 0.7728 0.0000 -10750.7179 1424.4334 0.0000 0.0000 1775.1880 -7542.4848 300.3750 -9317.6727 -7564.2316 299.5381 -515.5667 -412.8701 30810.4468 244.8193 318.9715
ENERGY: 1200000 1.2868 6.3839 3.1640 0.0000 -10780.0543 1454.2089 0.0000 0.0000 1741.3497 -7573.6610 294.6493 -9315.0107 -7558.2260 298.9904 136.3515 174.5980 30223.7775 164.7500 223.0365
ENERGY: 1500000 2.1370 8.0914 2.3586 0.0000 -10765.4278 1427.7248 0.0000 0.0000 1762.4204 -7562.6956 298.2146 -9325.1160 -7550.5205 299.4317 -243.2166 -176.6230 30352.0062 128.5211 181.2788
TCL: Running FEP window  13: Lambda1 0.39999999999999963 Lambda2 0.34999999999999964 [dLambda -0.04999999999999999]
TCL: Setting parameter firsttimestep to 0
TCL: Setting parameter alchLambda to 0.39999999999999963
Info: NONBONDED TABLE R-SQUARED SPACING: 0.0625
Info: NONBONDED TABLE SIZE: 705 POINTS
TCL: Setting parameter alchLambda2 to 0.34999999999999964
Info: NONBONDED TABLE R-SQUARED SPACING: 0.0625
Info: NONBONDED TABLE SIZE: 705 POINTS
TCL: Running for 1500000 steps
ETITLE: TS BOND ANGLE DIHED IMPRP ELECT VDW BOUNDARY MISC KINETIC TOTAL TEMP POTENTIAL TOTALAVG TEMPAVG PRESSURE GPRESSURE VOLUME PRESSAVG GPRESSAVG
ENERGY: 0 2.1370 8.0914 2.3586 0.0000 -10765.4270 1427.9137 0.0000 0.0000 1761.5558 -7563.3705 298.0683 -9324.9263 -7563.3705 298.0683 -273.4706 -182.4360 30352.0062 -273.4706 -182.4360
ENERGY: 300000 1.7186 5.4075 4.1951 0.0000 -10629.8335 1311.5816 0.0000 0.0000 1720.4686 -7586.4621 291.1161 -9306.9306 -7521.6970 298.2954 -1221.2442 -1081.2913 30627.8968 -451.1380 -349.2111
ENERGY: 600000 1.6111 9.4228 3.4058 0.0000 -10828.3107 1474.0233 0.0000 0.0000 1741.8398 -7598.0079 294.7322 -9339.8477 -7511.7358 298.8735 82.6780 132.7876 30338.7835 -192.0019 -112.4662
ENERGY: 900000 4.8821 6.3831 1.3188 0.0000 -10677.6227 1457.6583 0.0000 0.0000 1770.6343 -7436.7461 299.6045 -9207.3804 -7507.2591 298.6036 64.9783 211.9266 30588.7194 -149.2619 -68.0480
ENERGY: 1200000 2.5168 2.9585 1.7615 0.0000 -10698.3414 1394.2512 0.0000 0.0000 1807.2236 -7489.6298 305.7957 -9296.8534 -7514.3404 299.4212 -629.7359 -558.9059 30559.6984 -173.9951 -94.3695
ENERGY: 1500000 2.4666 3.1745 4.2898 0.0000 -10845.2067 1507.2888 0.0000 0.0000 1782.2534 -7545.7336 301.5705 -9327.9870 -7516.1530 299.8747 391.5042 491.3421 30275.0163 -132.6217 -57.1981
TCL: Running FEP window  14: Lambda1 0.34999999999999964 Lambda2 0.29999999999999966 [dLambda -0.04999999999999999]
TCL: Setting parameter firsttimestep to 0
TCL: Setting parameter alchLambda to 0.34999999999999964
Info: NONBONDED TABLE R-SQUARED SPACING: 0.0625
Info: NONBONDED TABLE SIZE: 705 POINTS
TCL: Setting parameter alchLambda2 to 0.29999999999999966
Info: NONBONDED TABLE R-SQUARED SPACING: 0.0625
Info: NONBONDED TABLE SIZE: 705 POINTS
TCL: Running for 1500000 steps
ETITLE: TS BOND ANGLE DIHED IMPRP ELECT VDW BOUNDARY MISC KINETIC TOTAL TEMP POTENTIAL TOTALAVG TEMPAVG PRESSURE GPRESSURE VOLUME PRESSAVG GPRESSAVG
ENERGY: 0 2.4666 3.1746 4.2898 0.0000 -10845.2084 1507.4920 0.0000 0.0000 1781.3892 -7546.3962 301.4243 -9327.7854 -7546.3962 301.4243 416.4553 486.4990 30275.0163 416.4553 486.4990
ENERGY: 300000 2.2790 7.4062 1.6192 0.0000 -10794.1000 1446.7637 0.0000 0.0000 1743.6341 -7592.3977 295.0358 -9336.0318 -7540.4133 301.8786 -143.8471 -140.1684 30392.3639 267.5278 287.7773
ENERGY: 600000 2.8057 6.2562 2.2054 0.0000 -10571.8943 1331.3288 0.0000 0.0000 1754.0148 -7475.2835 296.7923 -9229.2983 -7520.3923 301.0790 -809.7405 -743.8448 30719.4710 174.8497 221.5202
ENERGY: 900000 3.3832 5.3900 4.9370 0.0000 -10600.2644 1350.6225 0.0000 0.0000 1720.1033 -7515.8283 291.0543 -9235.9317 -7515.9722 300.7690 -712.4304 -658.5634 30250.5316 -121.1116 -74.9643
ENERGY: 1200000 1.1442 8.1626 3.7175 0.0000 -10749.2809 1481.6847 0.0000 0.0000 1800.5796 -7453.9923 304.6714 -9254.5719 -7503.4638 301.9733 306.3698 366.9749 30345.4468 -128.0874 -73.3642
ENERGY: 1500000 0.5780 2.2512 4.7620 0.0000 -10613.3375 1343.5530 0.0000 0.0000 1800.6597 -7461.5336 304.6850 -9262.1933 -7503.1893 302.2028 -773.0867 -685.2415 30672.5640 -210.7901 -155.9575
TCL: Running FEP window  15: Lambda1 0.29999999999999966 Lambda2 0.24999999999999967 [dLambda -0.04999999999999999]
TCL: Setting parameter firsttimestep to 0
TCL: Setting parameter alchLambda to 0.29999999999999966
Info: NONBONDED TABLE R-SQUARED SPACING: 0.0625
Info: NONBONDED TABLE SIZE: 705 POINTS
TCL: Setting parameter alchLambda2 to 0.24999999999999967
Info: NONBONDED TABLE R-SQUARED SPACING: 0.0625
Info: NONBONDED TABLE SIZE: 705 POINTS
TCL: Running for 1500000 steps
ETITLE: TS BOND ANGLE DIHED IMPRP ELECT VDW BOUNDARY MISC KINETIC TOTAL TEMP POTENTIAL TOTALAVG TEMPAVG PRESSURE GPRESSURE VOLUME PRESSAVG GPRESSAVG
ENERGY: 0 0.5780 2.2512 4.7620 0.0000 -10613.3363 1344.0933 0.0000 0.0000 1799.7791 -7461.8727 304.5360 -9261.6518 -7461.8727 304.5360 -771.2750 -684.7190 30672.5640 -771.2750 -684.7190
ENERGY: 300000 4.0775 3.1046 1.7286 0.0000 -10634.9985 1349.5802 0.0000 0.0000 1788.4908 -7488.0167 302.6259 -9276.5075 -7484.2918 302.2886 -724.2177 -662.5968 30464.5169 -340.8512 -284.4652
ENERGY: 600000 0.9705 8.2484 2.8183 0.0000 -10728.4308 1511.9064 0.0000 0.0000 1755.8616 -7448.6256 297.1048 -9204.4872 -7489.1598 299.9199 596.1028 617.4282 30755.6871 -145.7683 -91.8440
ENERGY: 900000 3.0599 10.3644 4.2141 0.0000 -10715.6440 1434.8927 0.0000 0.0000 1748.4970 -7514.6160 295.8587 -9263.1130 -7503.2630 299.4147 86.5635 152.0334 30210.7209 -221.5346 -163.8522
ENERGY: 1200000 8.0402 7.1084 5.1296 0.0000 -10518.0631 1346.9972 0.0000 0.0000 1752.7966 -7397.9910 296.5862 -9150.7876 -7500.7809 299.3599 -490.4696 -516.5988 30624.6659 -171.4370 -126.9613
ENERGY: 1500000 1.9237 8.9442 3.5059 0.0000 -10639.8563 1392.7184 0.0000 0.0000 1789.5270 -7443.2371 302.8013 -9232.7641 -7497.3007 299.5365 -403.0020 -328.6411 30859.5468 -248.5118 -198.8070
TCL: Running FEP window  16: Lambda1 0.24999999999999967 Lambda2 0.19999999999999968 [dLambda -0.04999999999999999]
TCL: Setting parameter firsttimestep to 0
TCL: Setting parameter alchLambda to 0.24999999999999967
Info: NONBONDED TABLE R-SQUARED SPACING: 0.0625
Info: NONBONDED TABLE SIZE: 705 POINTS
TCL: Setting parameter alchLambda2 to 0.19999999999999968
Info: NONBONDED TABLE R-SQUARED SPACING: 0.0625
Info: NONBONDED TABLE SIZE: 705 POINTS
TCL: Running for 1500000 steps
ETITLE: TS BOND ANGLE DIHED IMPRP ELECT VDW BOUNDARY MISC KINETIC TOTAL TEMP POTENTIAL TOTALAVG TEMPAVG PRESSURE GPRESSURE VOLUME PRESSAVG GPRESSAVG
ENERGY: 0 1.9237 8.9442 3.5059 0.0000 -10639.8567 1392.8488 0.0000 0.0000 1788.6261 -7444.0080 302.6488 -9232.6341 -7444.0080 302.6488 -414.3301 -332.1263 30859.5468 -414.3301 -332.1263
ENERGY: 300000 3.8781 4.5604 2.3974 0.0000 -10782.0603 1395.8919 0.0000 0.0000 1800.9175 -7574.4150 304.7286 -9375.3325 -7520.7217 302.9481 -876.4304 -798.8121 30464.7387 -511.8135 -451.8470
ENERGY: 600000 2.5409 7.6586 1.5742 0.0000 -10831.2335 1526.2969 0.0000 0.0000 1798.2042 -7494.9588 304.2695 -9293.1630 -7509.0949 302.1876 591.4531 635.6117 30678.6185 -319.2162 -257.0090
ENERGY: 900000 3.6435 2.9821 1.2080 0.0000 -10795.8816 1439.1975 0.0000 0.0000 1768.4381 -7580.4125 299.2329 -9348.8505 -7523.5328 301.9361 -440.6714 -408.1398 30828.4517 -348.1384 -284.0744
ENERGY: 1200000 2.3254 6.0383 3.8250 0.0000 -10730.4851 1471.6556 0.0000 0.0000 1760.5925 -7486.0481 297.9053 -9246.6407 -7524.2108 301.3698 139.5136 226.4939 30702.1591 -278.5388 -214.2004
ENERGY: 1500000 3.1674 6.7517 6.1868 0.0000 -10741.8285 1453.4181 0.0000 0.0000 1789.0129 -7483.2916 302.7143 -9272.3045 -7516.3983 301.8753 166.0257 264.7781 30249.8746 -248.5808 -175.5320
TCL: Running FEP window  17: Lambda1 0.19999999999999968 Lambda2 0.1499999999999997 [dLambda -0.04999999999999999]
TCL: Setting parameter firsttimestep to 0
TCL: Setting parameter alchLambda to 0.19999999999999968
Info: NONBONDED TABLE R-SQUARED SPACING: 0.0625
Info: NONBONDED TABLE SIZE: 705 POINTS
TCL: Setting parameter alchLambda2 to 0.1499999999999997
Info: NONBONDED TABLE R-SQUARED SPACING: 0.0625
Info: NONBONDED TABLE SIZE: 705 POINTS
TCL: Running for 1500000 steps
ETITLE: TS BOND ANGLE DIHED IMPRP ELECT VDW BOUNDARY MISC KINETIC TOTAL TEMP POTENTIAL TOTALAVG TEMPAVG PRESSURE GPRESSURE VOLUME PRESSAVG GPRESSAVG
ENERGY: 0 3.1674 6.7518 6.1868 0.0000 -10741.8285 1453.1979 0.0000 0.0000 1788.1548 -7484.3698 302.5691 -9272.5247 -7484.3698 302.5691 190.4628 258.4522 30249.8746 190.4628 258.4522
ENERGY: 300000 2.8202 5.4017 2.2267 0.0000 -10717.8659 1438.0317 0.0000 0.0000 1770.8617 -7498.5239 299.6429 -9269.3856 -7512.0241 300.1597 -88.0485 10.5974 30482.6106 -169.4229 -107.0913
ENERGY: 600000 2.8720 6.4191 3.4923 0.0000 -10754.4831 1500.3960 0.0000 0.0000 1726.6708 -7514.6329 292.1655 -9241.3037 -7516.4595 300.2548 578.2210 627.8056 30378.2997 -143.6196 -84.1108
ENERGY: 900000 2.1555 4.8157 2.8539 0.0000 -10655.8414 1397.0371 0.0000 0.0000 1763.7294 -7485.2499 298.4361 -9248.9793 -7522.6109 298.2736 -461.1581 -382.0886 30623.5688 -225.2321 -160.8903
ENERGY: 1200000 0.6338 4.6055 4.1598 0.0000 -10850.6629 1479.6531 0.0000 0.0000 1745.7733 -7615.8375 295.3978 -9361.6107 -7527.3228 299.0530 68.8125 178.9604 29907.8071 -104.0404 -43.3278
ENERGY: 1500000 2.6100 4.8545 4.4541 0.0000 -10832.0379 1471.4182 0.0000 0.0000 1758.3285 -7590.3727 297.5222 -9348.7012 -7539.2264 298.0869 133.3922 274.9911 30174.1768 -116.6467 -50.3529
TCL: Running FEP window  18: Lambda1 0.1499999999999997 Lambda2 0.09999999999999969 [dLambda -0.05 ]
TCL: Setting parameter firsttimestep to 0
TCL: Setting parameter alchLambda to 0.1499999999999997
Info: NONBONDED TABLE R-SQUARED SPACING: 0.0625
Info: NONBONDED TABLE SIZE: 705 POINTS
TCL: Setting parameter alchLambda2 to 0.09999999999999969
Info: NONBONDED TABLE R-SQUARED SPACING: 0.0625
Info: NONBONDED TABLE SIZE: 705 POINTS
TCL: Running for 1500000 steps
ETITLE: TS BOND ANGLE DIHED IMPRP ELECT VDW BOUNDARY MISC KINETIC TOTAL TEMP POTENTIAL TOTALAVG TEMPAVG PRESSURE GPRESSURE VOLUME PRESSAVG GPRESSAVG
ENERGY: 0 2.6100 4.8545 4.4541 0.0000 -10832.0376 1471.2879 0.0000 0.0000 1757.4417 -7591.3896 297.3722 -9348.8312 -7591.3896 297.3722 174.3871 269.3171 30174.1768 174.3871 269.3171
ENERGY: 300000 1.2517 5.0716 3.1649 0.0000 -10659.3329 1357.7186 0.0000 0.0000 1792.7916 -7499.3345 303.3537 -9292.1261 -7531.2058 300.0825 -583.4857 -531.1243 30092.0714 -144.5394 -50.7938
ENERGY: 600000 3.0224 7.5689 1.5057 0.0000 -10646.3426 1424.5363 0.0000 0.0000 1750.7981 -7458.9113 296.2480 -9209.7093 -7515.3595 299.5289 -318.7700 -228.2467 30729.9221 -286.3144 -209.2718
ENERGY: 900000 0.9959 5.5092 2.2873 0.0000 -10845.6051 1550.6912 0.0000 0.0000 1819.2847 -7466.8367 307.8365 -9286.1215 -7514.8629 301.4830 545.4438 561.3762 30833.6817 -105.3782 -37.8792
ENERGY: 1200000 2.1635 7.8489 1.9160 0.0000 -10659.1579 1400.2002 0.0000 0.0000 1799.5271 -7447.5021 304.4934 -9247.0293 -7518.1817 301.2894 -454.4791 -315.2810 30493.4707 -71.2514 7.5917
ENERGY: 1500000 0.7949 7.8306 3.7010 0.0000 -10802.7196 1531.6996 0.0000 0.0000 1764.0157 -7494.6778 298.4846 -9258.6936 -7520.3499 300.2647 606.9737 650.4596 30751.3307 -14.3628 59.3045
TCL: Running FEP window  19: Lambda1 0.09999999999999969 Lambda2 0.049999999999999684 [dLambda -0.05 ]
TCL: Setting parameter firsttimestep to 0
TCL: Setting parameter alchLambda to 0.09999999999999969
Info: NONBONDED TABLE R-SQUARED SPACING: 0.0625
Info: NONBONDED TABLE SIZE: 705 POINTS
TCL: Setting parameter alchLambda2 to 0.049999999999999684
Info: NONBONDED TABLE R-SQUARED SPACING: 0.0625
Info: NONBONDED TABLE SIZE: 705 POINTS
TCL: Running for 1500000 steps
ETITLE: TS BOND ANGLE DIHED IMPRP ELECT VDW BOUNDARY MISC KINETIC TOTAL TEMP POTENTIAL TOTALAVG TEMPAVG PRESSURE GPRESSURE VOLUME PRESSAVG GPRESSAVG
ENERGY: 0 0.7949 7.8306 3.7010 0.0000 -10802.7185 1530.8129 0.0000 0.0000 1763.1452 -7496.4339 298.3373 -9259.5791 -7496.4339 298.3373 563.2325 641.8356 30751.3307 563.2325 641.8356
ENERGY: 300000 2.2041 6.3041 7.2158 0.0000 -10681.4065 1379.1591 0.0000 0.0000 1781.4170 -7505.1064 301.4290 -9286.5234 -7475.3445 301.5536 -559.5834 -501.6578 30673.0116 -211.1843 -132.9684
ENERGY: 600000 3.2477 4.9371 4.4383 0.0000 -10825.3435 1478.8485 0.0000 0.0000 1753.9349 -7579.9370 296.7788 -9333.8719 -7509.2022 299.5847 -62.0024 -42.9780 30783.3564 -56.8166 16.5525
ENERGY: 900000 2.1289 4.3889 3.0089 0.0000 -10804.9345 1544.3112 0.0000 0.0000 1770.2299 -7480.8668 299.5360 -9251.0966 -7505.6563 299.9881 651.8472 659.2372 30691.6795 30.3962 95.3407
ENERGY: 1200000 3.0391 2.5565 1.9092 0.0000 -10818.4887 1536.4165 0.0000 0.0000 1787.7356 -7486.8320 302.4981 -9274.5675 -7502.5752 299.6668 467.1179 422.3039 30727.2840 -20.2279 31.9185
ENERGY: 1500000 1.4974 5.5991 4.6715 0.0000 -10723.0572 1393.2745 0.0000 0.0000 1773.3682 -7544.6465 300.0671 -9318.0147 -7503.7087 299.5800 -19.9715 39.2669 29806.1938 -7.5450 44.2784
TCL: Running FEP window  20: Lambda1 0.049999999999999684 Lambda2 0.0    [dLambda -0.049999999999999684]
TCL: Setting parameter firsttimestep to 0
TCL: Setting parameter alchLambda to 0.049999999999999684
Info: NONBONDED TABLE R-SQUARED SPACING: 0.0625
Info: NONBONDED TABLE SIZE: 705 POINTS
TCL: Setting parameter alchLambda2 to 0.0
Info: NONBONDED TABLE R-SQUARED SPACING: 0.0625
Info: NONBONDED TABLE SIZE: 705 POINTS
TCL: Running for 1500000 steps
ETITLE: TS BOND ANGLE DIHED IMPRP ELECT VDW BOUNDARY MISC KINETIC TOTAL TEMP POTENTIAL TOTALAVG TEMPAVG PRESSURE GPRESSURE VOLUME PRESSAVG GPRESSAVG
ENERGY: 0 1.4974 5.5991 4.6715 0.0000 -10723.0581 1392.7429 0.0000 0.0000 1772.4456 -7546.1016 299.9110 -9318.5473 -7546.1016 299.9110 -50.9065 32.9066 29806.1938 -50.9065 32.9066
ENERGY: 300000 1.1786 4.8885 4.0912 0.0000 -10781.7753 1462.6750 0.0000 0.0000 1754.3623 -7554.5797 296.8511 -9308.9420 -7537.9001 302.2213 -49.5791 32.4077 30552.9847 81.9704 147.8162
ENERGY: 600000 2.9788 5.9956 2.9714 0.0000 -10845.3343 1480.6536 0.0000 0.0000 1841.8612 -7510.8736 311.6566 -9352.7349 -7557.6852 300.9418 -0.8366 18.8591 30638.8539 22.8932 79.3636
ENERGY: 900000 1.8608 2.9529 2.3045 0.0000 -10845.2593 1481.9533 0.0000 0.0000 1771.1277 -7585.0602 299.6880 -9356.1879 -7559.3790 299.1545 -320.9891 -223.8257 30680.9668 -104.4464 -45.3984
ENERGY: 1200000 2.8152 9.1453 2.8906 0.0000 -10585.6852 1333.7408 0.0000 0.0000 1737.3744 -7499.7189 293.9767 -9237.0933 -7543.8520 299.1817 -635.8732 -582.8044 30276.8241 -204.9335 -147.7842
ENERGY: 1500000 2.1804 4.4059 3.4240 0.0000 -10741.4980 1519.9825 0.0000 0.0000 1808.3497 -7403.1553 305.9862 -9211.5051 -7536.8667 299.5847 691.2080 805.8550 30198.5207 -150.0063 -89.4591
TCL: Exiting due to exit command.
