Info: SIMULATION PARAMETERS:
Info: TIMESTEP               2
Info: NUMBER OF STEPS        0
Info: STEPS PER CYCLE        10
Info: PERIODIC CELL BASIS 1  32.1338 0 0
Info: PERIODIC CELL BASIS 2  0 29.9454 0
Info: PERIODIC CELL BASIS 3  0 0 31.7887
Info: PERIODIC CELL CENTER   0 0 0
Info: WRAPPING WATERS AROUND PERIODIC BOUNDARIES ON OUTPUT.
Info: WRAPPING ALL CLUSTERS AROUND PERIODIC BOUNDARIES ON OUTPUT.
Info: FIRST LDB TIMESTEP     50
Info: LAST LDB TIMESTEP     -1
Info: HOM BACKGROUND SCALING 1
Info: PME BACKGROUND SCALING 1
Info: MIN ATOMS PER PATCH    40
Info: EMPTY PATCH LOAD       40 ATOMS
Info: VELOCITY FILE          mobley_6353617_equil.vel
Info: CENTER OF MASS MOVING INITIALLY? NO
Info: DIELECTRIC             1
Info: EXCLUDE                SCALED ONE-FOUR
Info: 1-4 ELECTROSTATICS SCALED BY 0.833333
Info: MODIFIED 1-4 VDW PARAMETERS WILL BE USED
Info: DCD FILENAME           mobley_6353617_prod.dcd
Info: DCD FREQUENCY          100000
Info: DCD FIRST STEP         100000
Info: DCD FILE WILL CONTAIN UNIT CELL DATA
Info: XST FILENAME           mobley_6353617_prod.xst
Info: XST FREQUENCY          100000
Info: NO VELOCITY DCD OUTPUT
Info: NO FORCE DCD OUTPUT
Info: OUTPUT FILENAME        mobley_6353617_prod
Info: BINARY OUTPUT FILES WILL BE USED
Info: RESTART FILENAME       mobley_6353617_prod.restart
Info: RESTART FREQUENCY      100000
Info: BINARY RESTART FILES WILL BE USED
Info: CUTOFF                 9
Info: PAIRLIST DISTANCE      11
Info: PAIRLIST SHRINK RATE   0.01
Info: PAIRLIST GROW RATE     0.01
Info: PAIRLIST TRIGGER       0.3
Info: PAIRLISTS PER CYCLE    2
Info: PAIRLISTS ENABLED
Info: MARGIN                 2
Info: HYDROGEN GROUP CUTOFF  2.5
Info: PATCH DIMENSION        15.5
Info: ENERGY OUTPUT STEPS    100000
Info: ENERGY EVALUATION STEPS    100000
Info: OUTPUT ENERGY PRECISION 4
Info: CROSSTERM ENERGY INCLUDED IN DIHEDRAL
Info: TIMING OUTPUT STEPS    1000000
Info: PRESSURE OUTPUT STEPS  100000
Info: ALCHEMICAL FEP ON
Info: FEP CURRENT LAMBDA VALUE     0
Info: FEP COMPARISON LAMBDA VALUE  0.05
Info: FEP INTRA-ALCHEMICAL NON-BONDED INTERACTIONS WILL BE RETAINED
Info: FEP INTRA-ALCHEMICAL BONDED INTERACTIONS WILL BE RETAINED
Info: FEP VDW SHIFTING COEFFICIENT 5
Info: FEP ELEC. ACTIVE FOR ANNIHILATED PARTICLES BETWEEN LAMBDA = 0 AND LAMBDA = 0.5
Info: FEP ELEC. ACTIVE FOR EXNIHILATED PARTICLES BETWEEN LAMBDA = 0.5 AND LAMBDA = 1
Info: FEP VDW ACTIVE FOR ANNIHILATED PARTICLES BETWEEN LAMBDA = 0 AND LAMBDA = 1
Info: FEP VDW ACTIVE FOR EXNIHILATED PARTICLES BETWEEN LAMBDA = 0 AND LAMBDA = 1
Info: FEP BOND ACTIVE FOR ANNIHILATED PARTICLES BETWEEN LAMBDA = 1 AND LAMBDA = 1
Info: FEP BOND ACTIVE FOR EXNIHILATED PARTICLES BETWEEN LAMBDA = 0 AND LAMBDA = 0
Info: LANGEVIN DYNAMICS ACTIVE
Info: LANGEVIN TEMPERATURE   300
Info: LANGEVIN USING BBK INTEGRATOR
Info: LANGEVIN DAMPING COEFFICIENT IS 1 INVERSE PS
Info: LANGEVIN DYNAMICS APPLIED TO HYDROGENS
Info: LANGEVIN PISTON PRESSURE CONTROL ACTIVE
Info:        TARGET PRESSURE IS 1.01325 BAR
Info:     OSCILLATION PERIOD IS 50 FS
Info:             DECAY TIME IS 25 FS
Info:     PISTON TEMPERATURE IS 300 K
Info:       PRESSURE CONTROL IS GROUP-BASED
Info:    INITIAL STRAIN RATE IS 4.0586e-05 4.0586e-05 4.0586e-05
Info:       CELL FLUCTUATION IS ISOTROPIC
Info: PARTICLE MESH EWALD (PME) ACTIVE
Info: PME TOLERANCE               1e-06
Info: PME EWALD COEFFICIENT       0.348832
Info: PME INTERPOLATION ORDER     4
Info: PME GRID DIMENSIONS         36 32 32
Info: PME MAXIMUM GRID SPACING    1
Info: PME CALCULATION WILL BE PERFORMED ON GPU
Info: FULL ELECTROSTATIC EVALUATION FREQUENCY      2
Info: USING VERLET I (r-RESPA) MTS SCHEME.
Info: C1 SPLITTING OF LONG RANGE ELECTROSTATICS
Info: PLACING ATOMS IN PATCHES BY HYDROGEN GROUPS
Info: RIGID BONDS TO HYDROGEN : ALL
Info:         ERROR TOLERANCE : 1e-08
Info:          MAX ITERATIONS : 100
Info: RIGID WATER USING SETTLE ALGORITHM
Info: RANDOM NUMBER SEED     1743763351
Info: USE HYDROGEN BONDS?    NO
Info: Using AMBER format force field!
Info: AMBER PARM FILE        mobley_6353617.prmtop
Info: COORDINATE PDB         mobley_6353617.pdb
Info: Exclusions will be read from PARM file!
Info: SCNB (VDW SCALING)     2
Info: USING ARITHMETIC MEAN TO COMBINE L-J SIGMA PARAMETERS
Info: BINARY COORDINATES     mobley_6353617_equil.coor
Info: SUMMARY OF PARAMETERS:
Info: 10 BONDS
Info: 12 ANGLES
Info:   12 HARMONIC
Info:   0 COSINE-BASED
Info: 9 DIHEDRAL
Info: 0 IMPROPER
Info: 0 CROSSTERM
Info: 0 VDW
Info: 45 VDW_PAIRS
Info: 0 NBTHOLE_PAIRS
Info: To read alchdata from file: mobley_6353617.pdb
Info: To read alchflag data from column: 5
Info: STRUCTURE SUMMARY:
Info: 2995 ATOMS
Info: 2995 BONDS
Info: 25 ANGLES
Info: 42 DIHEDRALS
Info: 0 IMPROPERS
Info: 0 CROSSTERMS
Info: 3047 EXCLUSIONS
Info: 2986 RIGID BONDS
Info: ALCH: 0 ATOMS TO DISAPPEAR IN FINAL STATE
Info: ALCH: 16 ATOMS TO APPEAR IN FINAL STATE
Info: 5999 DEGREES OF FREEDOM
Info: 1002 HYDROGEN GROUPS
Info: 4 ATOMS IN LARGEST HYDROGEN GROUP
Info: 1002 MIGRATION GROUPS
Info: 4 ATOMS IN LARGEST MIGRATION GROUP
Info: TOTAL MASS = 18011 amu
Info: TOTAL CHARGE = 1.30385e-08 e
Info: MASS DENSITY = 0.977762 g/cm^3
Info: ATOM DENSITY = 0.0979112 atoms/A^3
Info: ADDED 0 IMPLICIT EXCLUSIONS
Info: NONBONDED TABLE R-SQUARED SPACING: 0.0625
Info: NONBONDED TABLE SIZE: 705 POINTS
Info: REMOVING COM VELOCITY -0.0198557 -0.0794103 0.177605
Info: Use 3D box decompostion in PME FFT.
Info: Updated CUDA force table with 4096 elements.
Info: Updated CUDA LJ table with 9 x 9 elements.
Info: Found 17 unique exclusion lists needing 36 bytes
TCL: Running for 1500000 steps
ETITLE: TS BOND ANGLE DIHED IMPRP ELECT VDW BOUNDARY MISC KINETIC TOTAL TEMP POTENTIAL TOTALAVG TEMPAVG PRESSURE GPRESSURE VOLUME PRESSAVG GPRESSAVG
ENERGY: 0 2.8544 8.2290 5.7728 0.0000 -10891.0337 1450.5788 0.0000 0.0000 1797.7742 -7625.8245 301.6106 -9423.5988 -7625.8245 301.6106 -113.8019 -25.3399 30588.9568 -113.8019 -25.3399
ENERGY: 300000 4.8897 6.3373 6.1820 0.0000 -10834.4519 1379.4782 0.0000 0.0000 1765.7032 -7671.8614 296.2301 -9437.5646 -7620.3185 299.3776 -911.5836 -868.5790 31038.2317 169.3935 210.0179
ENERGY: 600000 5.6533 4.9158 3.9236 0.0000 -10952.4456 1496.2389 0.0000 0.0000 1728.7169 -7712.9972 290.0250 -9441.7140 -7650.5321 297.9214 -75.8169 2.9145 30788.6316 -124.0092 -57.8340
ENERGY: 900000 2.8971 5.1635 8.0569 0.0000 -10944.9627 1470.1896 0.0000 0.0000 1817.4724 -7641.1832 304.9154 -9458.6556 -7644.1287 298.7876 -337.9027 -196.5143 31118.7283 -195.5506 -121.0329
ENERGY: 1200000 2.7905 3.4384 4.7896 0.0000 -10905.3211 1421.9498 0.0000 0.0000 1756.1021 -7716.2507 294.6194 -9472.3528 -7653.7371 298.0738 -701.6588 -607.7042 30909.6852 -264.1888 -195.0732
ENERGY: 1500000 4.4382 6.4935 3.6234 0.0000 -11002.3137 1489.2865 0.0000 0.0000 1782.9661 -7715.5061 299.1263 -9498.4721 -7650.6755 298.2285 -228.9562 -105.6003 30617.4665 -197.0107 -131.1291
TCL: Running FEP window   2: Lambda1 0.05   Lambda2 0.1    [dLambda 0.05  ]
TCL: Setting parameter firsttimestep to 0
TCL: Setting parameter alchLambda to 0.05
Info: NONBONDED TABLE R-SQUARED SPACING: 0.0625
Info: NONBONDED TABLE SIZE: 705 POINTS
TCL: Setting parameter alchLambda2 to 0.1
Info: NONBONDED TABLE R-SQUARED SPACING: 0.0625
Info: NONBONDED TABLE SIZE: 705 POINTS
TCL: Running for 1500000 steps
ETITLE: TS BOND ANGLE DIHED IMPRP ELECT VDW BOUNDARY MISC KINETIC TOTAL TEMP POTENTIAL TOTALAVG TEMPAVG PRESSURE GPRESSURE VOLUME PRESSAVG GPRESSAVG
ENERGY: 0 4.4382 6.4935 3.6234 0.0000 -11002.3139 1491.6770 0.0000 0.0000 1782.0606 -7714.0213 298.9744 -9496.0818 -7714.0213 298.9744 -197.0799 -97.0252 30617.4665 -197.0799 -97.0252
ENERGY: 300000 0.2558 5.6292 7.2149 0.0000 -10877.3754 1449.6021 0.0000 0.0000 1730.2719 -7684.4015 290.2858 -9414.6734 -7654.0356 298.3017 -117.5829 -105.3780 30894.4922 -41.2045 -10.6252
ENERGY: 600000 4.1662 6.8785 5.9995 0.0000 -10877.6425 1426.2593 0.0000 0.0000 1777.5185 -7656.8206 298.2124 -9434.3391 -7631.8515 298.9677 -585.4378 -524.5383 31061.5279 -107.3341 -46.9801
ENERGY: 900000 3.1838 3.0860 8.8719 0.0000 -10822.3786 1445.7552 0.0000 0.0000 1745.8026 -7615.6792 292.8914 -9361.4817 -7624.5240 299.1889 -282.8333 -243.5782 30838.0609 17.6683 70.4693
ENERGY: 1200000 2.9573 4.2303 4.9131 0.0000 -10789.6340 1411.3653 0.0000 0.0000 1725.9883 -7640.1797 289.5672 -9366.1680 -7628.0978 297.5005 -542.6971 -422.1100 30988.0670 -42.3426 16.7898
ENERGY: 1500000 2.4248 4.9327 5.0322 0.0000 -10982.4546 1542.0489 0.0000 0.0000 1771.1215 -7656.8945 297.1391 -9428.0160 -7631.6846 297.3163 436.2772 492.7527 30436.5691 43.3115 100.1046
TCL: Running FEP window   3: Lambda1 0.1    Lambda2 0.15000000000000002 [dLambda 0.05000000000000002]
TCL: Setting parameter firsttimestep to 0
TCL: Setting parameter alchLambda to 0.1
Info: NONBONDED TABLE R-SQUARED SPACING: 0.0625
Info: NONBONDED TABLE SIZE: 705 POINTS
TCL: Setting parameter alchLambda2 to 0.15000000000000002
Info: NONBONDED TABLE R-SQUARED SPACING: 0.0625
Info: NONBONDED TABLE SIZE: 705 POINTS
TCL: Running for 1500000 steps
ETITLE: TS BOND ANGLE DIHED IMPRP ELECT VDW BOUNDARY MISC KINETIC TOTAL TEMP POTENTIAL TOTALAVG TEMPAVG PRESSURE GPRESSURE VOLUME PRESSAVG GPRESSAVG
ENERGY: 0 2.4248 4.9327 5.0322 0.0000 -10982.4543 1543.0732 0.0000 0.0000 1770.2607 -7656.7306 296.9947 -9426.9913 -7656.7306 296.9947 422.1317 497.9775 30436.5691 422.1317 497.9775
ENERGY: 300000 6.1230 6.5263 3.7308 0.0000 -10725.9234 1348.0284 0.0000 0.0000 1848.0394 -7513.4754 310.0436 -9361.5148 -7616.2800 299.5663 -901.0580 -815.4216 31110.8215 -57.2543 27.6134
ENERGY: 600000 1.5978 4.7266 4.6454 0.0000 -10927.0703 1536.4306 0.0000 0.0000 1801.4397 -7578.2303 302.2256 -9379.6699 -7610.5280 299.8315 697.5486 742.2435 30898.6621 135.4995 209.5752
ENERGY: 900000 1.6864 4.4105 4.9163 0.0000 -10892.5441 1535.8424 0.0000 0.0000 1806.3789 -7539.3096 303.0542 -9345.6885 -7602.4119 300.5940 915.0412 976.6402 30600.3776 286.4590 360.6332
ENERGY: 1200000 1.0866 8.7932 4.7164 0.0000 -10883.1363 1429.8330 0.0000 0.0000 1797.6583 -7641.0489 301.5912 -9438.7072 -7607.1489 301.0970 -680.3667 -606.8080 31440.4999 123.7852 196.3172
ENERGY: 1500000 0.6290 6.9090 6.1217 0.0000 -11085.9904 1632.6980 0.0000 0.0000 1815.4939 -7624.1389 304.5835 -9439.6328 -7603.0716 302.1937 1176.7830 1235.8172 30562.3777 166.6722 238.6591
TCL: Running FEP window   4: Lambda1 0.15000000000000002 Lambda2 0.2    [dLambda 0.04999999999999999]
TCL: Setting parameter firsttimestep to 0
TCL: Setting parameter alchLambda to 0.15000000000000002
Info: NONBONDED TABLE R-SQUARED SPACING: 0.0625
Info: NONBONDED TABLE SIZE: 705 POINTS
TCL: Setting parameter alchLambda2 to 0.2
Info: NONBONDED TABLE R-SQUARED SPACING: 0.0625
Info: NONBONDED TABLE SIZE: 705 POINTS
TCL: Running for 1500000 steps
ETITLE: TS BOND ANGLE DIHED IMPRP ELECT VDW BOUNDARY MISC KINETIC TOTAL TEMP POTENTIAL TOTALAVG TEMPAVG PRESSURE GPRESSURE VOLUME PRESSAVG GPRESSAVG
ENERGY: 0 0.6290 6.9090 6.1217 0.0000 -11085.9897 1635.9338 0.0000 0.0000 1814.6437 -7621.7525 304.4408 -9436.3962 -7621.7525 304.4408 1174.8721 1251.0356 30562.3777 1174.8721 1251.0356
ENERGY: 300000 2.7742 3.7011 5.4305 0.0000 -10816.9260 1413.4807 0.0000 0.0000 1785.4882 -7606.0514 299.5494 -9391.5395 -7584.1917 302.7154 -575.6579 -489.3273 31157.5189 -60.5547 12.4649
ENERGY: 600000 0.4899 7.6698 6.7963 0.0000 -10819.7886 1407.8229 0.0000 0.0000 1766.8669 -7630.1428 296.4254 -9397.0097 -7590.3505 302.3175 -452.8915 -359.7672 30852.0515 -45.2994 25.4500
ENERGY: 900000 1.1280 5.6399 3.3673 0.0000 -10866.4021 1452.0143 0.0000 0.0000 1782.4956 -7621.7570 299.0474 -9404.2527 -7614.7333 300.7372 -142.0620 -101.3604 30825.8628 -110.4846 -41.8013
ENERGY: 1200000 4.0247 7.5458 8.9991 0.0000 -11072.5795 1575.7025 0.0000 0.0000 1812.3237 -7663.9837 304.0516 -9476.3074 -7614.5099 301.1322 532.3886 571.2059 30803.8896 26.0088 90.6968
ENERGY: 1500000 3.4203 5.4018 6.3302 0.0000 -10977.9526 1510.9833 0.0000 0.0000 1759.7879 -7692.0290 295.2377 -9451.8170 -7626.6696 299.6520 466.6289 535.8622 30271.2503 9.1472 69.3349
TCL: Running FEP window   5: Lambda1 0.2    Lambda2 0.25   [dLambda 0.04999999999999999]
TCL: Setting parameter firsttimestep to 0
TCL: Setting parameter alchLambda to 0.2
Info: NONBONDED TABLE R-SQUARED SPACING: 0.0625
Info: NONBONDED TABLE SIZE: 705 POINTS
TCL: Setting parameter alchLambda2 to 0.25
Info: NONBONDED TABLE R-SQUARED SPACING: 0.0625
Info: NONBONDED TABLE SIZE: 705 POINTS
TCL: Running for 1500000 steps
ETITLE: TS BOND ANGLE DIHED IMPRP ELECT VDW BOUNDARY MISC KINETIC TOTAL TEMP POTENTIAL TOTALAVG TEMPAVG PRESSURE GPRESSURE VOLUME PRESSAVG GPRESSAVG
ENERGY: 0 3.4203 5.4018 6.3302 0.0000 -10977.9517 1512.4221 0.0000 0.0000 1758.9306 -7691.4467 295.0939 -9450.3773 -7691.4467 295.0939 463.1093 546.7804 30271.2503 463.1093 546.7804
ENERGY: 300000 3.5006 6.9562 5.7377 0.0000 -10914.9648 1541.0885 0.0000 0.0000 1778.3196 -7579.3622 298.3468 -9357.6818 -7649.9159 299.8197 1023.2066 1045.8312 30212.7408 434.7565 524.3229
ENERGY: 600000 1.7122 3.8521 4.8201 0.0000 -10783.1681 1461.1216 0.0000 0.0000 1722.3744 -7589.2876 288.9609 -9311.6620 -7666.2604 296.9421 255.9666 296.2038 30944.5294 248.4517 320.6151
ENERGY: 900000 4.4404 4.0327 6.7977 0.0000 -10969.0809 1516.6314 0.0000 0.0000 1733.7381 -7703.4405 290.8674 -9437.1787 -7665.9020 296.3365 437.1499 453.9698 30476.3229 264.8132 324.8616
ENERGY: 1200000 3.5331 5.0376 6.5261 0.0000 -10869.3582 1511.4903 0.0000 0.0000 1807.8057 -7534.9654 303.2936 -9342.7711 -7662.0238 297.5129 882.9208 959.0386 30385.0390 285.4908 357.3198
ENERGY: 1500000 4.1870 4.4183 6.8024 0.0000 -10705.9091 1336.6727 0.0000 0.0000 1770.9962 -7582.8325 297.1181 -9353.8286 -7650.6989 297.7721 -888.5811 -886.2110 31058.9700 184.3205 246.0817
TCL: Running FEP window   6: Lambda1 0.25   Lambda2 0.3    [dLambda 0.04999999999999999]
TCL: Setting parameter firsttimestep to 0
TCL: Setting parameter alchLambda to 0.25
Info: NONBONDED TABLE R-SQUARED SPACING: 0.0625
Info: NONBONDED TABLE SIZE: 705 POINTS
TCL: Setting parameter alchLambda2 to 0.3
Info: NONBONDED TABLE R-SQUARED SPACING: 0.0625
Info: NONBONDED TABLE SIZE: 705 POINTS
TCL: Running for 1500000 steps
ETITLE: TS BOND ANGLE DIHED IMPRP ELECT VDW BOUNDARY MISC KINETIC TOTAL TEMP POTENTIAL TOTALAVG TEMPAVG PRESSURE GPRESSURE VOLUME PRESSAVG GPRESSAVG
ENERGY: 0 4.1870 4.4183 6.8024 0.0000 -10705.9084 1336.3892 0.0000 0.0000 1770.1266 -7583.9849 296.9722 -9354.1115 -7583.9849 296.9722 -976.4128 -881.7035 31058.9700 -976.4128 -881.7035
ENERGY: 300000 3.0902 5.5443 5.0740 0.0000 -10982.4573 1508.8814 0.0000 0.0000 1795.9521 -7663.9152 301.3050 -9459.8673 -7639.7833 300.5527 166.8625 247.6736 30721.5665 -415.4391 -341.0729
ENERGY: 600000 1.4553 6.0379 5.8697 0.0000 -10755.0455 1382.3861 0.0000 0.0000 1747.8771 -7611.4195 293.2395 -9359.2966 -7632.4744 297.9389 -609.2525 -592.1658 31123.6083 -401.9187 -337.4724
ENERGY: 900000 1.6831 5.6442 8.3668 0.0000 -10863.2775 1457.2384 0.0000 0.0000 1717.0361 -7673.3089 288.0653 -9390.3450 -7632.7163 297.9871 -123.5026 -78.1066 30898.7136 -215.2900 -151.0801
ENERGY: 1200000 3.8522 5.9720 5.4182 0.0000 -10751.5887 1407.5457 0.0000 0.0000 1783.5048 -7545.2958 299.2167 -9328.8006 -7632.2750 297.4358 -546.1670 -503.8742 31194.2561 -175.5375 -114.7422
ENERGY: 1500000 3.0801 2.9559 6.6173 0.0000 -10913.9822 1495.8979 0.0000 0.0000 1768.3271 -7637.1038 296.6703 -9405.4309 -7628.7017 298.0134 72.5779 156.4096 31056.2935 -191.9545 -129.6864
TCL: Running FEP window   7: Lambda1 0.3    Lambda2 0.35   [dLambda 0.04999999999999999]
TCL: Setting parameter firsttimestep to 0
TCL: Setting parameter alchLambda to 0.3
Info: NONBONDED TABLE R-SQUARED SPACING: 0.0625
Info: NONBONDED TABLE SIZE: 705 POINTS
TCL: Setting parameter alchLambda2 to 0.35
Info: NONBONDED TABLE R-SQUARED SPACING: 0.0625
Info: NONBONDED TABLE SIZE: 705 POINTS
TCL: Running for 1500000 steps
ETITLE: TS BOND ANGLE DIHED IMPRP ELECT VDW BOUNDARY MISC KINETIC TOTAL TEMP POTENTIAL TOTALAVG TEMPAVG PRESSURE GPRESSURE VOLUME PRESSAVG GPRESSAVG
ENERGY: 0 3.0801 2.9559 6.6173 0.0000 -10913.9820 1495.8396 0.0000 0.0000 1767.4042 -7638.0849 296.5155 -9405.4892 -7638.0849 296.5155 80.1899 160.5390 31056.2935 80.1899 160.5390
ENERGY: 300000 2.2281 1.7229 2.9292 0.0000 -10904.0862 1446.8898 0.0000 0.0000 1793.9114 -7656.4048 300.9626 -9450.3162 -7665.2923 297.1886 -232.0505 -215.3419 30610.5557 -7.7209 55.5872
ENERGY: 600000 2.3714 9.8163 6.5233 0.0000 -10824.7245 1441.3413 0.0000 0.0000 1805.9378 -7558.7344 302.9802 -9364.6723 -7646.6599 297.8477 -90.6854 42.0152 30844.9558 11.3242 84.0968
ENERGY: 900000 2.8225 3.7287 5.3961 0.0000 -10822.6613 1403.2485 0.0000 0.0000 1755.3331 -7652.1325 294.4903 -9407.4656 -7645.2286 298.3539 -495.7155 -446.9931 30703.0436 33.0835 106.0755
ENERGY: 1200000 4.1594 4.7762 5.3934 0.0000 -10775.0789 1416.4425 0.0000 0.0000 1711.9321 -7632.3752 287.2090 -9344.3073 -7639.6494 297.2484 -207.4745 -187.7100 30627.5825 -66.2946 0.4811
ENERGY: 1500000 2.3899 4.4833 4.8227 0.0000 -10861.5191 1403.4055 0.0000 0.0000 1763.0298 -7683.3878 295.7816 -9446.4177 -7644.5084 297.3717 -794.1436 -769.9404 31376.0686 -86.4824 -30.3009
TCL: Running FEP window   8: Lambda1 0.35   Lambda2 0.39999999999999997 [dLambda 0.04999999999999999]
TCL: Setting parameter firsttimestep to 0
TCL: Setting parameter alchLambda to 0.35
Info: NONBONDED TABLE R-SQUARED SPACING: 0.0625
Info: NONBONDED TABLE SIZE: 705 POINTS
TCL: Setting parameter alchLambda2 to 0.39999999999999997
Info: NONBONDED TABLE R-SQUARED SPACING: 0.0625
Info: NONBONDED TABLE SIZE: 705 POINTS
TCL: Running for 1500000 steps
ETITLE: TS BOND ANGLE DIHED IMPRP ELECT VDW BOUNDARY MISC KINETIC TOTAL TEMP POTENTIAL TOTALAVG TEMPAVG PRESSURE GPRESSURE VOLUME PRESSAVG GPRESSAVG
ENERGY: 0 2.3899 4.4833 4.8227 0.0000 -10861.5194 1403.1467 0.0000 0.0000 1762.0824 -7684.5944 295.6227 -9446.6768 -7684.5944 295.6227 -839.4437 -766.5257 31376.0686 -839.4437 -766.5257
ENERGY: 300000 2.5607 6.9439 6.4351 0.0000 -10695.7689 1356.8255 0.0000 0.0000 1799.8758 -7523.1279 301.9632 -9323.0037 -7632.8521 298.7868 -427.4470 -447.7744 30923.2241 -188.6788 -134.0375
ENERGY: 600000 1.9831 3.5280 6.8442 0.0000 -10936.7205 1497.1451 0.0000 0.0000 1741.2648 -7685.9554 292.1301 -9427.2201 -7634.3186 298.7903 434.7476 497.1583 30203.5027 114.5792 165.6394
ENERGY: 900000 3.2892 7.0590 7.3609 0.0000 -11020.5280 1594.0850 0.0000 0.0000 1792.0976 -7616.6364 300.6583 -9408.7340 -7625.5265 300.3586 1157.9999 1185.8271 30580.5395 164.1591 201.0413
ENERGY: 1200000 4.4402 6.6226 6.3116 0.0000 -10693.6823 1344.4676 0.0000 0.0000 1764.0088 -7567.8315 295.9459 -9331.8403 -7622.8850 300.0988 -862.7573 -849.4554 31118.7869 104.9783 145.5596
ENERGY: 1500000 1.9354 5.6374 5.7005 0.0000 -10987.9222 1518.1533 0.0000 0.0000 1799.8795 -7656.6161 301.9639 -9456.4956 -7628.8917 300.6563 309.0160 376.1386 30484.0950 93.6733 134.2694
TCL: Running FEP window   9: Lambda1 0.39999999999999997 Lambda2 0.44999999999999996 [dLambda 0.04999999999999999]
TCL: Setting parameter firsttimestep to 0
TCL: Setting parameter alchLambda to 0.39999999999999997
Info: NONBONDED TABLE R-SQUARED SPACING: 0.0625
Info: NONBONDED TABLE SIZE: 705 POINTS
TCL: Setting parameter alchLambda2 to 0.44999999999999996
Info: NONBONDED TABLE R-SQUARED SPACING: 0.0625
Info: NONBONDED TABLE SIZE: 705 POINTS
TCL: Running for 1500000 steps
ETITLE: TS BOND ANGLE DIHED IMPRP ELECT VDW BOUNDARY MISC KINETIC TOTAL TEMP POTENTIAL TOTALAVG TEMPAVG PRESSURE GPRESSURE VOLUME PRESSAVG GPRESSAVG
ENERGY: 0 1.9354 5.6374 5.7005 0.0000 -10987.9237 1517.9032 0.0000 0.0000 1798.9928 -7657.7543 301.8151 -9456.7471 -7657.7543 301.8151 296.1393 379.3409 30484.0950 296.1393 379.3409
ENERGY: 300000 2.7777 6.1661 6.3146 0.0000 -11021.6518 1507.1914 0.0000 0.0000 1816.9418 -7682.2602 304.8264 -9499.2020 -7647.7921 302.7809 282.1428 352.1744 30197.0532 41.4049 115.7205
ENERGY: 600000 1.4585 4.3874 4.8908 0.0000 -10783.4740 1391.0149 0.0000 0.0000 1809.6515 -7572.0710 303.6033 -9381.7225 -7632.4482 300.3679 -457.7712 -406.4978 30818.1486 90.8744 155.8320
ENERGY: 900000 3.6644 5.5317 3.7156 0.0000 -10905.7831 1513.2148 0.0000 0.0000 1763.5626 -7616.0939 295.8710 -9379.6565 -7623.3842 300.6262 478.1287 527.1079 31135.0149 131.8404 207.6755
ENERGY: 1200000 3.2049 7.0933 7.5838 0.0000 -11014.1360 1473.7032 0.0000 0.0000 1823.0497 -7699.5010 305.8511 -9522.5508 -7628.2421 301.4602 -208.0423 -145.3554 30652.7514 85.3154 155.8308
ENERGY: 1500000 2.9515 6.7795 6.1285 0.0000 -10710.1800 1379.7066 0.0000 0.0000 1806.3805 -7508.2334 303.0545 -9314.6139 -7624.7608 301.0248 -546.2014 -544.4554 31297.2278 52.7632 117.9687
TCL: Running FEP window  10: Lambda1 0.44999999999999996 Lambda2 0.49999999999999994 [dLambda 0.04999999999999999]
TCL: Setting parameter firsttimestep to 0
TCL: Setting parameter alchLambda to 0.44999999999999996
Info: NONBONDED TABLE R-SQUARED SPACING: 0.0625
Info: NONBONDED TABLE SIZE: 705 POINTS
TCL: Setting parameter alchLambda2 to 0.49999999999999994
Info: NONBONDED TABLE R-SQUARED SPACING: 0.0625
Info: NONBONDED TABLE SIZE: 705 POINTS
TCL: Running for 1500000 steps
ETITLE: TS BOND ANGLE DIHED IMPRP ELECT VDW BOUNDARY MISC KINETIC TOTAL TEMP POTENTIAL TOTALAVG TEMPAVG PRESSURE GPRESSURE VOLUME PRESSAVG GPRESSAVG
ENERGY: 0 2.9515 6.7795 6.1285 0.0000 -10710.1807 1380.3307 0.0000 0.0000 1805.4859 -7508.5046 302.9044 -9313.9905 -7508.5046 302.9044 -623.1282 -534.2560 31297.2278 -623.1282 -534.2560
ENERGY: 300000 2.5394 4.6211 5.7828 0.0000 -10954.9421 1544.1121 0.0000 0.0000 1797.8940 -7599.9927 301.6308 -9397.8867 -7589.8021 302.2664 728.0216 783.4024 30866.0868 111.0089 154.6699
ENERGY: 600000 3.0208 2.6469 6.1292 0.0000 -10809.2678 1382.2526 0.0000 0.0000 1792.3217 -7622.8967 300.6959 -9415.2184 -7587.0160 303.2900 -646.9593 -620.2592 30872.5904 -188.4725 -131.9197
ENERGY: 900000 2.9464 4.8289 7.6925 0.0000 -10898.0881 1427.7824 0.0000 0.0000 1750.9261 -7703.9118 293.7510 -9454.8379 -7594.5166 302.6197 -170.8444 -115.4588 30657.4553 -115.4322 -56.7475
ENERGY: 1200000 4.2186 3.6833 5.2569 0.0000 -10818.8734 1402.3027 0.0000 0.0000 1842.5007 -7560.9112 309.1144 -9403.4119 -7594.9583 303.3433 -597.8250 -532.1704 31175.1895 -169.8653 -117.0770
ENERGY: 1500000 3.4162 4.1686 6.6831 0.0000 -10909.6890 1527.0300 0.0000 0.0000 1765.7309 -7602.6602 296.2348 -9368.3911 -7598.0666 302.1797 813.2806 812.5674 30590.9301 -87.0775 -32.6374
TCL: Running FEP window  11: Lambda1 0.49999999999999994 Lambda2 0.5499999999999999 [dLambda 0.04999999999999999]
TCL: Setting parameter firsttimestep to 0
TCL: Setting parameter alchLambda to 0.49999999999999994
Info: NONBONDED TABLE R-SQUARED SPACING: 0.0625
Info: NONBONDED TABLE SIZE: 705 POINTS
TCL: Setting parameter alchLambda2 to 0.5499999999999999
Info: NONBONDED TABLE R-SQUARED SPACING: 0.0625
Info: NONBONDED TABLE SIZE: 705 POINTS
TCL: Running for 1500000 steps
ETITLE: TS BOND ANGLE DIHED IMPRP ELECT VDW BOUNDARY MISC KINETIC TOTAL TEMP POTENTIAL TOTALAVG TEMPAVG PRESSURE GPRESSURE VOLUME PRESSAVG GPRESSAVG
ENERGY: 0 3.4162 4.1686 6.6831 0.0000 -10909.6886 1526.7468 0.0000 0.0000 1764.8515 -7603.8225 296.0872 -9368.6740 -7603.8225 296.0872 732.6283 816.7163 30590.9301 732.6283 816.7163
ENERGY: 300000 4.6942 4.1915 5.0047 0.0000 -10922.0398 1424.8054 0.0000 0.0000 1802.2944 -7681.0496 302.3690 -9483.3441 -7596.9957 299.5881 -656.2705 -558.6886 30648.8708 111.4325 179.9814
ENERGY: 600000 3.5650 5.0468 7.1600 0.0000 -10952.6104 1456.5165 0.0000 0.0000 1839.4948 -7640.8275 308.6101 -9480.3222 -7611.3425 301.6370 113.8622 169.9858 30342.5113 6.1912 74.1637
ENERGY: 900000 3.6046 2.2523 4.3920 0.0000 -10736.4315 1344.6038 0.0000 0.0000 1782.5542 -7599.0246 299.0572 -9381.5788 -7601.2271 301.6300 -873.5201 -789.7511 31060.3363 -96.4777 -41.0811
ENERGY: 1200000 5.4695 6.9634 7.4713 0.0000 -10820.5278 1418.8828 0.0000 0.0000 1762.0073 -7619.7335 295.6101 -9381.7408 -7602.8337 301.0339 -431.9563 -386.9159 30973.5044 -98.6983 -43.8048
ENERGY: 1500000 3.6795 6.5638 6.6113 0.0000 -10928.8187 1473.1298 0.0000 0.0000 1754.8707 -7683.9636 294.4128 -9438.8342 -7620.5333 299.9716 438.9667 502.9422 30130.2697 -92.7459 -42.6722
TCL: Running FEP window  12: Lambda1 0.5499999999999999 Lambda2 0.6    [dLambda 0.050000000000000044]
TCL: Setting parameter firsttimestep to 0
TCL: Setting parameter alchLambda to 0.5499999999999999
Info: NONBONDED TABLE R-SQUARED SPACING: 0.0625
Info: NONBONDED TABLE SIZE: 705 POINTS
TCL: Setting parameter alchLambda2 to 0.6
Info: NONBONDED TABLE R-SQUARED SPACING: 0.0625
Info: NONBONDED TABLE SIZE: 705 POINTS
TCL: Running for 1500000 steps
ETITLE: TS BOND ANGLE DIHED IMPRP ELECT VDW BOUNDARY MISC KINETIC TOTAL TEMP POTENTIAL TOTALAVG TEMPAVG PRESSURE GPRESSURE VOLUME PRESSAVG GPRESSAVG
ENERGY: 0 3.6795 6.5638 6.6113 0.0000 -10928.4822 1472.6078 0.0000 0.0000 1753.9752 -7685.0445 294.2625 -9439.0197 -7685.0445 294.2625 429.6654 505.9541 30130.2697 429.6654 505.9541
ENERGY: 300000 2.1349 5.0585 5.3394 0.0000 -10856.6393 1456.9492 0.0000 0.0000 1784.0161 -7603.1412 299.3025 -9387.1573 -7615.1014 299.1653 52.4564 109.5442 30906.6385 159.7158 212.0488
ENERGY: 600000 2.5898 5.2566 4.6119 0.0000 -10926.5193 1445.6509 0.0000 0.0000 1776.6985 -7691.7116 298.0748 -9468.4101 -7621.7076 299.3292 -6.6868 117.2283 30508.3276 1.2059 61.6471
ENERGY: 900000 2.1310 2.7655 5.4673 0.0000 -11029.7010 1536.5582 0.0000 0.0000 1743.6749 -7739.1040 292.5345 -9482.7790 -7642.1602 298.1004 677.2636 765.0956 30197.7341 42.1937 108.4651
ENERGY: 1200000 1.6271 4.0546 5.5973 0.0000 -10931.2121 1470.0957 0.0000 0.0000 1805.8702 -7643.9671 302.9689 -9449.8373 -7637.8131 299.2581 -24.6891 6.4210 30773.8717 3.8197 64.4296
ENERGY: 1500000 2.0690 4.7493 4.4661 0.0000 -10842.7856 1502.4012 0.0000 0.0000 1765.1519 -7563.9481 296.1376 -9329.0999 -7633.9956 298.9275 291.8411 364.3142 31015.9755 16.8759 76.8587
TCL: Running FEP window  13: Lambda1 0.6    Lambda2 0.65   [dLambda 0.050000000000000044]
TCL: Setting parameter firsttimestep to 0
TCL: Setting parameter alchLambda to 0.6
Info: NONBONDED TABLE R-SQUARED SPACING: 0.0625
Info: NONBONDED TABLE SIZE: 705 POINTS
TCL: Setting parameter alchLambda2 to 0.65
Info: NONBONDED TABLE R-SQUARED SPACING: 0.0625
Info: NONBONDED TABLE SIZE: 705 POINTS
TCL: Running for 1500000 steps
ETITLE: TS BOND ANGLE DIHED IMPRP ELECT VDW BOUNDARY MISC KINETIC TOTAL TEMP POTENTIAL TOTALAVG TEMPAVG PRESSURE GPRESSURE VOLUME PRESSAVG GPRESSAVG
ENERGY: 0 2.0690 4.7493 4.4661 0.0000 -10842.7346 1502.2368 0.0000 0.0000 1764.2847 -7564.9287 295.9921 -9329.2133 -7564.9287 295.9921 283.6574 371.2613 31015.9755 283.6574 371.2613
ENERGY: 300000 2.8932 7.9263 5.0893 0.0000 -10982.0962 1539.2154 0.0000 0.0000 1817.0729 -7609.8992 304.8484 -9426.9720 -7646.8301 296.7674 559.5438 604.0295 31008.6537 317.0354 361.2098
ENERGY: 600000 3.1856 8.5067 3.9559 0.0000 -10998.5266 1507.4473 0.0000 0.0000 1777.8739 -7697.5573 298.2720 -9475.4312 -7636.7620 297.7754 147.5786 189.9714 30771.9714 232.0104 282.9066
ENERGY: 900000 3.7545 7.4885 6.7439 0.0000 -10974.7567 1530.3670 0.0000 0.0000 1814.1919 -7612.2109 304.3650 -9426.4027 -7638.1132 298.9881 474.9670 505.0104 30878.9834 272.3240 320.2908
ENERGY: 1200000 3.5743 6.4928 5.1461 0.0000 -10773.8903 1352.0525 0.0000 0.0000 1822.2057 -7584.4189 305.7095 -9406.6246 -7628.7849 299.2279 -759.2649 -629.1690 30986.6969 91.6653 144.2893
ENERGY: 1500000 3.0322 5.7621 5.9103 0.0000 -11031.9528 1519.5872 0.0000 0.0000 1810.0095 -7687.6515 303.6634 -9497.6610 -7635.2205 300.1469 195.0492 279.1214 30658.7704 54.8392 107.4681
TCL: Running FEP window  14: Lambda1 0.65   Lambda2 0.7000000000000001 [dLambda 0.050000000000000044]
TCL: Setting parameter firsttimestep to 0
TCL: Setting parameter alchLambda to 0.65
Info: NONBONDED TABLE R-SQUARED SPACING: 0.0625
Info: NONBONDED TABLE SIZE: 705 POINTS
TCL: Setting parameter alchLambda2 to 0.7000000000000001
Info: NONBONDED TABLE R-SQUARED SPACING: 0.0625
Info: NONBONDED TABLE SIZE: 705 POINTS
TCL: Running for 1500000 steps
ETITLE: TS BOND ANGLE DIHED IMPRP ELECT VDW BOUNDARY MISC KINETIC TOTAL TEMP POTENTIAL TOTALAVG TEMPAVG PRESSURE GPRESSURE VOLUME PRESSAVG GPRESSAVG
ENERGY: 0 3.0322 5.7621 5.9103 0.0000 -11032.8169 1519.2505 0.0000 0.0000 1809.1305 -7689.7314 303.5159 -9498.8619 -7689.7314 303.5159 205.9323 280.6060 30658.7704 205.9323 280.6060
ENERGY: 300000 3.3755 6.2817 5.5938 0.0000 -11047.3316 1577.0086 0.0000 0.0000 1762.0999 -7692.9719 295.6256 -9455.0719 -7696.6375 299.4176 1046.8987 1186.1846 30132.1983 20.3380 102.8849
ENERGY: 600000 2.9278 6.5892 5.7721 0.0000 -10782.9008 1411.6202 0.0000 0.0000 1790.6426 -7565.3489 300.4142 -9355.9915 -7664.3313 298.1954 -204.6637 -99.4144 30789.1709 13.9917 94.3283
ENERGY: 900000 3.8328 3.0248 4.3346 0.0000 -10730.1497 1407.2956 0.0000 0.0000 1777.0796 -7534.5824 298.1387 -9311.6619 -7641.2598 298.5349 -137.8470 -44.9251 31134.7250 -84.8704 -5.1912
ENERGY: 1200000 0.6402 2.6757 8.0015 0.0000 -10821.5327 1395.3926 0.0000 0.0000 1745.0482 -7669.7745 292.7649 -9414.8227 -7632.5136 299.2231 -601.7689 -514.6569 30891.0396 -49.4133 24.7245
ENERGY: 1500000 1.0976 7.1134 5.8365 0.0000 -10824.3025 1409.5786 0.0000 0.0000 1739.8101 -7660.8663 291.8861 -9400.6765 -7628.0872 299.1230 -417.6677 -346.4158 30970.9509 3.7577 72.2936
TCL: Running FEP window  15: Lambda1 0.7000000000000001 Lambda2 0.7500000000000001 [dLambda 0.050000000000000044]
TCL: Setting parameter firsttimestep to 0
TCL: Setting parameter alchLambda to 0.7000000000000001
Info: NONBONDED TABLE R-SQUARED SPACING: 0.0625
Info: NONBONDED TABLE SIZE: 705 POINTS
TCL: Setting parameter alchLambda2 to 0.7500000000000001
Info: NONBONDED TABLE R-SQUARED SPACING: 0.0625
Info: NONBONDED TABLE SIZE: 705 POINTS
TCL: Running for 1500000 steps
ETITLE: TS BOND ANGLE DIHED IMPRP ELECT VDW BOUNDARY MISC KINETIC TOTAL TEMP POTENTIAL TOTALAVG TEMPAVG PRESSURE GPRESSURE VOLUME PRESSAVG GPRESSAVG
ENERGY: 0 1.0976 7.1134 5.8365 0.0000 -10825.0632 1409.2927 0.0000 0.0000 1738.9170 -7662.8060 291.7362 -9401.7231 -7662.8060 291.7362 -429.5278 -342.1945 30970.9509 -429.5278 -342.1945
ENERGY: 300000 2.8642 3.5686 12.1802 0.0000 -10933.3987 1424.8987 0.0000 0.0000 1815.4134 -7674.4737 304.5700 -9489.8871 -7657.1889 296.8130 -353.5233 -301.1937 30445.8021 -357.3283 -288.6599
ENERGY: 600000 5.3243 4.4179 5.8095 0.0000 -10935.9657 1504.3044 0.0000 0.0000 1779.6359 -7636.4736 298.5676 -9416.1095 -7651.2510 298.0817 423.6350 497.7504 30682.4384 40.5784 107.3351
ENERGY: 900000 2.5538 4.6679 5.4378 0.0000 -11045.5892 1476.7678 0.0000 0.0000 1786.1203 -7770.0417 299.6555 -9556.1620 -7643.3097 300.1529 -340.1275 -203.7139 30683.9247 -18.8090 55.6440
ENERGY: 1200000 2.6848 3.6079 4.3049 0.0000 -10948.1495 1492.7094 0.0000 0.0000 1803.2860 -7641.5566 302.5354 -9444.8426 -7647.8209 299.5067 278.9246 328.3881 30645.5776 8.3071 88.5660
ENERGY: 1500000 5.1009 5.1292 5.1282 0.0000 -10969.1838 1498.9876 0.0000 0.0000 1793.9115 -7660.9264 300.9626 -9454.8379 -7650.8206 299.7210 551.1001 579.6473 29971.1456 55.6461 127.3165
TCL: Running FEP window  16: Lambda1 0.7500000000000001 Lambda2 0.8000000000000002 [dLambda 0.050000000000000044]
TCL: Setting parameter firsttimestep to 0
TCL: Setting parameter alchLambda to 0.7500000000000001
Info: NONBONDED TABLE R-SQUARED SPACING: 0.0625
Info: NONBONDED TABLE SIZE: 705 POINTS
TCL: Setting parameter alchLambda2 to 0.8000000000000002
Info: NONBONDED TABLE R-SQUARED SPACING: 0.0625
Info: NONBONDED TABLE SIZE: 705 POINTS
TCL: Running for 1500000 steps
ETITLE: TS BOND ANGLE DIHED IMPRP ELECT VDW BOUNDARY MISC KINETIC TOTAL TEMP POTENTIAL TOTALAVG TEMPAVG PRESSURE GPRESSURE VOLUME PRESSAVG GPRESSAVG
ENERGY: 0 5.1009 5.1292 5.1282 0.0000 -10971.2742 1499.4655 0.0000 0.0000 1793.0642 -7663.3863 300.8204 -9456.4504 -7663.3863 300.8204 504.9107 592.4210 29971.1456 504.9107 592.4210
ENERGY: 300000 3.2667 5.7909 7.0528 0.0000 -10884.0228 1469.6169 0.0000 0.0000 1860.2502 -7538.0453 312.0922 -9398.2955 -7604.4172 303.0334 129.1692 161.1399 30750.7835 39.1168 83.6905
ENERGY: 600000 2.3948 7.4071 5.1840 0.0000 -11133.2948 1620.6980 0.0000 0.0000 1778.9748 -7718.6360 298.4567 -9497.6108 -7623.6884 302.7406 1088.4971 1117.7083 30825.7468 197.2086 251.5355
ENERGY: 900000 1.8287 4.6268 3.7190 0.0000 -10988.1147 1507.0954 0.0000 0.0000 1790.0061 -7680.8387 300.3074 -9470.8448 -7624.3584 302.1181 235.3181 294.2953 30926.9234 98.1437 164.4240
ENERGY: 1200000 4.3527 5.8362 6.2407 0.0000 -10835.1538 1442.7938 0.0000 0.0000 1778.3395 -7597.5910 298.3501 -9375.9304 -7623.6220 301.3119 -144.5821 -22.0688 30903.2162 107.8155 178.3424
ENERGY: 1500000 3.1152 4.7544 4.7567 0.0000 -10964.1931 1549.9203 0.0000 0.0000 1771.4743 -7630.1723 297.1983 -9401.6466 -7626.4951 300.9436 763.9514 808.2719 30900.8768 90.3152 159.9965
TCL: Running FEP window  17: Lambda1 0.8000000000000002 Lambda2 0.8500000000000002 [dLambda 0.050000000000000044]
TCL: Setting parameter firsttimestep to 0
TCL: Setting parameter alchLambda to 0.8000000000000002
Info: NONBONDED TABLE R-SQUARED SPACING: 0.0625
Info: NONBONDED TABLE SIZE: 705 POINTS
TCL: Setting parameter alchLambda2 to 0.8500000000000002
Info: NONBONDED TABLE R-SQUARED SPACING: 0.0625
Info: NONBONDED TABLE SIZE: 705 POINTS
TCL: Running for 1500000 steps
ETITLE: TS BOND ANGLE DIHED IMPRP ELECT VDW BOUNDARY MISC KINETIC TOTAL TEMP POTENTIAL TOTALAVG TEMPAVG PRESSURE GPRESSURE VOLUME PRESSAVG GPRESSAVG
ENERGY: 0 3.1153 4.7543 4.7567 0.0000 -10965.8803 1550.6454 0.0000 0.0000 1770.6387 -7631.9699 297.0582 -9402.6087 -7631.9699 297.0582 749.9383 821.2723 30900.8768 749.9383 821.2723
ENERGY: 300000 3.4393 2.4802 7.7804 0.0000 -10956.1383 1478.0134 0.0000 0.0000 1811.0179 -7653.4071 303.8325 -9464.4250 -7626.1480 304.2046 180.2332 260.4746 30655.0659 158.7112 227.7438
ENERGY: 600000 2.6210 4.9560 5.2838 0.0000 -10792.0388 1376.8281 0.0000 0.0000 1800.4866 -7601.8634 302.0657 -9402.3499 -7625.5043 304.4149 -561.2581 -525.9136 31081.3924 -114.3319 -56.3485
ENERGY: 900000 3.8797 6.0080 3.5485 0.0000 -10864.3577 1417.6028 0.0000 0.0000 1802.3253 -7630.9934 302.3742 -9433.3187 -7622.8116 303.0882 -438.9489 -303.2482 30800.1934 -186.9025 -121.8660
ENERGY: 1200000 4.1663 4.0708 4.8245 0.0000 -10871.9170 1424.8167 0.0000 0.0000 1797.7481 -7636.2906 301.6063 -9434.0387 -7623.8134 302.9147 -540.2480 -487.1017 31149.1446 -220.0100 -156.8981
ENERGY: 1500000 3.4103 2.7887 7.1698 0.0000 -10862.7142 1438.4645 0.0000 0.0000 1797.4680 -7613.4128 301.5593 -9410.8808 -7620.6531 302.9460 -463.5013 -325.2393 31098.7574 -165.6667 -101.8615
TCL: Running FEP window  18: Lambda1 0.8500000000000002 Lambda2 0.9000000000000002 [dLambda 0.050000000000000044]
TCL: Setting parameter firsttimestep to 0
TCL: Setting parameter alchLambda to 0.8500000000000002
Info: NONBONDED TABLE R-SQUARED SPACING: 0.0625
Info: NONBONDED TABLE SIZE: 705 POINTS
TCL: Setting parameter alchLambda2 to 0.9000000000000002
Info: NONBONDED TABLE R-SQUARED SPACING: 0.0625
Info: NONBONDED TABLE SIZE: 705 POINTS
TCL: Running for 1500000 steps
ETITLE: TS BOND ANGLE DIHED IMPRP ELECT VDW BOUNDARY MISC KINETIC TOTAL TEMP POTENTIAL TOTALAVG TEMPAVG PRESSURE GPRESSURE VOLUME PRESSAVG GPRESSAVG
ENERGY: 0 3.4103 2.7887 7.1698 0.0000 -10865.4084 1441.1461 0.0000 0.0000 1796.5373 -7614.3561 301.4031 -9410.8934 -7614.3561 301.4031 -360.2251 -297.6693 31098.7574 -360.2251 -297.6693
ENERGY: 300000 1.4507 5.8201 4.4425 0.0000 -10899.3872 1470.0212 0.0000 0.0000 1749.4749 -7668.1778 293.5075 -9417.6527 -7682.5801 296.8894 18.0374 109.3342 30897.1027 95.1989 158.7369
ENERGY: 600000 3.2792 3.2967 5.8370 0.0000 -10843.5406 1440.9489 0.0000 0.0000 1786.9130 -7603.2657 299.7885 -9390.1787 -7634.8088 299.9279 -178.2226 -86.0565 30962.9380 242.2757 296.6838
ENERGY: 900000 4.8511 3.8954 4.9475 0.0000 -10948.1863 1476.3496 0.0000 0.0000 1788.2501 -7669.8927 300.0128 -9458.1427 -7642.9422 300.1904 27.5727 12.3219 30937.1983 49.3559 96.8891
ENERGY: 1200000 0.9364 6.2227 7.6268 0.0000 -10762.5680 1391.3607 0.0000 0.0000 1767.5230 -7588.8984 296.5354 -9356.4214 -7645.4483 299.8364 -266.3475 -183.0850 31140.5276 47.3962 101.7974
ENERGY: 1500000 0.8765 5.3711 3.4115 0.0000 -10958.3170 1523.7798 0.0000 0.0000 1810.6095 -7614.2687 303.7640 -9424.8781 -7638.7641 300.4886 514.1034 530.5982 31043.0518 39.8319 95.9176
TCL: Running FEP window  19: Lambda1 0.9000000000000002 Lambda2 0.9500000000000003 [dLambda 0.050000000000000044]
TCL: Setting parameter firsttimestep to 0
TCL: Setting parameter alchLambda to 0.9000000000000002
Info: NONBONDED TABLE R-SQUARED SPACING: 0.0625
Info: NONBONDED TABLE SIZE: 705 POINTS
TCL: Setting parameter alchLambda2 to 0.9500000000000003
Info: NONBONDED TABLE R-SQUARED SPACING: 0.0625
Info: NONBONDED TABLE SIZE: 705 POINTS
TCL: Running for 1500000 steps
ETITLE: TS BOND ANGLE DIHED IMPRP ELECT VDW BOUNDARY MISC KINETIC TOTAL TEMP POTENTIAL TOTALAVG TEMPAVG PRESSURE GPRESSURE VOLUME PRESSAVG GPRESSAVG
ENERGY: 0 0.8765 5.3711 3.4115 0.0000 -10961.0004 1525.2637 0.0000 0.0000 1809.7394 -7616.3382 303.6180 -9426.0776 -7616.3382 303.6180 460.3625 553.0197 31043.0518 460.3625 553.0197
ENERGY: 300000 1.8536 3.6269 5.1425 0.0000 -10812.7380 1424.9440 0.0000 0.0000 1747.2566 -7629.9144 293.1354 -9377.1710 -7628.5299 296.0342 -281.1998 -225.1365 31213.9874 8.2742 69.0078
ENERGY: 600000 5.4553 4.9269 7.2110 0.0000 -10902.1742 1456.4915 0.0000 0.0000 1793.5668 -7634.5227 300.9048 -9428.0896 -7636.3547 297.7187 -59.8015 67.7620 30855.5318 -141.1918 -73.1940
ENERGY: 900000 2.2544 3.5665 5.9590 0.0000 -10938.1565 1558.1355 0.0000 0.0000 1824.4192 -7543.8220 306.0809 -9368.2412 -7632.8826 298.7422 1092.8138 1140.1749 30441.5770 38.4014 98.1764
ENERGY: 1200000 2.2984 7.2679 6.9286 0.0000 -11055.4082 1529.9458 0.0000 0.0000 1766.9712 -7741.9962 296.4429 -9508.9675 -7644.7527 298.5417 305.1085 390.9351 30491.1949 25.0787 81.7380
ENERGY: 1500000 2.1827 3.6934 7.6498 0.0000 -10732.9139 1324.6554 0.0000 0.0000 1822.4587 -7572.2738 305.7519 -9394.7326 -7642.7907 298.8149 -910.9300 -909.3225 31105.5173 60.8123 115.3890
TCL: Running FEP window  20: Lambda1 0.9500000000000003 Lambda2 1.0    [dLambda 0.04999999999999971]
TCL: Setting parameter firsttimestep to 0
TCL: Setting parameter alchLambda to 0.9500000000000003
Info: NONBONDED TABLE R-SQUARED SPACING: 0.0625
Info: NONBONDED TABLE SIZE: 705 POINTS
TCL: Setting parameter alchLambda2 to 1.0
Info: NONBONDED TABLE R-SQUARED SPACING: 0.0625
Info: NONBONDED TABLE SIZE: 705 POINTS
TCL: Running for 1500000 steps
ETITLE: TS BOND ANGLE DIHED IMPRP ELECT VDW BOUNDARY MISC KINETIC TOTAL TEMP POTENTIAL TOTALAVG TEMPAVG PRESSURE GPRESSURE VOLUME PRESSAVG GPRESSAVG
ENERGY: 0 2.1827 3.6934 7.6498 0.0000 -10734.2176 1324.4339 0.0000 0.0000 1821.5744 -7574.6833 305.6036 -9396.2577 -7574.6833 305.6036 -981.7743 -903.3379 31105.5173 -981.7743 -903.3379
ENERGY: 300000 4.2000 6.0552 6.8563 0.0000 -10847.2148 1424.8275 0.0000 0.0000 1757.2881 -7647.9876 294.8183 -9405.2757 -7624.2822 299.5442 -448.4186 -331.8913 31140.4915 -365.3449 -291.4143
ENERGY: 600000 0.6358 4.8328 4.4584 0.0000 -10863.4673 1436.4684 0.0000 0.0000 1819.1605 -7597.9114 305.1986 -9417.0719 -7635.1708 300.1380 -19.7502 11.5674 30794.2463 -164.2606 -93.2949
ENERGY: 900000 3.5131 4.2095 6.6827 0.0000 -10900.3594 1444.7774 0.0000 0.0000 1743.6011 -7697.5757 292.5221 -9441.1768 -7644.8936 299.8594 -470.5828 -319.2680 30823.3593 -132.1547 -58.0110
ENERGY: 1200000 3.5046 9.0870 7.5014 0.0000 -10956.7960 1453.4694 0.0000 0.0000 1840.4150 -7642.8186 308.7645 -9483.2337 -7643.3947 299.2129 65.2471 113.7597 30554.9094 -64.7840 0.8801
ENERGY: 1500000 7.0372 4.7892 4.8631 0.0000 -10796.5781 1383.9731 0.0000 0.0000 1803.9280 -7591.9874 302.6431 -9395.9154 -7632.6936 299.9121 -902.3283 -837.3593 31240.6381 -123.9911 -61.2108
TCL: Exiting due to exit command.
