Info: SIMULATION PARAMETERS:
Info: TIMESTEP               2
Info: NUMBER OF STEPS        0
Info: STEPS PER CYCLE        10
Info: PERIODIC CELL BASIS 1  30.2939 0 0
Info: PERIODIC CELL BASIS 2  0 30.3408 0
Info: PERIODIC CELL BASIS 3  0 0 32.94
Info: PERIODIC CELL CENTER   0 0 0
Info: WRAPPING WATERS AROUND PERIODIC BOUNDARIES ON OUTPUT.
Info: WRAPPING ALL CLUSTERS AROUND PERIODIC BOUNDARIES ON OUTPUT.
Info: FIRST LDB TIMESTEP     50
Info: LAST LDB TIMESTEP     -1
Info: HOM BACKGROUND SCALING 1
Info: PME BACKGROUND SCALING 1
Info: MIN ATOMS PER PATCH    40
Info: EMPTY PATCH LOAD       40 ATOMS
Info: VELOCITY FILE          mobley_1881249_equil.vel
Info: CENTER OF MASS MOVING INITIALLY? NO
Info: DIELECTRIC             1
Info: EXCLUDE                SCALED ONE-FOUR
Info: 1-4 ELECTROSTATICS SCALED BY 0.833333
Info: MODIFIED 1-4 VDW PARAMETERS WILL BE USED
Info: DCD FILENAME           mobley_1881249_prod.dcd
Info: DCD FREQUENCY          100000
Info: DCD FIRST STEP         100000
Info: DCD FILE WILL CONTAIN UNIT CELL DATA
Info: XST FILENAME           mobley_1881249_prod.xst
Info: XST FREQUENCY          100000
Info: NO VELOCITY DCD OUTPUT
Info: NO FORCE DCD OUTPUT
Info: OUTPUT FILENAME        mobley_1881249_prod
Info: BINARY OUTPUT FILES WILL BE USED
Info: RESTART FILENAME       mobley_1881249_prod.restart
Info: RESTART FREQUENCY      100000
Info: BINARY RESTART FILES WILL BE USED
Info: CUTOFF                 9
Info: PAIRLIST DISTANCE      11
Info: PAIRLIST SHRINK RATE   0.01
Info: PAIRLIST GROW RATE     0.01
Info: PAIRLIST TRIGGER       0.3
Info: PAIRLISTS PER CYCLE    2
Info: PAIRLISTS ENABLED
Info: MARGIN                 2
Info: HYDROGEN GROUP CUTOFF  2.5
Info: PATCH DIMENSION        15.5
Info: ENERGY OUTPUT STEPS    100000
Info: ENERGY EVALUATION STEPS    100000
Info: OUTPUT ENERGY PRECISION 4
Info: CROSSTERM ENERGY INCLUDED IN DIHEDRAL
Info: TIMING OUTPUT STEPS    1000000
Info: PRESSURE OUTPUT STEPS  100000
Info: ALCHEMICAL FEP ON
Info: FEP CURRENT LAMBDA VALUE     0
Info: FEP COMPARISON LAMBDA VALUE  0.05
Info: FEP INTRA-ALCHEMICAL NON-BONDED INTERACTIONS WILL BE RETAINED
Info: FEP INTRA-ALCHEMICAL BONDED INTERACTIONS WILL BE RETAINED
Info: FEP VDW SHIFTING COEFFICIENT 5
Info: FEP ELEC. ACTIVE FOR ANNIHILATED PARTICLES BETWEEN LAMBDA = 0 AND LAMBDA = 0.5
Info: FEP ELEC. ACTIVE FOR EXNIHILATED PARTICLES BETWEEN LAMBDA = 0.5 AND LAMBDA = 1
Info: FEP VDW ACTIVE FOR ANNIHILATED PARTICLES BETWEEN LAMBDA = 0 AND LAMBDA = 1
Info: FEP VDW ACTIVE FOR EXNIHILATED PARTICLES BETWEEN LAMBDA = 0 AND LAMBDA = 1
Info: FEP BOND ACTIVE FOR ANNIHILATED PARTICLES BETWEEN LAMBDA = 1 AND LAMBDA = 1
Info: FEP BOND ACTIVE FOR EXNIHILATED PARTICLES BETWEEN LAMBDA = 0 AND LAMBDA = 0
Info: LANGEVIN DYNAMICS ACTIVE
Info: LANGEVIN TEMPERATURE   300
Info: LANGEVIN USING BBK INTEGRATOR
Info: LANGEVIN DAMPING COEFFICIENT IS 1 INVERSE PS
Info: LANGEVIN DYNAMICS APPLIED TO HYDROGENS
Info: LANGEVIN PISTON PRESSURE CONTROL ACTIVE
Info:        TARGET PRESSURE IS 1.01325 BAR
Info:     OSCILLATION PERIOD IS 50 FS
Info:             DECAY TIME IS 25 FS
Info:     PISTON TEMPERATURE IS 300 K
Info:       PRESSURE CONTROL IS GROUP-BASED
Info:    INITIAL STRAIN RATE IS 2.15344e-05 2.15344e-05 2.15344e-05
Info:       CELL FLUCTUATION IS ISOTROPIC
Info: PARTICLE MESH EWALD (PME) ACTIVE
Info: PME TOLERANCE               1e-06
Info: PME EWALD COEFFICIENT       0.348832
Info: PME INTERPOLATION ORDER     4
Info: PME GRID DIMENSIONS         32 32 36
Info: PME MAXIMUM GRID SPACING    1
Info: PME CALCULATION WILL BE PERFORMED ON GPU
Info: FULL ELECTROSTATIC EVALUATION FREQUENCY      2
Info: USING VERLET I (r-RESPA) MTS SCHEME.
Info: C1 SPLITTING OF LONG RANGE ELECTROSTATICS
Info: PLACING ATOMS IN PATCHES BY HYDROGEN GROUPS
Info: RIGID BONDS TO HYDROGEN : ALL
Info:         ERROR TOLERANCE : 1e-08
Info:          MAX ITERATIONS : 100
Info: RIGID WATER USING SETTLE ALGORITHM
Info: RANDOM NUMBER SEED     1743841826
Info: USE HYDROGEN BONDS?    NO
Info: Using AMBER format force field!
Info: AMBER PARM FILE        mobley_1881249.prmtop
Info: COORDINATE PDB         mobley_1881249.pdb
Info: Exclusions will be read from PARM file!
Info: SCNB (VDW SCALING)     2
Info: USING ARITHMETIC MEAN TO COMBINE L-J SIGMA PARAMETERS
Info: BINARY COORDINATES     mobley_1881249_equil.coor
Info: SUMMARY OF PARAMETERS:
Info: 6 BONDS
Info: 7 ANGLES
Info:   7 HARMONIC
Info:   0 COSINE-BASED
Info: 8 DIHEDRAL
Info: 0 IMPROPER
Info: 0 CROSSTERM
Info: 0 VDW
Info: 21 VDW_PAIRS
Info: 0 NBTHOLE_PAIRS
Info: To read alchdata from file: mobley_1881249.pdb
Info: To read alchflag data from column: 5
Info: STRUCTURE SUMMARY:
Info: 2962 ATOMS
Info: 2961 BONDS
Info: 27 ANGLES
Info: 41 DIHEDRALS
Info: 0 IMPROPERS
Info: 0 CROSSTERMS
Info: 3018 EXCLUSIONS
Info: 2956 RIGID BONDS
Info: ALCH: 0 ATOMS TO DISAPPEAR IN FINAL STATE
Info: ALCH: 16 ATOMS TO APPEAR IN FINAL STATE
Info: 5930 DEGREES OF FREEDOM
Info: 988 HYDROGEN GROUPS
Info: 4 ATOMS IN LARGEST HYDROGEN GROUP
Info: 988 MIGRATION GROUPS
Info: 4 ATOMS IN LARGEST MIGRATION GROUP
Info: TOTAL MASS = 17777.8 amu
Info: TOTAL CHARGE = -0.000200018 e
Info: MASS DENSITY = 0.975062 g/cm^3
Info: ATOM DENSITY = 0.0978316 atoms/A^3
Info: ADDED 0 IMPLICIT EXCLUSIONS
Info: NONBONDED TABLE R-SQUARED SPACING: 0.0625
Info: NONBONDED TABLE SIZE: 705 POINTS
Info: REMOVING COM VELOCITY 0.100667 0.229461 -0.044215
Info: Use 3D box decompostion in PME FFT.
Info: Updated CUDA force table with 4096 elements.
Info: Updated CUDA LJ table with 6 x 6 elements.
Info: Found 19 unique exclusion lists needing 44 bytes
TCL: Running for 1500000 steps
ETITLE: TS BOND ANGLE DIHED IMPRP ELECT VDW BOUNDARY MISC KINETIC TOTAL TEMP POTENTIAL TOTALAVG TEMPAVG PRESSURE GPRESSURE VOLUME PRESSAVG GPRESSAVG
ENERGY: 0 0.7078 7.1096 5.2117 0.0000 -10817.0003 1470.6840 0.0000 0.0000 1820.9759 -7512.3114 309.0579 -9333.2873 -7512.3114 309.0579 84.7998 164.2055 30276.5211 84.7998 164.2055
ENERGY: 300000 2.1435 7.6130 4.6766 0.0000 -10860.1485 1493.8257 0.0000 0.0000 1780.9153 -7570.9744 302.2588 -9351.8897 -7530.6229 302.7926 183.7369 294.2007 30073.3412 158.6826 226.2024
ENERGY: 600000 0.9235 7.9065 5.2687 0.0000 -10894.9359 1532.3190 0.0000 0.0000 1785.4533 -7563.0650 303.0290 -9348.5182 -7527.4176 303.1687 472.2394 516.5907 30281.4878 145.0094 198.0242
ENERGY: 900000 4.4697 7.6018 4.1026 0.0000 -10503.8183 1353.4091 0.0000 0.0000 1700.9281 -7433.3069 288.6833 -9134.2350 -7519.1276 301.7233 -545.5051 -496.7720 30594.5095 -11.9944 45.2139
ENERGY: 1200000 0.5457 5.0062 4.1010 0.0000 -10813.4344 1483.6536 0.0000 0.0000 1782.7904 -7537.3375 302.5770 -9320.1279 -7509.3292 302.5993 329.7722 369.9613 30286.6366 -48.5656 3.0332
ENERGY: 1500000 0.9798 6.6854 4.3667 0.0000 -10710.7282 1411.3864 0.0000 0.0000 1770.3806 -7516.9293 300.4708 -9287.3099 -7509.1279 301.7250 -402.0325 -408.8883 30592.4082 -126.1040 -76.0061
TCL: Running FEP window   2: Lambda1 0.05   Lambda2 0.1    [dLambda 0.05  ]
TCL: Setting parameter firsttimestep to 0
TCL: Setting parameter alchLambda to 0.05
Info: NONBONDED TABLE R-SQUARED SPACING: 0.0625
Info: NONBONDED TABLE SIZE: 705 POINTS
TCL: Setting parameter alchLambda2 to 0.1
Info: NONBONDED TABLE R-SQUARED SPACING: 0.0625
Info: NONBONDED TABLE SIZE: 705 POINTS
TCL: Running for 1500000 steps
ETITLE: TS BOND ANGLE DIHED IMPRP ELECT VDW BOUNDARY MISC KINETIC TOTAL TEMP POTENTIAL TOTALAVG TEMPAVG PRESSURE GPRESSURE VOLUME PRESSAVG GPRESSAVG
ENERGY: 0 0.9798 6.6854 4.3667 0.0000 -10710.7272 1412.7161 0.0000 0.0000 1769.5032 -7516.4761 300.3219 -9285.9792 -7516.4761 300.3219 -488.1309 -403.0950 30592.4082 -488.1309 -403.0950
ENERGY: 300000 3.0756 4.3184 4.6152 0.0000 -10726.3391 1435.9737 0.0000 0.0000 1751.9611 -7526.3950 297.3447 -9278.3561 -7519.2335 298.5099 -60.3891 33.8943 30228.7690 -257.9464 -181.7126
ENERGY: 600000 1.2626 4.7011 3.6317 0.0000 -10683.0554 1379.8853 0.0000 0.0000 1786.7355 -7506.8392 303.2466 -9293.5747 -7515.1278 299.5381 -687.4114 -650.2943 30619.5083 -291.5752 -228.0600
ENERGY: 900000 2.7203 4.0043 4.3515 0.0000 -10669.8554 1352.7072 0.0000 0.0000 1773.8583 -7532.2138 301.0611 -9306.0721 -7518.7770 299.7875 -902.0978 -929.7819 30562.5252 -213.3551 -156.3351
ENERGY: 1200000 2.6025 5.4092 4.6160 0.0000 -10596.8679 1350.3579 0.0000 0.0000 1782.1613 -7451.7210 302.4703 -9233.8823 -7509.0137 300.6989 -802.3085 -724.1125 30449.3829 -208.3355 -151.0667
ENERGY: 1500000 3.2809 8.0757 3.8814 0.0000 -10673.4603 1429.3362 0.0000 0.0000 1728.2790 -7500.6071 293.3253 -9228.8861 -7517.1241 299.6729 -144.3217 -113.3392 30659.2564 -190.8932 -138.4017
TCL: Running FEP window   3: Lambda1 0.1    Lambda2 0.15000000000000002 [dLambda 0.05000000000000002]
TCL: Setting parameter firsttimestep to 0
TCL: Setting parameter alchLambda to 0.1
Info: NONBONDED TABLE R-SQUARED SPACING: 0.0625
Info: NONBONDED TABLE SIZE: 705 POINTS
TCL: Setting parameter alchLambda2 to 0.15000000000000002
Info: NONBONDED TABLE R-SQUARED SPACING: 0.0625
Info: NONBONDED TABLE SIZE: 705 POINTS
TCL: Running for 1500000 steps
ETITLE: TS BOND ANGLE DIHED IMPRP ELECT VDW BOUNDARY MISC KINETIC TOTAL TEMP POTENTIAL TOTALAVG TEMPAVG PRESSURE GPRESSURE VOLUME PRESSAVG GPRESSAVG
ENERGY: 0 3.2809 8.0757 3.8814 0.0000 -10673.4611 1429.2467 0.0000 0.0000 1727.4246 -7501.5518 293.1803 -9228.9764 -7501.5518 293.1803 -186.5772 -111.1658 30659.2564 -186.5772 -111.1658
ENERGY: 300000 0.5632 9.8367 4.8604 0.0000 -10836.0047 1540.8972 0.0000 0.0000 1754.6894 -7525.1577 297.8077 -9279.8471 -7498.7648 299.7771 1067.0427 1144.0720 29635.3327 162.7208 239.2176
ENERGY: 600000 3.0640 7.3777 5.7928 0.0000 -10665.9354 1404.3078 0.0000 0.0000 1758.0386 -7487.3546 298.3761 -9245.3932 -7509.1345 300.0863 -312.3097 -305.4141 30406.8285 119.1030 186.5439
ENERGY: 900000 2.7942 5.0144 5.9493 0.0000 -10811.6768 1465.8829 0.0000 0.0000 1708.9607 -7623.0753 290.0466 -9332.0360 -7515.6133 299.1074 223.6861 236.1020 30142.0933 206.1475 263.0854
ENERGY: 1200000 1.1526 7.3728 4.4640 0.0000 -10598.9194 1395.1305 0.0000 0.0000 1779.1102 -7411.6892 301.9524 -9190.7994 -7503.5021 299.6425 19.3652 65.1486 29971.2926 139.0215 195.5233
ENERGY: 1500000 0.9724 8.2000 4.5248 0.0000 -10742.6148 1490.1106 0.0000 0.0000 1803.3549 -7435.4521 306.0673 -9238.8069 -7504.8951 299.3088 749.1545 775.7017 29667.9040 157.9724 213.1973
TCL: Running FEP window   4: Lambda1 0.15000000000000002 Lambda2 0.2    [dLambda 0.04999999999999999]
TCL: Setting parameter firsttimestep to 0
TCL: Setting parameter alchLambda to 0.15000000000000002
Info: NONBONDED TABLE R-SQUARED SPACING: 0.0625
Info: NONBONDED TABLE SIZE: 705 POINTS
TCL: Setting parameter alchLambda2 to 0.2
Info: NONBONDED TABLE R-SQUARED SPACING: 0.0625
Info: NONBONDED TABLE SIZE: 705 POINTS
TCL: Running for 1500000 steps
ETITLE: TS BOND ANGLE DIHED IMPRP ELECT VDW BOUNDARY MISC KINETIC TOTAL TEMP POTENTIAL TOTALAVG TEMPAVG PRESSURE GPRESSURE VOLUME PRESSAVG GPRESSAVG
ENERGY: 0 0.9724 8.2000 4.5248 0.0000 -10742.6156 1491.7558 0.0000 0.0000 1802.4859 -7434.6767 305.9198 -9237.1626 -7434.6767 305.9198 709.7250 780.9161 29667.9040 709.7250 780.9161
ENERGY: 300000 3.4623 3.8945 4.0866 0.0000 -10704.7813 1422.7935 0.0000 0.0000 1749.2569 -7521.2874 296.8857 -9270.5443 -7517.4230 297.4284 -361.6816 -252.8340 30460.6856 187.5909 253.5312
ENERGY: 600000 1.3544 6.6330 3.9792 0.0000 -10786.3535 1432.0991 0.0000 0.0000 1795.0903 -7547.1975 304.6646 -9342.2878 -7532.5059 298.9603 -32.1981 55.7849 30083.3341 159.0559 231.6404
ENERGY: 900000 0.4237 7.6400 4.5869 0.0000 -10777.1391 1504.7779 0.0000 0.0000 1777.9832 -7481.7274 301.7612 -9259.7106 -7523.8273 300.1819 452.0321 561.7310 30215.2270 94.3966 170.4936
ENERGY: 1200000 1.8885 5.7035 4.7132 0.0000 -10818.2613 1455.6963 0.0000 0.0000 1766.8471 -7583.4128 299.8711 -9350.2598 -7540.0648 299.2748 48.8924 99.6990 30002.2373 138.5446 211.4130
ENERGY: 1500000 2.1384 7.1196 4.5337 0.0000 -10746.0069 1430.4815 0.0000 0.0000 1771.9224 -7529.8113 300.7325 -9301.7337 -7545.3180 299.4508 -145.3400 -41.3465 30107.5098 16.5694 97.3397
TCL: Running FEP window   5: Lambda1 0.2    Lambda2 0.25   [dLambda 0.04999999999999999]
TCL: Setting parameter firsttimestep to 0
TCL: Setting parameter alchLambda to 0.2
Info: NONBONDED TABLE R-SQUARED SPACING: 0.0625
Info: NONBONDED TABLE SIZE: 705 POINTS
TCL: Setting parameter alchLambda2 to 0.25
Info: NONBONDED TABLE R-SQUARED SPACING: 0.0625
Info: NONBONDED TABLE SIZE: 705 POINTS
TCL: Running for 1500000 steps
ETITLE: TS BOND ANGLE DIHED IMPRP ELECT VDW BOUNDARY MISC KINETIC TOTAL TEMP POTENTIAL TOTALAVG TEMPAVG PRESSURE GPRESSURE VOLUME PRESSAVG GPRESSAVG
ENERGY: 0 2.1384 7.1196 4.5337 0.0000 -10746.0055 1430.9190 0.0000 0.0000 1771.0420 -7530.2528 300.5831 -9301.2948 -7530.2528 300.5831 -140.7353 -35.0325 30107.5098 -140.7353 -35.0325
ENERGY: 300000 2.2060 4.7212 4.6280 0.0000 -10662.6672 1419.6462 0.0000 0.0000 1817.0108 -7414.4551 308.3850 -9231.4659 -7484.4127 300.7164 -207.6505 -119.4488 30692.8094 -24.6273 62.1728
ENERGY: 600000 0.4232 8.2581 4.2557 0.0000 -10598.2218 1385.6942 0.0000 0.0000 1821.8039 -7377.7866 309.1985 -9199.5905 -7471.5064 300.9015 -258.6207 -215.0328 30657.3979 -187.1516 -114.1816
ENERGY: 900000 1.0974 5.6784 4.4249 0.0000 -10827.3208 1490.7825 0.0000 0.0000 1777.8602 -7547.4774 301.7403 -9325.3376 -7486.2367 301.2475 437.2373 500.1283 29940.6999 -123.1334 -58.2354
ENERGY: 1200000 0.3605 8.1320 5.3239 0.0000 -10747.5547 1466.6289 0.0000 0.0000 1740.5073 -7526.6022 295.4007 -9267.1094 -7501.7227 300.8524 46.9598 113.2150 30737.7003 -61.3605 -5.2452
ENERGY: 1500000 1.0888 7.5299 4.2593 0.0000 -10810.6606 1504.4563 0.0000 0.0000 1782.0232 -7511.3032 302.4468 -9293.3264 -7485.0868 301.1862 373.8239 406.0156 30468.5817 -107.0440 -54.8855
TCL: Running FEP window   6: Lambda1 0.25   Lambda2 0.3    [dLambda 0.04999999999999999]
TCL: Setting parameter firsttimestep to 0
TCL: Setting parameter alchLambda to 0.25
Info: NONBONDED TABLE R-SQUARED SPACING: 0.0625
Info: NONBONDED TABLE SIZE: 705 POINTS
TCL: Setting parameter alchLambda2 to 0.3
Info: NONBONDED TABLE R-SQUARED SPACING: 0.0625
Info: NONBONDED TABLE SIZE: 705 POINTS
TCL: Running for 1500000 steps
ETITLE: TS BOND ANGLE DIHED IMPRP ELECT VDW BOUNDARY MISC KINETIC TOTAL TEMP POTENTIAL TOTALAVG TEMPAVG PRESSURE GPRESSURE VOLUME PRESSAVG GPRESSAVG
ENERGY: 0 1.0888 7.5299 4.2593 0.0000 -10810.6613 1504.7142 0.0000 0.0000 1781.2095 -7511.8596 302.3087 -9293.0691 -7511.8596 302.3087 332.3389 409.8854 30468.5817 332.3389 409.8854
ENERGY: 300000 3.4915 6.5222 6.3936 0.0000 -10683.8840 1385.3098 0.0000 0.0000 1824.0977 -7458.0692 309.5878 -9282.1669 -7466.9662 304.5306 -446.5311 -365.4972 30421.8094 256.5778 313.9539
ENERGY: 600000 0.8834 5.7156 4.4942 0.0000 -10674.9491 1388.9614 0.0000 0.0000 1742.7413 -7532.1532 295.7799 -9274.8946 -7502.9131 301.5545 -348.9205 -367.1426 30373.7590 177.1466 211.0569
ENERGY: 900000 0.9351 7.4033 4.8008 0.0000 -10726.9622 1440.2291 0.0000 0.0000 1780.6241 -7492.9698 302.2094 -9273.5939 -7496.5307 301.4291 -11.2491 79.0983 30418.5918 65.3676 115.8322
ENERGY: 1200000 1.9328 9.5251 5.8126 0.0000 -10709.7960 1457.6491 0.0000 0.0000 1729.0753 -7505.8010 293.4605 -9234.8763 -7498.4021 300.3130 17.9103 87.2045 30502.9577 24.8831 69.9637
ENERGY: 1500000 1.6423 11.5878 4.0296 0.0000 -10755.0130 1436.9106 0.0000 0.0000 1783.0450 -7517.7977 302.6203 -9300.8427 -7495.9155 300.7810 -203.2810 -99.5982 30699.9507 -23.2912 28.2660
TCL: Running FEP window   7: Lambda1 0.3    Lambda2 0.35   [dLambda 0.04999999999999999]
TCL: Setting parameter firsttimestep to 0
TCL: Setting parameter alchLambda to 0.3
Info: NONBONDED TABLE R-SQUARED SPACING: 0.0625
Info: NONBONDED TABLE SIZE: 705 POINTS
TCL: Setting parameter alchLambda2 to 0.35
Info: NONBONDED TABLE R-SQUARED SPACING: 0.0625
Info: NONBONDED TABLE SIZE: 705 POINTS
TCL: Running for 1500000 steps
ETITLE: TS BOND ANGLE DIHED IMPRP ELECT VDW BOUNDARY MISC KINETIC TOTAL TEMP POTENTIAL TOTALAVG TEMPAVG PRESSURE GPRESSURE VOLUME PRESSAVG GPRESSAVG
ENERGY: 0 1.6423 11.5878 4.0296 0.0000 -10755.0135 1436.5183 0.0000 0.0000 1782.1714 -7519.0641 302.4720 -9301.2355 -7519.0641 302.4720 -191.3674 -99.5463 30699.9507 -191.3674 -99.5463
ENERGY: 300000 3.2925 5.9442 3.4324 0.0000 -10780.2778 1494.4382 0.0000 0.0000 1788.5032 -7484.6673 303.5466 -9273.1705 -7513.6176 298.8692 580.0048 671.0802 30135.7386 -98.6713 0.2269
ENERGY: 600000 2.3866 8.8053 3.7848 0.0000 -10850.6664 1488.7665 0.0000 0.0000 1793.1061 -7553.8172 304.3278 -9346.9233 -7517.1486 302.2681 291.2788 312.5159 30081.1849 -73.0265 0.2489
ENERGY: 900000 0.9956 4.5158 4.4480 0.0000 -10853.5521 1533.9213 0.0000 0.0000 1745.6713 -7564.0000 296.2772 -9309.6714 -7523.1663 301.1516 396.2945 502.6091 30378.5552 102.4296 175.9580
ENERGY: 1200000 1.6578 7.5216 6.8108 0.0000 -10727.6640 1474.4738 0.0000 0.0000 1816.2769 -7420.9231 308.2604 -9237.2000 -7508.4516 301.4021 600.8465 653.1671 30182.7980 105.7111 172.8790
ENERGY: 1500000 1.5319 5.9280 5.0588 0.0000 -10722.0434 1496.7567 0.0000 0.0000 1819.7023 -7393.0656 308.8418 -9212.7679 -7508.5922 300.9088 427.3819 486.7870 30718.6653 136.7161 200.8402
TCL: Running FEP window   8: Lambda1 0.35   Lambda2 0.39999999999999997 [dLambda 0.04999999999999999]
TCL: Setting parameter firsttimestep to 0
TCL: Setting parameter alchLambda to 0.35
Info: NONBONDED TABLE R-SQUARED SPACING: 0.0625
Info: NONBONDED TABLE SIZE: 705 POINTS
TCL: Setting parameter alchLambda2 to 0.39999999999999997
Info: NONBONDED TABLE R-SQUARED SPACING: 0.0625
Info: NONBONDED TABLE SIZE: 705 POINTS
TCL: Running for 1500000 steps
ETITLE: TS BOND ANGLE DIHED IMPRP ELECT VDW BOUNDARY MISC KINETIC TOTAL TEMP POTENTIAL TOTALAVG TEMPAVG PRESSURE GPRESSURE VOLUME PRESSAVG GPRESSAVG
ENERGY: 0 1.5319 5.9280 5.0588 0.0000 -10722.0412 1496.8672 0.0000 0.0000 1818.8182 -7393.8372 308.6917 -9212.6553 -7393.8372 308.6917 418.9462 491.6859 30718.6653 418.9462 491.6859
ENERGY: 300000 0.7398 9.5845 4.8293 0.0000 -10839.9908 1457.8787 0.0000 0.0000 1739.7640 -7627.1944 295.2746 -9366.9584 -7494.7616 302.2665 116.6474 192.3402 29886.9768 -68.6947 -4.5910
ENERGY: 600000 0.4995 4.8490 6.7595 0.0000 -10738.4075 1455.8723 0.0000 0.0000 1757.7916 -7512.6357 298.3342 -9270.4273 -7494.4836 301.4093 230.6049 278.6871 30297.6524 -52.1266 -2.4152
ENERGY: 900000 1.2722 4.8590 4.1298 0.0000 -10704.9220 1456.9554 0.0000 0.0000 1800.0243 -7437.6813 305.5020 -9237.7056 -7486.6431 301.8856 366.9309 376.9817 30501.1826 44.0517 90.2822
ENERGY: 1200000 1.2423 5.1935 5.4512 0.0000 -10669.7150 1412.6415 0.0000 0.0000 1771.3883 -7473.7983 300.6419 -9245.1865 -7487.4304 302.0814 14.1223 82.5412 30160.3752 68.3066 123.1811
ENERGY: 1500000 2.3181 5.4276 4.4336 0.0000 -10731.4977 1432.1310 0.0000 0.0000 1782.1397 -7505.0477 302.4666 -9287.1874 -7500.5051 300.7958 -95.5617 -115.4396 30881.6140 -61.4893 -14.7789
TCL: Running FEP window   9: Lambda1 0.39999999999999997 Lambda2 0.44999999999999996 [dLambda 0.04999999999999999]
TCL: Setting parameter firsttimestep to 0
TCL: Setting parameter alchLambda to 0.39999999999999997
Info: NONBONDED TABLE R-SQUARED SPACING: 0.0625
Info: NONBONDED TABLE SIZE: 705 POINTS
TCL: Setting parameter alchLambda2 to 0.44999999999999996
Info: NONBONDED TABLE R-SQUARED SPACING: 0.0625
Info: NONBONDED TABLE SIZE: 705 POINTS
TCL: Running for 1500000 steps
ETITLE: TS BOND ANGLE DIHED IMPRP ELECT VDW BOUNDARY MISC KINETIC TOTAL TEMP POTENTIAL TOTALAVG TEMPAVG PRESSURE GPRESSURE VOLUME PRESSAVG GPRESSAVG
ENERGY: 0 2.3181 5.4276 4.4336 0.0000 -10731.5011 1433.6466 0.0000 0.0000 1781.2592 -7504.4161 302.3172 -9285.6753 -7504.4161 302.3172 -178.3849 -100.1004 30881.6140 -178.3849 -100.1004
ENERGY: 300000 0.8332 6.7214 4.9592 0.0000 -10767.9365 1435.9129 0.0000 0.0000 1758.2192 -7561.2906 298.4068 -9319.5098 -7508.2154 299.1915 -381.3423 -364.2409 30973.3714 -119.1502 -68.8833
ENERGY: 600000 0.8054 5.1773 4.6962 0.0000 -10757.7346 1479.4127 0.0000 0.0000 1789.1447 -7478.4983 303.6555 -9267.6430 -7505.5013 299.7604 113.9636 158.6285 30773.1367 -48.2870 11.8680
ENERGY: 900000 1.8763 7.5928 6.5656 0.0000 -10625.3633 1359.6207 0.0000 0.0000 1786.9753 -7462.7327 303.2873 -9249.7080 -7491.5705 300.8223 -969.2196 -867.6729 30781.7153 -113.4957 -43.9612
ENERGY: 1200000 1.1269 9.3923 4.2768 0.0000 -10883.0369 1513.9306 0.0000 0.0000 1716.1963 -7638.1142 291.2746 -9354.3104 -7505.3073 299.6892 290.3305 339.3746 30243.0591 -111.7459 -48.9451
ENERGY: 1500000 2.2409 10.2645 4.7000 0.0000 -10799.9173 1529.9264 0.0000 0.0000 1775.9499 -7476.8355 301.4161 -9252.7855 -7507.0956 299.3155 713.1532 773.6322 30241.9620 -54.1856 13.2665
TCL: Running FEP window  10: Lambda1 0.44999999999999996 Lambda2 0.49999999999999994 [dLambda 0.04999999999999999]
TCL: Setting parameter firsttimestep to 0
TCL: Setting parameter alchLambda to 0.44999999999999996
Info: NONBONDED TABLE R-SQUARED SPACING: 0.0625
Info: NONBONDED TABLE SIZE: 705 POINTS
TCL: Setting parameter alchLambda2 to 0.49999999999999994
Info: NONBONDED TABLE R-SQUARED SPACING: 0.0625
Info: NONBONDED TABLE SIZE: 705 POINTS
TCL: Running for 1500000 steps
ETITLE: TS BOND ANGLE DIHED IMPRP ELECT VDW BOUNDARY MISC KINETIC TOTAL TEMP POTENTIAL TOTALAVG TEMPAVG PRESSURE GPRESSURE VOLUME PRESSAVG GPRESSAVG
ENERGY: 0 2.2409 10.2645 4.7000 0.0000 -10799.9162 1530.1594 0.0000 0.0000 1775.0533 -7477.4980 301.2639 -9252.5514 -7477.4980 301.2639 705.2094 782.4978 30241.9620 705.2094 782.4978
ENERGY: 300000 1.9721 7.7400 4.2585 0.0000 -10925.6013 1545.6026 0.0000 0.0000 1791.2941 -7574.7341 304.0203 -9366.0282 -7535.4086 301.5724 624.6314 682.6157 30039.2075 362.9026 423.5240
ENERGY: 600000 1.1940 3.5260 4.4933 0.0000 -10649.0342 1402.7586 0.0000 0.0000 1747.5857 -7489.4766 296.6021 -9237.0623 -7514.2127 300.2104 -365.2431 -291.8414 30789.2446 408.6175 469.0349
ENERGY: 900000 4.8209 7.5237 4.0720 0.0000 -10751.1055 1426.3902 0.0000 0.0000 1815.3057 -7492.9929 308.0956 -9308.2986 -7511.7054 299.2021 -149.6846 -39.1795 30091.2162 177.6756 242.0252
ENERGY: 1200000 1.0426 6.6082 4.3553 0.0000 -10745.7120 1460.4826 0.0000 0.0000 1776.2720 -7496.9513 301.4707 -9273.2233 -7507.8691 299.3831 127.6006 149.5454 30445.1939 139.5176 208.4240
ENERGY: 1500000 1.8461 4.7041 4.3141 0.0000 -10702.8559 1418.7102 0.0000 0.0000 1753.6977 -7519.5837 297.6394 -9273.2814 -7515.6764 298.8655 -153.8635 -63.2570 30239.7994 119.4678 194.9041
TCL: Running FEP window  11: Lambda1 0.49999999999999994 Lambda2 0.5499999999999999 [dLambda 0.04999999999999999]
TCL: Setting parameter firsttimestep to 0
TCL: Setting parameter alchLambda to 0.49999999999999994
Info: NONBONDED TABLE R-SQUARED SPACING: 0.0625
Info: NONBONDED TABLE SIZE: 705 POINTS
TCL: Setting parameter alchLambda2 to 0.5499999999999999
Info: NONBONDED TABLE R-SQUARED SPACING: 0.0625
Info: NONBONDED TABLE SIZE: 705 POINTS
TCL: Running for 1500000 steps
ETITLE: TS BOND ANGLE DIHED IMPRP ELECT VDW BOUNDARY MISC KINETIC TOTAL TEMP POTENTIAL TOTALAVG TEMPAVG PRESSURE GPRESSURE VOLUME PRESSAVG GPRESSAVG
ENERGY: 0 1.8461 4.7041 4.3141 0.0000 -10702.8555 1419.9459 0.0000 0.0000 1752.8282 -7519.2171 297.4918 -9272.0453 -7519.2171 297.4918 -139.4190 -46.7725 30239.7994 -139.4190 -46.7725
ENERGY: 300000 1.4569 8.7477 3.5441 0.0000 -10794.0637 1451.9832 0.0000 0.0000 1747.0240 -7581.3078 296.5067 -9328.3318 -7542.2801 298.0351 -201.5294 -139.5473 30485.3711 -104.7522 -72.4356
ENERGY: 600000 0.9969 12.0983 6.1185 0.0000 -10986.8831 1633.0222 0.0000 0.0000 1715.7452 -7618.9020 291.1981 -9334.6472 -7542.3939 298.0812 1577.7136 1611.9400 29937.9485 163.3542 211.6063
ENERGY: 900000 1.5321 5.6965 5.3107 0.0000 -10758.3038 1452.7094 0.0000 0.0000 1738.8730 -7554.1822 295.1233 -9293.0552 -7545.7668 297.4904 228.2247 269.4012 30065.5680 138.4755 177.0245
ENERGY: 1200000 3.6477 8.2432 4.3846 0.0000 -10639.6476 1399.5354 0.0000 0.0000 1769.7855 -7454.0512 300.3698 -9223.8367 -7530.1018 298.1097 -54.9712 -4.3895 30358.5200 124.4019 163.3887
ENERGY: 1500000 1.3528 6.5568 3.9247 0.0000 -10919.3186 1514.8453 0.0000 0.0000 1738.9487 -7653.6904 295.1362 -9392.6391 -7529.4776 298.8969 340.4729 405.9218 30018.4808 117.7122 161.5875
TCL: Running FEP window  12: Lambda1 0.5499999999999999 Lambda2 0.6    [dLambda 0.050000000000000044]
TCL: Setting parameter firsttimestep to 0
TCL: Setting parameter alchLambda to 0.5499999999999999
Info: NONBONDED TABLE R-SQUARED SPACING: 0.0625
Info: NONBONDED TABLE SIZE: 705 POINTS
TCL: Setting parameter alchLambda2 to 0.6
Info: NONBONDED TABLE R-SQUARED SPACING: 0.0625
Info: NONBONDED TABLE SIZE: 705 POINTS
TCL: Running for 1500000 steps
ETITLE: TS BOND ANGLE DIHED IMPRP ELECT VDW BOUNDARY MISC KINETIC TOTAL TEMP POTENTIAL TOTALAVG TEMPAVG PRESSURE GPRESSURE VOLUME PRESSAVG GPRESSAVG
ENERGY: 0 1.3528 6.5568 3.9247 0.0000 -10919.0883 1514.9396 0.0000 0.0000 1738.0255 -7654.2890 294.9795 -9392.3145 -7654.2890 294.9795 324.6302 416.7574 30018.4808 324.6302 416.7574
ENERGY: 300000 0.7128 6.3392 4.1440 0.0000 -10658.6213 1448.5464 0.0000 0.0000 1770.3258 -7428.5530 300.4615 -9198.8788 -7514.6477 299.0731 377.8064 485.4117 30291.4427 241.5227 317.1574
ENERGY: 600000 3.1007 8.0818 4.5107 0.0000 -10593.2009 1428.0752 0.0000 0.0000 1807.2093 -7342.2233 306.7214 -9149.4326 -7491.9056 299.7423 5.9721 79.8112 30624.3794 117.6716 195.0753
ENERGY: 900000 1.1462 4.7145 3.7275 0.0000 -10668.6005 1403.7283 0.0000 0.0000 1774.3015 -7480.9825 301.1363 -9255.2840 -7486.5616 301.0784 -265.9146 -215.8593 30656.6910 -15.5558 49.3973
ENERGY: 1200000 0.9149 7.0783 4.2330 0.0000 -10688.5925 1398.9422 0.0000 0.0000 1741.8504 -7535.5736 295.6287 -9277.4240 -7500.4066 300.3397 -332.7491 -274.0948 30388.8867 -25.1227 37.8862
ENERGY: 1500000 1.4134 8.3819 6.0867 0.0000 -10816.6654 1450.6117 0.0000 0.0000 1774.3143 -7575.8574 301.1385 -9350.1717 -7523.6988 299.0229 -228.8508 -160.7213 30476.8244 -25.0951 33.6675
TCL: Running FEP window  13: Lambda1 0.6    Lambda2 0.65   [dLambda 0.050000000000000044]
TCL: Setting parameter firsttimestep to 0
TCL: Setting parameter alchLambda to 0.6
Info: NONBONDED TABLE R-SQUARED SPACING: 0.0625
Info: NONBONDED TABLE SIZE: 705 POINTS
TCL: Setting parameter alchLambda2 to 0.65
Info: NONBONDED TABLE R-SQUARED SPACING: 0.0625
Info: NONBONDED TABLE SIZE: 705 POINTS
TCL: Running for 1500000 steps
ETITLE: TS BOND ANGLE DIHED IMPRP ELECT VDW BOUNDARY MISC KINETIC TOTAL TEMP POTENTIAL TOTALAVG TEMPAVG PRESSURE GPRESSURE VOLUME PRESSAVG GPRESSAVG
ENERGY: 0 1.4134 8.3819 6.0867 0.0000 -10817.1669 1450.9417 0.0000 0.0000 1773.4399 -7576.9033 300.9901 -9350.3432 -7576.9033 300.9901 -226.1081 -152.5054 30476.8244 -226.1081 -152.5054
ENERGY: 300000 0.8551 5.0769 4.6957 0.0000 -10659.5134 1446.5360 0.0000 0.0000 1713.4273 -7488.9225 290.8047 -9202.3498 -7531.3314 297.7801 -0.7485 31.6496 30834.0163 128.6517 173.8544
ENERGY: 600000 0.8868 8.6747 5.0715 0.0000 -10703.0076 1420.2613 0.0000 0.0000 1808.8308 -7459.2825 306.9966 -9268.1133 -7517.1959 299.4753 -88.9032 -53.3853 30558.2142 -55.0774 -3.5932
ENERGY: 900000 0.7073 6.7837 4.5491 0.0000 -10828.3487 1467.6738 0.0000 0.0000 1721.5871 -7627.0477 292.1896 -9348.6348 -7522.4476 298.5412 -24.6688 -9.6556 30497.7177 -62.6353 -10.0329
ENERGY: 1200000 2.1626 7.7992 4.8548 0.0000 -10856.4664 1523.2837 0.0000 0.0000 1749.6983 -7568.6678 296.9606 -9318.3661 -7519.4817 297.9477 215.5294 251.5894 30796.6659 -75.6622 -27.0711
ENERGY: 1500000 2.4668 7.2786 4.9143 0.0000 -10712.6352 1498.8460 0.0000 0.0000 1741.3650 -7457.7645 295.5463 -9199.1295 -7510.0907 298.4416 680.8792 731.8567 30358.3391 -61.6125 -12.4560
TCL: Running FEP window  14: Lambda1 0.65   Lambda2 0.7000000000000001 [dLambda 0.050000000000000044]
TCL: Setting parameter firsttimestep to 0
TCL: Setting parameter alchLambda to 0.65
Info: NONBONDED TABLE R-SQUARED SPACING: 0.0625
Info: NONBONDED TABLE SIZE: 705 POINTS
TCL: Setting parameter alchLambda2 to 0.7000000000000001
Info: NONBONDED TABLE R-SQUARED SPACING: 0.0625
Info: NONBONDED TABLE SIZE: 705 POINTS
TCL: Running for 1500000 steps
ETITLE: TS BOND ANGLE DIHED IMPRP ELECT VDW BOUNDARY MISC KINETIC TOTAL TEMP POTENTIAL TOTALAVG TEMPAVG PRESSURE GPRESSURE VOLUME PRESSAVG GPRESSAVG
ENERGY: 0 2.4668 7.2786 4.9143 0.0000 -10713.0774 1499.3780 0.0000 0.0000 1740.4908 -7458.5490 295.3979 -9199.0397 -7458.5490 295.3979 660.5203 743.6475 30358.3391 660.5203 743.6475
ENERGY: 300000 2.8316 6.5664 5.0696 0.0000 -10713.2178 1401.4311 0.0000 0.0000 1759.1207 -7538.1984 298.5598 -9297.3191 -7519.8005 297.7450 -707.0667 -665.6259 30778.6651 -170.1866 -114.2947
ENERGY: 600000 0.5882 6.2382 4.9344 0.0000 -10683.3027 1456.7193 0.0000 0.0000 1736.4850 -7478.3377 294.7180 -9214.8226 -7529.1184 298.3914 427.4685 534.8887 30269.4183 91.4827 175.4120
ENERGY: 900000 0.8234 7.2811 4.1225 0.0000 -10717.8545 1446.5123 0.0000 0.0000 1751.0920 -7508.0231 297.1972 -9259.1151 -7532.1816 298.7776 -35.3551 10.0431 30623.4322 93.5293 178.4317
ENERGY: 1200000 1.4864 7.0538 5.0690 0.0000 -10715.9817 1412.7958 0.0000 0.0000 1778.7523 -7510.8244 301.8917 -9289.5767 -7533.0817 299.3407 -224.4540 -151.1539 30333.3437 73.1354 158.6643
ENERGY: 1500000 0.3587 6.6777 4.2908 0.0000 -10658.1512 1366.1811 0.0000 0.0000 1713.3684 -7567.2744 290.7947 -9280.6429 -7532.8134 298.6402 -820.7771 -765.8579 31046.2775 -41.2535 35.7015
TCL: Running FEP window  15: Lambda1 0.7000000000000001 Lambda2 0.7500000000000001 [dLambda 0.050000000000000044]
TCL: Setting parameter firsttimestep to 0
TCL: Setting parameter alchLambda to 0.7000000000000001
Info: NONBONDED TABLE R-SQUARED SPACING: 0.0625
Info: NONBONDED TABLE SIZE: 705 POINTS
TCL: Setting parameter alchLambda2 to 0.7500000000000001
Info: NONBONDED TABLE R-SQUARED SPACING: 0.0625
Info: NONBONDED TABLE SIZE: 705 POINTS
TCL: Running for 1500000 steps
ETITLE: TS BOND ANGLE DIHED IMPRP ELECT VDW BOUNDARY MISC KINETIC TOTAL TEMP POTENTIAL TOTALAVG TEMPAVG PRESSURE GPRESSURE VOLUME PRESSAVG GPRESSAVG
ENERGY: 0 0.3587 6.6777 4.2908 0.0000 -10658.8115 1366.4503 0.0000 0.0000 1712.5068 -7568.5271 290.6484 -9281.0340 -7568.5271 290.6484 -852.3695 -754.8082 31046.2775 -852.3695 -754.8082
ENERGY: 300000 0.2592 3.8710 4.5602 0.0000 -10789.9428 1483.6413 0.0000 0.0000 1732.2948 -7565.3162 294.0069 -9297.6110 -7549.4375 296.0647 234.6469 308.6547 30448.7118 -74.4218 -1.4648
ENERGY: 600000 3.4342 5.6433 7.2584 0.0000 -10654.2856 1464.4128 0.0000 0.0000 1780.3588 -7393.1781 302.1643 -9173.5369 -7504.9284 298.3412 425.0600 478.4339 30538.7350 -50.0382 13.6785
ENERGY: 900000 0.9475 7.0719 4.3680 0.0000 -10711.7348 1440.9321 0.0000 0.0000 1771.5557 -7486.8596 300.6703 -9258.4153 -7513.4826 298.8033 -29.8354 -3.1720 30676.0362 -10.6647 43.4915
ENERGY: 1200000 1.1929 7.4249 5.3913 0.0000 -10612.0871 1359.3412 0.0000 0.0000 1770.6702 -7468.0667 300.5200 -9238.7369 -7515.6104 298.3566 -484.3127 -468.4854 30752.4827 -138.6610 -83.2901
ENERGY: 1500000 1.7982 3.6553 4.8914 0.0000 -10817.2417 1486.8533 0.0000 0.0000 1785.0170 -7535.0266 302.9549 -9320.0436 -7521.4433 298.7340 465.9760 568.2638 29842.6697 -84.7456 -29.3275
TCL: Running FEP window  16: Lambda1 0.7500000000000001 Lambda2 0.8000000000000002 [dLambda 0.050000000000000044]
TCL: Setting parameter firsttimestep to 0
TCL: Setting parameter alchLambda to 0.7500000000000001
Info: NONBONDED TABLE R-SQUARED SPACING: 0.0625
Info: NONBONDED TABLE SIZE: 705 POINTS
TCL: Setting parameter alchLambda2 to 0.8000000000000002
Info: NONBONDED TABLE R-SQUARED SPACING: 0.0625
Info: NONBONDED TABLE SIZE: 705 POINTS
TCL: Running for 1500000 steps
ETITLE: TS BOND ANGLE DIHED IMPRP ELECT VDW BOUNDARY MISC KINETIC TOTAL TEMP POTENTIAL TOTALAVG TEMPAVG PRESSURE GPRESSURE VOLUME PRESSAVG GPRESSAVG
ENERGY: 0 1.7982 3.6553 4.8914 0.0000 -10818.2856 1486.6980 0.0000 0.0000 1784.1290 -7537.1137 302.8042 -9321.2428 -7537.1137 302.8042 481.4163 571.3857 29842.6697 481.4163 571.3857
ENERGY: 300000 1.8258 6.2601 4.0465 0.0000 -10729.3439 1421.2780 0.0000 0.0000 1825.8696 -7470.0639 309.8885 -9295.9335 -7472.6734 303.5297 32.3781 118.6830 30130.2103 226.6804 283.6323
ENERGY: 600000 0.8198 5.7003 3.9139 0.0000 -10794.5627 1444.6133 0.0000 0.0000 1772.6778 -7566.8377 300.8607 -9339.5154 -7493.3267 300.5676 -154.5908 -135.1235 30688.1949 13.1357 61.6799
ENERGY: 900000 1.3235 10.4292 5.2647 0.0000 -10747.3881 1469.3129 0.0000 0.0000 1721.2805 -7539.7772 292.1375 -9261.0578 -7505.0273 300.5606 149.0922 189.7687 30840.1097 86.8399 141.3121
ENERGY: 1200000 2.6018 7.9533 4.5128 0.0000 -10563.5263 1340.3578 0.0000 0.0000 1765.5845 -7442.5160 299.6568 -9208.1005 -7494.4812 300.0554 -603.3042 -614.2247 30669.6314 -27.5442 28.2423
ENERGY: 1500000 0.5773 5.7909 3.9422 0.0000 -10613.5650 1338.6109 0.0000 0.0000 1781.8755 -7482.7681 302.4218 -9264.6437 -7501.7919 299.9967 -720.2907 -656.8826 30572.8258 -116.5740 -55.1308
TCL: Running FEP window  17: Lambda1 0.8000000000000002 Lambda2 0.8500000000000002 [dLambda 0.050000000000000044]
TCL: Setting parameter firsttimestep to 0
TCL: Setting parameter alchLambda to 0.8000000000000002
Info: NONBONDED TABLE R-SQUARED SPACING: 0.0625
Info: NONBONDED TABLE SIZE: 705 POINTS
TCL: Setting parameter alchLambda2 to 0.8500000000000002
Info: NONBONDED TABLE R-SQUARED SPACING: 0.0625
Info: NONBONDED TABLE SIZE: 705 POINTS
TCL: Running for 1500000 steps
ETITLE: TS BOND ANGLE DIHED IMPRP ELECT VDW BOUNDARY MISC KINETIC TOTAL TEMP POTENTIAL TOTALAVG TEMPAVG PRESSURE GPRESSURE VOLUME PRESSAVG GPRESSAVG
ENERGY: 0 0.5773 5.7909 3.9422 0.0000 -10614.4999 1338.4092 0.0000 0.0000 1781.0193 -7484.7610 302.2764 -9265.7803 -7484.7610 302.2764 -739.9739 -653.4412 30572.8258 -739.9739 -653.4412
ENERGY: 300000 0.5729 6.4380 3.9400 0.0000 -10794.1962 1480.6605 0.0000 0.0000 1775.5051 -7527.0796 301.3406 -9302.5847 -7515.9353 302.3730 376.1230 453.3386 30248.8110 -234.7478 -161.1654
ENERGY: 600000 1.1752 4.8959 4.6624 0.0000 -10735.5354 1439.3556 0.0000 0.0000 1809.6149 -7475.8313 307.1297 -9285.4462 -7516.6806 301.5074 281.3974 291.5399 29938.6557 -168.1969 -105.2968
ENERGY: 900000 1.6560 9.1755 3.8570 0.0000 -10725.7718 1451.3249 0.0000 0.0000 1755.2681 -7504.4904 297.9059 -9259.7585 -7508.0289 301.5827 164.1937 186.1225 30519.2476 -239.1965 -183.2836
ENERGY: 1200000 2.2684 6.3295 3.6072 0.0000 -10730.3699 1393.0255 0.0000 0.0000 1718.8446 -7606.2947 291.7241 -9325.1393 -7514.5884 299.9419 -652.6532 -568.7054 30593.4976 -149.3024 -92.5523
ENERGY: 1500000 1.6102 7.0585 3.6839 0.0000 -10729.1935 1410.9361 0.0000 0.0000 1707.9026 -7598.0022 289.8670 -9305.9047 -7520.5251 300.4298 -442.8507 -391.4033 30687.6659 -111.7034 -51.1346
TCL: Running FEP window  18: Lambda1 0.8500000000000002 Lambda2 0.9000000000000002 [dLambda 0.050000000000000044]
TCL: Setting parameter firsttimestep to 0
TCL: Setting parameter alchLambda to 0.8500000000000002
Info: NONBONDED TABLE R-SQUARED SPACING: 0.0625
Info: NONBONDED TABLE SIZE: 705 POINTS
TCL: Setting parameter alchLambda2 to 0.9000000000000002
Info: NONBONDED TABLE R-SQUARED SPACING: 0.0625
Info: NONBONDED TABLE SIZE: 705 POINTS
TCL: Running for 1500000 steps
ETITLE: TS BOND ANGLE DIHED IMPRP ELECT VDW BOUNDARY MISC KINETIC TOTAL TEMP POTENTIAL TOTALAVG TEMPAVG PRESSURE GPRESSURE VOLUME PRESSAVG GPRESSAVG
ENERGY: 0 1.6102 7.0585 3.6839 0.0000 -10730.9070 1411.5367 0.0000 0.0000 1707.0553 -7599.9624 289.7232 -9307.0177 -7599.9624 289.7232 -465.2988 -382.4436 30687.6659 -465.2988 -382.4436
ENERGY: 300000 3.0327 6.7045 5.0420 0.0000 -10527.1731 1320.4253 0.0000 0.0000 1726.2606 -7465.7081 292.9827 -9191.9687 -7517.6555 294.1783 -805.1579 -743.5838 31070.7690 -554.1741 -481.8439
ENERGY: 600000 5.4642 6.1047 3.9196 0.0000 -10784.3681 1469.3467 0.0000 0.0000 1758.3844 -7541.1486 298.4348 -9299.5330 -7504.4761 297.1877 85.8217 105.7402 30666.3225 -309.0111 -255.0323
ENERGY: 900000 1.8791 8.6818 6.3895 0.0000 -10730.5613 1502.3737 0.0000 0.0000 1802.7072 -7408.5299 305.9573 -9211.2372 -7493.8182 297.5559 451.2330 532.9637 30860.9469 -67.0154 -9.1294
ENERGY: 1200000 1.2049 2.5464 4.1438 0.0000 -10819.8401 1454.9573 0.0000 0.0000 1763.5666 -7593.4210 299.3144 -9356.9876 -7509.3463 297.6101 -46.0196 5.1171 30215.9208 -182.6229 -124.1185
ENERGY: 1500000 1.1925 7.9212 5.1294 0.0000 -10820.9525 1474.5272 0.0000 0.0000 1723.1162 -7609.0659 292.4491 -9332.1821 -7516.4537 297.2536 35.8903 114.9224 30414.3161 -147.3060 -87.9261
TCL: Running FEP window  19: Lambda1 0.9000000000000002 Lambda2 0.9500000000000003 [dLambda 0.050000000000000044]
TCL: Setting parameter firsttimestep to 0
TCL: Setting parameter alchLambda to 0.9000000000000002
Info: NONBONDED TABLE R-SQUARED SPACING: 0.0625
Info: NONBONDED TABLE SIZE: 705 POINTS
TCL: Setting parameter alchLambda2 to 0.9500000000000003
Info: NONBONDED TABLE R-SQUARED SPACING: 0.0625
Info: NONBONDED TABLE SIZE: 705 POINTS
TCL: Running for 1500000 steps
ETITLE: TS BOND ANGLE DIHED IMPRP ELECT VDW BOUNDARY MISC KINETIC TOTAL TEMP POTENTIAL TOTALAVG TEMPAVG PRESSURE GPRESSURE VOLUME PRESSAVG GPRESSAVG
ENERGY: 0 1.1925 7.9212 5.1294 0.0000 -10822.1492 1474.8873 0.0000 0.0000 1722.2379 -7610.7809 292.3000 -9333.0188 -7610.7809 292.3000 53.2258 125.8217 30414.3161 53.2258 125.8217
ENERGY: 300000 1.1772 5.8534 4.8064 0.0000 -10833.5461 1496.4958 0.0000 0.0000 1768.3367 -7556.8766 300.1239 -9325.2133 -7548.0393 300.6555 132.1816 226.2996 30641.3671 -26.4225 52.9458
ENERGY: 600000 1.7622 5.8667 4.5596 0.0000 -10767.7303 1445.6325 0.0000 0.0000 1776.0769 -7533.8323 301.4376 -9309.9092 -7542.8947 298.8340 -136.5637 -96.1032 30450.3779 -93.3083 -18.3598
ENERGY: 900000 2.7797 6.2461 4.0876 0.0000 -10800.2173 1435.2180 0.0000 0.0000 1736.6327 -7615.2532 294.7431 -9351.8859 -7546.5397 297.9204 -194.9015 -146.7905 30336.4224 -127.8717 -55.9637
ENERGY: 1200000 1.9376 9.2843 5.3400 0.0000 -10741.1249 1398.0039 0.0000 0.0000 1772.9623 -7553.5967 300.9090 -9326.5590 -7554.9672 297.2260 -295.2577 -259.6807 30264.9903 -76.6702 -5.1368
ENERGY: 1500000 0.3066 8.6823 5.1908 0.0000 -10719.1406 1375.7297 0.0000 0.0000 1800.9523 -7528.2789 305.6595 -9329.2312 -7555.5971 297.6755 -510.0552 -442.4651 30252.3628 -191.6315 -121.0403
TCL: Running FEP window  20: Lambda1 0.9500000000000003 Lambda2 1.0    [dLambda 0.04999999999999971]
TCL: Setting parameter firsttimestep to 0
TCL: Setting parameter alchLambda to 0.9500000000000003
Info: NONBONDED TABLE R-SQUARED SPACING: 0.0625
Info: NONBONDED TABLE SIZE: 705 POINTS
TCL: Setting parameter alchLambda2 to 1.0
Info: NONBONDED TABLE R-SQUARED SPACING: 0.0625
Info: NONBONDED TABLE SIZE: 705 POINTS
TCL: Running for 1500000 steps
ETITLE: TS BOND ANGLE DIHED IMPRP ELECT VDW BOUNDARY MISC KINETIC TOTAL TEMP POTENTIAL TOTALAVG TEMPAVG PRESSURE GPRESSURE VOLUME PRESSAVG GPRESSAVG
ENERGY: 0 0.3066 8.6823 5.1908 0.0000 -10720.7647 1377.2362 0.0000 0.0000 1800.0463 -7529.3025 305.5057 -9329.3488 -7529.3025 305.5057 -500.3867 -414.6799 30252.3628 -500.3867 -414.6799
ENERGY: 300000 0.7207 4.4612 5.0396 0.0000 -10821.4548 1476.9254 0.0000 0.0000 1757.5343 -7576.7736 298.2905 -9334.3079 -7564.7822 300.8682 252.2343 405.7335 30184.4910 -49.2613 48.1154
ENERGY: 600000 0.9375 5.0057 4.8788 0.0000 -10661.3723 1393.1295 0.0000 0.0000 1784.1017 -7473.3191 302.7996 -9257.4208 -7546.4936 298.9100 -245.1766 -264.9794 30743.9209 83.2102 158.6806
ENERGY: 900000 0.5138 7.1726 5.4246 0.0000 -10791.6113 1497.6868 0.0000 0.0000 1759.5967 -7521.2168 298.6406 -9280.8135 -7547.3353 297.7364 506.0498 579.7165 30601.9594 169.6461 231.5198
ENERGY: 1200000 2.4337 8.9790 4.9031 0.0000 -10633.8131 1358.2979 0.0000 0.0000 1731.3060 -7527.8934 293.8391 -9259.1994 -7518.5660 298.5516 -651.6154 -560.9621 30486.3480 61.5655 122.5429
ENERGY: 1500000 2.3584 6.8327 4.1527 0.0000 -10858.3153 1546.1687 0.0000 0.0000 1793.5138 -7505.2890 304.3970 -9298.8028 -7522.6226 299.5277 872.4345 978.0729 30344.0313 148.3196 210.5608
TCL: Exiting due to exit command.
