Info: SIMULATION PARAMETERS:
Info: TIMESTEP               2
Info: NUMBER OF STEPS        0
Info: STEPS PER CYCLE        10
Info: PERIODIC CELL BASIS 1  31.0462 0 0
Info: PERIODIC CELL BASIS 2  0 29.7649 0
Info: PERIODIC CELL BASIS 3  0 0 33.2337
Info: PERIODIC CELL CENTER   0 0 0
Info: WRAPPING WATERS AROUND PERIODIC BOUNDARIES ON OUTPUT.
Info: WRAPPING ALL CLUSTERS AROUND PERIODIC BOUNDARIES ON OUTPUT.
Info: FIRST LDB TIMESTEP     50
Info: LAST LDB TIMESTEP     -1
Info: HOM BACKGROUND SCALING 1
Info: PME BACKGROUND SCALING 1
Info: MIN ATOMS PER PATCH    40
Info: EMPTY PATCH LOAD       40 ATOMS
Info: VELOCITY FILE          mobley_2126135_equil.vel
Info: CENTER OF MASS MOVING INITIALLY? NO
Info: DIELECTRIC             1
Info: EXCLUDE                SCALED ONE-FOUR
Info: 1-4 ELECTROSTATICS SCALED BY 0.833333
Info: MODIFIED 1-4 VDW PARAMETERS WILL BE USED
Info: DCD FILENAME           mobley_2126135_prod.dcd
Info: DCD FREQUENCY          100000
Info: DCD FIRST STEP         100000
Info: DCD FILE WILL CONTAIN UNIT CELL DATA
Info: XST FILENAME           mobley_2126135_prod.xst
Info: XST FREQUENCY          100000
Info: NO VELOCITY DCD OUTPUT
Info: NO FORCE DCD OUTPUT
Info: OUTPUT FILENAME        mobley_2126135_prod
Info: BINARY OUTPUT FILES WILL BE USED
Info: RESTART FILENAME       mobley_2126135_prod.restart
Info: RESTART FREQUENCY      100000
Info: BINARY RESTART FILES WILL BE USED
Info: CUTOFF                 9
Info: PAIRLIST DISTANCE      11
Info: PAIRLIST SHRINK RATE   0.01
Info: PAIRLIST GROW RATE     0.01
Info: PAIRLIST TRIGGER       0.3
Info: PAIRLISTS PER CYCLE    2
Info: PAIRLISTS ENABLED
Info: MARGIN                 2
Info: HYDROGEN GROUP CUTOFF  2.5
Info: PATCH DIMENSION        15.5
Info: ENERGY OUTPUT STEPS    100000
Info: ENERGY EVALUATION STEPS    100000
Info: OUTPUT ENERGY PRECISION 4
Info: CROSSTERM ENERGY INCLUDED IN DIHEDRAL
Info: TIMING OUTPUT STEPS    1000000
Info: PRESSURE OUTPUT STEPS  100000
Info: ALCHEMICAL FEP ON
Info: FEP CURRENT LAMBDA VALUE     1
Info: FEP COMPARISON LAMBDA VALUE  0.95
Info: FEP INTRA-ALCHEMICAL NON-BONDED INTERACTIONS WILL BE RETAINED
Info: FEP INTRA-ALCHEMICAL BONDED INTERACTIONS WILL BE RETAINED
Info: FEP VDW SHIFTING COEFFICIENT 5
Info: FEP ELEC. ACTIVE FOR ANNIHILATED PARTICLES BETWEEN LAMBDA = 0 AND LAMBDA = 0.5
Info: FEP ELEC. ACTIVE FOR EXNIHILATED PARTICLES BETWEEN LAMBDA = 0.5 AND LAMBDA = 1
Info: FEP VDW ACTIVE FOR ANNIHILATED PARTICLES BETWEEN LAMBDA = 0 AND LAMBDA = 1
Info: FEP VDW ACTIVE FOR EXNIHILATED PARTICLES BETWEEN LAMBDA = 0 AND LAMBDA = 1
Info: FEP BOND ACTIVE FOR ANNIHILATED PARTICLES BETWEEN LAMBDA = 1 AND LAMBDA = 1
Info: FEP BOND ACTIVE FOR EXNIHILATED PARTICLES BETWEEN LAMBDA = 0 AND LAMBDA = 0
Info: LANGEVIN DYNAMICS ACTIVE
Info: LANGEVIN TEMPERATURE   300
Info: LANGEVIN USING BBK INTEGRATOR
Info: LANGEVIN DAMPING COEFFICIENT IS 1 INVERSE PS
Info: LANGEVIN DYNAMICS APPLIED TO HYDROGENS
Info: LANGEVIN PISTON PRESSURE CONTROL ACTIVE
Info:        TARGET PRESSURE IS 1.01325 BAR
Info:     OSCILLATION PERIOD IS 50 FS
Info:             DECAY TIME IS 25 FS
Info:     PISTON TEMPERATURE IS 300 K
Info:       PRESSURE CONTROL IS GROUP-BASED
Info:    INITIAL STRAIN RATE IS 7.19736e-05 7.19736e-05 7.19736e-05
Info:       CELL FLUCTUATION IS ISOTROPIC
Info: PARTICLE MESH EWALD (PME) ACTIVE
Info: PME TOLERANCE               1e-06
Info: PME EWALD COEFFICIENT       0.348832
Info: PME INTERPOLATION ORDER     4
Info: PME GRID DIMENSIONS         32 32 36
Info: PME MAXIMUM GRID SPACING    1
Info: PME CALCULATION WILL BE PERFORMED ON GPU
Info: FULL ELECTROSTATIC EVALUATION FREQUENCY      2
Info: USING VERLET I (r-RESPA) MTS SCHEME.
Info: C1 SPLITTING OF LONG RANGE ELECTROSTATICS
Info: PLACING ATOMS IN PATCHES BY HYDROGEN GROUPS
Info: RIGID BONDS TO HYDROGEN : ALL
Info:         ERROR TOLERANCE : 1e-08
Info:          MAX ITERATIONS : 100
Info: RIGID WATER USING SETTLE ALGORITHM
Info: RANDOM NUMBER SEED     1743777819
Info: USE HYDROGEN BONDS?    NO
Info: Using AMBER format force field!
Info: AMBER PARM FILE        mobley_2126135.prmtop
Info: COORDINATE PDB         mobley_2126135.pdb
Info: Exclusions will be read from PARM file!
Info: SCNB (VDW SCALING)     2
Info: USING ARITHMETIC MEAN TO COMBINE L-J SIGMA PARAMETERS
Info: BINARY COORDINATES     mobley_2126135_equil.coor
Info: SUMMARY OF PARAMETERS:
Info: 9 BONDS
Info: 9 ANGLES
Info:   9 HARMONIC
Info:   0 COSINE-BASED
Info: 6 DIHEDRAL
Info: 0 IMPROPER
Info: 0 CROSSTERM
Info: 0 VDW
Info: 28 VDW_PAIRS
Info: 0 NBTHOLE_PAIRS
Info: To read alchdata from file: mobley_2126135.pdb
Info: To read alchflag data from column: 5
Info: STRUCTURE SUMMARY:
Info: 2989 ATOMS
Info: 2989 BONDS
Info: 31 ANGLES
Info: 47 DIHEDRALS
Info: 0 IMPROPERS
Info: 0 CROSSTERMS
Info: 3058 EXCLUSIONS
Info: 2980 RIGID BONDS
Info: ALCH: 0 ATOMS TO DISAPPEAR IN FINAL STATE
Info: ALCH: 19 ATOMS TO APPEAR IN FINAL STATE
Info: 5987 DEGREES OF FREEDOM
Info: 999 HYDROGEN GROUPS
Info: 4 ATOMS IN LARGEST HYDROGEN GROUP
Info: 999 MIGRATION GROUPS
Info: 4 ATOMS IN LARGEST MIGRATION GROUP
Info: TOTAL MASS = 17958 amu
Info: TOTAL CHARGE = -0.000100028 e
Info: MASS DENSITY = 0.971016 g/cm^3
Info: ATOM DENSITY = 0.0973274 atoms/A^3
Info: ADDED 0 IMPLICIT EXCLUSIONS
Info: NONBONDED TABLE R-SQUARED SPACING: 0.0625
Info: NONBONDED TABLE SIZE: 705 POINTS
Info: REMOVING COM VELOCITY 0.185762 0.0597426 -0.051992
Info: Use 3D box decompostion in PME FFT.
Info: Updated CUDA force table with 4096 elements.
Info: Updated CUDA LJ table with 7 x 7 elements.
Info: Found 18 unique exclusion lists needing 48 bytes
TCL: Running for 1500000 steps
ETITLE: TS BOND ANGLE DIHED IMPRP ELECT VDW BOUNDARY MISC KINETIC TOTAL TEMP POTENTIAL TOTALAVG TEMPAVG PRESSURE GPRESSURE VOLUME PRESSAVG GPRESSAVG
ENERGY: 0 2.1508 7.0815 6.6053 0.0000 -10883.4058 1490.5829 0.0000 0.0000 1783.5309 -7593.4545 299.8208 -9376.9854 -7593.4545 299.8208 262.5549 342.5414 30710.7841 262.5549 342.5414
ENERGY: 300000 4.8576 8.6404 4.9098 0.0000 -10910.3474 1428.5952 0.0000 0.0000 1819.4495 -7643.8948 305.8589 -9463.3444 -7586.2752 302.4156 -416.5044 -431.5257 30926.6021 148.9545 174.9804
ENERGY: 600000 1.8487 7.8359 4.1582 0.0000 -10807.8854 1427.7624 0.0000 0.0000 1758.1194 -7608.1609 295.5490 -9366.2802 -7595.9703 300.7866 -436.4908 -333.6816 30936.1443 -110.6503 -47.1557
ENERGY: 900000 1.8035 4.0969 2.2926 0.0000 -10862.8049 1400.9724 0.0000 0.0000 1815.6229 -7638.0165 305.2156 -9453.6394 -7596.5603 300.5953 -482.4452 -426.2844 30381.8170 -75.8534 -17.7680
ENERGY: 1200000 2.5635 9.4828 3.2966 0.0000 -10841.2340 1447.4447 0.0000 0.0000 1758.3678 -7620.0786 295.5908 -9378.4464 -7605.0008 300.3168 4.5382 65.9470 30342.9611 -81.8355 -24.9676
ENERGY: 1500000 3.5832 6.0881 2.8709 0.0000 -10670.5158 1400.1373 0.0000 0.0000 1845.9347 -7411.9017 310.3112 -9257.8364 -7587.5303 300.8398 -79.6854 -24.2064 31010.4348 -63.5650 -5.3063
TCL: Running FEP window   2: Lambda1 0.95   Lambda2 0.8999999999999999 [dLambda -0.050000000000000044]
TCL: Setting parameter firsttimestep to 0
TCL: Setting parameter alchLambda to 0.95
Info: NONBONDED TABLE R-SQUARED SPACING: 0.0625
Info: NONBONDED TABLE SIZE: 705 POINTS
TCL: Setting parameter alchLambda2 to 0.8999999999999999
Info: NONBONDED TABLE R-SQUARED SPACING: 0.0625
Info: NONBONDED TABLE SIZE: 705 POINTS
TCL: Running for 1500000 steps
ETITLE: TS BOND ANGLE DIHED IMPRP ELECT VDW BOUNDARY MISC KINETIC TOTAL TEMP POTENTIAL TOTALAVG TEMPAVG PRESSURE GPRESSURE VOLUME PRESSAVG GPRESSAVG
ENERGY: 0 3.5832 6.0880 2.8709 0.0000 -10668.9634 1399.8511 0.0000 0.0000 1845.0450 -7411.5253 310.1616 -9256.5702 -7411.5253 310.1616 -126.4245 -37.0439 31010.4348 -126.4245 -37.0439
ENERGY: 300000 2.5975 3.8326 2.6983 0.0000 -10904.6718 1526.5120 0.0000 0.0000 1801.4397 -7567.5916 302.8314 -9369.0313 -7551.5722 301.9754 361.6209 434.5737 30771.0131 172.3905 215.0111
ENERGY: 600000 0.7541 4.7824 4.1001 0.0000 -10753.4639 1392.9078 0.0000 0.0000 1744.6551 -7606.2646 293.2856 -9350.9196 -7563.4496 301.2604 -76.4754 -4.3921 30492.0050 -83.3310 -33.2513
ENERGY: 900000 2.7714 6.7190 2.4443 0.0000 -10818.7720 1450.1139 0.0000 0.0000 1797.6667 -7559.0567 302.1971 -9356.7234 -7574.5456 301.0923 -136.3631 -69.1593 30903.7775 -135.5343 -77.6163
ENERGY: 1200000 4.2818 5.4985 1.9690 0.0000 -10698.5176 1340.8544 0.0000 0.0000 1783.4825 -7562.4314 299.8127 -9345.9139 -7569.9330 301.0824 -1090.8383 -1001.8111 31208.5618 -113.9851 -52.2457
ENERGY: 1500000 2.9212 5.8389 4.4166 0.0000 -10709.9948 1375.0015 0.0000 0.0000 1749.5565 -7572.2599 294.1095 -9321.8164 -7568.0697 300.3094 -761.0996 -688.8129 30993.3485 -252.5531 -191.7794
TCL: Running FEP window   3: Lambda1 0.8999999999999999 Lambda2 0.8499999999999999 [dLambda -0.050000000000000044]
TCL: Setting parameter firsttimestep to 0
TCL: Setting parameter alchLambda to 0.8999999999999999
Info: NONBONDED TABLE R-SQUARED SPACING: 0.0625
Info: NONBONDED TABLE SIZE: 705 POINTS
TCL: Setting parameter alchLambda2 to 0.8499999999999999
Info: NONBONDED TABLE R-SQUARED SPACING: 0.0625
Info: NONBONDED TABLE SIZE: 705 POINTS
TCL: Running for 1500000 steps
ETITLE: TS BOND ANGLE DIHED IMPRP ELECT VDW BOUNDARY MISC KINETIC TOTAL TEMP POTENTIAL TOTALAVG TEMPAVG PRESSURE GPRESSURE VOLUME PRESSAVG GPRESSAVG
ENERGY: 0 2.9212 5.8389 4.4166 0.0000 -10708.2971 1374.4087 0.0000 0.0000 1748.7201 -7571.9915 293.9689 -9320.7116 -7571.9915 293.9689 -785.7650 -704.8750 30993.3485 -785.7650 -704.8750
ENERGY: 300000 1.6199 6.6098 2.7061 0.0000 -10763.0754 1480.0474 0.0000 0.0000 1821.8129 -7450.2793 306.2562 -9272.0921 -7571.3223 298.7582 491.0270 548.2698 30839.2104 -282.0022 -221.0970
ENERGY: 600000 2.0125 5.7621 7.4579 0.0000 -10777.0672 1522.7524 0.0000 0.0000 1704.5082 -7534.5741 286.5367 -9239.0823 -7576.4303 295.8768 948.3577 1013.6741 30850.8396 -67.1222 -3.8798
ENERGY: 900000 5.3245 4.8767 2.6556 0.0000 -10740.1086 1357.6372 0.0000 0.0000 1752.4608 -7617.1538 294.5978 -9369.6146 -7584.2620 296.0416 -771.9443 -764.5806 30919.0473 -159.3115 -107.5003
ENERGY: 1200000 2.1178 7.3209 3.8412 0.0000 -10964.1144 1527.2719 0.0000 0.0000 1746.0646 -7677.4979 293.5225 -9423.5625 -7576.2770 297.0426 433.3966 415.5133 30910.3923 -62.2395 -15.5611
ENERGY: 1500000 3.1046 6.0449 3.5877 0.0000 -10739.2914 1401.0779 0.0000 0.0000 1782.0616 -7543.4148 299.5738 -9325.4765 -7566.0169 297.4866 -8.4822 20.0564 30735.1062 -47.8780 -0.5388
TCL: Running FEP window   4: Lambda1 0.8499999999999999 Lambda2 0.7999999999999998 [dLambda -0.050000000000000044]
TCL: Setting parameter firsttimestep to 0
TCL: Setting parameter alchLambda to 0.8499999999999999
Info: NONBONDED TABLE R-SQUARED SPACING: 0.0625
Info: NONBONDED TABLE SIZE: 705 POINTS
TCL: Setting parameter alchLambda2 to 0.7999999999999998
Info: NONBONDED TABLE R-SQUARED SPACING: 0.0625
Info: NONBONDED TABLE SIZE: 705 POINTS
TCL: Running for 1500000 steps
ETITLE: TS BOND ANGLE DIHED IMPRP ELECT VDW BOUNDARY MISC KINETIC TOTAL TEMP POTENTIAL TOTALAVG TEMPAVG PRESSURE GPRESSURE VOLUME PRESSAVG GPRESSAVG
ENERGY: 0 3.1046 6.0449 3.5877 0.0000 -10737.7758 1401.3487 0.0000 0.0000 1781.1883 -7542.5017 299.4270 -9323.6900 -7542.5017 299.4270 -67.6266 14.0040 30735.1062 -67.6266 14.0040
ENERGY: 300000 4.1522 5.8945 1.6585 0.0000 -10899.2015 1506.1533 0.0000 0.0000 1851.6571 -7529.6860 311.2732 -9381.3431 -7572.2885 302.4082 445.1208 523.8125 30434.5342 104.5887 178.6986
ENERGY: 600000 1.9654 7.2778 3.1574 0.0000 -10733.6864 1433.4518 0.0000 0.0000 1771.1520 -7516.6820 297.7398 -9287.8340 -7564.8663 301.0632 -169.5240 -155.4913 30955.5979 80.8734 150.0406
ENERGY: 900000 4.1326 9.0007 2.9156 0.0000 -10816.8588 1489.4575 0.0000 0.0000 1758.6831 -7552.6693 295.6438 -9311.3524 -7570.8770 300.9892 589.8736 595.3744 30586.3676 129.1742 189.4849
ENERGY: 1200000 3.3293 2.3013 3.5413 0.0000 -10796.6150 1415.0688 0.0000 0.0000 1820.7782 -7551.5962 306.0823 -9372.3744 -7569.9466 301.4327 -23.2007 84.5037 30415.8349 67.1680 129.6135
ENERGY: 1500000 2.3612 3.9314 1.7843 0.0000 -10718.1421 1351.0570 0.0000 0.0000 1769.8327 -7589.1756 297.5181 -9359.0083 -7565.5382 301.4442 -850.1281 -796.3217 31159.7113 18.7685 77.4763
TCL: Running FEP window   5: Lambda1 0.7999999999999998 Lambda2 0.7499999999999998 [dLambda -0.050000000000000044]
TCL: Setting parameter firsttimestep to 0
TCL: Setting parameter alchLambda to 0.7999999999999998
Info: NONBONDED TABLE R-SQUARED SPACING: 0.0625
Info: NONBONDED TABLE SIZE: 705 POINTS
TCL: Setting parameter alchLambda2 to 0.7499999999999998
Info: NONBONDED TABLE R-SQUARED SPACING: 0.0625
Info: NONBONDED TABLE SIZE: 705 POINTS
TCL: Running for 1500000 steps
ETITLE: TS BOND ANGLE DIHED IMPRP ELECT VDW BOUNDARY MISC KINETIC TOTAL TEMP POTENTIAL TOTALAVG TEMPAVG PRESSURE GPRESSURE VOLUME PRESSAVG GPRESSAVG
ENERGY: 0 2.3612 3.9314 1.7843 0.0000 -10716.4160 1350.6013 0.0000 0.0000 1768.9481 -7588.7897 297.3694 -9357.7378 -7588.7897 297.3694 -895.6752 -808.9301 31159.7113 -895.6752 -808.9301
ENERGY: 300000 2.8785 7.3499 3.6242 0.0000 -10970.4516 1545.3399 0.0000 0.0000 1781.5701 -7629.6890 299.4912 -9411.2591 -7581.4727 300.4725 686.8854 776.8126 30691.2264 145.5594 236.3000
ENERGY: 600000 1.9362 8.5202 3.1533 0.0000 -10768.9369 1448.8618 0.0000 0.0000 1794.7173 -7511.7481 301.7013 -9306.4655 -7578.6225 300.8614 20.3468 70.9023 30835.7726 149.4863 228.7081
ENERGY: 900000 3.4918 4.7364 1.5181 0.0000 -10877.6153 1448.6886 0.0000 0.0000 1770.3311 -7648.8494 297.6019 -9419.1805 -7588.2154 300.9698 -353.1850 -241.3552 30918.5839 49.4640 125.3764
ENERGY: 1200000 2.6421 3.5420 4.0579 0.0000 -10948.6843 1513.9469 0.0000 0.0000 1821.9362 -7602.5593 306.2769 -9424.4954 -7585.3485 300.9619 226.5038 266.8413 30745.1293 69.9487 141.2055
ENERGY: 1500000 1.7078 8.7005 2.8945 0.0000 -10850.3520 1466.9830 0.0000 0.0000 1785.4726 -7584.5936 300.1472 -9370.0662 -7583.9056 301.6467 163.3776 186.5668 30629.5325 28.7900 93.6093
TCL: Running FEP window   6: Lambda1 0.7499999999999998 Lambda2 0.6999999999999997 [dLambda -0.050000000000000044]
TCL: Setting parameter firsttimestep to 0
TCL: Setting parameter alchLambda to 0.7499999999999998
Info: NONBONDED TABLE R-SQUARED SPACING: 0.0625
Info: NONBONDED TABLE SIZE: 705 POINTS
TCL: Setting parameter alchLambda2 to 0.6999999999999997
Info: NONBONDED TABLE R-SQUARED SPACING: 0.0625
Info: NONBONDED TABLE SIZE: 705 POINTS
TCL: Running for 1500000 steps
ETITLE: TS BOND ANGLE DIHED IMPRP ELECT VDW BOUNDARY MISC KINETIC TOTAL TEMP POTENTIAL TOTALAVG TEMPAVG PRESSURE GPRESSURE VOLUME PRESSAVG GPRESSAVG
ENERGY: 0 1.7078 8.7005 2.8945 0.0000 -10849.0697 1467.4775 0.0000 0.0000 1784.5654 -7583.7240 299.9947 -9368.2894 -7583.7240 299.9947 106.7923 186.8983 30629.5325 106.7923 186.8983
ENERGY: 300000 3.2378 7.7264 5.3998 0.0000 -10892.9381 1543.3242 0.0000 0.0000 1813.5917 -7519.6582 304.8742 -9333.2499 -7545.6786 303.2736 671.4412 719.1861 30839.0391 332.6267 404.2465
ENERGY: 600000 4.0035 9.1771 1.6182 0.0000 -10763.6933 1454.7378 0.0000 0.0000 1846.5173 -7447.6394 310.4091 -9294.1567 -7533.9568 303.2638 274.9402 354.2480 30526.4923 278.9138 352.7826
ENERGY: 900000 3.3118 4.8480 3.0770 0.0000 -10725.4209 1405.0735 0.0000 0.0000 1741.9470 -7567.1636 292.8303 -9309.1106 -7530.9602 303.1690 -195.7246 -165.6111 30877.7760 155.9851 218.1640
ENERGY: 1200000 4.7631 5.1249 5.5406 0.0000 -10722.9093 1283.0419 0.0000 0.0000 1828.1653 -7596.2734 307.3241 -9424.4388 -7535.5965 304.2402 -1730.9159 -1697.1968 31118.1430 -137.5723 -76.3025
ENERGY: 1500000 0.3621 7.1932 2.2051 0.0000 -10771.2291 1375.4198 0.0000 0.0000 1779.5939 -7606.4550 299.1590 -9386.0489 -7546.0417 303.6854 -736.9356 -680.9460 31050.0263 -94.3942 -33.8532
TCL: Running FEP window   7: Lambda1 0.6999999999999997 Lambda2 0.6499999999999997 [dLambda -0.050000000000000044]
TCL: Setting parameter firsttimestep to 0
TCL: Setting parameter alchLambda to 0.6999999999999997
Info: NONBONDED TABLE R-SQUARED SPACING: 0.0625
Info: NONBONDED TABLE SIZE: 705 POINTS
TCL: Setting parameter alchLambda2 to 0.6499999999999997
Info: NONBONDED TABLE R-SQUARED SPACING: 0.0625
Info: NONBONDED TABLE SIZE: 705 POINTS
TCL: Running for 1500000 steps
ETITLE: TS BOND ANGLE DIHED IMPRP ELECT VDW BOUNDARY MISC KINETIC TOTAL TEMP POTENTIAL TOTALAVG TEMPAVG PRESSURE GPRESSURE VOLUME PRESSAVG GPRESSAVG
ENERGY: 0 0.3621 7.1932 2.2051 0.0000 -10768.6705 1374.0440 0.0000 0.0000 1778.7798 -7606.0862 299.0221 -9384.8660 -7606.0862 299.0221 -773.8523 -692.7465 31050.0263 -773.8523 -692.7465
ENERGY: 300000 4.3644 6.6761 6.0404 0.0000 -10825.1258 1446.6081 0.0000 0.0000 1731.5704 -7629.8663 291.0860 -9361.4367 -7581.2610 296.4486 -74.0986 -40.4132 30836.4517 -331.7932 -280.8160
ENERGY: 600000 2.5721 6.0776 3.1705 0.0000 -10884.2237 1488.1431 0.0000 0.0000 1792.9040 -7591.3565 301.3965 -9384.2605 -7584.7686 297.6239 115.8815 167.8275 31041.0325 -119.9612 -72.3978
ENERGY: 900000 0.6849 9.8545 1.3100 0.0000 -10712.4107 1376.6671 0.0000 0.0000 1723.3982 -7600.4961 289.7122 -9323.8942 -7578.9765 297.3838 -846.1681 -761.7715 31209.4144 -132.0818 -75.5541
ENERGY: 1200000 2.2275 5.0254 2.0381 0.0000 -10747.7090 1452.4060 0.0000 0.0000 1748.5242 -7537.4877 293.9360 -9286.0120 -7573.8915 297.7154 -91.8961 -54.2350 31432.0836 -72.2605 -17.5359
ENERGY: 1500000 4.9591 8.6404 3.8810 0.0000 -10731.7534 1347.2070 0.0000 0.0000 1761.0130 -7606.0529 296.0354 -9367.0659 -7573.3418 297.9900 -992.9542 -898.2389 30928.1579 -132.2903 -71.0725
TCL: Running FEP window   8: Lambda1 0.6499999999999997 Lambda2 0.5999999999999996 [dLambda -0.050000000000000044]
TCL: Setting parameter firsttimestep to 0
TCL: Setting parameter alchLambda to 0.6499999999999997
Info: NONBONDED TABLE R-SQUARED SPACING: 0.0625
Info: NONBONDED TABLE SIZE: 705 POINTS
TCL: Setting parameter alchLambda2 to 0.5999999999999996
Info: NONBONDED TABLE R-SQUARED SPACING: 0.0625
Info: NONBONDED TABLE SIZE: 705 POINTS
TCL: Running for 1500000 steps
ETITLE: TS BOND ANGLE DIHED IMPRP ELECT VDW BOUNDARY MISC KINETIC TOTAL TEMP POTENTIAL TOTALAVG TEMPAVG PRESSURE GPRESSURE VOLUME PRESSAVG GPRESSAVG
ENERGY: 0 4.9591 8.6404 3.8810 0.0000 -10730.9161 1347.3846 0.0000 0.0000 1760.1611 -7605.8898 295.8922 -9366.0509 -7605.8898 295.8922 -997.5971 -906.5084 30928.1579 -997.5971 -906.5084
ENERGY: 300000 1.1293 4.3106 1.3371 0.0000 -10866.2032 1400.8181 0.0000 0.0000 1802.1579 -7656.4501 302.9521 -9458.6080 -7580.1648 301.4843 -553.3073 -516.6064 30526.2823 -209.7086 -157.0004
ENERGY: 600000 4.5639 2.6343 2.8122 0.0000 -10724.0179 1407.9293 0.0000 0.0000 1778.0651 -7528.0131 298.9020 -9306.0782 -7581.7569 300.5079 -588.6584 -526.7601 31035.9818 -266.1411 -197.0134
ENERGY: 900000 2.3177 8.2326 4.9621 0.0000 -10856.3104 1442.8592 0.0000 0.0000 1776.4692 -7621.4696 298.6337 -9397.9389 -7581.9721 299.0176 -502.8695 -429.8757 30984.2117 -244.2302 -181.0274
ENERGY: 1200000 3.2033 4.8979 4.3059 0.0000 -10777.9762 1415.8335 0.0000 0.0000 1856.1790 -7493.5567 312.0333 -9349.7357 -7578.5888 299.2912 -70.9226 -41.8847 30681.5450 -142.2514 -84.2352
ENERGY: 1500000 1.1756 6.1243 2.6453 0.0000 -11032.7864 1558.3641 0.0000 0.0000 1741.9271 -7722.5501 292.8270 -9464.4772 -7583.5802 299.0459 384.3467 430.7685 30725.0355 -110.0332 -46.0142
TCL: Running FEP window   9: Lambda1 0.5999999999999996 Lambda2 0.5499999999999996 [dLambda -0.050000000000000044]
TCL: Setting parameter firsttimestep to 0
TCL: Setting parameter alchLambda to 0.5999999999999996
Info: NONBONDED TABLE R-SQUARED SPACING: 0.0625
Info: NONBONDED TABLE SIZE: 705 POINTS
TCL: Setting parameter alchLambda2 to 0.5499999999999996
Info: NONBONDED TABLE R-SQUARED SPACING: 0.0625
Info: NONBONDED TABLE SIZE: 705 POINTS
TCL: Running for 1500000 steps
ETITLE: TS BOND ANGLE DIHED IMPRP ELECT VDW BOUNDARY MISC KINETIC TOTAL TEMP POTENTIAL TOTALAVG TEMPAVG PRESSURE GPRESSURE VOLUME PRESSAVG GPRESSAVG
ENERGY: 0 1.1756 6.1243 2.6453 0.0000 -11030.6742 1558.5876 0.0000 0.0000 1741.0283 -7721.1130 292.6759 -9462.1414 -7721.1130 292.6759 347.4772 426.1476 30725.0355 347.4772 426.1476
ENERGY: 300000 2.3629 4.9703 3.5908 0.0000 -10881.2873 1472.8572 0.0000 0.0000 1870.7087 -7526.7975 314.4758 -9397.5062 -7563.6117 303.2039 253.5543 259.5679 30783.0663 212.1289 275.3852
ENERGY: 600000 1.5085 3.0430 6.0021 0.0000 -10757.5985 1440.5135 0.0000 0.0000 1800.2837 -7506.2476 302.6370 -9306.5313 -7537.8962 302.3526 51.7875 138.2505 30751.6027 227.4278 299.1941
ENERGY: 900000 1.2693 5.5056 5.9039 0.0000 -10880.2424 1494.5347 0.0000 0.0000 1804.1783 -7568.8505 303.2917 -9373.0288 -7546.0145 302.0428 297.6081 334.2570 30718.1075 97.6895 171.3288
ENERGY: 1200000 2.4080 5.2633 1.7151 0.0000 -10926.8961 1525.6214 0.0000 0.0000 1849.9141 -7541.9742 310.9802 -9391.8883 -7548.6075 301.7921 669.5423 728.8449 30354.8084 65.1151 134.0436
ENERGY: 1500000 2.0175 7.6043 2.2075 0.0000 -10752.5889 1430.3759 0.0000 0.0000 1828.6141 -7481.7695 307.3995 -9310.3837 -7549.3303 302.0617 121.8022 151.2300 30850.6380 -4.3032 61.3494
TCL: Running FEP window  10: Lambda1 0.5499999999999996 Lambda2 0.4999999999999996 [dLambda -0.04999999999999999]
TCL: Setting parameter firsttimestep to 0
TCL: Setting parameter alchLambda to 0.5499999999999996
Info: NONBONDED TABLE R-SQUARED SPACING: 0.0625
Info: NONBONDED TABLE SIZE: 705 POINTS
TCL: Setting parameter alchLambda2 to 0.4999999999999996
Info: NONBONDED TABLE R-SQUARED SPACING: 0.0625
Info: NONBONDED TABLE SIZE: 705 POINTS
TCL: Running for 1500000 steps
ETITLE: TS BOND ANGLE DIHED IMPRP ELECT VDW BOUNDARY MISC KINETIC TOTAL TEMP POTENTIAL TOTALAVG TEMPAVG PRESSURE GPRESSURE VOLUME PRESSAVG GPRESSAVG
ENERGY: 0 2.0175 7.6043 2.2075 0.0000 -10751.6707 1430.4757 0.0000 0.0000 1827.6970 -7481.6688 307.2454 -9309.3658 -7481.6688 307.2454 56.8188 147.6377 30850.6380 56.8188 147.6377
ENERGY: 300000 4.2689 8.1261 2.8343 0.0000 -10856.3320 1400.2206 0.0000 0.0000 1788.7534 -7652.1286 300.6987 -9440.8820 -7571.0942 301.4069 -721.7801 -713.4699 30891.5294 -356.8335 -313.8648
ENERGY: 600000 2.0709 8.8791 8.1050 0.0000 -10767.8497 1462.3255 0.0000 0.0000 1792.1593 -7494.3098 301.2713 -9286.4691 -7545.0853 302.5896 31.9641 87.6847 31605.2261 -295.9462 -243.6908
ENERGY: 900000 1.9598 2.9703 2.6784 0.0000 -10911.3349 1518.9671 0.0000 0.0000 1896.2726 -7488.4866 318.7733 -9384.7593 -7544.7487 304.3170 467.6332 545.5773 30474.3861 -153.0440 -98.0884
ENERGY: 1200000 4.8411 5.8552 3.9847 0.0000 -10767.7741 1412.8295 0.0000 0.0000 1760.2497 -7580.0140 295.9071 -9340.2637 -7556.3276 302.8864 -634.8967 -550.6305 31124.0168 -150.6064 -95.4693
ENERGY: 1500000 0.6715 9.8599 2.8789 0.0000 -10884.3372 1453.4579 0.0000 0.0000 1784.6268 -7632.8422 300.0050 -9417.4690 -7561.1422 302.6741 165.4082 172.0723 30071.5319 -156.4417 -103.8196
TCL: Running FEP window  11: Lambda1 0.4999999999999996 Lambda2 0.4499999999999996 [dLambda -0.04999999999999999]
TCL: Setting parameter firsttimestep to 0
TCL: Setting parameter alchLambda to 0.4999999999999996
Info: NONBONDED TABLE R-SQUARED SPACING: 0.0625
Info: NONBONDED TABLE SIZE: 705 POINTS
TCL: Setting parameter alchLambda2 to 0.4499999999999996
Info: NONBONDED TABLE R-SQUARED SPACING: 0.0625
Info: NONBONDED TABLE SIZE: 705 POINTS
TCL: Running for 1500000 steps
ETITLE: TS BOND ANGLE DIHED IMPRP ELECT VDW BOUNDARY MISC KINETIC TOTAL TEMP POTENTIAL TOTALAVG TEMPAVG PRESSURE GPRESSURE VOLUME PRESSAVG GPRESSAVG
ENERGY: 0 0.6715 9.8599 2.8789 0.0000 -10884.4330 1453.5003 0.0000 0.0000 1783.7798 -7633.7427 299.8626 -9417.5224 -7633.7427 299.8626 80.5239 164.9431 30071.5319 80.5239 164.9431
ENERGY: 300000 6.5047 4.1141 1.3510 0.0000 -10815.7118 1441.9758 0.0000 0.0000 1795.4240 -7566.3421 301.8201 -9361.7661 -7574.5569 297.1101 -120.0306 -73.6878 30452.4978 67.5584 121.4116
ENERGY: 600000 2.9701 10.1931 1.9176 0.0000 -10927.9473 1557.4340 0.0000 0.0000 1831.4534 -7523.9793 307.8768 -9355.4327 -7568.9234 299.3165 626.2860 755.2817 30769.9545 51.1970 121.1662
ENERGY: 900000 1.5107 8.5048 3.5014 0.0000 -10787.7859 1435.1342 0.0000 0.0000 1802.9549 -7536.1798 303.0861 -9339.1347 -7567.3562 300.3446 -70.8187 18.1045 30820.8914 67.4222 133.8406
ENERGY: 1200000 1.4347 6.2338 3.4412 0.0000 -10925.5463 1517.3105 0.0000 0.0000 1739.6284 -7657.4977 292.4406 -9397.1261 -7567.0436 299.4648 553.3112 589.0695 30412.8474 35.3464 95.4001
ENERGY: 1500000 1.9881 7.5907 3.4167 0.0000 -10740.3047 1440.3589 0.0000 0.0000 1747.2090 -7539.7413 293.7149 -9286.9503 -7570.8001 299.0041 -29.6503 33.3952 30805.1205 -21.2744 38.1941
TCL: Running FEP window  12: Lambda1 0.4499999999999996 Lambda2 0.39999999999999963 [dLambda -0.04999999999999999]
TCL: Setting parameter firsttimestep to 0
TCL: Setting parameter alchLambda to 0.4499999999999996
Info: NONBONDED TABLE R-SQUARED SPACING: 0.0625
Info: NONBONDED TABLE SIZE: 705 POINTS
TCL: Setting parameter alchLambda2 to 0.39999999999999963
Info: NONBONDED TABLE R-SQUARED SPACING: 0.0625
Info: NONBONDED TABLE SIZE: 705 POINTS
TCL: Running for 1500000 steps
ETITLE: TS BOND ANGLE DIHED IMPRP ELECT VDW BOUNDARY MISC KINETIC TOTAL TEMP POTENTIAL TOTALAVG TEMPAVG PRESSURE GPRESSURE VOLUME PRESSAVG GPRESSAVG
ENERGY: 0 1.9881 7.5907 3.4167 0.0000 -10740.3057 1440.4850 0.0000 0.0000 1746.3127 -7540.5126 293.5642 -9286.8253 -7540.5126 293.5642 -44.1823 25.0849 30805.1205 -44.1823 25.0849
ENERGY: 300000 2.3810 6.2474 3.3039 0.0000 -10834.9606 1491.8083 0.0000 0.0000 1733.9462 -7597.2738 291.4854 -9331.2200 -7568.0350 295.0847 286.4169 303.4390 30612.2268 173.8130 232.3026
ENERGY: 600000 5.2371 8.8587 2.4487 0.0000 -10751.6795 1391.6871 0.0000 0.0000 1785.1109 -7558.3369 300.0864 -9343.4478 -7546.8203 298.1435 -659.1592 -634.4510 30823.1818 27.6741 82.6943
ENERGY: 900000 5.4310 4.8300 3.7613 0.0000 -10838.9476 1468.8690 0.0000 0.0000 1813.4616 -7542.5947 304.8523 -9356.0563 -7536.6279 300.4870 190.7413 236.6728 30430.1174 90.2637 145.2195
ENERGY: 1200000 5.0901 6.4368 5.0823 0.0000 -10653.0581 1364.0274 0.0000 0.0000 1815.6261 -7456.7955 305.2162 -9272.4215 -7524.4583 301.6763 -758.9581 -692.4042 31024.5763 -15.8284 40.1288
ENERGY: 1500000 4.7984 7.6737 1.1686 0.0000 -10725.3246 1380.7301 0.0000 0.0000 1798.4308 -7532.5229 302.3256 -9330.9537 -7522.8968 301.6395 -716.0338 -650.7475 30861.2516 -43.1955 14.3092
TCL: Running FEP window  13: Lambda1 0.39999999999999963 Lambda2 0.34999999999999964 [dLambda -0.04999999999999999]
TCL: Setting parameter firsttimestep to 0
TCL: Setting parameter alchLambda to 0.39999999999999963
Info: NONBONDED TABLE R-SQUARED SPACING: 0.0625
Info: NONBONDED TABLE SIZE: 705 POINTS
TCL: Setting parameter alchLambda2 to 0.34999999999999964
Info: NONBONDED TABLE R-SQUARED SPACING: 0.0625
Info: NONBONDED TABLE SIZE: 705 POINTS
TCL: Running for 1500000 steps
ETITLE: TS BOND ANGLE DIHED IMPRP ELECT VDW BOUNDARY MISC KINETIC TOTAL TEMP POTENTIAL TOTALAVG TEMPAVG PRESSURE GPRESSURE VOLUME PRESSAVG GPRESSAVG
ENERGY: 0 4.7984 7.6737 1.1686 0.0000 -10725.3248 1380.9240 0.0000 0.0000 1797.5896 -7533.1704 302.1841 -9330.7600 -7533.1704 302.1841 -729.2427 -652.8370 30861.2516 -729.2427 -652.8370
ENERGY: 300000 2.2555 3.5652 2.5276 0.0000 -10904.8015 1482.7095 0.0000 0.0000 1757.2243 -7656.5194 295.3985 -9413.7437 -7590.7176 296.5328 -36.5744 30.3642 30730.4920 -711.2249 -646.0974
ENERGY: 600000 3.3422 6.9614 3.4064 0.0000 -10674.3742 1316.6901 0.0000 0.0000 1793.4447 -7550.5294 301.4874 -9343.9741 -7585.4330 298.1147 -1328.2229 -1282.1652 31205.0781 -382.7443 -325.0342
ENERGY: 900000 1.9982 6.8995 1.9338 0.0000 -10760.7092 1430.0861 0.0000 0.0000 1775.2837 -7544.5079 298.4344 -9319.7916 -7579.0991 299.7181 -230.1901 -143.2423 30997.0433 -355.3984 -293.0315
ENERGY: 1200000 4.3288 3.7919 6.9632 0.0000 -10756.1888 1444.6845 0.0000 0.0000 1812.9062 -7483.5142 304.7589 -9296.4203 -7568.8225 299.9773 -160.8343 -82.9700 30737.3246 -211.3958 -154.0829
ENERGY: 1500000 1.9417 5.5646 2.9027 0.0000 -10762.9753 1376.1781 0.0000 0.0000 1740.2651 -7636.1230 292.5476 -9376.3881 -7574.7750 299.0817 -677.8706 -590.5101 30888.5411 -184.6760 -125.3009
TCL: Running FEP window  14: Lambda1 0.34999999999999964 Lambda2 0.29999999999999966 [dLambda -0.04999999999999999]
TCL: Setting parameter firsttimestep to 0
TCL: Setting parameter alchLambda to 0.34999999999999964
Info: NONBONDED TABLE R-SQUARED SPACING: 0.0625
Info: NONBONDED TABLE SIZE: 705 POINTS
TCL: Setting parameter alchLambda2 to 0.29999999999999966
Info: NONBONDED TABLE R-SQUARED SPACING: 0.0625
Info: NONBONDED TABLE SIZE: 705 POINTS
TCL: Running for 1500000 steps
ETITLE: TS BOND ANGLE DIHED IMPRP ELECT VDW BOUNDARY MISC KINETIC TOTAL TEMP POTENTIAL TOTALAVG TEMPAVG PRESSURE GPRESSURE VOLUME PRESSAVG GPRESSAVG
ENERGY: 0 1.9417 5.5646 2.9027 0.0000 -10762.9742 1376.5670 0.0000 0.0000 1739.3788 -7636.6194 292.3986 -9375.9982 -7636.6194 292.3986 -685.1315 -590.5158 30888.5411 -685.1315 -590.5158
ENERGY: 300000 2.5496 3.1550 2.0409 0.0000 -10773.2089 1466.6153 0.0000 0.0000 1779.5519 -7519.2962 299.1519 -9298.8481 -7569.0182 296.6331 480.1747 482.2043 30461.9605 -112.8908 -73.0010
ENERGY: 600000 2.0574 5.2077 5.2914 0.0000 -10803.9852 1484.2996 0.0000 0.0000 1776.5901 -7530.5390 298.6540 -9307.1291 -7559.8290 297.0685 317.3011 362.1952 30721.3153 41.4219 108.6377
ENERGY: 900000 5.3592 4.8592 1.5505 0.0000 -10900.6697 1520.5003 0.0000 0.0000 1727.3469 -7641.0536 290.3760 -9368.4004 -7555.6852 297.5880 188.1254 260.9255 30650.2971 97.7697 154.8264
ENERGY: 1200000 3.4551 4.2445 4.6661 0.0000 -10793.4550 1435.3909 0.0000 0.0000 1792.1528 -7553.5456 301.2702 -9345.6985 -7549.2876 298.4358 -185.0852 -222.5969 31011.5943 148.3799 203.2430
ENERGY: 1500000 2.8392 7.2465 2.5745 0.0000 -10852.8826 1451.7895 0.0000 0.0000 1787.6514 -7600.7815 300.5135 -9388.4329 -7558.0868 298.3187 -143.7600 -77.7638 30641.6498 101.9435 159.9600
TCL: Running FEP window  15: Lambda1 0.29999999999999966 Lambda2 0.24999999999999967 [dLambda -0.04999999999999999]
TCL: Setting parameter firsttimestep to 0
TCL: Setting parameter alchLambda to 0.29999999999999966
Info: NONBONDED TABLE R-SQUARED SPACING: 0.0625
Info: NONBONDED TABLE SIZE: 705 POINTS
TCL: Setting parameter alchLambda2 to 0.24999999999999967
Info: NONBONDED TABLE R-SQUARED SPACING: 0.0625
Info: NONBONDED TABLE SIZE: 705 POINTS
TCL: Running for 1500000 steps
ETITLE: TS BOND ANGLE DIHED IMPRP ELECT VDW BOUNDARY MISC KINETIC TOTAL TEMP POTENTIAL TOTALAVG TEMPAVG PRESSURE GPRESSURE VOLUME PRESSAVG GPRESSAVG
ENERGY: 0 2.8392 7.2465 2.5745 0.0000 -10852.8818 1451.8200 0.0000 0.0000 1786.7526 -7601.6490 300.3624 -9388.4016 -7601.6490 300.3624 -171.3893 -83.2882 30641.6498 -171.3893 -83.2882
ENERGY: 300000 6.9827 4.4387 3.7727 0.0000 -10791.9862 1451.5381 0.0000 0.0000 1829.2090 -7496.0450 307.4995 -9325.2539 -7551.9558 300.6739 285.5635 318.5858 30532.8375 -79.6126 -39.4557
ENERGY: 600000 2.1575 7.4919 3.2867 0.0000 -10893.2414 1555.4271 0.0000 0.0000 1786.4493 -7538.4288 300.3114 -9324.8781 -7532.8995 304.4549 679.6232 754.1333 30684.9581 1.2231 48.1752
ENERGY: 900000 1.9844 6.4185 2.3275 0.0000 -10914.5778 1476.3216 0.0000 0.0000 1821.8433 -7605.6826 306.2613 -9427.5259 -7545.5521 305.3409 -263.9283 -180.3755 30632.5144 31.9489 86.7125
ENERGY: 1200000 3.6217 8.3535 2.5768 0.0000 -10797.2205 1445.9353 0.0000 0.0000 1860.7078 -7476.0253 312.7946 -9336.7332 -7540.3520 304.3547 68.0691 118.4296 30457.2420 -45.0067 8.6514
ENERGY: 1500000 4.4925 5.5812 3.7417 0.0000 -10856.3004 1474.9058 0.0000 0.0000 1819.8135 -7547.7657 305.9201 -9367.5792 -7538.9488 304.0716 167.4381 224.4826 30594.6950 61.1812 116.6350
TCL: Running FEP window  16: Lambda1 0.24999999999999967 Lambda2 0.19999999999999968 [dLambda -0.04999999999999999]
TCL: Setting parameter firsttimestep to 0
TCL: Setting parameter alchLambda to 0.24999999999999967
Info: NONBONDED TABLE R-SQUARED SPACING: 0.0625
Info: NONBONDED TABLE SIZE: 705 POINTS
TCL: Setting parameter alchLambda2 to 0.19999999999999968
Info: NONBONDED TABLE R-SQUARED SPACING: 0.0625
Info: NONBONDED TABLE SIZE: 705 POINTS
TCL: Running for 1500000 steps
ETITLE: TS BOND ANGLE DIHED IMPRP ELECT VDW BOUNDARY MISC KINETIC TOTAL TEMP POTENTIAL TOTALAVG TEMPAVG PRESSURE GPRESSURE VOLUME PRESSAVG GPRESSAVG
ENERGY: 0 4.4925 5.5812 3.7417 0.0000 -10856.3005 1474.5186 0.0000 0.0000 1818.9373 -7549.0292 305.7728 -9367.9665 -7549.0292 305.7728 142.2195 213.8822 30594.6950 142.2195 213.8822
ENERGY: 300000 2.3147 6.0520 2.4096 0.0000 -10850.6377 1533.1448 0.0000 0.0000 1734.9044 -7571.8121 291.6464 -9306.7165 -7537.1026 301.2187 904.6295 957.8452 30160.5491 322.9984 408.6313
ENERGY: 600000 2.9459 6.0501 1.1300 0.0000 -10719.8095 1418.6366 0.0000 0.0000 1802.9151 -7488.1319 303.0794 -9291.0470 -7541.7858 300.3746 -379.2809 -295.8177 31124.9147 11.8055 79.0590
ENERGY: 900000 2.4652 3.9988 2.9383 0.0000 -10817.2777 1427.9242 0.0000 0.0000 1780.1379 -7599.8134 299.2504 -9379.9513 -7565.9354 298.8927 -357.9683 -222.5094 30609.7614 -40.5002 28.6901
ENERGY: 1200000 3.9318 8.8424 3.0062 0.0000 -10878.0431 1550.0460 0.0000 0.0000 1818.4999 -7493.7168 305.6993 -9312.2167 -7550.1843 300.6918 926.0867 1010.0011 30414.0788 33.7990 103.9367
ENERGY: 1500000 4.1531 5.3180 7.1148 0.0000 -10781.5316 1411.3506 0.0000 0.0000 1795.0924 -7558.5027 301.7644 -9353.5951 -7549.1796 301.4708 -483.7711 -465.1580 30675.2020 -59.6966 1.0725
TCL: Running FEP window  17: Lambda1 0.19999999999999968 Lambda2 0.1499999999999997 [dLambda -0.04999999999999999]
TCL: Setting parameter firsttimestep to 0
TCL: Setting parameter alchLambda to 0.19999999999999968
Info: NONBONDED TABLE R-SQUARED SPACING: 0.0625
Info: NONBONDED TABLE SIZE: 705 POINTS
TCL: Setting parameter alchLambda2 to 0.1499999999999997
Info: NONBONDED TABLE R-SQUARED SPACING: 0.0625
Info: NONBONDED TABLE SIZE: 705 POINTS
TCL: Running for 1500000 steps
ETITLE: TS BOND ANGLE DIHED IMPRP ELECT VDW BOUNDARY MISC KINETIC TOTAL TEMP POTENTIAL TOTALAVG TEMPAVG PRESSURE GPRESSURE VOLUME PRESSAVG GPRESSAVG
ENERGY: 0 4.1531 5.3180 7.1148 0.0000 -10781.5315 1411.7177 0.0000 0.0000 1794.2011 -7559.0268 301.6145 -9353.2280 -7559.0268 301.6145 -563.9538 -469.3558 30675.2020 -563.9538 -469.3558
ENERGY: 300000 3.7943 6.9295 2.5982 0.0000 -10736.6707 1403.0434 0.0000 0.0000 1792.7803 -7527.5249 301.3757 -9320.3052 -7579.8926 299.3069 -403.4579 -323.3369 30570.0001 -169.5871 -81.0943
ENERGY: 600000 3.3853 8.0712 1.9610 0.0000 -10776.8645 1463.2397 0.0000 0.0000 1749.3900 -7550.8173 294.0815 -9300.2073 -7571.4951 297.7326 40.4642 124.5446 30877.3310 -221.1340 -142.2553
ENERGY: 900000 2.6890 6.4669 2.4826 0.0000 -10879.9611 1502.7697 0.0000 0.0000 1757.1703 -7608.3826 295.3894 -9365.5529 -7579.4508 297.4034 401.0441 466.7038 30299.6850 -93.8810 -14.1064
ENERGY: 1200000 3.0933 9.8024 5.9591 0.0000 -10705.9001 1357.2286 0.0000 0.0000 1761.0362 -7568.7806 296.0393 -9329.8168 -7590.9588 297.4155 -791.6885 -828.7118 30669.8358 -263.4027 -196.8052
ENERGY: 1500000 2.0128 4.6335 1.9645 0.0000 -10849.9346 1416.7039 0.0000 0.0000 1761.7726 -7662.8473 296.1631 -9424.6199 -7593.8071 297.1542 -175.2241 -204.9180 30220.5569 -310.5490 -256.4769
TCL: Running FEP window  18: Lambda1 0.1499999999999997 Lambda2 0.09999999999999969 [dLambda -0.05 ]
TCL: Setting parameter firsttimestep to 0
TCL: Setting parameter alchLambda to 0.1499999999999997
Info: NONBONDED TABLE R-SQUARED SPACING: 0.0625
Info: NONBONDED TABLE SIZE: 705 POINTS
TCL: Setting parameter alchLambda2 to 0.09999999999999969
Info: NONBONDED TABLE R-SQUARED SPACING: 0.0625
Info: NONBONDED TABLE SIZE: 705 POINTS
TCL: Running for 1500000 steps
ETITLE: TS BOND ANGLE DIHED IMPRP ELECT VDW BOUNDARY MISC KINETIC TOTAL TEMP POTENTIAL TOTALAVG TEMPAVG PRESSURE GPRESSURE VOLUME PRESSAVG GPRESSAVG
ENERGY: 0 2.0128 4.6335 1.9645 0.0000 -10849.9335 1416.6777 0.0000 0.0000 1760.8925 -7663.7525 296.0152 -9424.6450 -7663.7525 296.0152 -293.1068 -206.4358 30220.5569 -293.1068 -206.4358
ENERGY: 300000 3.3632 8.1563 1.4300 0.0000 -10879.3122 1484.1401 0.0000 0.0000 1844.7355 -7537.4872 310.1096 -9382.2227 -7537.6588 303.7856 -4.1063 83.4166 30751.1969 -94.9387 -25.4112
ENERGY: 600000 5.4137 7.3427 3.0978 0.0000 -10819.1569 1483.7498 0.0000 0.0000 1843.3680 -7476.1849 309.8797 -9319.5529 -7534.9243 303.3906 263.1448 360.3956 30939.2839 -43.2787 16.9881
ENERGY: 900000 3.0321 9.9905 3.1686 0.0000 -10764.3448 1471.5709 0.0000 0.0000 1793.1012 -7483.4813 301.4296 -9276.5826 -7530.3835 302.5536 101.4819 138.0229 30989.1928 -21.7722 46.2656
ENERGY: 1200000 2.5855 4.6499 2.6174 0.0000 -10709.6469 1426.8259 0.0000 0.0000 1765.3842 -7507.5841 296.7703 -9272.9683 -7544.7881 300.7783 -149.2035 -118.3078 31230.5117 -42.9379 28.9894
ENERGY: 1500000 3.6536 11.3197 4.6564 0.0000 -10858.4795 1459.6692 0.0000 0.0000 1813.5048 -7565.6757 304.8596 -9379.1805 -7538.2273 301.3240 -84.8080 -94.9727 30666.2066 27.5020 98.3890
TCL: Running FEP window  19: Lambda1 0.09999999999999969 Lambda2 0.049999999999999684 [dLambda -0.05 ]
TCL: Setting parameter firsttimestep to 0
TCL: Setting parameter alchLambda to 0.09999999999999969
Info: NONBONDED TABLE R-SQUARED SPACING: 0.0625
Info: NONBONDED TABLE SIZE: 705 POINTS
TCL: Setting parameter alchLambda2 to 0.049999999999999684
Info: NONBONDED TABLE R-SQUARED SPACING: 0.0625
Info: NONBONDED TABLE SIZE: 705 POINTS
TCL: Running for 1500000 steps
ETITLE: TS BOND ANGLE DIHED IMPRP ELECT VDW BOUNDARY MISC KINETIC TOTAL TEMP POTENTIAL TOTALAVG TEMPAVG PRESSURE GPRESSURE VOLUME PRESSAVG GPRESSAVG
ENERGY: 0 3.6536 11.3197 4.6564 0.0000 -10858.4796 1459.5383 0.0000 0.0000 1812.6200 -7566.6915 304.7108 -9379.3115 -7566.6915 304.7108 -184.2478 -100.8862 30666.2066 -184.2478 -100.8862
ENERGY: 300000 1.2201 6.3751 4.2017 0.0000 -10763.4931 1392.5770 0.0000 0.0000 1784.4385 -7574.6807 299.9734 -9359.1192 -7561.2677 301.7613 -389.8744 -405.7850 30733.7549 -1.7766 20.6310
ENERGY: 600000 2.7018 10.0206 5.9693 0.0000 -10813.8340 1430.6361 0.0000 0.0000 1805.3870 -7559.1194 303.4949 -9364.5064 -7581.6451 300.6905 -224.0258 -161.9888 30522.4638 -90.7593 -60.6875
ENERGY: 900000 1.1425 8.5346 6.2722 0.0000 -10869.2042 1496.4944 0.0000 0.0000 1734.5331 -7622.2274 291.5840 -9356.7605 -7587.1618 299.6299 176.1694 276.3328 30647.1371 -142.9461 -105.3646
ENERGY: 1200000 1.9326 9.0215 6.7717 0.0000 -10861.9358 1426.6340 0.0000 0.0000 1744.6353 -7672.9406 293.2823 -9417.5760 -7582.2427 299.1092 -337.4100 -308.4308 30476.8508 -288.1925 -238.6371
ENERGY: 1500000 2.7448 3.7643 3.1270 0.0000 -10833.4946 1447.9267 0.0000 0.0000 1801.4431 -7574.4888 302.8319 -9375.9319 -7581.2648 300.1296 -325.3990 -215.7523 30508.7909 -205.5179 -157.2697
TCL: Running FEP window  20: Lambda1 0.049999999999999684 Lambda2 0.0    [dLambda -0.049999999999999684]
TCL: Setting parameter firsttimestep to 0
TCL: Setting parameter alchLambda to 0.049999999999999684
Info: NONBONDED TABLE R-SQUARED SPACING: 0.0625
Info: NONBONDED TABLE SIZE: 705 POINTS
TCL: Setting parameter alchLambda2 to 0.0
Info: NONBONDED TABLE R-SQUARED SPACING: 0.0625
Info: NONBONDED TABLE SIZE: 705 POINTS
TCL: Running for 1500000 steps
ETITLE: TS BOND ANGLE DIHED IMPRP ELECT VDW BOUNDARY MISC KINETIC TOTAL TEMP POTENTIAL TOTALAVG TEMPAVG PRESSURE GPRESSURE VOLUME PRESSAVG GPRESSAVG
ENERGY: 0 2.7448 3.7643 3.1270 0.0000 -10833.4949 1447.5636 0.0000 0.0000 1800.5360 -7575.7592 302.6794 -9376.2952 -7575.7592 302.6794 -315.6027 -221.3552 30508.7909 -315.6027 -221.3552
ENERGY: 300000 2.5349 5.1775 3.2561 0.0000 -10850.0712 1435.5317 0.0000 0.0000 1761.4278 -7642.1432 296.1052 -9403.5710 -7599.5332 300.8106 -282.7184 -263.9322 30776.0095 133.2477 203.7970
ENERGY: 600000 3.5402 10.1466 2.0270 0.0000 -10943.6196 1515.7113 0.0000 0.0000 1804.1633 -7608.0313 303.2892 -9412.1946 -7613.3458 300.7527 518.1036 572.5832 29854.8415 36.2941 100.2204
ENERGY: 900000 3.2667 6.6464 1.3988 0.0000 -10654.1061 1303.6515 0.0000 0.0000 1789.0158 -7550.1269 300.7428 -9339.1426 -7598.0140 300.6021 -1186.8077 -1215.3091 30915.1695 -65.1788 -8.1435
ENERGY: 1200000 4.8848 10.0522 2.6369 0.0000 -10743.7067 1363.5602 0.0000 0.0000 1721.5080 -7641.0645 289.3944 -9362.5726 -7605.6825 299.5061 -884.5988 -855.4223 30339.2173 -160.9978 -115.1183
ENERGY: 1500000 4.0142 6.3129 3.1401 0.0000 -10805.8300 1405.4832 0.0000 0.0000 1796.9187 -7589.9609 302.0714 -9386.8796 -7607.7274 299.5382 -768.4550 -673.8047 30564.8823 -257.1820 -201.5459
TCL: Exiting due to exit command.
