Info: SIMULATION PARAMETERS:
Info: TIMESTEP               2
Info: NUMBER OF STEPS        0
Info: STEPS PER CYCLE        10
Info: PERIODIC CELL BASIS 1  33.5789 0 0
Info: PERIODIC CELL BASIS 2  0 29.6646 0
Info: PERIODIC CELL BASIS 3  0 0 30.671
Info: PERIODIC CELL CENTER   0 0 0
Info: WRAPPING WATERS AROUND PERIODIC BOUNDARIES ON OUTPUT.
Info: WRAPPING ALL CLUSTERS AROUND PERIODIC BOUNDARIES ON OUTPUT.
Info: FIRST LDB TIMESTEP     50
Info: LAST LDB TIMESTEP     -1
Info: HOM BACKGROUND SCALING 1
Info: PME BACKGROUND SCALING 1
Info: MIN ATOMS PER PATCH    40
Info: EMPTY PATCH LOAD       40 ATOMS
Info: VELOCITY FILE          mobley_5006685_equil.vel
Info: CENTER OF MASS MOVING INITIALLY? NO
Info: DIELECTRIC             1
Info: EXCLUDE                SCALED ONE-FOUR
Info: 1-4 ELECTROSTATICS SCALED BY 0.833333
Info: MODIFIED 1-4 VDW PARAMETERS WILL BE USED
Info: DCD FILENAME           mobley_5006685_prod.dcd
Info: DCD FREQUENCY          100000
Info: DCD FIRST STEP         100000
Info: DCD FILE WILL CONTAIN UNIT CELL DATA
Info: XST FILENAME           mobley_5006685_prod.xst
Info: XST FREQUENCY          100000
Info: NO VELOCITY DCD OUTPUT
Info: NO FORCE DCD OUTPUT
Info: OUTPUT FILENAME        mobley_5006685_prod
Info: BINARY OUTPUT FILES WILL BE USED
Info: RESTART FILENAME       mobley_5006685_prod.restart
Info: RESTART FREQUENCY      100000
Info: BINARY RESTART FILES WILL BE USED
Info: CUTOFF                 9
Info: PAIRLIST DISTANCE      11
Info: PAIRLIST SHRINK RATE   0.01
Info: PAIRLIST GROW RATE     0.01
Info: PAIRLIST TRIGGER       0.3
Info: PAIRLISTS PER CYCLE    2
Info: PAIRLISTS ENABLED
Info: MARGIN                 2
Info: HYDROGEN GROUP CUTOFF  2.5
Info: PATCH DIMENSION        15.5
Info: ENERGY OUTPUT STEPS    100000
Info: ENERGY EVALUATION STEPS    100000
Info: OUTPUT ENERGY PRECISION 4
Info: CROSSTERM ENERGY INCLUDED IN DIHEDRAL
Info: TIMING OUTPUT STEPS    1000000
Info: PRESSURE OUTPUT STEPS  100000
Info: ALCHEMICAL FEP ON
Info: FEP CURRENT LAMBDA VALUE     1
Info: FEP COMPARISON LAMBDA VALUE  0.95
Info: FEP INTRA-ALCHEMICAL NON-BONDED INTERACTIONS WILL BE RETAINED
Info: FEP INTRA-ALCHEMICAL BONDED INTERACTIONS WILL BE RETAINED
Info: FEP VDW SHIFTING COEFFICIENT 5
Info: FEP ELEC. ACTIVE FOR ANNIHILATED PARTICLES BETWEEN LAMBDA = 0 AND LAMBDA = 0.5
Info: FEP ELEC. ACTIVE FOR EXNIHILATED PARTICLES BETWEEN LAMBDA = 0.5 AND LAMBDA = 1
Info: FEP VDW ACTIVE FOR ANNIHILATED PARTICLES BETWEEN LAMBDA = 0 AND LAMBDA = 1
Info: FEP VDW ACTIVE FOR EXNIHILATED PARTICLES BETWEEN LAMBDA = 0 AND LAMBDA = 1
Info: FEP BOND ACTIVE FOR ANNIHILATED PARTICLES BETWEEN LAMBDA = 1 AND LAMBDA = 1
Info: FEP BOND ACTIVE FOR EXNIHILATED PARTICLES BETWEEN LAMBDA = 0 AND LAMBDA = 0
Info: LANGEVIN DYNAMICS ACTIVE
Info: LANGEVIN TEMPERATURE   300
Info: LANGEVIN USING BBK INTEGRATOR
Info: LANGEVIN DAMPING COEFFICIENT IS 1 INVERSE PS
Info: LANGEVIN DYNAMICS APPLIED TO HYDROGENS
Info: LANGEVIN PISTON PRESSURE CONTROL ACTIVE
Info:        TARGET PRESSURE IS 1.01325 BAR
Info:     OSCILLATION PERIOD IS 50 FS
Info:             DECAY TIME IS 25 FS
Info:     PISTON TEMPERATURE IS 300 K
Info:       PRESSURE CONTROL IS GROUP-BASED
Info:    INITIAL STRAIN RATE IS 4.02107e-05 4.02107e-05 4.02107e-05
Info:       CELL FLUCTUATION IS ISOTROPIC
Info: PARTICLE MESH EWALD (PME) ACTIVE
Info: PME TOLERANCE               1e-06
Info: PME EWALD COEFFICIENT       0.348832
Info: PME INTERPOLATION ORDER     4
Info: PME GRID DIMENSIONS         36 32 32
Info: PME MAXIMUM GRID SPACING    1
Info: PME CALCULATION WILL BE PERFORMED ON GPU
Info: FULL ELECTROSTATIC EVALUATION FREQUENCY      2
Info: USING VERLET I (r-RESPA) MTS SCHEME.
Info: C1 SPLITTING OF LONG RANGE ELECTROSTATICS
Info: PLACING ATOMS IN PATCHES BY HYDROGEN GROUPS
Info: RIGID BONDS TO HYDROGEN : ALL
Info:         ERROR TOLERANCE : 1e-08
Info:          MAX ITERATIONS : 100
Info: RIGID WATER USING SETTLE ALGORITHM
Info: RANDOM NUMBER SEED     1743890122
Info: USE HYDROGEN BONDS?    NO
Info: Using AMBER format force field!
Info: AMBER PARM FILE        mobley_5006685.prmtop
Info: COORDINATE PDB         mobley_5006685.pdb
Info: Exclusions will be read from PARM file!
Info: SCNB (VDW SCALING)     2
Info: USING ARITHMETIC MEAN TO COMBINE L-J SIGMA PARAMETERS
Info: BINARY COORDINATES     mobley_5006685_equil.coor
Info: SUMMARY OF PARAMETERS:
Info: 12 BONDS
Info: 20 ANGLES
Info:   20 HARMONIC
Info:   0 COSINE-BASED
Info: 14 DIHEDRAL
Info: 0 IMPROPER
Info: 0 CROSSTERM
Info: 0 VDW
Info: 36 VDW_PAIRS
Info: 0 NBTHOLE_PAIRS
Info: To read alchdata from file: mobley_5006685.pdb
Info: To read alchflag data from column: 5
Info: STRUCTURE SUMMARY:
Info: 2980 ATOMS
Info: 2980 BONDS
Info: 45 ANGLES
Info: 82 DIHEDRALS
Info: 0 IMPROPERS
Info: 0 CROSSTERMS
Info: 3085 EXCLUSIONS
Info: 2969 RIGID BONDS
Info: ALCH: 0 ATOMS TO DISAPPEAR IN FINAL STATE
Info: ALCH: 25 ATOMS TO APPEAR IN FINAL STATE
Info: 5971 DEGREES OF FREEDOM
Info: 996 HYDROGEN GROUPS
Info: 4 ATOMS IN LARGEST HYDROGEN GROUP
Info: 996 MIGRATION GROUPS
Info: 4 ATOMS IN LARGEST MIGRATION GROUP
Info: TOTAL MASS = 17896 amu
Info: TOTAL CHARGE = 6.51926e-09 e
Info: MASS DENSITY = 0.972707 g/cm^3
Info: ATOM DENSITY = 0.0975402 atoms/A^3
Info: ADDED 0 IMPLICIT EXCLUSIONS
Info: NONBONDED TABLE R-SQUARED SPACING: 0.0625
Info: NONBONDED TABLE SIZE: 705 POINTS
Info: REMOVING COM VELOCITY 0.0134651 -0.0877186 -0.128279
Info: Use 3D box decompostion in PME FFT.
Info: Updated CUDA force table with 4096 elements.
Info: Updated CUDA LJ table with 8 x 8 elements.
Info: Found 28 unique exclusion lists needing 100 bytes
TCL: Running for 1500000 steps
ETITLE: TS BOND ANGLE DIHED IMPRP ELECT VDW BOUNDARY MISC KINETIC TOTAL TEMP POTENTIAL TOTALAVG TEMPAVG PRESSURE GPRESSURE VOLUME PRESSAVG GPRESSAVG
ENERGY: 0 3.6540 11.7943 14.8189 0.0000 -10647.2411 1362.8829 0.0000 0.0000 1805.3089 -7448.7821 304.2950 -9254.0910 -7448.7821 304.2950 -498.0570 -409.2337 30551.5024 -498.0570 -409.2337
ENERGY: 300000 4.5755 11.9394 15.5222 0.0000 -10831.6850 1488.3372 0.0000 0.0000 1744.1768 -7567.1339 293.9909 -9311.3107 -7529.9756 300.0888 265.1386 292.8756 30624.2457 -67.4425 -19.5280
ENERGY: 600000 5.5504 13.4988 14.4490 0.0000 -10657.5451 1347.0235 0.0000 0.0000 1759.1922 -7517.8310 296.5218 -9277.0233 -7511.6767 299.9739 -563.3910 -513.8481 30387.6008 -135.3521 -74.2917
ENERGY: 900000 3.8542 9.1782 14.2483 0.0000 -10735.8604 1442.9329 0.0000 0.0000 1750.8551 -7514.7919 295.1165 -9265.6469 -7505.3763 300.8076 -323.1338 -206.2437 31222.8038 -164.7463 -96.3082
ENERGY: 1200000 3.2493 7.8159 15.5182 0.0000 -10892.7460 1523.3562 0.0000 0.0000 1712.7449 -7630.0615 288.6928 -9342.8064 -7506.1586 300.2840 983.2448 1082.1447 29894.5793 -61.5438 2.5248
ENERGY: 1500000 3.3826 5.9344 13.5466 0.0000 -10648.8748 1470.9360 0.0000 0.0000 1769.6699 -7385.4053 298.2879 -9155.0753 -7494.5758 300.4869 342.0627 426.9944 31123.3076 -4.1478 65.8330
TCL: Running FEP window   2: Lambda1 0.95   Lambda2 0.8999999999999999 [dLambda -0.050000000000000044]
TCL: Setting parameter firsttimestep to 0
TCL: Setting parameter alchLambda to 0.95
Info: NONBONDED TABLE R-SQUARED SPACING: 0.0625
Info: NONBONDED TABLE SIZE: 705 POINTS
TCL: Setting parameter alchLambda2 to 0.8999999999999999
Info: NONBONDED TABLE R-SQUARED SPACING: 0.0625
Info: NONBONDED TABLE SIZE: 705 POINTS
TCL: Running for 1500000 steps
ETITLE: TS BOND ANGLE DIHED IMPRP ELECT VDW BOUNDARY MISC KINETIC TOTAL TEMP POTENTIAL TOTALAVG TEMPAVG PRESSURE GPRESSURE VOLUME PRESSAVG GPRESSAVG
ENERGY: 0 3.3826 5.9344 13.5466 0.0000 -10647.9521 1471.2140 0.0000 0.0000 1768.7991 -7385.0755 298.1411 -9153.8746 -7385.0755 298.1411 339.9901 419.7405 31123.3076 339.9901 419.7405
ENERGY: 300000 4.3086 8.8470 13.4508 0.0000 -10843.6179 1519.2615 0.0000 0.0000 1765.4668 -7532.2832 297.5794 -9297.7500 -7477.8874 297.4175 542.9488 597.7771 30797.5618 246.7096 314.0562
ENERGY: 600000 5.8963 7.9013 15.2459 0.0000 -10653.5690 1362.9637 0.0000 0.0000 1823.9252 -7437.6367 307.4329 -9261.5619 -7471.8044 300.3843 -613.2044 -550.7341 30773.9619 -125.5055 -60.0330
ENERGY: 900000 4.7785 9.4977 13.7494 0.0000 -10760.3694 1426.7736 0.0000 0.0000 1776.9218 -7528.6483 299.5102 -9305.5702 -7483.4893 300.8709 -97.7053 -34.0538 30467.4227 -136.9054 -76.8640
ENERGY: 1200000 5.6041 8.6387 15.0001 0.0000 -10669.7965 1362.2178 0.0000 0.0000 1807.5144 -7470.8214 304.6668 -9278.3358 -7481.6530 300.4995 -809.7253 -711.6132 30818.7854 -115.0495 -58.5441
ENERGY: 1500000 2.6584 12.1980 15.8660 0.0000 -10835.8229 1421.0976 0.0000 0.0000 1731.4206 -7652.5823 291.8407 -9384.0029 -7487.1295 300.0916 -556.9437 -481.8187 30576.0878 -119.5644 -61.0338
TCL: Running FEP window   3: Lambda1 0.8999999999999999 Lambda2 0.8499999999999999 [dLambda -0.050000000000000044]
TCL: Setting parameter firsttimestep to 0
TCL: Setting parameter alchLambda to 0.8999999999999999
Info: NONBONDED TABLE R-SQUARED SPACING: 0.0625
Info: NONBONDED TABLE SIZE: 705 POINTS
TCL: Setting parameter alchLambda2 to 0.8499999999999999
Info: NONBONDED TABLE R-SQUARED SPACING: 0.0625
Info: NONBONDED TABLE SIZE: 705 POINTS
TCL: Running for 1500000 steps
ETITLE: TS BOND ANGLE DIHED IMPRP ELECT VDW BOUNDARY MISC KINETIC TOTAL TEMP POTENTIAL TOTALAVG TEMPAVG PRESSURE GPRESSURE VOLUME PRESSAVG GPRESSAVG
ENERGY: 0 2.6584 12.1980 15.8660 0.0000 -10834.3471 1420.4704 0.0000 0.0000 1730.5547 -7652.5995 291.6948 -9383.1542 -7652.5995 291.6948 -577.8946 -503.0874 30576.0878 -577.8946 -503.0874
ENERGY: 300000 2.4764 9.8866 13.7527 0.0000 -10844.1956 1473.2187 0.0000 0.0000 1772.8226 -7572.0386 298.8193 -9344.8612 -7555.5957 298.2708 -69.9666 -59.1891 30920.8657 -226.7098 -176.0393
ENERGY: 600000 2.5555 11.4740 12.9456 0.0000 -10672.8645 1363.8093 0.0000 0.0000 1795.4112 -7486.6689 302.6267 -9282.0801 -7530.2067 298.0957 -862.1120 -761.5970 31371.2864 -278.2279 -226.7393
ENERGY: 900000 4.6320 8.1132 16.4757 0.0000 -10662.6250 1375.7319 0.0000 0.0000 1804.0545 -7453.6179 304.0836 -9257.6724 -7514.1422 299.9372 -687.9497 -596.2050 31205.7078 -181.6866 -125.2834
ENERGY: 1200000 4.9394 10.5667 15.2667 0.0000 -10785.4906 1415.8082 0.0000 0.0000 1769.0015 -7569.9080 298.1752 -9338.9095 -7518.3239 299.7919 -255.2464 -283.0350 30339.3976 -221.4852 -171.2464
ENERGY: 1500000 4.1899 8.7223 15.7999 0.0000 -10637.0704 1331.6734 0.0000 0.0000 1808.9141 -7467.7709 304.9027 -9276.6850 -7514.8453 300.0358 -1022.2117 -949.8169 30881.2316 -301.4826 -246.0772
TCL: Running FEP window   4: Lambda1 0.8499999999999999 Lambda2 0.7999999999999998 [dLambda -0.050000000000000044]
TCL: Setting parameter firsttimestep to 0
TCL: Setting parameter alchLambda to 0.8499999999999999
Info: NONBONDED TABLE R-SQUARED SPACING: 0.0625
Info: NONBONDED TABLE SIZE: 705 POINTS
TCL: Setting parameter alchLambda2 to 0.7999999999999998
Info: NONBONDED TABLE R-SQUARED SPACING: 0.0625
Info: NONBONDED TABLE SIZE: 705 POINTS
TCL: Running for 1500000 steps
ETITLE: TS BOND ANGLE DIHED IMPRP ELECT VDW BOUNDARY MISC KINETIC TOTAL TEMP POTENTIAL TOTALAVG TEMPAVG PRESSURE GPRESSURE VOLUME PRESSAVG GPRESSAVG
ENERGY: 0 4.1898 8.7223 15.7999 0.0000 -10635.0571 1331.3023 0.0000 0.0000 1808.0491 -7466.9937 304.7569 -9275.0427 -7466.9937 304.7569 -1039.8624 -962.5433 30881.2316 -1039.8624 -962.5433
ENERGY: 300000 3.3078 7.5619 12.6930 0.0000 -10814.7104 1446.0495 0.0000 0.0000 1803.2315 -7541.8667 303.9449 -9345.0982 -7529.0604 304.4886 -77.1218 2.5035 30483.6157 -256.2987 -172.9609
ENERGY: 600000 1.9017 7.0927 13.7971 0.0000 -10732.4430 1393.1743 0.0000 0.0000 1784.4426 -7532.0346 300.7779 -9316.4772 -7513.8086 303.7572 -455.0798 -409.6816 30678.0280 -364.3235 -299.0560
ENERGY: 900000 4.0426 8.0264 13.6125 0.0000 -10674.1168 1356.7365 0.0000 0.0000 1792.4495 -7499.2493 302.1275 -9291.6987 -7507.2372 303.8513 -694.6744 -585.9236 30704.8405 -257.7860 -193.2050
ENERGY: 1200000 1.5538 11.2313 15.5137 0.0000 -10653.7478 1439.7023 0.0000 0.0000 1741.1345 -7444.6121 293.4781 -9185.7466 -7502.6491 302.5826 232.6347 287.1462 31132.1653 -216.0338 -160.0572
ENERGY: 1500000 2.4475 6.5725 17.3009 0.0000 -10621.7197 1349.8814 0.0000 0.0000 1834.4879 -7411.0295 309.2133 -9245.5174 -7494.9626 303.0979 -602.3756 -531.3844 31076.4099 -191.2385 -139.4654
TCL: Running FEP window   5: Lambda1 0.7999999999999998 Lambda2 0.7499999999999998 [dLambda -0.050000000000000044]
TCL: Setting parameter firsttimestep to 0
TCL: Setting parameter alchLambda to 0.7999999999999998
Info: NONBONDED TABLE R-SQUARED SPACING: 0.0625
Info: NONBONDED TABLE SIZE: 705 POINTS
TCL: Setting parameter alchLambda2 to 0.7499999999999998
Info: NONBONDED TABLE R-SQUARED SPACING: 0.0625
Info: NONBONDED TABLE SIZE: 705 POINTS
TCL: Running for 1500000 steps
ETITLE: TS BOND ANGLE DIHED IMPRP ELECT VDW BOUNDARY MISC KINETIC TOTAL TEMP POTENTIAL TOTALAVG TEMPAVG PRESSURE GPRESSURE VOLUME PRESSAVG GPRESSAVG
ENERGY: 0 2.4475 6.5725 17.3009 0.0000 -10620.6971 1350.3992 0.0000 0.0000 1833.6582 -7410.3188 309.0734 -9243.9770 -7410.3188 309.0734 -615.1388 -535.4403 31076.4099 -615.1388 -535.4403
ENERGY: 300000 2.1858 12.1411 16.2813 0.0000 -10828.8328 1478.6085 0.0000 0.0000 1824.5311 -7495.0850 307.5350 -9319.6161 -7473.8986 303.4384 307.3585 402.2774 30275.3747 -105.8549 -20.2158
ENERGY: 600000 2.3710 8.4855 12.3990 0.0000 -10713.1822 1399.4021 0.0000 0.0000 1784.2463 -7506.2783 300.7448 -9290.5246 -7487.1802 301.6311 -446.1158 -364.4037 30589.4690 -125.1785 -36.0279
ENERGY: 900000 5.7742 7.3490 14.1149 0.0000 -10744.8182 1451.2175 0.0000 0.0000 1787.2954 -7479.0673 301.2587 -9266.3627 -7496.4090 300.7813 -194.0977 -171.5608 30835.7820 -132.0462 -53.6051
ENERGY: 1200000 7.5039 11.6185 12.6367 0.0000 -10803.4401 1443.8195 0.0000 0.0000 1751.9911 -7575.8704 295.3080 -9327.8615 -7501.0978 300.5944 -323.5966 -300.4863 30876.7234 -211.0898 -141.1339
ENERGY: 1500000 3.1272 10.2267 14.4668 0.0000 -10659.7989 1434.2726 0.0000 0.0000 1776.3583 -7421.3472 299.4152 -9197.7055 -7500.8866 301.3179 231.1996 279.9163 30660.6380 -106.0366 -46.8000
TCL: Running FEP window   6: Lambda1 0.7499999999999998 Lambda2 0.6999999999999997 [dLambda -0.050000000000000044]
TCL: Setting parameter firsttimestep to 0
TCL: Setting parameter alchLambda to 0.7499999999999998
Info: NONBONDED TABLE R-SQUARED SPACING: 0.0625
Info: NONBONDED TABLE SIZE: 705 POINTS
TCL: Setting parameter alchLambda2 to 0.6999999999999997
Info: NONBONDED TABLE R-SQUARED SPACING: 0.0625
Info: NONBONDED TABLE SIZE: 705 POINTS
TCL: Running for 1500000 steps
ETITLE: TS BOND ANGLE DIHED IMPRP ELECT VDW BOUNDARY MISC KINETIC TOTAL TEMP POTENTIAL TOTALAVG TEMPAVG PRESSURE GPRESSURE VOLUME PRESSAVG GPRESSAVG
ENERGY: 0 3.1273 10.2267 14.4668 0.0000 -10659.1398 1433.7823 0.0000 0.0000 1775.5047 -7422.0321 299.2713 -9197.5367 -7422.0321 299.2713 177.1852 262.2988 30660.6380 177.1852 262.2988
ENERGY: 300000 4.3993 8.6439 14.0177 0.0000 -10733.2056 1421.3939 0.0000 0.0000 1795.7024 -7489.0484 302.6758 -9284.7508 -7477.7010 301.3871 -350.7918 -378.6520 31309.3260 -202.2558 -156.0238
ENERGY: 600000 4.6254 11.8253 13.9352 0.0000 -10733.6847 1451.0664 0.0000 0.0000 1845.4179 -7406.8145 311.0556 -9252.2324 -7468.7768 301.8083 162.7121 206.6445 30730.8491 -188.3980 -139.3271
ENERGY: 900000 2.7001 18.9740 15.6742 0.0000 -10877.7461 1513.7745 0.0000 0.0000 1836.2095 -7490.4138 309.5035 -9326.6233 -7481.7973 302.1237 398.2972 429.1361 30492.0405 -33.7835 12.4460
ENERGY: 1200000 2.0341 10.7740 15.0748 0.0000 -10844.3722 1454.0503 0.0000 0.0000 1781.6222 -7580.8167 300.3025 -9362.4389 -7501.9838 301.1916 -90.8780 -44.1286 30485.3800 -13.1640 40.7923
ENERGY: 1500000 6.1452 8.7761 12.0857 0.0000 -10742.1196 1472.4622 0.0000 0.0000 1789.3259 -7453.3244 301.6010 -9242.6503 -7495.0243 301.8670 -59.1040 34.0661 30880.1074 -5.2276 55.3922
TCL: Running FEP window   7: Lambda1 0.6999999999999997 Lambda2 0.6499999999999997 [dLambda -0.050000000000000044]
TCL: Setting parameter firsttimestep to 0
TCL: Setting parameter alchLambda to 0.6999999999999997
Info: NONBONDED TABLE R-SQUARED SPACING: 0.0625
Info: NONBONDED TABLE SIZE: 705 POINTS
TCL: Setting parameter alchLambda2 to 0.6499999999999997
Info: NONBONDED TABLE R-SQUARED SPACING: 0.0625
Info: NONBONDED TABLE SIZE: 705 POINTS
TCL: Running for 1500000 steps
ETITLE: TS BOND ANGLE DIHED IMPRP ELECT VDW BOUNDARY MISC KINETIC TOTAL TEMP POTENTIAL TOTALAVG TEMPAVG PRESSURE GPRESSURE VOLUME PRESSAVG GPRESSAVG
ENERGY: 0 6.1452 8.7761 12.0857 0.0000 -10741.0319 1472.7605 0.0000 0.0000 1788.4090 -7452.8554 301.4464 -9241.2644 -7452.8554 301.4464 -48.4879 31.6405 30880.1074 -48.4879 31.6405
ENERGY: 300000 2.0967 12.7792 14.5770 0.0000 -10602.4155 1357.4205 0.0000 0.0000 1800.5706 -7414.9714 303.4964 -9215.5421 -7474.6044 300.0503 -528.8741 -459.3648 30704.3424 -236.0519 -173.9897
ENERGY: 600000 5.1129 9.7861 13.8329 0.0000 -10837.8347 1541.2747 0.0000 0.0000 1784.6621 -7483.1659 300.8149 -9267.8280 -7494.7683 299.2646 881.2124 880.3075 30517.3498 -53.8306 -6.6082
ENERGY: 900000 1.6162 9.0307 14.4083 0.0000 -10854.7068 1468.1914 0.0000 0.0000 1815.9112 -7545.5490 306.0821 -9361.4602 -7496.8190 300.8768 45.7282 73.5987 30544.8063 -96.4541 -46.0708
ENERGY: 1200000 0.7811 8.9621 13.3394 0.0000 -10824.7512 1462.8879 0.0000 0.0000 1839.1915 -7499.5893 310.0061 -9338.7808 -7495.1166 301.0316 35.0627 80.5049 30352.5633 -117.1853 -61.3383
ENERGY: 1500000 2.8936 6.0167 13.9155 0.0000 -10742.5842 1382.6187 0.0000 0.0000 1747.8038 -7589.3358 294.6022 -9337.1396 -7512.1331 300.1662 -758.8376 -700.6180 30753.6325 -198.4508 -134.4751
TCL: Running FEP window   8: Lambda1 0.6499999999999997 Lambda2 0.5999999999999996 [dLambda -0.050000000000000044]
TCL: Setting parameter firsttimestep to 0
TCL: Setting parameter alchLambda to 0.6499999999999997
Info: NONBONDED TABLE R-SQUARED SPACING: 0.0625
Info: NONBONDED TABLE SIZE: 705 POINTS
TCL: Setting parameter alchLambda2 to 0.5999999999999996
Info: NONBONDED TABLE R-SQUARED SPACING: 0.0625
Info: NONBONDED TABLE SIZE: 705 POINTS
TCL: Running for 1500000 steps
ETITLE: TS BOND ANGLE DIHED IMPRP ELECT VDW BOUNDARY MISC KINETIC TOTAL TEMP POTENTIAL TOTALAVG TEMPAVG PRESSURE GPRESSURE VOLUME PRESSAVG GPRESSAVG
ENERGY: 0 2.8936 6.0167 13.9155 0.0000 -10741.4217 1382.3634 0.0000 0.0000 1746.9015 -7589.3309 294.4501 -9336.2324 -7589.3309 294.4501 -795.3846 -711.9375 30753.6325 -795.3846 -711.9375
ENERGY: 300000 1.6622 12.8750 14.3135 0.0000 -10853.3448 1461.1796 0.0000 0.0000 1740.5179 -7622.7967 293.3741 -9363.3146 -7589.4245 294.8404 241.4285 313.4329 30245.6844 -156.2099 -71.3865
ENERGY: 600000 1.7127 12.1780 15.8799 0.0000 -10790.1232 1438.4606 0.0000 0.0000 1783.9152 -7537.9768 300.6890 -9321.8920 -7546.2704 297.2585 -339.9466 -294.0030 30814.6078 -133.5313 -65.4779
ENERGY: 900000 6.0389 10.3272 14.6081 0.0000 -10686.6347 1447.3112 0.0000 0.0000 1683.3644 -7524.9849 283.7406 -9208.3493 -7549.1657 296.0071 -213.3681 -193.2881 31005.5815 -114.0684 -43.7087
ENERGY: 1200000 1.6137 15.2569 13.2633 0.0000 -10666.9813 1367.4686 0.0000 0.0000 1775.5985 -7493.7802 299.2872 -9269.3787 -7530.3723 296.1324 -572.5965 -449.7682 30772.7823 -109.1272 -37.0674
ENERGY: 1500000 4.0057 4.8532 17.2424 0.0000 -10866.6940 1484.4337 0.0000 0.0000 1800.6843 -7555.4746 303.5155 -9356.1589 -7529.1178 296.2482 213.6012 264.6661 30357.6398 -49.6151 25.1404
TCL: Running FEP window   9: Lambda1 0.5999999999999996 Lambda2 0.5499999999999996 [dLambda -0.050000000000000044]
TCL: Setting parameter firsttimestep to 0
TCL: Setting parameter alchLambda to 0.5999999999999996
Info: NONBONDED TABLE R-SQUARED SPACING: 0.0625
Info: NONBONDED TABLE SIZE: 705 POINTS
TCL: Setting parameter alchLambda2 to 0.5499999999999996
Info: NONBONDED TABLE R-SQUARED SPACING: 0.0625
Info: NONBONDED TABLE SIZE: 705 POINTS
TCL: Running for 1500000 steps
ETITLE: TS BOND ANGLE DIHED IMPRP ELECT VDW BOUNDARY MISC KINETIC TOTAL TEMP POTENTIAL TOTALAVG TEMPAVG PRESSURE GPRESSURE VOLUME PRESSAVG GPRESSAVG
ENERGY: 0 4.0057 4.8532 17.2424 0.0000 -10865.9316 1485.2455 0.0000 0.0000 1799.7684 -7554.8163 303.3611 -9354.5847 -7554.8163 303.3611 185.1409 268.4449 30357.6398 185.1409 268.4449
ENERGY: 300000 2.1525 9.8114 13.9094 0.0000 -10644.8413 1393.6455 0.0000 0.0000 1818.0583 -7407.2641 306.4440 -9225.3224 -7492.1931 301.4435 -383.4550 -336.2152 31110.9588 138.4557 184.3043
ENERGY: 600000 3.4826 11.0761 14.5755 0.0000 -10808.7868 1487.2487 0.0000 0.0000 1777.5389 -7514.8650 299.6142 -9292.4039 -7503.9436 301.8631 397.6604 442.3201 30463.6012 201.0843 253.6485
ENERGY: 900000 3.9196 10.1999 15.1109 0.0000 -10806.3562 1496.2240 0.0000 0.0000 1751.1698 -7529.7319 295.1696 -9280.9017 -7498.5113 301.5461 169.8902 262.5237 30753.4986 190.3466 241.8792
ENERGY: 1200000 3.9752 12.2960 14.0488 0.0000 -10783.5123 1454.7340 0.0000 0.0000 1777.4935 -7520.9647 299.6066 -9298.4583 -7498.3939 300.7304 182.8748 251.1002 30452.1931 135.3100 184.9858
ENERGY: 1500000 4.5300 18.6343 17.0301 0.0000 -10809.3543 1512.6370 0.0000 0.0000 1777.8640 -7478.6590 299.6690 -9256.5230 -7495.0611 301.1053 418.7309 554.5402 30453.3566 202.5364 251.4910
TCL: Running FEP window  10: Lambda1 0.5499999999999996 Lambda2 0.4999999999999996 [dLambda -0.04999999999999999]
TCL: Setting parameter firsttimestep to 0
TCL: Setting parameter alchLambda to 0.5499999999999996
Info: NONBONDED TABLE R-SQUARED SPACING: 0.0625
Info: NONBONDED TABLE SIZE: 705 POINTS
TCL: Setting parameter alchLambda2 to 0.4999999999999996
Info: NONBONDED TABLE R-SQUARED SPACING: 0.0625
Info: NONBONDED TABLE SIZE: 705 POINTS
TCL: Running for 1500000 steps
ETITLE: TS BOND ANGLE DIHED IMPRP ELECT VDW BOUNDARY MISC KINETIC TOTAL TEMP POTENTIAL TOTALAVG TEMPAVG PRESSURE GPRESSURE VOLUME PRESSAVG GPRESSAVG
ENERGY: 0 4.5300 18.6343 17.0301 0.0000 -10809.0574 1513.0907 0.0000 0.0000 1776.9647 -7478.8077 299.5174 -9255.7724 -7478.8077 299.5174 446.0215 548.6796 30453.3566 446.0215 548.6796
ENERGY: 300000 2.7272 10.4037 13.1228 0.0000 -10835.6886 1466.1222 0.0000 0.0000 1795.4215 -7547.8912 302.6284 -9343.3127 -7474.4676 304.4739 -5.9267 70.1382 30452.0095 -24.6197 48.6802
ENERGY: 600000 3.5890 15.3399 13.6788 0.0000 -10787.8944 1445.1511 0.0000 0.0000 1798.9079 -7511.2277 303.2161 -9310.1356 -7472.8243 303.7074 -453.1018 -402.9453 30927.9611 -254.0019 -184.0740
ENERGY: 900000 1.5042 8.0821 14.3255 0.0000 -10718.6086 1486.3465 0.0000 0.0000 1828.2476 -7380.1026 308.1615 -9208.3502 -7464.4231 304.8153 432.3858 488.4475 30865.6942 -113.1476 -41.8196
ENERGY: 1200000 3.5683 9.0572 15.5960 0.0000 -10635.0695 1365.3222 0.0000 0.0000 1815.0666 -7426.4593 305.9397 -9241.5259 -7468.5129 304.3382 -716.8261 -598.4415 30662.1591 -180.3673 -108.9093
ENERGY: 1500000 2.7131 17.2186 15.2506 0.0000 -10862.5025 1472.0865 0.0000 0.0000 1733.8422 -7621.3915 292.2489 -9355.2337 -7478.3580 303.3064 -285.4032 -122.9837 30526.7872 -200.6351 -124.3168
TCL: Running FEP window  11: Lambda1 0.4999999999999996 Lambda2 0.4499999999999996 [dLambda -0.04999999999999999]
TCL: Setting parameter firsttimestep to 0
TCL: Setting parameter alchLambda to 0.4999999999999996
Info: NONBONDED TABLE R-SQUARED SPACING: 0.0625
Info: NONBONDED TABLE SIZE: 705 POINTS
TCL: Setting parameter alchLambda2 to 0.4499999999999996
Info: NONBONDED TABLE R-SQUARED SPACING: 0.0625
Info: NONBONDED TABLE SIZE: 705 POINTS
TCL: Running for 1500000 steps
ETITLE: TS BOND ANGLE DIHED IMPRP ELECT VDW BOUNDARY MISC KINETIC TOTAL TEMP POTENTIAL TOTALAVG TEMPAVG PRESSURE GPRESSURE VOLUME PRESSAVG GPRESSAVG
ENERGY: 0 2.7131 17.2186 15.2506 0.0000 -10861.9681 1472.8237 0.0000 0.0000 1732.9217 -7621.0403 292.0937 -9353.9621 -7621.0403 292.0937 -216.5724 -122.9868 30526.7872 -216.5724 -122.9868
ENERGY: 300000 3.1374 9.1569 12.4228 0.0000 -10852.2492 1461.5125 0.0000 0.0000 1784.7738 -7581.2459 300.8337 -9366.0196 -7533.1952 299.7578 -106.7215 -72.4307 30476.1884 -78.4296 -38.9126
ENERGY: 600000 1.8558 7.1391 13.6468 0.0000 -10918.0159 1584.6817 0.0000 0.0000 1798.6526 -7512.0399 303.1731 -9310.6925 -7527.5866 298.9527 860.4753 938.9506 30801.2960 40.0132 83.0799
ENERGY: 900000 4.2983 6.9568 12.3982 0.0000 -10812.8027 1492.0026 0.0000 0.0000 1836.2104 -7460.9364 309.5036 -9297.1468 -7525.9595 299.4787 102.6794 206.5336 30695.0362 104.7395 160.1206
ENERGY: 1200000 3.1166 11.1562 16.3796 0.0000 -10644.1120 1398.0003 0.0000 0.0000 1730.3915 -7485.0677 291.6673 -9215.4593 -7521.1493 298.6598 -351.1034 -309.8083 30917.3327 -4.4525 52.3156
ENERGY: 1500000 4.2936 10.7333 16.7852 0.0000 -10797.7363 1506.1111 0.0000 0.0000 1756.5774 -7503.2357 296.0811 -9259.8131 -7522.2355 298.1999 329.5721 393.4131 30626.8821 16.4495 70.9275
TCL: Running FEP window  12: Lambda1 0.4499999999999996 Lambda2 0.39999999999999963 [dLambda -0.04999999999999999]
TCL: Setting parameter firsttimestep to 0
TCL: Setting parameter alchLambda to 0.4499999999999996
Info: NONBONDED TABLE R-SQUARED SPACING: 0.0625
Info: NONBONDED TABLE SIZE: 705 POINTS
TCL: Setting parameter alchLambda2 to 0.39999999999999963
Info: NONBONDED TABLE R-SQUARED SPACING: 0.0625
Info: NONBONDED TABLE SIZE: 705 POINTS
TCL: Running for 1500000 steps
ETITLE: TS BOND ANGLE DIHED IMPRP ELECT VDW BOUNDARY MISC KINETIC TOTAL TEMP POTENTIAL TOTALAVG TEMPAVG PRESSURE GPRESSURE VOLUME PRESSAVG GPRESSAVG
ENERGY: 0 4.2936 10.7333 16.7852 0.0000 -10797.7371 1506.5653 0.0000 0.0000 1755.6624 -7503.6974 295.9268 -9259.3598 -7503.6974 295.9268 307.3489 394.1476 30626.8821 307.3489 394.1476
ENERGY: 300000 2.3733 9.5688 14.2879 0.0000 -10647.7742 1362.0708 0.0000 0.0000 1747.5578 -7511.9157 294.5607 -9259.4735 -7490.4959 297.4975 -735.5882 -664.0256 30789.3114 -218.0272 -130.8776
ENERGY: 600000 3.6954 9.5819 13.0661 0.0000 -10647.5805 1453.0736 0.0000 0.0000 1747.7289 -7420.4347 294.5896 -9168.1635 -7493.3329 296.6293 43.4471 140.0558 31212.0670 -82.2973 -3.8762
ENERGY: 900000 2.1710 11.2084 17.3466 0.0000 -10679.1919 1381.6857 0.0000 0.0000 1774.8550 -7491.9252 299.1618 -9266.7803 -7488.0454 298.2494 -644.3798 -513.1527 30900.1778 -120.1185 -35.9978
ENERGY: 1200000 3.5782 13.4340 14.1160 0.0000 -10803.3270 1430.0296 0.0000 0.0000 1764.1163 -7578.0529 297.3518 -9342.1693 -7508.0839 298.3678 -413.8501 -245.9108 30387.0699 -118.4161 -35.4260
ENERGY: 1500000 4.9880 9.5909 15.5927 0.0000 -10811.0938 1527.8011 0.0000 0.0000 1796.8863 -7456.2348 302.8753 -9253.1211 -7494.7506 299.4319 609.0660 615.5478 30530.6876 -16.7386 60.1823
TCL: Running FEP window  13: Lambda1 0.39999999999999963 Lambda2 0.34999999999999964 [dLambda -0.04999999999999999]
TCL: Setting parameter firsttimestep to 0
TCL: Setting parameter alchLambda to 0.39999999999999963
Info: NONBONDED TABLE R-SQUARED SPACING: 0.0625
Info: NONBONDED TABLE SIZE: 705 POINTS
TCL: Setting parameter alchLambda2 to 0.34999999999999964
Info: NONBONDED TABLE R-SQUARED SPACING: 0.0625
Info: NONBONDED TABLE SIZE: 705 POINTS
TCL: Running for 1500000 steps
ETITLE: TS BOND ANGLE DIHED IMPRP ELECT VDW BOUNDARY MISC KINETIC TOTAL TEMP POTENTIAL TOTALAVG TEMPAVG PRESSURE GPRESSURE VOLUME PRESSAVG GPRESSAVG
ENERGY: 0 4.9880 9.5909 15.5927 0.0000 -10811.0931 1528.4592 0.0000 0.0000 1795.9900 -7456.4724 302.7243 -9252.4624 -7456.4724 302.7243 519.6343 611.8863 30530.6876 519.6343 611.8863
ENERGY: 300000 3.4093 9.9434 15.4431 0.0000 -10857.2925 1526.2026 0.0000 0.0000 1777.5776 -7524.7165 299.6207 -9302.2941 -7449.3232 301.8308 609.5226 637.3637 30227.9414 287.3449 350.1207
ENERGY: 600000 2.3556 9.4744 14.2796 0.0000 -10675.7477 1391.9432 0.0000 0.0000 1758.9288 -7498.7660 296.4774 -9257.6948 -7486.6055 298.0680 -268.7431 -200.4908 30132.2560 136.7638 181.9340
ENERGY: 900000 4.0137 8.8340 15.1458 0.0000 -10934.7882 1592.9544 0.0000 0.0000 1776.0155 -7537.8247 299.3574 -9313.8402 -7506.2483 297.7125 1269.7486 1332.0558 30104.0866 212.1504 253.3903
ENERGY: 1200000 3.4018 9.8967 12.5667 0.0000 -10707.8804 1471.0283 0.0000 0.0000 1809.8286 -7401.1583 305.0568 -9210.9869 -7503.9549 298.2827 57.7305 102.1921 30973.9649 78.0478 134.6531
ENERGY: 1500000 5.0399 7.8160 12.6807 0.0000 -10778.8876 1465.6550 0.0000 0.0000 1740.3131 -7547.3829 293.3396 -9287.6960 -7499.6514 298.7601 381.2275 460.0594 30205.9374 190.9442 247.3027
TCL: Running FEP window  14: Lambda1 0.34999999999999964 Lambda2 0.29999999999999966 [dLambda -0.04999999999999999]
TCL: Setting parameter firsttimestep to 0
TCL: Setting parameter alchLambda to 0.34999999999999964
Info: NONBONDED TABLE R-SQUARED SPACING: 0.0625
Info: NONBONDED TABLE SIZE: 705 POINTS
TCL: Setting parameter alchLambda2 to 0.29999999999999966
Info: NONBONDED TABLE R-SQUARED SPACING: 0.0625
Info: NONBONDED TABLE SIZE: 705 POINTS
TCL: Running for 1500000 steps
ETITLE: TS BOND ANGLE DIHED IMPRP ELECT VDW BOUNDARY MISC KINETIC TOTAL TEMP POTENTIAL TOTALAVG TEMPAVG PRESSURE GPRESSURE VOLUME PRESSAVG GPRESSAVG
ENERGY: 0 5.0399 7.8160 12.6807 0.0000 -10778.8882 1465.6295 0.0000 0.0000 1739.4032 -7548.3189 293.1862 -9287.7221 -7548.3189 293.1862 377.5486 453.3586 30205.9374 377.5486 453.3586
ENERGY: 300000 1.8931 10.5533 15.8814 0.0000 -10607.4438 1358.7856 0.0000 0.0000 1851.6359 -7368.6945 312.1037 -9220.3305 -7519.5228 298.0555 -814.9584 -704.5011 31023.3660 -474.6069 -392.3068
ENERGY: 600000 2.6776 9.6691 13.0840 0.0000 -10712.4331 1434.9125 0.0000 0.0000 1817.3910 -7434.6990 306.3315 -9252.0899 -7509.2365 300.6483 -71.8093 -45.7651 30533.1374 -376.1049 -319.6787
ENERGY: 900000 4.1793 17.3593 15.9233 0.0000 -10740.9034 1456.5792 0.0000 0.0000 1805.5355 -7441.3268 304.3332 -9246.8623 -7496.5249 301.0013 106.7777 182.0323 30427.0064 -330.3917 -269.0827
ENERGY: 1200000 4.6674 7.8753 15.1474 0.0000 -10664.3316 1379.0487 0.0000 0.0000 1788.5355 -7469.0572 301.4678 -9257.5927 -7497.3242 300.2399 -648.0584 -653.0342 30607.6540 -341.6463 -285.0107
ENERGY: 1500000 6.1689 13.6510 14.7871 0.0000 -10823.9655 1441.7746 0.0000 0.0000 1760.3192 -7587.2648 296.7118 -9347.5840 -7502.1402 300.5657 -388.0664 -371.2615 30662.8947 -293.1605 -239.7335
TCL: Running FEP window  15: Lambda1 0.29999999999999966 Lambda2 0.24999999999999967 [dLambda -0.04999999999999999]
TCL: Setting parameter firsttimestep to 0
TCL: Setting parameter alchLambda to 0.29999999999999966
Info: NONBONDED TABLE R-SQUARED SPACING: 0.0625
Info: NONBONDED TABLE SIZE: 705 POINTS
TCL: Setting parameter alchLambda2 to 0.24999999999999967
Info: NONBONDED TABLE R-SQUARED SPACING: 0.0625
Info: NONBONDED TABLE SIZE: 705 POINTS
TCL: Running for 1500000 steps
ETITLE: TS BOND ANGLE DIHED IMPRP ELECT VDW BOUNDARY MISC KINETIC TOTAL TEMP POTENTIAL TOTALAVG TEMPAVG PRESSURE GPRESSURE VOLUME PRESSAVG GPRESSAVG
ENERGY: 0 6.1689 13.6510 14.7871 0.0000 -10823.9658 1442.3112 0.0000 0.0000 1759.4424 -7587.6053 296.5639 -9347.0476 -7587.6053 296.5639 -452.4350 -375.5363 30662.8947 -452.4350 -375.5363
ENERGY: 300000 6.5138 9.8615 16.3425 0.0000 -10655.9789 1411.5187 0.0000 0.0000 1761.2939 -7450.4485 296.8760 -9211.7424 -7523.8209 296.8431 -161.2603 -133.1688 30294.5665 -207.7968 -171.5950
ENERGY: 600000 3.7476 13.5551 13.0934 0.0000 -10793.3119 1459.4155 0.0000 0.0000 1763.7422 -7539.7581 297.2887 -9303.5002 -7513.1731 297.4660 -125.4415 -23.7684 30636.9841 -146.1021 -95.6358
ENERGY: 900000 6.0275 9.2182 12.4112 0.0000 -10662.6983 1380.1597 0.0000 0.0000 1764.3617 -7490.5201 297.3931 -9254.8818 -7501.3991 298.4214 -564.6823 -532.9625 30631.1218 -87.2654 -38.7955
ENERGY: 1200000 3.6691 11.2350 16.1486 0.0000 -10681.6515 1404.0561 0.0000 0.0000 1771.1706 -7475.3721 298.5408 -9246.5427 -7493.5909 298.7352 -325.8317 -258.3299 30546.9322 -29.5017 25.3291
ENERGY: 1500000 4.4847 11.3933 14.9604 0.0000 -10693.8290 1426.7055 0.0000 0.0000 1792.0173 -7444.2677 302.0546 -9236.2850 -7489.9601 299.4672 -434.8231 -354.0484 31219.4970 -70.5425 -13.6826
TCL: Running FEP window  16: Lambda1 0.24999999999999967 Lambda2 0.19999999999999968 [dLambda -0.04999999999999999]
TCL: Setting parameter firsttimestep to 0
TCL: Setting parameter alchLambda to 0.24999999999999967
Info: NONBONDED TABLE R-SQUARED SPACING: 0.0625
Info: NONBONDED TABLE SIZE: 705 POINTS
TCL: Setting parameter alchLambda2 to 0.19999999999999968
Info: NONBONDED TABLE R-SQUARED SPACING: 0.0625
Info: NONBONDED TABLE SIZE: 705 POINTS
TCL: Running for 1500000 steps
ETITLE: TS BOND ANGLE DIHED IMPRP ELECT VDW BOUNDARY MISC KINETIC TOTAL TEMP POTENTIAL TOTALAVG TEMPAVG PRESSURE GPRESSURE VOLUME PRESSAVG GPRESSAVG
ENERGY: 0 4.4847 11.3933 14.9604 0.0000 -10693.8278 1427.3176 0.0000 0.0000 1791.1259 -7444.5459 301.9044 -9235.6718 -7444.5459 301.9044 -428.8334 -357.6464 31219.4970 -428.8334 -357.6464
ENERGY: 300000 2.8693 8.1047 16.0902 0.0000 -10755.7802 1446.9804 0.0000 0.0000 1769.3206 -7512.4151 298.2290 -9281.7356 -7492.3098 300.2603 -50.9639 35.5747 30302.7735 -366.1607 -293.5844
ENERGY: 600000 4.4192 7.4756 13.9626 0.0000 -10572.9375 1339.9401 0.0000 0.0000 1797.7291 -7409.4109 303.0174 -9207.1400 -7485.5425 300.9867 -1079.0613 -1067.6237 31357.4932 -416.2048 -357.5066
ENERGY: 900000 2.6337 9.7413 13.4008 0.0000 -10831.0418 1526.9156 0.0000 0.0000 1753.1833 -7525.1671 295.5089 -9278.3504 -7499.5570 299.9868 636.0062 707.3625 30505.6917 -208.6301 -140.4494
ENERGY: 1200000 4.1198 9.0478 13.5905 0.0000 -10762.3027 1451.6426 0.0000 0.0000 1785.3253 -7498.5766 300.9267 -9283.9019 -7506.7564 299.3966 125.5907 193.3733 30144.1935 -99.7448 -28.1627
ENERGY: 1500000 5.1709 9.5276 12.9194 0.0000 -10604.1747 1392.2464 0.0000 0.0000 1809.2993 -7375.0111 304.9676 -9184.3103 -7505.4318 299.3268 -386.8452 -323.6880 30799.1868 -174.2368 -110.2052
TCL: Running FEP window  17: Lambda1 0.19999999999999968 Lambda2 0.1499999999999997 [dLambda -0.04999999999999999]
TCL: Setting parameter firsttimestep to 0
TCL: Setting parameter alchLambda to 0.19999999999999968
Info: NONBONDED TABLE R-SQUARED SPACING: 0.0625
Info: NONBONDED TABLE SIZE: 705 POINTS
TCL: Setting parameter alchLambda2 to 0.1499999999999997
Info: NONBONDED TABLE R-SQUARED SPACING: 0.0625
Info: NONBONDED TABLE SIZE: 705 POINTS
TCL: Running for 1500000 steps
ETITLE: TS BOND ANGLE DIHED IMPRP ELECT VDW BOUNDARY MISC KINETIC TOTAL TEMP POTENTIAL TOTALAVG TEMPAVG PRESSURE GPRESSURE VOLUME PRESSAVG GPRESSAVG
ENERGY: 0 5.1709 9.5276 12.9194 0.0000 -10604.1745 1392.2236 0.0000 0.0000 1808.3965 -7375.9365 304.8154 -9184.3329 -7375.9365 304.8154 -416.3449 -327.4914 30799.1868 -416.3449 -327.4914
ENERGY: 300000 2.7537 11.8535 12.2837 0.0000 -10857.8161 1483.8399 0.0000 0.0000 1695.8102 -7651.2751 285.8384 -9347.0853 -7483.6767 297.9901 165.0314 259.4278 30046.6251 -18.8356 53.3712
ENERGY: 600000 4.4122 9.4246 14.1615 0.0000 -10717.9205 1422.0134 0.0000 0.0000 1801.6005 -7466.3083 303.6699 -9267.9088 -7477.0864 299.5272 -66.0055 -23.2129 30732.1004 111.3723 175.7002
ENERGY: 900000 6.1839 13.8164 13.1141 0.0000 -10784.3106 1416.6539 0.0000 0.0000 1867.5228 -7467.0194 314.7815 -9334.5422 -7489.7919 300.6816 -640.1769 -567.5082 30743.7540 -58.9613 7.8908
ENERGY: 1200000 5.2439 9.9800 14.1392 0.0000 -10765.7514 1447.7295 0.0000 0.0000 1761.4249 -7527.2338 296.8981 -9288.6588 -7496.9251 300.0345 -82.9940 -81.3730 30615.0307 -19.4090 39.8759
ENERGY: 1500000 3.8617 8.7432 15.9478 0.0000 -10785.4360 1516.9017 0.0000 0.0000 1761.6556 -7478.3260 296.9370 -9239.9816 -7493.6809 299.5005 673.0421 725.3556 30360.1652 -1.9228 54.5746
TCL: Running FEP window  18: Lambda1 0.1499999999999997 Lambda2 0.09999999999999969 [dLambda -0.05 ]
TCL: Setting parameter firsttimestep to 0
TCL: Setting parameter alchLambda to 0.1499999999999997
Info: NONBONDED TABLE R-SQUARED SPACING: 0.0625
Info: NONBONDED TABLE SIZE: 705 POINTS
TCL: Setting parameter alchLambda2 to 0.09999999999999969
Info: NONBONDED TABLE R-SQUARED SPACING: 0.0625
Info: NONBONDED TABLE SIZE: 705 POINTS
TCL: Running for 1500000 steps
ETITLE: TS BOND ANGLE DIHED IMPRP ELECT VDW BOUNDARY MISC KINETIC TOTAL TEMP POTENTIAL TOTALAVG TEMPAVG PRESSURE GPRESSURE VOLUME PRESSAVG GPRESSAVG
ENERGY: 0 3.8617 8.7432 15.9478 0.0000 -10785.4344 1517.5771 0.0000 0.0000 1760.7672 -7478.5375 296.7873 -9239.3047 -7478.5375 296.7873 633.5218 723.3071 30360.1652 633.5218 723.3071
ENERGY: 300000 2.4381 12.5689 15.9431 0.0000 -10910.0786 1581.6235 0.0000 0.0000 1781.8752 -7515.6298 300.3451 -9297.5050 -7461.3347 302.3430 896.6942 1005.0900 30561.8011 356.3265 473.4086
ENERGY: 600000 3.3198 12.2242 14.4661 0.0000 -10916.5980 1580.3685 0.0000 0.0000 1742.5034 -7563.7161 293.7088 -9306.2195 -7467.6521 301.4796 1008.1218 1057.0539 30160.6066 268.1907 375.2970
ENERGY: 900000 5.1371 6.5298 13.5748 0.0000 -10643.6505 1365.9200 0.0000 0.0000 1751.6750 -7500.8138 295.2547 -9252.4889 -7473.5691 300.0633 -527.4448 -495.2300 30615.0682 45.8160 136.1521
ENERGY: 1200000 4.1770 12.3287 14.5197 0.0000 -10748.6086 1456.8580 0.0000 0.0000 1822.4067 -7438.3186 307.1769 -9260.7252 -7479.4186 299.6670 -37.9572 -6.7717 30812.2522 84.5822 165.3794
ENERGY: 1500000 3.3881 11.9046 19.6283 0.0000 -10768.1550 1438.8071 0.0000 0.0000 1820.3489 -7474.0780 306.8301 -9294.4269 -7479.5055 300.6760 -302.2451 -213.1456 30553.5150 116.1724 198.3208
TCL: Running FEP window  19: Lambda1 0.09999999999999969 Lambda2 0.049999999999999684 [dLambda -0.05 ]
TCL: Setting parameter firsttimestep to 0
TCL: Setting parameter alchLambda to 0.09999999999999969
Info: NONBONDED TABLE R-SQUARED SPACING: 0.0625
Info: NONBONDED TABLE SIZE: 705 POINTS
TCL: Setting parameter alchLambda2 to 0.049999999999999684
Info: NONBONDED TABLE R-SQUARED SPACING: 0.0625
Info: NONBONDED TABLE SIZE: 705 POINTS
TCL: Running for 1500000 steps
ETITLE: TS BOND ANGLE DIHED IMPRP ELECT VDW BOUNDARY MISC KINETIC TOTAL TEMP POTENTIAL TOTALAVG TEMPAVG PRESSURE GPRESSURE VOLUME PRESSAVG GPRESSAVG
ENERGY: 0 3.3881 11.9046 19.6283 0.0000 -10768.1542 1438.8487 0.0000 0.0000 1819.4697 -7474.9149 306.6819 -9294.3845 -7474.9149 306.6819 -292.4357 -218.2059 30553.5150 -292.4357 -218.2059
ENERGY: 300000 5.9479 5.2624 14.4600 0.0000 -10677.0003 1424.9468 0.0000 0.0000 1777.1374 -7449.2459 299.5465 -9226.3833 -7497.2849 299.2851 -412.9006 -361.7418 30971.1013 -102.8015 -43.0037
ENERGY: 600000 2.9730 9.7600 13.5289 0.0000 -10628.3777 1357.0426 0.0000 0.0000 1798.1725 -7446.9007 303.0921 -9245.0732 -7472.7406 300.2814 -596.4997 -544.0169 30483.2647 -71.1181 -0.4825
ENERGY: 900000 9.8643 8.5507 12.3522 0.0000 -10697.1313 1489.2191 0.0000 0.0000 1736.3492 -7440.7957 292.6715 -9177.1449 -7475.3584 299.7507 289.1736 351.5331 30706.0342 135.8656 196.2720
ENERGY: 1200000 5.6028 8.5440 15.5610 0.0000 -10678.7186 1452.2182 0.0000 0.0000 1800.2427 -7396.5499 303.4411 -9196.7926 -7479.0082 298.5076 -141.3382 -71.0700 31201.2069 49.8603 115.2077
ENERGY: 1500000 5.4244 9.4694 13.0019 0.0000 -10768.0923 1411.9259 0.0000 0.0000 1762.3442 -7565.9265 297.0531 -9328.2707 -7495.6465 298.3198 -539.5464 -512.3129 30457.0876 40.7880 101.0004
TCL: Running FEP window  20: Lambda1 0.049999999999999684 Lambda2 0.0    [dLambda -0.049999999999999684]
TCL: Setting parameter firsttimestep to 0
TCL: Setting parameter alchLambda to 0.049999999999999684
Info: NONBONDED TABLE R-SQUARED SPACING: 0.0625
Info: NONBONDED TABLE SIZE: 705 POINTS
TCL: Setting parameter alchLambda2 to 0.0
Info: NONBONDED TABLE R-SQUARED SPACING: 0.0625
Info: NONBONDED TABLE SIZE: 705 POINTS
TCL: Running for 1500000 steps
ETITLE: TS BOND ANGLE DIHED IMPRP ELECT VDW BOUNDARY MISC KINETIC TOTAL TEMP POTENTIAL TOTALAVG TEMPAVG PRESSURE GPRESSURE VOLUME PRESSAVG GPRESSAVG
ENERGY: 0 5.4244 9.4694 13.0019 0.0000 -10768.0912 1411.4352 0.0000 0.0000 1761.4654 -7567.2949 296.9050 -9328.7603 -7567.2949 296.9050 -591.5775 -518.5632 30457.0876 -591.5775 -518.5632
ENERGY: 300000 5.1363 6.7896 13.4038 0.0000 -10692.0512 1430.1639 0.0000 0.0000 1795.1863 -7441.3713 302.5888 -9236.5576 -7503.4400 298.9654 -198.4285 -186.9742 30846.2684 -72.2658 -52.1191
ENERGY: 600000 7.3523 8.7592 15.2594 0.0000 -10811.4579 1437.3332 0.0000 0.0000 1778.8848 -7563.8691 299.8411 -9342.7540 -7507.8431 301.9864 -445.6431 -346.4303 30296.7193 -234.7092 -186.2287
ENERGY: 900000 4.0576 12.7195 13.6882 0.0000 -10777.5361 1523.6789 0.0000 0.0000 1821.6826 -7401.7093 307.0549 -9223.3919 -7488.3835 301.5925 723.3657 784.1202 30366.5359 -92.4943 -41.4191
ENERGY: 1200000 3.9266 8.7984 14.7069 0.0000 -10792.6483 1466.2250 0.0000 0.0000 1825.9536 -7473.0378 307.7748 -9298.9914 -7483.3194 302.3065 -67.5938 27.2971 30493.8162 -88.1835 -36.2115
ENERGY: 1500000 4.7688 9.3328 13.9348 0.0000 -10758.0612 1493.7004 0.0000 0.0000 1772.6366 -7463.6878 298.7879 -9236.3244 -7478.6111 302.7173 383.3389 478.9238 30295.5273 -98.9067 -44.0080
TCL: Exiting due to exit command.
