Info: SIMULATION PARAMETERS:
Info: TIMESTEP               2
Info: NUMBER OF STEPS        0
Info: STEPS PER CYCLE        10
Info: PERIODIC CELL BASIS 1  29.9606 0 0
Info: PERIODIC CELL BASIS 2  0 31.5301 0
Info: PERIODIC CELL BASIS 3  0 0 31.9002
Info: PERIODIC CELL CENTER   0 0 0
Info: WRAPPING WATERS AROUND PERIODIC BOUNDARIES ON OUTPUT.
Info: WRAPPING ALL CLUSTERS AROUND PERIODIC BOUNDARIES ON OUTPUT.
Info: FIRST LDB TIMESTEP     50
Info: LAST LDB TIMESTEP     -1
Info: HOM BACKGROUND SCALING 1
Info: PME BACKGROUND SCALING 1
Info: MIN ATOMS PER PATCH    40
Info: EMPTY PATCH LOAD       40 ATOMS
Info: VELOCITY FILE          mobley_2864987_equil.vel
Info: CENTER OF MASS MOVING INITIALLY? NO
Info: DIELECTRIC             1
Info: EXCLUDE                SCALED ONE-FOUR
Info: 1-4 ELECTROSTATICS SCALED BY 0.833333
Info: MODIFIED 1-4 VDW PARAMETERS WILL BE USED
Info: DCD FILENAME           mobley_2864987_prod.dcd
Info: DCD FREQUENCY          100000
Info: DCD FIRST STEP         100000
Info: DCD FILE WILL CONTAIN UNIT CELL DATA
Info: XST FILENAME           mobley_2864987_prod.xst
Info: XST FREQUENCY          100000
Info: NO VELOCITY DCD OUTPUT
Info: NO FORCE DCD OUTPUT
Info: OUTPUT FILENAME        mobley_2864987_prod
Info: BINARY OUTPUT FILES WILL BE USED
Info: RESTART FILENAME       mobley_2864987_prod.restart
Info: RESTART FREQUENCY      100000
Info: BINARY RESTART FILES WILL BE USED
Info: CUTOFF                 9
Info: PAIRLIST DISTANCE      11
Info: PAIRLIST SHRINK RATE   0.01
Info: PAIRLIST GROW RATE     0.01
Info: PAIRLIST TRIGGER       0.3
Info: PAIRLISTS PER CYCLE    2
Info: PAIRLISTS ENABLED
Info: MARGIN                 2
Info: HYDROGEN GROUP CUTOFF  2.5
Info: PATCH DIMENSION        15.5
Info: ENERGY OUTPUT STEPS    100000
Info: ENERGY EVALUATION STEPS    100000
Info: OUTPUT ENERGY PRECISION 4
Info: CROSSTERM ENERGY INCLUDED IN DIHEDRAL
Info: TIMING OUTPUT STEPS    1000000
Info: PRESSURE OUTPUT STEPS  100000
Info: ALCHEMICAL FEP ON
Info: FEP CURRENT LAMBDA VALUE     0
Info: FEP COMPARISON LAMBDA VALUE  0.05
Info: FEP INTRA-ALCHEMICAL NON-BONDED INTERACTIONS WILL BE RETAINED
Info: FEP INTRA-ALCHEMICAL BONDED INTERACTIONS WILL BE RETAINED
Info: FEP VDW SHIFTING COEFFICIENT 5
Info: FEP ELEC. ACTIVE FOR ANNIHILATED PARTICLES BETWEEN LAMBDA = 0 AND LAMBDA = 0.5
Info: FEP ELEC. ACTIVE FOR EXNIHILATED PARTICLES BETWEEN LAMBDA = 0.5 AND LAMBDA = 1
Info: FEP VDW ACTIVE FOR ANNIHILATED PARTICLES BETWEEN LAMBDA = 0 AND LAMBDA = 1
Info: FEP VDW ACTIVE FOR EXNIHILATED PARTICLES BETWEEN LAMBDA = 0 AND LAMBDA = 1
Info: FEP BOND ACTIVE FOR ANNIHILATED PARTICLES BETWEEN LAMBDA = 1 AND LAMBDA = 1
Info: FEP BOND ACTIVE FOR EXNIHILATED PARTICLES BETWEEN LAMBDA = 0 AND LAMBDA = 0
Info: LANGEVIN DYNAMICS ACTIVE
Info: LANGEVIN TEMPERATURE   300
Info: LANGEVIN USING BBK INTEGRATOR
Info: LANGEVIN DAMPING COEFFICIENT IS 1 INVERSE PS
Info: LANGEVIN DYNAMICS APPLIED TO HYDROGENS
Info: LANGEVIN PISTON PRESSURE CONTROL ACTIVE
Info:        TARGET PRESSURE IS 1.01325 BAR
Info:     OSCILLATION PERIOD IS 50 FS
Info:             DECAY TIME IS 25 FS
Info:     PISTON TEMPERATURE IS 300 K
Info:       PRESSURE CONTROL IS GROUP-BASED
Info:    INITIAL STRAIN RATE IS 0.000234385 0.000234385 0.000234385
Info:       CELL FLUCTUATION IS ISOTROPIC
Info: PARTICLE MESH EWALD (PME) ACTIVE
Info: PME TOLERANCE               1e-06
Info: PME EWALD COEFFICIENT       0.348832
Info: PME INTERPOLATION ORDER     4
Info: PME GRID DIMENSIONS         32 32 32
Info: PME MAXIMUM GRID SPACING    1
Info: PME CALCULATION WILL BE PERFORMED ON GPU
Info: FULL ELECTROSTATIC EVALUATION FREQUENCY      2
Info: USING VERLET I (r-RESPA) MTS SCHEME.
Info: C1 SPLITTING OF LONG RANGE ELECTROSTATICS
Info: PLACING ATOMS IN PATCHES BY HYDROGEN GROUPS
Info: RIGID BONDS TO HYDROGEN : ALL
Info:         ERROR TOLERANCE : 1e-08
Info:          MAX ITERATIONS : 100
Info: RIGID WATER USING SETTLE ALGORITHM
Info: RANDOM NUMBER SEED     1743850217
Info: USE HYDROGEN BONDS?    NO
Info: Using AMBER format force field!
Info: AMBER PARM FILE        mobley_2864987.prmtop
Info: COORDINATE PDB         mobley_2864987.pdb
Info: Exclusions will be read from PARM file!
Info: SCNB (VDW SCALING)     2
Info: USING ARITHMETIC MEAN TO COMBINE L-J SIGMA PARAMETERS
Info: BINARY COORDINATES     mobley_2864987_equil.coor
Info: SUMMARY OF PARAMETERS:
Info: 7 BONDS
Info: 7 ANGLES
Info:   7 HARMONIC
Info:   0 COSINE-BASED
Info: 9 DIHEDRAL
Info: 0 IMPROPER
Info: 0 CROSSTERM
Info: 0 VDW
Info: 21 VDW_PAIRS
Info: 0 NBTHOLE_PAIRS
Info: To read alchdata from file: mobley_2864987.pdb
Info: To read alchflag data from column: 5
Info: STRUCTURE SUMMARY:
Info: 2964 ATOMS
Info: 2963 BONDS
Info: 31 ANGLES
Info: 50 DIHEDRALS
Info: 0 IMPROPERS
Info: 0 CROSSTERMS
Info: 3033 EXCLUSIONS
Info: 2958 RIGID BONDS
Info: ALCH: 0 ATOMS TO DISAPPEAR IN FINAL STATE
Info: ALCH: 18 ATOMS TO APPEAR IN FINAL STATE
Info: 5934 DEGREES OF FREEDOM
Info: 988 HYDROGEN GROUPS
Info: 4 ATOMS IN LARGEST HYDROGEN GROUP
Info: 988 MIGRATION GROUPS
Info: 4 ATOMS IN LARGEST MIGRATION GROUP
Info: TOTAL MASS = 17779.9 amu
Info: TOTAL CHARGE = -4.47035e-08 e
Info: MASS DENSITY = 0.979759 g/cm^3
Info: ATOM DENSITY = 0.0983581 atoms/A^3
Info: ADDED 0 IMPLICIT EXCLUSIONS
Info: NONBONDED TABLE R-SQUARED SPACING: 0.0625
Info: NONBONDED TABLE SIZE: 705 POINTS
Info: REMOVING COM VELOCITY -0.0456245 -0.100583 0.0297029
Info: Use 3D box decompostion in PME FFT.
Info: Updated CUDA force table with 4096 elements.
Info: Updated CUDA LJ table with 6 x 6 elements.
Info: Found 21 unique exclusion lists needing 52 bytes
TCL: Running for 1500000 steps
ETITLE: TS BOND ANGLE DIHED IMPRP ELECT VDW BOUNDARY MISC KINETIC TOTAL TEMP POTENTIAL TOTALAVG TEMPAVG PRESSURE GPRESSURE VOLUME PRESSAVG GPRESSAVG
ENERGY: 0 0.8388 12.8822 4.5465 0.0000 -10715.2207 1446.4636 0.0000 0.0000 1716.5447 -7533.9448 291.1374 -9250.4895 -7533.9448 291.1374 19.1080 105.8598 30134.7978 19.1080 105.8598
ENERGY: 300000 0.6694 8.4438 4.7581 0.0000 -10753.7353 1428.1629 0.0000 0.0000 1734.4187 -7577.2824 294.1689 -9311.7012 -7529.5935 294.9072 -28.4559 38.7236 30140.4486 -130.7502 -70.7185
ENERGY: 600000 1.4766 6.0239 3.0796 0.0000 -10710.0754 1379.9265 0.0000 0.0000 1772.0211 -7547.5478 300.5465 -9319.5689 -7536.4558 296.9274 -747.5200 -658.0958 30522.0112 -39.1714 22.2844
ENERGY: 900000 1.6870 7.6935 3.3902 0.0000 -10644.7424 1404.6227 0.0000 0.0000 1801.6862 -7425.6628 305.5779 -9227.3490 -7517.7904 297.5393 -295.0561 -225.0067 30725.8185 -141.0714 -68.6392
ENERGY: 1200000 1.4407 8.5118 3.7705 0.0000 -10894.0141 1509.9423 0.0000 0.0000 1751.7827 -7618.5661 297.1140 -9370.3488 -7507.9062 298.6928 340.0348 402.6625 30219.4450 -12.3948 60.8895
ENERGY: 1500000 0.9848 11.5394 3.5764 0.0000 -10759.2921 1381.6368 0.0000 0.0000 1789.0200 -7572.5348 303.4297 -9361.5548 -7513.9313 298.9047 -839.0418 -747.1521 30553.6101 -72.0750 1.1279
TCL: Running FEP window   2: Lambda1 0.05   Lambda2 0.1    [dLambda 0.05  ]
TCL: Setting parameter firsttimestep to 0
TCL: Setting parameter alchLambda to 0.05
Info: NONBONDED TABLE R-SQUARED SPACING: 0.0625
Info: NONBONDED TABLE SIZE: 705 POINTS
TCL: Setting parameter alchLambda2 to 0.1
Info: NONBONDED TABLE R-SQUARED SPACING: 0.0625
Info: NONBONDED TABLE SIZE: 705 POINTS
TCL: Running for 1500000 steps
ETITLE: TS BOND ANGLE DIHED IMPRP ELECT VDW BOUNDARY MISC KINETIC TOTAL TEMP POTENTIAL TOTALAVG TEMPAVG PRESSURE GPRESSURE VOLUME PRESSAVG GPRESSAVG
ENERGY: 0 0.9848 11.5394 3.5764 0.0000 -10759.2921 1383.2228 0.0000 0.0000 1788.1445 -7571.8242 303.2812 -9359.9688 -7571.8242 303.2812 -826.8579 -740.8860 30553.6101 -826.8579 -740.8860
ENERGY: 300000 0.4742 10.6083 3.3568 0.0000 -10812.8373 1461.5315 0.0000 0.0000 1760.5739 -7576.2926 298.6050 -9336.8664 -7533.1778 300.1243 233.0895 349.6987 29514.1362 -246.7633 -140.2170
ENERGY: 600000 1.2279 9.1353 4.7000 0.0000 -10840.9461 1561.6413 0.0000 0.0000 1723.1284 -7541.1134 292.2540 -9264.2417 -7520.5800 298.9616 937.4554 994.9751 30338.6194 -42.6600 50.2675
ENERGY: 900000 1.7672 8.1661 4.0049 0.0000 -10893.5647 1527.1995 0.0000 0.0000 1714.3814 -7638.0456 290.7705 -9352.4269 -7536.5398 298.1917 399.8009 475.2439 30097.4847 68.3601 150.6102
ENERGY: 1200000 1.0205 12.0771 4.9723 0.0000 -10739.0181 1482.9160 0.0000 0.0000 1803.6490 -7434.3830 305.9108 -9238.0321 -7514.8774 299.8603 431.4210 484.1107 30207.6196 130.8506 205.3028
ENERGY: 1500000 0.7807 6.9905 4.1319 0.0000 -10529.5854 1285.2612 0.0000 0.0000 1811.5209 -7420.9002 307.2460 -9232.4211 -7497.7647 301.0048 -1164.4487 -1081.2765 30524.4001 45.5896 123.7755
TCL: Running FEP window   3: Lambda1 0.1    Lambda2 0.15000000000000002 [dLambda 0.05000000000000002]
TCL: Setting parameter firsttimestep to 0
TCL: Setting parameter alchLambda to 0.1
Info: NONBONDED TABLE R-SQUARED SPACING: 0.0625
Info: NONBONDED TABLE SIZE: 705 POINTS
TCL: Setting parameter alchLambda2 to 0.15000000000000002
Info: NONBONDED TABLE R-SQUARED SPACING: 0.0625
Info: NONBONDED TABLE SIZE: 705 POINTS
TCL: Running for 1500000 steps
ETITLE: TS BOND ANGLE DIHED IMPRP ELECT VDW BOUNDARY MISC KINETIC TOTAL TEMP POTENTIAL TOTALAVG TEMPAVG PRESSURE GPRESSURE VOLUME PRESSAVG GPRESSAVG
ENERGY: 0 0.7807 6.9905 4.1319 0.0000 -10529.5850 1285.6148 0.0000 0.0000 1810.6004 -7421.4666 307.0898 -9232.0670 -7421.4666 307.0898 -1147.1657 -1076.3523 30524.4001 -1147.1657 -1076.3523
ENERGY: 300000 1.3305 8.2640 3.6328 0.0000 -10633.6905 1463.5754 0.0000 0.0000 1697.7552 -7459.1326 287.9505 -9156.8877 -7482.9710 299.1614 406.5043 445.9048 30216.5910 -281.4432 -198.0676
ENERGY: 600000 0.4164 2.7304 3.8119 0.0000 -10671.1969 1399.8825 0.0000 0.0000 1745.1567 -7519.1991 295.9902 -9264.3558 -7484.2279 299.9958 -533.1029 -439.8972 30889.4873 -330.2088 -249.1270
ENERGY: 900000 1.1195 11.5304 3.3131 0.0000 -10878.2924 1523.1871 0.0000 0.0000 1778.5745 -7560.5678 301.6580 -9339.1423 -7493.5183 300.3756 429.5859 535.9393 30132.6679 -245.5441 -164.0118
ENERGY: 1200000 0.5309 4.9463 2.7956 0.0000 -10799.9742 1445.9414 0.0000 0.0000 1801.4386 -7544.3214 305.5359 -9345.7600 -7497.6985 300.9956 57.9151 109.4647 30042.4703 -217.1992 -132.9956
ENERGY: 1500000 0.4147 7.0255 3.6049 0.0000 -10758.2161 1438.6729 0.0000 0.0000 1753.0614 -7555.4367 297.3308 -9308.4981 -7498.1451 299.8570 -5.0335 -11.7445 30119.7877 -288.0693 -222.6750
TCL: Running FEP window   4: Lambda1 0.15000000000000002 Lambda2 0.2    [dLambda 0.04999999999999999]
TCL: Setting parameter firsttimestep to 0
TCL: Setting parameter alchLambda to 0.15000000000000002
Info: NONBONDED TABLE R-SQUARED SPACING: 0.0625
Info: NONBONDED TABLE SIZE: 705 POINTS
TCL: Setting parameter alchLambda2 to 0.2
Info: NONBONDED TABLE R-SQUARED SPACING: 0.0625
Info: NONBONDED TABLE SIZE: 705 POINTS
TCL: Running for 1500000 steps
ETITLE: TS BOND ANGLE DIHED IMPRP ELECT VDW BOUNDARY MISC KINETIC TOTAL TEMP POTENTIAL TOTALAVG TEMPAVG PRESSURE GPRESSURE VOLUME PRESSAVG GPRESSAVG
ENERGY: 0 0.4147 7.0255 3.6049 0.0000 -10758.2164 1438.5375 0.0000 0.0000 1752.2047 -7556.4291 297.1855 -9308.6338 -7556.4291 297.1855 -96.6982 -9.9841 30119.7877 -96.6982 -9.9841
ENERGY: 300000 0.4136 6.2270 3.8540 0.0000 -10691.8105 1434.4157 0.0000 0.0000 1735.0380 -7511.8622 294.2740 -9246.9002 -7523.4374 297.1354 -163.8467 -60.1241 30615.3761 -225.9366 -147.6206
ENERGY: 600000 0.2159 9.8434 3.7349 0.0000 -10787.0620 1475.9982 0.0000 0.0000 1755.2472 -7542.0224 297.7016 -9297.2696 -7519.6512 297.9821 49.4257 106.2067 30714.4889 -238.4045 -164.8104
ENERGY: 900000 1.2290 11.5997 3.6656 0.0000 -10683.6636 1361.1771 0.0000 0.0000 1738.4065 -7567.5856 294.8453 -9305.9921 -7505.8723 298.8120 -640.8601 -478.6683 30203.6732 -270.4564 -191.2073
ENERGY: 1200000 0.6928 6.2355 5.0353 0.0000 -10702.7284 1385.5232 0.0000 0.0000 1759.2620 -7545.9796 298.3825 -9305.2416 -7501.4171 299.3531 -514.7186 -503.3685 30456.3974 -193.9857 -123.4384
ENERGY: 1500000 1.9140 7.5179 4.0820 0.0000 -10713.2400 1402.4515 0.0000 0.0000 1756.6891 -7540.5855 297.9461 -9297.2746 -7507.8333 298.9153 -607.9310 -527.4828 30439.2234 -162.7826 -95.7305
TCL: Running FEP window   5: Lambda1 0.2    Lambda2 0.25   [dLambda 0.04999999999999999]
TCL: Setting parameter firsttimestep to 0
TCL: Setting parameter alchLambda to 0.2
Info: NONBONDED TABLE R-SQUARED SPACING: 0.0625
Info: NONBONDED TABLE SIZE: 705 POINTS
TCL: Setting parameter alchLambda2 to 0.25
Info: NONBONDED TABLE R-SQUARED SPACING: 0.0625
Info: NONBONDED TABLE SIZE: 705 POINTS
TCL: Running for 1500000 steps
ETITLE: TS BOND ANGLE DIHED IMPRP ELECT VDW BOUNDARY MISC KINETIC TOTAL TEMP POTENTIAL TOTALAVG TEMPAVG PRESSURE GPRESSURE VOLUME PRESSAVG GPRESSAVG
ENERGY: 0 1.9140 7.5179 4.0820 0.0000 -10713.2405 1403.0598 0.0000 0.0000 1755.8147 -7540.8521 297.7978 -9296.6668 -7540.8521 297.7978 -615.5908 -522.3115 30439.2234 -615.5908 -522.3115
ENERGY: 300000 2.0561 7.4162 3.6534 0.0000 -10826.1967 1447.9348 0.0000 0.0000 1774.3407 -7590.7956 300.9400 -9365.1363 -7537.6609 299.3559 103.8227 136.3583 29959.3773 -352.6025 -294.1903
ENERGY: 600000 1.8621 5.5115 3.7147 0.0000 -10930.1252 1585.4521 0.0000 0.0000 1727.6515 -7605.9334 293.0212 -9333.5848 -7547.1070 300.0184 1251.7048 1315.7933 29692.3637 8.0496 53.2764
ENERGY: 900000 1.7237 9.8818 3.6045 0.0000 -10821.1032 1495.1638 0.0000 0.0000 1781.9208 -7528.8085 302.2256 -9310.7294 -7537.9973 300.8406 376.8900 451.5029 30059.1591 47.9021 95.2073
ENERGY: 1200000 3.9640 8.2283 5.2092 0.0000 -10833.6731 1507.5662 0.0000 0.0000 1735.0447 -7573.6607 294.2751 -9308.7055 -7534.8556 300.9479 372.8477 392.7057 30271.4015 -22.1483 22.6660
ENERGY: 1500000 3.4315 9.7899 4.2577 0.0000 -10749.3528 1423.2737 0.0000 0.0000 1826.4115 -7482.1885 309.7715 -9308.6000 -7526.2369 301.9801 -173.4852 -157.5006 30372.2709 18.9651 58.9353
TCL: Running FEP window   6: Lambda1 0.25   Lambda2 0.3    [dLambda 0.04999999999999999]
TCL: Setting parameter firsttimestep to 0
TCL: Setting parameter alchLambda to 0.25
Info: NONBONDED TABLE R-SQUARED SPACING: 0.0625
Info: NONBONDED TABLE SIZE: 705 POINTS
TCL: Setting parameter alchLambda2 to 0.3
Info: NONBONDED TABLE R-SQUARED SPACING: 0.0625
Info: NONBONDED TABLE SIZE: 705 POINTS
TCL: Running for 1500000 steps
ETITLE: TS BOND ANGLE DIHED IMPRP ELECT VDW BOUNDARY MISC KINETIC TOTAL TEMP POTENTIAL TOTALAVG TEMPAVG PRESSURE GPRESSURE VOLUME PRESSAVG GPRESSAVG
ENERGY: 0 3.4315 9.7899 4.2577 0.0000 -10749.3532 1424.4877 0.0000 0.0000 1825.5582 -7481.8282 309.6268 -9307.3864 -7481.8282 309.6268 -227.5051 -148.4795 30372.2709 -227.5051 -148.4795
ENERGY: 300000 1.5019 14.3879 3.8959 0.0000 -10700.9761 1435.5772 0.0000 0.0000 1761.4127 -7484.2005 298.7473 -9245.6132 -7473.0102 302.0129 12.8841 48.3599 30361.3061 73.0552 129.8676
ENERGY: 600000 0.5855 8.9361 4.3946 0.0000 -10756.8839 1411.0207 0.0000 0.0000 1769.3257 -7562.6212 300.0894 -9331.9469 -7501.8053 301.1631 -189.1360 -154.7103 30198.9059 -48.4788 5.8975
ENERGY: 900000 4.3744 7.7023 4.9181 0.0000 -10930.5085 1555.2216 0.0000 0.0000 1765.1415 -7593.1505 299.3797 -9358.2920 -7532.3048 299.0164 464.6049 554.5793 30698.1606 64.7639 120.1955
ENERGY: 1200000 2.5372 8.5667 3.9302 0.0000 -10646.2972 1391.8227 0.0000 0.0000 1802.6504 -7436.7899 305.7415 -9239.4403 -7516.2911 299.5344 -309.6350 -176.4654 30504.9827 4.9508 68.0849
ENERGY: 1500000 2.9538 8.2684 4.0597 0.0000 -10503.7932 1275.2646 0.0000 0.0000 1730.1039 -7483.1427 293.4371 -9213.2467 -7514.4575 299.3400 -1346.3528 -1259.6597 30501.3169 -141.1723 -78.6399
TCL: Running FEP window   7: Lambda1 0.3    Lambda2 0.35   [dLambda 0.04999999999999999]
TCL: Setting parameter firsttimestep to 0
TCL: Setting parameter alchLambda to 0.3
Info: NONBONDED TABLE R-SQUARED SPACING: 0.0625
Info: NONBONDED TABLE SIZE: 705 POINTS
TCL: Setting parameter alchLambda2 to 0.35
Info: NONBONDED TABLE R-SQUARED SPACING: 0.0625
Info: NONBONDED TABLE SIZE: 705 POINTS
TCL: Running for 1500000 steps
ETITLE: TS BOND ANGLE DIHED IMPRP ELECT VDW BOUNDARY MISC KINETIC TOTAL TEMP POTENTIAL TOTALAVG TEMPAVG PRESSURE GPRESSURE VOLUME PRESSAVG GPRESSAVG
ENERGY: 0 2.9538 8.2684 4.0597 0.0000 -10503.7947 1274.8943 0.0000 0.0000 1729.2255 -7484.3931 293.2881 -9213.6185 -7484.3931 293.2881 -1345.9552 -1257.3149 30501.3169 -1345.9552 -1257.3149
ENERGY: 300000 2.5324 7.8472 3.5509 0.0000 -10764.9575 1523.2880 0.0000 0.0000 1780.2421 -7447.4968 301.9409 -9227.7389 -7501.2117 298.6748 686.9324 776.3292 30375.5514 4.8602 39.1176
ENERGY: 600000 1.2461 8.7770 3.9666 0.0000 -10681.5022 1420.4936 0.0000 0.0000 1760.2045 -7486.8144 298.5424 -9247.0189 -7496.1010 300.2537 -289.0071 -238.7472 30866.3679 15.8593 66.5511
ENERGY: 900000 2.9654 13.4628 3.1314 0.0000 -10811.4032 1449.4376 0.0000 0.0000 1820.7490 -7521.6571 308.8111 -9342.4061 -7487.6025 301.3613 -229.2829 -92.2799 30122.7856 19.7519 85.1358
ENERGY: 1200000 2.6779 7.6440 4.8676 0.0000 -10789.6599 1484.6357 0.0000 0.0000 1761.3475 -7528.4873 298.7362 -9289.8348 -7484.4953 301.2423 151.0000 225.9686 30449.3474 7.6834 71.7818
ENERGY: 1500000 1.3332 7.8680 2.7125 0.0000 -10473.7799 1361.6195 0.0000 0.0000 1734.4931 -7365.7535 294.1815 -9100.2466 -7480.1852 301.3592 -119.5092 -43.8926 30531.7033 21.8480 78.9368
TCL: Running FEP window   8: Lambda1 0.35   Lambda2 0.39999999999999997 [dLambda 0.04999999999999999]
TCL: Setting parameter firsttimestep to 0
TCL: Setting parameter alchLambda to 0.35
Info: NONBONDED TABLE R-SQUARED SPACING: 0.0625
Info: NONBONDED TABLE SIZE: 705 POINTS
TCL: Setting parameter alchLambda2 to 0.39999999999999997
Info: NONBONDED TABLE R-SQUARED SPACING: 0.0625
Info: NONBONDED TABLE SIZE: 705 POINTS
TCL: Running for 1500000 steps
ETITLE: TS BOND ANGLE DIHED IMPRP ELECT VDW BOUNDARY MISC KINETIC TOTAL TEMP POTENTIAL TOTALAVG TEMPAVG PRESSURE GPRESSURE VOLUME PRESSAVG GPRESSAVG
ENERGY: 0 1.3332 7.8680 2.7125 0.0000 -10473.7793 1361.9614 0.0000 0.0000 1733.6037 -7366.3005 294.0307 -9099.9042 -7366.3005 294.0307 -123.1153 -38.8171 30531.7033 -123.1153 -38.8171
ENERGY: 300000 1.0496 6.8242 4.7610 0.0000 -10686.5167 1412.1475 0.0000 0.0000 1785.6210 -7476.1134 302.8532 -9261.7345 -7441.0457 300.6303 -340.7751 -249.2743 30604.1093 -178.2399 -73.1540
ENERGY: 600000 3.7750 7.6016 5.4467 0.0000 -10712.6725 1403.9094 0.0000 0.0000 1834.4763 -7457.4635 311.1394 -9291.9398 -7450.3063 302.5374 -255.5739 -232.3404 30223.3733 -91.1731 -11.0076
ENERGY: 900000 1.9506 8.3620 3.8825 0.0000 -10774.6523 1468.3007 0.0000 0.0000 1677.2612 -7614.8953 284.4746 -9292.1565 -7476.1743 301.2487 -15.0646 32.7197 30443.3329 -75.9954 0.8554
ENERGY: 1200000 1.2931 9.2341 2.9211 0.0000 -10704.0362 1440.2365 0.0000 0.0000 1771.2367 -7479.1147 300.4135 -9250.3514 -7477.8844 300.8972 -112.8884 -78.1355 30758.5503 -114.5199 -43.6447
ENERGY: 1500000 0.6544 7.4921 3.9934 0.0000 -10692.8079 1385.7603 0.0000 0.0000 1774.1122 -7520.7955 300.9012 -9294.9076 -7480.9073 300.6388 -725.2008 -663.0881 30918.7874 -140.4063 -74.3551
TCL: Running FEP window   9: Lambda1 0.39999999999999997 Lambda2 0.44999999999999996 [dLambda 0.04999999999999999]
TCL: Setting parameter firsttimestep to 0
TCL: Setting parameter alchLambda to 0.39999999999999997
Info: NONBONDED TABLE R-SQUARED SPACING: 0.0625
Info: NONBONDED TABLE SIZE: 705 POINTS
TCL: Setting parameter alchLambda2 to 0.44999999999999996
Info: NONBONDED TABLE R-SQUARED SPACING: 0.0625
Info: NONBONDED TABLE SIZE: 705 POINTS
TCL: Running for 1500000 steps
ETITLE: TS BOND ANGLE DIHED IMPRP ELECT VDW BOUNDARY MISC KINETIC TOTAL TEMP POTENTIAL TOTALAVG TEMPAVG PRESSURE GPRESSURE VOLUME PRESSAVG GPRESSAVG
ENERGY: 0 0.6544 7.4921 3.9934 0.0000 -10692.8080 1385.4916 0.0000 0.0000 1773.2318 -7521.9447 300.7519 -9295.1765 -7521.9447 300.7519 -763.8945 -662.1373 30918.7874 -763.8945 -662.1373
ENERGY: 300000 1.6397 10.2628 3.3542 0.0000 -10873.8311 1532.5568 0.0000 0.0000 1805.4803 -7520.5374 306.2214 -9326.0177 -7518.9828 301.5172 502.1119 611.8727 30112.8573 -148.0036 -76.6919
ENERGY: 600000 0.6390 7.2302 5.1451 0.0000 -10638.7647 1400.4760 0.0000 0.0000 1748.7276 -7476.5467 296.5958 -9225.2743 -7498.1818 301.3815 -409.9352 -352.3871 30567.2669 -105.7778 -33.6243
ENERGY: 900000 1.8037 11.9721 6.2099 0.0000 -10870.5724 1525.6304 0.0000 0.0000 1778.3607 -7546.5957 301.6218 -9324.9564 -7507.9847 300.7904 483.6125 557.4681 30251.3426 27.3291 97.5308
ENERGY: 1200000 0.8844 5.5589 5.5122 0.0000 -10714.2132 1474.7302 0.0000 0.0000 1837.8578 -7389.6697 311.7129 -9227.5274 -7501.4028 301.9394 524.2126 631.4297 30177.5049 65.0058 134.3792
ENERGY: 1500000 0.6044 6.8663 3.3260 0.0000 -10636.6038 1422.2101 0.0000 0.0000 1780.6850 -7422.9122 302.0160 -9203.5972 -7493.9863 301.4750 -61.0485 46.1673 30716.7806 18.3496 85.4752
TCL: Running FEP window  10: Lambda1 0.44999999999999996 Lambda2 0.49999999999999994 [dLambda 0.04999999999999999]
TCL: Setting parameter firsttimestep to 0
TCL: Setting parameter alchLambda to 0.44999999999999996
Info: NONBONDED TABLE R-SQUARED SPACING: 0.0625
Info: NONBONDED TABLE SIZE: 705 POINTS
TCL: Setting parameter alchLambda2 to 0.49999999999999994
Info: NONBONDED TABLE R-SQUARED SPACING: 0.0625
Info: NONBONDED TABLE SIZE: 705 POINTS
TCL: Running for 1500000 steps
ETITLE: TS BOND ANGLE DIHED IMPRP ELECT VDW BOUNDARY MISC KINETIC TOTAL TEMP POTENTIAL TOTALAVG TEMPAVG PRESSURE GPRESSURE VOLUME PRESSAVG GPRESSAVG
ENERGY: 0 0.6044 6.8663 3.3260 0.0000 -10636.6029 1422.3164 0.0000 0.0000 1779.7823 -7423.7076 301.8629 -9203.4899 -7423.7076 301.8629 -37.2262 53.9626 30716.7806 -37.2262 53.9626
ENERGY: 300000 0.5219 5.0155 2.8023 0.0000 -10774.0702 1546.5660 0.0000 0.0000 1705.4529 -7513.7115 289.2561 -9219.1645 -7494.2330 296.6000 838.6662 893.7284 30640.5396 184.6149 280.7019
ENERGY: 600000 1.5076 8.6777 3.3735 0.0000 -10691.0855 1411.2061 0.0000 0.0000 1791.6255 -7474.6951 303.8716 -9266.3205 -7490.1082 300.9349 -224.3580 -138.3474 30234.4959 290.0610 367.4950
ENERGY: 900000 1.0310 7.9743 4.2283 0.0000 -10597.2336 1371.4002 0.0000 0.0000 1825.9837 -7386.6161 309.6990 -9212.5998 -7497.5817 301.1736 -432.0141 -348.4575 30690.4494 137.9284 210.8681
ENERGY: 1200000 2.7686 4.9669 2.9401 0.0000 -10776.9161 1434.2934 0.0000 0.0000 1762.5751 -7569.3720 298.9444 -9331.9471 -7502.9218 301.3581 -179.8084 -134.9944 30438.4407 74.3364 142.4378
ENERGY: 1500000 1.1753 7.8770 3.4218 0.0000 -10781.7573 1530.1177 0.0000 0.0000 1765.6306 -7473.5349 299.4627 -9239.1655 -7495.6632 300.9383 613.3462 656.5591 30777.8969 20.9241 86.5505
TCL: Running FEP window  11: Lambda1 0.49999999999999994 Lambda2 0.5499999999999999 [dLambda 0.04999999999999999]
TCL: Setting parameter firsttimestep to 0
TCL: Setting parameter alchLambda to 0.49999999999999994
Info: NONBONDED TABLE R-SQUARED SPACING: 0.0625
Info: NONBONDED TABLE SIZE: 705 POINTS
TCL: Setting parameter alchLambda2 to 0.5499999999999999
Info: NONBONDED TABLE R-SQUARED SPACING: 0.0625
Info: NONBONDED TABLE SIZE: 705 POINTS
TCL: Running for 1500000 steps
ETITLE: TS BOND ANGLE DIHED IMPRP ELECT VDW BOUNDARY MISC KINETIC TOTAL TEMP POTENTIAL TOTALAVG TEMPAVG PRESSURE GPRESSURE VOLUME PRESSAVG GPRESSAVG
ENERGY: 0 1.1753 7.8770 3.4218 0.0000 -10781.7573 1529.7946 0.0000 0.0000 1764.7237 -7474.7649 299.3089 -9239.4886 -7474.7649 299.3089 577.7290 656.4049 30777.8969 577.7290 656.4049
ENERGY: 300000 3.3324 9.1699 3.0850 0.0000 -10733.8602 1409.6910 0.0000 0.0000 1743.2188 -7565.3631 295.6615 -9308.5819 -7486.7868 299.2899 -493.6651 -434.0511 30600.6340 -135.6807 -73.9077
ENERGY: 600000 2.4569 9.4707 2.9460 0.0000 -10721.2440 1398.4087 0.0000 0.0000 1766.1144 -7541.8473 299.5447 -9307.9617 -7492.7941 299.9565 -632.9428 -462.5830 30664.3715 -164.9069 -85.1607
ENERGY: 900000 0.4591 6.7832 5.6705 0.0000 -10794.2191 1454.2261 0.0000 0.0000 1768.1893 -7558.8909 299.8966 -9327.0801 -7503.4619 300.2637 -94.9340 7.6332 30410.8540 -106.4858 -31.0527
ENERGY: 1200000 1.6381 4.6807 3.2108 0.0000 -10640.4071 1368.0257 0.0000 0.0000 1824.2943 -7438.5575 309.4124 -9262.8518 -7488.7661 302.2790 -539.0821 -513.7196 30331.4229 -108.2484 -34.7307
ENERGY: 1500000 0.9851 8.3175 2.9123 0.0000 -10641.0075 1383.4582 0.0000 0.0000 1739.6763 -7505.6580 295.0607 -9245.3344 -7489.8445 301.7280 -469.4364 -472.9814 30735.2931 -199.7329 -130.5673
TCL: Running FEP window  12: Lambda1 0.5499999999999999 Lambda2 0.6    [dLambda 0.050000000000000044]
TCL: Setting parameter firsttimestep to 0
TCL: Setting parameter alchLambda to 0.5499999999999999
Info: NONBONDED TABLE R-SQUARED SPACING: 0.0625
Info: NONBONDED TABLE SIZE: 705 POINTS
TCL: Setting parameter alchLambda2 to 0.6
Info: NONBONDED TABLE R-SQUARED SPACING: 0.0625
Info: NONBONDED TABLE SIZE: 705 POINTS
TCL: Running for 1500000 steps
ETITLE: TS BOND ANGLE DIHED IMPRP ELECT VDW BOUNDARY MISC KINETIC TOTAL TEMP POTENTIAL TOTALAVG TEMPAVG PRESSURE GPRESSURE VOLUME PRESSAVG GPRESSAVG
ENERGY: 0 0.9851 8.3175 2.9123 0.0000 -10640.7597 1383.6012 0.0000 0.0000 1738.7834 -7506.1601 294.9092 -9244.9435 -7506.1601 294.9092 -534.4703 -460.2305 30735.2931 -534.4703 -460.2305
ENERGY: 300000 1.0324 5.3967 3.0042 0.0000 -10607.2451 1398.8120 0.0000 0.0000 1795.1417 -7403.8581 304.4680 -9198.9998 -7495.9982 296.0430 -222.9539 -146.6304 30818.1090 -176.7191 -102.0942
ENERGY: 600000 1.0054 7.4315 3.4312 0.0000 -10816.1967 1524.4284 0.0000 0.0000 1803.6106 -7476.2895 305.9043 -9279.9001 -7465.7360 299.0882 663.1933 719.3966 30396.9037 -165.4246 -97.3475
ENERGY: 900000 0.3732 8.3316 4.5479 0.0000 -10747.4658 1481.5885 0.0000 0.0000 1782.9390 -7469.6855 302.3983 -9252.6245 -7487.3478 297.7147 135.4987 244.5111 30778.5987 -126.2309 -52.1384
ENERGY: 1200000 1.5909 5.9376 4.7534 0.0000 -10759.4375 1443.0845 0.0000 0.0000 1740.7648 -7563.3064 295.2453 -9304.0712 -7503.4667 298.0396 -343.7216 -260.5468 30686.6454 19.6305 97.1111
ENERGY: 1500000 0.9999 9.3153 5.7421 0.0000 -10712.2643 1525.3332 0.0000 0.0000 1754.1536 -7416.7203 297.5161 -9170.8739 -7497.3584 298.7249 394.5491 502.6077 31252.8908 42.6682 119.0004
TCL: Running FEP window  13: Lambda1 0.6    Lambda2 0.65   [dLambda 0.050000000000000044]
TCL: Setting parameter firsttimestep to 0
TCL: Setting parameter alchLambda to 0.6
Info: NONBONDED TABLE R-SQUARED SPACING: 0.0625
Info: NONBONDED TABLE SIZE: 705 POINTS
TCL: Setting parameter alchLambda2 to 0.65
Info: NONBONDED TABLE R-SQUARED SPACING: 0.0625
Info: NONBONDED TABLE SIZE: 705 POINTS
TCL: Running for 1500000 steps
ETITLE: TS BOND ANGLE DIHED IMPRP ELECT VDW BOUNDARY MISC KINETIC TOTAL TEMP POTENTIAL TOTALAVG TEMPAVG PRESSURE GPRESSURE VOLUME PRESSAVG GPRESSAVG
ENERGY: 0 0.9999 9.3153 5.7421 0.0000 -10712.5343 1525.4949 0.0000 0.0000 1753.2367 -7417.7456 297.3606 -9170.9823 -7417.7456 297.3606 440.2675 511.3692 31252.8908 440.2675 511.3692
ENERGY: 300000 1.2405 10.0053 3.7033 0.0000 -10690.8745 1410.1915 0.0000 0.0000 1746.2562 -7519.4776 296.1766 -9265.7339 -7512.6099 297.2897 -447.9485 -353.5171 30661.7680 -35.7435 13.1841
ENERGY: 600000 1.3966 6.2221 3.4048 0.0000 -10648.3233 1346.7427 0.0000 0.0000 1770.6771 -7519.8800 300.3186 -9290.5570 -7513.4177 298.0720 -794.0021 -759.5050 30443.4566 -167.5421 -116.6932
ENERGY: 900000 1.8389 8.4047 4.0016 0.0000 -10676.7421 1438.6212 0.0000 0.0000 1799.7605 -7424.1154 305.2513 -9223.8759 -7493.4977 299.6311 188.9830 223.2770 30332.2921 -56.6462 -13.5614
ENERGY: 1200000 0.9756 6.1801 3.5578 0.0000 -10630.4170 1313.1794 0.0000 0.0000 1695.1001 -7611.4239 287.5002 -9306.5241 -7505.5391 299.6661 -1360.5207 -1274.3146 30840.4035 -163.9009 -113.7885
ENERGY: 1500000 0.9493 10.0595 3.8204 0.0000 -10635.1906 1384.0348 0.0000 0.0000 1792.0948 -7444.2320 303.9512 -9236.3267 -7504.7518 299.2067 -24.7597 16.4798 30051.7615 -206.1994 -147.7758
TCL: Running FEP window  14: Lambda1 0.65   Lambda2 0.7000000000000001 [dLambda 0.050000000000000044]
TCL: Setting parameter firsttimestep to 0
TCL: Setting parameter alchLambda to 0.65
Info: NONBONDED TABLE R-SQUARED SPACING: 0.0625
Info: NONBONDED TABLE SIZE: 705 POINTS
TCL: Setting parameter alchLambda2 to 0.7000000000000001
Info: NONBONDED TABLE R-SQUARED SPACING: 0.0625
Info: NONBONDED TABLE SIZE: 705 POINTS
TCL: Running for 1500000 steps
ETITLE: TS BOND ANGLE DIHED IMPRP ELECT VDW BOUNDARY MISC KINETIC TOTAL TEMP POTENTIAL TOTALAVG TEMPAVG PRESSURE GPRESSURE VOLUME PRESSAVG GPRESSAVG
ENERGY: 0 0.9493 10.0595 3.8204 0.0000 -10635.5933 1383.7044 0.0000 0.0000 1791.1882 -7445.8715 303.7974 -9237.0597 -7445.8715 303.7974 -60.6718 19.4429 30051.7615 -60.6718 19.4429
ENERGY: 300000 3.1372 8.7690 4.8841 0.0000 -10704.5538 1419.7496 0.0000 0.0000 1788.4842 -7479.5297 303.3388 -9268.0139 -7457.0087 304.6905 -383.6975 -260.6159 30655.1678 -443.1078 -357.3141
ENERGY: 600000 0.4584 5.3158 5.8592 0.0000 -10681.7429 1346.3377 0.0000 0.0000 1788.0622 -7535.7096 303.2672 -9323.7717 -7475.1621 303.6153 -634.6457 -595.9238 30277.5717 -550.6144 -476.6945
ENERGY: 900000 0.5187 9.0933 3.2937 0.0000 -10568.1741 1363.3308 0.0000 0.0000 1796.9490 -7394.9887 304.7745 -9191.9377 -7466.2930 303.3856 -244.4500 -123.4795 30310.0648 -213.9841 -140.8746
ENERGY: 1200000 1.1790 10.0760 3.2679 0.0000 -10615.0429 1347.5445 0.0000 0.0000 1791.3782 -7461.5972 303.8296 -9252.9754 -7463.5699 303.1421 -923.1657 -846.9826 30811.4032 -225.9708 -157.4978
ENERGY: 1500000 2.9255 8.4166 4.9935 0.0000 -10792.7061 1519.6826 0.0000 0.0000 1753.6662 -7503.0217 297.4334 -9256.6879 -7476.1792 302.6908 745.1038 841.3694 30038.6550 -91.7096 -24.4432
TCL: Running FEP window  15: Lambda1 0.7000000000000001 Lambda2 0.7500000000000001 [dLambda 0.050000000000000044]
TCL: Setting parameter firsttimestep to 0
TCL: Setting parameter alchLambda to 0.7000000000000001
Info: NONBONDED TABLE R-SQUARED SPACING: 0.0625
Info: NONBONDED TABLE SIZE: 705 POINTS
TCL: Setting parameter alchLambda2 to 0.7500000000000001
Info: NONBONDED TABLE R-SQUARED SPACING: 0.0625
Info: NONBONDED TABLE SIZE: 705 POINTS
TCL: Running for 1500000 steps
ETITLE: TS BOND ANGLE DIHED IMPRP ELECT VDW BOUNDARY MISC KINETIC TOTAL TEMP POTENTIAL TOTALAVG TEMPAVG PRESSURE GPRESSURE VOLUME PRESSAVG GPRESSAVG
ENERGY: 0 2.9255 8.4166 4.9935 0.0000 -10793.5677 1520.2574 0.0000 0.0000 1752.8117 -7504.1630 297.2885 -9256.9747 -7504.1630 297.2885 772.4535 853.4893 30038.6550 772.4535 853.4893
ENERGY: 300000 0.7807 5.6158 3.1956 0.0000 -10699.2696 1396.4858 0.0000 0.0000 1804.5899 -7488.6017 306.0704 -9293.1916 -7472.0230 301.1139 -257.4405 -152.8640 30106.3226 -24.0990 56.7437
ENERGY: 600000 0.1405 11.3116 3.4427 0.0000 -10754.0343 1466.6388 0.0000 0.0000 1759.5486 -7512.9521 298.4311 -9272.5007 -7476.4780 301.5444 262.5116 361.1803 30403.3358 117.3344 202.0551
ENERGY: 900000 1.6481 7.3216 4.0562 0.0000 -10880.4558 1512.6818 0.0000 0.0000 1821.3012 -7533.4469 308.9048 -9354.7481 -7504.6563 301.5130 327.8782 335.6261 30472.1770 34.6742 118.8677
ENERGY: 1200000 1.8898 8.9398 3.9485 0.0000 -10768.5330 1363.3808 0.0000 0.0000 1818.0432 -7572.3308 308.3522 -9390.3740 -7501.6952 303.0165 -979.9126 -869.4082 30565.2681 -21.3533 56.2815
ENERGY: 1500000 1.8726 7.8138 2.9108 0.0000 -10810.2808 1471.2722 0.0000 0.0000 1757.1564 -7569.2550 298.0254 -9326.4114 -7501.1535 302.8982 122.2648 172.2307 30591.3333 71.0212 144.3285
TCL: Running FEP window  16: Lambda1 0.7500000000000001 Lambda2 0.8000000000000002 [dLambda 0.050000000000000044]
TCL: Setting parameter firsttimestep to 0
TCL: Setting parameter alchLambda to 0.7500000000000001
Info: NONBONDED TABLE R-SQUARED SPACING: 0.0625
Info: NONBONDED TABLE SIZE: 705 POINTS
TCL: Setting parameter alchLambda2 to 0.8000000000000002
Info: NONBONDED TABLE R-SQUARED SPACING: 0.0625
Info: NONBONDED TABLE SIZE: 705 POINTS
TCL: Running for 1500000 steps
ETITLE: TS BOND ANGLE DIHED IMPRP ELECT VDW BOUNDARY MISC KINETIC TOTAL TEMP POTENTIAL TOTALAVG TEMPAVG PRESSURE GPRESSURE VOLUME PRESSAVG GPRESSAVG
ENERGY: 0 1.8726 7.8138 2.9108 0.0000 -10811.0260 1471.6339 0.0000 0.0000 1756.2792 -7570.5157 297.8766 -9326.7949 -7570.5157 297.8766 96.8465 183.6421 30591.3333 96.8465 183.6421
ENERGY: 300000 4.9930 4.3025 4.5853 0.0000 -10684.9809 1410.2117 0.0000 0.0000 1730.1461 -7530.7423 293.4443 -9260.8884 -7533.3435 299.8440 -152.4809 -123.2681 30212.2337 -233.8183 -185.0701
ENERGY: 600000 0.5714 7.8595 3.6604 0.0000 -10749.0466 1428.8520 0.0000 0.0000 1857.1120 -7450.9913 314.9785 -9308.1032 -7509.3127 303.0807 -215.3722 -211.8494 30829.5281 -143.4518 -92.7052
ENERGY: 900000 0.3989 7.5531 3.2171 0.0000 -10604.6972 1371.2229 0.0000 0.0000 1760.7814 -7461.5239 298.6402 -9222.3052 -7505.0892 301.3957 -571.6508 -470.0872 30852.8315 -139.7243 -73.7220
ENERGY: 1200000 0.1511 9.8540 4.8589 0.0000 -10928.1372 1532.9350 0.0000 0.0000 1747.1060 -7633.2323 296.3208 -9380.3383 -7522.3455 300.6882 334.0456 403.8167 30315.6764 -115.0599 -48.4956
ENERGY: 1500000 0.7347 5.4690 3.3698 0.0000 -10808.3104 1514.1108 0.0000 0.0000 1776.8027 -7507.8236 301.3575 -9284.6262 -7526.2362 300.7240 479.3106 579.3559 30611.9708 -75.1096 1.0722
TCL: Running FEP window  17: Lambda1 0.8000000000000002 Lambda2 0.8500000000000002 [dLambda 0.050000000000000044]
TCL: Setting parameter firsttimestep to 0
TCL: Setting parameter alchLambda to 0.8000000000000002
Info: NONBONDED TABLE R-SQUARED SPACING: 0.0625
Info: NONBONDED TABLE SIZE: 705 POINTS
TCL: Setting parameter alchLambda2 to 0.8500000000000002
Info: NONBONDED TABLE R-SQUARED SPACING: 0.0625
Info: NONBONDED TABLE SIZE: 705 POINTS
TCL: Running for 1500000 steps
ETITLE: TS BOND ANGLE DIHED IMPRP ELECT VDW BOUNDARY MISC KINETIC TOTAL TEMP POTENTIAL TOTALAVG TEMPAVG PRESSURE GPRESSURE VOLUME PRESSAVG GPRESSAVG
ENERGY: 0 0.7347 5.4690 3.3698 0.0000 -10809.5031 1515.2787 0.0000 0.0000 1775.9928 -7508.6582 301.2202 -9284.6510 -7508.6582 301.2202 508.8046 595.0876 30611.9708 508.8046 595.0876
ENERGY: 300000 1.5410 7.4527 4.2155 0.0000 -10680.8075 1398.1719 0.0000 0.0000 1777.7245 -7491.7018 301.5139 -9269.4263 -7462.5644 306.2545 -212.9043 -153.9289 30332.5424 249.8154 318.0279
ENERGY: 600000 0.3356 9.6221 4.0514 0.0000 -10809.3833 1485.3886 0.0000 0.0000 1771.4009 -7538.5846 300.4414 -9309.9855 -7469.9495 303.7243 269.3429 313.5867 30362.9582 85.5653 156.8774
ENERGY: 900000 0.8636 5.2195 3.8394 0.0000 -10523.9369 1313.2902 0.0000 0.0000 1715.5072 -7485.2170 290.9614 -9200.7242 -7479.2044 302.2901 -856.8249 -842.2209 30827.0120 -112.3800 -47.2352
ENERGY: 1200000 0.7243 7.5324 4.5011 0.0000 -10661.0372 1373.9737 0.0000 0.0000 1806.4708 -7467.8349 306.3894 -9274.3058 -7482.1851 301.9980 -616.6201 -502.3149 30660.0215 -147.9483 -76.1815
ENERGY: 1500000 0.7434 7.5769 3.9753 0.0000 -10927.3096 1557.2344 0.0000 0.0000 1789.6665 -7568.1131 303.5393 -9357.7796 -7498.1336 301.9475 1048.0409 1142.9735 29859.9308 -14.5718 57.7710
TCL: Running FEP window  18: Lambda1 0.8500000000000002 Lambda2 0.9000000000000002 [dLambda 0.050000000000000044]
TCL: Setting parameter firsttimestep to 0
TCL: Setting parameter alchLambda to 0.8500000000000002
Info: NONBONDED TABLE R-SQUARED SPACING: 0.0625
Info: NONBONDED TABLE SIZE: 705 POINTS
TCL: Setting parameter alchLambda2 to 0.9000000000000002
Info: NONBONDED TABLE R-SQUARED SPACING: 0.0625
Info: NONBONDED TABLE SIZE: 705 POINTS
TCL: Running for 1500000 steps
ETITLE: TS BOND ANGLE DIHED IMPRP ELECT VDW BOUNDARY MISC KINETIC TOTAL TEMP POTENTIAL TOTALAVG TEMPAVG PRESSURE GPRESSURE VOLUME PRESSAVG GPRESSAVG
ENERGY: 0 0.7434 7.5769 3.9753 0.0000 -10929.3420 1557.9176 0.0000 0.0000 1788.8013 -7570.3275 303.3926 -9359.1288 -7570.3275 303.3926 1057.7467 1157.3401 29859.9308 1057.7467 1157.3401
ENERGY: 300000 0.2266 12.7510 4.2165 0.0000 -10662.7652 1380.8780 0.0000 0.0000 1722.1814 -7542.5117 292.0934 -9264.6931 -7552.6461 299.4843 -445.9691 -334.6820 30457.9256 -163.9725 -79.5309
ENERGY: 600000 0.4533 7.6969 3.7398 0.0000 -10670.0064 1372.2271 0.0000 0.0000 1868.7507 -7417.1386 316.9525 -9285.8893 -7513.4223 302.7396 -375.1444 -364.2670 30522.9040 -1.5003 73.4106
ENERGY: 900000 0.4836 5.0475 4.2540 0.0000 -10661.0197 1417.0436 0.0000 0.0000 1803.8563 -7430.3347 305.9460 -9234.1910 -7511.9160 302.1412 -75.9190 21.4131 30680.2940 -11.1727 57.2836
ENERGY: 1200000 2.5779 6.7477 4.4315 0.0000 -10728.4532 1482.2809 0.0000 0.0000 1808.6063 -7423.8089 306.7516 -9232.4151 -7504.0649 301.1343 563.0538 626.4660 30665.1861 -23.0480 45.2396
ENERGY: 1500000 2.0402 12.1130 3.2991 0.0000 -10658.9373 1385.5741 0.0000 0.0000 1765.1022 -7490.8087 299.3730 -9255.9108 -7508.8302 300.6047 -345.7744 -349.6314 30259.3860 -2.8370 60.9565
TCL: Running FEP window  19: Lambda1 0.9000000000000002 Lambda2 0.9500000000000003 [dLambda 0.050000000000000044]
TCL: Setting parameter firsttimestep to 0
TCL: Setting parameter alchLambda to 0.9000000000000002
Info: NONBONDED TABLE R-SQUARED SPACING: 0.0625
Info: NONBONDED TABLE SIZE: 705 POINTS
TCL: Setting parameter alchLambda2 to 0.9500000000000003
Info: NONBONDED TABLE R-SQUARED SPACING: 0.0625
Info: NONBONDED TABLE SIZE: 705 POINTS
TCL: Running for 1500000 steps
ETITLE: TS BOND ANGLE DIHED IMPRP ELECT VDW BOUNDARY MISC KINETIC TOTAL TEMP POTENTIAL TOTALAVG TEMPAVG PRESSURE GPRESSURE VOLUME PRESSAVG GPRESSAVG
ENERGY: 0 2.0402 12.1130 3.2991 0.0000 -10660.0586 1386.1068 0.0000 0.0000 1764.2027 -7492.2967 299.2205 -9256.4994 -7492.2967 299.2205 -411.4044 -333.9069 30259.3860 -411.4044 -333.9069
ENERGY: 300000 1.8718 9.7459 4.5338 0.0000 -10741.7509 1499.0755 0.0000 0.0000 1792.5068 -7434.0171 304.0210 -9226.5239 -7511.7973 302.9598 557.2285 530.3064 30838.5669 131.7353 165.9708
ENERGY: 600000 3.4433 10.4331 3.9062 0.0000 -10869.7774 1477.5869 0.0000 0.0000 1759.7078 -7614.7002 298.4581 -9374.4079 -7527.2246 300.5613 11.2830 44.1994 30318.8413 95.9956 121.8762
ENERGY: 900000 3.8424 7.9766 4.5766 0.0000 -10832.7379 1502.7668 0.0000 0.0000 1796.4301 -7517.1453 304.6865 -9313.5754 -7524.2010 299.9586 316.7161 421.8822 30683.9933 156.8647 198.7696
ENERGY: 1200000 2.0243 10.4810 3.5288 0.0000 -10824.4575 1442.6566 0.0000 0.0000 1808.2157 -7557.5510 306.6854 -9365.7667 -7535.5358 301.1804 -146.0920 -61.0297 30526.4849 -2.8000 48.8413
ENERGY: 1500000 2.0882 7.4163 3.8690 0.0000 -10751.6980 1483.4340 0.0000 0.0000 1768.7069 -7486.1836 299.9844 -9254.8905 -7523.7027 300.9014 375.1828 382.4281 30657.9697 26.3457 72.4765
TCL: Running FEP window  20: Lambda1 0.9500000000000003 Lambda2 1.0    [dLambda 0.04999999999999971]
TCL: Setting parameter firsttimestep to 0
TCL: Setting parameter alchLambda to 0.9500000000000003
Info: NONBONDED TABLE R-SQUARED SPACING: 0.0625
Info: NONBONDED TABLE SIZE: 705 POINTS
TCL: Setting parameter alchLambda2 to 1.0
Info: NONBONDED TABLE R-SQUARED SPACING: 0.0625
Info: NONBONDED TABLE SIZE: 705 POINTS
TCL: Running for 1500000 steps
ETITLE: TS BOND ANGLE DIHED IMPRP ELECT VDW BOUNDARY MISC KINETIC TOTAL TEMP POTENTIAL TOTALAVG TEMPAVG PRESSURE GPRESSURE VOLUME PRESSAVG GPRESSAVG
ENERGY: 0 2.0882 7.4163 3.8690 0.0000 -10753.5022 1485.0095 0.0000 0.0000 1767.8427 -7487.2765 299.8379 -9255.1192 -7487.2765 299.8379 342.7039 409.5549 30657.9697 342.7039 409.5549
ENERGY: 300000 0.2067 10.5402 3.0978 0.0000 -10673.6307 1392.3135 0.0000 0.0000 1819.5561 -7447.9165 308.6088 -9267.4726 -7469.0266 302.6827 -404.0558 -264.2258 30430.6405 -229.9744 -151.4638
ENERGY: 600000 0.9441 8.0062 3.5390 0.0000 -10516.7688 1288.9046 0.0000 0.0000 1781.1239 -7434.2510 302.0904 -9215.3749 -7468.7316 301.7158 -1199.8270 -1142.9259 31004.2141 -80.8095 -0.4289
ENERGY: 900000 0.5267 10.4016 3.5037 0.0000 -10868.5710 1466.4501 0.0000 0.0000 1785.6419 -7602.0471 302.8567 -9387.6890 -7499.1451 300.7266 252.3380 337.7010 29881.7231 -74.6126 6.4804
ENERGY: 1200000 2.0891 7.5187 4.8018 0.0000 -10617.1758 1357.7886 0.0000 0.0000 1722.0483 -7522.9294 292.0708 -9244.9777 -7500.6683 300.1179 -719.4247 -662.7889 30705.3348 -87.3854 -15.7206
ENERGY: 1500000 1.1037 8.2190 5.8892 0.0000 -10561.6133 1327.1921 0.0000 0.0000 1698.2272 -7520.9821 288.0306 -9219.2093 -7507.3719 298.9342 -823.2761 -724.3093 30637.2649 -160.0990 -87.3995
TCL: Exiting due to exit command.
