Info: SIMULATION PARAMETERS:
Info: TIMESTEP               2
Info: NUMBER OF STEPS        0
Info: STEPS PER CYCLE        10
Info: PERIODIC CELL BASIS 1  31.6202 0 0
Info: PERIODIC CELL BASIS 2  0 31.5224 0
Info: PERIODIC CELL BASIS 3  0 0 30.7955
Info: PERIODIC CELL CENTER   0 0 0
Info: WRAPPING WATERS AROUND PERIODIC BOUNDARIES ON OUTPUT.
Info: WRAPPING ALL CLUSTERS AROUND PERIODIC BOUNDARIES ON OUTPUT.
Info: FIRST LDB TIMESTEP     50
Info: LAST LDB TIMESTEP     -1
Info: HOM BACKGROUND SCALING 1
Info: PME BACKGROUND SCALING 1
Info: MIN ATOMS PER PATCH    40
Info: EMPTY PATCH LOAD       40 ATOMS
Info: VELOCITY FILE          mobley_9671033_equil.vel
Info: CENTER OF MASS MOVING INITIALLY? NO
Info: DIELECTRIC             1
Info: EXCLUDE                SCALED ONE-FOUR
Info: 1-4 ELECTROSTATICS SCALED BY 0.833333
Info: MODIFIED 1-4 VDW PARAMETERS WILL BE USED
Info: DCD FILENAME           mobley_9671033_prod.dcd
Info: DCD FREQUENCY          100000
Info: DCD FIRST STEP         100000
Info: DCD FILE WILL CONTAIN UNIT CELL DATA
Info: XST FILENAME           mobley_9671033_prod.xst
Info: XST FREQUENCY          100000
Info: NO VELOCITY DCD OUTPUT
Info: NO FORCE DCD OUTPUT
Info: OUTPUT FILENAME        mobley_9671033_prod
Info: BINARY OUTPUT FILES WILL BE USED
Info: RESTART FILENAME       mobley_9671033_prod.restart
Info: RESTART FREQUENCY      100000
Info: BINARY RESTART FILES WILL BE USED
Info: CUTOFF                 9
Info: PAIRLIST DISTANCE      11
Info: PAIRLIST SHRINK RATE   0.01
Info: PAIRLIST GROW RATE     0.01
Info: PAIRLIST TRIGGER       0.3
Info: PAIRLISTS PER CYCLE    2
Info: PAIRLISTS ENABLED
Info: MARGIN                 2
Info: HYDROGEN GROUP CUTOFF  2.5
Info: PATCH DIMENSION        15.5
Info: ENERGY OUTPUT STEPS    100000
Info: ENERGY EVALUATION STEPS    100000
Info: OUTPUT ENERGY PRECISION 4
Info: CROSSTERM ENERGY INCLUDED IN DIHEDRAL
Info: TIMING OUTPUT STEPS    1000000
Info: PRESSURE OUTPUT STEPS  100000
Info: ALCHEMICAL FEP ON
Info: FEP CURRENT LAMBDA VALUE     1
Info: FEP COMPARISON LAMBDA VALUE  0.95
Info: FEP INTRA-ALCHEMICAL NON-BONDED INTERACTIONS WILL BE RETAINED
Info: FEP INTRA-ALCHEMICAL BONDED INTERACTIONS WILL BE RETAINED
Info: FEP VDW SHIFTING COEFFICIENT 5
Info: FEP ELEC. ACTIVE FOR ANNIHILATED PARTICLES BETWEEN LAMBDA = 0 AND LAMBDA = 0.5
Info: FEP ELEC. ACTIVE FOR EXNIHILATED PARTICLES BETWEEN LAMBDA = 0.5 AND LAMBDA = 1
Info: FEP VDW ACTIVE FOR ANNIHILATED PARTICLES BETWEEN LAMBDA = 0 AND LAMBDA = 1
Info: FEP VDW ACTIVE FOR EXNIHILATED PARTICLES BETWEEN LAMBDA = 0 AND LAMBDA = 1
Info: FEP BOND ACTIVE FOR ANNIHILATED PARTICLES BETWEEN LAMBDA = 1 AND LAMBDA = 1
Info: FEP BOND ACTIVE FOR EXNIHILATED PARTICLES BETWEEN LAMBDA = 0 AND LAMBDA = 0
Info: LANGEVIN DYNAMICS ACTIVE
Info: LANGEVIN TEMPERATURE   300
Info: LANGEVIN USING BBK INTEGRATOR
Info: LANGEVIN DAMPING COEFFICIENT IS 1 INVERSE PS
Info: LANGEVIN DYNAMICS APPLIED TO HYDROGENS
Info: LANGEVIN PISTON PRESSURE CONTROL ACTIVE
Info:        TARGET PRESSURE IS 1.01325 BAR
Info:     OSCILLATION PERIOD IS 50 FS
Info:             DECAY TIME IS 25 FS
Info:     PISTON TEMPERATURE IS 300 K
Info:       PRESSURE CONTROL IS GROUP-BASED
Info:    INITIAL STRAIN RATE IS -6.31897e-05 -6.31897e-05 -6.31897e-05
Info:       CELL FLUCTUATION IS ISOTROPIC
Info: PARTICLE MESH EWALD (PME) ACTIVE
Info: PME TOLERANCE               1e-06
Info: PME EWALD COEFFICIENT       0.348832
Info: PME INTERPOLATION ORDER     4
Info: PME GRID DIMENSIONS         32 32 32
Info: PME MAXIMUM GRID SPACING    1
Info: PME CALCULATION WILL BE PERFORMED ON GPU
Info: FULL ELECTROSTATIC EVALUATION FREQUENCY      2
Info: USING VERLET I (r-RESPA) MTS SCHEME.
Info: C1 SPLITTING OF LONG RANGE ELECTROSTATICS
Info: PLACING ATOMS IN PATCHES BY HYDROGEN GROUPS
Info: RIGID BONDS TO HYDROGEN : ALL
Info:         ERROR TOLERANCE : 1e-08
Info:          MAX ITERATIONS : 100
Info: RIGID WATER USING SETTLE ALGORITHM
Info: RANDOM NUMBER SEED     1743830684
Info: USE HYDROGEN BONDS?    NO
Info: Using AMBER format force field!
Info: AMBER PARM FILE        mobley_9671033.prmtop
Info: COORDINATE PDB         mobley_9671033.pdb
Info: Exclusions will be read from PARM file!
Info: SCNB (VDW SCALING)     2
Info: USING ARITHMETIC MEAN TO COMBINE L-J SIGMA PARAMETERS
Info: BINARY COORDINATES     mobley_9671033_equil.coor
Info: SUMMARY OF PARAMETERS:
Info: 7 BONDS
Info: 9 ANGLES
Info:   9 HARMONIC
Info:   0 COSINE-BASED
Info: 4 DIHEDRAL
Info: 0 IMPROPER
Info: 0 CROSSTERM
Info: 0 VDW
Info: 28 VDW_PAIRS
Info: 0 NBTHOLE_PAIRS
Info: To read alchdata from file: mobley_9671033.pdb
Info: To read alchflag data from column: 5
Info: STRUCTURE SUMMARY:
Info: 2935 ATOMS
Info: 2934 BONDS
Info: 21 ANGLES
Info: 24 DIHEDRALS
Info: 0 IMPROPERS
Info: 0 CROSSTERMS
Info: 2979 EXCLUSIONS
Info: 2929 RIGID BONDS
Info: ALCH: 0 ATOMS TO DISAPPEAR IN FINAL STATE
Info: ALCH: 13 ATOMS TO APPEAR IN FINAL STATE
Info: 5876 DEGREES OF FREEDOM
Info: 980 HYDROGEN GROUPS
Info: 4 ATOMS IN LARGEST HYDROGEN GROUP
Info: 980 MIGRATION GROUPS
Info: 4 ATOMS IN LARGEST MIGRATION GROUP
Info: TOTAL MASS = 17636.7 amu
Info: TOTAL CHARGE = -4.47035e-08 e
Info: MASS DENSITY = 0.954123 g/cm^3
Info: ATOM DENSITY = 0.0956173 atoms/A^3
Info: ADDED 0 IMPLICIT EXCLUSIONS
Info: NONBONDED TABLE R-SQUARED SPACING: 0.0625
Info: NONBONDED TABLE SIZE: 705 POINTS
Info: REDUCING NUMBER OF PATCHES TO IMPROVE LOAD BALANCE
Info: REMOVING COM VELOCITY 0.0318221 0.0549944 -0.104275
Info: Use 3D box decompostion in PME FFT.
Info: Updated CUDA force table with 4096 elements.
Info: Updated CUDA LJ table with 7 x 7 elements.
Info: Found 16 unique exclusion lists needing 32 bytes
TCL: Running for 1500000 steps
ETITLE: TS BOND ANGLE DIHED IMPRP ELECT VDW BOUNDARY MISC KINETIC TOTAL TEMP POTENTIAL TOTALAVG TEMPAVG PRESSURE GPRESSURE VOLUME PRESSAVG GPRESSAVG
ENERGY: 0 0.9156 4.3364 1.1739 0.0000 -10570.5207 1403.2098 0.0000 0.0000 1788.9237 -7371.9613 306.4082 -9160.8850 -7371.9613 306.4082 -247.3458 -170.5076 30695.2761 -247.3458 -170.5076
ENERGY: 300000 0.9401 7.0792 0.1514 0.0000 -10744.8505 1496.5685 0.0000 0.0000 1763.5793 -7476.5319 302.0672 -9240.1113 -7473.8178 301.2170 296.4615 388.9749 30409.0869 39.5515 101.3735
ENERGY: 600000 1.6729 5.1739 0.7411 0.0000 -10665.2789 1444.4396 0.0000 0.0000 1722.4327 -7490.8186 295.0196 -9213.2513 -7470.7593 299.1535 85.7309 156.6625 30336.1746 78.2698 137.1601
ENERGY: 900000 2.5099 2.7991 0.0634 0.0000 -10616.0844 1415.1159 0.0000 0.0000 1769.4702 -7426.1258 303.0762 -9195.5960 -7455.2778 299.6968 -372.7837 -285.7386 30485.2741 39.4953 96.2824
ENERGY: 1200000 2.7867 7.2021 0.3732 0.0000 -10650.4539 1429.6369 0.0000 0.0000 1798.3790 -7412.0759 308.0277 -9210.4550 -7446.8732 301.2198 -110.8493 -29.8141 30363.9956 -34.6338 23.0809
ENERGY: 1500000 2.3559 6.7046 0.6366 0.0000 -10566.6800 1378.4509 0.0000 0.0000 1772.7987 -7405.7332 303.6463 -9178.5320 -7444.5213 301.0888 -510.6339 -386.9002 30498.0300 -80.5155 -20.2628
TCL: Running FEP window   2: Lambda1 0.95   Lambda2 0.8999999999999999 [dLambda -0.050000000000000044]
TCL: Setting parameter firsttimestep to 0
TCL: Setting parameter alchLambda to 0.95
Info: NONBONDED TABLE R-SQUARED SPACING: 0.0625
Info: NONBONDED TABLE SIZE: 705 POINTS
TCL: Setting parameter alchLambda2 to 0.8999999999999999
Info: NONBONDED TABLE R-SQUARED SPACING: 0.0625
Info: NONBONDED TABLE SIZE: 705 POINTS
TCL: Running for 1500000 steps
ETITLE: TS BOND ANGLE DIHED IMPRP ELECT VDW BOUNDARY MISC KINETIC TOTAL TEMP POTENTIAL TOTALAVG TEMPAVG PRESSURE GPRESSURE VOLUME PRESSAVG GPRESSAVG
ENERGY: 0 2.3559 6.7046 0.6366 0.0000 -10566.0581 1378.5762 0.0000 0.0000 1771.9911 -7405.7937 303.5080 -9177.7847 -7405.7937 303.5080 -485.3703 -395.0450 30498.0300 -485.3703 -395.0450
ENERGY: 300000 1.5326 7.3114 0.5454 0.0000 -10569.6381 1364.1779 0.0000 0.0000 1754.7416 -7441.3292 300.5535 -9196.0708 -7415.5588 302.9223 -493.2703 -368.5506 30185.6851 -83.2025 13.4371
ENERGY: 600000 1.1354 4.4612 0.1554 0.0000 -10390.4631 1266.1233 0.0000 0.0000 1738.4334 -7380.1544 297.7602 -9118.5878 -7436.2360 299.5890 -1373.4691 -1320.6087 31158.9046 -215.0255 -133.8847
ENERGY: 900000 0.3532 3.1996 0.6971 0.0000 -10515.9734 1335.6140 0.0000 0.0000 1716.7344 -7459.3750 294.0436 -9176.1095 -7450.1561 298.2354 -560.9148 -556.0337 30493.0006 -239.6790 -165.3049
ENERGY: 1200000 1.3736 7.4868 0.8210 0.0000 -10603.8654 1385.2061 0.0000 0.0000 1708.7627 -7500.2152 292.6782 -9208.9779 -7454.3382 298.2104 -133.3434 -72.0710 29927.4954 -144.6253 -74.9987
ENERGY: 1500000 0.7763 3.9186 0.6441 0.0000 -10767.7456 1451.3108 0.0000 0.0000 1735.0271 -7576.0688 297.1768 -9311.0959 -7462.5138 298.9340 139.2238 238.3679 29662.8240 -60.4614 7.1828
TCL: Running FEP window   3: Lambda1 0.8999999999999999 Lambda2 0.8499999999999999 [dLambda -0.050000000000000044]
TCL: Setting parameter firsttimestep to 0
TCL: Setting parameter alchLambda to 0.8999999999999999
Info: NONBONDED TABLE R-SQUARED SPACING: 0.0625
Info: NONBONDED TABLE SIZE: 705 POINTS
TCL: Setting parameter alchLambda2 to 0.8499999999999999
Info: NONBONDED TABLE R-SQUARED SPACING: 0.0625
Info: NONBONDED TABLE SIZE: 705 POINTS
TCL: Running for 1500000 steps
ETITLE: TS BOND ANGLE DIHED IMPRP ELECT VDW BOUNDARY MISC KINETIC TOTAL TEMP POTENTIAL TOTALAVG TEMPAVG PRESSURE GPRESSURE VOLUME PRESSAVG GPRESSAVG
ENERGY: 0 0.7763 3.9186 0.6441 0.0000 -10767.1062 1451.1029 0.0000 0.0000 1734.1809 -7576.4835 297.0318 -9310.6644 -7576.4835 297.0318 137.5024 223.6310 29662.8240 137.5024 223.6310
ENERGY: 300000 2.2487 5.2104 0.1917 0.0000 -10552.9121 1406.1579 0.0000 0.0000 1779.7691 -7359.3344 304.8402 -9139.1035 -7441.7999 301.1930 -278.2994 -164.2278 30607.1620 132.5597 215.4674
ENERGY: 600000 0.9726 6.1669 0.4289 0.0000 -10717.7774 1479.8257 0.0000 0.0000 1721.6997 -7508.6835 294.8940 -9230.3832 -7434.7815 300.0446 554.5886 640.6171 30028.8677 96.2927 165.8244
ENERGY: 900000 1.0862 4.3329 0.9185 0.0000 -10576.4859 1364.3161 0.0000 0.0000 1738.2663 -7467.5660 297.7316 -9205.8322 -7440.0669 299.8662 -492.2698 -456.6386 30286.6971 64.0476 133.6933
ENERGY: 1200000 1.2452 6.8264 0.2027 0.0000 -10643.1318 1446.9104 0.0000 0.0000 1749.7623 -7438.1848 299.7006 -9187.9471 -7435.4160 299.2261 297.7134 299.8601 30152.4488 -9.7355 52.5840
ENERGY: 1500000 1.8301 5.8038 0.9278 0.0000 -10571.3409 1341.3154 0.0000 0.0000 1738.2892 -7483.1745 297.7355 -9221.4638 -7434.2481 299.3273 -803.7114 -710.4403 30617.4655 -63.3383 0.7650
TCL: Running FEP window   4: Lambda1 0.8499999999999999 Lambda2 0.7999999999999998 [dLambda -0.050000000000000044]
TCL: Setting parameter firsttimestep to 0
TCL: Setting parameter alchLambda to 0.8499999999999999
Info: NONBONDED TABLE R-SQUARED SPACING: 0.0625
Info: NONBONDED TABLE SIZE: 705 POINTS
TCL: Setting parameter alchLambda2 to 0.7999999999999998
Info: NONBONDED TABLE R-SQUARED SPACING: 0.0625
Info: NONBONDED TABLE SIZE: 705 POINTS
TCL: Running for 1500000 steps
ETITLE: TS BOND ANGLE DIHED IMPRP ELECT VDW BOUNDARY MISC KINETIC TOTAL TEMP POTENTIAL TOTALAVG TEMPAVG PRESSURE GPRESSURE VOLUME PRESSAVG GPRESSAVG
ENERGY: 0 1.8301 5.8038 0.9278 0.0000 -10570.7588 1341.5438 0.0000 0.0000 1737.4374 -7483.2160 297.5896 -9220.6533 -7483.2160 297.5896 -813.3853 -715.6723 30617.4655 -813.3853 -715.6723
ENERGY: 300000 1.4287 7.2163 0.1064 0.0000 -10781.8811 1530.2929 0.0000 0.0000 1720.4692 -7522.3675 294.6833 -9242.8368 -7459.2247 299.2233 626.6270 644.4804 30157.4189 -268.7742 -216.8072
ENERGY: 600000 1.0793 6.7430 0.2408 0.0000 -10569.1417 1350.9858 0.0000 0.0000 1752.1638 -7457.9291 300.1119 -9210.0929 -7477.3649 298.3837 -518.0302 -428.2477 29911.1412 -193.0910 -130.8218
ENERGY: 900000 2.0146 2.0858 1.2146 0.0000 -10502.6929 1370.5590 0.0000 0.0000 1787.0341 -7339.7850 306.0846 -9126.8190 -7452.4967 299.8787 -170.0342 -98.8917 30127.6366 -56.0377 -0.8655
ENERGY: 1200000 0.7136 5.2661 0.6323 0.0000 -10644.2545 1396.0554 0.0000 0.0000 1666.3580 -7575.2291 285.4151 -9241.5871 -7460.9852 299.0201 -145.8324 -73.6244 29903.5587 21.0218 79.1228
ENERGY: 1500000 1.5934 7.9094 1.1090 0.0000 -10784.9600 1543.4416 0.0000 0.0000 1750.2518 -7480.6548 299.7845 -9230.9066 -7465.9688 298.9195 931.5635 942.6846 30160.1193 95.7054 150.1398
TCL: Running FEP window   5: Lambda1 0.7999999999999998 Lambda2 0.7499999999999998 [dLambda -0.050000000000000044]
TCL: Setting parameter firsttimestep to 0
TCL: Setting parameter alchLambda to 0.7999999999999998
Info: NONBONDED TABLE R-SQUARED SPACING: 0.0625
Info: NONBONDED TABLE SIZE: 705 POINTS
TCL: Setting parameter alchLambda2 to 0.7499999999999998
Info: NONBONDED TABLE R-SQUARED SPACING: 0.0625
Info: NONBONDED TABLE SIZE: 705 POINTS
TCL: Running for 1500000 steps
ETITLE: TS BOND ANGLE DIHED IMPRP ELECT VDW BOUNDARY MISC KINETIC TOTAL TEMP POTENTIAL TOTALAVG TEMPAVG PRESSURE GPRESSURE VOLUME PRESSAVG GPRESSAVG
ENERGY: 0 1.5934 7.9094 1.1090 0.0000 -10783.9977 1543.4811 0.0000 0.0000 1749.3913 -7480.5135 299.6371 -9229.9048 -7480.5135 299.6371 863.9504 934.6479 30160.1193 863.9504 934.6479
ENERGY: 300000 3.1088 4.7831 0.7332 0.0000 -10643.8703 1403.5660 0.0000 0.0000 1811.1229 -7420.5563 310.2105 -9231.6792 -7436.7651 301.3478 -548.1494 -417.7894 30120.8644 -249.8878 -165.0254
ENERGY: 600000 1.6557 4.6145 0.2920 0.0000 -10646.0866 1431.6895 0.0000 0.0000 1743.3123 -7464.5225 298.5959 -9207.8347 -7466.0546 298.6749 1.5769 67.4802 30170.1247 -343.8109 -268.3280
ENERGY: 900000 2.8909 6.5960 0.1175 0.0000 -10767.0334 1533.0124 0.0000 0.0000 1802.6143 -7421.8023 308.7532 -9224.4166 -7449.0819 299.7481 1037.5859 1095.3307 29836.8395 -80.3025 -1.9614
ENERGY: 1200000 0.7619 4.3112 0.2365 0.0000 -10751.0650 1542.9525 0.0000 0.0000 1754.6956 -7448.1073 300.5456 -9202.8029 -7446.2203 300.4636 1021.7004 1117.9372 29924.4624 40.8544 119.4438
ENERGY: 1500000 0.9456 4.0957 0.5930 0.0000 -10530.6604 1424.1098 0.0000 0.0000 1739.9254 -7360.9909 298.0158 -9100.9163 -7435.0501 300.7955 513.8497 584.4128 29945.0679 88.9134 164.9776
TCL: Running FEP window   6: Lambda1 0.7499999999999998 Lambda2 0.6999999999999997 [dLambda -0.050000000000000044]
TCL: Setting parameter firsttimestep to 0
TCL: Setting parameter alchLambda to 0.7499999999999998
Info: NONBONDED TABLE R-SQUARED SPACING: 0.0625
Info: NONBONDED TABLE SIZE: 705 POINTS
TCL: Setting parameter alchLambda2 to 0.6999999999999997
Info: NONBONDED TABLE R-SQUARED SPACING: 0.0625
Info: NONBONDED TABLE SIZE: 705 POINTS
TCL: Running for 1500000 steps
ETITLE: TS BOND ANGLE DIHED IMPRP ELECT VDW BOUNDARY MISC KINETIC TOTAL TEMP POTENTIAL TOTALAVG TEMPAVG PRESSURE GPRESSURE VOLUME PRESSAVG GPRESSAVG
ENERGY: 0 0.9456 4.0957 0.5930 0.0000 -10530.3679 1423.0762 0.0000 0.0000 1739.0376 -7362.6197 297.8637 -9101.6574 -7362.6197 297.8637 466.7574 566.4311 29945.0679 466.7574 566.4311
ENERGY: 300000 0.2408 7.1694 0.2668 0.0000 -10672.7111 1420.7107 0.0000 0.0000 1773.0929 -7471.2305 303.6967 -9244.3234 -7458.3816 302.5460 -111.5494 -66.4419 30100.5912 3.6170 67.9248
ENERGY: 600000 0.9786 5.3947 0.3016 0.0000 -10777.1772 1493.1562 0.0000 0.0000 1712.2973 -7565.0488 293.2836 -9277.3461 -7469.5731 300.3210 220.0032 342.7449 30159.1631 20.0730 80.8108
ENERGY: 900000 2.4975 8.3269 0.2053 0.0000 -10661.8697 1410.5119 0.0000 0.0000 1759.7549 -7480.5733 301.4122 -9240.3281 -7470.7994 300.3847 -239.7388 -218.9353 30343.0215 4.0824 57.8011
ENERGY: 1200000 0.9977 7.1136 0.3369 0.0000 -10700.2878 1473.7949 0.0000 0.0000 1759.2329 -7458.8119 301.3228 -9218.0448 -7464.1190 300.7588 411.2712 482.1263 29892.8107 -2.4320 49.3911
ENERGY: 1500000 1.9071 6.9347 1.4413 0.0000 -10510.7933 1353.9514 0.0000 0.0000 1790.1251 -7356.4339 306.6140 -9146.5589 -7449.6984 301.5071 -370.2547 -338.5954 30511.1528 -15.1678 38.1632
TCL: Running FEP window   7: Lambda1 0.6999999999999997 Lambda2 0.6499999999999997 [dLambda -0.050000000000000044]
TCL: Setting parameter firsttimestep to 0
TCL: Setting parameter alchLambda to 0.6999999999999997
Info: NONBONDED TABLE R-SQUARED SPACING: 0.0625
Info: NONBONDED TABLE SIZE: 705 POINTS
TCL: Setting parameter alchLambda2 to 0.6499999999999997
Info: NONBONDED TABLE R-SQUARED SPACING: 0.0625
Info: NONBONDED TABLE SIZE: 705 POINTS
TCL: Running for 1500000 steps
ETITLE: TS BOND ANGLE DIHED IMPRP ELECT VDW BOUNDARY MISC KINETIC TOTAL TEMP POTENTIAL TOTALAVG TEMPAVG PRESSURE GPRESSURE VOLUME PRESSAVG GPRESSAVG
ENERGY: 0 1.9071 6.9347 1.4413 0.0000 -10510.8002 1353.8394 0.0000 0.0000 1789.2685 -7357.4092 306.4673 -9146.6777 -7357.4092 306.4673 -439.9830 -349.4549 30511.1528 -439.9830 -349.4549
ENERGY: 300000 1.5168 6.6626 0.5949 0.0000 -10482.8805 1369.0269 0.0000 0.0000 1787.9971 -7317.0821 306.2495 -9105.0792 -7399.7459 303.5952 115.9900 105.2233 29955.0197 -46.1834 8.6582
ENERGY: 600000 1.2441 4.8411 0.2266 0.0000 -10850.0225 1531.9132 0.0000 0.0000 1759.9315 -7551.8661 301.4424 -9311.7976 -7438.0929 301.5333 664.8673 739.6545 29795.0021 83.1659 147.8214
ENERGY: 900000 1.5378 9.6472 0.6610 0.0000 -10710.9801 1505.5103 0.0000 0.0000 1773.6285 -7419.9955 303.7884 -9193.6239 -7447.4777 300.2743 685.7955 736.9834 30034.0102 150.6568 221.4131
ENERGY: 1200000 0.7553 6.6963 0.1793 0.0000 -10755.4708 1455.0951 0.0000 0.0000 1756.4472 -7536.2977 300.8456 -9292.7449 -7453.7761 300.1350 -19.3190 14.6046 30022.3847 58.6216 129.7027
ENERGY: 1500000 4.2272 4.0532 0.6498 0.0000 -10702.2981 1424.7007 0.0000 0.0000 1716.8022 -7551.8651 294.0552 -9268.6673 -7461.2380 299.5448 -615.2868 -539.9754 30487.8633 -72.4142 4.3806
TCL: Running FEP window   8: Lambda1 0.6499999999999997 Lambda2 0.5999999999999996 [dLambda -0.050000000000000044]
TCL: Setting parameter firsttimestep to 0
TCL: Setting parameter alchLambda to 0.6499999999999997
Info: NONBONDED TABLE R-SQUARED SPACING: 0.0625
Info: NONBONDED TABLE SIZE: 705 POINTS
TCL: Setting parameter alchLambda2 to 0.5999999999999996
Info: NONBONDED TABLE R-SQUARED SPACING: 0.0625
Info: NONBONDED TABLE SIZE: 705 POINTS
TCL: Running for 1500000 steps
ETITLE: TS BOND ANGLE DIHED IMPRP ELECT VDW BOUNDARY MISC KINETIC TOTAL TEMP POTENTIAL TOTALAVG TEMPAVG PRESSURE GPRESSURE VOLUME PRESSAVG GPRESSAVG
ENERGY: 0 4.2272 4.0532 0.6498 0.0000 -10702.0245 1424.8000 0.0000 0.0000 1715.8926 -7552.4016 293.8994 -9268.2943 -7552.4016 293.8994 -622.6829 -546.5542 30487.8633 -622.6829 -546.5542
ENERGY: 300000 0.2286 3.2348 0.2050 0.0000 -10613.5920 1419.3269 0.0000 0.0000 1706.5815 -7484.0152 292.3046 -9190.5967 -7493.8465 298.3294 4.5412 69.1433 30170.4544 -216.8595 -125.3725
ENERGY: 600000 3.0067 2.4356 0.8568 0.0000 -10501.3279 1388.2777 0.0000 0.0000 1676.3671 -7430.3841 287.1294 -9106.7512 -7475.5019 297.7116 -30.7556 -15.6570 30284.1003 -36.8325 33.2902
ENERGY: 900000 2.5030 4.8659 1.4371 0.0000 -10602.5663 1391.5929 0.0000 0.0000 1808.7374 -7393.4300 309.8019 -9202.1674 -7462.4897 298.4272 -608.4157 -553.1061 30696.2075 -69.5892 3.4245
ENERGY: 1200000 0.5645 6.0668 0.5847 0.0000 -10733.0676 1465.3335 0.0000 0.0000 1756.7559 -7503.7622 300.8985 -9260.5180 -7455.4338 299.7232 127.3411 210.9101 30021.9548 -33.0735 39.6006
ENERGY: 1500000 0.8903 6.5249 0.3227 0.0000 -10561.4171 1397.5831 0.0000 0.0000 1771.1150 -7384.9810 303.3579 -9156.0961 -7445.4703 301.0301 -458.3519 -480.2661 31109.8248 -45.9716 22.2124
TCL: Running FEP window   9: Lambda1 0.5999999999999996 Lambda2 0.5499999999999996 [dLambda -0.050000000000000044]
TCL: Setting parameter firsttimestep to 0
TCL: Setting parameter alchLambda to 0.5999999999999996
Info: NONBONDED TABLE R-SQUARED SPACING: 0.0625
Info: NONBONDED TABLE SIZE: 705 POINTS
TCL: Setting parameter alchLambda2 to 0.5499999999999996
Info: NONBONDED TABLE R-SQUARED SPACING: 0.0625
Info: NONBONDED TABLE SIZE: 705 POINTS
TCL: Running for 1500000 steps
ETITLE: TS BOND ANGLE DIHED IMPRP ELECT VDW BOUNDARY MISC KINETIC TOTAL TEMP POTENTIAL TOTALAVG TEMPAVG PRESSURE GPRESSURE VOLUME PRESSAVG GPRESSAVG
ENERGY: 0 0.8903 6.5249 0.3227 0.0000 -10561.2856 1397.5577 0.0000 0.0000 1770.2241 -7385.7660 303.2053 -9155.9900 -7385.7660 303.2053 -556.7318 -485.2997 31109.8248 -556.7318 -485.2997
ENERGY: 300000 3.2839 3.5877 0.8666 0.0000 -10627.0501 1449.6164 0.0000 0.0000 1770.7231 -7398.9724 303.2908 -9169.6955 -7399.9392 304.2186 307.0440 364.4784 30327.3824 213.5426 278.5641
ENERGY: 600000 1.3968 3.5532 0.4428 0.0000 -10545.3063 1423.9307 0.0000 0.0000 1770.1798 -7345.8030 303.1978 -9115.9829 -7395.5745 303.9793 488.3972 565.9271 29751.4567 141.1111 192.7210
ENERGY: 900000 3.2206 3.0752 0.5405 0.0000 -10564.1919 1406.6830 0.0000 0.0000 1733.0834 -7417.5892 296.8439 -9150.6726 -7411.4644 303.1521 -277.5458 -131.3362 30372.3392 56.2633 118.6656
ENERGY: 1200000 0.2946 5.5743 0.8344 0.0000 -10627.2653 1430.3870 0.0000 0.0000 1755.7237 -7434.4512 300.7217 -9190.1749 -7420.7039 301.9821 -28.2071 -0.8518 30305.7001 0.2117 59.0911
ENERGY: 1500000 2.5789 5.8462 0.4780 0.0000 -10546.7280 1364.5381 0.0000 0.0000 1719.5343 -7453.7524 294.5232 -9173.2867 -7424.2554 301.1826 -630.3931 -635.8850 30586.7589 -20.4486 34.6013
TCL: Running FEP window  10: Lambda1 0.5499999999999996 Lambda2 0.4999999999999996 [dLambda -0.04999999999999999]
TCL: Setting parameter firsttimestep to 0
TCL: Setting parameter alchLambda to 0.5499999999999996
Info: NONBONDED TABLE R-SQUARED SPACING: 0.0625
Info: NONBONDED TABLE SIZE: 705 POINTS
TCL: Setting parameter alchLambda2 to 0.4999999999999996
Info: NONBONDED TABLE R-SQUARED SPACING: 0.0625
Info: NONBONDED TABLE SIZE: 705 POINTS
TCL: Running for 1500000 steps
ETITLE: TS BOND ANGLE DIHED IMPRP ELECT VDW BOUNDARY MISC KINETIC TOTAL TEMP POTENTIAL TOTALAVG TEMPAVG PRESSURE GPRESSURE VOLUME PRESSAVG GPRESSAVG
ENERGY: 0 2.5789 5.8462 0.4780 0.0000 -10546.4557 1364.4362 0.0000 0.0000 1718.6840 -7454.4324 294.3775 -9173.1164 -7454.4324 294.3775 -726.0419 -645.6296 30586.7589 -726.0419 -645.6296
ENERGY: 300000 1.6005 2.6531 0.4249 0.0000 -10751.1865 1483.4300 0.0000 0.0000 1807.6992 -7455.3788 309.6241 -9263.0780 -7451.9170 304.4149 280.2924 349.5880 30047.1360 -99.9539 -21.7173
ENERGY: 600000 2.3291 3.4433 0.2275 0.0000 -10690.2135 1409.8205 0.0000 0.0000 1736.9433 -7537.4499 297.5050 -9274.3932 -7446.3081 303.1445 -27.3446 -3.1905 29569.3193 -84.5160 -22.1664
ENERGY: 900000 0.5914 5.5573 0.2540 0.0000 -10748.8425 1509.9905 0.0000 0.0000 1774.2957 -7458.1537 303.9027 -9232.4493 -7451.2209 303.1761 588.8674 623.1938 29979.0820 12.3432 63.3871
ENERGY: 1200000 2.4604 4.1075 1.0452 0.0000 -10624.0777 1412.0914 0.0000 0.0000 1734.7851 -7469.5881 297.1353 -9204.3732 -7450.9601 302.2537 -593.0922 -510.4977 30471.7814 -43.7214 3.4570
ENERGY: 1500000 1.8262 6.2092 0.7675 0.0000 -10529.2839 1349.0364 0.0000 0.0000 1791.1867 -7380.2580 306.7958 -9171.4446 -7448.4708 302.3860 -460.7032 -426.9213 30140.1829 -66.1812 -18.1022
TCL: Running FEP window  11: Lambda1 0.4999999999999996 Lambda2 0.4499999999999996 [dLambda -0.04999999999999999]
TCL: Setting parameter firsttimestep to 0
TCL: Setting parameter alchLambda to 0.4999999999999996
Info: NONBONDED TABLE R-SQUARED SPACING: 0.0625
Info: NONBONDED TABLE SIZE: 705 POINTS
TCL: Setting parameter alchLambda2 to 0.4499999999999996
Info: NONBONDED TABLE R-SQUARED SPACING: 0.0625
Info: NONBONDED TABLE SIZE: 705 POINTS
TCL: Running for 1500000 steps
ETITLE: TS BOND ANGLE DIHED IMPRP ELECT VDW BOUNDARY MISC KINETIC TOTAL TEMP POTENTIAL TOTALAVG TEMPAVG PRESSURE GPRESSURE VOLUME PRESSAVG GPRESSAVG
ENERGY: 0 1.8262 6.2092 0.7675 0.0000 -10529.1238 1349.4684 0.0000 0.0000 1790.3266 -7380.5258 306.6485 -9170.8525 -7380.5258 306.6485 -516.8199 -429.0782 30140.1829 -516.8199 -429.0782
ENERGY: 300000 1.4875 4.6811 1.0975 0.0000 -10691.7586 1513.8132 0.0000 0.0000 1802.2953 -7368.3841 308.6985 -9170.6794 -7392.4329 304.2599 643.9597 680.9445 30505.7791 3.3956 56.5877
ENERGY: 600000 0.9855 9.2369 0.8216 0.0000 -10689.6706 1431.6012 0.0000 0.0000 1737.0752 -7509.9503 297.5276 -9247.0255 -7417.4401 302.2619 -154.7138 -21.4482 30085.0009 -142.1481 -77.1461
ENERGY: 900000 2.5756 5.2513 0.6503 0.0000 -10583.8779 1397.2127 0.0000 0.0000 1735.7909 -7442.3972 297.3076 -9178.1881 -7422.8903 301.9630 -385.0146 -285.0282 30505.8516 -136.5746 -68.9028
ENERGY: 1200000 1.4542 4.5424 0.1412 0.0000 -10704.1875 1542.4669 0.0000 0.0000 1788.7765 -7366.8062 306.3830 -9155.5827 -7418.9788 302.4307 981.8014 1090.9854 30470.3040 24.2510 100.1703
ENERGY: 1500000 0.2957 6.4782 0.6297 0.0000 -10589.1624 1343.3169 0.0000 0.0000 1852.6116 -7385.8302 317.3167 -9238.4418 -7426.1061 302.7722 -613.0175 -598.8683 30364.7568 -63.1870 5.2584
TCL: Running FEP window  12: Lambda1 0.4499999999999996 Lambda2 0.39999999999999963 [dLambda -0.04999999999999999]
TCL: Setting parameter firsttimestep to 0
TCL: Setting parameter alchLambda to 0.4499999999999996
Info: NONBONDED TABLE R-SQUARED SPACING: 0.0625
Info: NONBONDED TABLE SIZE: 705 POINTS
TCL: Setting parameter alchLambda2 to 0.39999999999999963
Info: NONBONDED TABLE R-SQUARED SPACING: 0.0625
Info: NONBONDED TABLE SIZE: 705 POINTS
TCL: Running for 1500000 steps
ETITLE: TS BOND ANGLE DIHED IMPRP ELECT VDW BOUNDARY MISC KINETIC TOTAL TEMP POTENTIAL TOTALAVG TEMPAVG PRESSURE GPRESSURE VOLUME PRESSAVG GPRESSAVG
ENERGY: 0 0.2957 6.4782 0.6297 0.0000 -10589.1635 1343.5386 0.0000 0.0000 1851.6993 -7386.5220 317.1605 -9238.2212 -7386.5220 317.1605 -677.8595 -605.1974 30364.7568 -677.8595 -605.1974
ENERGY: 300000 3.9281 3.6672 0.4477 0.0000 -10569.1201 1383.3920 0.0000 0.0000 1781.9310 -7395.7542 305.2105 -9177.6852 -7434.9635 305.0061 -71.0850 -10.9582 29713.9158 -348.6452 -286.2579
ENERGY: 600000 1.6079 3.2670 0.5895 0.0000 -10610.9172 1432.4457 0.0000 0.0000 1766.1057 -7406.9015 302.4999 -9173.0072 -7428.5865 303.3745 288.4433 318.0433 29454.2440 -87.8368 -42.1765
ENERGY: 900000 2.3522 5.3302 0.8937 0.0000 -10733.0751 1471.0439 0.0000 0.0000 1731.2940 -7522.1611 296.5374 -9253.4552 -7456.3795 301.1825 110.1652 129.2815 30237.8331 -93.7007 -37.4155
ENERGY: 1200000 1.8098 7.0233 1.4605 0.0000 -10662.0421 1490.3095 0.0000 0.0000 1739.7123 -7421.7267 297.9793 -9161.4390 -7448.4059 301.9028 417.6504 437.3479 30620.1061 -7.5209 45.4819
ENERGY: 1500000 2.1509 5.1772 0.3705 0.0000 -10627.5711 1384.9832 0.0000 0.0000 1786.5792 -7448.3101 306.0066 -9234.8892 -7449.4211 302.5401 -765.3604 -718.3753 30779.0634 -49.0430 4.4270
TCL: Running FEP window  13: Lambda1 0.39999999999999963 Lambda2 0.34999999999999964 [dLambda -0.04999999999999999]
TCL: Setting parameter firsttimestep to 0
TCL: Setting parameter alchLambda to 0.39999999999999963
Info: NONBONDED TABLE R-SQUARED SPACING: 0.0625
Info: NONBONDED TABLE SIZE: 705 POINTS
TCL: Setting parameter alchLambda2 to 0.34999999999999964
Info: NONBONDED TABLE R-SQUARED SPACING: 0.0625
Info: NONBONDED TABLE SIZE: 705 POINTS
TCL: Running for 1500000 steps
ETITLE: TS BOND ANGLE DIHED IMPRP ELECT VDW BOUNDARY MISC KINETIC TOTAL TEMP POTENTIAL TOTALAVG TEMPAVG PRESSURE GPRESSURE VOLUME PRESSAVG GPRESSAVG
ENERGY: 0 2.1509 5.1772 0.3705 0.0000 -10627.5712 1385.0766 0.0000 0.0000 1785.7016 -7449.0943 305.8563 -9234.7960 -7449.0943 305.8563 -799.0055 -724.8452 30779.0634 -799.0055 -724.8452
ENERGY: 300000 1.8411 5.0615 0.5727 0.0000 -10577.6751 1393.3359 0.0000 0.0000 1758.8273 -7418.0365 301.2533 -9176.8638 -7432.1615 300.1370 -502.3902 -492.2880 30647.8961 -446.5251 -444.6557
ENERGY: 600000 0.1630 5.4499 1.1077 0.0000 -10669.5798 1436.7683 0.0000 0.0000 1780.7154 -7445.3756 305.0023 -9226.0910 -7455.4967 301.3256 -47.0005 52.9832 30005.7712 -88.8528 -60.2431
ENERGY: 900000 1.3018 4.3584 1.0641 0.0000 -10675.4668 1486.3041 0.0000 0.0000 1748.5633 -7433.8751 299.4953 -9182.4384 -7458.7187 301.4174 555.2939 609.0600 29966.6189 -12.5535 29.5548
ENERGY: 1200000 5.4518 7.2371 0.0233 0.0000 -10710.0897 1440.7779 0.0000 0.0000 1742.6549 -7513.9447 298.4833 -9256.5997 -7452.6494 301.6588 -268.1703 -185.8612 30052.8270 -69.7413 -23.5083
ENERGY: 1500000 3.2726 7.8088 1.1963 0.0000 -10547.4093 1338.2768 0.0000 0.0000 1781.6295 -7415.2252 305.1589 -9196.8548 -7451.4428 301.3386 -805.1715 -738.9145 30758.1342 -68.1710 -22.0458
TCL: Running FEP window  14: Lambda1 0.34999999999999964 Lambda2 0.29999999999999966 [dLambda -0.04999999999999999]
TCL: Setting parameter firsttimestep to 0
TCL: Setting parameter alchLambda to 0.34999999999999964
Info: NONBONDED TABLE R-SQUARED SPACING: 0.0625
Info: NONBONDED TABLE SIZE: 705 POINTS
TCL: Setting parameter alchLambda2 to 0.29999999999999966
Info: NONBONDED TABLE R-SQUARED SPACING: 0.0625
Info: NONBONDED TABLE SIZE: 705 POINTS
TCL: Running for 1500000 steps
ETITLE: TS BOND ANGLE DIHED IMPRP ELECT VDW BOUNDARY MISC KINETIC TOTAL TEMP POTENTIAL TOTALAVG TEMPAVG PRESSURE GPRESSURE VOLUME PRESSAVG GPRESSAVG
ENERGY: 0 3.2725 7.8088 1.1963 0.0000 -10547.4086 1338.6621 0.0000 0.0000 1780.7264 -7415.7424 305.0042 -9196.4688 -7415.7424 305.0042 -811.6390 -738.7536 30758.1342 -811.6390 -738.7536
ENERGY: 300000 2.5321 3.2712 0.1169 0.0000 -10611.5809 1458.7055 0.0000 0.0000 1777.8401 -7369.1150 304.5098 -9146.9551 -7409.5805 303.8061 657.2251 684.2063 29992.8462 63.0127 106.9254
ENERGY: 600000 2.5649 2.8377 0.0801 0.0000 -10612.8707 1421.1290 0.0000 0.0000 1781.8609 -7404.3981 305.1985 -9186.2590 -7416.0524 304.3575 152.5114 129.2234 29793.8483 40.7378 75.8760
ENERGY: 900000 2.9997 4.8245 0.1481 0.0000 -10573.5139 1355.0459 0.0000 0.0000 1764.3293 -7446.1663 302.1957 -9210.4957 -7432.3519 303.0037 -729.3734 -616.5894 30237.3083 -72.7378 -17.7908
ENERGY: 1200000 4.2006 3.7320 1.8707 0.0000 -10726.5718 1498.6098 0.0000 0.0000 1775.1010 -7443.0577 304.0407 -9218.1587 -7435.7320 302.5605 560.6320 601.4796 29966.9363 76.4041 132.8846
ENERGY: 1500000 0.3457 8.4770 2.3111 0.0000 -10470.6044 1350.2070 0.0000 0.0000 1708.6282 -7400.6355 292.6552 -9109.2637 -7440.2008 302.4068 -483.2700 -453.6957 30370.9979 74.4688 132.3347
TCL: Running FEP window  15: Lambda1 0.29999999999999966 Lambda2 0.24999999999999967 [dLambda -0.04999999999999999]
TCL: Setting parameter firsttimestep to 0
TCL: Setting parameter alchLambda to 0.29999999999999966
Info: NONBONDED TABLE R-SQUARED SPACING: 0.0625
Info: NONBONDED TABLE SIZE: 705 POINTS
TCL: Setting parameter alchLambda2 to 0.24999999999999967
Info: NONBONDED TABLE R-SQUARED SPACING: 0.0625
Info: NONBONDED TABLE SIZE: 705 POINTS
TCL: Running for 1500000 steps
ETITLE: TS BOND ANGLE DIHED IMPRP ELECT VDW BOUNDARY MISC KINETIC TOTAL TEMP POTENTIAL TOTALAVG TEMPAVG PRESSURE GPRESSURE VOLUME PRESSAVG GPRESSAVG
ENERGY: 0 0.3457 8.4770 2.3111 0.0000 -10470.6037 1350.3898 0.0000 0.0000 1707.7676 -7401.3125 292.5077 -9109.0801 -7401.3125 292.5077 -535.3243 -455.9761 30370.9979 -535.3243 -455.9761
ENERGY: 300000 1.4489 3.6752 0.3384 0.0000 -10709.8170 1476.3525 0.0000 0.0000 1718.8740 -7509.1280 294.4101 -9228.0020 -7475.2168 296.4840 347.7872 415.5617 30018.8344 -192.1342 -107.6773
ENERGY: 600000 1.5719 4.5663 2.9245 0.0000 -10701.7799 1452.4809 0.0000 0.0000 1769.4699 -7470.7664 303.0762 -9240.2363 -7460.7488 299.4049 156.5445 212.3245 30106.7496 59.7842 142.0239
ENERGY: 900000 1.8703 7.7523 0.8173 0.0000 -10623.2499 1444.2327 0.0000 0.0000 1729.0071 -7439.5702 296.1457 -9168.5773 -7450.3069 300.2221 42.5947 77.4827 30364.3992 75.6713 145.3724
ENERGY: 1200000 2.6196 6.2335 0.3304 0.0000 -10741.7945 1488.6908 0.0000 0.0000 1747.4390 -7496.4812 299.3027 -9243.9203 -7454.4101 299.4901 693.5416 723.0241 29581.1169 13.7111 79.9062
ENERGY: 1500000 1.9256 7.1562 0.8797 0.0000 -10746.7291 1511.0061 0.0000 0.0000 1783.3206 -7442.4409 305.4485 -9225.7614 -7446.6940 300.1621 489.2428 574.4246 30223.5966 36.1360 104.8792
TCL: Running FEP window  16: Lambda1 0.24999999999999967 Lambda2 0.19999999999999968 [dLambda -0.04999999999999999]
TCL: Setting parameter firsttimestep to 0
TCL: Setting parameter alchLambda to 0.24999999999999967
Info: NONBONDED TABLE R-SQUARED SPACING: 0.0625
Info: NONBONDED TABLE SIZE: 705 POINTS
TCL: Setting parameter alchLambda2 to 0.19999999999999968
Info: NONBONDED TABLE R-SQUARED SPACING: 0.0625
Info: NONBONDED TABLE SIZE: 705 POINTS
TCL: Running for 1500000 steps
ETITLE: TS BOND ANGLE DIHED IMPRP ELECT VDW BOUNDARY MISC KINETIC TOTAL TEMP POTENTIAL TOTALAVG TEMPAVG PRESSURE GPRESSURE VOLUME PRESSAVG GPRESSAVG
ENERGY: 0 1.9256 7.1562 0.8797 0.0000 -10746.7295 1510.3968 0.0000 0.0000 1782.5011 -7443.8700 305.3082 -9226.3711 -7443.8700 305.3082 485.5940 565.2305 30223.5966 485.5940 565.2305
ENERGY: 300000 0.6335 9.3878 0.4725 0.0000 -10683.9645 1425.9243 0.0000 0.0000 1793.6165 -7453.9299 307.2120 -9247.5464 -7433.6424 306.2800 -139.4365 -119.2674 30087.5817 15.7584 86.4780
ENERGY: 600000 1.5338 9.3570 0.2442 0.0000 -10512.5228 1418.6510 0.0000 0.0000 1738.8076 -7343.9291 297.8243 -9082.7367 -7436.8077 302.6402 1.0956 103.0730 30310.2123 -140.3963 -62.1542
ENERGY: 900000 3.5002 6.6928 1.6630 0.0000 -10612.6822 1361.8442 0.0000 0.0000 1760.1136 -7478.8683 301.4736 -9238.9819 -7455.6449 300.0661 -580.9377 -542.8119 29891.4956 -121.3378 -51.4768
ENERGY: 1200000 1.0305 4.7899 0.8073 0.0000 -10693.3597 1487.7297 0.0000 0.0000 1723.5980 -7475.4045 295.2192 -9199.0025 -7457.6681 299.5505 449.9971 496.8772 30101.6724 -164.7321 -94.1448
ENERGY: 1500000 3.2926 8.0635 2.9778 0.0000 -10720.8171 1451.8838 0.0000 0.0000 1663.7020 -7590.8973 284.9602 -9254.5994 -7466.2328 297.6006 -267.0150 -279.3268 30237.6203 -154.5757 -86.2996
TCL: Running FEP window  17: Lambda1 0.19999999999999968 Lambda2 0.1499999999999997 [dLambda -0.04999999999999999]
TCL: Setting parameter firsttimestep to 0
TCL: Setting parameter alchLambda to 0.19999999999999968
Info: NONBONDED TABLE R-SQUARED SPACING: 0.0625
Info: NONBONDED TABLE SIZE: 705 POINTS
TCL: Setting parameter alchLambda2 to 0.1499999999999997
Info: NONBONDED TABLE R-SQUARED SPACING: 0.0625
Info: NONBONDED TABLE SIZE: 705 POINTS
TCL: Running for 1500000 steps
ETITLE: TS BOND ANGLE DIHED IMPRP ELECT VDW BOUNDARY MISC KINETIC TOTAL TEMP POTENTIAL TOTALAVG TEMPAVG PRESSURE GPRESSURE VOLUME PRESSAVG GPRESSAVG
ENERGY: 0 3.2927 8.0635 2.9778 0.0000 -10720.8195 1451.2521 0.0000 0.0000 1662.8317 -7592.4017 284.8111 -9255.2334 -7592.4017 284.8111 -365.5689 -280.8928 30237.6203 -365.5689 -280.8928
ENERGY: 300000 1.5029 6.5238 0.1677 0.0000 -10665.3378 1459.4611 0.0000 0.0000 1767.3402 -7430.3421 302.7114 -9197.6823 -7435.3274 296.8123 -106.9243 -65.9039 30531.3568 -198.1586 -137.1428
ENERGY: 600000 1.9095 3.9972 0.4866 0.0000 -10707.4598 1442.5501 0.0000 0.0000 1729.0041 -7529.5122 296.1452 -9258.5163 -7464.9805 297.6116 -48.5242 -2.3373 30082.8362 -339.4515 -278.2092
ENERGY: 900000 2.3556 2.7886 0.7212 0.0000 -10549.5598 1323.0194 0.0000 0.0000 1748.9408 -7471.7342 299.5599 -9220.6750 -7471.1790 298.0395 -1291.5154 -1267.0487 30835.8328 -430.5228 -375.2721
ENERGY: 1200000 1.7946 4.0396 0.3086 0.0000 -10750.5084 1462.3766 0.0000 0.0000 1757.8397 -7524.1493 301.0841 -9281.9890 -7478.5435 298.4769 -48.3098 7.5302 30104.4739 -318.6103 -253.1826
ENERGY: 1500000 1.0574 8.5057 1.1513 0.0000 -10686.4393 1501.9652 0.0000 0.0000 1785.7792 -7387.9806 305.8696 -9173.7598 -7468.2996 298.6166 496.0155 553.6916 30236.8458 -272.7911 -210.4573
TCL: Running FEP window  18: Lambda1 0.1499999999999997 Lambda2 0.09999999999999969 [dLambda -0.05 ]
TCL: Setting parameter firsttimestep to 0
TCL: Setting parameter alchLambda to 0.1499999999999997
Info: NONBONDED TABLE R-SQUARED SPACING: 0.0625
Info: NONBONDED TABLE SIZE: 705 POINTS
TCL: Setting parameter alchLambda2 to 0.09999999999999969
Info: NONBONDED TABLE R-SQUARED SPACING: 0.0625
Info: NONBONDED TABLE SIZE: 705 POINTS
TCL: Running for 1500000 steps
ETITLE: TS BOND ANGLE DIHED IMPRP ELECT VDW BOUNDARY MISC KINETIC TOTAL TEMP POTENTIAL TOTALAVG TEMPAVG PRESSURE GPRESSURE VOLUME PRESSAVG GPRESSAVG
ENERGY: 0 1.0574 8.5057 1.1513 0.0000 -10686.4405 1502.3172 0.0000 0.0000 1784.9322 -7388.4768 305.7246 -9173.4090 -7388.4768 305.7246 480.8265 553.7782 30236.8458 480.8265 553.7782
ENERGY: 300000 0.3193 7.6885 1.0340 0.0000 -10369.7362 1307.5079 0.0000 0.0000 1744.9095 -7308.2769 298.8694 -9053.1864 -7391.8629 301.9725 -659.6386 -559.9094 30328.4307 -41.7016 50.8287
ENERGY: 600000 0.6915 3.8146 1.0577 0.0000 -10547.9972 1413.0573 0.0000 0.0000 1767.4246 -7361.9515 302.7258 -9129.3761 -7399.4306 303.3911 3.6789 63.9748 30159.2964 -3.1397 86.5105
ENERGY: 900000 2.1847 7.1508 0.9268 0.0000 -10589.5932 1390.8678 0.0000 0.0000 1718.6805 -7469.7825 294.3769 -9188.4630 -7404.8811 302.4290 -386.2291 -365.6606 30289.2062 53.4288 134.9337
ENERGY: 1200000 0.5253 6.3227 0.0642 0.0000 -10689.4392 1453.4001 0.0000 0.0000 1758.5631 -7470.5638 301.2080 -9229.1269 -7420.4868 300.9267 305.4707 346.9654 29825.9241 44.8848 125.7091
ENERGY: 1500000 3.3259 6.6057 0.5847 0.0000 -10669.1750 1443.7370 0.0000 0.0000 1736.4862 -7478.4354 297.4267 -9214.9217 -7426.7843 300.6249 -21.3772 92.5262 29765.0822 -36.4845 44.2467
TCL: Running FEP window  19: Lambda1 0.09999999999999969 Lambda2 0.049999999999999684 [dLambda -0.05 ]
TCL: Setting parameter firsttimestep to 0
TCL: Setting parameter alchLambda to 0.09999999999999969
Info: NONBONDED TABLE R-SQUARED SPACING: 0.0625
Info: NONBONDED TABLE SIZE: 705 POINTS
TCL: Setting parameter alchLambda2 to 0.049999999999999684
Info: NONBONDED TABLE R-SQUARED SPACING: 0.0625
Info: NONBONDED TABLE SIZE: 705 POINTS
TCL: Running for 1500000 steps
ETITLE: TS BOND ANGLE DIHED IMPRP ELECT VDW BOUNDARY MISC KINETIC TOTAL TEMP POTENTIAL TOTALAVG TEMPAVG PRESSURE GPRESSURE VOLUME PRESSAVG GPRESSAVG
ENERGY: 0 3.3259 6.6057 0.5847 0.0000 -10669.1756 1442.7244 0.0000 0.0000 1735.6045 -7480.3304 297.2757 -9215.9349 -7480.3304 297.2757 -5.2669 88.0238 29765.0822 -5.2669 88.0238
ENERGY: 300000 0.9212 7.1372 1.7181 0.0000 -10502.1670 1317.3517 0.0000 0.0000 1766.1451 -7408.8938 302.5067 -9175.0388 -7397.3105 302.7727 -871.7588 -812.5264 30170.0233 -152.7681 -81.8120
ENERGY: 600000 0.6927 5.6401 0.8398 0.0000 -10765.1011 1519.1448 0.0000 0.0000 1715.5641 -7523.2195 293.8431 -9238.7836 -7427.6170 300.1001 630.4615 570.9387 30110.1049 129.6266 179.3877
ENERGY: 900000 1.8006 4.6370 1.1003 0.0000 -10562.9345 1381.0768 0.0000 0.0000 1744.5511 -7429.7687 298.8081 -9174.3199 -7432.4465 299.2832 -644.9740 -543.9047 30520.5684 23.4649 83.1289
ENERGY: 1200000 2.0249 6.0809 0.1501 0.0000 -10582.5483 1387.0690 0.0000 0.0000 1768.0764 -7419.1471 302.8375 -9187.2235 -7448.8403 298.4059 -274.4444 -193.6228 30052.4387 -18.1644 36.8121
ENERGY: 1500000 2.2546 5.4427 0.1431 0.0000 -10671.2318 1458.0390 0.0000 0.0000 1658.0911 -7547.2613 283.9991 -9205.3524 -7451.7428 298.0698 -38.6445 -16.5257 30192.2521 -53.6837 2.0113
TCL: Running FEP window  20: Lambda1 0.049999999999999684 Lambda2 0.0    [dLambda -0.049999999999999684]
TCL: Setting parameter firsttimestep to 0
TCL: Setting parameter alchLambda to 0.049999999999999684
Info: NONBONDED TABLE R-SQUARED SPACING: 0.0625
Info: NONBONDED TABLE SIZE: 705 POINTS
TCL: Setting parameter alchLambda2 to 0.0
Info: NONBONDED TABLE R-SQUARED SPACING: 0.0625
Info: NONBONDED TABLE SIZE: 705 POINTS
TCL: Running for 1500000 steps
ETITLE: TS BOND ANGLE DIHED IMPRP ELECT VDW BOUNDARY MISC KINETIC TOTAL TEMP POTENTIAL TOTALAVG TEMPAVG PRESSURE GPRESSURE VOLUME PRESSAVG GPRESSAVG
ENERGY: 0 2.2546 5.4427 0.1431 0.0000 -10671.2327 1458.3053 0.0000 0.0000 1657.2068 -7547.8801 283.8477 -9205.0870 -7547.8801 283.8477 -96.3257 -17.1877 30192.2521 -96.3257 -17.1877
ENERGY: 300000 3.3442 4.7558 0.9435 0.0000 -10715.1885 1435.6984 0.0000 0.0000 1738.1461 -7532.3005 297.7110 -9270.4465 -7491.5805 296.9324 104.5740 107.4381 29567.9729 191.7192 229.3475
ENERGY: 600000 1.7007 3.9317 0.4007 0.0000 -10602.3538 1432.7797 0.0000 0.0000 1749.5906 -7413.9505 299.6712 -9163.5411 -7460.9138 298.4225 196.3561 241.3912 30097.4302 -39.3505 -7.0873
ENERGY: 900000 4.9706 4.5143 0.7720 0.0000 -10631.8150 1374.1490 0.0000 0.0000 1732.5948 -7514.8143 296.7602 -9247.4091 -7461.1604 299.2132 -660.7015 -585.5570 30003.3390 -91.1302 -53.8276
ENERGY: 1200000 2.2432 3.9419 0.1378 0.0000 -10513.0201 1396.3834 0.0000 0.0000 1763.4331 -7346.8806 302.0422 -9110.3137 -7458.7054 299.6837 -372.1667 -277.1558 30852.2738 -80.0293 -39.8072
ENERGY: 1500000 1.1755 3.2024 0.5478 0.0000 -10650.2390 1458.2332 0.0000 0.0000 1742.0734 -7445.0068 298.3837 -9187.0802 -7450.6486 300.2512 131.6105 294.0918 30207.2108 -53.8384 -3.2780
TCL: Exiting due to exit command.
