Info: SIMULATION PARAMETERS:
Info: TIMESTEP               2
Info: NUMBER OF STEPS        0
Info: STEPS PER CYCLE        10
Info: PERIODIC CELL BASIS 1  31.0032 0 0
Info: PERIODIC CELL BASIS 2  0 29.6013 0
Info: PERIODIC CELL BASIS 3  0 0 32.9608
Info: PERIODIC CELL CENTER   0 0 0
Info: WRAPPING WATERS AROUND PERIODIC BOUNDARIES ON OUTPUT.
Info: WRAPPING ALL CLUSTERS AROUND PERIODIC BOUNDARIES ON OUTPUT.
Info: FIRST LDB TIMESTEP     50
Info: LAST LDB TIMESTEP     -1
Info: HOM BACKGROUND SCALING 1
Info: PME BACKGROUND SCALING 1
Info: MIN ATOMS PER PATCH    40
Info: EMPTY PATCH LOAD       40 ATOMS
Info: VELOCITY FILE          mobley_5948990_equil.vel
Info: CENTER OF MASS MOVING INITIALLY? NO
Info: DIELECTRIC             1
Info: EXCLUDE                SCALED ONE-FOUR
Info: 1-4 ELECTROSTATICS SCALED BY 0.833333
Info: MODIFIED 1-4 VDW PARAMETERS WILL BE USED
Info: DCD FILENAME           mobley_5948990_prod.dcd
Info: DCD FREQUENCY          100000
Info: DCD FIRST STEP         100000
Info: DCD FILE WILL CONTAIN UNIT CELL DATA
Info: XST FILENAME           mobley_5948990_prod.xst
Info: XST FREQUENCY          100000
Info: NO VELOCITY DCD OUTPUT
Info: NO FORCE DCD OUTPUT
Info: OUTPUT FILENAME        mobley_5948990_prod
Info: BINARY OUTPUT FILES WILL BE USED
Info: RESTART FILENAME       mobley_5948990_prod.restart
Info: RESTART FREQUENCY      100000
Info: BINARY RESTART FILES WILL BE USED
Info: CUTOFF                 9
Info: PAIRLIST DISTANCE      11
Info: PAIRLIST SHRINK RATE   0.01
Info: PAIRLIST GROW RATE     0.01
Info: PAIRLIST TRIGGER       0.3
Info: PAIRLISTS PER CYCLE    2
Info: PAIRLISTS ENABLED
Info: MARGIN                 2
Info: HYDROGEN GROUP CUTOFF  2.5
Info: PATCH DIMENSION        15.5
Info: ENERGY OUTPUT STEPS    100000
Info: ENERGY EVALUATION STEPS    100000
Info: OUTPUT ENERGY PRECISION 4
Info: CROSSTERM ENERGY INCLUDED IN DIHEDRAL
Info: TIMING OUTPUT STEPS    1000000
Info: PRESSURE OUTPUT STEPS  100000
Info: ALCHEMICAL FEP ON
Info: FEP CURRENT LAMBDA VALUE     1
Info: FEP COMPARISON LAMBDA VALUE  0.95
Info: FEP INTRA-ALCHEMICAL NON-BONDED INTERACTIONS WILL BE RETAINED
Info: FEP INTRA-ALCHEMICAL BONDED INTERACTIONS WILL BE RETAINED
Info: FEP VDW SHIFTING COEFFICIENT 5
Info: FEP ELEC. ACTIVE FOR ANNIHILATED PARTICLES BETWEEN LAMBDA = 0 AND LAMBDA = 0.5
Info: FEP ELEC. ACTIVE FOR EXNIHILATED PARTICLES BETWEEN LAMBDA = 0.5 AND LAMBDA = 1
Info: FEP VDW ACTIVE FOR ANNIHILATED PARTICLES BETWEEN LAMBDA = 0 AND LAMBDA = 1
Info: FEP VDW ACTIVE FOR EXNIHILATED PARTICLES BETWEEN LAMBDA = 0 AND LAMBDA = 1
Info: FEP BOND ACTIVE FOR ANNIHILATED PARTICLES BETWEEN LAMBDA = 1 AND LAMBDA = 1
Info: FEP BOND ACTIVE FOR EXNIHILATED PARTICLES BETWEEN LAMBDA = 0 AND LAMBDA = 0
Info: LANGEVIN DYNAMICS ACTIVE
Info: LANGEVIN TEMPERATURE   300
Info: LANGEVIN USING BBK INTEGRATOR
Info: LANGEVIN DAMPING COEFFICIENT IS 1 INVERSE PS
Info: LANGEVIN DYNAMICS APPLIED TO HYDROGENS
Info: LANGEVIN PISTON PRESSURE CONTROL ACTIVE
Info:        TARGET PRESSURE IS 1.01325 BAR
Info:     OSCILLATION PERIOD IS 50 FS
Info:             DECAY TIME IS 25 FS
Info:     PISTON TEMPERATURE IS 300 K
Info:       PRESSURE CONTROL IS GROUP-BASED
Info:    INITIAL STRAIN RATE IS 0.000289176 0.000289176 0.000289176
Info:       CELL FLUCTUATION IS ISOTROPIC
Info: PARTICLE MESH EWALD (PME) ACTIVE
Info: PME TOLERANCE               1e-06
Info: PME EWALD COEFFICIENT       0.348832
Info: PME INTERPOLATION ORDER     4
Info: PME GRID DIMENSIONS         32 32 36
Info: PME MAXIMUM GRID SPACING    1
Info: PME CALCULATION WILL BE PERFORMED ON GPU
Info: FULL ELECTROSTATIC EVALUATION FREQUENCY      2
Info: USING VERLET I (r-RESPA) MTS SCHEME.
Info: C1 SPLITTING OF LONG RANGE ELECTROSTATICS
Info: PLACING ATOMS IN PATCHES BY HYDROGEN GROUPS
Info: RIGID BONDS TO HYDROGEN : ALL
Info:         ERROR TOLERANCE : 1e-08
Info:          MAX ITERATIONS : 100
Info: RIGID WATER USING SETTLE ALGORITHM
Info: RANDOM NUMBER SEED     1743757481
Info: USE HYDROGEN BONDS?    NO
Info: Using AMBER format force field!
Info: AMBER PARM FILE        mobley_5948990.prmtop
Info: COORDINATE PDB         mobley_5948990.pdb
Info: Exclusions will be read from PARM file!
Info: SCNB (VDW SCALING)     2
Info: USING ARITHMETIC MEAN TO COMBINE L-J SIGMA PARAMETERS
Info: BINARY COORDINATES     mobley_5948990_equil.coor
Info: SUMMARY OF PARAMETERS:
Info: 8 BONDS
Info: 8 ANGLES
Info:   8 HARMONIC
Info:   0 COSINE-BASED
Info: 4 DIHEDRAL
Info: 0 IMPROPER
Info: 0 CROSSTERM
Info: 0 VDW
Info: 28 VDW_PAIRS
Info: 0 NBTHOLE_PAIRS
Info: To read alchdata from file: mobley_5948990.pdb
Info: To read alchflag data from column: 5
Info: STRUCTURE SUMMARY:
Info: 2950 ATOMS
Info: 2950 BONDS
Info: 24 ANGLES
Info: 39 DIHEDRALS
Info: 0 IMPROPERS
Info: 0 CROSSTERMS
Info: 3003 EXCLUSIONS
Info: 2940 RIGID BONDS
Info: ALCH: 0 ATOMS TO DISAPPEAR IN FINAL STATE
Info: ALCH: 16 ATOMS TO APPEAR IN FINAL STATE
Info: 5910 DEGREES OF FREEDOM
Info: 988 HYDROGEN GROUPS
Info: 3 ATOMS IN LARGEST HYDROGEN GROUP
Info: 988 MIGRATION GROUPS
Info: 3 ATOMS IN LARGEST MIGRATION GROUP
Info: TOTAL MASS = 17757.8 amu
Info: TOTAL CHARGE = -0.000100024 e
Info: MASS DENSITY = 0.974837 g/cm^3
Info: ATOM DENSITY = 0.0975228 atoms/A^3
Info: ADDED 0 IMPLICIT EXCLUSIONS
Info: NONBONDED TABLE R-SQUARED SPACING: 0.0625
Info: NONBONDED TABLE SIZE: 705 POINTS
Info: REMOVING COM VELOCITY -0.263155 -0.0347833 0.200694
Info: Use 3D box decompostion in PME FFT.
Info: Updated CUDA force table with 4096 elements.
Info: Updated CUDA LJ table with 7 x 7 elements.
Info: Found 18 unique exclusion lists needing 40 bytes
TCL: Running for 1500000 steps
ETITLE: TS BOND ANGLE DIHED IMPRP ELECT VDW BOUNDARY MISC KINETIC TOTAL TEMP POTENTIAL TOTALAVG TEMPAVG PRESSURE GPRESSURE VOLUME PRESSAVG GPRESSAVG
ENERGY: 0 4.1508 3.4713 9.3675 0.0000 -10746.1934 1438.2396 0.0000 0.0000 1793.6513 -7497.3130 305.4506 -9290.9643 -7497.3130 305.4506 47.5310 117.8280 30249.3224 47.5310 117.8280
ENERGY: 300000 3.3825 7.1204 8.2492 0.0000 -10855.6834 1535.6237 0.0000 0.0000 1737.4104 -7563.8971 295.8730 -9301.3075 -7544.6223 298.9724 467.6139 518.5339 30589.3594 137.0879 172.7447
ENERGY: 600000 3.1777 7.7902 3.9593 0.0000 -10723.4543 1413.6757 0.0000 0.0000 1724.4557 -7570.3958 293.6669 -9294.8515 -7524.3732 300.4809 -154.9150 -168.5174 30364.4034 155.5465 184.2583
ENERGY: 900000 3.0166 4.4161 7.2952 0.0000 -10602.8241 1388.3169 0.0000 0.0000 1776.7621 -7423.0171 302.5744 -9199.7793 -7510.9413 301.0920 18.1226 -23.5849 30497.6123 127.0558 145.8561
ENERGY: 1200000 2.7188 2.4661 8.3800 0.0000 -10743.5140 1432.9038 0.0000 0.0000 1752.4484 -7544.5969 298.4339 -9297.0453 -7513.1859 301.0652 273.0871 285.9090 29768.3652 153.1831 181.3675
ENERGY: 1500000 4.8427 5.7258 6.5330 0.0000 -10720.5586 1428.1851 0.0000 0.0000 1712.9514 -7562.3205 291.7077 -9275.2720 -7510.1386 300.4555 -244.4136 -195.4940 30514.8006 61.4461 95.7862
TCL: Running FEP window   2: Lambda1 0.95   Lambda2 0.8999999999999999 [dLambda -0.050000000000000044]
TCL: Setting parameter firsttimestep to 0
TCL: Setting parameter alchLambda to 0.95
Info: NONBONDED TABLE R-SQUARED SPACING: 0.0625
Info: NONBONDED TABLE SIZE: 705 POINTS
TCL: Setting parameter alchLambda2 to 0.8999999999999999
Info: NONBONDED TABLE R-SQUARED SPACING: 0.0625
Info: NONBONDED TABLE SIZE: 705 POINTS
TCL: Running for 1500000 steps
ETITLE: TS BOND ANGLE DIHED IMPRP ELECT VDW BOUNDARY MISC KINETIC TOTAL TEMP POTENTIAL TOTALAVG TEMPAVG PRESSURE GPRESSURE VOLUME PRESSAVG GPRESSAVG
ENERGY: 0 4.8427 5.7258 6.5330 0.0000 -10718.1001 1426.9156 0.0000 0.0000 1712.0959 -7561.9871 291.5620 -9274.0830 -7561.9871 291.5620 -302.4021 -220.6435 30514.8006 -302.4021 -220.6435
ENERGY: 300000 4.8777 2.9047 6.6614 0.0000 -10699.7483 1394.6529 0.0000 0.0000 1771.7853 -7518.8663 301.7269 -9290.6516 -7507.4456 298.9216 -412.0916 -312.4621 30313.8848 -575.2532 -511.0935
ENERGY: 600000 3.2892 5.0296 4.7263 0.0000 -10598.7396 1353.5089 0.0000 0.0000 1741.7276 -7490.4580 296.6082 -9232.1856 -7490.6315 298.7771 -349.3608 -290.3792 30581.8790 -426.0791 -354.6716
ENERGY: 900000 3.3633 2.4535 7.2364 0.0000 -10661.7629 1418.0561 0.0000 0.0000 1765.1493 -7465.5043 300.5968 -9230.6536 -7491.2531 299.7826 -360.4587 -292.6335 31049.0590 -416.7516 -345.1296
ENERGY: 1200000 3.8786 5.6179 2.8473 0.0000 -10708.8922 1406.5995 0.0000 0.0000 1795.4158 -7494.5331 305.7510 -9289.9489 -7487.8484 300.8964 -481.0198 -459.5395 30889.2342 -375.5184 -311.0328
ENERGY: 1500000 3.4321 6.1858 3.6213 0.0000 -10703.5424 1429.5283 0.0000 0.0000 1785.8357 -7474.9392 304.1196 -9260.7749 -7486.6834 300.6668 83.9803 94.6198 30609.9807 -294.6392 -231.8535
TCL: Running FEP window   3: Lambda1 0.8999999999999999 Lambda2 0.8499999999999999 [dLambda -0.050000000000000044]
TCL: Setting parameter firsttimestep to 0
TCL: Setting parameter alchLambda to 0.8999999999999999
Info: NONBONDED TABLE R-SQUARED SPACING: 0.0625
Info: NONBONDED TABLE SIZE: 705 POINTS
TCL: Setting parameter alchLambda2 to 0.8499999999999999
Info: NONBONDED TABLE R-SQUARED SPACING: 0.0625
Info: NONBONDED TABLE SIZE: 705 POINTS
TCL: Running for 1500000 steps
ETITLE: TS BOND ANGLE DIHED IMPRP ELECT VDW BOUNDARY MISC KINETIC TOTAL TEMP POTENTIAL TOTALAVG TEMPAVG PRESSURE GPRESSURE VOLUME PRESSAVG GPRESSAVG
ENERGY: 0 3.4321 6.1858 3.6213 0.0000 -10701.5866 1429.4176 0.0000 0.0000 1784.9706 -7473.9591 303.9723 -9258.9297 -7473.9591 303.9723 19.0718 83.5877 30609.9807 19.0718 83.5877
ENERGY: 300000 6.6253 5.7821 4.1362 0.0000 -10678.8689 1429.2254 0.0000 0.0000 1709.2417 -7523.8581 291.0760 -9233.0998 -7490.3825 299.0090 231.5545 210.4818 30182.2883 7.7621 16.9064
ENERGY: 600000 5.6505 5.2015 8.1624 0.0000 -10609.1575 1395.8375 0.0000 0.0000 1813.1636 -7381.1419 308.7734 -9194.3056 -7478.0352 299.7627 84.2840 118.5822 30290.1907 -98.4755 -63.4868
ENERGY: 900000 3.2869 5.5287 9.3077 0.0000 -10955.9603 1593.8071 0.0000 0.0000 1790.6088 -7553.4212 304.9324 -9344.0299 -7484.3275 300.7797 1042.9448 1068.7744 30340.4371 -17.4116 26.5393
ENERGY: 1200000 4.7802 3.4715 9.8373 0.0000 -10674.5968 1402.6684 0.0000 0.0000 1748.0039 -7505.8356 297.6770 -9253.8395 -7494.2228 300.5485 -133.8000 -83.4987 30424.3619 -13.6216 33.9322
ENERGY: 1500000 1.3775 4.7718 7.8945 0.0000 -10823.5045 1469.2615 0.0000 0.0000 1765.1382 -7575.0610 300.5949 -9340.1992 -7504.9992 300.1171 131.2162 196.7183 30149.7413 -22.5636 23.4135
TCL: Running FEP window   4: Lambda1 0.8499999999999999 Lambda2 0.7999999999999998 [dLambda -0.050000000000000044]
TCL: Setting parameter firsttimestep to 0
TCL: Setting parameter alchLambda to 0.8499999999999999
Info: NONBONDED TABLE R-SQUARED SPACING: 0.0625
Info: NONBONDED TABLE SIZE: 705 POINTS
TCL: Setting parameter alchLambda2 to 0.7999999999999998
Info: NONBONDED TABLE R-SQUARED SPACING: 0.0625
Info: NONBONDED TABLE SIZE: 705 POINTS
TCL: Running for 1500000 steps
ETITLE: TS BOND ANGLE DIHED IMPRP ELECT VDW BOUNDARY MISC KINETIC TOTAL TEMP POTENTIAL TOTALAVG TEMPAVG PRESSURE GPRESSURE VOLUME PRESSAVG GPRESSAVG
ENERGY: 0 1.3775 4.7718 7.8945 0.0000 -10821.6249 1468.3529 0.0000 0.0000 1764.2758 -7574.9524 300.4480 -9339.2281 -7574.9524 300.4480 78.3614 175.2432 30149.7413 78.3614 175.2432
ENERGY: 300000 4.3673 4.4833 7.0919 0.0000 -10740.9438 1448.1355 0.0000 0.0000 1786.2486 -7490.6172 304.1899 -9276.8658 -7541.7419 296.8924 271.3511 346.4061 30072.9307 -399.0851 -318.0031
ENERGY: 600000 2.7435 6.8420 6.9759 0.0000 -10761.9086 1445.9007 0.0000 0.0000 1701.5083 -7597.9382 289.7590 -9299.4465 -7544.8580 297.3893 -192.6533 -149.5111 30553.7347 -437.9084 -357.7572
ENERGY: 900000 6.6919 5.4717 6.1608 0.0000 -10836.7777 1493.0844 0.0000 0.0000 1734.3692 -7590.9997 295.3551 -9325.3689 -7543.9078 296.8080 117.2582 142.1541 30664.3833 -425.0128 -348.8374
ENERGY: 1200000 3.3080 4.2742 6.2511 0.0000 -10726.0889 1442.6622 0.0000 0.0000 1766.6791 -7502.9144 300.8573 -9269.5935 -7543.4303 297.9236 -37.3590 37.0202 30616.4808 -326.2673 -257.0026
ENERGY: 1500000 5.3208 5.6644 6.6092 0.0000 -10787.8340 1452.3439 0.0000 0.0000 1781.6854 -7536.2103 303.4128 -9317.8956 -7537.7321 299.1460 79.9638 172.6787 30161.4939 -249.3883 -176.3185
TCL: Running FEP window   5: Lambda1 0.7999999999999998 Lambda2 0.7499999999999998 [dLambda -0.050000000000000044]
TCL: Setting parameter firsttimestep to 0
TCL: Setting parameter alchLambda to 0.7999999999999998
Info: NONBONDED TABLE R-SQUARED SPACING: 0.0625
Info: NONBONDED TABLE SIZE: 705 POINTS
TCL: Setting parameter alchLambda2 to 0.7499999999999998
Info: NONBONDED TABLE R-SQUARED SPACING: 0.0625
Info: NONBONDED TABLE SIZE: 705 POINTS
TCL: Running for 1500000 steps
ETITLE: TS BOND ANGLE DIHED IMPRP ELECT VDW BOUNDARY MISC KINETIC TOTAL TEMP POTENTIAL TOTALAVG TEMPAVG PRESSURE GPRESSURE VOLUME PRESSAVG GPRESSAVG
ENERGY: 0 5.3208 5.6644 6.6092 0.0000 -10786.4756 1452.8887 0.0000 0.0000 1780.7742 -7535.2183 303.2576 -9315.9925 -7535.2183 303.2576 89.3479 168.3923 30161.4939 89.3479 168.3923
ENERGY: 300000 6.0365 4.8620 7.6599 0.0000 -10606.9491 1385.8855 0.0000 0.0000 1839.0143 -7363.4908 313.1757 -9202.5051 -7444.3644 306.7794 -240.2582 -222.7726 30837.4391 -42.0235 -17.6564
ENERGY: 600000 4.6765 2.0913 7.5820 0.0000 -10625.7154 1424.5938 0.0000 0.0000 1725.6778 -7461.0940 293.8750 -9186.7718 -7464.7924 302.8455 212.9779 314.6880 30344.6953 8.7389 49.8407
ENERGY: 900000 6.0338 6.5524 8.3475 0.0000 -10873.1067 1499.8576 0.0000 0.0000 1739.2126 -7613.1028 296.1799 -9352.3154 -7489.1305 301.6322 358.7310 393.3729 30151.4931 92.3476 135.8264
ENERGY: 1200000 4.8679 5.6661 6.6302 0.0000 -10799.8824 1408.0099 0.0000 0.0000 1787.8119 -7586.8963 304.4561 -9374.7083 -7496.1196 301.8581 -389.5932 -318.4116 30406.6730 83.1228 134.7156
ENERGY: 1500000 5.8387 5.7895 5.2858 0.0000 -10756.3953 1492.2297 0.0000 0.0000 1694.1395 -7553.1121 288.5042 -9247.2516 -7502.7603 300.5460 683.0269 747.8631 30041.9905 162.5512 219.5527
TCL: Running FEP window   6: Lambda1 0.7499999999999998 Lambda2 0.6999999999999997 [dLambda -0.050000000000000044]
TCL: Setting parameter firsttimestep to 0
TCL: Setting parameter alchLambda to 0.7499999999999998
Info: NONBONDED TABLE R-SQUARED SPACING: 0.0625
Info: NONBONDED TABLE SIZE: 705 POINTS
TCL: Setting parameter alchLambda2 to 0.6999999999999997
Info: NONBONDED TABLE R-SQUARED SPACING: 0.0625
Info: NONBONDED TABLE SIZE: 705 POINTS
TCL: Running for 1500000 steps
ETITLE: TS BOND ANGLE DIHED IMPRP ELECT VDW BOUNDARY MISC KINETIC TOTAL TEMP POTENTIAL TOTALAVG TEMPAVG PRESSURE GPRESSURE VOLUME PRESSAVG GPRESSAVG
ENERGY: 0 5.8387 5.7895 5.2858 0.0000 -10754.7427 1492.5622 0.0000 0.0000 1693.2596 -7552.0068 288.3543 -9245.2665 -7552.0068 288.3543 655.7372 743.4057 30041.9905 655.7372 743.4057
ENERGY: 300000 1.2855 4.6679 8.9203 0.0000 -10708.1299 1419.6620 0.0000 0.0000 1769.0400 -7504.5542 301.2594 -9273.5943 -7511.3137 297.3150 -181.4464 -157.1785 30299.3214 185.2580 229.6663
ENERGY: 600000 1.5766 3.6511 6.7564 0.0000 -10685.3669 1440.9323 0.0000 0.0000 1737.4304 -7495.0201 295.8764 -9232.4506 -7499.1072 296.6967 67.8701 113.5278 30289.3491 172.2801 217.5203
ENERGY: 900000 1.8466 4.4787 6.4795 0.0000 -10707.0580 1421.9646 0.0000 0.0000 1766.8628 -7505.4257 300.8886 -9272.2886 -7513.8184 297.2261 -122.0251 -67.9988 30186.7416 43.6570 93.3413
ENERGY: 1200000 3.4962 4.3858 5.4294 0.0000 -10683.5500 1421.9543 0.0000 0.0000 1768.4106 -7479.8738 301.1522 -9248.2844 -7516.3352 297.5115 101.8524 142.4771 30402.2146 58.4574 117.1156
ENERGY: 1500000 1.7885 3.6736 4.7047 0.0000 -10618.8217 1353.5432 0.0000 0.0000 1757.5496 -7497.5621 299.3026 -9255.1117 -7502.6009 299.4729 -653.3714 -544.9496 30535.7730 44.5887 103.3354
TCL: Running FEP window   7: Lambda1 0.6999999999999997 Lambda2 0.6499999999999997 [dLambda -0.050000000000000044]
TCL: Setting parameter firsttimestep to 0
TCL: Setting parameter alchLambda to 0.6999999999999997
Info: NONBONDED TABLE R-SQUARED SPACING: 0.0625
Info: NONBONDED TABLE SIZE: 705 POINTS
TCL: Setting parameter alchLambda2 to 0.6499999999999997
Info: NONBONDED TABLE R-SQUARED SPACING: 0.0625
Info: NONBONDED TABLE SIZE: 705 POINTS
TCL: Running for 1500000 steps
ETITLE: TS BOND ANGLE DIHED IMPRP ELECT VDW BOUNDARY MISC KINETIC TOTAL TEMP POTENTIAL TOTALAVG TEMPAVG PRESSURE GPRESSURE VOLUME PRESSAVG GPRESSAVG
ENERGY: 0 1.7885 3.6736 4.7047 0.0000 -10617.4000 1353.4738 0.0000 0.0000 1756.6734 -7497.0860 299.1534 -9253.7595 -7497.0860 299.1534 -619.1131 -551.3198 30535.7730 -619.1131 -551.3198
ENERGY: 300000 3.6593 4.1606 7.6661 0.0000 -10532.3431 1242.9609 0.0000 0.0000 1677.8296 -7596.0667 285.7266 -9273.8963 -7525.8480 293.9588 -1279.3096 -1260.8190 30025.7657 -563.2949 -515.6380
ENERGY: 600000 5.9547 3.3298 5.9179 0.0000 -10768.7665 1461.5339 0.0000 0.0000 1756.1293 -7535.9009 299.0607 -9292.0301 -7547.9940 295.7012 -121.1143 -53.6292 30391.9369 -296.7663 -257.2793
ENERGY: 900000 2.2474 2.6691 7.6166 0.0000 -10536.5875 1369.9741 0.0000 0.0000 1720.4717 -7433.6086 292.9884 -9154.0803 -7529.2816 296.4917 -205.3482 -213.6671 30743.0756 -364.2279 -322.7782
ENERGY: 1200000 5.2869 4.2851 3.2747 0.0000 -10675.8926 1413.1454 0.0000 0.0000 1748.6879 -7501.2125 297.7935 -9249.9005 -7535.2482 296.6147 -513.4808 -426.1464 30678.9809 -218.4302 -174.4333
ENERGY: 1500000 1.7502 4.3801 5.6590 0.0000 -10656.3200 1382.6507 0.0000 0.0000 1734.3390 -7527.5411 295.3499 -9261.8800 -7528.7386 297.3384 -542.5260 -520.0483 30614.5488 -119.1881 -72.4033
TCL: Running FEP window   8: Lambda1 0.6499999999999997 Lambda2 0.5999999999999996 [dLambda -0.050000000000000044]
TCL: Setting parameter firsttimestep to 0
TCL: Setting parameter alchLambda to 0.6499999999999997
Info: NONBONDED TABLE R-SQUARED SPACING: 0.0625
Info: NONBONDED TABLE SIZE: 705 POINTS
TCL: Setting parameter alchLambda2 to 0.5999999999999996
Info: NONBONDED TABLE R-SQUARED SPACING: 0.0625
Info: NONBONDED TABLE SIZE: 705 POINTS
TCL: Running for 1500000 steps
ETITLE: TS BOND ANGLE DIHED IMPRP ELECT VDW BOUNDARY MISC KINETIC TOTAL TEMP POTENTIAL TOTALAVG TEMPAVG PRESSURE GPRESSURE VOLUME PRESSAVG GPRESSAVG
ENERGY: 0 1.7502 4.3801 5.6590 0.0000 -10654.5094 1381.9864 0.0000 0.0000 1733.4234 -7527.3103 295.1940 -9260.7337 -7527.3103 295.1940 -601.4326 -531.4618 30614.5488 -601.4326 -531.4618
ENERGY: 300000 0.9649 2.4610 7.7545 0.0000 -10665.5017 1373.4663 0.0000 0.0000 1764.8315 -7516.0236 300.5427 -9280.8551 -7520.9159 299.0318 -394.2401 -316.1151 30258.9811 -383.4961 -336.4864
ENERGY: 600000 3.9189 2.7094 6.6639 0.0000 -10820.4985 1424.7808 0.0000 0.0000 1815.9300 -7566.4954 309.2445 -9382.4254 -7533.2406 300.5759 -407.5160 -252.5286 29897.3964 -273.7764 -198.7755
ENERGY: 900000 3.6702 4.6104 8.9091 0.0000 -10776.5381 1484.9849 0.0000 0.0000 1745.1317 -7529.2318 297.1879 -9274.3635 -7530.8370 300.4752 45.6497 130.4777 30664.5544 -85.4628 -11.2446
ENERGY: 1200000 7.6580 5.6874 6.9327 0.0000 -10748.5893 1416.1618 0.0000 0.0000 1809.2095 -7502.9399 308.1000 -9312.1494 -7513.2838 302.2534 -511.6907 -468.4475 30509.0030 -195.8239 -126.4041
ENERGY: 1500000 4.9981 6.5743 3.7140 0.0000 -10749.4493 1404.2602 0.0000 0.0000 1785.6965 -7544.2061 304.0959 -9329.9026 -7510.7299 302.1181 -569.6664 -510.3099 30145.5418 -228.1487 -164.4072
TCL: Running FEP window   9: Lambda1 0.5999999999999996 Lambda2 0.5499999999999996 [dLambda -0.050000000000000044]
TCL: Setting parameter firsttimestep to 0
TCL: Setting parameter alchLambda to 0.5999999999999996
Info: NONBONDED TABLE R-SQUARED SPACING: 0.0625
Info: NONBONDED TABLE SIZE: 705 POINTS
TCL: Setting parameter alchLambda2 to 0.5499999999999996
Info: NONBONDED TABLE R-SQUARED SPACING: 0.0625
Info: NONBONDED TABLE SIZE: 705 POINTS
TCL: Running for 1500000 steps
ETITLE: TS BOND ANGLE DIHED IMPRP ELECT VDW BOUNDARY MISC KINETIC TOTAL TEMP POTENTIAL TOTALAVG TEMPAVG PRESSURE GPRESSURE VOLUME PRESSAVG GPRESSAVG
ENERGY: 0 4.9981 6.5743 3.7140 0.0000 -10748.8095 1404.6524 0.0000 0.0000 1784.8090 -7544.0617 303.9447 -9328.8707 -7544.0617 303.9447 -601.9507 -510.0971 30145.5418 -601.9507 -510.0971
ENERGY: 300000 3.6003 7.2955 4.0730 0.0000 -10677.3121 1369.9575 0.0000 0.0000 1763.5368 -7528.8490 300.3222 -9292.3857 -7523.8227 303.0357 -793.9801 -686.4301 30421.9186 -540.3793 -455.8327
ENERGY: 600000 3.5741 4.8665 4.6062 0.0000 -10729.0479 1453.0577 0.0000 0.0000 1783.7036 -7479.2396 303.7565 -9262.9433 -7509.9619 299.8089 236.6984 288.6298 30316.2713 -378.1068 -306.7713
ENERGY: 900000 4.0998 2.8380 5.8277 0.0000 -10865.1363 1531.9501 0.0000 0.0000 1773.1591 -7547.2616 301.9608 -9320.4207 -7504.6823 300.8539 678.9002 742.7819 30122.1753 -224.2558 -165.2977
ENERGY: 1200000 3.2066 5.1858 5.0246 0.0000 -10786.2282 1476.5066 0.0000 0.0000 1759.6228 -7536.6819 299.6557 -9296.3047 -7507.1773 301.6347 -5.9494 80.5077 30469.2883 -130.3498 -72.5374
ENERGY: 1500000 2.4446 3.2870 6.7592 0.0000 -10836.2680 1486.6180 0.0000 0.0000 1749.3234 -7587.8358 297.9017 -9337.1592 -7506.3275 301.4235 286.2328 338.6198 30252.9178 -117.2649 -57.8450
TCL: Running FEP window  10: Lambda1 0.5499999999999996 Lambda2 0.4999999999999996 [dLambda -0.04999999999999999]
TCL: Setting parameter firsttimestep to 0
TCL: Setting parameter alchLambda to 0.5499999999999996
Info: NONBONDED TABLE R-SQUARED SPACING: 0.0625
Info: NONBONDED TABLE SIZE: 705 POINTS
TCL: Setting parameter alchLambda2 to 0.4999999999999996
Info: NONBONDED TABLE R-SQUARED SPACING: 0.0625
Info: NONBONDED TABLE SIZE: 705 POINTS
TCL: Running for 1500000 steps
ETITLE: TS BOND ANGLE DIHED IMPRP ELECT VDW BOUNDARY MISC KINETIC TOTAL TEMP POTENTIAL TOTALAVG TEMPAVG PRESSURE GPRESSURE VOLUME PRESSAVG GPRESSAVG
ENERGY: 0 2.4446 3.2870 6.7592 0.0000 -10835.0244 1487.1412 0.0000 0.0000 1748.4406 -7586.9518 297.7514 -9335.3924 -7586.9518 297.7514 261.5934 337.6766 30252.9178 261.5934 337.6766
ENERGY: 300000 3.5814 3.1412 5.0781 0.0000 -10731.8362 1471.9878 0.0000 0.0000 1800.4764 -7447.5713 306.6128 -9248.0477 -7496.4908 303.5431 436.4099 523.3916 30343.5315 -155.1477 -91.0492
ENERGY: 600000 1.0438 6.2967 6.6102 0.0000 -10699.5280 1408.8175 0.0000 0.0000 1789.6926 -7487.0672 304.7764 -9276.7598 -7509.8584 301.2849 -415.7912 -313.0397 30571.4163 -238.9571 -167.3270
ENERGY: 900000 4.9523 6.0218 5.8817 0.0000 -10803.3586 1452.6589 0.0000 0.0000 1736.1864 -7597.6575 295.6645 -9333.8439 -7532.0789 300.6562 -47.0834 12.9974 30085.3346 -167.2273 -102.6404
ENERGY: 1200000 3.0403 4.3727 7.7165 0.0000 -10827.8603 1491.6975 0.0000 0.0000 1758.7412 -7562.2921 299.5055 -9321.0333 -7530.0002 300.2353 331.4819 379.9431 30086.6410 -183.8900 -120.6064
ENERGY: 1500000 2.6092 5.0304 6.4259 0.0000 -10715.9239 1413.9924 0.0000 0.0000 1718.8821 -7568.9839 292.7177 -9287.8660 -7529.0089 299.0060 -192.6626 -117.3829 30260.0286 -149.8144 -86.2291
TCL: Running FEP window  11: Lambda1 0.4999999999999996 Lambda2 0.4499999999999996 [dLambda -0.04999999999999999]
TCL: Setting parameter firsttimestep to 0
TCL: Setting parameter alchLambda to 0.4999999999999996
Info: NONBONDED TABLE R-SQUARED SPACING: 0.0625
Info: NONBONDED TABLE SIZE: 705 POINTS
TCL: Setting parameter alchLambda2 to 0.4499999999999996
Info: NONBONDED TABLE R-SQUARED SPACING: 0.0625
Info: NONBONDED TABLE SIZE: 705 POINTS
TCL: Running for 1500000 steps
ETITLE: TS BOND ANGLE DIHED IMPRP ELECT VDW BOUNDARY MISC KINETIC TOTAL TEMP POTENTIAL TOTALAVG TEMPAVG PRESSURE GPRESSURE VOLUME PRESSAVG GPRESSAVG
ENERGY: 0 2.6092 5.0303 6.4259 0.0000 -10716.1177 1413.9916 0.0000 0.0000 1718.0248 -7570.0358 292.5717 -9288.0606 -7570.0358 292.5717 -218.3427 -127.1447 30260.0286 -218.3427 -127.1447
ENERGY: 300000 3.7710 4.8904 8.5124 0.0000 -10908.6508 1572.4033 0.0000 0.0000 1728.3712 -7590.7025 294.3337 -9319.0737 -7548.6373 293.6002 766.2127 894.0627 30280.2372 -25.7153 52.9067
ENERGY: 600000 2.0110 6.2544 4.5636 0.0000 -10613.8302 1411.8698 0.0000 0.0000 1779.0442 -7410.0871 302.9630 -9189.1313 -7509.6173 297.2594 48.8859 140.2906 30377.4168 155.5904 235.1097
ENERGY: 900000 3.6795 4.0120 4.8041 0.0000 -10715.7718 1452.2429 0.0000 0.0000 1782.9533 -7468.0800 303.6287 -9251.0333 -7515.4801 298.5294 52.7503 23.5006 30317.9007 112.5924 174.7735
ENERGY: 1200000 1.5301 5.3710 7.3163 0.0000 -10820.4338 1486.2235 0.0000 0.0000 1772.7422 -7547.2507 301.8898 -9319.9929 -7531.1296 297.9610 502.6720 494.5171 30058.8905 119.7431 177.3273
ENERGY: 1500000 6.2914 9.4121 6.7944 0.0000 -10780.9980 1424.0122 0.0000 0.0000 1741.9440 -7592.5439 296.6450 -9334.4879 -7527.7387 298.2316 -220.4402 -150.7370 30112.2194 63.2446 122.9609
TCL: Running FEP window  12: Lambda1 0.4499999999999996 Lambda2 0.39999999999999963 [dLambda -0.04999999999999999]
TCL: Setting parameter firsttimestep to 0
TCL: Setting parameter alchLambda to 0.4499999999999996
Info: NONBONDED TABLE R-SQUARED SPACING: 0.0625
Info: NONBONDED TABLE SIZE: 705 POINTS
TCL: Setting parameter alchLambda2 to 0.39999999999999963
Info: NONBONDED TABLE R-SQUARED SPACING: 0.0625
Info: NONBONDED TABLE SIZE: 705 POINTS
TCL: Running for 1500000 steps
ETITLE: TS BOND ANGLE DIHED IMPRP ELECT VDW BOUNDARY MISC KINETIC TOTAL TEMP POTENTIAL TOTALAVG TEMPAVG PRESSURE GPRESSURE VOLUME PRESSAVG GPRESSAVG
ENERGY: 0 6.2914 9.4121 6.7944 0.0000 -10780.9979 1424.0884 0.0000 0.0000 1741.0960 -7593.3156 296.5006 -9334.4116 -7593.3156 296.5006 -237.0122 -156.0626 30112.2194 -237.0122 -156.0626
ENERGY: 300000 7.2032 4.5750 2.6116 0.0000 -10747.6085 1484.3065 0.0000 0.0000 1811.1284 -7437.7837 308.4268 -9248.9121 -7480.7987 302.6829 303.9753 326.1949 30395.1104 101.1642 123.4480
ENERGY: 600000 6.7028 3.7377 4.4781 0.0000 -10448.1649 1294.3345 0.0000 0.0000 1762.4038 -7376.5080 300.1293 -9138.9118 -7462.7983 300.5720 -1101.2435 -1060.0151 30761.3755 -148.3597 -135.8201
ENERGY: 900000 1.8273 4.6734 5.7706 0.0000 -10684.6598 1407.0985 0.0000 0.0000 1768.1408 -7497.1491 301.1062 -9265.2899 -7481.0115 301.7126 -254.2701 -249.2345 30518.7984 -113.9756 -88.1394
ENERGY: 1200000 4.4690 3.5040 8.3510 0.0000 -10803.5271 1447.4364 0.0000 0.0000 1784.5616 -7555.2049 303.9026 -9339.7665 -7486.8846 301.6889 -52.8388 -19.0785 30221.0550 -66.6968 -36.2409
ENERGY: 1500000 1.6341 3.1562 8.1357 0.0000 -10756.7205 1501.4297 0.0000 0.0000 1757.6357 -7484.7291 299.3173 -9242.3648 -7492.6379 300.9695 549.1030 589.9811 30206.8976 -18.1146 18.4407
TCL: Running FEP window  13: Lambda1 0.39999999999999963 Lambda2 0.34999999999999964 [dLambda -0.04999999999999999]
TCL: Setting parameter firsttimestep to 0
TCL: Setting parameter alchLambda to 0.39999999999999963
Info: NONBONDED TABLE R-SQUARED SPACING: 0.0625
Info: NONBONDED TABLE SIZE: 705 POINTS
TCL: Setting parameter alchLambda2 to 0.34999999999999964
Info: NONBONDED TABLE R-SQUARED SPACING: 0.0625
Info: NONBONDED TABLE SIZE: 705 POINTS
TCL: Running for 1500000 steps
ETITLE: TS BOND ANGLE DIHED IMPRP ELECT VDW BOUNDARY MISC KINETIC TOTAL TEMP POTENTIAL TOTALAVG TEMPAVG PRESSURE GPRESSURE VOLUME PRESSAVG GPRESSAVG
ENERGY: 0 1.6341 3.1562 8.1357 0.0000 -10756.7204 1501.5867 0.0000 0.0000 1756.7571 -7485.4507 299.1676 -9242.2077 -7485.4507 299.1676 510.8261 587.0197 30206.8976 510.8261 587.0197
ENERGY: 300000 4.4643 3.1434 10.1363 0.0000 -10758.0073 1411.6040 0.0000 0.0000 1763.1202 -7565.5391 300.2512 -9328.6593 -7495.3075 300.7588 -395.5096 -347.9826 30503.7565 -274.6768 -221.5681
ENERGY: 600000 3.7202 3.9294 4.1269 0.0000 -10754.6735 1532.1713 0.0000 0.0000 1801.1753 -7409.5504 306.7319 -9210.7257 -7484.4886 300.4562 987.2874 980.4249 30187.7148 -85.0889 -42.3657
ENERGY: 900000 2.3015 3.8628 4.2194 0.0000 -10746.1362 1510.2599 0.0000 0.0000 1769.6671 -7455.8254 301.3662 -9225.4925 -7483.2954 301.2984 807.0988 877.4825 30210.3068 41.7990 90.7346
ENERGY: 1200000 2.3638 4.7445 5.2321 0.0000 -10682.4071 1432.9481 0.0000 0.0000 1780.9054 -7456.2132 303.2800 -9237.1186 -7483.7467 301.1304 -251.5131 -138.6311 30599.3624 -101.8969 -39.4231
ENERGY: 1500000 0.8186 2.8213 8.6117 0.0000 -10764.5368 1458.1423 0.0000 0.0000 1817.0941 -7477.0487 309.4428 -9294.1428 -7478.4129 302.5868 -45.9018 -2.6793 30339.8307 -101.0146 -37.5521
TCL: Running FEP window  14: Lambda1 0.34999999999999964 Lambda2 0.29999999999999966 [dLambda -0.04999999999999999]
TCL: Setting parameter firsttimestep to 0
TCL: Setting parameter alchLambda to 0.34999999999999964
Info: NONBONDED TABLE R-SQUARED SPACING: 0.0625
Info: NONBONDED TABLE SIZE: 705 POINTS
TCL: Setting parameter alchLambda2 to 0.29999999999999966
Info: NONBONDED TABLE R-SQUARED SPACING: 0.0625
Info: NONBONDED TABLE SIZE: 705 POINTS
TCL: Running for 1500000 steps
ETITLE: TS BOND ANGLE DIHED IMPRP ELECT VDW BOUNDARY MISC KINETIC TOTAL TEMP POTENTIAL TOTALAVG TEMPAVG PRESSURE GPRESSURE VOLUME PRESSAVG GPRESSAVG
ENERGY: 0 0.8186 2.8213 8.6117 0.0000 -10764.5351 1458.3668 0.0000 0.0000 1816.2366 -7477.6800 309.2967 -9293.9166 -7477.6800 309.2967 -89.1048 -4.6518 30339.8307 -89.1048 -4.6518
ENERGY: 300000 2.4438 5.4466 8.0264 0.0000 -10804.4594 1511.8529 0.0000 0.0000 1809.6237 -7467.0660 308.1706 -9276.6897 -7467.7649 306.4590 517.3096 562.7027 30353.7237 177.8946 246.3161
ENERGY: 600000 3.3172 4.3025 6.2753 0.0000 -10735.5531 1493.6657 0.0000 0.0000 1750.4231 -7477.5692 298.0890 -9227.9924 -7489.1903 303.5647 584.8562 660.6144 30355.5575 3.0604 66.7320
ENERGY: 900000 2.9819 3.4796 7.9264 0.0000 -10719.4649 1496.6277 0.0000 0.0000 1761.3286 -7447.1208 299.9461 -9208.4494 -7485.3485 301.9472 754.8195 826.6017 30067.2151 76.2913 147.9192
ENERGY: 1200000 6.8134 5.4905 7.0356 0.0000 -10705.2670 1495.6569 0.0000 0.0000 1769.2987 -7420.9719 301.3034 -9190.2706 -7472.3733 302.2906 322.0829 354.6928 30704.4531 65.6626 121.0554
ENERGY: 1500000 3.0701 5.3390 5.2522 0.0000 -10800.7335 1531.1572 0.0000 0.0000 1788.6356 -7467.2795 304.5964 -9255.9151 -7470.2426 302.4761 837.4478 956.3650 30110.3518 67.9265 126.8500
TCL: Running FEP window  15: Lambda1 0.29999999999999966 Lambda2 0.24999999999999967 [dLambda -0.04999999999999999]
TCL: Setting parameter firsttimestep to 0
TCL: Setting parameter alchLambda to 0.29999999999999966
Info: NONBONDED TABLE R-SQUARED SPACING: 0.0625
Info: NONBONDED TABLE SIZE: 705 POINTS
TCL: Setting parameter alchLambda2 to 0.24999999999999967
Info: NONBONDED TABLE R-SQUARED SPACING: 0.0625
Info: NONBONDED TABLE SIZE: 705 POINTS
TCL: Running for 1500000 steps
ETITLE: TS BOND ANGLE DIHED IMPRP ELECT VDW BOUNDARY MISC KINETIC TOTAL TEMP POTENTIAL TOTALAVG TEMPAVG PRESSURE GPRESSURE VOLUME PRESSAVG GPRESSAVG
ENERGY: 0 3.0701 5.3390 5.2522 0.0000 -10800.7353 1530.9691 0.0000 0.0000 1787.7681 -7468.3368 304.4487 -9256.1049 -7468.3368 304.4487 853.2567 945.9833 30110.3518 853.2567 945.9833
ENERGY: 300000 2.3596 6.6043 7.2891 0.0000 -10570.2627 1367.8330 0.0000 0.0000 1758.5571 -7427.6196 299.4742 -9186.1766 -7467.3013 300.1317 -355.6674 -270.1823 30111.7372 121.6830 196.4829
ENERGY: 600000 10.1484 7.2733 3.1113 0.0000 -10814.8353 1552.5511 0.0000 0.0000 1745.2881 -7496.4631 297.2145 -9241.7512 -7468.5134 299.2644 685.7622 665.1589 30573.5470 97.2681 158.9806
ENERGY: 900000 3.9581 2.7421 4.5314 0.0000 -10733.4197 1450.2361 0.0000 0.0000 1719.2253 -7552.7268 292.7762 -9271.9521 -7480.2343 299.9266 -111.8982 -32.2073 30390.1355 108.9300 172.8473
ENERGY: 1200000 6.6707 5.2093 3.0169 0.0000 -10702.6150 1450.7541 0.0000 0.0000 1797.9565 -7439.0075 306.1837 -9236.9640 -7484.8883 299.2287 230.2431 311.8945 30300.4393 77.0692 144.8748
ENERGY: 1500000 1.4240 7.3061 9.1911 0.0000 -10786.1127 1461.3709 0.0000 0.0000 1739.6903 -7567.1302 296.2613 -9306.8205 -7494.1680 299.4685 135.5896 161.6402 30198.8814 8.0773 79.5644
TCL: Running FEP window  16: Lambda1 0.24999999999999967 Lambda2 0.19999999999999968 [dLambda -0.04999999999999999]
TCL: Setting parameter firsttimestep to 0
TCL: Setting parameter alchLambda to 0.24999999999999967
Info: NONBONDED TABLE R-SQUARED SPACING: 0.0625
Info: NONBONDED TABLE SIZE: 705 POINTS
TCL: Setting parameter alchLambda2 to 0.19999999999999968
Info: NONBONDED TABLE R-SQUARED SPACING: 0.0625
Info: NONBONDED TABLE SIZE: 705 POINTS
TCL: Running for 1500000 steps
ETITLE: TS BOND ANGLE DIHED IMPRP ELECT VDW BOUNDARY MISC KINETIC TOTAL TEMP POTENTIAL TOTALAVG TEMPAVG PRESSURE GPRESSURE VOLUME PRESSAVG GPRESSAVG
ENERGY: 0 1.4240 7.3061 9.1911 0.0000 -10786.1127 1461.8986 0.0000 0.0000 1738.8094 -7567.4834 296.1112 -9306.2929 -7567.4834 296.1112 87.7696 160.7110 30198.8814 87.7696 160.7110
ENERGY: 300000 3.5006 4.1509 7.8385 0.0000 -10542.2804 1315.0157 0.0000 0.0000 1733.0697 -7478.7051 295.1338 -9211.7748 -7499.9280 296.4307 -1031.8937 -904.8666 30227.6527 -362.1674 -286.5832
ENERGY: 600000 2.2894 2.1364 7.3559 0.0000 -10586.2190 1362.2375 0.0000 0.0000 1782.1071 -7430.0928 303.4846 -9212.1999 -7500.4436 296.7452 -669.2090 -559.2639 30652.5141 -482.6331 -407.8171
ENERGY: 900000 2.9137 4.3495 5.3188 0.0000 -10630.8936 1415.8685 0.0000 0.0000 1815.2013 -7387.2417 309.1204 -9202.4430 -7487.8130 298.3722 -84.6800 34.6691 30429.7699 -318.3666 -231.1198
ENERGY: 1200000 4.7683 4.9527 2.6629 0.0000 -10739.8901 1431.7435 0.0000 0.0000 1801.4303 -7494.3324 306.7753 -9295.7627 -7487.9365 298.9398 -312.0982 -205.9955 30135.2653 -286.6297 -200.2359
ENERGY: 1500000 3.2118 6.0971 5.6106 0.0000 -10590.2676 1377.7736 0.0000 0.0000 1729.1595 -7468.4149 294.4679 -9197.5744 -7486.9892 298.5655 -584.2198 -538.9367 30764.6646 -336.2286 -249.6580
TCL: Running FEP window  17: Lambda1 0.19999999999999968 Lambda2 0.1499999999999997 [dLambda -0.04999999999999999]
TCL: Setting parameter firsttimestep to 0
TCL: Setting parameter alchLambda to 0.19999999999999968
Info: NONBONDED TABLE R-SQUARED SPACING: 0.0625
Info: NONBONDED TABLE SIZE: 705 POINTS
TCL: Setting parameter alchLambda2 to 0.1499999999999997
Info: NONBONDED TABLE R-SQUARED SPACING: 0.0625
Info: NONBONDED TABLE SIZE: 705 POINTS
TCL: Running for 1500000 steps
ETITLE: TS BOND ANGLE DIHED IMPRP ELECT VDW BOUNDARY MISC KINETIC TOTAL TEMP POTENTIAL TOTALAVG TEMPAVG PRESSURE GPRESSURE VOLUME PRESSAVG GPRESSAVG
ENERGY: 0 3.2118 6.0971 5.6106 0.0000 -10590.2653 1376.5573 0.0000 0.0000 1728.3113 -7470.4772 294.3234 -9198.7884 -7470.4772 294.3234 -631.1470 -548.0920 30764.6646 -631.1470 -548.0920
ENERGY: 300000 6.7305 7.0745 6.2042 0.0000 -10714.6789 1416.6324 0.0000 0.0000 1733.7192 -7544.3181 295.2444 -9278.0373 -7535.4424 292.4955 -201.5606 -141.9979 29850.4795 -373.9231 -302.9136
ENERGY: 600000 5.0133 2.7373 7.4984 0.0000 -10658.5641 1389.5427 0.0000 0.0000 1741.4737 -7512.2988 296.5649 -9253.7724 -7509.7405 296.1676 -278.4681 -231.4610 30304.8524 -265.1289 -193.5568
ENERGY: 900000 4.1200 5.7606 7.2533 0.0000 -10804.0842 1520.6866 0.0000 0.0000 1732.0590 -7534.2047 294.9617 -9266.2637 -7520.5975 296.1257 700.0510 726.9600 29975.2064 -112.9280 -45.7438
ENERGY: 1200000 3.9100 3.7305 5.8292 0.0000 -10771.7330 1441.3633 0.0000 0.0000 1743.2058 -7573.6943 296.8599 -9316.9000 -7496.7674 298.8010 -223.5268 -137.9294 30245.9096 -67.4487 -0.2151
ENERGY: 1500000 2.7553 7.5907 5.1350 0.0000 -10776.9633 1457.4062 0.0000 0.0000 1760.3042 -7543.7720 299.7717 -9304.0762 -7501.1925 299.2018 -152.1679 -40.4797 30242.9082 -103.7120 -35.0218
TCL: Running FEP window  18: Lambda1 0.1499999999999997 Lambda2 0.09999999999999969 [dLambda -0.05 ]
TCL: Setting parameter firsttimestep to 0
TCL: Setting parameter alchLambda to 0.1499999999999997
Info: NONBONDED TABLE R-SQUARED SPACING: 0.0625
Info: NONBONDED TABLE SIZE: 705 POINTS
TCL: Setting parameter alchLambda2 to 0.09999999999999969
Info: NONBONDED TABLE R-SQUARED SPACING: 0.0625
Info: NONBONDED TABLE SIZE: 705 POINTS
TCL: Running for 1500000 steps
ETITLE: TS BOND ANGLE DIHED IMPRP ELECT VDW BOUNDARY MISC KINETIC TOTAL TEMP POTENTIAL TOTALAVG TEMPAVG PRESSURE GPRESSURE VOLUME PRESSAVG GPRESSAVG
ENERGY: 0 2.7553 7.5907 5.1350 0.0000 -10776.9632 1457.7850 0.0000 0.0000 1759.4445 -7544.2528 299.6253 -9303.6973 -7544.2528 299.6253 -130.0560 -42.2765 30242.9082 -130.0560 -42.2765
ENERGY: 300000 4.7761 11.6773 4.2501 0.0000 -10672.0225 1399.4374 0.0000 0.0000 1776.1319 -7475.7497 302.4671 -9251.8816 -7475.0269 300.4953 -417.0261 -402.9548 30442.0224 6.5796 82.0977
ENERGY: 600000 4.0621 3.8243 6.4256 0.0000 -10749.9415 1437.7356 0.0000 0.0000 1757.5324 -7540.3616 299.2997 -9297.8940 -7493.7670 299.8350 -372.3444 -264.1824 30234.9748 19.5267 99.9443
ENERGY: 900000 6.3774 4.5325 2.2156 0.0000 -10706.8389 1486.4946 0.0000 0.0000 1767.9100 -7439.3088 301.0669 -9207.2188 -7491.1349 300.5266 180.4416 203.0752 30753.3069 -7.7148 63.8225
ENERGY: 1200000 4.0738 3.5524 6.0223 0.0000 -10684.9488 1441.6948 0.0000 0.0000 1756.6904 -7472.9150 299.1563 -9229.6055 -7489.5858 300.0866 47.6050 97.8027 30496.3298 56.9975 126.0730
ENERGY: 1500000 3.2908 7.2386 9.8814 0.0000 -10631.1370 1449.5181 0.0000 0.0000 1729.1606 -7432.0474 294.4681 -9161.2080 -7484.3323 300.0610 199.1511 338.0220 30193.9246 69.9272 141.1414
TCL: Running FEP window  19: Lambda1 0.09999999999999969 Lambda2 0.049999999999999684 [dLambda -0.05 ]
TCL: Setting parameter firsttimestep to 0
TCL: Setting parameter alchLambda to 0.09999999999999969
Info: NONBONDED TABLE R-SQUARED SPACING: 0.0625
Info: NONBONDED TABLE SIZE: 705 POINTS
TCL: Setting parameter alchLambda2 to 0.049999999999999684
Info: NONBONDED TABLE R-SQUARED SPACING: 0.0625
Info: NONBONDED TABLE SIZE: 705 POINTS
TCL: Running for 1500000 steps
ETITLE: TS BOND ANGLE DIHED IMPRP ELECT VDW BOUNDARY MISC KINETIC TOTAL TEMP POTENTIAL TOTALAVG TEMPAVG PRESSURE GPRESSURE VOLUME PRESSAVG GPRESSAVG
ENERGY: 0 3.2908 7.2387 9.8814 0.0000 -10631.1381 1448.9486 0.0000 0.0000 1728.2573 -7433.5214 294.3143 -9161.7786 -7433.5214 294.3143 239.6909 335.7146 30193.9246 239.6909 335.7146
ENERGY: 300000 6.5316 6.2347 5.3500 0.0000 -10709.9047 1437.5815 0.0000 0.0000 1779.4697 -7474.7373 303.0355 -9254.2070 -7470.2761 300.2204 -78.6072 -24.4966 30448.0064 -75.9216 -25.7584
ENERGY: 600000 3.1505 6.7840 3.4378 0.0000 -10813.5957 1530.9176 0.0000 0.0000 1804.7775 -7464.5283 307.3453 -9269.3058 -7461.3689 301.8956 796.4756 880.4369 29712.9576 44.3583 106.1590
ENERGY: 900000 2.4338 2.8159 6.8506 0.0000 -10839.5979 1505.0004 0.0000 0.0000 1749.2616 -7573.2355 297.8912 -9322.4971 -7488.6240 299.7052 -52.2775 48.0891 30444.5161 28.2103 97.7434
ENERGY: 1200000 2.6613 10.1967 3.5993 0.0000 -10740.3656 1398.0127 0.0000 0.0000 1764.3003 -7561.5954 300.4522 -9325.8957 -7499.1254 300.5493 -774.8654 -679.9428 30565.9147 -33.6664 43.2274
ENERGY: 1500000 3.4002 2.6421 5.4220 0.0000 -10726.3846 1461.1956 0.0000 0.0000 1763.5977 -7490.1270 300.3326 -9253.7246 -7493.5382 301.1471 381.1536 441.4561 30016.6301 47.9860 125.0399
TCL: Running FEP window  20: Lambda1 0.049999999999999684 Lambda2 0.0    [dLambda -0.049999999999999684]
TCL: Setting parameter firsttimestep to 0
TCL: Setting parameter alchLambda to 0.049999999999999684
Info: NONBONDED TABLE R-SQUARED SPACING: 0.0625
Info: NONBONDED TABLE SIZE: 705 POINTS
TCL: Setting parameter alchLambda2 to 0.0
Info: NONBONDED TABLE R-SQUARED SPACING: 0.0625
Info: NONBONDED TABLE SIZE: 705 POINTS
TCL: Running for 1500000 steps
ETITLE: TS BOND ANGLE DIHED IMPRP ELECT VDW BOUNDARY MISC KINETIC TOTAL TEMP POTENTIAL TOTALAVG TEMPAVG PRESSURE GPRESSURE VOLUME PRESSAVG GPRESSAVG
ENERGY: 0 3.4002 2.6421 5.4220 0.0000 -10726.3846 1460.7304 0.0000 0.0000 1762.6833 -7491.5066 300.1769 -9254.1899 -7491.5066 300.1769 347.3848 439.7061 30016.6301 347.3848 439.7061
ENERGY: 300000 7.2416 5.5078 6.8317 0.0000 -10638.3338 1403.7184 0.0000 0.0000 1681.1612 -7533.8731 286.2940 -9215.0343 -7531.4497 293.8755 -680.5568 -569.1968 30513.0695 -130.3610 -34.9733
ENERGY: 600000 1.9590 3.0023 8.1628 0.0000 -10749.4346 1448.9415 0.0000 0.0000 1824.4567 -7462.9122 310.6966 -9287.3689 -7511.0230 299.7382 264.7083 327.7708 29850.3811 -51.6735 26.9963
ENERGY: 900000 1.9983 3.9821 5.0416 0.0000 -10792.0921 1455.6517 0.0000 0.0000 1761.7320 -7563.6864 300.0148 -9325.4184 -7527.2073 298.9262 -81.3481 37.5787 30156.9330 -26.9989 52.5944
ENERGY: 1200000 1.8369 4.0414 4.8483 0.0000 -10650.3284 1397.8595 0.0000 0.0000 1682.2637 -7559.4785 286.4818 -9241.7422 -7516.3151 298.3515 -366.6844 -350.4889 30265.0627 -138.8273 -63.6474
ENERGY: 1500000 6.5405 4.5767 8.2641 0.0000 -10911.1474 1537.5948 0.0000 0.0000 1766.3562 -7587.8152 300.8023 -9354.1714 -7519.7174 298.1442 378.0774 420.1513 30276.2537 -115.7687 -39.7585
TCL: Exiting due to exit command.
