Info: SIMULATION PARAMETERS:
Info: TIMESTEP               2
Info: NUMBER OF STEPS        0
Info: STEPS PER CYCLE        10
Info: PERIODIC CELL BASIS 1  31.9764 0 0
Info: PERIODIC CELL BASIS 2  0 30.5795 0
Info: PERIODIC CELL BASIS 3  0 0 31.4846
Info: PERIODIC CELL CENTER   0 0 0
Info: WRAPPING WATERS AROUND PERIODIC BOUNDARIES ON OUTPUT.
Info: WRAPPING ALL CLUSTERS AROUND PERIODIC BOUNDARIES ON OUTPUT.
Info: FIRST LDB TIMESTEP     50
Info: LAST LDB TIMESTEP     -1
Info: HOM BACKGROUND SCALING 1
Info: PME BACKGROUND SCALING 1
Info: MIN ATOMS PER PATCH    40
Info: EMPTY PATCH LOAD       40 ATOMS
Info: VELOCITY FILE          mobley_7610437_equil.vel
Info: CENTER OF MASS MOVING INITIALLY? NO
Info: DIELECTRIC             1
Info: EXCLUDE                SCALED ONE-FOUR
Info: 1-4 ELECTROSTATICS SCALED BY 0.833333
Info: MODIFIED 1-4 VDW PARAMETERS WILL BE USED
Info: DCD FILENAME           mobley_7610437_prod.dcd
Info: DCD FREQUENCY          100000
Info: DCD FIRST STEP         100000
Info: DCD FILE WILL CONTAIN UNIT CELL DATA
Info: XST FILENAME           mobley_7610437_prod.xst
Info: XST FREQUENCY          100000
Info: NO VELOCITY DCD OUTPUT
Info: NO FORCE DCD OUTPUT
Info: OUTPUT FILENAME        mobley_7610437_prod
Info: BINARY OUTPUT FILES WILL BE USED
Info: RESTART FILENAME       mobley_7610437_prod.restart
Info: RESTART FREQUENCY      100000
Info: BINARY RESTART FILES WILL BE USED
Info: CUTOFF                 9
Info: PAIRLIST DISTANCE      11
Info: PAIRLIST SHRINK RATE   0.01
Info: PAIRLIST GROW RATE     0.01
Info: PAIRLIST TRIGGER       0.3
Info: PAIRLISTS PER CYCLE    2
Info: PAIRLISTS ENABLED
Info: MARGIN                 2
Info: HYDROGEN GROUP CUTOFF  2.5
Info: PATCH DIMENSION        15.5
Info: ENERGY OUTPUT STEPS    100000
Info: ENERGY EVALUATION STEPS    100000
Info: OUTPUT ENERGY PRECISION 4
Info: CROSSTERM ENERGY INCLUDED IN DIHEDRAL
Info: TIMING OUTPUT STEPS    1000000
Info: PRESSURE OUTPUT STEPS  100000
Info: ALCHEMICAL FEP ON
Info: FEP CURRENT LAMBDA VALUE     0
Info: FEP COMPARISON LAMBDA VALUE  0.05
Info: FEP INTRA-ALCHEMICAL NON-BONDED INTERACTIONS WILL BE RETAINED
Info: FEP INTRA-ALCHEMICAL BONDED INTERACTIONS WILL BE RETAINED
Info: FEP VDW SHIFTING COEFFICIENT 5
Info: FEP ELEC. ACTIVE FOR ANNIHILATED PARTICLES BETWEEN LAMBDA = 0 AND LAMBDA = 0.5
Info: FEP ELEC. ACTIVE FOR EXNIHILATED PARTICLES BETWEEN LAMBDA = 0.5 AND LAMBDA = 1
Info: FEP VDW ACTIVE FOR ANNIHILATED PARTICLES BETWEEN LAMBDA = 0 AND LAMBDA = 1
Info: FEP VDW ACTIVE FOR EXNIHILATED PARTICLES BETWEEN LAMBDA = 0 AND LAMBDA = 1
Info: FEP BOND ACTIVE FOR ANNIHILATED PARTICLES BETWEEN LAMBDA = 1 AND LAMBDA = 1
Info: FEP BOND ACTIVE FOR EXNIHILATED PARTICLES BETWEEN LAMBDA = 0 AND LAMBDA = 0
Info: LANGEVIN DYNAMICS ACTIVE
Info: LANGEVIN TEMPERATURE   300
Info: LANGEVIN USING BBK INTEGRATOR
Info: LANGEVIN DAMPING COEFFICIENT IS 1 INVERSE PS
Info: LANGEVIN DYNAMICS APPLIED TO HYDROGENS
Info: LANGEVIN PISTON PRESSURE CONTROL ACTIVE
Info:        TARGET PRESSURE IS 1.01325 BAR
Info:     OSCILLATION PERIOD IS 50 FS
Info:             DECAY TIME IS 25 FS
Info:     PISTON TEMPERATURE IS 300 K
Info:       PRESSURE CONTROL IS GROUP-BASED
Info:    INITIAL STRAIN RATE IS -0.000255881 -0.000255881 -0.000255881
Info:       CELL FLUCTUATION IS ISOTROPIC
Info: PARTICLE MESH EWALD (PME) ACTIVE
Info: PME TOLERANCE               1e-06
Info: PME EWALD COEFFICIENT       0.348832
Info: PME INTERPOLATION ORDER     4
Info: PME GRID DIMENSIONS         32 32 32
Info: PME MAXIMUM GRID SPACING    1
Info: PME CALCULATION WILL BE PERFORMED ON GPU
Info: FULL ELECTROSTATIC EVALUATION FREQUENCY      2
Info: USING VERLET I (r-RESPA) MTS SCHEME.
Info: C1 SPLITTING OF LONG RANGE ELECTROSTATICS
Info: PLACING ATOMS IN PATCHES BY HYDROGEN GROUPS
Info: RIGID BONDS TO HYDROGEN : ALL
Info:         ERROR TOLERANCE : 1e-08
Info:          MAX ITERATIONS : 100
Info: RIGID WATER USING SETTLE ALGORITHM
Info: RANDOM NUMBER SEED     1743878370
Info: USE HYDROGEN BONDS?    NO
Info: Using AMBER format force field!
Info: AMBER PARM FILE        mobley_7610437.prmtop
Info: COORDINATE PDB         mobley_7610437.pdb
Info: Exclusions will be read from PARM file!
Info: SCNB (VDW SCALING)     2
Info: USING ARITHMETIC MEAN TO COMBINE L-J SIGMA PARAMETERS
Info: BINARY COORDINATES     mobley_7610437_equil.coor
Info: SUMMARY OF PARAMETERS:
Info: 7 BONDS
Info: 7 ANGLES
Info:   7 HARMONIC
Info:   0 COSINE-BASED
Info: 9 DIHEDRAL
Info: 0 IMPROPER
Info: 0 CROSSTERM
Info: 0 VDW
Info: 21 VDW_PAIRS
Info: 0 NBTHOLE_PAIRS
Info: To read alchdata from file: mobley_7610437.pdb
Info: To read alchflag data from column: 5
Info: STRUCTURE SUMMARY:
Info: 2976 ATOMS
Info: 2975 BONDS
Info: 37 ANGLES
Info: 59 DIHEDRALS
Info: 0 IMPROPERS
Info: 0 CROSSTERMS
Info: 3060 EXCLUSIONS
Info: 2969 RIGID BONDS
Info: ALCH: 0 ATOMS TO DISAPPEAR IN FINAL STATE
Info: ALCH: 21 ATOMS TO APPEAR IN FINAL STATE
Info: 5959 DEGREES OF FREEDOM
Info: 992 HYDROGEN GROUPS
Info: 4 ATOMS IN LARGEST HYDROGEN GROUP
Info: 992 MIGRATION GROUPS
Info: 4 ATOMS IN LARGEST MIGRATION GROUP
Info: TOTAL MASS = 17847.9 amu
Info: TOTAL CHARGE = -0.000399996 e
Info: MASS DENSITY = 0.962695 g/cm^3
Info: ATOM DENSITY = 0.0966661 atoms/A^3
Info: ADDED 0 IMPLICIT EXCLUSIONS
Info: NONBONDED TABLE R-SQUARED SPACING: 0.0625
Info: NONBONDED TABLE SIZE: 705 POINTS
Info: REMOVING COM VELOCITY -0.169007 -0.162106 -0.0944504
Info: Use 3D box decompostion in PME FFT.
Info: Updated CUDA force table with 4096 elements.
Info: Updated CUDA LJ table with 6 x 6 elements.
Info: Found 24 unique exclusion lists needing 68 bytes
TCL: Running for 1500000 steps
ETITLE: TS BOND ANGLE DIHED IMPRP ELECT VDW BOUNDARY MISC KINETIC TOTAL TEMP POTENTIAL TOTALAVG TEMPAVG PRESSURE GPRESSURE VOLUME PRESSAVG GPRESSAVG
ENERGY: 0 1.6727 12.9023 2.8427 0.0000 -10883.1642 1536.8354 0.0000 0.0000 1790.5487 -7538.3624 302.4149 -9328.9111 -7538.3624 302.4149 480.7469 551.0963 30786.3760 480.7469 551.0963
ENERGY: 300000 1.4359 10.3610 4.9864 0.0000 -10978.7608 1598.6648 0.0000 0.0000 1719.5193 -7643.7933 290.4184 -9363.3126 -7547.9234 300.0316 1103.0890 1118.8982 29966.3169 685.9525 731.9838
ENERGY: 600000 2.3947 12.9785 5.2797 0.0000 -10726.0698 1430.8924 0.0000 0.0000 1769.7621 -7504.7625 298.9041 -9274.5246 -7524.8178 300.6914 -244.7347 -93.4337 30385.7487 420.7566 494.0703
ENERGY: 900000 2.1627 12.5474 3.8204 0.0000 -10954.5495 1494.3226 0.0000 0.0000 1769.4642 -7672.2322 298.8538 -9441.6964 -7538.6566 300.6462 -65.2453 -4.1354 30111.0141 272.8626 334.1233
ENERGY: 1200000 0.4756 10.0613 2.9953 0.0000 -10652.9000 1376.2462 0.0000 0.0000 1798.7232 -7464.3983 303.7955 -9263.1215 -7521.6339 302.2098 -234.4227 -222.3774 30183.3194 179.0287 240.1938
ENERGY: 1500000 3.5794 10.9616 5.3831 0.0000 -10732.0612 1451.0662 0.0000 0.0000 1766.7991 -7494.2719 298.4037 -9261.0710 -7513.2091 302.3391 250.1046 297.7876 30011.5316 143.2656 211.2712
TCL: Running FEP window   2: Lambda1 0.05   Lambda2 0.1    [dLambda 0.05  ]
TCL: Setting parameter firsttimestep to 0
TCL: Setting parameter alchLambda to 0.05
Info: NONBONDED TABLE R-SQUARED SPACING: 0.0625
Info: NONBONDED TABLE SIZE: 705 POINTS
TCL: Setting parameter alchLambda2 to 0.1
Info: NONBONDED TABLE R-SQUARED SPACING: 0.0625
Info: NONBONDED TABLE SIZE: 705 POINTS
TCL: Running for 1500000 steps
ETITLE: TS BOND ANGLE DIHED IMPRP ELECT VDW BOUNDARY MISC KINETIC TOTAL TEMP POTENTIAL TOTALAVG TEMPAVG PRESSURE GPRESSURE VOLUME PRESSAVG GPRESSAVG
ENERGY: 0 3.5794 10.9616 5.3831 0.0000 -10732.0625 1452.5292 0.0000 0.0000 1765.8865 -7493.7228 298.2495 -9259.6093 -7493.7228 298.2495 221.1506 305.2047 30011.5316 221.1506 305.2047
ENERGY: 300000 1.7079 10.3206 3.6725 0.0000 -10911.0109 1541.2867 0.0000 0.0000 1803.4974 -7550.5258 304.6018 -9354.0232 -7519.2260 302.8848 541.2867 679.3451 30182.4354 -33.1913 25.8724
ENERGY: 600000 1.8456 8.3049 4.2657 0.0000 -10898.7079 1599.4012 0.0000 0.0000 1746.3935 -7538.4969 294.9573 -9284.8905 -7514.7290 300.9742 1301.2035 1345.3051 30297.6083 239.9309 290.1851
ENERGY: 900000 0.8141 14.2598 3.8486 0.0000 -10757.0362 1421.7165 0.0000 0.0000 1803.6181 -7512.7791 304.6222 -9316.3972 -7517.9153 301.5042 -172.9361 -69.7812 30247.0567 166.8254 233.9364
ENERGY: 1200000 1.3128 10.8516 2.8247 0.0000 -10785.5199 1448.0825 0.0000 0.0000 1789.0585 -7533.3898 302.1632 -9322.4483 -7520.8560 301.2739 -102.5602 -36.3725 30314.2518 129.5810 190.4882
ENERGY: 1500000 0.8299 7.5386 4.0045 0.0000 -10671.4075 1320.1941 0.0000 0.0000 1761.5401 -7577.3002 297.5155 -9338.8403 -7526.8296 300.9878 -1047.6827 -1008.5671 30570.4751 78.9370 131.0961
TCL: Running FEP window   3: Lambda1 0.1    Lambda2 0.15000000000000002 [dLambda 0.05000000000000002]
TCL: Setting parameter firsttimestep to 0
TCL: Setting parameter alchLambda to 0.1
Info: NONBONDED TABLE R-SQUARED SPACING: 0.0625
Info: NONBONDED TABLE SIZE: 705 POINTS
TCL: Setting parameter alchLambda2 to 0.15000000000000002
Info: NONBONDED TABLE R-SQUARED SPACING: 0.0625
Info: NONBONDED TABLE SIZE: 705 POINTS
TCL: Running for 1500000 steps
ETITLE: TS BOND ANGLE DIHED IMPRP ELECT VDW BOUNDARY MISC KINETIC TOTAL TEMP POTENTIAL TOTALAVG TEMPAVG PRESSURE GPRESSURE VOLUME PRESSAVG GPRESSAVG
ENERGY: 0 0.8299 7.5386 4.0045 0.0000 -10671.4073 1323.8169 0.0000 0.0000 1760.6915 -7574.5258 297.3721 -9335.2173 -7574.5258 297.3721 -1080.0415 -1001.0627 30570.4751 -1080.0415 -1001.0627
ENERGY: 300000 1.9828 7.2310 4.7638 0.0000 -10806.2852 1466.2897 0.0000 0.0000 1770.6681 -7555.3498 299.0571 -9326.0179 -7546.5951 298.0460 -116.5162 -70.4941 30610.2982 -503.1725 -432.8222
ENERGY: 600000 0.9212 11.3563 4.5225 0.0000 -10705.3487 1391.4664 0.0000 0.0000 1774.2703 -7522.8122 299.6655 -9297.0824 -7530.0700 298.2371 -449.1325 -446.2480 30478.4867 -179.8260 -137.8699
ENERGY: 900000 2.0942 5.5902 5.2672 0.0000 -10751.9595 1429.1221 0.0000 0.0000 1768.6954 -7541.1903 298.7240 -9309.8857 -7532.6063 298.8787 -224.0045 -139.7059 30358.8253 -222.5310 -169.3352
ENERGY: 1200000 3.7211 10.4085 4.3628 0.0000 -10717.1779 1458.5818 0.0000 0.0000 1751.2865 -7488.8172 295.7837 -9240.1037 -7534.8484 297.5755 89.5106 164.0400 30742.3388 -141.5813 -79.3331
ENERGY: 1500000 1.2425 7.4613 3.7412 0.0000 -10660.8662 1420.1286 0.0000 0.0000 1804.7401 -7423.5524 304.8117 -9228.2925 -7522.8022 298.4576 137.0201 235.9546 30161.2161 -115.5499 -55.1513
TCL: Running FEP window   4: Lambda1 0.15000000000000002 Lambda2 0.2    [dLambda 0.04999999999999999]
TCL: Setting parameter firsttimestep to 0
TCL: Setting parameter alchLambda to 0.15000000000000002
Info: NONBONDED TABLE R-SQUARED SPACING: 0.0625
Info: NONBONDED TABLE SIZE: 705 POINTS
TCL: Setting parameter alchLambda2 to 0.2
Info: NONBONDED TABLE R-SQUARED SPACING: 0.0625
Info: NONBONDED TABLE SIZE: 705 POINTS
TCL: Running for 1500000 steps
ETITLE: TS BOND ANGLE DIHED IMPRP ELECT VDW BOUNDARY MISC KINETIC TOTAL TEMP POTENTIAL TOTALAVG TEMPAVG PRESSURE GPRESSURE VOLUME PRESSAVG GPRESSAVG
ENERGY: 0 1.2425 7.4613 3.7412 0.0000 -10660.8660 1420.4359 0.0000 0.0000 1803.8263 -7424.1588 304.6574 -9227.9851 -7424.1588 304.6574 143.8203 238.2711 30161.2161 143.8203 238.2711
ENERGY: 300000 1.2653 9.5554 4.9427 0.0000 -10532.4090 1340.9877 0.0000 0.0000 1771.6872 -7403.9705 299.2293 -9175.6578 -7426.0682 304.7602 -728.4854 -676.2846 30742.4797 97.6397 159.1894
ENERGY: 600000 2.0960 15.3842 4.3777 0.0000 -10694.6247 1432.6310 0.0000 0.0000 1743.1573 -7496.9786 294.4107 -9240.1359 -7461.6470 301.9819 -323.5031 -265.4212 30808.4799 71.1275 124.1746
ENERGY: 900000 1.4980 7.6037 3.6104 0.0000 -10677.8634 1398.6353 0.0000 0.0000 1716.6377 -7549.8783 289.9317 -9266.5160 -7475.0045 300.5751 -487.0628 -504.2273 31023.7302 -84.9642 -35.7700
ENERGY: 1200000 0.4674 10.0010 4.4505 0.0000 -10850.3189 1431.8671 0.0000 0.0000 1777.5270 -7626.0058 300.2156 -9403.5328 -7494.2621 301.1278 -343.9136 -268.9911 30081.1178 -193.5488 -138.2632
ENERGY: 1500000 2.6138 9.2395 3.7686 0.0000 -10923.9916 1533.6689 0.0000 0.0000 1845.2177 -7529.4831 311.6482 -9374.7008 -7507.4472 302.0005 687.6925 740.2822 30162.6783 -93.2698 -37.2060
TCL: Running FEP window   5: Lambda1 0.2    Lambda2 0.25   [dLambda 0.04999999999999999]
TCL: Setting parameter firsttimestep to 0
TCL: Setting parameter alchLambda to 0.2
Info: NONBONDED TABLE R-SQUARED SPACING: 0.0625
Info: NONBONDED TABLE SIZE: 705 POINTS
TCL: Setting parameter alchLambda2 to 0.25
Info: NONBONDED TABLE R-SQUARED SPACING: 0.0625
Info: NONBONDED TABLE SIZE: 705 POINTS
TCL: Running for 1500000 steps
ETITLE: TS BOND ANGLE DIHED IMPRP ELECT VDW BOUNDARY MISC KINETIC TOTAL TEMP POTENTIAL TOTALAVG TEMPAVG PRESSURE GPRESSURE VOLUME PRESSAVG GPRESSAVG
ENERGY: 0 2.6138 9.2395 3.7686 0.0000 -10923.9916 1535.8964 0.0000 0.0000 1844.3835 -7528.0898 311.5073 -9372.4733 -7528.0898 311.5073 673.1957 752.2024 30162.6783 673.1957 752.2024
ENERGY: 300000 1.5549 11.6879 5.7431 0.0000 -10798.3123 1462.9402 0.0000 0.0000 1861.8006 -7454.5857 314.4490 -9316.3862 -7498.6870 305.9682 145.8022 226.7686 30373.4189 182.0795 266.9896
ENERGY: 600000 2.9474 9.1340 4.8142 0.0000 -10663.1782 1439.5224 0.0000 0.0000 1811.1389 -7395.6213 305.8924 -9206.7602 -7473.8308 306.1036 -29.9467 31.3744 30735.3729 213.8398 297.7450
ENERGY: 900000 2.0833 10.1276 3.6306 0.0000 -10767.7361 1435.8169 0.0000 0.0000 1817.3260 -7498.7516 306.9374 -9316.0776 -7486.1734 304.1917 -222.7321 -158.5030 30416.1683 61.7224 140.3806
ENERGY: 1200000 0.7649 8.4054 5.1655 0.0000 -10709.3834 1426.4812 0.0000 0.0000 1801.7579 -7466.8085 304.3080 -9268.5664 -7484.0954 304.1730 -235.2070 -122.3359 30752.9909 13.2997 88.0600
ENERGY: 1500000 0.8429 8.6483 4.2210 0.0000 -10693.9052 1403.5556 0.0000 0.0000 1803.8640 -7472.7733 304.6638 -9276.6373 -7483.3867 303.6706 -272.8044 -220.1244 30606.1872 -27.5520 40.4618
TCL: Running FEP window   6: Lambda1 0.25   Lambda2 0.3    [dLambda 0.04999999999999999]
TCL: Setting parameter firsttimestep to 0
TCL: Setting parameter alchLambda to 0.25
Info: NONBONDED TABLE R-SQUARED SPACING: 0.0625
Info: NONBONDED TABLE SIZE: 705 POINTS
TCL: Setting parameter alchLambda2 to 0.3
Info: NONBONDED TABLE R-SQUARED SPACING: 0.0625
Info: NONBONDED TABLE SIZE: 705 POINTS
TCL: Running for 1500000 steps
ETITLE: TS BOND ANGLE DIHED IMPRP ELECT VDW BOUNDARY MISC KINETIC TOTAL TEMP POTENTIAL TOTALAVG TEMPAVG PRESSURE GPRESSURE VOLUME PRESSAVG GPRESSAVG
ENERGY: 0 0.8430 8.6483 4.2210 0.0000 -10693.9043 1403.5987 0.0000 0.0000 1803.0080 -7473.5853 304.5192 -9276.5933 -7473.5853 304.5192 -303.1369 -217.9995 30606.1872 -303.1369 -217.9995
ENERGY: 300000 1.9068 9.3082 2.9989 0.0000 -10775.7114 1398.8988 0.0000 0.0000 1798.1650 -7564.4336 303.7012 -9362.5986 -7519.7468 305.5698 -320.3545 -286.5340 30137.6214 -316.2766 -273.9543
ENERGY: 600000 1.6556 9.8697 4.6375 0.0000 -10739.4132 1392.5933 0.0000 0.0000 1794.9674 -7535.6896 303.1612 -9330.6570 -7520.5167 304.5980 -518.5993 -441.3046 30519.8987 -255.5594 -196.1177
ENERGY: 900000 2.0750 9.0523 4.8980 0.0000 -10718.4978 1392.2816 0.0000 0.0000 1783.9035 -7526.2874 301.2925 -9310.1909 -7523.9222 302.0892 -583.6163 -435.4191 30502.1242 -412.4153 -343.8300
ENERGY: 1200000 1.9362 12.1072 4.2776 0.0000 -10711.9468 1468.8441 0.0000 0.0000 1779.3754 -7445.4063 300.5277 -9224.7817 -7518.0628 301.1687 283.3211 298.4792 30742.6431 -407.4838 -339.8316
ENERGY: 1500000 2.5216 11.9158 4.6661 0.0000 -10712.8955 1391.3703 0.0000 0.0000 1808.0916 -7494.3301 305.3778 -9302.4217 -7515.2438 300.9216 -497.3641 -369.9060 30359.0208 -394.7086 -321.9317
TCL: Running FEP window   7: Lambda1 0.3    Lambda2 0.35   [dLambda 0.04999999999999999]
TCL: Setting parameter firsttimestep to 0
TCL: Setting parameter alchLambda to 0.3
Info: NONBONDED TABLE R-SQUARED SPACING: 0.0625
Info: NONBONDED TABLE SIZE: 705 POINTS
TCL: Setting parameter alchLambda2 to 0.35
Info: NONBONDED TABLE R-SQUARED SPACING: 0.0625
Info: NONBONDED TABLE SIZE: 705 POINTS
TCL: Running for 1500000 steps
ETITLE: TS BOND ANGLE DIHED IMPRP ELECT VDW BOUNDARY MISC KINETIC TOTAL TEMP POTENTIAL TOTALAVG TEMPAVG PRESSURE GPRESSURE VOLUME PRESSAVG GPRESSAVG
ENERGY: 0 2.5216 11.9158 4.6661 0.0000 -10712.8957 1391.7033 0.0000 0.0000 1807.2091 -7494.8798 305.2287 -9302.0889 -7494.8798 305.2287 -441.7525 -363.9601 30359.0208 -441.7525 -363.9601
ENERGY: 300000 2.8563 4.5991 4.5341 0.0000 -10624.6521 1347.0177 0.0000 0.0000 1809.1336 -7456.5114 305.5538 -9265.6450 -7533.5519 300.2981 -441.3272 -384.7286 30394.5165 -61.1760 -3.1696
ENERGY: 600000 2.8804 11.8205 3.5629 0.0000 -10583.9272 1326.3765 0.0000 0.0000 1754.4251 -7484.8618 296.3138 -9239.2869 -7524.0434 299.0258 -871.8409 -853.4644 30784.7969 -164.5436 -105.6027
ENERGY: 900000 1.6029 12.3791 3.8343 0.0000 -10846.5882 1555.1890 0.0000 0.0000 1781.6432 -7491.9397 300.9108 -9273.5830 -7531.4816 298.8381 712.6860 741.8023 30676.9730 -49.6177 4.1917
ENERGY: 1200000 1.0199 8.3885 3.6475 0.0000 -10803.7764 1515.7004 0.0000 0.0000 1704.6416 -7570.3786 287.9056 -9275.0202 -7532.3321 297.6216 339.8492 379.9781 30591.3135 48.6686 101.9176
ENERGY: 1500000 2.8879 10.6682 3.2574 0.0000 -10964.1313 1559.0512 0.0000 0.0000 1754.3401 -7633.9264 296.2994 -9388.2665 -7540.5770 297.5970 611.0616 667.1766 30391.9276 51.7979 102.1586
TCL: Running FEP window   8: Lambda1 0.35   Lambda2 0.39999999999999997 [dLambda 0.04999999999999999]
TCL: Setting parameter firsttimestep to 0
TCL: Setting parameter alchLambda to 0.35
Info: NONBONDED TABLE R-SQUARED SPACING: 0.0625
Info: NONBONDED TABLE SIZE: 705 POINTS
TCL: Setting parameter alchLambda2 to 0.39999999999999997
Info: NONBONDED TABLE R-SQUARED SPACING: 0.0625
Info: NONBONDED TABLE SIZE: 705 POINTS
TCL: Running for 1500000 steps
ETITLE: TS BOND ANGLE DIHED IMPRP ELECT VDW BOUNDARY MISC KINETIC TOTAL TEMP POTENTIAL TOTALAVG TEMPAVG PRESSURE GPRESSURE VOLUME PRESSAVG GPRESSAVG
ENERGY: 0 2.8879 10.6682 3.2574 0.0000 -10964.1332 1558.7898 0.0000 0.0000 1753.4502 -7635.0796 296.1491 -9388.5298 -7635.0796 296.1491 577.8108 667.7796 30391.9276 577.8108 667.7796
ENERGY: 300000 1.8874 7.2290 4.4760 0.0000 -10813.8927 1481.6712 0.0000 0.0000 1762.7213 -7555.9078 297.7149 -9318.6290 -7558.4231 296.5235 -111.9133 -71.5889 30705.5079 -121.6025 -41.2539
ENERGY: 600000 1.6450 9.6385 4.9324 0.0000 -10697.6731 1438.4564 0.0000 0.0000 1780.3569 -7462.6438 300.6935 -9243.0007 -7540.0495 297.1184 137.0913 170.4837 30422.4353 -127.3905 -59.4596
ENERGY: 900000 1.0264 7.2977 3.9882 0.0000 -10740.8292 1456.5081 0.0000 0.0000 1828.4241 -7443.5849 308.8118 -9272.0089 -7532.1398 298.2423 170.6256 320.9152 30364.1163 -53.4693 18.2491
ENERGY: 1200000 0.8658 9.8150 3.6299 0.0000 -10657.9531 1381.1475 0.0000 0.0000 1805.5378 -7456.9571 304.9464 -9262.4949 -7525.7986 298.2172 -552.9664 -421.6735 30811.5160 -63.9970 11.3748
ENERGY: 1500000 0.1517 8.5773 3.4446 0.0000 -10646.4013 1395.2390 0.0000 0.0000 1756.8595 -7482.1292 296.7249 -9238.9887 -7521.1093 298.3540 -312.1438 -243.9335 30667.2691 -100.7496 -26.3849
TCL: Running FEP window   9: Lambda1 0.39999999999999997 Lambda2 0.44999999999999996 [dLambda 0.04999999999999999]
TCL: Setting parameter firsttimestep to 0
TCL: Setting parameter alchLambda to 0.39999999999999997
Info: NONBONDED TABLE R-SQUARED SPACING: 0.0625
Info: NONBONDED TABLE SIZE: 705 POINTS
TCL: Setting parameter alchLambda2 to 0.44999999999999996
Info: NONBONDED TABLE R-SQUARED SPACING: 0.0625
Info: NONBONDED TABLE SIZE: 705 POINTS
TCL: Running for 1500000 steps
ETITLE: TS BOND ANGLE DIHED IMPRP ELECT VDW BOUNDARY MISC KINETIC TOTAL TEMP POTENTIAL TOTALAVG TEMPAVG PRESSURE GPRESSURE VOLUME PRESSAVG GPRESSAVG
ENERGY: 0 0.1517 8.5773 3.4446 0.0000 -10646.4014 1394.6274 0.0000 0.0000 1756.0023 -7483.5980 296.5802 -9239.6003 -7483.5980 296.5802 -320.2659 -243.9685 30667.2691 -320.2659 -243.9685
ENERGY: 300000 2.5472 9.2061 3.7001 0.0000 -10870.7522 1497.4321 0.0000 0.0000 1747.7987 -7610.0681 295.1946 -9357.8668 -7525.7516 299.9330 251.1380 332.1066 30300.5873 153.0236 228.3184
ENERGY: 600000 1.6372 8.6103 4.8572 0.0000 -10640.5239 1370.1145 0.0000 0.0000 1779.3543 -7475.9504 300.5242 -9255.3047 -7512.9383 299.4959 -613.0007 -603.0764 30961.6863 -2.4257 53.5604
ENERGY: 900000 3.4918 13.3359 3.0969 0.0000 -10736.4701 1430.6288 0.0000 0.0000 1767.9738 -7517.9428 298.6021 -9285.9167 -7493.1220 300.9408 -204.7827 -176.2407 30523.6695 -157.0194 -99.9260
ENERGY: 1200000 1.6681 6.5053 6.7596 0.0000 -10746.5628 1397.1613 0.0000 0.0000 1745.0137 -7589.4548 294.7242 -9334.4685 -7509.3573 299.6006 -587.8628 -512.4239 30442.8291 -214.7942 -153.0707
ENERGY: 1500000 0.3025 6.1849 3.0784 0.0000 -10755.2484 1470.5504 0.0000 0.0000 1796.7896 -7478.3427 303.4689 -9275.1323 -7509.8727 300.4045 165.8245 273.6198 30801.8655 -190.4728 -125.2335
TCL: Running FEP window  10: Lambda1 0.44999999999999996 Lambda2 0.49999999999999994 [dLambda 0.04999999999999999]
TCL: Setting parameter firsttimestep to 0
TCL: Setting parameter alchLambda to 0.44999999999999996
Info: NONBONDED TABLE R-SQUARED SPACING: 0.0625
Info: NONBONDED TABLE SIZE: 705 POINTS
TCL: Setting parameter alchLambda2 to 0.49999999999999994
Info: NONBONDED TABLE R-SQUARED SPACING: 0.0625
Info: NONBONDED TABLE SIZE: 705 POINTS
TCL: Running for 1500000 steps
ETITLE: TS BOND ANGLE DIHED IMPRP ELECT VDW BOUNDARY MISC KINETIC TOTAL TEMP POTENTIAL TOTALAVG TEMPAVG PRESSURE GPRESSURE VOLUME PRESSAVG GPRESSAVG
ENERGY: 0 0.3025 6.1849 3.0784 0.0000 -10755.2468 1470.2047 0.0000 0.0000 1795.9184 -7479.5579 303.3218 -9275.4763 -7479.5579 303.3218 198.1020 276.9845 30801.8655 198.1020 276.9845
ENERGY: 300000 3.6162 11.6749 3.6849 0.0000 -10793.4926 1450.0703 0.0000 0.0000 1703.4402 -7621.0061 287.7027 -9324.4463 -7544.0720 297.9723 -373.2424 -270.2810 30894.3416 -150.2988 -104.0262
ENERGY: 600000 2.6110 7.5763 2.6752 0.0000 -10580.1504 1385.5022 0.0000 0.0000 1751.2272 -7430.5585 295.7737 -9181.7857 -7527.7177 297.9276 -202.3507 -157.3162 30754.5753 -144.5457 -102.7423
ENERGY: 900000 1.2300 15.9681 3.9597 0.0000 -10608.8276 1347.4111 0.0000 0.0000 1754.0061 -7486.2525 296.2430 -9240.2586 -7525.1023 298.2747 -505.3846 -480.8819 30337.9394 -136.8780 -90.1473
ENERGY: 1200000 1.5369 10.8606 4.6777 0.0000 -10891.5695 1607.7020 0.0000 0.0000 1755.4590 -7511.3333 296.4884 -9266.7923 -7519.6349 298.4754 1200.2804 1269.2452 30437.6681 -121.0357 -74.0563
ENERGY: 1500000 1.2423 11.4976 3.6035 0.0000 -10701.9860 1508.4687 0.0000 0.0000 1760.5662 -7416.6077 297.3510 -9177.1738 -7512.2693 298.3355 932.6072 955.5486 30430.5265 -17.9219 26.6752
TCL: Running FEP window  11: Lambda1 0.49999999999999994 Lambda2 0.5499999999999999 [dLambda 0.04999999999999999]
TCL: Setting parameter firsttimestep to 0
TCL: Setting parameter alchLambda to 0.49999999999999994
Info: NONBONDED TABLE R-SQUARED SPACING: 0.0625
Info: NONBONDED TABLE SIZE: 705 POINTS
TCL: Setting parameter alchLambda2 to 0.5499999999999999
Info: NONBONDED TABLE R-SQUARED SPACING: 0.0625
Info: NONBONDED TABLE SIZE: 705 POINTS
TCL: Running for 1500000 steps
ETITLE: TS BOND ANGLE DIHED IMPRP ELECT VDW BOUNDARY MISC KINETIC TOTAL TEMP POTENTIAL TOTALAVG TEMPAVG PRESSURE GPRESSURE VOLUME PRESSAVG GPRESSAVG
ENERGY: 0 1.2423 11.4976 3.6035 0.0000 -10701.9861 1508.1439 0.0000 0.0000 1759.6989 -7417.7999 297.2045 -9177.4988 -7417.7999 297.2045 883.1898 956.5003 30430.5265 883.1898 956.5003
ENERGY: 300000 2.8892 7.8003 2.9819 0.0000 -10879.1031 1568.9380 0.0000 0.0000 1772.1888 -7524.3049 299.3140 -9296.4937 -7458.7357 302.9492 915.4668 992.0025 30678.5444 380.0323 453.4846
ENERGY: 600000 0.5948 9.7801 5.1560 0.0000 -10849.8472 1498.1775 0.0000 0.0000 1786.2101 -7549.9287 301.6821 -9336.1387 -7498.5651 301.0816 321.8883 352.4968 30560.4575 312.3436 388.8303
ENERGY: 900000 2.1956 8.7222 4.3334 0.0000 -10654.2646 1410.7054 0.0000 0.0000 1747.0605 -7481.2476 295.0699 -9228.3080 -7505.3877 299.5822 -404.2946 -380.3483 31094.2795 105.4559 168.8908
ENERGY: 1200000 1.0081 7.0438 4.7645 0.0000 -10727.1188 1440.3289 0.0000 0.0000 1808.7013 -7465.2722 305.4807 -9273.9735 -7511.7019 300.5607 -193.6094 -160.4153 31273.4288 24.3130 85.2126
ENERGY: 1500000 0.5023 10.8192 5.0060 0.0000 -10797.2769 1445.7980 0.0000 0.0000 1810.0536 -7525.0979 305.7092 -9335.1515 -7508.3387 301.4263 -58.2495 -10.1953 30522.6482 -38.7954 21.9915
TCL: Running FEP window  12: Lambda1 0.5499999999999999 Lambda2 0.6    [dLambda 0.050000000000000044]
TCL: Setting parameter firsttimestep to 0
TCL: Setting parameter alchLambda to 0.5499999999999999
Info: NONBONDED TABLE R-SQUARED SPACING: 0.0625
Info: NONBONDED TABLE SIZE: 705 POINTS
TCL: Setting parameter alchLambda2 to 0.6
Info: NONBONDED TABLE R-SQUARED SPACING: 0.0625
Info: NONBONDED TABLE SIZE: 705 POINTS
TCL: Running for 1500000 steps
ETITLE: TS BOND ANGLE DIHED IMPRP ELECT VDW BOUNDARY MISC KINETIC TOTAL TEMP POTENTIAL TOTALAVG TEMPAVG PRESSURE GPRESSURE VOLUME PRESSAVG GPRESSAVG
ENERGY: 0 0.5023 10.8192 5.0060 0.0000 -10797.0478 1445.7015 0.0000 0.0000 1809.1828 -7525.8361 305.5621 -9335.0189 -7525.8361 305.5621 -90.5041 -1.5831 30522.6482 -90.5041 -1.5831
ENERGY: 300000 1.8463 13.3760 3.0651 0.0000 -10698.6496 1381.1919 0.0000 0.0000 1819.4738 -7479.6964 307.3002 -9299.1702 -7512.4805 303.8539 -748.5918 -690.3144 30942.9097 -413.9549 -353.0731
ENERGY: 600000 2.6949 11.2560 3.4829 0.0000 -10798.5167 1458.8748 0.0000 0.0000 1757.9497 -7564.2584 296.9091 -9322.2081 -7511.7396 303.1046 -177.3069 -85.3646 30668.7434 -374.2423 -297.2286
ENERGY: 900000 5.0884 11.4390 3.2186 0.0000 -10712.3430 1417.3008 0.0000 0.0000 1868.3972 -7406.8991 315.5631 -9275.2962 -7513.7127 303.3677 107.5167 193.0609 30476.2367 -243.1192 -165.6945
ENERGY: 1200000 5.8992 7.3552 3.9670 0.0000 -10903.9210 1556.8221 0.0000 0.0000 1759.5772 -7570.3002 297.1839 -9329.8774 -7524.8134 301.1186 850.5395 891.5049 30251.6992 -160.7585 -94.7190
ENERGY: 1500000 1.7942 9.9248 3.8983 0.0000 -10719.7787 1363.7118 0.0000 0.0000 1735.0407 -7605.4088 293.0398 -9340.4495 -7532.2275 300.3280 -810.9366 -724.4629 30620.0468 -121.7208 -54.5116
TCL: Running FEP window  13: Lambda1 0.6    Lambda2 0.65   [dLambda 0.050000000000000044]
TCL: Setting parameter firsttimestep to 0
TCL: Setting parameter alchLambda to 0.6
Info: NONBONDED TABLE R-SQUARED SPACING: 0.0625
Info: NONBONDED TABLE SIZE: 705 POINTS
TCL: Setting parameter alchLambda2 to 0.65
Info: NONBONDED TABLE R-SQUARED SPACING: 0.0625
Info: NONBONDED TABLE SIZE: 705 POINTS
TCL: Running for 1500000 steps
ETITLE: TS BOND ANGLE DIHED IMPRP ELECT VDW BOUNDARY MISC KINETIC TOTAL TEMP POTENTIAL TOTALAVG TEMPAVG PRESSURE GPRESSURE VOLUME PRESSAVG GPRESSAVG
ENERGY: 0 1.7942 9.9248 3.8983 0.0000 -10719.6686 1363.0972 0.0000 0.0000 1734.2069 -7606.7473 292.8990 -9340.9541 -7606.7473 292.8990 -806.0984 -724.9504 30620.0468 -806.0984 -724.9504
ENERGY: 300000 2.1013 10.4121 4.8847 0.0000 -10680.8944 1396.2420 0.0000 0.0000 1796.6370 -7470.6173 303.4432 -9267.2544 -7524.4577 298.8070 -316.7896 -305.7282 30625.1351 92.4951 158.2946
ENERGY: 600000 1.5737 9.9923 4.6624 0.0000 -10669.2396 1413.7232 0.0000 0.0000 1738.7518 -7500.5362 293.6666 -9239.2881 -7516.7239 299.7540 -164.5533 -139.1748 30851.8122 -48.2774 9.1995
ENERGY: 900000 2.6419 11.5516 3.6830 0.0000 -10801.7959 1438.4752 0.0000 0.0000 1733.7904 -7611.6538 292.8287 -9345.4442 -7509.0162 300.5600 -375.3012 -293.8056 30703.4162 -168.2681 -102.9408
ENERGY: 1200000 1.5142 10.0910 3.3173 0.0000 -10720.5461 1434.5297 0.0000 0.0000 1739.8166 -7531.2773 293.8465 -9271.0939 -7509.3256 299.9599 -127.8497 -98.9443 30677.2780 -123.0292 -58.9417
ENERGY: 1500000 8.2380 7.8924 5.9644 0.0000 -10737.9339 1445.8941 0.0000 0.0000 1812.1903 -7457.7549 306.0700 -9269.9451 -7499.1144 300.4768 -96.7787 -65.8903 30867.1266 -54.9512 -0.9456
TCL: Running FEP window  14: Lambda1 0.65   Lambda2 0.7000000000000001 [dLambda 0.050000000000000044]
TCL: Setting parameter firsttimestep to 0
TCL: Setting parameter alchLambda to 0.65
Info: NONBONDED TABLE R-SQUARED SPACING: 0.0625
Info: NONBONDED TABLE SIZE: 705 POINTS
TCL: Setting parameter alchLambda2 to 0.7000000000000001
Info: NONBONDED TABLE R-SQUARED SPACING: 0.0625
Info: NONBONDED TABLE SIZE: 705 POINTS
TCL: Running for 1500000 steps
ETITLE: TS BOND ANGLE DIHED IMPRP ELECT VDW BOUNDARY MISC KINETIC TOTAL TEMP POTENTIAL TOTALAVG TEMPAVG PRESSURE GPRESSURE VOLUME PRESSAVG GPRESSAVG
ENERGY: 0 8.2380 7.8924 5.9644 0.0000 -10738.7004 1446.3182 0.0000 0.0000 1811.3057 -7458.9818 305.9206 -9270.2876 -7458.9818 305.9206 -132.4930 -56.9926 30867.1266 -132.4930 -56.9926
ENERGY: 300000 3.1861 11.2204 4.0666 0.0000 -10811.1803 1512.4338 0.0000 0.0000 1736.9573 -7543.3161 293.3635 -9280.2734 -7490.5791 300.5563 294.3642 362.6800 30771.8850 130.9370 223.5042
ENERGY: 600000 3.1518 8.6665 5.2372 0.0000 -10681.1251 1423.9224 0.0000 0.0000 1770.7095 -7469.4377 299.0641 -9240.1473 -7487.7712 301.3667 -211.2967 -135.8192 30698.5732 130.7057 214.0951
ENERGY: 900000 3.0721 7.8395 3.0813 0.0000 -10646.5778 1374.4929 0.0000 0.0000 1790.4949 -7467.5971 302.4058 -9258.0920 -7486.0511 302.7169 -486.3659 -435.8486 30960.7330 81.7070 160.8800
ENERGY: 1200000 3.0821 11.9984 3.8463 0.0000 -10894.1701 1500.7363 0.0000 0.0000 1802.0618 -7572.4452 304.3594 -9374.5070 -7500.4812 303.3529 126.1121 199.4642 30454.8474 86.2524 167.2811
ENERGY: 1500000 2.5338 7.3917 5.2314 0.0000 -10816.4972 1468.4679 0.0000 0.0000 1744.0387 -7588.8336 294.5596 -9332.8723 -7516.4033 301.4808 -28.0726 31.5304 30672.2840 -17.2565 64.1746
TCL: Running FEP window  15: Lambda1 0.7000000000000001 Lambda2 0.7500000000000001 [dLambda 0.050000000000000044]
TCL: Setting parameter firsttimestep to 0
TCL: Setting parameter alchLambda to 0.7000000000000001
Info: NONBONDED TABLE R-SQUARED SPACING: 0.0625
Info: NONBONDED TABLE SIZE: 705 POINTS
TCL: Setting parameter alchLambda2 to 0.7500000000000001
Info: NONBONDED TABLE R-SQUARED SPACING: 0.0625
Info: NONBONDED TABLE SIZE: 705 POINTS
TCL: Running for 1500000 steps
ETITLE: TS BOND ANGLE DIHED IMPRP ELECT VDW BOUNDARY MISC KINETIC TOTAL TEMP POTENTIAL TOTALAVG TEMPAVG PRESSURE GPRESSURE VOLUME PRESSAVG GPRESSAVG
ENERGY: 0 2.5338 7.3917 5.2314 0.0000 -10817.1683 1467.9718 0.0000 0.0000 1743.1582 -7590.8813 294.4108 -9334.0395 -7590.8813 294.4108 -56.0121 35.7635 30672.2840 -56.0121 35.7635
ENERGY: 300000 1.4226 12.8025 4.4412 0.0000 -10730.8325 1394.4876 0.0000 0.0000 1743.2738 -7574.4047 294.4304 -9317.6785 -7507.3445 300.6214 -746.2178 -660.2756 30930.2831 -473.1405 -409.4419
ENERGY: 600000 3.2220 11.3015 3.1858 0.0000 -10898.3777 1509.6543 0.0000 0.0000 1768.8589 -7602.1552 298.7516 -9371.0140 -7511.8717 301.4091 255.9481 289.8032 30468.7627 -134.9762 -77.5034
ENERGY: 900000 2.2146 6.4731 6.3139 0.0000 -10774.6061 1433.2270 0.0000 0.0000 1799.0174 -7527.3599 303.8452 -9326.3773 -7512.2964 301.3741 -357.8609 -333.1304 30850.6081 -92.4497 -28.7634
ENERGY: 1200000 0.7617 8.1390 4.3577 0.0000 -10807.0143 1451.3569 0.0000 0.0000 1815.8914 -7526.5077 306.6951 -9342.3991 -7516.3975 301.7268 -131.1108 -25.9509 30750.0057 -139.0787 -64.7726
ENERGY: 1500000 1.6369 8.4918 4.0519 0.0000 -10787.5465 1451.8513 0.0000 0.0000 1780.1870 -7541.3276 300.6648 -9321.5146 -7516.5482 302.0097 57.2598 176.2940 30557.5711 -169.0845 -93.0690
TCL: Running FEP window  16: Lambda1 0.7500000000000001 Lambda2 0.8000000000000002 [dLambda 0.050000000000000044]
TCL: Setting parameter firsttimestep to 0
TCL: Setting parameter alchLambda to 0.7500000000000001
Info: NONBONDED TABLE R-SQUARED SPACING: 0.0625
Info: NONBONDED TABLE SIZE: 705 POINTS
TCL: Setting parameter alchLambda2 to 0.8000000000000002
Info: NONBONDED TABLE R-SQUARED SPACING: 0.0625
Info: NONBONDED TABLE SIZE: 705 POINTS
TCL: Running for 1500000 steps
ETITLE: TS BOND ANGLE DIHED IMPRP ELECT VDW BOUNDARY MISC KINETIC TOTAL TEMP POTENTIAL TOTALAVG TEMPAVG PRESSURE GPRESSURE VOLUME PRESSAVG GPRESSAVG
ENERGY: 0 1.6369 8.4918 4.0519 0.0000 -10788.8858 1451.5957 0.0000 0.0000 1779.2696 -7543.8399 300.5099 -9323.1095 -7543.8399 300.5099 107.4284 179.2806 30557.5711 107.4284 179.2806
ENERGY: 300000 2.8060 9.1885 5.1631 0.0000 -10620.1808 1428.4295 0.0000 0.0000 1784.8381 -7389.7557 301.4504 -9174.5938 -7562.1749 294.8909 171.8132 202.0201 30450.8286 -1.7410 66.4781
ENERGY: 600000 1.7078 9.4083 3.5406 0.0000 -10668.8903 1399.5918 0.0000 0.0000 1754.1912 -7500.4507 296.2743 -9254.6419 -7532.7488 296.6707 -380.2761 -311.8762 30759.9423 -56.6256 5.1826
ENERGY: 900000 2.3841 16.3436 4.6675 0.0000 -10707.0136 1362.1815 0.0000 0.0000 1781.3813 -7540.0556 300.8665 -9321.4369 -7521.2896 298.2720 -604.8955 -589.0679 30342.2884 -90.0945 -40.5382
ENERGY: 1200000 2.4506 6.7132 2.9566 0.0000 -10792.3867 1414.0159 0.0000 0.0000 1782.0353 -7584.2151 300.9770 -9366.2504 -7528.2757 298.9762 -193.8134 -136.7863 30070.8369 -136.4413 -90.5070
ENERGY: 1500000 2.0369 11.4468 2.8103 0.0000 -10751.9506 1427.0001 0.0000 0.0000 1794.4367 -7514.2199 303.0715 -9308.6566 -7522.7415 299.8355 -284.3546 -213.6825 30670.4419 -152.2752 -101.4615
TCL: Running FEP window  17: Lambda1 0.8000000000000002 Lambda2 0.8500000000000002 [dLambda 0.050000000000000044]
TCL: Setting parameter firsttimestep to 0
TCL: Setting parameter alchLambda to 0.8000000000000002
Info: NONBONDED TABLE R-SQUARED SPACING: 0.0625
Info: NONBONDED TABLE SIZE: 705 POINTS
TCL: Setting parameter alchLambda2 to 0.8500000000000002
Info: NONBONDED TABLE R-SQUARED SPACING: 0.0625
Info: NONBONDED TABLE SIZE: 705 POINTS
TCL: Running for 1500000 steps
ETITLE: TS BOND ANGLE DIHED IMPRP ELECT VDW BOUNDARY MISC KINETIC TOTAL TEMP POTENTIAL TOTALAVG TEMPAVG PRESSURE GPRESSURE VOLUME PRESSAVG GPRESSAVG
ENERGY: 0 2.0369 11.4468 2.8103 0.0000 -10752.2771 1426.8804 0.0000 0.0000 1793.5739 -7515.5288 302.9258 -9309.1027 -7515.5288 302.9258 -287.7203 -203.4397 30670.4419 -287.7203 -203.4397
ENERGY: 300000 1.1720 7.9840 4.0005 0.0000 -10769.1183 1382.9160 0.0000 0.0000 1839.5167 -7533.5291 310.6853 -9373.0458 -7518.1079 306.2940 -609.5478 -514.7647 30343.2253 -231.2337 -163.7762
ENERGY: 600000 0.3927 9.3044 4.5217 0.0000 -10728.7643 1468.2977 0.0000 0.0000 1796.2283 -7450.0195 303.3741 -9246.2478 -7512.0717 304.8429 160.6563 231.1444 31101.3245 -24.5323 39.2347
ENERGY: 900000 0.2329 10.0348 5.6696 0.0000 -10765.1942 1442.2540 0.0000 0.0000 1753.2126 -7553.7902 296.1090 -9307.0028 -7518.6193 303.1409 18.6110 86.1347 30653.8221 13.4659 83.4919
ENERGY: 1200000 2.7339 14.1140 4.8574 0.0000 -10731.2077 1432.2326 0.0000 0.0000 1776.8688 -7500.4010 300.1044 -9277.2699 -7521.7071 301.8307 -221.3693 -171.9353 30771.2124 75.8834 146.6158
ENERGY: 1500000 4.7034 7.4601 3.6949 0.0000 -10801.4487 1398.6620 0.0000 0.0000 1790.5680 -7596.3602 302.4181 -9386.9282 -7521.5853 302.1329 -621.1474 -558.5364 30339.3177 63.5442 137.4385
TCL: Running FEP window  18: Lambda1 0.8500000000000002 Lambda2 0.9000000000000002 [dLambda 0.050000000000000044]
TCL: Setting parameter firsttimestep to 0
TCL: Setting parameter alchLambda to 0.8500000000000002
Info: NONBONDED TABLE R-SQUARED SPACING: 0.0625
Info: NONBONDED TABLE SIZE: 705 POINTS
TCL: Setting parameter alchLambda2 to 0.9000000000000002
Info: NONBONDED TABLE R-SQUARED SPACING: 0.0625
Info: NONBONDED TABLE SIZE: 705 POINTS
TCL: Running for 1500000 steps
ETITLE: TS BOND ANGLE DIHED IMPRP ELECT VDW BOUNDARY MISC KINETIC TOTAL TEMP POTENTIAL TOTALAVG TEMPAVG PRESSURE GPRESSURE VOLUME PRESSAVG GPRESSAVG
ENERGY: 0 4.7034 7.4601 3.6949 0.0000 -10802.2687 1399.0508 0.0000 0.0000 1789.6862 -7597.6733 302.2692 -9387.3595 -7597.6733 302.2692 -630.0095 -546.9545 30339.3177 -630.0095 -546.9545
ENERGY: 300000 1.8502 11.8945 5.4457 0.0000 -10771.1620 1435.8004 0.0000 0.0000 1790.4645 -7525.7067 302.4006 -9316.1712 -7520.7000 300.6472 188.5357 250.6427 30193.4304 -313.5068 -226.3556
ENERGY: 600000 1.1778 10.9465 3.4647 0.0000 -10729.6846 1380.5684 0.0000 0.0000 1794.3977 -7539.1295 303.0649 -9333.5272 -7516.7517 301.9507 -440.7922 -332.6569 30182.2866 -311.7878 -228.7567
ENERGY: 900000 1.2848 12.4563 2.6008 0.0000 -10886.7477 1532.2913 0.0000 0.0000 1781.4653 -7556.6492 300.8807 -9338.1145 -7520.6051 301.8114 431.5561 498.1428 30699.9563 -265.8453 -196.9425
ENERGY: 1200000 0.4376 10.8395 4.2758 0.0000 -10779.6058 1444.5089 0.0000 0.0000 1762.6646 -7556.8794 297.7054 -9319.5440 -7533.5792 301.1531 -18.2742 -23.2276 30719.0323 -171.2237 -105.2947
ENERGY: 1500000 0.6089 8.5936 5.3849 0.0000 -10788.9790 1464.5243 0.0000 0.0000 1730.6584 -7579.2089 292.2997 -9309.8673 -7526.7420 301.5982 59.6395 125.1307 30690.5441 -65.7421 -4.2334
TCL: Running FEP window  19: Lambda1 0.9000000000000002 Lambda2 0.9500000000000003 [dLambda 0.050000000000000044]
TCL: Setting parameter firsttimestep to 0
TCL: Setting parameter alchLambda to 0.9000000000000002
Info: NONBONDED TABLE R-SQUARED SPACING: 0.0625
Info: NONBONDED TABLE SIZE: 705 POINTS
TCL: Setting parameter alchLambda2 to 0.9500000000000003
Info: NONBONDED TABLE R-SQUARED SPACING: 0.0625
Info: NONBONDED TABLE SIZE: 705 POINTS
TCL: Running for 1500000 steps
ETITLE: TS BOND ANGLE DIHED IMPRP ELECT VDW BOUNDARY MISC KINETIC TOTAL TEMP POTENTIAL TOTALAVG TEMPAVG PRESSURE GPRESSURE VOLUME PRESSAVG GPRESSAVG
ENERGY: 0 0.6089 8.5937 5.3849 0.0000 -10789.8270 1464.6415 0.0000 0.0000 1729.7395 -7580.8586 292.1445 -9310.5981 -7580.8586 292.1445 50.0347 140.6067 30690.5441 50.0347 140.6067
ENERGY: 300000 1.2296 7.8959 3.5371 0.0000 -10758.2724 1487.5157 0.0000 0.0000 1798.6225 -7459.4717 303.7785 -9258.0942 -7544.1797 293.9698 543.1400 603.7749 30525.8941 -74.7770 21.8094
ENERGY: 600000 1.3029 8.9975 3.6667 0.0000 -10650.3171 1364.5703 0.0000 0.0000 1828.9668 -7442.8128 308.9035 -9271.7797 -7517.3275 298.9870 -557.7732 -534.5075 30925.8716 -140.2832 -60.8646
ENERGY: 900000 2.9924 8.1569 3.9771 0.0000 -10832.6085 1474.7446 0.0000 0.0000 1780.9117 -7561.8259 300.7872 -9342.7376 -7539.1805 298.5932 106.9427 256.1150 30605.7095 -85.2166 -8.3473
ENERGY: 1200000 3.3045 10.7170 4.3282 0.0000 -10739.3892 1419.7317 0.0000 0.0000 1769.6532 -7531.6546 298.8857 -9301.3079 -7538.2487 299.1157 -276.9308 -304.7455 30930.8002 -97.0674 -36.6728
ENERGY: 1500000 2.7565 8.7344 3.6784 0.0000 -10854.5282 1502.7573 0.0000 0.0000 1718.2495 -7618.3520 290.2039 -9336.6015 -7541.6646 299.1508 227.7823 294.1154 30431.2027 5.4343 63.1207
TCL: Running FEP window  20: Lambda1 0.9500000000000003 Lambda2 1.0    [dLambda 0.04999999999999971]
TCL: Setting parameter firsttimestep to 0
TCL: Setting parameter alchLambda to 0.9500000000000003
Info: NONBONDED TABLE R-SQUARED SPACING: 0.0625
Info: NONBONDED TABLE SIZE: 705 POINTS
TCL: Setting parameter alchLambda2 to 1.0
Info: NONBONDED TABLE R-SQUARED SPACING: 0.0625
Info: NONBONDED TABLE SIZE: 705 POINTS
TCL: Running for 1500000 steps
ETITLE: TS BOND ANGLE DIHED IMPRP ELECT VDW BOUNDARY MISC KINETIC TOTAL TEMP POTENTIAL TOTALAVG TEMPAVG PRESSURE GPRESSURE VOLUME PRESSAVG GPRESSAVG
ENERGY: 0 2.7565 8.7344 3.6784 0.0000 -10855.3636 1503.4781 0.0000 0.0000 1717.3408 -7619.3753 290.0504 -9336.7162 -7619.3753 290.0504 246.1199 318.6170 30431.2027 246.1199 318.6170
ENERGY: 300000 1.0332 9.6788 2.6170 0.0000 -10688.4700 1364.5536 0.0000 0.0000 1748.1869 -7562.4004 295.2602 -9310.5874 -7571.5598 296.1294 -646.0367 -672.9659 30820.2011 -251.2591 -218.1165
ENERGY: 600000 5.8572 8.4847 4.6782 0.0000 -10815.8240 1537.3319 0.0000 0.0000 1756.2794 -7503.1926 296.6270 -9259.4720 -7537.6124 298.1501 700.4754 791.2131 30761.9660 -50.2473 3.7399
ENERGY: 900000 4.2915 12.2169 3.9050 0.0000 -10805.1470 1451.6638 0.0000 0.0000 1724.5912 -7608.4785 291.2750 -9333.0697 -7535.8979 297.5662 -274.5246 -202.3232 30761.1391 -78.5320 -29.0121
ENERGY: 1200000 1.3599 8.9724 2.9819 0.0000 -10603.3059 1358.3975 0.0000 0.0000 1794.7344 -7436.8598 303.1218 -9231.5942 -7530.1035 297.6954 -565.5149 -486.1251 30911.5607 24.2499 81.2227
ENERGY: 1500000 0.8944 8.8070 4.1917 0.0000 -10990.7643 1560.8660 0.0000 0.0000 1803.1624 -7612.8428 304.5453 -9416.0052 -7532.4758 298.7405 946.5719 961.0012 30110.7325 79.6958 135.1754
TCL: Exiting due to exit command.
