Info: SIMULATION PARAMETERS:
Info: TIMESTEP               2
Info: NUMBER OF STEPS        0
Info: STEPS PER CYCLE        10
Info: PERIODIC CELL BASIS 1  31.9107 0 0
Info: PERIODIC CELL BASIS 2  0 31.7877 0
Info: PERIODIC CELL BASIS 3  0 0 29.85
Info: PERIODIC CELL CENTER   0 0 0
Info: WRAPPING WATERS AROUND PERIODIC BOUNDARIES ON OUTPUT.
Info: WRAPPING ALL CLUSTERS AROUND PERIODIC BOUNDARIES ON OUTPUT.
Info: FIRST LDB TIMESTEP     50
Info: LAST LDB TIMESTEP     -1
Info: HOM BACKGROUND SCALING 1
Info: PME BACKGROUND SCALING 1
Info: MIN ATOMS PER PATCH    40
Info: EMPTY PATCH LOAD       40 ATOMS
Info: VELOCITY FILE          mobley_4013838_equil.vel
Info: CENTER OF MASS MOVING INITIALLY? NO
Info: DIELECTRIC             1
Info: EXCLUDE                SCALED ONE-FOUR
Info: 1-4 ELECTROSTATICS SCALED BY 0.833333
Info: MODIFIED 1-4 VDW PARAMETERS WILL BE USED
Info: DCD FILENAME           mobley_4013838_prod.dcd
Info: DCD FREQUENCY          100000
Info: DCD FIRST STEP         100000
Info: DCD FILE WILL CONTAIN UNIT CELL DATA
Info: XST FILENAME           mobley_4013838_prod.xst
Info: XST FREQUENCY          100000
Info: NO VELOCITY DCD OUTPUT
Info: NO FORCE DCD OUTPUT
Info: OUTPUT FILENAME        mobley_4013838_prod
Info: BINARY OUTPUT FILES WILL BE USED
Info: RESTART FILENAME       mobley_4013838_prod.restart
Info: RESTART FREQUENCY      100000
Info: BINARY RESTART FILES WILL BE USED
Info: CUTOFF                 9
Info: PAIRLIST DISTANCE      11
Info: PAIRLIST SHRINK RATE   0.01
Info: PAIRLIST GROW RATE     0.01
Info: PAIRLIST TRIGGER       0.3
Info: PAIRLISTS PER CYCLE    2
Info: PAIRLISTS ENABLED
Info: MARGIN                 2
Info: HYDROGEN GROUP CUTOFF  2.5
Info: PATCH DIMENSION        15.5
Info: ENERGY OUTPUT STEPS    100000
Info: ENERGY EVALUATION STEPS    100000
Info: OUTPUT ENERGY PRECISION 4
Info: CROSSTERM ENERGY INCLUDED IN DIHEDRAL
Info: TIMING OUTPUT STEPS    1000000
Info: PRESSURE OUTPUT STEPS  100000
Info: ALCHEMICAL FEP ON
Info: FEP CURRENT LAMBDA VALUE     0
Info: FEP COMPARISON LAMBDA VALUE  0.05
Info: FEP INTRA-ALCHEMICAL NON-BONDED INTERACTIONS WILL BE RETAINED
Info: FEP INTRA-ALCHEMICAL BONDED INTERACTIONS WILL BE RETAINED
Info: FEP VDW SHIFTING COEFFICIENT 5
Info: FEP ELEC. ACTIVE FOR ANNIHILATED PARTICLES BETWEEN LAMBDA = 0 AND LAMBDA = 0.5
Info: FEP ELEC. ACTIVE FOR EXNIHILATED PARTICLES BETWEEN LAMBDA = 0.5 AND LAMBDA = 1
Info: FEP VDW ACTIVE FOR ANNIHILATED PARTICLES BETWEEN LAMBDA = 0 AND LAMBDA = 1
Info: FEP VDW ACTIVE FOR EXNIHILATED PARTICLES BETWEEN LAMBDA = 0 AND LAMBDA = 1
Info: FEP BOND ACTIVE FOR ANNIHILATED PARTICLES BETWEEN LAMBDA = 1 AND LAMBDA = 1
Info: FEP BOND ACTIVE FOR EXNIHILATED PARTICLES BETWEEN LAMBDA = 0 AND LAMBDA = 0
Info: LANGEVIN DYNAMICS ACTIVE
Info: LANGEVIN TEMPERATURE   300
Info: LANGEVIN USING BBK INTEGRATOR
Info: LANGEVIN DAMPING COEFFICIENT IS 1 INVERSE PS
Info: LANGEVIN DYNAMICS APPLIED TO HYDROGENS
Info: LANGEVIN PISTON PRESSURE CONTROL ACTIVE
Info:        TARGET PRESSURE IS 1.01325 BAR
Info:     OSCILLATION PERIOD IS 50 FS
Info:             DECAY TIME IS 25 FS
Info:     PISTON TEMPERATURE IS 300 K
Info:       PRESSURE CONTROL IS GROUP-BASED
Info:    INITIAL STRAIN RATE IS -0.000342246 -0.000342246 -0.000342246
Info:       CELL FLUCTUATION IS ISOTROPIC
Info: PARTICLE MESH EWALD (PME) ACTIVE
Info: PME TOLERANCE               1e-06
Info: PME EWALD COEFFICIENT       0.348832
Info: PME INTERPOLATION ORDER     4
Info: PME GRID DIMENSIONS         32 32 32
Info: PME MAXIMUM GRID SPACING    1
Info: PME CALCULATION WILL BE PERFORMED ON GPU
Info: FULL ELECTROSTATIC EVALUATION FREQUENCY      2
Info: USING VERLET I (r-RESPA) MTS SCHEME.
Info: C1 SPLITTING OF LONG RANGE ELECTROSTATICS
Info: PLACING ATOMS IN PATCHES BY HYDROGEN GROUPS
Info: RIGID BONDS TO HYDROGEN : ALL
Info:         ERROR TOLERANCE : 1e-08
Info:          MAX ITERATIONS : 100
Info: RIGID WATER USING SETTLE ALGORITHM
Info: RANDOM NUMBER SEED     1743879575
Info: USE HYDROGEN BONDS?    NO
Info: Using AMBER format force field!
Info: AMBER PARM FILE        mobley_4013838.prmtop
Info: COORDINATE PDB         mobley_4013838.pdb
Info: Exclusions will be read from PARM file!
Info: SCNB (VDW SCALING)     2
Info: USING ARITHMETIC MEAN TO COMBINE L-J SIGMA PARAMETERS
Info: BINARY COORDINATES     mobley_4013838_equil.coor
Info: SUMMARY OF PARAMETERS:
Info: 6 BONDS
Info: 7 ANGLES
Info:   7 HARMONIC
Info:   0 COSINE-BASED
Info: 8 DIHEDRAL
Info: 0 IMPROPER
Info: 0 CROSSTERM
Info: 0 VDW
Info: 21 VDW_PAIRS
Info: 0 NBTHOLE_PAIRS
Info: To read alchdata from file: mobley_4013838.pdb
Info: To read alchflag data from column: 5
Info: STRUCTURE SUMMARY:
Info: 2980 ATOMS
Info: 2979 BONDS
Info: 39 ANGLES
Info: 53 DIHEDRALS
Info: 0 IMPROPERS
Info: 0 CROSSTERMS
Info: 3066 EXCLUSIONS
Info: 2972 RIGID BONDS
Info: ALCH: 0 ATOMS TO DISAPPEAR IN FINAL STATE
Info: ALCH: 22 ATOMS TO APPEAR IN FINAL STATE
Info: 5968 DEGREES OF FREEDOM
Info: 994 HYDROGEN GROUPS
Info: 4 ATOMS IN LARGEST HYDROGEN GROUP
Info: 994 MIGRATION GROUPS
Info: 4 ATOMS IN LARGEST MIGRATION GROUP
Info: TOTAL MASS = 17878 amu
Info: TOTAL CHARGE = -0.000599995 e
Info: MASS DENSITY = 0.980479 g/cm^3
Info: ATOM DENSITY = 0.0984187 atoms/A^3
Info: ADDED 0 IMPLICIT EXCLUSIONS
Info: NONBONDED TABLE R-SQUARED SPACING: 0.0625
Info: NONBONDED TABLE SIZE: 705 POINTS
Info: REDUCING NUMBER OF PATCHES TO IMPROVE LOAD BALANCE
Info: REMOVING COM VELOCITY -0.030795 0.0345299 -0.130248
Info: Use 3D box decompostion in PME FFT.
Info: Updated CUDA force table with 4096 elements.
Info: Updated CUDA LJ table with 6 x 6 elements.
Info: Found 22 unique exclusion lists needing 60 bytes
TCL: Running for 1500000 steps
ETITLE: TS BOND ANGLE DIHED IMPRP ELECT VDW BOUNDARY MISC KINETIC TOTAL TEMP POTENTIAL TOTALAVG TEMPAVG PRESSURE GPRESSURE VOLUME PRESSAVG GPRESSAVG
ENERGY: 0 1.4666 8.8691 1.1238 0.0000 -10835.3619 1568.4164 0.0000 0.0000 1738.6149 -7516.8712 293.2007 -9255.4861 -7516.8712 293.2007 1154.4810 1229.7852 30278.8019 1154.4810 1229.7852
ENERGY: 300000 2.1425 11.7248 2.0660 0.0000 -10758.4551 1469.7044 0.0000 0.0000 1810.4637 -7462.3536 305.3173 -9272.8173 -7494.5960 302.0609 367.8424 399.4557 30205.4490 425.7747 492.6252
ENERGY: 600000 3.3340 9.6489 1.1101 0.0000 -10747.2341 1431.3953 0.0000 0.0000 1777.7055 -7524.0402 299.7929 -9301.7457 -7504.2232 302.0615 -7.7257 32.9679 30126.7563 294.2097 367.0528
ENERGY: 900000 2.4403 9.3242 0.7541 0.0000 -10798.1704 1474.9534 0.0000 0.0000 1739.0675 -7571.6309 293.2770 -9310.6984 -7511.6311 300.3892 205.9078 213.6039 30231.8914 242.1526 305.5936
ENERGY: 1200000 3.5755 6.2978 1.2252 0.0000 -10755.9508 1416.5690 0.0000 0.0000 1766.6838 -7561.5995 297.9342 -9328.2833 -7519.3054 299.6190 -226.3122 -170.9158 30076.7775 119.7742 180.4984
ENERGY: 1500000 2.2779 11.2540 2.5202 0.0000 -10856.9149 1561.7019 0.0000 0.0000 1779.6444 -7499.5165 300.1199 -9279.1609 -7512.7505 299.5970 1028.1285 1137.2395 30132.7063 110.4742 173.5641
TCL: Running FEP window   2: Lambda1 0.05   Lambda2 0.1    [dLambda 0.05  ]
TCL: Setting parameter firsttimestep to 0
TCL: Setting parameter alchLambda to 0.05
Info: NONBONDED TABLE R-SQUARED SPACING: 0.0625
Info: NONBONDED TABLE SIZE: 705 POINTS
TCL: Setting parameter alchLambda2 to 0.1
Info: NONBONDED TABLE R-SQUARED SPACING: 0.0625
Info: NONBONDED TABLE SIZE: 705 POINTS
TCL: Running for 1500000 steps
ETITLE: TS BOND ANGLE DIHED IMPRP ELECT VDW BOUNDARY MISC KINETIC TOTAL TEMP POTENTIAL TOTALAVG TEMPAVG PRESSURE GPRESSURE VOLUME PRESSAVG GPRESSAVG
ENERGY: 0 2.2779 11.2540 2.5202 0.0000 -10856.9156 1565.5603 0.0000 0.0000 1778.7599 -7496.5433 299.9707 -9275.3032 -7496.5433 299.9707 1052.1090 1143.2091 30132.7063 1052.1090 1143.2091
ENERGY: 300000 1.1869 9.6319 1.5235 0.0000 -10841.4435 1452.8942 0.0000 0.0000 1803.5681 -7572.6388 304.1544 -9376.2069 -7534.0515 298.0236 -275.7950 -266.0051 30682.9595 31.0461 96.4530
ENERGY: 600000 1.4082 12.8771 2.0575 0.0000 -10813.8323 1505.8148 0.0000 0.0000 1751.1136 -7540.5612 295.3085 -9291.6748 -7534.5100 298.1275 475.5043 525.9136 30258.7336 49.5791 106.3967
ENERGY: 900000 0.8966 14.1641 1.7815 0.0000 -10759.2885 1457.4394 0.0000 0.0000 1774.6388 -7510.3681 299.2758 -9285.0069 -7525.8768 297.6724 39.9575 115.2281 30343.4984 32.2000 91.3499
ENERGY: 1200000 3.7291 9.3306 2.2928 0.0000 -10586.3071 1349.3639 0.0000 0.0000 1796.7622 -7424.8286 303.0067 -9221.5908 -7521.4539 298.4864 -838.4876 -713.7993 30965.4173 -52.1477 14.4704
ENERGY: 1500000 2.2050 9.9594 1.8749 0.0000 -10743.5991 1431.9540 0.0000 0.0000 1797.6232 -7499.9826 303.1519 -9297.6058 -7507.7246 300.0023 -199.2415 -165.6723 30661.9827 -93.1942 -18.4310
TCL: Running FEP window   3: Lambda1 0.1    Lambda2 0.15000000000000002 [dLambda 0.05000000000000002]
TCL: Setting parameter firsttimestep to 0
TCL: Setting parameter alchLambda to 0.1
Info: NONBONDED TABLE R-SQUARED SPACING: 0.0625
Info: NONBONDED TABLE SIZE: 705 POINTS
TCL: Setting parameter alchLambda2 to 0.15000000000000002
Info: NONBONDED TABLE R-SQUARED SPACING: 0.0625
Info: NONBONDED TABLE SIZE: 705 POINTS
TCL: Running for 1500000 steps
ETITLE: TS BOND ANGLE DIHED IMPRP ELECT VDW BOUNDARY MISC KINETIC TOTAL TEMP POTENTIAL TOTALAVG TEMPAVG PRESSURE GPRESSURE VOLUME PRESSAVG GPRESSAVG
ENERGY: 0 2.2050 9.9594 1.8749 0.0000 -10743.5990 1433.4139 0.0000 0.0000 1796.7410 -7499.4048 303.0031 -9296.1459 -7499.4048 303.0031 -229.8015 -153.9433 30661.9827 -229.8015 -153.9433
ENERGY: 300000 2.1438 8.1716 1.8294 0.0000 -10994.6151 1626.3825 0.0000 0.0000 1769.5802 -7586.5075 298.4227 -9356.0878 -7538.3074 299.5387 1205.7722 1224.3580 30483.7295 311.0415 372.9179
ENERGY: 600000 0.6845 7.3062 2.6058 0.0000 -10584.0233 1339.3426 0.0000 0.0000 1804.1108 -7429.9733 304.2459 -9234.0842 -7520.3310 299.6751 -851.0965 -821.7961 30924.3421 68.0731 121.2500
ENERGY: 900000 2.0513 8.0093 1.5255 0.0000 -10770.2056 1504.3449 0.0000 0.0000 1732.1681 -7522.1065 292.1135 -9254.2746 -7518.6433 300.3116 693.5984 742.2608 30151.8241 51.8990 107.4928
ENERGY: 1200000 3.4071 10.4461 1.6041 0.0000 -10647.5217 1383.8395 0.0000 0.0000 1753.2192 -7495.0057 295.6636 -9248.2249 -7512.9879 300.2475 -737.4638 -594.8230 30673.3514 -17.5270 53.3074
ENERGY: 1500000 1.0057 6.3210 3.7083 0.0000 -10645.0043 1379.7514 0.0000 0.0000 1734.6270 -7519.5909 292.5281 -9254.2179 -7520.5325 299.4264 -607.8955 -482.2280 30688.6047 3.6264 79.8829
TCL: Running FEP window   4: Lambda1 0.15000000000000002 Lambda2 0.2    [dLambda 0.04999999999999999]
TCL: Setting parameter firsttimestep to 0
TCL: Setting parameter alchLambda to 0.15000000000000002
Info: NONBONDED TABLE R-SQUARED SPACING: 0.0625
Info: NONBONDED TABLE SIZE: 705 POINTS
TCL: Setting parameter alchLambda2 to 0.2
Info: NONBONDED TABLE R-SQUARED SPACING: 0.0625
Info: NONBONDED TABLE SIZE: 705 POINTS
TCL: Running for 1500000 steps
ETITLE: TS BOND ANGLE DIHED IMPRP ELECT VDW BOUNDARY MISC KINETIC TOTAL TEMP POTENTIAL TOTALAVG TEMPAVG PRESSURE GPRESSURE VOLUME PRESSAVG GPRESSAVG
ENERGY: 0 1.0057 6.3210 3.7083 0.0000 -10645.0040 1380.1390 0.0000 0.0000 1733.7258 -7520.1042 292.3762 -9253.8300 -7520.1042 292.3762 -556.6773 -478.6297 30688.6047 -556.6773 -478.6297
ENERGY: 300000 3.0461 8.9257 2.4507 0.0000 -10721.2792 1452.3219 0.0000 0.0000 1765.2102 -7489.3245 297.6857 -9254.5346 -7520.0630 294.6530 108.5901 192.3419 30515.3755 -310.8480 -247.1213
ENERGY: 600000 1.7485 12.6009 2.0360 0.0000 -10682.7738 1371.2860 0.0000 0.0000 1787.7942 -7507.3081 301.4943 -9295.1023 -7519.3989 296.0119 -421.7371 -382.5548 30329.9631 -281.5753 -217.1117
ENERGY: 900000 2.0794 10.9166 2.4052 0.0000 -10687.1471 1497.3247 0.0000 0.0000 1804.9533 -7369.4678 304.3880 -9174.4212 -7504.0039 297.9573 593.9075 631.2088 30598.3509 -103.8350 -42.9433
ENERGY: 1200000 1.3382 6.7636 1.7836 0.0000 -10689.3125 1354.7387 0.0000 0.0000 1765.7252 -7558.9632 297.7726 -9324.6884 -7519.0798 297.8019 -1072.9802 -1017.5898 31072.3058 -151.8584 -94.5372
ENERGY: 1500000 2.6669 7.8932 0.9507 0.0000 -10799.1731 1547.3572 0.0000 0.0000 1733.4293 -7506.8758 292.3262 -9240.3051 -7522.3506 296.7716 544.6763 591.6112 30916.7363 -182.6602 -123.4109
TCL: Running FEP window   5: Lambda1 0.2    Lambda2 0.25   [dLambda 0.04999999999999999]
TCL: Setting parameter firsttimestep to 0
TCL: Setting parameter alchLambda to 0.2
Info: NONBONDED TABLE R-SQUARED SPACING: 0.0625
Info: NONBONDED TABLE SIZE: 705 POINTS
TCL: Setting parameter alchLambda2 to 0.25
Info: NONBONDED TABLE R-SQUARED SPACING: 0.0625
Info: NONBONDED TABLE SIZE: 705 POINTS
TCL: Running for 1500000 steps
ETITLE: TS BOND ANGLE DIHED IMPRP ELECT VDW BOUNDARY MISC KINETIC TOTAL TEMP POTENTIAL TOTALAVG TEMPAVG PRESSURE GPRESSURE VOLUME PRESSAVG GPRESSAVG
ENERGY: 0 2.6669 7.8932 0.9507 0.0000 -10799.1722 1547.8117 0.0000 0.0000 1732.5391 -7507.3106 292.1761 -9239.8497 -7507.3106 292.1761 526.1071 597.3772 30916.7363 526.1071 597.3772
ENERGY: 300000 3.4862 13.0227 1.9126 0.0000 -10772.5521 1403.7278 0.0000 0.0000 1714.7081 -7635.6948 289.1690 -9350.4028 -7549.8313 292.9872 -566.0495 -503.7050 30553.7970 90.8105 142.3078
ENERGY: 600000 4.1450 15.5149 1.5143 0.0000 -10525.6331 1307.1823 0.0000 0.0000 1734.6642 -7462.6124 292.5344 -9197.2766 -7544.6452 294.5423 -1114.8229 -1082.3661 30820.0429 -413.3688 -358.6257
ENERGY: 900000 3.7454 13.3613 1.4867 0.0000 -10693.7473 1407.0319 0.0000 0.0000 1733.0255 -7535.0964 292.2581 -9268.1219 -7532.2376 294.9170 -482.4530 -409.5032 30686.6699 -289.4183 -234.1859
ENERGY: 1200000 2.8248 10.0335 2.4631 0.0000 -10718.2975 1368.1428 0.0000 0.0000 1723.9960 -7610.8373 290.7353 -9334.8333 -7535.2135 295.8761 -792.2836 -736.1249 30299.5765 -345.7428 -294.2996
ENERGY: 1500000 0.6732 14.8459 1.3858 0.0000 -10801.0642 1480.7851 0.0000 0.0000 1795.0828 -7508.2914 302.7234 -9303.3742 -7528.0093 296.8856 473.2233 594.9541 29853.8554 -264.0140 -208.0481
TCL: Running FEP window   6: Lambda1 0.25   Lambda2 0.3    [dLambda 0.04999999999999999]
TCL: Setting parameter firsttimestep to 0
TCL: Setting parameter alchLambda to 0.25
Info: NONBONDED TABLE R-SQUARED SPACING: 0.0625
Info: NONBONDED TABLE SIZE: 705 POINTS
TCL: Setting parameter alchLambda2 to 0.3
Info: NONBONDED TABLE R-SQUARED SPACING: 0.0625
Info: NONBONDED TABLE SIZE: 705 POINTS
TCL: Running for 1500000 steps
ETITLE: TS BOND ANGLE DIHED IMPRP ELECT VDW BOUNDARY MISC KINETIC TOTAL TEMP POTENTIAL TOTALAVG TEMPAVG PRESSURE GPRESSURE VOLUME PRESSAVG GPRESSAVG
ENERGY: 0 0.6732 14.8459 1.3858 0.0000 -10801.0643 1482.6211 0.0000 0.0000 1794.1932 -7507.3452 302.5734 -9301.5384 -7507.3452 302.5734 519.0812 606.8200 29853.8554 519.0812 606.8200
ENERGY: 300000 4.0567 6.8944 2.1104 0.0000 -10850.5370 1517.4919 0.0000 0.0000 1822.4018 -7497.5817 307.3305 -9319.9836 -7503.2019 302.1244 459.1798 519.6737 30520.4595 98.2857 183.1301
ENERGY: 600000 2.3310 13.4935 2.1456 0.0000 -10563.9243 1305.3738 0.0000 0.0000 1730.2133 -7510.3672 291.7838 -9240.5805 -7526.0595 300.3814 -1244.5548 -1221.4026 31268.1201 -84.6298 -19.8165
ENERGY: 900000 1.3402 16.6329 2.1229 0.0000 -10793.4125 1513.3905 0.0000 0.0000 1827.2725 -7432.6535 308.1519 -9259.9259 -7509.8591 300.3760 428.9638 530.3495 30595.4667 69.9782 139.7966
ENERGY: 1200000 2.6520 8.9167 1.2922 0.0000 -10732.8281 1442.3503 0.0000 0.0000 1790.4912 -7487.1257 301.9491 -9277.6168 -7509.4685 299.5879 -220.2437 -199.5809 30857.6122 104.1111 167.7670
ENERGY: 1500000 2.4845 7.0937 1.2257 0.0000 -10892.2529 1486.9822 0.0000 0.0000 1782.2026 -7612.2642 300.5513 -9394.4668 -7521.5804 299.5072 -25.5985 27.1877 30702.3959 143.4499 206.5956
TCL: Running FEP window   7: Lambda1 0.3    Lambda2 0.35   [dLambda 0.04999999999999999]
TCL: Setting parameter firsttimestep to 0
TCL: Setting parameter alchLambda to 0.3
Info: NONBONDED TABLE R-SQUARED SPACING: 0.0625
Info: NONBONDED TABLE SIZE: 705 POINTS
TCL: Setting parameter alchLambda2 to 0.35
Info: NONBONDED TABLE R-SQUARED SPACING: 0.0625
Info: NONBONDED TABLE SIZE: 705 POINTS
TCL: Running for 1500000 steps
ETITLE: TS BOND ANGLE DIHED IMPRP ELECT VDW BOUNDARY MISC KINETIC TOTAL TEMP POTENTIAL TOTALAVG TEMPAVG PRESSURE GPRESSURE VOLUME PRESSAVG GPRESSAVG
ENERGY: 0 2.4845 7.0937 1.2257 0.0000 -10892.2534 1487.3505 0.0000 0.0000 1781.3007 -7612.7982 300.3992 -9394.0990 -7612.7982 300.3992 -60.9531 33.5538 30702.3959 -60.9531 33.5538
ENERGY: 300000 1.1926 5.1586 1.0750 0.0000 -10760.5614 1451.9517 0.0000 0.0000 1799.8042 -7501.3794 303.5197 -9301.1836 -7532.9889 300.4783 78.8123 173.9830 30537.1566 79.7693 139.2057
ENERGY: 600000 1.1689 8.0243 1.1654 0.0000 -10869.5222 1519.9634 0.0000 0.0000 1805.5622 -7533.6381 304.4907 -9339.2002 -7534.2794 301.3617 347.5259 467.0757 30373.9717 117.9659 182.1886
ENERGY: 900000 2.2993 8.8051 1.7941 0.0000 -10855.7442 1494.3530 0.0000 0.0000 1780.1351 -7568.3576 300.2027 -9348.4926 -7534.3259 300.9650 362.0583 421.1137 30453.4384 182.8905 244.3009
ENERGY: 1200000 0.3969 6.8775 2.0741 0.0000 -10701.5828 1422.9593 0.0000 0.0000 1821.4996 -7447.7754 307.1784 -9269.2750 -7520.2611 302.2669 -119.8438 -75.6168 30840.3112 141.5213 200.3011
ENERGY: 1500000 2.9636 8.5240 0.9757 0.0000 -10762.0951 1462.6273 0.0000 0.0000 1816.1054 -7470.8991 306.2687 -9287.0044 -7515.4862 301.3747 -85.2499 -66.6237 30960.3558 63.2846 123.7520
TCL: Running FEP window   8: Lambda1 0.35   Lambda2 0.39999999999999997 [dLambda 0.04999999999999999]
TCL: Setting parameter firsttimestep to 0
TCL: Setting parameter alchLambda to 0.35
Info: NONBONDED TABLE R-SQUARED SPACING: 0.0625
Info: NONBONDED TABLE SIZE: 705 POINTS
TCL: Setting parameter alchLambda2 to 0.39999999999999997
Info: NONBONDED TABLE R-SQUARED SPACING: 0.0625
Info: NONBONDED TABLE SIZE: 705 POINTS
TCL: Running for 1500000 steps
ETITLE: TS BOND ANGLE DIHED IMPRP ELECT VDW BOUNDARY MISC KINETIC TOTAL TEMP POTENTIAL TOTALAVG TEMPAVG PRESSURE GPRESSURE VOLUME PRESSAVG GPRESSAVG
ENERGY: 0 2.9636 8.5240 0.9757 0.0000 -10762.0951 1462.8616 0.0000 0.0000 1815.1869 -7471.5833 306.1138 -9286.7702 -7471.5833 306.1138 -131.5226 -60.3919 30960.3558 -131.5226 -60.3919
ENERGY: 300000 1.3250 11.6416 1.0539 0.0000 -10737.9878 1394.6886 0.0000 0.0000 1775.1189 -7554.1597 299.3567 -9329.2786 -7479.2392 299.3188 -701.8948 -569.2788 30916.1518 -264.1057 -180.5207
ENERGY: 600000 3.9611 12.0610 1.0321 0.0000 -10610.0912 1320.8780 0.0000 0.0000 1734.0685 -7538.0905 292.4340 -9272.1590 -7519.6065 297.7069 -1052.6833 -1015.5855 30764.9226 -230.3606 -162.3327
ENERGY: 900000 2.4260 5.9214 0.8163 0.0000 -10667.8702 1440.0103 0.0000 0.0000 1769.5571 -7449.1390 298.4188 -9218.6961 -7502.2686 299.1929 74.6282 214.8131 30704.3002 -104.7343 -32.7011
ENERGY: 1200000 2.4030 7.7254 3.0323 0.0000 -10790.2552 1478.6712 0.0000 0.0000 1790.4081 -7508.0151 301.9351 -9298.4232 -7501.6947 299.2909 -114.0202 -25.6591 30809.1256 -167.3160 -99.3636
ENERGY: 1500000 1.6899 15.8249 1.3731 0.0000 -10690.1530 1402.2391 0.0000 0.0000 1765.1277 -7503.8983 297.6718 -9269.0260 -7513.9653 299.2002 -240.5753 -153.7462 30445.9306 -187.1548 -117.8529
TCL: Running FEP window   9: Lambda1 0.39999999999999997 Lambda2 0.44999999999999996 [dLambda 0.04999999999999999]
TCL: Setting parameter firsttimestep to 0
TCL: Setting parameter alchLambda to 0.39999999999999997
Info: NONBONDED TABLE R-SQUARED SPACING: 0.0625
Info: NONBONDED TABLE SIZE: 705 POINTS
TCL: Setting parameter alchLambda2 to 0.44999999999999996
Info: NONBONDED TABLE R-SQUARED SPACING: 0.0625
Info: NONBONDED TABLE SIZE: 705 POINTS
TCL: Running for 1500000 steps
ETITLE: TS BOND ANGLE DIHED IMPRP ELECT VDW BOUNDARY MISC KINETIC TOTAL TEMP POTENTIAL TOTALAVG TEMPAVG PRESSURE GPRESSURE VOLUME PRESSAVG GPRESSAVG
ENERGY: 0 1.6899 15.8249 1.3731 0.0000 -10690.1542 1401.6387 0.0000 0.0000 1764.2581 -7505.3695 297.5252 -9269.6276 -7505.3695 297.5252 -246.4751 -152.6851 30445.9306 -246.4751 -152.6851
ENERGY: 300000 5.3465 9.5890 1.4365 0.0000 -10828.2847 1479.2831 0.0000 0.0000 1799.7132 -7532.9165 303.5043 -9332.6297 -7476.9206 301.8109 251.6276 295.2373 30147.2020 -82.0977 -22.9671
ENERGY: 600000 2.0862 9.1856 1.4121 0.0000 -10747.4851 1448.2074 0.0000 0.0000 1771.1010 -7515.4927 298.6792 -9286.5938 -7497.7243 301.1338 -193.9215 -147.0125 30869.8617 -133.9245 -79.9139
ENERGY: 900000 0.4939 7.3388 1.9672 0.0000 -10755.1705 1459.6721 0.0000 0.0000 1824.7383 -7460.9601 307.7246 -9285.6985 -7484.2847 303.3775 44.3603 92.2227 30820.3025 -19.8065 29.8595
ENERGY: 1200000 2.1213 12.7786 1.9133 0.0000 -10675.9030 1334.7541 0.0000 0.0000 1789.3934 -7534.9422 301.7640 -9324.3357 -7486.7840 302.9993 -839.6677 -811.2307 30557.2937 -63.0409 -4.2359
ENERGY: 1500000 1.7565 10.3261 1.0285 0.0000 -10754.1625 1403.9564 0.0000 0.0000 1752.4045 -7584.6904 295.5262 -9337.0949 -7496.2344 302.1325 -362.5328 -224.7283 30288.3412 -104.0759 -41.1377
TCL: Running FEP window  10: Lambda1 0.44999999999999996 Lambda2 0.49999999999999994 [dLambda 0.04999999999999999]
TCL: Setting parameter firsttimestep to 0
TCL: Setting parameter alchLambda to 0.44999999999999996
Info: NONBONDED TABLE R-SQUARED SPACING: 0.0625
Info: NONBONDED TABLE SIZE: 705 POINTS
TCL: Setting parameter alchLambda2 to 0.49999999999999994
Info: NONBONDED TABLE R-SQUARED SPACING: 0.0625
Info: NONBONDED TABLE SIZE: 705 POINTS
TCL: Running for 1500000 steps
ETITLE: TS BOND ANGLE DIHED IMPRP ELECT VDW BOUNDARY MISC KINETIC TOTAL TEMP POTENTIAL TOTALAVG TEMPAVG PRESSURE GPRESSURE VOLUME PRESSAVG GPRESSAVG
ENERGY: 0 1.7565 10.3261 1.0285 0.0000 -10754.1622 1403.6597 0.0000 0.0000 1751.5540 -7585.8372 295.3827 -9337.3912 -7585.8372 295.3827 -320.2329 -223.6376 30288.3412 -320.2329 -223.6376
ENERGY: 300000 4.6529 6.1623 1.4230 0.0000 -10740.3015 1444.6424 0.0000 0.0000 1759.9745 -7523.4464 296.8028 -9283.4210 -7570.3824 296.7242 292.6597 324.0312 30015.8614 126.4395 200.3220
ENERGY: 600000 2.3501 10.0303 1.4104 0.0000 -10808.0321 1457.7811 0.0000 0.0000 1736.0046 -7600.4557 292.7605 -9336.4602 -7545.7806 297.0475 -253.8597 -174.0474 30672.6300 -39.8011 43.7794
ENERGY: 900000 5.0425 7.3063 2.5110 0.0000 -10716.0284 1432.2391 0.0000 0.0000 1767.4955 -7501.4340 298.0711 -9268.9295 -7526.8406 299.4531 -185.7760 -73.1719 30593.3177 89.0011 182.7618
ENERGY: 1200000 1.7034 8.7824 1.6007 0.0000 -10797.9652 1464.9429 0.0000 0.0000 1767.3933 -7553.5425 298.0539 -9320.9358 -7520.2862 299.3322 177.1573 198.2047 30321.6730 -43.2995 36.8297
ENERGY: 1500000 4.8546 12.8723 2.3810 0.0000 -10802.6809 1526.7987 0.0000 0.0000 1783.9245 -7471.8497 300.8417 -9255.7742 -7524.4146 299.5988 543.7545 605.1790 30622.2624 -10.1568 65.4002
TCL: Running FEP window  11: Lambda1 0.49999999999999994 Lambda2 0.5499999999999999 [dLambda 0.04999999999999999]
TCL: Setting parameter firsttimestep to 0
TCL: Setting parameter alchLambda to 0.49999999999999994
Info: NONBONDED TABLE R-SQUARED SPACING: 0.0625
Info: NONBONDED TABLE SIZE: 705 POINTS
TCL: Setting parameter alchLambda2 to 0.5499999999999999
Info: NONBONDED TABLE R-SQUARED SPACING: 0.0625
Info: NONBONDED TABLE SIZE: 705 POINTS
TCL: Running for 1500000 steps
ETITLE: TS BOND ANGLE DIHED IMPRP ELECT VDW BOUNDARY MISC KINETIC TOTAL TEMP POTENTIAL TOTALAVG TEMPAVG PRESSURE GPRESSURE VOLUME PRESSAVG GPRESSAVG
ENERGY: 0 4.8546 12.8723 2.3810 0.0000 -10802.6789 1526.6635 0.0000 0.0000 1783.0720 -7472.8355 300.6979 -9255.9075 -7472.8355 300.6979 531.8181 610.1695 30622.2624 531.8181 610.1695
ENERGY: 300000 3.6419 9.4737 1.4582 0.0000 -10928.7241 1495.8686 0.0000 0.0000 1778.9701 -7639.3115 300.0062 -9418.2816 -7566.8227 298.8206 -53.6423 -46.3823 30827.5540 274.1700 305.6618
ENERGY: 600000 1.5431 7.3475 2.9769 0.0000 -10751.9165 1472.7743 0.0000 0.0000 1722.2526 -7545.0222 290.4413 -9267.2748 -7564.0185 298.5389 25.7274 118.3067 30703.0873 49.3258 90.8148
ENERGY: 900000 1.5081 7.8039 2.3866 0.0000 -10692.2691 1444.7604 0.0000 0.0000 1793.8707 -7441.9394 302.5190 -9235.8102 -7529.2885 299.1300 -3.1659 64.8178 30966.0227 19.2943 62.1575
ENERGY: 1200000 1.4550 11.0183 2.0109 0.0000 -10704.0653 1414.0997 0.0000 0.0000 1777.8660 -7497.6155 299.8200 -9275.4815 -7517.9078 299.6296 -501.8979 -390.9813 30962.8740 -69.8789 -11.7839
ENERGY: 1500000 3.1061 12.4697 1.9537 0.0000 -10644.5696 1353.3536 0.0000 0.0000 1747.1897 -7526.4967 294.6467 -9273.6864 -7511.0969 300.0942 -668.4494 -607.8676 30737.9304 -89.3694 -28.0033
TCL: Running FEP window  12: Lambda1 0.5499999999999999 Lambda2 0.6    [dLambda 0.050000000000000044]
TCL: Setting parameter firsttimestep to 0
TCL: Setting parameter alchLambda to 0.5499999999999999
Info: NONBONDED TABLE R-SQUARED SPACING: 0.0625
Info: NONBONDED TABLE SIZE: 705 POINTS
TCL: Setting parameter alchLambda2 to 0.6
Info: NONBONDED TABLE R-SQUARED SPACING: 0.0625
Info: NONBONDED TABLE SIZE: 705 POINTS
TCL: Running for 1500000 steps
ETITLE: TS BOND ANGLE DIHED IMPRP ELECT VDW BOUNDARY MISC KINETIC TOTAL TEMP POTENTIAL TOTALAVG TEMPAVG PRESSURE GPRESSURE VOLUME PRESSAVG GPRESSAVG
ENERGY: 0 3.1061 12.4697 1.9537 0.0000 -10644.1358 1353.7143 0.0000 0.0000 1746.2903 -7526.6016 294.4951 -9272.8919 -7526.6016 294.4951 -678.9512 -595.5998 30737.9304 -678.9512 -595.5998
ENERGY: 300000 1.8152 9.5972 1.0346 0.0000 -10798.5416 1462.8080 0.0000 0.0000 1817.7272 -7505.5595 306.5422 -9323.2867 -7532.4631 299.1654 422.6881 475.0359 29740.0286 -190.2917 -110.1920
ENERGY: 600000 1.9354 9.9052 1.5840 0.0000 -10810.9191 1485.4516 0.0000 0.0000 1732.1677 -7579.8752 292.1134 -9312.0429 -7524.6021 298.3512 500.0934 569.2385 30018.0232 -189.1045 -121.3732
ENERGY: 900000 1.1297 9.8854 1.5786 0.0000 -10824.7856 1498.5868 0.0000 0.0000 1753.3085 -7560.2967 295.6786 -9313.6051 -7536.9650 297.0494 196.4539 238.0692 30673.2456 -168.6862 -106.3837
ENERGY: 1200000 3.8506 9.0100 1.6176 0.0000 -10674.0861 1437.5952 0.0000 0.0000 1706.7287 -7515.2838 287.8234 -9222.0125 -7533.4748 295.7206 -233.3514 -217.9698 31201.7729 -121.0306 -63.4453
ENERGY: 1500000 1.2037 6.6750 2.6403 0.0000 -10687.8259 1483.8545 0.0000 0.0000 1774.2355 -7419.2170 299.2077 -9193.4524 -7518.2814 296.9878 471.9966 555.9602 30864.3761 -159.1127 -96.7862
TCL: Running FEP window  13: Lambda1 0.6    Lambda2 0.65   [dLambda 0.050000000000000044]
TCL: Setting parameter firsttimestep to 0
TCL: Setting parameter alchLambda to 0.6
Info: NONBONDED TABLE R-SQUARED SPACING: 0.0625
Info: NONBONDED TABLE SIZE: 705 POINTS
TCL: Setting parameter alchLambda2 to 0.65
Info: NONBONDED TABLE R-SQUARED SPACING: 0.0625
Info: NONBONDED TABLE SIZE: 705 POINTS
TCL: Running for 1500000 steps
ETITLE: TS BOND ANGLE DIHED IMPRP ELECT VDW BOUNDARY MISC KINETIC TOTAL TEMP POTENTIAL TOTALAVG TEMPAVG PRESSURE GPRESSURE VOLUME PRESSAVG GPRESSAVG
ENERGY: 0 1.2037 6.6750 2.6403 0.0000 -10688.2803 1483.6706 0.0000 0.0000 1773.3101 -7420.7806 299.0517 -9194.0907 -7420.7806 299.0517 474.2157 559.6012 30864.3761 474.2157 559.6012
ENERGY: 300000 1.8350 9.8964 1.0463 0.0000 -10801.0730 1525.9055 0.0000 0.0000 1761.4789 -7500.9110 297.0565 -9262.3899 -7492.6103 299.6931 869.2262 893.0728 30178.3451 196.7288 261.7960
ENERGY: 600000 2.7752 9.7862 1.5253 0.0000 -10735.7172 1448.8967 0.0000 0.0000 1833.7309 -7439.0028 309.2411 -9272.7337 -7471.3897 301.1700 162.1181 244.6850 30396.7982 51.2689 113.2547
ENERGY: 900000 1.3749 8.7752 2.5101 0.0000 -10768.1398 1436.9274 0.0000 0.0000 1773.2071 -7545.3451 299.0343 -9318.5521 -7493.5444 300.8390 -151.9834 -123.2384 30625.4555 -55.4190 4.3298
ENERGY: 1200000 2.3342 10.2532 1.8046 0.0000 -10707.8171 1459.8960 0.0000 0.0000 1762.7757 -7470.7534 297.2752 -9233.5291 -7489.9100 300.7144 138.1607 223.6374 30799.5268 -107.9753 -49.1951
ENERGY: 1500000 2.5176 13.4392 1.5931 0.0000 -10723.2771 1434.4559 0.0000 0.0000 1715.2826 -7555.9887 289.2659 -9271.2713 -7500.9810 299.6982 -215.3366 -131.7068 30635.0980 -138.6411 -74.5116
TCL: Running FEP window  14: Lambda1 0.65   Lambda2 0.7000000000000001 [dLambda 0.050000000000000044]
TCL: Setting parameter firsttimestep to 0
TCL: Setting parameter alchLambda to 0.65
Info: NONBONDED TABLE R-SQUARED SPACING: 0.0625
Info: NONBONDED TABLE SIZE: 705 POINTS
TCL: Setting parameter alchLambda2 to 0.7000000000000001
Info: NONBONDED TABLE R-SQUARED SPACING: 0.0625
Info: NONBONDED TABLE SIZE: 705 POINTS
TCL: Running for 1500000 steps
ETITLE: TS BOND ANGLE DIHED IMPRP ELECT VDW BOUNDARY MISC KINETIC TOTAL TEMP POTENTIAL TOTALAVG TEMPAVG PRESSURE GPRESSURE VOLUME PRESSAVG GPRESSAVG
ENERGY: 0 2.5176 13.4392 1.5931 0.0000 -10722.5941 1434.1620 0.0000 0.0000 1714.4212 -7556.4610 289.1206 -9270.8822 -7556.4610 289.1206 -203.4351 -121.6883 30635.0980 -203.4351 -121.6883
ENERGY: 300000 2.9156 10.1381 3.4070 0.0000 -10828.7193 1479.0280 0.0000 0.0000 1792.9939 -7540.2366 302.3712 -9333.2306 -7533.9504 296.4132 189.6836 210.0699 30430.7802 194.6234 263.1083
ENERGY: 600000 2.3718 10.0547 0.8948 0.0000 -10777.0133 1413.3989 0.0000 0.0000 1814.5437 -7535.7494 306.0053 -9350.2931 -7536.3365 297.7949 -201.1357 -166.0387 30091.0266 30.0720 100.1430
ENERGY: 900000 6.6403 9.4417 0.6861 0.0000 -10612.2832 1422.6622 0.0000 0.0000 1792.0294 -7380.8236 302.2085 -9172.8529 -7514.9529 299.8389 -400.0992 -385.6387 31540.2946 48.0769 112.0810
ENERGY: 1200000 1.7067 9.9726 1.6616 0.0000 -10702.5801 1382.3635 0.0000 0.0000 1790.6203 -7516.2554 301.9709 -9306.8757 -7512.7120 299.4582 -719.8635 -575.2015 31059.7658 -74.4019 8.4949
ENERGY: 1500000 1.9011 7.2622 1.3082 0.0000 -10685.1266 1441.6920 0.0000 0.0000 1759.7939 -7473.1692 296.7723 -9232.9631 -7514.3460 299.0677 -27.6036 112.2273 30804.9934 -57.9531 26.9300
TCL: Running FEP window  15: Lambda1 0.7000000000000001 Lambda2 0.7500000000000001 [dLambda 0.050000000000000044]
TCL: Setting parameter firsttimestep to 0
TCL: Setting parameter alchLambda to 0.7000000000000001
Info: NONBONDED TABLE R-SQUARED SPACING: 0.0625
Info: NONBONDED TABLE SIZE: 705 POINTS
TCL: Setting parameter alchLambda2 to 0.7500000000000001
Info: NONBONDED TABLE R-SQUARED SPACING: 0.0625
Info: NONBONDED TABLE SIZE: 705 POINTS
TCL: Running for 1500000 steps
ETITLE: TS BOND ANGLE DIHED IMPRP ELECT VDW BOUNDARY MISC KINETIC TOTAL TEMP POTENTIAL TOTALAVG TEMPAVG PRESSURE GPRESSURE VOLUME PRESSAVG GPRESSAVG
ENERGY: 0 1.9010 7.2622 1.3082 0.0000 -10685.8692 1441.5130 0.0000 0.0000 1758.9088 -7474.9759 296.6230 -9233.8847 -7474.9759 296.6230 19.2844 117.9528 30804.9934 19.2844 117.9528
ENERGY: 300000 5.2462 7.9458 1.0033 0.0000 -10896.0184 1547.9461 0.0000 0.0000 1811.2077 -7522.6693 305.4428 -9333.8770 -7490.0612 301.7805 976.5058 1017.0963 30284.5335 348.2492 402.0338
ENERGY: 600000 1.5477 10.5108 1.4079 0.0000 -10901.0156 1518.2543 0.0000 0.0000 1737.0367 -7632.2582 292.9345 -9369.2949 -7519.4823 300.7885 503.9298 551.1841 30236.4295 188.1522 238.9248
ENERGY: 900000 2.7545 10.2858 0.6304 0.0000 -10708.4854 1446.7462 0.0000 0.0000 1756.1742 -7491.8943 296.1619 -9248.0685 -7533.8687 299.2646 225.0996 269.2088 30608.8586 260.1528 309.9955
ENERGY: 1200000 0.9110 10.4277 0.8749 0.0000 -10942.1602 1591.4017 0.0000 0.0000 1764.2468 -7574.2981 297.5233 -9338.5449 -7526.4468 299.3877 1398.8375 1421.6814 30128.1911 277.5344 323.1955
ENERGY: 1500000 1.1615 6.5521 1.1014 0.0000 -10693.8553 1413.6373 0.0000 0.0000 1834.4688 -7436.9341 309.3655 -9271.4029 -7511.2816 300.7386 -138.2600 -113.1983 30863.1090 213.6751 264.5418
TCL: Running FEP window  16: Lambda1 0.7500000000000001 Lambda2 0.8000000000000002 [dLambda 0.050000000000000044]
TCL: Setting parameter firsttimestep to 0
TCL: Setting parameter alchLambda to 0.7500000000000001
Info: NONBONDED TABLE R-SQUARED SPACING: 0.0625
Info: NONBONDED TABLE SIZE: 705 POINTS
TCL: Setting parameter alchLambda2 to 0.8000000000000002
Info: NONBONDED TABLE R-SQUARED SPACING: 0.0625
Info: NONBONDED TABLE SIZE: 705 POINTS
TCL: Running for 1500000 steps
ETITLE: TS BOND ANGLE DIHED IMPRP ELECT VDW BOUNDARY MISC KINETIC TOTAL TEMP POTENTIAL TOTALAVG TEMPAVG PRESSURE GPRESSURE VOLUME PRESSAVG GPRESSAVG
ENERGY: 0 1.1615 6.5521 1.1014 0.0000 -10694.3378 1413.5596 0.0000 0.0000 1833.5477 -7438.4154 309.2102 -9271.9631 -7438.4154 309.2102 -190.6173 -103.2738 30863.1090 -190.6173 -103.2738
ENERGY: 300000 0.5743 11.4745 1.1455 0.0000 -10760.2632 1462.6164 0.0000 0.0000 1811.1362 -7473.3164 305.4307 -9284.4526 -7507.3500 305.2515 94.8974 251.3366 30512.1955 -295.2746 -205.5890
ENERGY: 600000 1.8906 15.6396 1.5774 0.0000 -10752.3439 1427.9626 0.0000 0.0000 1770.9973 -7534.2765 298.6617 -9305.2738 -7523.1503 302.7491 -257.5289 -244.1685 30798.9402 -280.1373 -199.9370
ENERGY: 900000 4.3629 9.1313 2.1833 0.0000 -10706.7191 1404.7981 0.0000 0.0000 1765.2792 -7520.9643 297.6974 -9286.2435 -7536.0572 300.7531 -362.4723 -304.3735 30784.4331 -196.2009 -118.7211
ENERGY: 1200000 2.6800 11.4840 1.9560 0.0000 -10686.0993 1423.7529 0.0000 0.0000 1810.4382 -7435.7882 305.3130 -9246.2264 -7525.4244 299.9478 -62.9927 -7.4951 31024.3317 -283.2515 -207.4457
ENERGY: 1500000 2.8981 9.1633 0.5717 0.0000 -10969.1719 1500.2906 0.0000 0.0000 1791.3067 -7664.9415 302.0866 -9456.2482 -7534.3456 299.7246 240.9759 277.0810 30131.5834 -233.7580 -157.7946
TCL: Running FEP window  17: Lambda1 0.8000000000000002 Lambda2 0.8500000000000002 [dLambda 0.050000000000000044]
TCL: Setting parameter firsttimestep to 0
TCL: Setting parameter alchLambda to 0.8000000000000002
Info: NONBONDED TABLE R-SQUARED SPACING: 0.0625
Info: NONBONDED TABLE SIZE: 705 POINTS
TCL: Setting parameter alchLambda2 to 0.8500000000000002
Info: NONBONDED TABLE R-SQUARED SPACING: 0.0625
Info: NONBONDED TABLE SIZE: 705 POINTS
TCL: Running for 1500000 steps
ETITLE: TS BOND ANGLE DIHED IMPRP ELECT VDW BOUNDARY MISC KINETIC TOTAL TEMP POTENTIAL TOTALAVG TEMPAVG PRESSURE GPRESSURE VOLUME PRESSAVG GPRESSAVG
ENERGY: 0 2.8981 9.1633 0.5717 0.0000 -10969.6311 1500.9282 0.0000 0.0000 1790.4227 -7665.6471 301.9376 -9456.0698 -7665.6471 301.9376 203.7994 299.0399 30131.5834 203.7994 299.0399
ENERGY: 300000 2.5148 10.8528 3.5908 0.0000 -10664.0438 1342.0600 0.0000 0.0000 1793.2902 -7511.7352 302.4211 -9305.0254 -7585.6408 299.4840 -905.9094 -891.3493 30707.8622 -71.0016 -18.3837
ENERGY: 600000 0.8658 5.6353 1.7836 0.0000 -10726.9666 1418.5689 0.0000 0.0000 1726.6488 -7573.4642 291.1827 -9300.1130 -7567.4153 298.0456 -431.9410 -367.5804 30824.8130 -83.6315 -22.1036
ENERGY: 900000 1.3490 4.4044 0.5952 0.0000 -10766.1518 1421.1646 0.0000 0.0000 1808.6601 -7529.9785 305.0131 -9338.6386 -7550.6673 298.7100 -341.9368 -270.6255 30630.9732 -98.3044 -42.0210
ENERGY: 1200000 2.5304 12.6163 1.7433 0.0000 -10872.8964 1487.6318 0.0000 0.0000 1762.4358 -7605.9388 297.2178 -9368.3746 -7549.3521 298.4975 156.8504 263.4155 30513.0841 -80.5969 -17.2439
ENERGY: 1500000 2.1114 6.1514 1.3725 0.0000 -10468.6530 1252.1963 0.0000 0.0000 1789.2976 -7417.5238 301.7478 -9206.8214 -7532.5455 299.3996 -1365.4175 -1326.0875 31564.2022 -154.4375 -96.9808
TCL: Running FEP window  18: Lambda1 0.8500000000000002 Lambda2 0.9000000000000002 [dLambda 0.050000000000000044]
TCL: Setting parameter firsttimestep to 0
TCL: Setting parameter alchLambda to 0.8500000000000002
Info: NONBONDED TABLE R-SQUARED SPACING: 0.0625
Info: NONBONDED TABLE SIZE: 705 POINTS
TCL: Setting parameter alchLambda2 to 0.9000000000000002
Info: NONBONDED TABLE R-SQUARED SPACING: 0.0625
Info: NONBONDED TABLE SIZE: 705 POINTS
TCL: Running for 1500000 steps
ETITLE: TS BOND ANGLE DIHED IMPRP ELECT VDW BOUNDARY MISC KINETIC TOTAL TEMP POTENTIAL TOTALAVG TEMPAVG PRESSURE GPRESSURE VOLUME PRESSAVG GPRESSAVG
ENERGY: 0 2.1114 6.1514 1.3725 0.0000 -10469.1213 1251.7868 0.0000 0.0000 1788.4031 -7419.2961 301.5970 -9207.6992 -7419.2961 301.5970 -1418.9884 -1321.0152 31564.2022 -1418.9884 -1321.0152
ENERGY: 300000 4.4575 9.9137 0.5477 0.0000 -10702.1419 1330.1907 0.0000 0.0000 1784.2341 -7572.7982 300.8939 -9357.0323 -7539.0644 299.8407 -808.6929 -745.6592 30277.2055 -724.4968 -653.5639
ENERGY: 600000 3.0730 12.9935 1.2920 0.0000 -10889.3410 1521.6377 0.0000 0.0000 1766.2292 -7584.1156 297.8576 -9350.3449 -7544.3662 300.9960 261.6972 269.5413 30809.6814 -390.1706 -335.7457
ENERGY: 900000 4.1461 10.8676 1.2784 0.0000 -10808.9278 1489.8741 0.0000 0.0000 1798.1661 -7504.5956 303.2434 -9302.7617 -7546.2571 300.7531 197.5724 307.5483 30860.9480 -235.2891 -167.7646
ENERGY: 1200000 1.0729 10.5870 1.7747 0.0000 -10764.4379 1410.4785 0.0000 0.0000 1763.6730 -7576.8518 297.4265 -9340.5248 -7546.7585 300.5238 -675.1549 -567.9985 31118.6435 -351.2767 -279.8777
ENERGY: 1500000 0.9489 9.7032 0.6678 0.0000 -10759.0365 1521.2659 0.0000 0.0000 1780.0540 -7446.3966 300.1890 -9226.4506 -7542.7106 300.2852 663.9683 764.3527 30945.2962 -164.3181 -92.2544
TCL: Running FEP window  19: Lambda1 0.9000000000000002 Lambda2 0.9500000000000003 [dLambda 0.050000000000000044]
TCL: Setting parameter firsttimestep to 0
TCL: Setting parameter alchLambda to 0.9000000000000002
Info: NONBONDED TABLE R-SQUARED SPACING: 0.0625
Info: NONBONDED TABLE SIZE: 705 POINTS
TCL: Setting parameter alchLambda2 to 0.9500000000000003
Info: NONBONDED TABLE R-SQUARED SPACING: 0.0625
Info: NONBONDED TABLE SIZE: 705 POINTS
TCL: Running for 1500000 steps
ETITLE: TS BOND ANGLE DIHED IMPRP ELECT VDW BOUNDARY MISC KINETIC TOTAL TEMP POTENTIAL TOTALAVG TEMPAVG PRESSURE GPRESSURE VOLUME PRESSAVG GPRESSAVG
ENERGY: 0 0.9489 9.7032 0.6678 0.0000 -10759.8069 1522.0777 0.0000 0.0000 1779.1865 -7447.2227 300.0427 -9226.4092 -7447.2227 300.0427 712.8289 790.7063 30945.2962 712.8289 790.7063
ENERGY: 300000 1.9322 10.9452 1.1012 0.0000 -10789.7453 1458.3253 0.0000 0.0000 1744.2138 -7573.2276 294.1449 -9317.4414 -7508.8643 299.7691 -239.7912 -145.0980 31089.2226 -205.4667 -143.5728
ENERGY: 600000 1.5964 10.6804 1.4317 0.0000 -10663.5879 1357.0424 0.0000 0.0000 1794.4697 -7498.3672 302.6201 -9292.8370 -7495.2379 302.2891 -900.2854 -888.5051 31255.1703 -252.8640 -185.2540
ENERGY: 900000 0.8554 8.9483 2.0465 0.0000 -10810.8239 1450.5423 0.0000 0.0000 1785.0866 -7563.3448 301.0377 -9348.4314 -7519.8224 300.1752 -45.2310 82.9863 30515.5019 -201.8098 -122.8916
ENERGY: 1200000 2.2237 11.5498 3.9392 0.0000 -10848.3883 1561.2224 0.0000 0.0000 1802.4818 -7466.9714 303.9712 -9269.4532 -7505.6768 300.8281 1133.5850 1118.2874 30683.1724 -42.7091 24.8926
ENERGY: 1500000 0.9147 12.3235 2.3272 0.0000 -10685.9586 1409.7027 0.0000 0.0000 1773.1669 -7487.5236 299.0275 -9260.6905 -7510.8780 300.0783 -250.7860 -137.8016 30863.8935 -59.4987 7.2370
TCL: Running FEP window  20: Lambda1 0.9500000000000003 Lambda2 1.0    [dLambda 0.04999999999999971]
TCL: Setting parameter firsttimestep to 0
TCL: Setting parameter alchLambda to 0.9500000000000003
Info: NONBONDED TABLE R-SQUARED SPACING: 0.0625
Info: NONBONDED TABLE SIZE: 705 POINTS
TCL: Setting parameter alchLambda2 to 1.0
Info: NONBONDED TABLE R-SQUARED SPACING: 0.0625
Info: NONBONDED TABLE SIZE: 705 POINTS
TCL: Running for 1500000 steps
ETITLE: TS BOND ANGLE DIHED IMPRP ELECT VDW BOUNDARY MISC KINETIC TOTAL TEMP POTENTIAL TOTALAVG TEMPAVG PRESSURE GPRESSURE VOLUME PRESSAVG GPRESSAVG
ENERGY: 0 0.9147 12.3235 2.3272 0.0000 -10687.3031 1409.8002 0.0000 0.0000 1772.2662 -7489.6713 298.8757 -9261.9375 -7489.6713 298.8757 -210.4775 -125.4004 30863.8935 -210.4775 -125.4004
ENERGY: 300000 4.1341 11.6006 1.1736 0.0000 -10657.6865 1377.6580 0.0000 0.0000 1768.8318 -7494.2884 298.2965 -9263.1201 -7494.4899 300.5006 -512.4998 -470.8521 30744.8412 -308.9102 -243.6680
ENERGY: 600000 0.4896 7.5995 3.3792 0.0000 -10630.4294 1313.7781 0.0000 0.0000 1706.3802 -7598.8028 287.7646 -9305.1829 -7519.7673 299.0040 -1067.2749 -1032.3184 30993.2715 -324.4508 -266.9464
ENERGY: 900000 3.7916 8.5680 0.6982 0.0000 -10742.6040 1407.2150 0.0000 0.0000 1779.7063 -7542.6249 300.1304 -9322.3313 -7520.0122 300.5236 -585.0250 -486.1482 31009.3925 -283.0299 -215.6157
ENERGY: 1200000 2.1841 2.7192 1.7575 0.0000 -10704.7656 1385.4539 0.0000 0.0000 1814.2784 -7498.3723 305.9606 -9312.6508 -7509.1804 300.8240 -720.1295 -742.9393 31276.0372 -363.4672 -308.5677
ENERGY: 1500000 3.5466 8.6057 1.2524 0.0000 -10904.1158 1517.9696 0.0000 0.0000 1789.3615 -7583.3801 301.7586 -9372.7415 -7509.5505 300.4789 270.0886 306.0033 30476.4400 -278.3944 -225.6877
TCL: Exiting due to exit command.
