Info: SIMULATION PARAMETERS:
Info: TIMESTEP               2
Info: NUMBER OF STEPS        0
Info: STEPS PER CYCLE        10
Info: PERIODIC CELL BASIS 1  31.9574 0 0
Info: PERIODIC CELL BASIS 2  0 32.2481 0
Info: PERIODIC CELL BASIS 3  0 0 30.5472
Info: PERIODIC CELL CENTER   0 0 0
Info: WRAPPING WATERS AROUND PERIODIC BOUNDARIES ON OUTPUT.
Info: WRAPPING ALL CLUSTERS AROUND PERIODIC BOUNDARIES ON OUTPUT.
Info: FIRST LDB TIMESTEP     50
Info: LAST LDB TIMESTEP     -1
Info: HOM BACKGROUND SCALING 1
Info: PME BACKGROUND SCALING 1
Info: MIN ATOMS PER PATCH    40
Info: EMPTY PATCH LOAD       40 ATOMS
Info: VELOCITY FILE          mobley_8221999_equil.vel
Info: CENTER OF MASS MOVING INITIALLY? NO
Info: DIELECTRIC             1
Info: EXCLUDE                SCALED ONE-FOUR
Info: 1-4 ELECTROSTATICS SCALED BY 0.833333
Info: MODIFIED 1-4 VDW PARAMETERS WILL BE USED
Info: DCD FILENAME           mobley_8221999_prod.dcd
Info: DCD FREQUENCY          100000
Info: DCD FIRST STEP         100000
Info: DCD FILE WILL CONTAIN UNIT CELL DATA
Info: XST FILENAME           mobley_8221999_prod.xst
Info: XST FREQUENCY          100000
Info: NO VELOCITY DCD OUTPUT
Info: NO FORCE DCD OUTPUT
Info: OUTPUT FILENAME        mobley_8221999_prod
Info: BINARY OUTPUT FILES WILL BE USED
Info: RESTART FILENAME       mobley_8221999_prod.restart
Info: RESTART FREQUENCY      100000
Info: BINARY RESTART FILES WILL BE USED
Info: CUTOFF                 9
Info: PAIRLIST DISTANCE      11
Info: PAIRLIST SHRINK RATE   0.01
Info: PAIRLIST GROW RATE     0.01
Info: PAIRLIST TRIGGER       0.3
Info: PAIRLISTS PER CYCLE    2
Info: PAIRLISTS ENABLED
Info: MARGIN                 2
Info: HYDROGEN GROUP CUTOFF  2.5
Info: PATCH DIMENSION        15.5
Info: ENERGY OUTPUT STEPS    100000
Info: ENERGY EVALUATION STEPS    100000
Info: OUTPUT ENERGY PRECISION 4
Info: CROSSTERM ENERGY INCLUDED IN DIHEDRAL
Info: TIMING OUTPUT STEPS    1000000
Info: PRESSURE OUTPUT STEPS  100000
Info: ALCHEMICAL FEP ON
Info: FEP CURRENT LAMBDA VALUE     1
Info: FEP COMPARISON LAMBDA VALUE  0.95
Info: FEP INTRA-ALCHEMICAL NON-BONDED INTERACTIONS WILL BE RETAINED
Info: FEP INTRA-ALCHEMICAL BONDED INTERACTIONS WILL BE RETAINED
Info: FEP VDW SHIFTING COEFFICIENT 5
Info: FEP ELEC. ACTIVE FOR ANNIHILATED PARTICLES BETWEEN LAMBDA = 0 AND LAMBDA = 0.5
Info: FEP ELEC. ACTIVE FOR EXNIHILATED PARTICLES BETWEEN LAMBDA = 0.5 AND LAMBDA = 1
Info: FEP VDW ACTIVE FOR ANNIHILATED PARTICLES BETWEEN LAMBDA = 0 AND LAMBDA = 1
Info: FEP VDW ACTIVE FOR EXNIHILATED PARTICLES BETWEEN LAMBDA = 0 AND LAMBDA = 1
Info: FEP BOND ACTIVE FOR ANNIHILATED PARTICLES BETWEEN LAMBDA = 1 AND LAMBDA = 1
Info: FEP BOND ACTIVE FOR EXNIHILATED PARTICLES BETWEEN LAMBDA = 0 AND LAMBDA = 0
Info: LANGEVIN DYNAMICS ACTIVE
Info: LANGEVIN TEMPERATURE   300
Info: LANGEVIN USING BBK INTEGRATOR
Info: LANGEVIN DAMPING COEFFICIENT IS 1 INVERSE PS
Info: LANGEVIN DYNAMICS APPLIED TO HYDROGENS
Info: LANGEVIN PISTON PRESSURE CONTROL ACTIVE
Info:        TARGET PRESSURE IS 1.01325 BAR
Info:     OSCILLATION PERIOD IS 50 FS
Info:             DECAY TIME IS 25 FS
Info:     PISTON TEMPERATURE IS 300 K
Info:       PRESSURE CONTROL IS GROUP-BASED
Info:    INITIAL STRAIN RATE IS -0.000638255 -0.000638255 -0.000638255
Info:       CELL FLUCTUATION IS ISOTROPIC
Info: PARTICLE MESH EWALD (PME) ACTIVE
Info: PME TOLERANCE               1e-06
Info: PME EWALD COEFFICIENT       0.348832
Info: PME INTERPOLATION ORDER     4
Info: PME GRID DIMENSIONS         32 36 32
Info: PME MAXIMUM GRID SPACING    1
Info: PME CALCULATION WILL BE PERFORMED ON GPU
Info: FULL ELECTROSTATIC EVALUATION FREQUENCY      2
Info: USING VERLET I (r-RESPA) MTS SCHEME.
Info: C1 SPLITTING OF LONG RANGE ELECTROSTATICS
Info: PLACING ATOMS IN PATCHES BY HYDROGEN GROUPS
Info: RIGID BONDS TO HYDROGEN : ALL
Info:         ERROR TOLERANCE : 1e-08
Info:          MAX ITERATIONS : 100
Info: RIGID WATER USING SETTLE ALGORITHM
Info: RANDOM NUMBER SEED     1743725713
Info: USE HYDROGEN BONDS?    NO
Info: Using AMBER format force field!
Info: AMBER PARM FILE        mobley_8221999.prmtop
Info: COORDINATE PDB         mobley_8221999.pdb
Info: Exclusions will be read from PARM file!
Info: SCNB (VDW SCALING)     2
Info: USING ARITHMETIC MEAN TO COMBINE L-J SIGMA PARAMETERS
Info: BINARY COORDINATES     mobley_8221999_equil.coor
Info: SUMMARY OF PARAMETERS:
Info: 6 BONDS
Info: 6 ANGLES
Info:   6 HARMONIC
Info:   0 COSINE-BASED
Info: 4 DIHEDRAL
Info: 0 IMPROPER
Info: 0 CROSSTERM
Info: 0 VDW
Info: 21 VDW_PAIRS
Info: 0 NBTHOLE_PAIRS
Info: To read alchdata from file: mobley_8221999.pdb
Info: To read alchflag data from column: 5
Info: STRUCTURE SUMMARY:
Info: 2997 ATOMS
Info: 2996 BONDS
Info: 19 ANGLES
Info: 21 DIHEDRALS
Info: 0 IMPROPERS
Info: 0 CROSSTERMS
Info: 3036 EXCLUSIONS
Info: 2992 RIGID BONDS
Info: ALCH: 0 ATOMS TO DISAPPEAR IN FINAL STATE
Info: ALCH: 12 ATOMS TO APPEAR IN FINAL STATE
Info: 5999 DEGREES OF FREEDOM
Info: 1000 HYDROGEN GROUPS
Info: 4 ATOMS IN LARGEST HYDROGEN GROUP
Info: 1000 MIGRATION GROUPS
Info: 4 ATOMS IN LARGEST MIGRATION GROUP
Info: TOTAL MASS = 17995 amu
Info: TOTAL CHARGE = -0.000200013 e
Info: MASS DENSITY = 0.949217 g/cm^3
Info: ATOM DENSITY = 0.0952008 atoms/A^3
Info: ADDED 0 IMPLICIT EXCLUSIONS
Info: NONBONDED TABLE R-SQUARED SPACING: 0.0625
Info: NONBONDED TABLE SIZE: 705 POINTS
Info: REDUCING NUMBER OF PATCHES TO IMPROVE LOAD BALANCE
Info: REMOVING COM VELOCITY -0.0349237 0.0356613 -0.0914713
Info: Use 3D box decompostion in PME FFT.
Info: Updated CUDA force table with 4096 elements.
Info: Updated CUDA LJ table with 6 x 6 elements.
Info: Found 14 unique exclusion lists needing 28 bytes
TCL: Running for 1500000 steps
ETITLE: TS BOND ANGLE DIHED IMPRP ELECT VDW BOUNDARY MISC KINETIC TOTAL TEMP POTENTIAL TOTALAVG TEMPAVG PRESSURE GPRESSURE VOLUME PRESSAVG GPRESSAVG
ENERGY: 0 1.5722 6.5005 0.5142 0.0000 -10934.8019 1535.4777 0.0000 0.0000 1856.9449 -7533.7924 311.5376 -9390.7373 -7533.7924 311.5376 413.3712 484.5198 31480.8286 413.3712 484.5198
ENERGY: 300000 2.5421 4.8943 0.6018 0.0000 -10743.1335 1429.3777 0.0000 0.0000 1771.9599 -7533.7577 297.2798 -9305.7176 -7540.8194 303.1195 -331.0548 -280.8301 31540.9345 -208.5175 -145.2117
ENERGY: 600000 0.3443 6.1647 0.2066 0.0000 -10897.7144 1424.1255 0.0000 0.0000 1797.6458 -7669.2275 301.5891 -9466.8733 -7578.1433 301.6718 -366.0780 -373.1590 30921.6814 28.5124 76.0365
ENERGY: 900000 2.8342 3.0421 0.2012 0.0000 -10831.1379 1408.5065 0.0000 0.0000 1762.9041 -7653.6498 295.7605 -9416.5539 -7586.4501 301.3424 -588.7391 -533.6785 30810.5153 -32.4410 11.5009
ENERGY: 1200000 0.8933 5.2721 0.1695 0.0000 -10865.8599 1490.2830 0.0000 0.0000 1832.5380 -7536.7040 307.4429 -9369.2420 -7592.6366 301.4146 449.0787 507.5028 30867.0424 -17.5476 27.1371
ENERGY: 1500000 1.7439 5.6201 0.9430 0.0000 -10984.6271 1539.6518 0.0000 0.0000 1791.9851 -7644.6832 300.6394 -9436.6683 -7592.8530 301.6950 687.7419 709.0092 30552.7635 25.7388 70.9205
TCL: Running FEP window   2: Lambda1 0.95   Lambda2 0.8999999999999999 [dLambda -0.050000000000000044]
TCL: Setting parameter firsttimestep to 0
TCL: Setting parameter alchLambda to 0.95
Info: NONBONDED TABLE R-SQUARED SPACING: 0.0625
Info: NONBONDED TABLE SIZE: 705 POINTS
TCL: Setting parameter alchLambda2 to 0.8999999999999999
Info: NONBONDED TABLE R-SQUARED SPACING: 0.0625
Info: NONBONDED TABLE SIZE: 705 POINTS
TCL: Running for 1500000 steps
ETITLE: TS BOND ANGLE DIHED IMPRP ELECT VDW BOUNDARY MISC KINETIC TOTAL TEMP POTENTIAL TOTALAVG TEMPAVG PRESSURE GPRESSURE VOLUME PRESSAVG GPRESSAVG
ENERGY: 0 1.7439 5.6201 0.9430 0.0000 -10983.9351 1539.6883 0.0000 0.0000 1791.0824 -7644.8574 300.4880 -9435.9398 -7644.8574 300.4880 607.9940 701.0530 30552.7635 607.9940 701.0530
ENERGY: 300000 0.9787 4.4983 0.2226 0.0000 -10819.2914 1423.2918 0.0000 0.0000 1823.3492 -7566.9509 305.9013 -9390.3000 -7604.0812 302.5228 -362.5945 -292.8703 30936.7822 167.5751 250.6518
ENERGY: 600000 0.9802 5.6530 0.7376 0.0000 -10881.9213 1488.6680 0.0000 0.0000 1762.5354 -7623.3471 295.6987 -9385.8825 -7612.0850 300.9437 475.6969 523.3554 30463.8271 43.2162 100.9171
ENERGY: 900000 0.7584 4.3600 0.2655 0.0000 -10766.4206 1377.1281 0.0000 0.0000 1839.8715 -7544.0371 308.6733 -9383.9087 -7613.6304 301.2128 -611.6379 -595.2682 31152.4897 56.8888 106.9147
ENERGY: 1200000 5.5609 4.3646 1.6533 0.0000 -10892.7668 1434.4812 0.0000 0.0000 1743.0126 -7703.6942 292.4233 -9446.7068 -7622.0675 299.9102 -437.6688 -402.7017 30672.3097 73.0437 118.0663
ENERGY: 1500000 0.6716 2.3567 0.2458 0.0000 -10794.1278 1374.9578 0.0000 0.0000 1776.5560 -7639.3400 298.0509 -9415.8959 -7626.5786 299.7509 -747.1721 -717.1432 30771.3364 13.4707 62.2691
TCL: Running FEP window   3: Lambda1 0.8999999999999999 Lambda2 0.8499999999999999 [dLambda -0.050000000000000044]
TCL: Setting parameter firsttimestep to 0
TCL: Setting parameter alchLambda to 0.8999999999999999
Info: NONBONDED TABLE R-SQUARED SPACING: 0.0625
Info: NONBONDED TABLE SIZE: 705 POINTS
TCL: Setting parameter alchLambda2 to 0.8499999999999999
Info: NONBONDED TABLE R-SQUARED SPACING: 0.0625
Info: NONBONDED TABLE SIZE: 705 POINTS
TCL: Running for 1500000 steps
ETITLE: TS BOND ANGLE DIHED IMPRP ELECT VDW BOUNDARY MISC KINETIC TOTAL TEMP POTENTIAL TOTALAVG TEMPAVG PRESSURE GPRESSURE VOLUME PRESSAVG GPRESSAVG
ENERGY: 0 0.6716 2.3567 0.2458 0.0000 -10793.1594 1375.0989 0.0000 0.0000 1775.6567 -7639.1298 297.9000 -9414.7864 -7639.1298 297.9000 -805.6460 -719.8117 30771.3364 -805.6460 -719.8117
ENERGY: 300000 2.0308 7.0789 1.0074 0.0000 -10816.3376 1405.6791 0.0000 0.0000 1771.2657 -7629.2758 297.1633 -9400.5414 -7647.0363 299.5855 -574.7714 -546.8544 31123.6310 12.9912 59.0137
ENERGY: 600000 0.8477 5.2506 0.5847 0.0000 -10861.4114 1471.9474 0.0000 0.0000 1768.9857 -7613.7953 296.7808 -9382.7810 -7615.4266 300.7048 -70.2165 27.1492 31168.4405 -113.1573 -45.1871
ENERGY: 900000 3.3485 5.8572 0.8908 0.0000 -10759.5353 1379.0024 0.0000 0.0000 1785.9309 -7584.5056 299.6237 -9370.4365 -7599.3641 301.0498 -430.5117 -353.2215 30661.7825 -145.1544 -85.8429
ENERGY: 1200000 0.9525 3.8959 0.2771 0.0000 -10788.2202 1429.2871 0.0000 0.0000 1757.4085 -7596.3992 294.8385 -9353.8076 -7588.4658 302.1618 -70.8700 -18.1586 31067.3363 -113.8853 -50.9921
ENERGY: 1500000 1.6950 7.2766 0.5168 0.0000 -10805.7806 1427.8382 0.0000 0.0000 1807.0893 -7561.3647 303.1734 -9368.4540 -7597.4546 301.4896 -196.9048 -97.0368 31018.8894 -125.0088 -59.9344
TCL: Running FEP window   4: Lambda1 0.8499999999999999 Lambda2 0.7999999999999998 [dLambda -0.050000000000000044]
TCL: Setting parameter firsttimestep to 0
TCL: Setting parameter alchLambda to 0.8499999999999999
Info: NONBONDED TABLE R-SQUARED SPACING: 0.0625
Info: NONBONDED TABLE SIZE: 705 POINTS
TCL: Setting parameter alchLambda2 to 0.7999999999999998
Info: NONBONDED TABLE R-SQUARED SPACING: 0.0625
Info: NONBONDED TABLE SIZE: 705 POINTS
TCL: Running for 1500000 steps
ETITLE: TS BOND ANGLE DIHED IMPRP ELECT VDW BOUNDARY MISC KINETIC TOTAL TEMP POTENTIAL TOTALAVG TEMPAVG PRESSURE GPRESSURE VOLUME PRESSAVG GPRESSAVG
ENERGY: 0 1.6950 7.2766 0.5168 0.0000 -10804.7877 1428.1438 0.0000 0.0000 1806.2170 -7560.9386 303.0271 -9367.1556 -7560.9386 303.0271 -185.5919 -97.5534 31018.8894 -185.5919 -97.5534
ENERGY: 300000 0.1502 3.6254 0.4904 0.0000 -10913.1459 1493.7071 0.0000 0.0000 1836.0438 -7579.1289 308.0311 -9415.1727 -7591.5942 303.2126 131.3815 164.4447 31282.8541 -48.5663 11.9314
ENERGY: 600000 0.8968 4.7448 0.2238 0.0000 -10811.3484 1495.0124 0.0000 0.0000 1797.2506 -7513.2201 301.5228 -9310.4707 -7578.9127 300.1941 653.0223 763.8576 30660.7043 -20.4651 43.8385
ENERGY: 900000 1.1028 3.1467 0.0975 0.0000 -10764.5096 1400.7712 0.0000 0.0000 1780.4586 -7578.9328 298.7056 -9359.3914 -7583.7654 300.2564 -268.7235 -201.6897 30731.8121 -107.3657 -49.0337
ENERGY: 1200000 0.4308 6.2787 0.7446 0.0000 -10946.0340 1540.5061 0.0000 0.0000 1809.0402 -7589.0335 303.5007 -9398.0737 -7578.4841 301.2025 1077.4897 1140.3696 30111.9149 -21.4026 41.3269
ENERGY: 1500000 0.2684 5.7463 0.1881 0.0000 -11085.8274 1571.9408 0.0000 0.0000 1810.1679 -7697.5159 303.6899 -9507.6838 -7583.8142 301.4081 878.1522 873.5200 30471.0688 101.1557 151.5639
TCL: Running FEP window   5: Lambda1 0.7999999999999998 Lambda2 0.7499999999999998 [dLambda -0.050000000000000044]
TCL: Setting parameter firsttimestep to 0
TCL: Setting parameter alchLambda to 0.7999999999999998
Info: NONBONDED TABLE R-SQUARED SPACING: 0.0625
Info: NONBONDED TABLE SIZE: 705 POINTS
TCL: Setting parameter alchLambda2 to 0.7499999999999998
Info: NONBONDED TABLE R-SQUARED SPACING: 0.0625
Info: NONBONDED TABLE SIZE: 705 POINTS
TCL: Running for 1500000 steps
ETITLE: TS BOND ANGLE DIHED IMPRP ELECT VDW BOUNDARY MISC KINETIC TOTAL TEMP POTENTIAL TOTALAVG TEMPAVG PRESSURE GPRESSURE VOLUME PRESSAVG GPRESSAVG
ENERGY: 0 0.2684 5.7463 0.1881 0.0000 -11085.1851 1572.3297 0.0000 0.0000 1809.2569 -7697.3957 303.5371 -9506.6526 -7697.3957 303.5371 778.8224 868.2813 30471.0688 778.8224 868.2813
ENERGY: 300000 0.9408 4.9197 0.9504 0.0000 -10915.9908 1437.0526 0.0000 0.0000 1792.6918 -7679.4355 300.7580 -9472.1273 -7649.3857 303.0995 -277.3381 -242.0980 30699.9063 193.4208 248.5739
ENERGY: 600000 1.3519 5.4060 0.1171 0.0000 -10828.4332 1395.2815 0.0000 0.0000 1811.4650 -7614.8117 303.9075 -9426.2767 -7637.2154 302.2017 -820.8656 -777.2505 31217.9491 -94.1761 -54.1355
ENERGY: 900000 4.5251 4.5479 0.2291 0.0000 -11001.3075 1477.7421 0.0000 0.0000 1766.2005 -7748.0629 296.3136 -9514.2634 -7649.8869 300.9936 -128.5171 -84.1567 30569.3226 -61.9254 -25.9674
ENERGY: 1200000 1.3106 3.1083 0.5729 0.0000 -10897.9463 1498.8888 0.0000 0.0000 1789.4793 -7604.5864 300.2190 -9394.0657 -7635.7867 300.9961 194.1197 253.0208 30802.4243 -25.4504 11.6264
ENERGY: 1500000 0.1337 3.9543 1.5603 0.0000 -10889.0835 1547.1965 0.0000 0.0000 1796.5019 -7539.7368 301.3972 -9336.2387 -7632.6704 301.2073 573.4163 646.1134 31304.1012 12.6464 53.5589
TCL: Running FEP window   6: Lambda1 0.7499999999999998 Lambda2 0.6999999999999997 [dLambda -0.050000000000000044]
TCL: Setting parameter firsttimestep to 0
TCL: Setting parameter alchLambda to 0.7499999999999998
Info: NONBONDED TABLE R-SQUARED SPACING: 0.0625
Info: NONBONDED TABLE SIZE: 705 POINTS
TCL: Setting parameter alchLambda2 to 0.6999999999999997
Info: NONBONDED TABLE R-SQUARED SPACING: 0.0625
Info: NONBONDED TABLE SIZE: 705 POINTS
TCL: Running for 1500000 steps
ETITLE: TS BOND ANGLE DIHED IMPRP ELECT VDW BOUNDARY MISC KINETIC TOTAL TEMP POTENTIAL TOTALAVG TEMPAVG PRESSURE GPRESSURE VOLUME PRESSAVG GPRESSAVG
ENERGY: 0 0.1337 3.9543 1.5603 0.0000 -10888.3702 1546.7081 0.0000 0.0000 1795.5796 -7540.4342 301.2425 -9336.0138 -7540.4342 301.2425 561.3860 633.4582 31304.1012 561.3860 633.4582
ENERGY: 300000 1.7421 4.8561 0.8414 0.0000 -10801.3145 1437.8178 0.0000 0.0000 1777.1914 -7578.8656 298.1575 -9356.0571 -7567.5557 299.0047 -42.4840 -1.0989 30737.5660 53.1347 108.7541
ENERGY: 600000 0.5773 9.2636 0.9992 0.0000 -10832.9808 1412.6935 0.0000 0.0000 1745.5696 -7663.8776 292.8523 -9409.4473 -7601.9933 297.2572 -303.8698 -135.2271 30537.8896 50.9391 135.0192
ENERGY: 900000 3.2231 7.7732 2.2202 0.0000 -10971.2345 1548.3756 0.0000 0.0000 1774.5528 -7635.0895 297.7148 -9409.6423 -7601.0582 297.7783 676.2675 771.4774 30580.9073 69.8401 157.1877
ENERGY: 1200000 3.8801 5.3073 0.1662 0.0000 -10746.3922 1386.0937 0.0000 0.0000 1834.3590 -7516.5859 307.7484 -9350.9449 -7591.3990 299.3366 -645.5377 -606.7288 31027.3361 22.7739 102.8107
ENERGY: 1500000 0.7768 5.2888 0.1922 0.0000 -10881.0772 1466.4775 0.0000 0.0000 1847.8903 -7560.4516 310.0186 -9408.3419 -7588.3329 300.5809 -6.9930 74.2876 30825.1014 -16.0267 64.3589
TCL: Running FEP window   7: Lambda1 0.6999999999999997 Lambda2 0.6499999999999997 [dLambda -0.050000000000000044]
TCL: Setting parameter firsttimestep to 0
TCL: Setting parameter alchLambda to 0.6999999999999997
Info: NONBONDED TABLE R-SQUARED SPACING: 0.0625
Info: NONBONDED TABLE SIZE: 705 POINTS
TCL: Setting parameter alchLambda2 to 0.6499999999999997
Info: NONBONDED TABLE R-SQUARED SPACING: 0.0625
Info: NONBONDED TABLE SIZE: 705 POINTS
TCL: Running for 1500000 steps
ETITLE: TS BOND ANGLE DIHED IMPRP ELECT VDW BOUNDARY MISC KINETIC TOTAL TEMP POTENTIAL TOTALAVG TEMPAVG PRESSURE GPRESSURE VOLUME PRESSAVG GPRESSAVG
ENERGY: 0 0.7768 5.2888 0.1922 0.0000 -10880.6982 1466.8655 0.0000 0.0000 1847.0149 -7560.5600 309.8717 -9407.5749 -7560.5600 309.8717 0.5378 72.8187 30825.1014 0.5378 72.8187
ENERGY: 300000 0.8747 5.9719 0.1092 0.0000 -10744.1155 1414.0623 0.0000 0.0000 1836.6524 -7486.4450 308.1332 -9323.0974 -7558.2763 305.6189 -380.6217 -277.8492 31524.9371 -218.2760 -118.7363
ENERGY: 600000 2.5813 3.6373 0.2796 0.0000 -11043.1001 1601.0234 0.0000 0.0000 1766.7304 -7668.8481 296.4025 -9435.5785 -7587.7261 303.0607 1149.8293 1112.9176 30691.1421 -18.9236 43.9059
ENERGY: 900000 0.8424 5.1941 0.9011 0.0000 -10844.7564 1406.1121 0.0000 0.0000 1815.7856 -7615.9211 304.6324 -9431.7066 -7580.9161 304.0660 -586.6438 -524.3665 31131.8901 91.5465 153.9996
ENERGY: 1200000 2.4634 6.1807 0.5254 0.0000 -11022.9085 1515.0470 0.0000 0.0000 1754.5582 -7744.1338 294.3603 -9498.6920 -7607.9821 301.8683 51.4411 163.9579 30622.8780 -5.5473 65.9638
ENERGY: 1500000 0.4041 4.7559 0.2074 0.0000 -11012.6417 1503.1600 0.0000 0.0000 1723.8871 -7780.2271 289.2147 -9504.1142 -7606.9615 302.1174 162.4701 260.3548 30548.4497 55.8694 119.5517
TCL: Running FEP window   8: Lambda1 0.6499999999999997 Lambda2 0.5999999999999996 [dLambda -0.050000000000000044]
TCL: Setting parameter firsttimestep to 0
TCL: Setting parameter alchLambda to 0.6499999999999997
Info: NONBONDED TABLE R-SQUARED SPACING: 0.0625
Info: NONBONDED TABLE SIZE: 705 POINTS
TCL: Setting parameter alchLambda2 to 0.5999999999999996
Info: NONBONDED TABLE R-SQUARED SPACING: 0.0625
Info: NONBONDED TABLE SIZE: 705 POINTS
TCL: Running for 1500000 steps
ETITLE: TS BOND ANGLE DIHED IMPRP ELECT VDW BOUNDARY MISC KINETIC TOTAL TEMP POTENTIAL TOTALAVG TEMPAVG PRESSURE GPRESSURE VOLUME PRESSAVG GPRESSAVG
ENERGY: 0 0.4041 4.7559 0.2074 0.0000 -11012.1503 1503.3036 0.0000 0.0000 1722.9829 -7780.4964 289.0630 -9503.4793 -7780.4964 289.0630 180.0974 253.6167 30548.4497 180.0974 253.6167
ENERGY: 300000 1.1843 5.2200 1.2043 0.0000 -10737.4982 1318.9958 0.0000 0.0000 1804.1391 -7606.7547 302.6785 -9410.8938 -7653.0093 297.1314 -1139.7327 -1083.7558 30811.3992 11.8024 61.7907
ENERGY: 600000 1.7418 4.0621 0.3215 0.0000 -10702.9639 1399.0264 0.0000 0.0000 1798.5676 -7499.2445 301.7438 -9297.8121 -7600.3138 299.9954 -315.8947 -282.3220 31196.0150 -163.4084 -103.0018
ENERGY: 900000 2.8558 4.0233 0.5110 0.0000 -10818.5698 1424.8781 0.0000 0.0000 1818.0179 -7568.2837 305.0069 -9386.3016 -7602.4106 299.7949 -164.4488 -67.4435 30887.6690 -78.8459 -12.0028
ENERGY: 1200000 0.1783 4.8866 0.0547 0.0000 -10799.6816 1484.2551 0.0000 0.0000 1776.1139 -7534.1930 297.9767 -9310.3068 -7591.8658 300.5692 198.1090 264.4640 31196.6158 -58.4778 10.3495
ENERGY: 1500000 1.2664 1.9955 0.0838 0.0000 -10855.0905 1463.7696 0.0000 0.0000 1803.1585 -7584.8167 302.5140 -9387.9752 -7589.7689 301.2378 -20.0537 98.9878 30822.4727 -86.3046 -16.6103
TCL: Running FEP window   9: Lambda1 0.5999999999999996 Lambda2 0.5499999999999996 [dLambda -0.050000000000000044]
TCL: Setting parameter firsttimestep to 0
TCL: Setting parameter alchLambda to 0.5999999999999996
Info: NONBONDED TABLE R-SQUARED SPACING: 0.0625
Info: NONBONDED TABLE SIZE: 705 POINTS
TCL: Setting parameter alchLambda2 to 0.5499999999999996
Info: NONBONDED TABLE R-SQUARED SPACING: 0.0625
Info: NONBONDED TABLE SIZE: 705 POINTS
TCL: Running for 1500000 steps
ETITLE: TS BOND ANGLE DIHED IMPRP ELECT VDW BOUNDARY MISC KINETIC TOTAL TEMP POTENTIAL TOTALAVG TEMPAVG PRESSURE GPRESSURE VOLUME PRESSAVG GPRESSAVG
ENERGY: 0 1.2664 1.9955 0.0838 0.0000 -10854.8671 1463.7835 0.0000 0.0000 1802.2727 -7585.4651 302.3654 -9387.7378 -7585.4651 302.3654 6.2235 92.4704 30822.4727 6.2235 92.4704
ENERGY: 300000 0.6706 4.6811 0.8498 0.0000 -11027.5574 1604.4054 0.0000 0.0000 1762.4678 -7654.4828 295.6873 -9416.9506 -7604.9262 298.0189 990.1187 1042.9662 30828.6125 -203.9424 -130.0079
ENERGY: 600000 0.4740 8.7574 0.8519 0.0000 -10790.4866 1446.3587 0.0000 0.0000 1851.0059 -7483.0388 310.5413 -9334.0447 -7587.7954 300.4348 -122.0420 -103.9006 31157.3507 -232.4792 -169.4764
ENERGY: 900000 0.6251 1.9172 0.0994 0.0000 -10927.0377 1467.1587 0.0000 0.0000 1832.7808 -7624.4565 307.4837 -9457.2372 -7597.9749 300.2124 -82.1060 -28.6285 30740.1565 -251.6015 -187.0145
ENERGY: 1200000 0.3353 4.8796 0.1548 0.0000 -10731.3043 1355.2208 0.0000 0.0000 1736.2267 -7634.4870 291.2849 -9370.7137 -7605.3712 299.0240 -770.7810 -709.5087 31206.8670 -253.7619 -187.7983
ENERGY: 1500000 0.9404 3.3242 0.4253 0.0000 -11030.7300 1566.5831 0.0000 0.0000 1787.5315 -7671.9254 299.8922 -9459.4569 -7610.7798 299.6445 920.5663 980.1241 30058.2854 -263.2271 -196.9206
TCL: Running FEP window  10: Lambda1 0.5499999999999996 Lambda2 0.4999999999999996 [dLambda -0.04999999999999999]
TCL: Setting parameter firsttimestep to 0
TCL: Setting parameter alchLambda to 0.5499999999999996
Info: NONBONDED TABLE R-SQUARED SPACING: 0.0625
Info: NONBONDED TABLE SIZE: 705 POINTS
TCL: Setting parameter alchLambda2 to 0.4999999999999996
Info: NONBONDED TABLE R-SQUARED SPACING: 0.0625
Info: NONBONDED TABLE SIZE: 705 POINTS
TCL: Running for 1500000 steps
ETITLE: TS BOND ANGLE DIHED IMPRP ELECT VDW BOUNDARY MISC KINETIC TOTAL TEMP POTENTIAL TOTALAVG TEMPAVG PRESSURE GPRESSURE VOLUME PRESSAVG GPRESSAVG
ENERGY: 0 0.9404 3.3242 0.4253 0.0000 -11030.6191 1566.5280 0.0000 0.0000 1786.6517 -7672.7494 299.7446 -9459.4011 -7672.7494 299.7446 894.5111 977.1506 30058.2854 894.5111 977.1506
ENERGY: 300000 0.9435 4.8776 0.2717 0.0000 -11060.9827 1533.8363 0.0000 0.0000 1742.2228 -7778.8308 292.2908 -9521.0536 -7636.3660 299.8453 307.6293 423.5285 30552.5939 293.5707 359.2306
ENERGY: 600000 2.4751 5.4865 0.1586 0.0000 -10825.6055 1413.4910 0.0000 0.0000 1806.6286 -7597.3658 303.0961 -9403.9944 -7641.2209 299.2560 -572.8275 -458.2616 30839.8281 38.5326 100.9719
ENERGY: 900000 0.7525 2.0217 0.1856 0.0000 -10832.2515 1428.7304 0.0000 0.0000 1840.7563 -7559.8050 308.8217 -9400.5613 -7631.6222 299.6004 -247.9542 -217.3856 30990.7449 -23.4993 40.3935
ENERGY: 1200000 0.4773 4.0985 2.2923 0.0000 -10679.9953 1387.8866 0.0000 0.0000 1702.2354 -7583.0052 285.5822 -9285.2406 -7626.0084 298.3349 -517.9520 -511.2094 31436.2752 -120.0128 -64.3816
ENERGY: 1500000 2.0187 5.5040 1.7334 0.0000 -10951.3672 1534.6610 0.0000 0.0000 1801.0838 -7606.3665 302.1659 -9407.4502 -7632.7923 298.5555 387.2704 438.6633 31078.1776 -83.5245 -23.5226
TCL: Running FEP window  11: Lambda1 0.4999999999999996 Lambda2 0.4499999999999996 [dLambda -0.04999999999999999]
TCL: Setting parameter firsttimestep to 0
TCL: Setting parameter alchLambda to 0.4999999999999996
Info: NONBONDED TABLE R-SQUARED SPACING: 0.0625
Info: NONBONDED TABLE SIZE: 705 POINTS
TCL: Setting parameter alchLambda2 to 0.4499999999999996
Info: NONBONDED TABLE R-SQUARED SPACING: 0.0625
Info: NONBONDED TABLE SIZE: 705 POINTS
TCL: Running for 1500000 steps
ETITLE: TS BOND ANGLE DIHED IMPRP ELECT VDW BOUNDARY MISC KINETIC TOTAL TEMP POTENTIAL TOTALAVG TEMPAVG PRESSURE GPRESSURE VOLUME PRESSAVG GPRESSAVG
ENERGY: 0 2.0187 5.5040 1.7334 0.0000 -10951.1352 1534.9830 0.0000 0.0000 1800.1804 -7606.7158 302.0143 -9406.8962 -7606.7158 302.0143 350.3833 437.3660 31078.1776 350.3833 437.3660
ENERGY: 300000 0.6763 3.5121 0.1970 0.0000 -10722.1110 1342.4626 0.0000 0.0000 1759.6240 -7615.6390 295.2102 -9375.2630 -7623.7716 300.4820 -786.5792 -797.5169 30789.3557 -110.7878 -41.3487
ENERGY: 600000 1.0810 5.9421 0.3172 0.0000 -10848.0743 1412.5748 0.0000 0.0000 1768.2058 -7659.9535 296.6500 -9428.1592 -7628.5458 299.3739 -536.9091 -476.2608 30979.8863 -78.2422 -22.6456
ENERGY: 900000 2.1499 6.2172 0.2079 0.0000 -10803.3591 1392.7828 0.0000 0.0000 1740.4089 -7661.5925 291.9865 -9402.0014 -7618.4795 299.2139 -765.1325 -714.6942 30940.0618 55.8115 97.2616
ENERGY: 1200000 0.3619 2.0776 3.1307 0.0000 -10857.7375 1403.0219 0.0000 0.0000 1782.6346 -7666.5108 299.0707 -9449.1454 -7616.6238 299.7358 -431.1188 -394.3893 30603.3633 -3.8737 42.9819
ENERGY: 1500000 0.4143 3.8122 0.2586 0.0000 -10794.7729 1454.9925 0.0000 0.0000 1788.6355 -7546.6599 300.0774 -9335.2954 -7611.2033 300.1839 -95.6481 -25.3684 31332.3685 -37.6198 13.8193
TCL: Running FEP window  12: Lambda1 0.4499999999999996 Lambda2 0.39999999999999963 [dLambda -0.04999999999999999]
TCL: Setting parameter firsttimestep to 0
TCL: Setting parameter alchLambda to 0.4499999999999996
Info: NONBONDED TABLE R-SQUARED SPACING: 0.0625
Info: NONBONDED TABLE SIZE: 705 POINTS
TCL: Setting parameter alchLambda2 to 0.39999999999999963
Info: NONBONDED TABLE R-SQUARED SPACING: 0.0625
Info: NONBONDED TABLE SIZE: 705 POINTS
TCL: Running for 1500000 steps
ETITLE: TS BOND ANGLE DIHED IMPRP ELECT VDW BOUNDARY MISC KINETIC TOTAL TEMP POTENTIAL TOTALAVG TEMPAVG PRESSURE GPRESSURE VOLUME PRESSAVG GPRESSAVG
ENERGY: 0 0.4143 3.8122 0.2586 0.0000 -10794.7726 1455.2088 0.0000 0.0000 1787.7476 -7547.3312 299.9285 -9335.0788 -7547.3312 299.9285 -111.9130 -28.6027 31332.3685 -111.9130 -28.6027
ENERGY: 300000 1.9408 6.5492 0.3800 0.0000 -10948.4094 1534.8901 0.0000 0.0000 1776.4731 -7628.1763 298.0370 -9404.6494 -7617.5198 297.9386 294.8671 399.7528 31160.4653 124.6820 191.9507
ENERGY: 600000 1.6426 6.8755 0.2942 0.0000 -10867.6349 1394.2816 0.0000 0.0000 1781.0354 -7683.5056 298.8024 -9464.5410 -7630.3977 299.0974 -548.5034 -511.0813 30725.7387 178.6196 228.0051
ENERGY: 900000 0.6985 3.8204 0.1269 0.0000 -10825.7626 1444.3975 0.0000 0.0000 1838.3988 -7538.3205 308.4262 -9376.7193 -7616.8944 300.4498 -321.8533 -276.0690 31131.2398 140.1132 190.5077
ENERGY: 1200000 0.7790 5.3931 0.0852 0.0000 -10732.9403 1441.8043 0.0000 0.0000 1760.1837 -7524.6950 295.3041 -9284.8787 -7617.0974 299.9713 -49.8438 40.6731 31004.2569 275.8078 328.3434
ENERGY: 1500000 1.0514 9.0230 0.3689 0.0000 -10961.5559 1504.9980 0.0000 0.0000 1782.9031 -7663.2116 299.1157 -9446.1147 -7620.3805 299.6933 432.1673 488.6120 30364.1975 218.2735 273.8054
TCL: Running FEP window  13: Lambda1 0.39999999999999963 Lambda2 0.34999999999999964 [dLambda -0.04999999999999999]
TCL: Setting parameter firsttimestep to 0
TCL: Setting parameter alchLambda to 0.39999999999999963
Info: NONBONDED TABLE R-SQUARED SPACING: 0.0625
Info: NONBONDED TABLE SIZE: 705 POINTS
TCL: Setting parameter alchLambda2 to 0.34999999999999964
Info: NONBONDED TABLE R-SQUARED SPACING: 0.0625
Info: NONBONDED TABLE SIZE: 705 POINTS
TCL: Running for 1500000 steps
ETITLE: TS BOND ANGLE DIHED IMPRP ELECT VDW BOUNDARY MISC KINETIC TOTAL TEMP POTENTIAL TOTALAVG TEMPAVG PRESSURE GPRESSURE VOLUME PRESSAVG GPRESSAVG
ENERGY: 0 1.0514 9.0230 0.3689 0.0000 -10961.5569 1505.2760 0.0000 0.0000 1782.0184 -7663.8192 298.9673 -9445.8377 -7663.8192 298.9673 393.1666 485.1766 30364.1975 393.1666 485.1766
ENERGY: 300000 0.4630 7.3431 1.4455 0.0000 -10813.8236 1389.9292 0.0000 0.0000 1767.5158 -7647.1270 296.5342 -9414.6428 -7637.6722 297.7056 -564.1211 -478.5092 30682.6774 -127.7426 -69.8415
ENERGY: 600000 1.2572 6.5380 1.3284 0.0000 -10823.4475 1447.8925 0.0000 0.0000 1775.5211 -7590.9103 297.8773 -9366.4314 -7644.0927 296.9061 -120.2901 -27.7550 31209.7041 -79.3832 -8.1315
ENERGY: 900000 1.1006 5.3792 0.1983 0.0000 -10947.4053 1524.6780 0.0000 0.0000 1835.6133 -7580.4358 307.9589 -9416.0491 -7621.5172 298.5312 419.3960 509.9007 30842.8909 14.0557 81.2519
ENERGY: 1200000 0.1750 2.3979 0.5130 0.0000 -10914.2285 1496.8131 0.0000 0.0000 1785.9175 -7628.4121 299.6215 -9414.3296 -7609.2060 298.8506 273.8010 334.5170 30613.0380 12.2484 82.4378
ENERGY: 1500000 1.0337 5.0436 0.3727 0.0000 -10727.6589 1401.8728 0.0000 0.0000 1775.8608 -7543.4754 297.9343 -9319.3362 -7603.7947 299.5782 -126.3595 -79.6551 30356.6254 45.4258 112.0059
TCL: Running FEP window  14: Lambda1 0.34999999999999964 Lambda2 0.29999999999999966 [dLambda -0.04999999999999999]
TCL: Setting parameter firsttimestep to 0
TCL: Setting parameter alchLambda to 0.34999999999999964
Info: NONBONDED TABLE R-SQUARED SPACING: 0.0625
Info: NONBONDED TABLE SIZE: 705 POINTS
TCL: Setting parameter alchLambda2 to 0.29999999999999966
Info: NONBONDED TABLE R-SQUARED SPACING: 0.0625
Info: NONBONDED TABLE SIZE: 705 POINTS
TCL: Running for 1500000 steps
ETITLE: TS BOND ANGLE DIHED IMPRP ELECT VDW BOUNDARY MISC KINETIC TOTAL TEMP POTENTIAL TOTALAVG TEMPAVG PRESSURE GPRESSURE VOLUME PRESSAVG GPRESSAVG
ENERGY: 0 1.0337 5.0436 0.3727 0.0000 -10727.6607 1402.2578 0.0000 0.0000 1774.9639 -7543.9892 297.7838 -9318.9530 -7543.9892 297.7838 -164.0611 -79.7239 30356.6254 -164.0611 -79.7239
ENERGY: 300000 1.9979 7.2227 0.2600 0.0000 -10748.3220 1378.7317 0.0000 0.0000 1769.7690 -7590.3407 296.9122 -9360.1097 -7563.9031 299.5725 -819.3522 -761.8657 31372.0591 -203.4621 -128.5049
ENERGY: 600000 0.6942 4.0617 0.3571 0.0000 -10828.8180 1440.5031 0.0000 0.0000 1777.6706 -7605.5313 298.2379 -9383.2019 -7572.9371 301.1906 -177.9795 -113.5034 30954.3167 -188.2968 -110.6848
ENERGY: 900000 1.9108 3.6863 0.1061 0.0000 -10796.3824 1398.8420 0.0000 0.0000 1760.0791 -7631.7581 295.2866 -9391.8372 -7567.9802 301.8382 -624.0828 -597.3146 30898.2958 -99.1828 -23.2203
ENERGY: 1200000 0.8769 4.6021 1.2339 0.0000 -10938.5731 1430.4995 0.0000 0.0000 1819.0553 -7682.3055 305.1810 -9501.3608 -7578.0639 301.0896 -405.9302 -359.7053 30665.5052 -137.7979 -65.5371
ENERGY: 1500000 0.8290 5.1821 1.1064 0.0000 -10831.5242 1485.4308 0.0000 0.0000 1760.9871 -7577.9888 295.4389 -9338.9759 -7583.5348 300.8522 389.9802 417.9833 30655.6327 -153.9045 -87.1431
TCL: Running FEP window  15: Lambda1 0.29999999999999966 Lambda2 0.24999999999999967 [dLambda -0.04999999999999999]
TCL: Setting parameter firsttimestep to 0
TCL: Setting parameter alchLambda to 0.29999999999999966
Info: NONBONDED TABLE R-SQUARED SPACING: 0.0625
Info: NONBONDED TABLE SIZE: 705 POINTS
TCL: Setting parameter alchLambda2 to 0.24999999999999967
Info: NONBONDED TABLE R-SQUARED SPACING: 0.0625
Info: NONBONDED TABLE SIZE: 705 POINTS
TCL: Running for 1500000 steps
ETITLE: TS BOND ANGLE DIHED IMPRP ELECT VDW BOUNDARY MISC KINETIC TOTAL TEMP POTENTIAL TOTALAVG TEMPAVG PRESSURE GPRESSURE VOLUME PRESSAVG GPRESSAVG
ENERGY: 0 0.8290 5.1821 1.1064 0.0000 -10831.5242 1485.7425 0.0000 0.0000 1760.0498 -7578.6144 295.2817 -9338.6642 -7578.6144 295.2817 325.9730 416.3917 30655.6327 325.9730 416.3917
ENERGY: 300000 3.7782 6.0692 1.0588 0.0000 -10838.6363 1446.0064 0.0000 0.0000 1752.3799 -7629.3438 293.9949 -9381.7237 -7628.4826 296.4462 -460.6576 -339.3588 30992.3866 39.2973 95.6367
ENERGY: 600000 4.0998 5.9369 0.1137 0.0000 -10834.5720 1445.9388 0.0000 0.0000 1812.5409 -7565.9419 304.0880 -9378.4828 -7629.5833 297.2243 -304.6850 -205.5709 30895.1301 -73.9644 -23.5798
ENERGY: 900000 1.1318 4.9759 0.6419 0.0000 -10790.4204 1385.7089 0.0000 0.0000 1730.2912 -7667.6707 290.2891 -9397.9619 -7630.3833 297.0836 -904.0449 -807.9606 31222.8908 -140.7900 -90.0257
ENERGY: 1200000 0.4921 4.7354 0.4727 0.0000 -10994.9658 1465.6386 0.0000 0.0000 1807.4787 -7716.1483 303.2388 -9523.6270 -7633.5776 298.0999 -77.5569 -13.2338 30367.8651 -65.1740 -9.6183
ENERGY: 1500000 0.8914 3.9164 0.6289 0.0000 -10865.2849 1490.4063 0.0000 0.0000 1815.5053 -7553.9367 304.5854 -9369.4419 -7622.3277 298.1307 351.8968 339.0592 30779.0256 -50.6041 0.3600
TCL: Running FEP window  16: Lambda1 0.24999999999999967 Lambda2 0.19999999999999968 [dLambda -0.04999999999999999]
TCL: Setting parameter firsttimestep to 0
TCL: Setting parameter alchLambda to 0.24999999999999967
Info: NONBONDED TABLE R-SQUARED SPACING: 0.0625
Info: NONBONDED TABLE SIZE: 705 POINTS
TCL: Setting parameter alchLambda2 to 0.19999999999999968
Info: NONBONDED TABLE R-SQUARED SPACING: 0.0625
Info: NONBONDED TABLE SIZE: 705 POINTS
TCL: Running for 1500000 steps
ETITLE: TS BOND ANGLE DIHED IMPRP ELECT VDW BOUNDARY MISC KINETIC TOTAL TEMP POTENTIAL TOTALAVG TEMPAVG PRESSURE GPRESSURE VOLUME PRESSAVG GPRESSAVG
ENERGY: 0 0.8914 3.9164 0.6289 0.0000 -10865.2868 1490.5892 0.0000 0.0000 1814.6208 -7554.6402 304.4370 -9369.2610 -7554.6402 304.4370 259.4514 334.4189 30779.0256 259.4514 334.4189
ENERGY: 300000 1.9985 7.6292 1.3700 0.0000 -10805.2780 1441.7369 0.0000 0.0000 1849.7192 -7502.8243 310.3254 -9352.5435 -7564.6085 303.4639 -109.7667 -14.5343 30857.4568 191.8644 253.9430
ENERGY: 600000 2.0173 5.1482 0.1999 0.0000 -10895.7188 1479.4004 0.0000 0.0000 1770.4854 -7638.4676 297.0324 -9408.9530 -7573.4155 300.8184 -0.2738 13.8192 30973.8157 -93.8407 -40.3537
ENERGY: 900000 2.7686 4.2290 0.6861 0.0000 -10913.0462 1454.3838 0.0000 0.0000 1806.2621 -7644.7164 303.0347 -9450.9786 -7598.9313 300.0833 -354.7046 -241.5433 30516.9731 -93.4312 -40.3223
ENERGY: 1200000 3.6385 6.4882 0.2279 0.0000 -10754.2426 1345.9496 0.0000 0.0000 1823.3115 -7574.6268 305.8950 -9397.9383 -7591.9451 301.5539 -1015.2942 -928.0043 31038.2738 -164.1365 -111.8101
ENERGY: 1500000 3.2275 5.1781 2.2951 0.0000 -10891.1758 1438.8762 0.0000 0.0000 1788.2354 -7653.3635 300.0103 -9441.5989 -7595.0957 301.6975 -459.6831 -458.7577 30855.4636 -164.7962 -114.3451
TCL: Running FEP window  17: Lambda1 0.19999999999999968 Lambda2 0.1499999999999997 [dLambda -0.04999999999999999]
TCL: Setting parameter firsttimestep to 0
TCL: Setting parameter alchLambda to 0.19999999999999968
Info: NONBONDED TABLE R-SQUARED SPACING: 0.0625
Info: NONBONDED TABLE SIZE: 705 POINTS
TCL: Setting parameter alchLambda2 to 0.1499999999999997
Info: NONBONDED TABLE R-SQUARED SPACING: 0.0625
Info: NONBONDED TABLE SIZE: 705 POINTS
TCL: Running for 1500000 steps
ETITLE: TS BOND ANGLE DIHED IMPRP ELECT VDW BOUNDARY MISC KINETIC TOTAL TEMP POTENTIAL TOTALAVG TEMPAVG PRESSURE GPRESSURE VOLUME PRESSAVG GPRESSAVG
ENERGY: 0 3.2275 5.1781 2.2951 0.0000 -10891.1754 1439.2404 0.0000 0.0000 1787.3267 -7653.9077 299.8579 -9441.2344 -7653.9077 299.8579 -548.6658 -459.4838 30855.4636 -548.6658 -459.4838
ENERGY: 300000 0.9064 4.8982 0.2669 0.0000 -10832.1141 1412.5948 0.0000 0.0000 1821.5629 -7591.8849 305.6017 -9413.4478 -7638.8829 299.7094 -397.1138 -334.4231 30786.2757 -406.8653 -351.4994
ENERGY: 600000 0.7934 3.9310 2.1057 0.0000 -10999.3007 1508.0472 0.0000 0.0000 1762.7484 -7721.6750 295.7344 -9484.4234 -7638.8091 299.2520 60.6664 166.4467 30486.7691 -254.0973 -188.8272
ENERGY: 900000 2.9503 8.1234 0.5321 0.0000 -10809.9301 1439.1978 0.0000 0.0000 1810.5202 -7548.6064 303.7490 -9359.1265 -7631.1697 300.2859 -151.6751 -68.5155 30866.0197 -158.5560 -85.2379
ENERGY: 1200000 0.1229 3.3944 0.2562 0.0000 -10694.8542 1355.5725 0.0000 0.0000 1758.9646 -7576.5436 295.0996 -9335.5083 -7627.3196 299.1601 -542.7426 -539.4302 30754.6331 -204.2948 -141.4692
ENERGY: 1500000 0.3225 6.0941 0.3258 0.0000 -10831.7382 1425.8915 0.0000 0.0000 1789.6557 -7609.4486 300.2486 -9399.1043 -7621.9292 299.9978 -111.4891 -105.9243 30701.1884 -134.6058 -72.2745
TCL: Running FEP window  18: Lambda1 0.1499999999999997 Lambda2 0.09999999999999969 [dLambda -0.05 ]
TCL: Setting parameter firsttimestep to 0
TCL: Setting parameter alchLambda to 0.1499999999999997
Info: NONBONDED TABLE R-SQUARED SPACING: 0.0625
Info: NONBONDED TABLE SIZE: 705 POINTS
TCL: Setting parameter alchLambda2 to 0.09999999999999969
Info: NONBONDED TABLE R-SQUARED SPACING: 0.0625
Info: NONBONDED TABLE SIZE: 705 POINTS
TCL: Running for 1500000 steps
ETITLE: TS BOND ANGLE DIHED IMPRP ELECT VDW BOUNDARY MISC KINETIC TOTAL TEMP POTENTIAL TOTALAVG TEMPAVG PRESSURE GPRESSURE VOLUME PRESSAVG GPRESSAVG
ENERGY: 0 0.3225 6.0941 0.3258 0.0000 -10831.7372 1425.0255 0.0000 0.0000 1788.7669 -7611.2024 300.0995 -9399.9693 -7611.2024 300.0995 -203.3475 -115.3622 30701.1884 -203.3475 -115.3622
ENERGY: 300000 0.8402 6.3761 0.7199 0.0000 -10925.9448 1512.6676 0.0000 0.0000 1847.4845 -7557.8565 309.9505 -9405.3410 -7574.4518 304.9856 370.8978 422.4391 30762.8185 -152.7936 -69.0823
ENERGY: 600000 1.4572 8.8089 1.9696 0.0000 -10928.1211 1488.9754 0.0000 0.0000 1771.0967 -7655.8133 297.1350 -9426.9101 -7581.4943 301.9972 112.9339 208.8688 30686.7977 -232.1916 -142.8116
ENERGY: 900000 0.6996 3.0394 1.8412 0.0000 -10732.9196 1377.7723 0.0000 0.0000 1815.6353 -7533.9318 304.6072 -9349.5671 -7591.7394 301.2067 -378.7894 -296.1647 30616.6635 -338.0239 -252.7704
ENERGY: 1200000 1.1044 6.3763 0.2394 0.0000 -10829.3148 1445.3875 0.0000 0.0000 1767.5511 -7608.6561 296.5401 -9376.2072 -7592.8296 300.9225 -146.8761 -73.0539 30842.5823 -304.9265 -222.0272
ENERGY: 1500000 0.4049 4.6140 0.4876 0.0000 -10802.9692 1410.5597 0.0000 0.0000 1803.1695 -7583.7337 302.5158 -9386.9031 -7593.4026 301.5733 -319.3722 -279.8620 30752.7487 -190.9784 -114.8717
TCL: Running FEP window  19: Lambda1 0.09999999999999969 Lambda2 0.049999999999999684 [dLambda -0.05 ]
TCL: Setting parameter firsttimestep to 0
TCL: Setting parameter alchLambda to 0.09999999999999969
Info: NONBONDED TABLE R-SQUARED SPACING: 0.0625
Info: NONBONDED TABLE SIZE: 705 POINTS
TCL: Setting parameter alchLambda2 to 0.049999999999999684
Info: NONBONDED TABLE R-SQUARED SPACING: 0.0625
Info: NONBONDED TABLE SIZE: 705 POINTS
TCL: Running for 1500000 steps
ETITLE: TS BOND ANGLE DIHED IMPRP ELECT VDW BOUNDARY MISC KINETIC TOTAL TEMP POTENTIAL TOTALAVG TEMPAVG PRESSURE GPRESSURE VOLUME PRESSAVG GPRESSAVG
ENERGY: 0 0.4049 4.6140 0.4876 0.0000 -10802.9684 1409.3148 0.0000 0.0000 1802.3246 -7585.8226 302.3741 -9388.1472 -7585.8226 302.3741 -383.8866 -287.4800 30752.7487 -383.8866 -287.4800
ENERGY: 300000 2.3068 5.9464 0.1141 0.0000 -10861.1303 1406.1107 0.0000 0.0000 1808.1350 -7638.5173 303.3489 -9446.6522 -7591.8354 302.2543 -580.9685 -528.7967 30891.2425 -89.2970 -23.1334
ENERGY: 600000 0.4488 2.7751 1.4194 0.0000 -10977.0932 1516.5631 0.0000 0.0000 1810.1449 -7645.7418 303.6861 -9455.8868 -7618.5247 301.7677 360.3758 407.5281 30343.3795 -45.3159 23.1547
ENERGY: 900000 0.9609 7.3030 0.1397 0.0000 -10933.1573 1558.2102 0.0000 0.0000 1800.5032 -7566.0403 302.0685 -9366.5435 -7607.0959 301.0149 801.7585 826.2303 30753.5451 -37.5395 26.8830
ENERGY: 1200000 0.7502 5.1761 1.2873 0.0000 -10869.1394 1526.8764 0.0000 0.0000 1765.2834 -7569.7661 296.1597 -9335.0494 -7594.4468 301.7243 379.7647 461.6634 30814.4610 155.6241 224.4138
ENERGY: 1500000 1.6784 7.0560 0.3055 0.0000 -10890.4732 1478.4177 0.0000 0.0000 1814.8816 -7588.1341 304.4807 -9403.0157 -7591.8320 302.6503 205.0663 209.2280 30954.4689 148.2287 205.1520
TCL: Running FEP window  20: Lambda1 0.049999999999999684 Lambda2 0.0    [dLambda -0.049999999999999684]
TCL: Setting parameter firsttimestep to 0
TCL: Setting parameter alchLambda to 0.049999999999999684
Info: NONBONDED TABLE R-SQUARED SPACING: 0.0625
Info: NONBONDED TABLE SIZE: 705 POINTS
TCL: Setting parameter alchLambda2 to 0.0
Info: NONBONDED TABLE R-SQUARED SPACING: 0.0625
Info: NONBONDED TABLE SIZE: 705 POINTS
TCL: Running for 1500000 steps
ETITLE: TS BOND ANGLE DIHED IMPRP ELECT VDW BOUNDARY MISC KINETIC TOTAL TEMP POTENTIAL TOTALAVG TEMPAVG PRESSURE GPRESSURE VOLUME PRESSAVG GPRESSAVG
ENERGY: 0 1.6784 7.0560 0.3055 0.0000 -10890.4718 1478.7808 0.0000 0.0000 1813.9994 -7588.6518 304.3327 -9402.6512 -7588.6518 304.3327 136.5229 206.4397 30954.4689 136.5229 206.4397
ENERGY: 300000 1.2920 6.9488 0.2753 0.0000 -10897.4164 1461.7028 0.0000 0.0000 1773.4605 -7653.7370 297.5316 -9427.1974 -7625.3806 301.0435 -24.2546 51.2111 30252.8101 -37.3237 36.9487
ENERGY: 600000 1.0333 3.3941 0.2534 0.0000 -10867.5283 1455.3798 0.0000 0.0000 1835.7834 -7571.6843 307.9874 -9407.4677 -7601.4317 302.7857 -199.4652 -134.6803 30749.4552 -224.9766 -164.5308
ENERGY: 900000 0.7471 2.5451 0.6569 0.0000 -10793.2730 1474.9923 0.0000 0.0000 1811.5280 -7502.8036 303.9181 -9314.3316 -7584.9321 302.1753 447.5061 462.3792 30992.9378 -173.0097 -123.3791
ENERGY: 1200000 1.5393 4.9488 0.9290 0.0000 -10919.5611 1471.2299 0.0000 0.0000 1783.9342 -7656.9799 299.2887 -9440.9141 -7582.4160 301.8582 -146.1575 -107.6343 30685.3987 -225.6388 -166.7279
ENERGY: 1500000 0.0416 4.6205 1.1322 0.0000 -10885.1902 1492.5073 0.0000 0.0000 1799.2974 -7587.5912 301.8662 -9386.8886 -7581.6783 301.7678 308.2747 315.0885 30570.6436 -184.1083 -126.4120
TCL: Exiting due to exit command.
