Info: SIMULATION PARAMETERS:
Info: TIMESTEP               2
Info: NUMBER OF STEPS        0
Info: STEPS PER CYCLE        10
Info: PERIODIC CELL BASIS 1  29.2444 0 0
Info: PERIODIC CELL BASIS 2  0 30.2604 0
Info: PERIODIC CELL BASIS 3  0 0 34.7143
Info: PERIODIC CELL CENTER   0 0 0
Info: WRAPPING WATERS AROUND PERIODIC BOUNDARIES ON OUTPUT.
Info: WRAPPING ALL CLUSTERS AROUND PERIODIC BOUNDARIES ON OUTPUT.
Info: FIRST LDB TIMESTEP     50
Info: LAST LDB TIMESTEP     -1
Info: HOM BACKGROUND SCALING 1
Info: PME BACKGROUND SCALING 1
Info: MIN ATOMS PER PATCH    40
Info: EMPTY PATCH LOAD       40 ATOMS
Info: VELOCITY FILE          mobley_49274_equil.vel
Info: CENTER OF MASS MOVING INITIALLY? NO
Info: DIELECTRIC             1
Info: EXCLUDE                SCALED ONE-FOUR
Info: 1-4 ELECTROSTATICS SCALED BY 0.833333
Info: MODIFIED 1-4 VDW PARAMETERS WILL BE USED
Info: DCD FILENAME           mobley_49274_prod.dcd
Info: DCD FREQUENCY          100000
Info: DCD FIRST STEP         100000
Info: DCD FILE WILL CONTAIN UNIT CELL DATA
Info: XST FILENAME           mobley_49274_prod.xst
Info: XST FREQUENCY          100000
Info: NO VELOCITY DCD OUTPUT
Info: NO FORCE DCD OUTPUT
Info: OUTPUT FILENAME        mobley_49274_prod
Info: BINARY OUTPUT FILES WILL BE USED
Info: RESTART FILENAME       mobley_49274_prod.restart
Info: RESTART FREQUENCY      100000
Info: BINARY RESTART FILES WILL BE USED
Info: CUTOFF                 9
Info: PAIRLIST DISTANCE      11
Info: PAIRLIST SHRINK RATE   0.01
Info: PAIRLIST GROW RATE     0.01
Info: PAIRLIST TRIGGER       0.3
Info: PAIRLISTS PER CYCLE    2
Info: PAIRLISTS ENABLED
Info: MARGIN                 2
Info: HYDROGEN GROUP CUTOFF  2.5
Info: PATCH DIMENSION        15.5
Info: ENERGY OUTPUT STEPS    100000
Info: ENERGY EVALUATION STEPS    100000
Info: OUTPUT ENERGY PRECISION 4
Info: CROSSTERM ENERGY INCLUDED IN DIHEDRAL
Info: TIMING OUTPUT STEPS    1000000
Info: PRESSURE OUTPUT STEPS  100000
Info: ALCHEMICAL FEP ON
Info: FEP CURRENT LAMBDA VALUE     1
Info: FEP COMPARISON LAMBDA VALUE  0.95
Info: FEP INTRA-ALCHEMICAL NON-BONDED INTERACTIONS WILL BE RETAINED
Info: FEP INTRA-ALCHEMICAL BONDED INTERACTIONS WILL BE RETAINED
Info: FEP VDW SHIFTING COEFFICIENT 5
Info: FEP ELEC. ACTIVE FOR ANNIHILATED PARTICLES BETWEEN LAMBDA = 0 AND LAMBDA = 0.5
Info: FEP ELEC. ACTIVE FOR EXNIHILATED PARTICLES BETWEEN LAMBDA = 0.5 AND LAMBDA = 1
Info: FEP VDW ACTIVE FOR ANNIHILATED PARTICLES BETWEEN LAMBDA = 0 AND LAMBDA = 1
Info: FEP VDW ACTIVE FOR EXNIHILATED PARTICLES BETWEEN LAMBDA = 0 AND LAMBDA = 1
Info: FEP BOND ACTIVE FOR ANNIHILATED PARTICLES BETWEEN LAMBDA = 1 AND LAMBDA = 1
Info: FEP BOND ACTIVE FOR EXNIHILATED PARTICLES BETWEEN LAMBDA = 0 AND LAMBDA = 0
Info: LANGEVIN DYNAMICS ACTIVE
Info: LANGEVIN TEMPERATURE   300
Info: LANGEVIN USING BBK INTEGRATOR
Info: LANGEVIN DAMPING COEFFICIENT IS 1 INVERSE PS
Info: LANGEVIN DYNAMICS APPLIED TO HYDROGENS
Info: LANGEVIN PISTON PRESSURE CONTROL ACTIVE
Info:        TARGET PRESSURE IS 1.01325 BAR
Info:     OSCILLATION PERIOD IS 50 FS
Info:             DECAY TIME IS 25 FS
Info:     PISTON TEMPERATURE IS 300 K
Info:       PRESSURE CONTROL IS GROUP-BASED
Info:    INITIAL STRAIN RATE IS 0.000587949 0.000587949 0.000587949
Info:       CELL FLUCTUATION IS ISOTROPIC
Info: PARTICLE MESH EWALD (PME) ACTIVE
Info: PME TOLERANCE               1e-06
Info: PME EWALD COEFFICIENT       0.348832
Info: PME INTERPOLATION ORDER     4
Info: PME GRID DIMENSIONS         32 32 36
Info: PME MAXIMUM GRID SPACING    1
Info: PME CALCULATION WILL BE PERFORMED ON GPU
Info: FULL ELECTROSTATIC EVALUATION FREQUENCY      2
Info: USING VERLET I (r-RESPA) MTS SCHEME.
Info: C1 SPLITTING OF LONG RANGE ELECTROSTATICS
Info: PLACING ATOMS IN PATCHES BY HYDROGEN GROUPS
Info: RIGID BONDS TO HYDROGEN : ALL
Info:         ERROR TOLERANCE : 1e-08
Info:          MAX ITERATIONS : 100
Info: RIGID WATER USING SETTLE ALGORITHM
Info: RANDOM NUMBER SEED     1743928861
Info: USE HYDROGEN BONDS?    NO
Info: Using AMBER format force field!
Info: AMBER PARM FILE        mobley_49274.prmtop
Info: COORDINATE PDB         mobley_49274.pdb
Info: Exclusions will be read from PARM file!
Info: SCNB (VDW SCALING)     2
Info: USING ARITHMETIC MEAN TO COMBINE L-J SIGMA PARAMETERS
Info: BINARY COORDINATES     mobley_49274_equil.coor
Info: SUMMARY OF PARAMETERS:
Info: 7 BONDS
Info: 7 ANGLES
Info:   7 HARMONIC
Info:   0 COSINE-BASED
Info: 7 DIHEDRAL
Info: 0 IMPROPER
Info: 0 CROSSTERM
Info: 0 VDW
Info: 21 VDW_PAIRS
Info: 0 NBTHOLE_PAIRS
Info: To read alchdata from file: mobley_49274.pdb
Info: To read alchflag data from column: 5
Info: STRUCTURE SUMMARY:
Info: 2986 ATOMS
Info: 2985 BONDS
Info: 32 ANGLES
Info: 44 DIHEDRALS
Info: 0 IMPROPERS
Info: 0 CROSSTERMS
Info: 3057 EXCLUSIONS
Info: 2979 RIGID BONDS
Info: ALCH: 0 ATOMS TO DISAPPEAR IN FINAL STATE
Info: ALCH: 19 ATOMS TO APPEAR IN FINAL STATE
Info: 5979 DEGREES OF FREEDOM
Info: 996 HYDROGEN GROUPS
Info: 4 ATOMS IN LARGEST HYDROGEN GROUP
Info: 996 MIGRATION GROUPS
Info: 4 ATOMS IN LARGEST MIGRATION GROUP
Info: TOTAL MASS = 17914 amu
Info: TOTAL CHARGE = 9.99961e-05 e
Info: MASS DENSITY = 0.968335 g/cm^3
Info: ATOM DENSITY = 0.0971994 atoms/A^3
Info: ADDED 0 IMPLICIT EXCLUSIONS
Info: NONBONDED TABLE R-SQUARED SPACING: 0.0625
Info: NONBONDED TABLE SIZE: 705 POINTS
Info: REMOVING COM VELOCITY 0.0510543 -0.191542 -0.0407467
Info: Use 3D box decompostion in PME FFT.
Info: Updated CUDA force table with 4096 elements.
Info: Updated CUDA LJ table with 6 x 6 elements.
Info: Found 22 unique exclusion lists needing 60 bytes
TCL: Running for 1500000 steps
ETITLE: TS BOND ANGLE DIHED IMPRP ELECT VDW BOUNDARY MISC KINETIC TOTAL TEMP POTENTIAL TOTALAVG TEMPAVG PRESSURE GPRESSURE VOLUME PRESSAVG GPRESSAVG
ENERGY: 0 1.6734 8.4565 1.9251 0.0000 -10725.6385 1399.1913 0.0000 0.0000 1796.9303 -7517.4619 302.4775 -9314.3922 -7517.4619 302.4775 -265.3540 -180.1010 30720.3444 -265.3540 -180.1010
ENERGY: 300000 1.2007 8.1800 2.7420 0.0000 -10681.4370 1359.6629 0.0000 0.0000 1770.6834 -7538.9681 298.0593 -9309.6515 -7551.0179 300.8498 -479.9527 -456.3332 30981.5573 -8.9883 69.1124
ENERGY: 600000 3.1268 12.1929 2.1540 0.0000 -10819.2562 1404.2503 0.0000 0.0000 1836.5682 -7560.9640 309.1497 -9397.5322 -7529.6904 303.5813 -565.5736 -516.8056 30924.8217 -212.9735 -157.3494
ENERGY: 900000 1.8531 8.0325 2.8003 0.0000 -10680.3969 1367.5541 0.0000 0.0000 1798.8767 -7501.2802 302.8051 -9300.1568 -7526.1940 302.4768 -485.3895 -418.8759 30853.9384 -197.1310 -145.0723
ENERGY: 1200000 2.4097 11.6999 1.7406 0.0000 -10678.8403 1361.8766 0.0000 0.0000 1765.5085 -7535.6050 297.1883 -9301.1136 -7533.2040 301.9347 -490.2688 -478.8413 30900.6501 -161.7662 -115.4775
ENERGY: 1500000 2.8422 6.9278 1.7266 0.0000 -10807.3542 1423.0546 0.0000 0.0000 1775.8524 -7596.9506 298.9294 -9372.8030 -7531.1424 301.8564 -368.8519 -313.5049 30939.4580 -161.5098 -108.9522
TCL: Running FEP window   2: Lambda1 0.95   Lambda2 0.8999999999999999 [dLambda -0.050000000000000044]
TCL: Setting parameter firsttimestep to 0
TCL: Setting parameter alchLambda to 0.95
Info: NONBONDED TABLE R-SQUARED SPACING: 0.0625
Info: NONBONDED TABLE SIZE: 705 POINTS
TCL: Setting parameter alchLambda2 to 0.8999999999999999
Info: NONBONDED TABLE R-SQUARED SPACING: 0.0625
Info: NONBONDED TABLE SIZE: 705 POINTS
TCL: Running for 1500000 steps
ETITLE: TS BOND ANGLE DIHED IMPRP ELECT VDW BOUNDARY MISC KINETIC TOTAL TEMP POTENTIAL TOTALAVG TEMPAVG PRESSURE GPRESSURE VOLUME PRESSAVG GPRESSAVG
ENERGY: 0 2.8422 6.9278 1.7266 0.0000 -10807.0818 1423.5281 0.0000 0.0000 1774.9902 -7597.0669 298.7843 -9372.0571 -7597.0669 298.7843 -408.8729 -321.0526 30939.4580 -408.8729 -321.0526
ENERGY: 300000 4.6728 9.5827 1.9986 0.0000 -10859.9023 1486.6988 0.0000 0.0000 1815.9498 -7540.9997 305.6790 -9356.9494 -7540.5467 302.9956 -26.2768 0.2865 31329.8787 51.2921 92.6647
ENERGY: 600000 3.5752 7.1762 3.0653 0.0000 -10808.2077 1487.0164 0.0000 0.0000 1810.7400 -7496.6346 304.8021 -9307.3746 -7533.7917 302.9887 744.1414 806.9915 30515.7827 1.1324 59.2846
ENERGY: 900000 1.4017 10.5275 2.6799 0.0000 -10668.4786 1338.6192 0.0000 0.0000 1760.8700 -7554.3803 296.4075 -9315.2503 -7536.8020 301.9649 -762.7119 -713.9844 30835.2087 -94.5716 -43.4046
ENERGY: 1200000 0.8494 6.6467 2.3492 0.0000 -10888.0150 1450.6473 0.0000 0.0000 1830.5672 -7596.9551 308.1396 -9427.5223 -7554.4432 302.4425 -404.1593 -316.0960 31086.6918 -44.0885 8.6916
ENERGY: 1500000 1.6209 8.8314 3.4578 0.0000 -10992.3072 1495.2171 0.0000 0.0000 1784.9563 -7698.2237 300.4619 -9483.1800 -7569.3103 302.2275 -25.1553 131.6168 30454.7791 -29.5740 32.9589
TCL: Running FEP window   3: Lambda1 0.8999999999999999 Lambda2 0.8499999999999999 [dLambda -0.050000000000000044]
TCL: Setting parameter firsttimestep to 0
TCL: Setting parameter alchLambda to 0.8999999999999999
Info: NONBONDED TABLE R-SQUARED SPACING: 0.0625
Info: NONBONDED TABLE SIZE: 705 POINTS
TCL: Setting parameter alchLambda2 to 0.8499999999999999
Info: NONBONDED TABLE R-SQUARED SPACING: 0.0625
Info: NONBONDED TABLE SIZE: 705 POINTS
TCL: Running for 1500000 steps
ETITLE: TS BOND ANGLE DIHED IMPRP ELECT VDW BOUNDARY MISC KINETIC TOTAL TEMP POTENTIAL TOTALAVG TEMPAVG PRESSURE GPRESSURE VOLUME PRESSAVG GPRESSAVG
ENERGY: 0 1.6209 8.8314 3.4578 0.0000 -10992.0341 1495.0503 0.0000 0.0000 1784.0691 -7699.0047 300.3126 -9483.0737 -7699.0047 300.3126 40.4366 114.6540 30454.7791 40.4366 114.6540
ENERGY: 300000 3.3505 12.4907 2.4804 0.0000 -10721.2339 1391.8315 0.0000 0.0000 1771.5714 -7539.5096 298.2088 -9311.0809 -7608.6860 298.1797 -459.7664 -416.6776 30691.0682 227.9318 279.1266
ENERGY: 600000 2.4783 9.0692 2.9600 0.0000 -10781.3344 1448.7914 0.0000 0.0000 1788.0236 -7530.0119 300.9782 -9318.0355 -7592.0798 298.9891 91.8317 196.2579 30582.5977 186.7478 255.9748
ENERGY: 900000 0.6522 12.2741 1.2137 0.0000 -10858.0123 1495.1481 0.0000 0.0000 1808.7423 -7539.9820 304.4658 -9348.7243 -7570.9496 300.4459 572.9662 553.1701 30667.0719 93.2711 151.4025
ENERGY: 1200000 0.8781 7.9358 2.2660 0.0000 -10768.5706 1488.6717 0.0000 0.0000 1758.6702 -7510.1488 296.0372 -9268.8190 -7567.7027 300.3484 460.1488 548.7932 31078.5245 109.3496 175.4001
ENERGY: 1500000 1.4670 6.3972 1.2574 0.0000 -10714.6380 1388.3160 0.0000 0.0000 1751.0746 -7566.1258 294.7586 -9317.2004 -7573.9209 299.7024 -463.8962 -437.4151 30646.0293 107.2808 166.9788
TCL: Running FEP window   4: Lambda1 0.8499999999999999 Lambda2 0.7999999999999998 [dLambda -0.050000000000000044]
TCL: Setting parameter firsttimestep to 0
TCL: Setting parameter alchLambda to 0.8499999999999999
Info: NONBONDED TABLE R-SQUARED SPACING: 0.0625
Info: NONBONDED TABLE SIZE: 705 POINTS
TCL: Setting parameter alchLambda2 to 0.7999999999999998
Info: NONBONDED TABLE R-SQUARED SPACING: 0.0625
Info: NONBONDED TABLE SIZE: 705 POINTS
TCL: Running for 1500000 steps
ETITLE: TS BOND ANGLE DIHED IMPRP ELECT VDW BOUNDARY MISC KINETIC TOTAL TEMP POTENTIAL TOTALAVG TEMPAVG PRESSURE GPRESSURE VOLUME PRESSAVG GPRESSAVG
ENERGY: 0 1.4670 6.3972 1.2574 0.0000 -10714.2773 1388.9143 0.0000 0.0000 1750.1628 -7566.0787 294.6051 -9316.2415 -7566.0787 294.6051 -516.5297 -440.8441 30646.0293 -516.5297 -440.8441
ENERGY: 300000 1.4779 9.5001 1.4461 0.0000 -10793.2745 1457.3337 0.0000 0.0000 1761.8232 -7561.6937 296.5679 -9323.5168 -7527.5542 299.9014 -178.2987 -84.7224 31312.5079 -154.0434 -87.8822
ENERGY: 600000 1.4832 10.8711 3.5091 0.0000 -10860.2582 1460.6521 0.0000 0.0000 1786.1669 -7597.5757 300.6657 -9383.7426 -7540.2417 300.2877 131.2445 181.0196 30242.8960 -73.4125 1.0159
ENERGY: 900000 2.6163 4.5867 3.1862 0.0000 -10704.4438 1329.4547 0.0000 0.0000 1755.2894 -7609.3105 295.4681 -9364.5999 -7550.2829 299.9028 -884.0750 -788.4232 30574.8789 -112.3684 -43.8790
ENERGY: 1200000 2.2491 6.0580 1.1731 0.0000 -10884.7454 1481.0565 0.0000 0.0000 1815.6399 -7578.5688 305.6269 -9394.2087 -7556.5410 300.3072 150.8244 150.2703 30326.4995 -57.0228 -2.5140
ENERGY: 1500000 2.3635 9.5516 1.3297 0.0000 -10691.6048 1391.6105 0.0000 0.0000 1795.9414 -7490.8081 302.3110 -9286.7495 -7557.4757 299.5798 -255.7281 -165.9744 30426.7378 -43.4765 16.1909
TCL: Running FEP window   5: Lambda1 0.7999999999999998 Lambda2 0.7499999999999998 [dLambda -0.050000000000000044]
TCL: Setting parameter firsttimestep to 0
TCL: Setting parameter alchLambda to 0.7999999999999998
Info: NONBONDED TABLE R-SQUARED SPACING: 0.0625
Info: NONBONDED TABLE SIZE: 705 POINTS
TCL: Setting parameter alchLambda2 to 0.7499999999999998
Info: NONBONDED TABLE R-SQUARED SPACING: 0.0625
Info: NONBONDED TABLE SIZE: 705 POINTS
TCL: Running for 1500000 steps
ETITLE: TS BOND ANGLE DIHED IMPRP ELECT VDW BOUNDARY MISC KINETIC TOTAL TEMP POTENTIAL TOTALAVG TEMPAVG PRESSURE GPRESSURE VOLUME PRESSAVG GPRESSAVG
ENERGY: 0 2.3635 9.5516 1.3297 0.0000 -10691.2645 1392.2874 0.0000 0.0000 1795.0328 -7490.6995 302.1581 -9285.7323 -7490.6995 302.1581 -267.5362 -169.3705 30426.7378 -267.5362 -169.3705
ENERGY: 300000 2.4031 9.0543 1.8668 0.0000 -10745.6800 1406.3372 0.0000 0.0000 1762.3529 -7563.6658 296.6571 -9326.0187 -7526.4539 299.4593 -184.7536 -136.7242 30690.1827 -287.1040 -210.4043
ENERGY: 600000 1.0827 8.8920 4.3009 0.0000 -10683.6263 1395.9624 0.0000 0.0000 1738.9326 -7534.4556 292.7147 -9273.3882 -7537.0282 297.8266 -104.2393 -29.4184 30576.4248 -180.4076 -100.4801
ENERGY: 900000 1.1851 4.7690 1.7112 0.0000 -10711.8864 1365.7983 0.0000 0.0000 1777.1177 -7561.3051 299.1424 -9338.4228 -7553.0597 297.7141 -618.8250 -517.5007 30927.7226 -224.4879 -155.3606
ENERGY: 1200000 1.3527 9.6868 2.7578 0.0000 -10676.1208 1390.7906 0.0000 0.0000 1799.0335 -7472.4994 302.8315 -9271.5329 -7554.0420 297.8627 -102.0606 -13.1094 30616.4771 -220.7491 -153.4597
ENERGY: 1500000 3.0937 5.6014 1.9310 0.0000 -10683.5086 1390.6481 0.0000 0.0000 1796.5120 -7485.7224 302.4071 -9282.2344 -7543.2827 298.9550 -65.4387 -56.3753 30753.9600 -117.0332 -56.3962
TCL: Running FEP window   6: Lambda1 0.7499999999999998 Lambda2 0.6999999999999997 [dLambda -0.050000000000000044]
TCL: Setting parameter firsttimestep to 0
TCL: Setting parameter alchLambda to 0.7499999999999998
Info: NONBONDED TABLE R-SQUARED SPACING: 0.0625
Info: NONBONDED TABLE SIZE: 705 POINTS
TCL: Setting parameter alchLambda2 to 0.6999999999999997
Info: NONBONDED TABLE R-SQUARED SPACING: 0.0625
Info: NONBONDED TABLE SIZE: 705 POINTS
TCL: Running for 1500000 steps
ETITLE: TS BOND ANGLE DIHED IMPRP ELECT VDW BOUNDARY MISC KINETIC TOTAL TEMP POTENTIAL TOTALAVG TEMPAVG PRESSURE GPRESSURE VOLUME PRESSAVG GPRESSAVG
ENERGY: 0 3.0937 5.6014 1.9310 0.0000 -10683.3696 1391.2672 0.0000 0.0000 1795.5884 -7485.8878 302.2516 -9281.4762 -7485.8878 302.2516 -138.2695 -58.3858 30753.9600 -138.2695 -58.3858
ENERGY: 300000 1.0919 7.7166 1.5373 0.0000 -10953.9990 1544.6121 0.0000 0.0000 1760.8435 -7638.1976 296.4030 -9399.0411 -7572.8670 297.5153 605.6728 656.2475 30363.3994 -173.0142 -106.2476
ENERGY: 600000 1.9066 7.1915 2.4329 0.0000 -10732.4110 1369.7229 0.0000 0.0000 1734.9221 -7616.2349 292.0396 -9351.1570 -7572.7858 296.2827 -930.0540 -811.6670 31340.2273 -343.8356 -264.0075
ENERGY: 900000 1.5538 6.4077 2.1426 0.0000 -10826.8502 1449.0996 0.0000 0.0000 1864.1948 -7503.4517 313.8001 -9367.6465 -7564.7362 297.8884 16.7110 121.7576 30361.9045 -327.2532 -251.5911
ENERGY: 1200000 0.5797 9.6543 1.0971 0.0000 -10841.3141 1483.8503 0.0000 0.0000 1797.9152 -7548.2176 302.6433 -9346.1327 -7564.0174 297.7433 83.3172 136.9348 31039.1624 -184.0061 -124.6697
ENERGY: 1500000 2.7826 7.5948 4.0693 0.0000 -10854.4663 1450.0491 0.0000 0.0000 1811.3266 -7578.6439 304.9008 -9389.9705 -7567.6969 299.1003 -264.2213 -123.4923 30549.5330 -184.6517 -116.0868
TCL: Running FEP window   7: Lambda1 0.6999999999999997 Lambda2 0.6499999999999997 [dLambda -0.050000000000000044]
TCL: Setting parameter firsttimestep to 0
TCL: Setting parameter alchLambda to 0.6999999999999997
Info: NONBONDED TABLE R-SQUARED SPACING: 0.0625
Info: NONBONDED TABLE SIZE: 705 POINTS
TCL: Setting parameter alchLambda2 to 0.6499999999999997
Info: NONBONDED TABLE R-SQUARED SPACING: 0.0625
Info: NONBONDED TABLE SIZE: 705 POINTS
TCL: Running for 1500000 steps
ETITLE: TS BOND ANGLE DIHED IMPRP ELECT VDW BOUNDARY MISC KINETIC TOTAL TEMP POTENTIAL TOTALAVG TEMPAVG PRESSURE GPRESSURE VOLUME PRESSAVG GPRESSAVG
ENERGY: 0 2.7826 7.5948 4.0693 0.0000 -10854.4717 1450.2317 0.0000 0.0000 1810.4186 -7579.3747 304.7480 -9389.7933 -7579.3747 304.7480 -215.0542 -129.6997 30549.5330 -215.0542 -129.6997
ENERGY: 300000 1.2702 8.9489 2.3913 0.0000 -10791.0738 1444.8125 0.0000 0.0000 1735.0129 -7598.6380 292.0549 -9333.6509 -7575.4401 296.9433 -223.4533 -122.7467 31263.4898 -551.3856 -474.7425
ENERGY: 600000 1.2590 4.7613 1.6046 0.0000 -10736.9922 1355.9608 0.0000 0.0000 1767.9131 -7605.4934 297.5930 -9373.4064 -7561.4151 299.5846 -706.7063 -607.3256 30421.3601 -345.2516 -273.8903
ENERGY: 900000 3.7067 12.1166 3.6157 0.0000 -10713.5622 1393.1915 0.0000 0.0000 1763.6068 -7537.3248 296.8681 -9300.9316 -7554.7782 300.3382 -746.8997 -709.4315 31238.1281 -401.5733 -336.3095
ENERGY: 1200000 2.8727 9.5931 4.3932 0.0000 -10789.0841 1423.4435 0.0000 0.0000 1821.9594 -7526.8222 306.6907 -9348.7816 -7542.1774 301.6561 -326.2276 -259.8842 30603.1508 -356.5361 -290.1469
ENERGY: 1500000 2.9359 11.5882 2.4192 0.0000 -10791.5985 1400.8712 0.0000 0.0000 1807.5261 -7566.2579 304.2611 -9373.7840 -7546.1249 301.5503 -423.8622 -339.8600 30605.0713 -230.3882 -162.2979
TCL: Running FEP window   8: Lambda1 0.6499999999999997 Lambda2 0.5999999999999996 [dLambda -0.050000000000000044]
TCL: Setting parameter firsttimestep to 0
TCL: Setting parameter alchLambda to 0.6499999999999997
Info: NONBONDED TABLE R-SQUARED SPACING: 0.0625
Info: NONBONDED TABLE SIZE: 705 POINTS
TCL: Setting parameter alchLambda2 to 0.5999999999999996
Info: NONBONDED TABLE R-SQUARED SPACING: 0.0625
Info: NONBONDED TABLE SIZE: 705 POINTS
TCL: Running for 1500000 steps
ETITLE: TS BOND ANGLE DIHED IMPRP ELECT VDW BOUNDARY MISC KINETIC TOTAL TEMP POTENTIAL TOTALAVG TEMPAVG PRESSURE GPRESSURE VOLUME PRESSAVG GPRESSAVG
ENERGY: 0 2.9359 11.5882 2.4192 0.0000 -10791.6792 1401.5334 0.0000 0.0000 1806.6288 -7566.5737 304.1100 -9373.2025 -7566.5737 304.1100 -426.8209 -343.2503 30605.0713 -426.8209 -343.2503
ENERGY: 300000 1.4353 11.6528 1.8269 0.0000 -10796.4222 1473.8067 0.0000 0.0000 1800.3934 -7507.3071 303.0604 -9307.7005 -7554.4394 298.5636 236.1531 266.3497 30884.9429 -247.7174 -178.5391
ENERGY: 600000 2.7030 12.6313 1.5191 0.0000 -10696.7973 1336.5435 0.0000 0.0000 1725.9360 -7617.4645 290.5270 -9343.4004 -7563.0439 299.3101 -1095.7104 -1002.7140 30681.1041 -371.0031 -310.8180
ENERGY: 900000 3.8311 7.5482 1.9768 0.0000 -10723.5115 1399.2837 0.0000 0.0000 1749.5810 -7561.2907 294.5072 -9310.8717 -7569.5526 299.0058 -227.5441 -235.1298 30545.6066 -269.8230 -222.2749
ENERGY: 1200000 5.6110 6.3689 1.4776 0.0000 -10739.8327 1357.1827 0.0000 0.0000 1811.0987 -7558.0938 304.8625 -9369.1925 -7564.2121 300.8116 -911.5531 -856.5239 30840.5936 -332.4944 -276.1966
ENERGY: 1500000 4.6433 7.6844 1.5028 0.0000 -10798.6560 1409.4546 0.0000 0.0000 1833.6209 -7541.7500 308.6536 -9375.3709 -7567.5911 300.5601 -446.3531 -404.6879 30613.2281 -324.7226 -270.2408
TCL: Running FEP window   9: Lambda1 0.5999999999999996 Lambda2 0.5499999999999996 [dLambda -0.050000000000000044]
TCL: Setting parameter firsttimestep to 0
TCL: Setting parameter alchLambda to 0.5999999999999996
Info: NONBONDED TABLE R-SQUARED SPACING: 0.0625
Info: NONBONDED TABLE SIZE: 705 POINTS
TCL: Setting parameter alchLambda2 to 0.5499999999999996
Info: NONBONDED TABLE R-SQUARED SPACING: 0.0625
Info: NONBONDED TABLE SIZE: 705 POINTS
TCL: Running for 1500000 steps
ETITLE: TS BOND ANGLE DIHED IMPRP ELECT VDW BOUNDARY MISC KINETIC TOTAL TEMP POTENTIAL TOTALAVG TEMPAVG PRESSURE GPRESSURE VOLUME PRESSAVG GPRESSAVG
ENERGY: 0 4.6434 7.6844 1.5028 0.0000 -10798.3566 1410.0895 0.0000 0.0000 1832.7368 -7541.6997 308.5048 -9374.4366 -7541.6997 308.5048 -485.0997 -404.8771 30613.2281 -485.0997 -404.8771
ENERGY: 300000 1.0947 5.6065 1.7455 0.0000 -10986.9026 1537.9669 0.0000 0.0000 1795.0300 -7645.4592 302.1576 -9440.4892 -7590.8583 301.8113 572.6870 677.7843 30339.6098 -256.4695 -202.2394
ENERGY: 600000 3.0062 8.2088 1.7776 0.0000 -10765.2775 1446.4521 0.0000 0.0000 1783.2381 -7522.5949 300.1727 -9305.8329 -7564.3738 300.8411 -68.4521 -29.8730 30720.4915 -195.1579 -149.7113
ENERGY: 900000 2.7966 9.5952 1.3081 0.0000 -10841.5616 1457.0259 0.0000 0.0000 1833.7162 -7537.1196 308.6697 -9370.8358 -7554.6245 301.8776 -111.5916 -43.9932 30847.7764 -120.4732 -65.3737
ENERGY: 1200000 3.5922 7.6451 1.2945 0.0000 -10782.1948 1410.7332 0.0000 0.0000 1775.5707 -7583.3591 298.8820 -9358.9298 -7560.5516 300.8913 -393.9835 -246.5117 30444.2962 -143.6630 -80.7925
ENERGY: 1500000 2.8826 8.9889 1.3812 0.0000 -10772.2566 1418.1020 0.0000 0.0000 1783.7534 -7557.1486 300.2594 -9340.9020 -7555.0441 301.0791 -343.4853 -305.3196 30984.5559 -134.0747 -71.5313
TCL: Running FEP window  10: Lambda1 0.5499999999999996 Lambda2 0.4999999999999996 [dLambda -0.04999999999999999]
TCL: Setting parameter firsttimestep to 0
TCL: Setting parameter alchLambda to 0.5499999999999996
Info: NONBONDED TABLE R-SQUARED SPACING: 0.0625
Info: NONBONDED TABLE SIZE: 705 POINTS
TCL: Setting parameter alchLambda2 to 0.4999999999999996
Info: NONBONDED TABLE R-SQUARED SPACING: 0.0625
Info: NONBONDED TABLE SIZE: 705 POINTS
TCL: Running for 1500000 steps
ETITLE: TS BOND ANGLE DIHED IMPRP ELECT VDW BOUNDARY MISC KINETIC TOTAL TEMP POTENTIAL TOTALAVG TEMPAVG PRESSURE GPRESSURE VOLUME PRESSAVG GPRESSAVG
ENERGY: 0 2.8826 8.9889 1.3812 0.0000 -10772.2022 1418.3203 0.0000 0.0000 1782.8607 -7557.7686 300.1092 -9340.6293 -7557.7686 300.1092 -399.8696 -314.9968 30984.5559 -399.8696 -314.9968
ENERGY: 300000 0.7911 12.8352 3.5431 0.0000 -10619.2935 1289.0492 0.0000 0.0000 1828.2892 -7484.7856 307.7561 -9313.0748 -7516.1577 305.5166 -1411.3672 -1363.4020 30998.9222 -309.6075 -243.6367
ENERGY: 600000 1.7395 9.8388 5.0847 0.0000 -10825.6796 1454.7283 0.0000 0.0000 1762.4705 -7591.8177 296.6769 -9354.2882 -7554.8013 302.2480 23.2114 128.7216 30513.6617 -191.8435 -124.5887
ENERGY: 900000 2.3976 6.1659 2.5452 0.0000 -10715.1091 1383.5516 0.0000 0.0000 1779.3114 -7541.1373 299.5117 -9320.4487 -7552.8917 301.5176 -607.2101 -615.1161 30763.2245 -153.5288 -93.3300
ENERGY: 1200000 0.3818 5.7608 1.3928 0.0000 -10801.0797 1505.0237 0.0000 0.0000 1779.3631 -7509.1575 299.5204 -9288.5205 -7533.9552 302.6396 652.7486 708.5645 30725.8528 -57.0350 -2.5052
ENERGY: 1500000 2.7830 9.8424 1.0292 0.0000 -10801.4916 1464.3499 0.0000 0.0000 1770.6681 -7552.8189 298.0568 -9323.4870 -7536.6854 301.9814 -16.7909 42.4031 30899.2792 -8.6778 44.1467
TCL: Running FEP window  11: Lambda1 0.4999999999999996 Lambda2 0.4499999999999996 [dLambda -0.04999999999999999]
TCL: Setting parameter firsttimestep to 0
TCL: Setting parameter alchLambda to 0.4999999999999996
Info: NONBONDED TABLE R-SQUARED SPACING: 0.0625
Info: NONBONDED TABLE SIZE: 705 POINTS
TCL: Setting parameter alchLambda2 to 0.4499999999999996
Info: NONBONDED TABLE R-SQUARED SPACING: 0.0625
Info: NONBONDED TABLE SIZE: 705 POINTS
TCL: Running for 1500000 steps
ETITLE: TS BOND ANGLE DIHED IMPRP ELECT VDW BOUNDARY MISC KINETIC TOTAL TEMP POTENTIAL TOTALAVG TEMPAVG PRESSURE GPRESSURE VOLUME PRESSAVG GPRESSAVG
ENERGY: 0 2.7830 9.8424 1.0292 0.0000 -10801.4209 1464.9686 0.0000 0.0000 1769.7590 -7553.0387 297.9037 -9322.7977 -7553.0387 297.9037 -32.4494 43.0991 30899.2792 -32.4494 43.0991
ENERGY: 300000 1.7829 10.5056 2.0278 0.0000 -10807.3237 1470.1034 0.0000 0.0000 1763.9324 -7558.9716 296.9230 -9322.9040 -7568.2297 296.2338 -40.8478 -17.3191 31004.5578 -0.3662 54.8586
ENERGY: 600000 2.9109 16.3881 1.7268 0.0000 -10879.8904 1507.4012 0.0000 0.0000 1756.9206 -7594.5428 295.7427 -9351.4634 -7558.4035 297.3109 161.7999 212.1712 30940.2257 71.4997 126.2944
ENERGY: 900000 3.9724 8.4546 1.4721 0.0000 -10675.9973 1351.6313 0.0000 0.0000 1782.5864 -7527.8805 300.0630 -9310.4669 -7561.6314 297.9806 -1004.8973 -919.9574 31098.0053 -70.7552 -7.4531
ENERGY: 1200000 1.6149 9.7472 2.3294 0.0000 -10727.1015 1408.8323 0.0000 0.0000 1805.5575 -7499.0201 303.9297 -9304.5776 -7555.2209 298.0490 -66.0370 -5.1199 30517.9495 -148.3474 -86.6520
ENERGY: 1500000 1.8422 9.1103 1.4861 0.0000 -10881.0188 1466.0498 0.0000 0.0000 1836.2600 -7566.2704 309.0979 -9402.5304 -7563.5600 299.3605 -162.2462 -115.4826 31049.7458 -163.7242 -102.2060
TCL: Running FEP window  12: Lambda1 0.4499999999999996 Lambda2 0.39999999999999963 [dLambda -0.04999999999999999]
TCL: Setting parameter firsttimestep to 0
TCL: Setting parameter alchLambda to 0.4499999999999996
Info: NONBONDED TABLE R-SQUARED SPACING: 0.0625
Info: NONBONDED TABLE SIZE: 705 POINTS
TCL: Setting parameter alchLambda2 to 0.39999999999999963
Info: NONBONDED TABLE R-SQUARED SPACING: 0.0625
Info: NONBONDED TABLE SIZE: 705 POINTS
TCL: Running for 1500000 steps
ETITLE: TS BOND ANGLE DIHED IMPRP ELECT VDW BOUNDARY MISC KINETIC TOTAL TEMP POTENTIAL TOTALAVG TEMPAVG PRESSURE GPRESSURE VOLUME PRESSAVG GPRESSAVG
ENERGY: 0 1.8422 9.1103 1.4861 0.0000 -10881.0198 1466.2518 0.0000 0.0000 1835.3455 -7566.9839 308.9439 -9402.3293 -7566.9839 308.9439 -204.6859 -120.0733 31049.7458 -204.6859 -120.0733
ENERGY: 300000 0.7945 4.5869 2.2586 0.0000 -10833.0072 1538.9448 0.0000 0.0000 1759.2516 -7527.1708 296.1350 -9286.4224 -7514.9473 300.5588 481.0738 534.0394 31174.1654 150.5449 233.5344
ENERGY: 600000 2.4797 7.8047 2.3583 0.0000 -10644.3240 1359.5831 0.0000 0.0000 1790.2460 -7481.8522 301.3523 -9272.0982 -7524.3549 299.2454 -919.8290 -873.6350 31421.8249 -125.7580 -67.8536
ENERGY: 900000 1.2400 10.7650 2.0245 0.0000 -10829.2293 1515.5257 0.0000 0.0000 1743.0386 -7556.6354 293.4059 -9299.6741 -7518.2886 299.2238 628.6966 664.6866 30703.2033 -72.0250 -14.0441
ENERGY: 1200000 3.1659 6.5018 2.4253 0.0000 -10669.3157 1331.6579 0.0000 0.0000 1770.9779 -7554.5869 298.1089 -9325.5648 -7535.2392 299.1592 -1014.2751 -920.5767 30728.6989 -204.8367 -151.6913
ENERGY: 1500000 2.8055 10.5400 1.7188 0.0000 -10856.6116 1520.4791 0.0000 0.0000 1751.0093 -7570.0589 294.7476 -9321.0682 -7540.3019 298.5702 563.6203 606.4636 30633.1162 -150.3648 -90.8781
TCL: Running FEP window  13: Lambda1 0.39999999999999963 Lambda2 0.34999999999999964 [dLambda -0.04999999999999999]
TCL: Setting parameter firsttimestep to 0
TCL: Setting parameter alchLambda to 0.39999999999999963
Info: NONBONDED TABLE R-SQUARED SPACING: 0.0625
Info: NONBONDED TABLE SIZE: 705 POINTS
TCL: Setting parameter alchLambda2 to 0.34999999999999964
Info: NONBONDED TABLE R-SQUARED SPACING: 0.0625
Info: NONBONDED TABLE SIZE: 705 POINTS
TCL: Running for 1500000 steps
ETITLE: TS BOND ANGLE DIHED IMPRP ELECT VDW BOUNDARY MISC KINETIC TOTAL TEMP POTENTIAL TOTALAVG TEMPAVG PRESSURE GPRESSURE VOLUME PRESSAVG GPRESSAVG
ENERGY: 0 2.8055 10.5400 1.7188 0.0000 -10856.6112 1521.2261 0.0000 0.0000 1750.1627 -7570.1581 294.6051 -9320.3208 -7570.1581 294.6051 509.8215 605.9012 30633.1162 509.8215 605.9012
ENERGY: 300000 1.2014 7.3334 3.1168 0.0000 -10821.3843 1377.7748 0.0000 0.0000 1764.2018 -7667.7562 296.9683 -9431.9580 -7596.9567 298.0701 -942.6572 -859.3811 30401.2581 -514.5032 -429.7237
ENERGY: 600000 4.1369 8.7547 4.1677 0.0000 -10769.0093 1479.7924 0.0000 0.0000 1819.0056 -7453.1520 306.1934 -9272.1575 -7576.4315 297.8774 425.4299 470.0596 30362.2404 -113.8102 -41.5544
ENERGY: 900000 1.2392 7.5815 1.5778 0.0000 -10758.5443 1371.4465 0.0000 0.0000 1861.4675 -7515.2318 313.3410 -9376.6993 -7568.8784 301.1535 -642.1418 -607.1560 30698.1920 -105.6678 -40.4102
ENERGY: 1200000 0.7729 8.5996 1.4726 0.0000 -10838.7664 1510.7070 0.0000 0.0000 1743.9348 -7573.2794 293.5568 -9317.2142 -7574.1350 299.7131 561.4535 671.0034 30620.8499 -55.6996 17.8155
ENERGY: 1500000 4.8504 9.5798 1.6929 0.0000 -10804.4334 1472.6004 0.0000 0.0000 1817.7306 -7497.9793 305.9788 -9315.7098 -7577.3949 299.8773 153.1294 181.0565 30733.0366 -16.4071 46.9621
TCL: Running FEP window  14: Lambda1 0.34999999999999964 Lambda2 0.29999999999999966 [dLambda -0.04999999999999999]
TCL: Setting parameter firsttimestep to 0
TCL: Setting parameter alchLambda to 0.34999999999999964
Info: NONBONDED TABLE R-SQUARED SPACING: 0.0625
Info: NONBONDED TABLE SIZE: 705 POINTS
TCL: Setting parameter alchLambda2 to 0.29999999999999966
Info: NONBONDED TABLE R-SQUARED SPACING: 0.0625
Info: NONBONDED TABLE SIZE: 705 POINTS
TCL: Running for 1500000 steps
ETITLE: TS BOND ANGLE DIHED IMPRP ELECT VDW BOUNDARY MISC KINETIC TOTAL TEMP POTENTIAL TOTALAVG TEMPAVG PRESSURE GPRESSURE VOLUME PRESSAVG GPRESSAVG
ENERGY: 0 4.8504 9.5798 1.6929 0.0000 -10804.4336 1472.5829 0.0000 0.0000 1816.8557 -7498.8717 305.8315 -9315.7274 -7498.8717 305.8315 104.6250 173.8270 30733.0366 104.6250 173.8270
ENERGY: 300000 1.0585 5.7889 2.4565 0.0000 -10776.8136 1405.2064 0.0000 0.0000 1793.1548 -7569.1487 301.8420 -9362.3034 -7564.2348 300.6249 -353.3453 -296.7565 30637.7705 -282.7392 -235.3495
ENERGY: 600000 2.0455 5.9465 1.9657 0.0000 -10743.3335 1409.0276 0.0000 0.0000 1833.8284 -7490.5198 308.6886 -9324.3482 -7543.8884 301.6335 -312.6201 -254.5584 30603.6908 -230.6996 -181.0732
ENERGY: 900000 0.9413 6.8813 2.5380 0.0000 -10958.4943 1517.3499 0.0000 0.0000 1792.8200 -7637.9640 301.7856 -9430.7839 -7562.2521 300.4679 147.5284 211.0525 30525.6069 -134.8882 -75.4322
ENERGY: 1200000 1.7375 6.3423 1.6521 0.0000 -10945.0981 1515.2698 0.0000 0.0000 1777.6901 -7642.4062 299.2388 -9420.0963 -7558.8701 300.5419 409.4325 417.5889 30367.4532 -95.7030 -34.9831
ENERGY: 1500000 0.7874 8.5064 2.3202 0.0000 -10799.1788 1469.3412 0.0000 0.0000 1806.4276 -7511.7960 304.0762 -9318.2237 -7557.3352 300.4523 366.5189 382.9489 30554.4373 -63.5115 -9.6140
TCL: Running FEP window  15: Lambda1 0.29999999999999966 Lambda2 0.24999999999999967 [dLambda -0.04999999999999999]
TCL: Setting parameter firsttimestep to 0
TCL: Setting parameter alchLambda to 0.29999999999999966
Info: NONBONDED TABLE R-SQUARED SPACING: 0.0625
Info: NONBONDED TABLE SIZE: 705 POINTS
TCL: Setting parameter alchLambda2 to 0.24999999999999967
Info: NONBONDED TABLE R-SQUARED SPACING: 0.0625
Info: NONBONDED TABLE SIZE: 705 POINTS
TCL: Running for 1500000 steps
ETITLE: TS BOND ANGLE DIHED IMPRP ELECT VDW BOUNDARY MISC KINETIC TOTAL TEMP POTENTIAL TOTALAVG TEMPAVG PRESSURE GPRESSURE VOLUME PRESSAVG GPRESSAVG
ENERGY: 0 0.7874 8.5064 2.3202 0.0000 -10799.1785 1468.5718 0.0000 0.0000 1805.5570 -7513.4358 303.9296 -9318.9928 -7513.4358 303.9296 291.2470 370.5107 30554.4373 291.2470 370.5107
ENERGY: 300000 3.5810 8.6423 2.5089 0.0000 -10801.0965 1443.7123 0.0000 0.0000 1822.5324 -7520.1197 306.7871 -9342.6521 -7529.8504 298.2984 -144.3368 -148.2919 30791.7318 -21.7104 24.3503
ENERGY: 600000 4.9390 17.4047 2.4220 0.0000 -10862.6641 1518.9537 0.0000 0.0000 1736.5949 -7582.3497 292.3212 -9318.9446 -7530.6644 300.6311 440.7357 473.3821 30744.7168 226.0947 279.6798
ENERGY: 900000 3.7611 12.0328 2.1988 0.0000 -10817.3385 1481.8221 0.0000 0.0000 1826.9436 -7490.5801 307.5296 -9317.5237 -7540.4344 301.5079 380.1212 408.5591 30276.4918 199.6979 253.3044
ENERGY: 1200000 3.6472 5.0495 3.2094 0.0000 -10786.2565 1448.7103 0.0000 0.0000 1765.3175 -7560.3225 297.1561 -9325.6400 -7546.5335 301.7865 -261.0267 -141.3101 30867.1271 176.0169 242.8607
ENERGY: 1500000 1.8962 8.0837 1.5354 0.0000 -10927.0290 1516.8825 0.0000 0.0000 1764.2265 -7634.4048 296.9725 -9398.6313 -7550.7111 301.1437 605.3145 568.8147 30175.1079 112.3388 172.2944
TCL: Running FEP window  16: Lambda1 0.24999999999999967 Lambda2 0.19999999999999968 [dLambda -0.04999999999999999]
TCL: Setting parameter firsttimestep to 0
TCL: Setting parameter alchLambda to 0.24999999999999967
Info: NONBONDED TABLE R-SQUARED SPACING: 0.0625
Info: NONBONDED TABLE SIZE: 705 POINTS
TCL: Setting parameter alchLambda2 to 0.19999999999999968
Info: NONBONDED TABLE R-SQUARED SPACING: 0.0625
Info: NONBONDED TABLE SIZE: 705 POINTS
TCL: Running for 1500000 steps
ETITLE: TS BOND ANGLE DIHED IMPRP ELECT VDW BOUNDARY MISC KINETIC TOTAL TEMP POTENTIAL TOTALAVG TEMPAVG PRESSURE GPRESSURE VOLUME PRESSAVG GPRESSAVG
ENERGY: 0 1.8961 8.0837 1.5354 0.0000 -10927.0285 1516.8063 0.0000 0.0000 1763.3430 -7635.3640 296.8237 -9398.7070 -7635.3640 296.8237 485.2811 561.8884 30175.1079 485.2811 561.8884
ENERGY: 300000 1.2378 10.6069 1.8021 0.0000 -10759.5095 1432.5137 0.0000 0.0000 1804.2732 -7509.0757 303.7135 -9313.3490 -7591.9944 300.2280 -91.3589 -65.2255 30592.6634 -173.1288 -112.4162
ENERGY: 600000 2.5647 9.9533 3.0461 0.0000 -10865.7818 1498.7770 0.0000 0.0000 1769.0157 -7582.4251 297.7786 -9351.4408 -7543.4486 302.4297 364.0027 393.0500 30624.0013 -43.0627 11.8210
ENERGY: 900000 2.2790 6.4240 2.3326 0.0000 -10753.0072 1421.4315 0.0000 0.0000 1771.8555 -7548.6846 298.2566 -9320.5400 -7553.9235 300.7834 -408.5201 -356.7458 30683.6544 -51.1692 1.4190
ENERGY: 1200000 0.8997 6.9183 1.3875 0.0000 -10847.4333 1494.6714 0.0000 0.0000 1798.8884 -7544.6680 302.8071 -9343.5564 -7553.2604 300.1568 313.0674 313.2574 30743.0160 -47.7072 -0.1183
ENERGY: 1500000 2.0161 6.5382 2.4860 0.0000 -10785.1524 1501.1126 0.0000 0.0000 1829.7527 -7443.2467 308.0025 -9272.9994 -7540.6694 300.2831 430.9754 523.0641 30844.9929 -59.6443 -0.4421
TCL: Running FEP window  17: Lambda1 0.19999999999999968 Lambda2 0.1499999999999997 [dLambda -0.04999999999999999]
TCL: Setting parameter firsttimestep to 0
TCL: Setting parameter alchLambda to 0.19999999999999968
Info: NONBONDED TABLE R-SQUARED SPACING: 0.0625
Info: NONBONDED TABLE SIZE: 705 POINTS
TCL: Setting parameter alchLambda2 to 0.1499999999999997
Info: NONBONDED TABLE R-SQUARED SPACING: 0.0625
Info: NONBONDED TABLE SIZE: 705 POINTS
TCL: Running for 1500000 steps
ETITLE: TS BOND ANGLE DIHED IMPRP ELECT VDW BOUNDARY MISC KINETIC TOTAL TEMP POTENTIAL TOTALAVG TEMPAVG PRESSURE GPRESSURE VOLUME PRESSAVG GPRESSAVG
ENERGY: 0 2.0161 6.5382 2.4860 0.0000 -10785.1517 1500.7908 0.0000 0.0000 1828.8225 -7444.4980 307.8459 -9273.3205 -7444.4980 307.8459 433.2840 518.5489 30844.9929 433.2840 518.5489
ENERGY: 300000 2.4866 6.1986 1.3011 0.0000 -10795.6631 1500.1521 0.0000 0.0000 1812.4207 -7473.1040 305.0850 -9285.5247 -7496.8549 303.0549 171.5690 225.5099 31168.2575 116.2658 179.0039
ENERGY: 600000 2.5954 7.0970 2.9029 0.0000 -10671.0427 1389.3046 0.0000 0.0000 1766.9301 -7502.2126 297.4276 -9269.1427 -7500.9471 302.8466 -294.2387 -214.9507 30639.8222 -37.5900 15.8780
ENERGY: 900000 0.9849 8.3372 1.5408 0.0000 -10771.3076 1391.9328 0.0000 0.0000 1831.7644 -7536.7473 308.3411 -9368.5118 -7522.3132 302.5625 -624.6015 -529.5039 30815.3249 -94.1800 -38.0244
ENERGY: 1200000 1.4975 14.8710 1.7101 0.0000 -10783.3639 1418.9821 0.0000 0.0000 1819.8246 -7526.4786 306.3313 -9346.3032 -7527.7814 302.9678 -360.3317 -284.6785 30710.1762 -215.7587 -163.5876
ENERGY: 1500000 0.5770 11.1146 2.1862 0.0000 -10686.0253 1399.3866 0.0000 0.0000 1744.6496 -7528.1113 293.6771 -9272.7609 -7534.4058 302.0706 -406.9959 -351.7393 30898.8357 -152.3461 -97.6246
TCL: Running FEP window  18: Lambda1 0.1499999999999997 Lambda2 0.09999999999999969 [dLambda -0.05 ]
TCL: Setting parameter firsttimestep to 0
TCL: Setting parameter alchLambda to 0.1499999999999997
Info: NONBONDED TABLE R-SQUARED SPACING: 0.0625
Info: NONBONDED TABLE SIZE: 705 POINTS
TCL: Setting parameter alchLambda2 to 0.09999999999999969
Info: NONBONDED TABLE R-SQUARED SPACING: 0.0625
Info: NONBONDED TABLE SIZE: 705 POINTS
TCL: Running for 1500000 steps
ETITLE: TS BOND ANGLE DIHED IMPRP ELECT VDW BOUNDARY MISC KINETIC TOTAL TEMP POTENTIAL TOTALAVG TEMPAVG PRESSURE GPRESSURE VOLUME PRESSAVG GPRESSAVG
ENERGY: 0 0.5770 11.1146 2.1862 0.0000 -10686.0251 1399.4068 0.0000 0.0000 1743.7803 -7528.9602 293.5307 -9272.7405 -7528.9602 293.5307 -423.0999 -355.8207 30898.8357 -423.0999 -355.8207
ENERGY: 300000 2.0822 7.0488 1.2638 0.0000 -10799.6578 1461.9623 0.0000 0.0000 1824.4919 -7502.8088 307.1169 -9327.3006 -7529.5261 300.0824 -312.6018 -269.3037 31259.1591 -226.5326 -164.2909
ENERGY: 600000 2.0170 10.2824 1.7091 0.0000 -10769.5684 1393.2616 0.0000 0.0000 1777.9783 -7584.3200 299.2873 -9362.2983 -7543.8402 298.7608 -845.1520 -661.4590 30622.8189 -479.8071 -393.6852
ENERGY: 900000 3.5875 9.0240 1.5594 0.0000 -10816.1170 1449.1762 0.0000 0.0000 1814.1168 -7538.6531 305.3705 -9352.7699 -7550.3967 298.9829 95.8147 149.2934 30357.0475 -297.7666 -216.9205
ENERGY: 1200000 1.5929 5.4849 3.0891 0.0000 -10638.5591 1337.8661 0.0000 0.0000 1771.3047 -7519.2215 298.1639 -9290.5261 -7553.8098 298.3573 -962.7232 -887.1266 30971.9678 -298.7657 -220.5595
ENERGY: 1500000 0.8467 7.1271 1.4657 0.0000 -10696.7096 1379.0187 0.0000 0.0000 1816.6434 -7491.6080 305.7958 -9308.2515 -7552.2172 299.0682 -613.7478 -520.3330 30683.4933 -344.7601 -260.5249
TCL: Running FEP window  19: Lambda1 0.09999999999999969 Lambda2 0.049999999999999684 [dLambda -0.05 ]
TCL: Setting parameter firsttimestep to 0
TCL: Setting parameter alchLambda to 0.09999999999999969
Info: NONBONDED TABLE R-SQUARED SPACING: 0.0625
Info: NONBONDED TABLE SIZE: 705 POINTS
TCL: Setting parameter alchLambda2 to 0.049999999999999684
Info: NONBONDED TABLE R-SQUARED SPACING: 0.0625
Info: NONBONDED TABLE SIZE: 705 POINTS
TCL: Running for 1500000 steps
ETITLE: TS BOND ANGLE DIHED IMPRP ELECT VDW BOUNDARY MISC KINETIC TOTAL TEMP POTENTIAL TOTALAVG TEMPAVG PRESSURE GPRESSURE VOLUME PRESSAVG GPRESSAVG
ENERGY: 0 0.8467 7.1271 1.4657 0.0000 -10696.7097 1378.8461 0.0000 0.0000 1815.7650 -7492.6591 305.6479 -9308.4241 -7492.6591 305.6479 -614.4161 -522.3785 30683.4933 -614.4161 -522.3785
ENERGY: 300000 2.8366 7.8561 3.0303 0.0000 -10933.1551 1458.9495 0.0000 0.0000 1738.6305 -7721.8521 292.6639 -9460.4826 -7606.6308 300.0873 37.3704 75.2677 29869.9617 -271.9584 -220.9685
ENERGY: 600000 0.5302 11.4590 2.2106 0.0000 -10796.3231 1439.1180 0.0000 0.0000 1764.2925 -7578.7128 296.9836 -9343.0052 -7611.1500 298.2258 -355.7439 -231.4366 30778.4213 -305.1702 -247.4065
ENERGY: 900000 1.6023 6.5016 2.8162 0.0000 -10788.8496 1419.5143 0.0000 0.0000 1799.0258 -7559.3894 302.8302 -9358.4152 -7606.7352 297.9363 -346.4918 -281.9734 30624.5268 -201.2393 -140.9492
ENERGY: 1200000 2.4175 14.4750 1.3494 0.0000 -10878.8058 1542.8798 0.0000 0.0000 1784.6197 -7533.0644 300.4052 -9317.6841 -7594.3407 298.6463 994.6887 1024.3619 30526.0391 -49.1456 6.6276
ENERGY: 1500000 2.2033 6.5701 2.2879 0.0000 -10828.4918 1466.8881 0.0000 0.0000 1738.0516 -7612.4908 292.5664 -9350.5424 -7584.3995 298.6485 163.4418 147.5301 30160.6166 -59.7348 3.2693
TCL: Running FEP window  20: Lambda1 0.049999999999999684 Lambda2 0.0    [dLambda -0.049999999999999684]
TCL: Setting parameter firsttimestep to 0
TCL: Setting parameter alchLambda to 0.049999999999999684
Info: NONBONDED TABLE R-SQUARED SPACING: 0.0625
Info: NONBONDED TABLE SIZE: 705 POINTS
TCL: Setting parameter alchLambda2 to 0.0
Info: NONBONDED TABLE R-SQUARED SPACING: 0.0625
Info: NONBONDED TABLE SIZE: 705 POINTS
TCL: Running for 1500000 steps
ETITLE: TS BOND ANGLE DIHED IMPRP ELECT VDW BOUNDARY MISC KINETIC TOTAL TEMP POTENTIAL TOTALAVG TEMPAVG PRESSURE GPRESSURE VOLUME PRESSAVG GPRESSAVG
ENERGY: 0 2.2033 6.5701 2.2879 0.0000 -10828.4906 1466.9039 0.0000 0.0000 1737.1686 -7613.3568 292.4178 -9350.5253 -7613.3568 292.4178 86.6168 142.9003 30160.6166 86.6168 142.9003
ENERGY: 300000 0.8312 7.3882 2.1056 0.0000 -10775.9772 1490.2658 0.0000 0.0000 1756.7544 -7518.6320 295.7147 -9275.3864 -7546.3958 300.8954 67.2468 152.8094 31213.8569 -37.4233 22.8427
ENERGY: 600000 1.7450 9.8504 1.9587 0.0000 -10732.4080 1411.4291 0.0000 0.0000 1778.3968 -7529.0279 299.3577 -9307.4247 -7530.1208 301.5511 -437.6728 -380.7015 30911.8679 -75.2708 -8.5510
ENERGY: 900000 2.9982 7.0459 1.2844 0.0000 -10922.8431 1533.8723 0.0000 0.0000 1776.5386 -7601.1037 299.0450 -9377.6423 -7534.4181 302.6403 584.4110 663.4269 30055.0196 -24.6162 39.8516
ENERGY: 1200000 4.2594 7.6760 1.9516 0.0000 -10764.2344 1434.8100 0.0000 0.0000 1743.2324 -7572.3051 293.4385 -9315.5375 -7533.3742 302.7256 -602.5662 -517.1490 31216.9890 -8.3776 61.8653
ENERGY: 1500000 3.2133 11.6133 5.0425 0.0000 -10740.5779 1401.6801 0.0000 0.0000 1721.8214 -7597.2073 289.8344 -9319.0287 -7542.9366 301.7191 -415.1763 -316.2483 30380.3704 -82.7328 -13.9263
TCL: Exiting due to exit command.
