Info: SIMULATION PARAMETERS:
Info: TIMESTEP               2
Info: NUMBER OF STEPS        0
Info: STEPS PER CYCLE        10
Info: PERIODIC CELL BASIS 1  31.88 0 0
Info: PERIODIC CELL BASIS 2  0 29.6673 0
Info: PERIODIC CELL BASIS 3  0 0 33.0391
Info: PERIODIC CELL CENTER   0 0 0
Info: WRAPPING WATERS AROUND PERIODIC BOUNDARIES ON OUTPUT.
Info: WRAPPING ALL CLUSTERS AROUND PERIODIC BOUNDARIES ON OUTPUT.
Info: FIRST LDB TIMESTEP     50
Info: LAST LDB TIMESTEP     -1
Info: HOM BACKGROUND SCALING 1
Info: PME BACKGROUND SCALING 1
Info: MIN ATOMS PER PATCH    40
Info: EMPTY PATCH LOAD       40 ATOMS
Info: VELOCITY FILE          mobley_1396156_equil.vel
Info: CENTER OF MASS MOVING INITIALLY? NO
Info: DIELECTRIC             1
Info: EXCLUDE                SCALED ONE-FOUR
Info: 1-4 ELECTROSTATICS SCALED BY 0.833333
Info: MODIFIED 1-4 VDW PARAMETERS WILL BE USED
Info: DCD FILENAME           mobley_1396156_prod.dcd
Info: DCD FREQUENCY          100000
Info: DCD FIRST STEP         100000
Info: DCD FILE WILL CONTAIN UNIT CELL DATA
Info: XST FILENAME           mobley_1396156_prod.xst
Info: XST FREQUENCY          100000
Info: NO VELOCITY DCD OUTPUT
Info: NO FORCE DCD OUTPUT
Info: OUTPUT FILENAME        mobley_1396156_prod
Info: BINARY OUTPUT FILES WILL BE USED
Info: RESTART FILENAME       mobley_1396156_prod.restart
Info: RESTART FREQUENCY      100000
Info: BINARY RESTART FILES WILL BE USED
Info: CUTOFF                 9
Info: PAIRLIST DISTANCE      11
Info: PAIRLIST SHRINK RATE   0.01
Info: PAIRLIST GROW RATE     0.01
Info: PAIRLIST TRIGGER       0.3
Info: PAIRLISTS PER CYCLE    2
Info: PAIRLISTS ENABLED
Info: MARGIN                 2
Info: HYDROGEN GROUP CUTOFF  2.5
Info: PATCH DIMENSION        15.5
Info: ENERGY OUTPUT STEPS    100000
Info: ENERGY EVALUATION STEPS    100000
Info: OUTPUT ENERGY PRECISION 4
Info: CROSSTERM ENERGY INCLUDED IN DIHEDRAL
Info: TIMING OUTPUT STEPS    1000000
Info: PRESSURE OUTPUT STEPS  100000
Info: ALCHEMICAL FEP ON
Info: FEP CURRENT LAMBDA VALUE     1
Info: FEP COMPARISON LAMBDA VALUE  0.95
Info: FEP INTRA-ALCHEMICAL NON-BONDED INTERACTIONS WILL BE RETAINED
Info: FEP INTRA-ALCHEMICAL BONDED INTERACTIONS WILL BE RETAINED
Info: FEP VDW SHIFTING COEFFICIENT 5
Info: FEP ELEC. ACTIVE FOR ANNIHILATED PARTICLES BETWEEN LAMBDA = 0 AND LAMBDA = 0.5
Info: FEP ELEC. ACTIVE FOR EXNIHILATED PARTICLES BETWEEN LAMBDA = 0.5 AND LAMBDA = 1
Info: FEP VDW ACTIVE FOR ANNIHILATED PARTICLES BETWEEN LAMBDA = 0 AND LAMBDA = 1
Info: FEP VDW ACTIVE FOR EXNIHILATED PARTICLES BETWEEN LAMBDA = 0 AND LAMBDA = 1
Info: FEP BOND ACTIVE FOR ANNIHILATED PARTICLES BETWEEN LAMBDA = 1 AND LAMBDA = 1
Info: FEP BOND ACTIVE FOR EXNIHILATED PARTICLES BETWEEN LAMBDA = 0 AND LAMBDA = 0
Info: LANGEVIN DYNAMICS ACTIVE
Info: LANGEVIN TEMPERATURE   300
Info: LANGEVIN USING BBK INTEGRATOR
Info: LANGEVIN DAMPING COEFFICIENT IS 1 INVERSE PS
Info: LANGEVIN DYNAMICS APPLIED TO HYDROGENS
Info: LANGEVIN PISTON PRESSURE CONTROL ACTIVE
Info:        TARGET PRESSURE IS 1.01325 BAR
Info:     OSCILLATION PERIOD IS 50 FS
Info:             DECAY TIME IS 25 FS
Info:     PISTON TEMPERATURE IS 300 K
Info:       PRESSURE CONTROL IS GROUP-BASED
Info:    INITIAL STRAIN RATE IS 0.000773813 0.000773813 0.000773813
Info:       CELL FLUCTUATION IS ISOTROPIC
Info: PARTICLE MESH EWALD (PME) ACTIVE
Info: PME TOLERANCE               1e-06
Info: PME EWALD COEFFICIENT       0.348832
Info: PME INTERPOLATION ORDER     4
Info: PME GRID DIMENSIONS         32 32 36
Info: PME MAXIMUM GRID SPACING    1
Info: PME CALCULATION WILL BE PERFORMED ON GPU
Info: FULL ELECTROSTATIC EVALUATION FREQUENCY      2
Info: USING VERLET I (r-RESPA) MTS SCHEME.
Info: C1 SPLITTING OF LONG RANGE ELECTROSTATICS
Info: PLACING ATOMS IN PATCHES BY HYDROGEN GROUPS
Info: RIGID BONDS TO HYDROGEN : ALL
Info:         ERROR TOLERANCE : 1e-08
Info:          MAX ITERATIONS : 100
Info: RIGID WATER USING SETTLE ALGORITHM
Info: RANDOM NUMBER SEED     1743738493
Info: USE HYDROGEN BONDS?    NO
Info: Using AMBER format force field!
Info: AMBER PARM FILE        mobley_1396156.prmtop
Info: COORDINATE PDB         mobley_1396156.pdb
Info: Exclusions will be read from PARM file!
Info: SCNB (VDW SCALING)     2
Info: USING ARITHMETIC MEAN TO COMBINE L-J SIGMA PARAMETERS
Info: BINARY COORDINATES     mobley_1396156_equil.coor
Info: SUMMARY OF PARAMETERS:
Info: 6 BONDS
Info: 5 ANGLES
Info:   5 HARMONIC
Info:   0 COSINE-BASED
Info: 3 DIHEDRAL
Info: 0 IMPROPER
Info: 0 CROSSTERM
Info: 0 VDW
Info: 21 VDW_PAIRS
Info: 0 NBTHOLE_PAIRS
Info: To read alchdata from file: mobley_1396156.pdb
Info: To read alchflag data from column: 5
Info: STRUCTURE SUMMARY:
Info: 2960 ATOMS
Info: 2960 BONDS
Info: 21 ANGLES
Info: 34 DIHEDRALS
Info: 0 IMPROPERS
Info: 0 CROSSTERMS
Info: 3006 EXCLUSIONS
Info: 2946 RIGID BONDS
Info: ALCH: 0 ATOMS TO DISAPPEAR IN FINAL STATE
Info: ALCH: 14 ATOMS TO APPEAR IN FINAL STATE
Info: 5934 DEGREES OF FREEDOM
Info: 996 HYDROGEN GROUPS
Info: 3 ATOMS IN LARGEST HYDROGEN GROUP
Info: 996 MIGRATION GROUPS
Info: 3 ATOMS IN LARGEST MIGRATION GROUP
Info: TOTAL MASS = 17987 amu
Info: TOTAL CHARGE = 0.000200011 e
Info: MASS DENSITY = 0.955861 g/cm^3
Info: ATOM DENSITY = 0.0947257 atoms/A^3
Info: ADDED 0 IMPLICIT EXCLUSIONS
Info: NONBONDED TABLE R-SQUARED SPACING: 0.0625
Info: NONBONDED TABLE SIZE: 705 POINTS
Info: REMOVING COM VELOCITY 0.114302 -0.0393527 -0.0329986
Info: Use 3D box decompostion in PME FFT.
Info: Updated CUDA force table with 4096 elements.
Info: Updated CUDA LJ table with 6 x 6 elements.
Info: Found 17 unique exclusion lists needing 36 bytes
TCL: Running for 1500000 steps
ETITLE: TS BOND ANGLE DIHED IMPRP ELECT VDW BOUNDARY MISC KINETIC TOTAL TEMP POTENTIAL TOTALAVG TEMPAVG PRESSURE GPRESSURE VOLUME PRESSAVG GPRESSAVG
ENERGY: 0 3.7340 2.7640 8.4644 0.0000 -10607.5017 1354.6606 0.0000 0.0000 1784.1431 -7453.7355 302.6025 -9237.8786 -7453.7355 302.6025 -954.3900 -876.2089 31248.1358 -954.3900 -876.2089
ENERGY: 300000 2.6803 1.9076 11.0653 0.0000 -10633.1293 1367.8872 0.0000 0.0000 1777.7410 -7471.8479 301.5167 -9249.5888 -7468.3953 303.0639 -611.0900 -561.2371 31134.3767 -673.8991 -609.6827
ENERGY: 600000 3.5813 2.7442 5.9970 0.0000 -10559.9601 1391.4925 0.0000 0.0000 1725.2550 -7430.8902 292.6147 -9156.1452 -7483.0495 300.6825 -170.6248 -180.6253 30851.1241 -367.8298 -309.9811
ENERGY: 900000 6.3682 6.2034 6.0305 0.0000 -10684.1877 1420.4058 0.0000 0.0000 1723.7668 -7521.4129 292.3623 -9245.1798 -7489.9971 298.9216 -43.6527 94.7276 30470.3257 -379.2924 -318.3837
ENERGY: 1200000 4.0320 1.7400 6.9383 0.0000 -10800.1157 1458.2622 0.0000 0.0000 1835.2108 -7493.9325 311.2639 -9329.1433 -7485.9079 300.5084 -4.8671 113.7041 30667.8916 -318.7591 -255.0284
ENERGY: 1500000 3.7759 7.3727 4.9717 0.0000 -10755.1700 1436.1760 0.0000 0.0000 1775.4300 -7527.4437 301.1247 -9302.8738 -7490.7801 300.3470 -30.3506 -5.1299 30448.3424 -290.3837 -230.6411
TCL: Running FEP window   2: Lambda1 0.95   Lambda2 0.8999999999999999 [dLambda -0.050000000000000044]
TCL: Setting parameter firsttimestep to 0
TCL: Setting parameter alchLambda to 0.95
Info: NONBONDED TABLE R-SQUARED SPACING: 0.0625
Info: NONBONDED TABLE SIZE: 705 POINTS
TCL: Setting parameter alchLambda2 to 0.8999999999999999
Info: NONBONDED TABLE R-SQUARED SPACING: 0.0625
Info: NONBONDED TABLE SIZE: 705 POINTS
TCL: Running for 1500000 steps
ETITLE: TS BOND ANGLE DIHED IMPRP ELECT VDW BOUNDARY MISC KINETIC TOTAL TEMP POTENTIAL TOTALAVG TEMPAVG PRESSURE GPRESSURE VOLUME PRESSAVG GPRESSAVG
ENERGY: 0 3.7759 7.3726 4.9717 0.0000 -10755.0710 1437.0840 0.0000 0.0000 1774.5637 -7527.3031 300.9778 -9301.8668 -7527.3031 300.9778 -94.6508 -12.6449 30448.3424 -94.6508 -12.6449
ENERGY: 300000 4.5162 1.4043 9.4595 0.0000 -10752.1805 1507.1020 0.0000 0.0000 1807.6414 -7422.0571 306.5880 -9229.6985 -7541.9389 299.1171 884.3699 953.8253 30465.0464 91.4907 167.8000
ENERGY: 600000 5.2752 1.6375 6.9671 0.0000 -10633.3631 1380.0273 0.0000 0.0000 1802.3156 -7437.1404 305.6847 -9239.4560 -7504.1675 301.7260 -366.5463 -352.9177 30908.8322 40.9240 94.5330
ENERGY: 900000 7.8806 2.4957 6.8253 0.0000 -10644.2222 1401.2105 0.0000 0.0000 1768.1796 -7457.6304 299.8950 -9225.8100 -7496.1969 301.2365 -290.3509 -231.3324 30769.7058 -76.4436 -17.8018
ENERGY: 1200000 4.0785 4.1333 7.0346 0.0000 -10719.6574 1500.6825 0.0000 0.0000 1728.1426 -7475.5859 293.1045 -9203.7285 -7483.1490 301.2565 580.7139 668.0238 30607.0771 -30.7596 25.0557
ENERGY: 1500000 4.6881 5.2217 5.9233 0.0000 -10740.1530 1472.9191 0.0000 0.0000 1746.5522 -7504.8486 296.2268 -9251.4008 -7492.3522 300.7454 501.8698 555.8544 30422.7696 9.2448 64.6574
TCL: Running FEP window   3: Lambda1 0.8999999999999999 Lambda2 0.8499999999999999 [dLambda -0.050000000000000044]
TCL: Setting parameter firsttimestep to 0
TCL: Setting parameter alchLambda to 0.8999999999999999
Info: NONBONDED TABLE R-SQUARED SPACING: 0.0625
Info: NONBONDED TABLE SIZE: 705 POINTS
TCL: Setting parameter alchLambda2 to 0.8499999999999999
Info: NONBONDED TABLE R-SQUARED SPACING: 0.0625
Info: NONBONDED TABLE SIZE: 705 POINTS
TCL: Running for 1500000 steps
ETITLE: TS BOND ANGLE DIHED IMPRP ELECT VDW BOUNDARY MISC KINETIC TOTAL TEMP POTENTIAL TOTALAVG TEMPAVG PRESSURE GPRESSURE VOLUME PRESSAVG GPRESSAVG
ENERGY: 0 4.6881 5.2217 5.9233 0.0000 -10740.0523 1473.5510 0.0000 0.0000 1745.6865 -7504.9818 296.0800 -9250.6683 -7504.9818 296.0800 471.6976 550.2227 30422.7696 471.6976 550.2227
ENERGY: 300000 4.1766 1.5430 7.4120 0.0000 -10639.6173 1399.4933 0.0000 0.0000 1715.2762 -7511.7162 290.9222 -9226.9924 -7514.3038 298.4597 -616.7688 -485.5082 31325.9022 444.2636 510.3172
ENERGY: 600000 2.3412 3.9157 9.0615 0.0000 -10742.5715 1506.7795 0.0000 0.0000 1807.9204 -7412.5531 306.6353 -9220.4736 -7485.9631 301.5939 555.8538 646.8601 30925.0232 267.6280 327.5853
ENERGY: 900000 4.2392 3.0858 5.8444 0.0000 -10833.2401 1491.8698 0.0000 0.0000 1809.5511 -7518.6497 306.9119 -9328.2009 -7488.6116 301.8920 432.1319 523.1047 30384.5895 211.8030 276.2856
ENERGY: 1200000 4.7043 0.5155 5.2689 0.0000 -10644.8956 1381.7176 0.0000 0.0000 1870.0317 -7382.6576 317.1698 -9252.6893 -7484.0325 303.8331 -473.3749 -467.6403 31165.4997 113.5571 170.7484
ENERGY: 1500000 2.8143 1.8128 7.0730 0.0000 -10748.7761 1416.0900 0.0000 0.0000 1747.5039 -7573.4821 296.3883 -9320.9860 -7485.6954 303.0803 -477.6492 -371.2368 30804.4380 28.7161 89.3758
TCL: Running FEP window   4: Lambda1 0.8499999999999999 Lambda2 0.7999999999999998 [dLambda -0.050000000000000044]
TCL: Setting parameter firsttimestep to 0
TCL: Setting parameter alchLambda to 0.8499999999999999
Info: NONBONDED TABLE R-SQUARED SPACING: 0.0625
Info: NONBONDED TABLE SIZE: 705 POINTS
TCL: Setting parameter alchLambda2 to 0.7999999999999998
Info: NONBONDED TABLE R-SQUARED SPACING: 0.0625
Info: NONBONDED TABLE SIZE: 705 POINTS
TCL: Running for 1500000 steps
ETITLE: TS BOND ANGLE DIHED IMPRP ELECT VDW BOUNDARY MISC KINETIC TOTAL TEMP POTENTIAL TOTALAVG TEMPAVG PRESSURE GPRESSURE VOLUME PRESSAVG GPRESSAVG
ENERGY: 0 2.8143 1.8128 7.0730 0.0000 -10748.6642 1416.6259 0.0000 0.0000 1746.6200 -7573.7182 296.2383 -9320.3382 -7573.7182 296.2383 -471.1696 -379.2758 30804.4380 -471.1696 -379.2758
ENERGY: 300000 5.5551 3.0442 7.9218 0.0000 -10755.0669 1472.3261 0.0000 0.0000 1731.6645 -7534.5552 293.7018 -9266.2197 -7529.8850 297.7748 303.2811 332.3081 30441.3924 -198.7539 -118.4051
ENERGY: 600000 5.5696 4.3088 4.9731 0.0000 -10692.0718 1439.2760 0.0000 0.0000 1790.2455 -7447.6988 303.6375 -9237.9443 -7496.3692 300.7970 32.7810 218.4412 30323.1781 -198.5516 -105.5348
ENERGY: 900000 5.6927 3.1730 7.2841 0.0000 -10567.3376 1329.2297 0.0000 0.0000 1794.9170 -7427.0412 304.4298 -9221.9582 -7488.1201 300.9402 -1068.6584 -965.6878 31058.7304 -186.5736 -99.9996
ENERGY: 1200000 3.5890 3.3265 6.9816 0.0000 -10770.4083 1513.3266 0.0000 0.0000 1807.1225 -7436.0622 306.5000 -9243.1847 -7481.1580 302.2478 534.5827 638.3440 30894.6933 -21.1952 62.1384
ENERGY: 1500000 8.3784 3.2373 5.3667 0.0000 -10541.6006 1300.7539 0.0000 0.0000 1748.8071 -7475.0571 296.6093 -9223.8642 -7475.3491 301.5952 -1425.0981 -1362.5038 31268.5526 -194.1105 -113.1979
TCL: Running FEP window   5: Lambda1 0.7999999999999998 Lambda2 0.7499999999999998 [dLambda -0.050000000000000044]
TCL: Setting parameter firsttimestep to 0
TCL: Setting parameter alchLambda to 0.7999999999999998
Info: NONBONDED TABLE R-SQUARED SPACING: 0.0625
Info: NONBONDED TABLE SIZE: 705 POINTS
TCL: Setting parameter alchLambda2 to 0.7499999999999998
Info: NONBONDED TABLE R-SQUARED SPACING: 0.0625
Info: NONBONDED TABLE SIZE: 705 POINTS
TCL: Running for 1500000 steps
ETITLE: TS BOND ANGLE DIHED IMPRP ELECT VDW BOUNDARY MISC KINETIC TOTAL TEMP POTENTIAL TOTALAVG TEMPAVG PRESSURE GPRESSURE VOLUME PRESSAVG GPRESSAVG
ENERGY: 0 8.3784 3.2373 5.3667 0.0000 -10541.5105 1301.6143 0.0000 0.0000 1747.9302 -7474.9835 296.4606 -9222.9137 -7474.9835 296.4606 -1450.2790 -1361.5326 31268.5526 -1450.2790 -1361.5326
ENERGY: 300000 2.9314 2.3853 7.2442 0.0000 -10597.0140 1336.5377 0.0000 0.0000 1814.2825 -7433.6329 307.7144 -9247.9154 -7494.0223 300.3153 -655.6603 -659.1298 30694.4192 -377.7749 -329.8113
ENERGY: 600000 5.5126 1.9266 7.3703 0.0000 -10860.1593 1485.9541 0.0000 0.0000 1821.1185 -7538.2772 308.8738 -9359.3958 -7497.7671 301.4328 219.8671 312.5143 30547.0213 -216.6426 -156.4721
ENERGY: 900000 5.5643 3.1637 5.3934 0.0000 -10671.1181 1426.5086 0.0000 0.0000 1831.1442 -7399.3439 310.5742 -9230.4882 -7497.6673 301.5513 -81.4476 59.0104 30985.2014 -198.7532 -125.1422
ENERGY: 1200000 3.8634 2.1655 7.8114 0.0000 -10584.9717 1351.6235 0.0000 0.0000 1750.6783 -7468.8296 296.9267 -9219.5079 -7502.4203 300.2057 -664.7474 -573.7809 31031.2289 -218.3688 -155.7710
ENERGY: 1500000 2.8995 2.1236 4.3627 0.0000 -10614.7241 1393.9624 0.0000 0.0000 1759.5043 -7451.8716 298.4236 -9211.3759 -7501.8772 299.7239 31.4230 179.4993 30375.8582 -171.7219 -105.2108
TCL: Running FEP window   6: Lambda1 0.7499999999999998 Lambda2 0.6999999999999997 [dLambda -0.050000000000000044]
TCL: Setting parameter firsttimestep to 0
TCL: Setting parameter alchLambda to 0.7499999999999998
Info: NONBONDED TABLE R-SQUARED SPACING: 0.0625
Info: NONBONDED TABLE SIZE: 705 POINTS
TCL: Setting parameter alchLambda2 to 0.6999999999999997
Info: NONBONDED TABLE R-SQUARED SPACING: 0.0625
Info: NONBONDED TABLE SIZE: 705 POINTS
TCL: Running for 1500000 steps
ETITLE: TS BOND ANGLE DIHED IMPRP ELECT VDW BOUNDARY MISC KINETIC TOTAL TEMP POTENTIAL TOTALAVG TEMPAVG PRESSURE GPRESSURE VOLUME PRESSAVG GPRESSAVG
ENERGY: 0 2.8995 2.1236 4.3627 0.0000 -10614.6301 1395.0598 0.0000 0.0000 1758.6573 -7451.5272 298.2800 -9210.1845 -7451.5272 298.2800 90.9913 175.7121 30375.8582 90.9913 175.7121
ENERGY: 300000 5.6251 1.6562 6.3183 0.0000 -10816.1501 1500.0345 0.0000 0.0000 1807.7826 -7494.7334 306.6119 -9302.5160 -7475.5637 303.2255 371.3544 462.5296 30476.4647 -125.6671 -49.2094
ENERGY: 600000 2.7728 2.1724 5.7212 0.0000 -10727.2630 1465.1606 0.0000 0.0000 1775.3051 -7476.1310 301.1035 -9251.4361 -7462.2948 302.4026 380.6103 442.4089 30555.9006 -117.4086 -49.2510
ENERGY: 900000 1.7673 2.9296 7.2904 0.0000 -10708.6552 1417.2126 0.0000 0.0000 1769.3015 -7510.1539 300.0853 -9279.4553 -7465.4970 300.3420 179.9010 132.8934 30219.8579 -181.2029 -126.1639
ENERGY: 1200000 3.4004 4.1073 5.8766 0.0000 -10654.4218 1358.7531 0.0000 0.0000 1746.3728 -7535.9117 296.1964 -9282.2845 -7480.7568 299.6795 -647.1002 -624.4188 30378.5352 -255.6599 -200.4369
ENERGY: 1500000 4.3278 1.1745 6.1503 0.0000 -10657.9071 1369.8897 0.0000 0.0000 1800.8485 -7475.5163 305.4359 -9276.3648 -7480.2304 300.6625 -679.3669 -603.9760 30976.5446 -307.0849 -247.3847
TCL: Running FEP window   7: Lambda1 0.6999999999999997 Lambda2 0.6499999999999997 [dLambda -0.050000000000000044]
TCL: Setting parameter firsttimestep to 0
TCL: Setting parameter alchLambda to 0.6999999999999997
Info: NONBONDED TABLE R-SQUARED SPACING: 0.0625
Info: NONBONDED TABLE SIZE: 705 POINTS
TCL: Setting parameter alchLambda2 to 0.6499999999999997
Info: NONBONDED TABLE R-SQUARED SPACING: 0.0625
Info: NONBONDED TABLE SIZE: 705 POINTS
TCL: Running for 1500000 steps
ETITLE: TS BOND ANGLE DIHED IMPRP ELECT VDW BOUNDARY MISC KINETIC TOTAL TEMP POTENTIAL TOTALAVG TEMPAVG PRESSURE GPRESSURE VOLUME PRESSAVG GPRESSAVG
ENERGY: 0 4.3277 1.1745 6.1503 0.0000 -10657.7700 1370.5648 0.0000 0.0000 1799.9296 -7475.6231 305.2800 -9275.5526 -7475.6231 305.2800 -680.7222 -606.0620 30976.5446 -680.7222 -606.0620
ENERGY: 300000 7.6437 3.6320 7.8847 0.0000 -10758.6176 1496.1201 0.0000 0.0000 1753.2230 -7490.1142 297.3583 -9243.3371 -7491.7890 299.4445 365.3803 456.9924 30311.0819 100.3731 146.7901
ENERGY: 600000 4.9674 3.6009 7.3257 0.0000 -10770.0695 1460.7646 0.0000 0.0000 1786.2583 -7507.1526 302.9613 -9293.4110 -7491.9408 301.6229 59.4908 166.3839 30156.7038 -145.6654 -84.7974
ENERGY: 900000 4.9915 1.1219 6.2081 0.0000 -10707.0002 1417.8214 0.0000 0.0000 1777.4982 -7499.3590 301.4755 -9276.8572 -7493.3056 300.8496 -331.3714 -265.0165 30724.0878 -258.7127 -192.5195
ENERGY: 1200000 2.2065 3.4906 7.1727 0.0000 -10769.5070 1509.7140 0.0000 0.0000 1800.3499 -7446.5733 305.3513 -9246.9232 -7496.1388 300.0134 682.1340 691.8756 30631.8315 -245.2962 -185.3954
ENERGY: 1500000 4.0205 1.4128 7.7385 0.0000 -10685.0761 1368.0967 0.0000 0.0000 1708.6090 -7595.1986 289.7914 -9303.8076 -7501.4731 298.9290 -497.7975 -482.9402 30460.9216 -217.6512 -164.3583
TCL: Running FEP window   8: Lambda1 0.6499999999999997 Lambda2 0.5999999999999996 [dLambda -0.050000000000000044]
TCL: Setting parameter firsttimestep to 0
TCL: Setting parameter alchLambda to 0.6499999999999997
Info: NONBONDED TABLE R-SQUARED SPACING: 0.0625
Info: NONBONDED TABLE SIZE: 705 POINTS
TCL: Setting parameter alchLambda2 to 0.5999999999999996
Info: NONBONDED TABLE R-SQUARED SPACING: 0.0625
Info: NONBONDED TABLE SIZE: 705 POINTS
TCL: Running for 1500000 steps
ETITLE: TS BOND ANGLE DIHED IMPRP ELECT VDW BOUNDARY MISC KINETIC TOTAL TEMP POTENTIAL TOTALAVG TEMPAVG PRESSURE GPRESSURE VOLUME PRESSAVG GPRESSAVG
ENERGY: 0 4.0205 1.4129 7.7384 0.0000 -10684.9542 1368.8059 0.0000 0.0000 1707.7418 -7595.2348 289.6443 -9302.9765 -7595.2348 289.6443 -558.2943 -486.8980 30460.9216 -558.2943 -486.8980
ENERGY: 300000 4.8161 3.1042 7.0828 0.0000 -10895.2265 1472.2948 0.0000 0.0000 1784.7567 -7623.1719 302.7066 -9407.9285 -7514.3074 300.1664 52.9251 25.7717 30204.8299 -302.3295 -242.4984
ENERGY: 600000 6.3468 2.9917 5.4869 0.0000 -10696.4710 1404.1140 0.0000 0.0000 1756.8785 -7520.6531 297.9783 -9277.5316 -7498.1753 301.5326 -463.8930 -364.2958 30841.0475 -113.3885 -40.0764
ENERGY: 900000 2.8175 4.2082 7.9021 0.0000 -10819.2821 1513.6723 0.0000 0.0000 1772.1550 -7518.5270 300.5692 -9290.6820 -7514.5902 301.4554 772.9895 859.0609 30492.9049 -3.8661 63.5734
ENERGY: 1200000 7.2899 4.7163 7.3288 0.0000 -10840.8030 1494.3470 0.0000 0.0000 1782.4683 -7544.6528 302.3185 -9327.1211 -7514.6387 301.3124 284.9851 357.5863 30173.8503 35.6946 104.1268
ENERGY: 1500000 2.6736 1.1637 6.6189 0.0000 -10809.4415 1496.5658 0.0000 0.0000 1785.7791 -7516.6403 302.8800 -9302.4194 -7513.0385 301.0556 383.4030 421.1346 30492.0585 29.0321 93.0603
TCL: Running FEP window   9: Lambda1 0.5999999999999996 Lambda2 0.5499999999999996 [dLambda -0.050000000000000044]
TCL: Setting parameter firsttimestep to 0
TCL: Setting parameter alchLambda to 0.5999999999999996
Info: NONBONDED TABLE R-SQUARED SPACING: 0.0625
Info: NONBONDED TABLE SIZE: 705 POINTS
TCL: Setting parameter alchLambda2 to 0.5499999999999996
Info: NONBONDED TABLE R-SQUARED SPACING: 0.0625
Info: NONBONDED TABLE SIZE: 705 POINTS
TCL: Running for 1500000 steps
ETITLE: TS BOND ANGLE DIHED IMPRP ELECT VDW BOUNDARY MISC KINETIC TOTAL TEMP POTENTIAL TOTALAVG TEMPAVG PRESSURE GPRESSURE VOLUME PRESSAVG GPRESSAVG
ENERGY: 0 2.6736 1.1637 6.6189 0.0000 -10809.3025 1497.3027 0.0000 0.0000 1784.9156 -7516.6279 302.7335 -9301.5436 -7516.6279 302.7335 344.1328 417.7662 30492.0585 344.1328 417.7662
ENERGY: 300000 2.9074 1.5164 6.0516 0.0000 -10794.6644 1509.3173 0.0000 0.0000 1756.2465 -7518.6253 297.8711 -9274.8718 -7547.3520 298.3652 526.1007 611.4765 30595.4759 113.9908 215.1069
ENERGY: 600000 7.6934 4.8225 10.1854 0.0000 -10667.1147 1402.8561 0.0000 0.0000 1757.4226 -7484.1347 298.0705 -9241.5574 -7500.1665 300.6233 -572.6146 -484.7876 30797.3636 -94.5380 -8.3464
ENERGY: 900000 2.8957 2.2041 10.2929 0.0000 -10672.8639 1419.4341 0.0000 0.0000 1786.5442 -7451.4929 303.0098 -9238.0371 -7494.1954 299.6594 -104.7642 -77.9104 30699.0912 -22.9633 51.7954
ENERGY: 1200000 5.6336 3.0648 6.6645 0.0000 -10541.3324 1330.4743 0.0000 0.0000 1738.0072 -7457.4880 294.7776 -9195.4952 -7484.9614 299.5720 -926.4643 -894.4987 31048.8260 -36.0798 37.8661
ENERGY: 1500000 3.6022 1.3210 5.9613 0.0000 -10747.4499 1414.8606 0.0000 0.0000 1808.6735 -7513.0313 306.7630 -9321.7047 -7485.9397 300.3264 -284.7058 -234.7718 30647.0453 -55.4605 18.2135
TCL: Running FEP window  10: Lambda1 0.5499999999999996 Lambda2 0.4999999999999996 [dLambda -0.04999999999999999]
TCL: Setting parameter firsttimestep to 0
TCL: Setting parameter alchLambda to 0.5499999999999996
Info: NONBONDED TABLE R-SQUARED SPACING: 0.0625
Info: NONBONDED TABLE SIZE: 705 POINTS
TCL: Setting parameter alchLambda2 to 0.4999999999999996
Info: NONBONDED TABLE R-SQUARED SPACING: 0.0625
Info: NONBONDED TABLE SIZE: 705 POINTS
TCL: Running for 1500000 steps
ETITLE: TS BOND ANGLE DIHED IMPRP ELECT VDW BOUNDARY MISC KINETIC TOTAL TEMP POTENTIAL TOTALAVG TEMPAVG PRESSURE GPRESSURE VOLUME PRESSAVG GPRESSAVG
ENERGY: 0 3.6022 1.3210 5.9613 0.0000 -10747.5356 1415.6545 0.0000 0.0000 1807.8322 -7513.1643 306.6203 -9320.9966 -7513.1643 306.6203 -319.3849 -238.7057 30647.0453 -319.3849 -238.7057
ENERGY: 300000 4.6872 1.1113 8.1798 0.0000 -10751.1063 1477.5233 0.0000 0.0000 1761.0699 -7498.5349 298.6891 -9259.6048 -7477.3104 305.1392 276.0069 363.3054 30651.1904 80.9714 152.5001
ENERGY: 600000 4.4050 4.0465 9.0294 0.0000 -10755.8202 1472.7984 0.0000 0.0000 1818.9659 -7446.5750 308.5087 -9265.5409 -7487.1134 302.0874 277.8728 396.3679 30269.7268 165.5698 241.7528
ENERGY: 900000 3.2194 2.7156 4.7795 0.0000 -10789.8505 1489.1651 0.0000 0.0000 1788.3779 -7501.5929 303.3208 -9289.9708 -7485.2960 302.7267 137.2829 200.0493 30792.7596 202.2346 275.0113
ENERGY: 1200000 4.0025 4.5381 5.7586 0.0000 -10665.9591 1387.3628 0.0000 0.0000 1768.1613 -7496.1358 299.8919 -9264.2971 -7481.5154 303.0592 -389.1766 -305.8440 30290.6313 116.3321 179.5221
ENERGY: 1500000 4.4059 2.2713 8.2650 0.0000 -10870.7742 1521.3486 0.0000 0.0000 1780.9873 -7553.4960 302.0673 -9334.4833 -7488.6883 302.5060 500.0199 548.7189 30566.9110 159.9852 219.9852
TCL: Running FEP window  11: Lambda1 0.4999999999999996 Lambda2 0.4499999999999996 [dLambda -0.04999999999999999]
TCL: Setting parameter firsttimestep to 0
TCL: Setting parameter alchLambda to 0.4999999999999996
Info: NONBONDED TABLE R-SQUARED SPACING: 0.0625
Info: NONBONDED TABLE SIZE: 705 POINTS
TCL: Setting parameter alchLambda2 to 0.4499999999999996
Info: NONBONDED TABLE R-SQUARED SPACING: 0.0625
Info: NONBONDED TABLE SIZE: 705 POINTS
TCL: Running for 1500000 steps
ETITLE: TS BOND ANGLE DIHED IMPRP ELECT VDW BOUNDARY MISC KINETIC TOTAL TEMP POTENTIAL TOTALAVG TEMPAVG PRESSURE GPRESSURE VOLUME PRESSAVG GPRESSAVG
ENERGY: 0 4.4059 2.2713 8.2650 0.0000 -10870.8829 1522.3006 0.0000 0.0000 1780.1385 -7553.5016 301.9233 -9333.6400 -7553.5016 301.9233 454.4943 546.9407 30566.9110 454.4943 546.9407
ENERGY: 300000 3.2807 4.1471 6.8598 0.0000 -10619.3353 1392.6664 0.0000 0.0000 1738.7750 -7473.6062 294.9078 -9212.3812 -7513.8858 298.0914 -260.8967 -255.9775 30627.1301 103.7266 171.0455
ENERGY: 600000 4.6755 3.6446 6.8321 0.0000 -10591.7807 1329.8691 0.0000 0.0000 1779.2890 -7467.4704 301.7792 -9246.7594 -7494.0540 298.5481 -881.3499 -829.7502 30715.3739 12.7701 79.0727
ENERGY: 900000 2.5416 1.6692 5.0948 0.0000 -10601.3746 1352.4364 0.0000 0.0000 1685.5903 -7554.0422 285.8873 -9239.6326 -7509.7000 298.0627 -590.3542 -494.0206 30442.2993 -46.3200 22.3006
ENERGY: 1200000 6.6557 3.9945 5.3542 0.0000 -10801.6105 1473.9106 0.0000 0.0000 1762.7746 -7548.9210 298.9783 -9311.6956 -7499.5520 299.7520 -82.9976 29.3455 30723.3502 -117.0807 -48.4061
ENERGY: 1500000 2.1062 4.0132 8.3805 0.0000 -10737.6924 1416.1611 0.0000 0.0000 1785.3268 -7521.7046 302.8033 -9307.0314 -7514.0352 299.4309 -125.4824 -49.7005 30369.2086 -37.4957 34.0836
TCL: Running FEP window  12: Lambda1 0.4499999999999996 Lambda2 0.39999999999999963 [dLambda -0.04999999999999999]
TCL: Setting parameter firsttimestep to 0
TCL: Setting parameter alchLambda to 0.4499999999999996
Info: NONBONDED TABLE R-SQUARED SPACING: 0.0625
Info: NONBONDED TABLE SIZE: 705 POINTS
TCL: Setting parameter alchLambda2 to 0.39999999999999963
Info: NONBONDED TABLE R-SQUARED SPACING: 0.0625
Info: NONBONDED TABLE SIZE: 705 POINTS
TCL: Running for 1500000 steps
ETITLE: TS BOND ANGLE DIHED IMPRP ELECT VDW BOUNDARY MISC KINETIC TOTAL TEMP POTENTIAL TOTALAVG TEMPAVG PRESSURE GPRESSURE VOLUME PRESSAVG GPRESSAVG
ENERGY: 0 2.1062 4.0132 8.3805 0.0000 -10737.6930 1416.6820 0.0000 0.0000 1784.4613 -7522.0497 302.6565 -9306.5111 -7522.0497 302.6565 -141.7419 -55.7696 30369.2086 -141.7419 -55.7696
ENERGY: 300000 4.2848 3.2394 9.2278 0.0000 -10598.4323 1323.4625 0.0000 0.0000 1764.6831 -7493.5348 299.3020 -9258.2178 -7492.4100 301.5196 -844.6268 -785.9882 30597.9422 -357.9171 -311.2343
ENERGY: 600000 4.8154 2.2630 6.2310 0.0000 -10813.1337 1513.2817 0.0000 0.0000 1800.5323 -7486.0103 305.3822 -9286.5427 -7495.4586 300.5690 201.1836 205.8292 30832.0585 -45.0797 5.2232
ENERGY: 900000 4.3297 1.7706 8.0386 0.0000 -10767.2534 1439.7994 0.0000 0.0000 1745.4616 -7567.8535 296.0419 -9313.3151 -7501.7887 299.7710 -300.0004 -279.5994 30442.5563 31.4941 80.0207
ENERGY: 1200000 4.8240 2.7283 5.1475 0.0000 -10897.1771 1510.7381 0.0000 0.0000 1769.4477 -7604.2915 300.1101 -9373.7392 -7508.6653 299.5879 247.3583 353.5217 30356.8219 66.5456 115.8875
ENERGY: 1500000 4.1735 4.0862 10.6932 0.0000 -10823.3049 1446.4778 0.0000 0.0000 1735.4566 -7622.4175 294.3450 -9357.8742 -7511.8591 299.4291 -16.4828 15.3517 30228.9382 94.9537 139.0570
TCL: Running FEP window  13: Lambda1 0.39999999999999963 Lambda2 0.34999999999999964 [dLambda -0.04999999999999999]
TCL: Setting parameter firsttimestep to 0
TCL: Setting parameter alchLambda to 0.39999999999999963
Info: NONBONDED TABLE R-SQUARED SPACING: 0.0625
Info: NONBONDED TABLE SIZE: 705 POINTS
TCL: Setting parameter alchLambda2 to 0.34999999999999964
Info: NONBONDED TABLE R-SQUARED SPACING: 0.0625
Info: NONBONDED TABLE SIZE: 705 POINTS
TCL: Running for 1500000 steps
ETITLE: TS BOND ANGLE DIHED IMPRP ELECT VDW BOUNDARY MISC KINETIC TOTAL TEMP POTENTIAL TOTALAVG TEMPAVG PRESSURE GPRESSURE VOLUME PRESSAVG GPRESSAVG
ENERGY: 0 4.1735 4.0862 10.6932 0.0000 -10823.3049 1446.9400 0.0000 0.0000 1734.5679 -7622.8440 294.1942 -9357.4119 -7622.8440 294.1942 -83.8275 6.7150 30228.9382 -83.8275 6.7150
ENERGY: 300000 7.0323 1.1156 5.1558 0.0000 -10776.7231 1425.7550 0.0000 0.0000 1783.4602 -7554.2041 302.4867 -9337.6644 -7518.8524 300.5058 -339.8118 -235.9783 30475.4592 -349.7343 -269.8011
ENERGY: 600000 5.1576 3.8914 7.3037 0.0000 -10832.5061 1553.7441 0.0000 0.0000 1775.6826 -7486.7267 301.1676 -9262.4093 -7487.1879 301.6107 1072.3437 1096.0281 30325.5990 47.2438 105.6315
ENERGY: 900000 3.0074 2.2101 7.2413 0.0000 -10835.9391 1533.4712 0.0000 0.0000 1791.0383 -7498.9708 303.7720 -9290.0091 -7477.7336 301.8711 904.3512 973.8130 29921.9800 103.2281 165.8265
ENERGY: 1200000 2.6978 3.0756 9.7069 0.0000 -10763.2996 1507.6312 0.0000 0.0000 1773.0346 -7467.1534 300.7184 -9240.1880 -7478.5459 302.0518 366.2223 459.9267 30890.3035 117.6794 187.5663
ENERGY: 1500000 5.2970 2.6108 6.6851 0.0000 -10608.8932 1370.7810 0.0000 0.0000 1750.7284 -7472.7909 296.9352 -9223.5193 -7483.8950 301.5754 -774.6266 -737.4502 30851.6885 20.6436 86.5379
TCL: Running FEP window  14: Lambda1 0.34999999999999964 Lambda2 0.29999999999999966 [dLambda -0.04999999999999999]
TCL: Setting parameter firsttimestep to 0
TCL: Setting parameter alchLambda to 0.34999999999999964
Info: NONBONDED TABLE R-SQUARED SPACING: 0.0625
Info: NONBONDED TABLE SIZE: 705 POINTS
TCL: Setting parameter alchLambda2 to 0.29999999999999966
Info: NONBONDED TABLE R-SQUARED SPACING: 0.0625
Info: NONBONDED TABLE SIZE: 705 POINTS
TCL: Running for 1500000 steps
ETITLE: TS BOND ANGLE DIHED IMPRP ELECT VDW BOUNDARY MISC KINETIC TOTAL TEMP POTENTIAL TOTALAVG TEMPAVG PRESSURE GPRESSURE VOLUME PRESSAVG GPRESSAVG
ENERGY: 0 5.2970 2.6108 6.6851 0.0000 -10608.8912 1370.8354 0.0000 0.0000 1749.8603 -7473.6026 296.7879 -9223.4629 -7473.6026 296.7879 -831.5190 -745.2991 30851.6885 -831.5190 -745.2991
ENERGY: 300000 7.9316 2.7116 8.1485 0.0000 -10771.9208 1493.8976 0.0000 0.0000 1814.8774 -7444.3540 307.8153 -9259.2315 -7507.5879 298.0102 491.6225 575.8186 30466.6952 -283.7539 -205.8789
ENERGY: 600000 3.9214 2.0521 7.7543 0.0000 -10661.4841 1432.0960 0.0000 0.0000 1793.6182 -7422.0421 304.2096 -9215.6603 -7485.4643 298.5342 189.1630 240.1533 30374.7217 -170.3048 -90.4511
ENERGY: 900000 3.8972 2.2931 8.2424 0.0000 -10824.3376 1483.7779 0.0000 0.0000 1788.0768 -7538.0502 303.2697 -9326.1271 -7504.7060 298.0570 131.1576 167.4431 30270.5719 -126.6790 -59.7596
ENERGY: 1200000 4.4718 3.5235 6.6320 0.0000 -10598.5078 1328.9271 0.0000 0.0000 1760.6436 -7494.3098 298.6168 -9254.9534 -7507.9347 299.1185 -1094.8326 -1023.7983 30926.7999 -194.3274 -135.1412
ENERGY: 1500000 1.9757 3.0521 8.1245 0.0000 -10775.2322 1541.9690 0.0000 0.0000 1780.1992 -7439.9117 301.9336 -9220.1109 -7498.3209 299.1267 750.3954 795.8621 30547.3319 -65.2530 -4.5099
TCL: Running FEP window  15: Lambda1 0.29999999999999966 Lambda2 0.24999999999999967 [dLambda -0.04999999999999999]
TCL: Setting parameter firsttimestep to 0
TCL: Setting parameter alchLambda to 0.29999999999999966
Info: NONBONDED TABLE R-SQUARED SPACING: 0.0625
Info: NONBONDED TABLE SIZE: 705 POINTS
TCL: Setting parameter alchLambda2 to 0.24999999999999967
Info: NONBONDED TABLE R-SQUARED SPACING: 0.0625
Info: NONBONDED TABLE SIZE: 705 POINTS
TCL: Running for 1500000 steps
ETITLE: TS BOND ANGLE DIHED IMPRP ELECT VDW BOUNDARY MISC KINETIC TOTAL TEMP POTENTIAL TOTALAVG TEMPAVG PRESSURE GPRESSURE VOLUME PRESSAVG GPRESSAVG
ENERGY: 0 1.9757 3.0521 8.1245 0.0000 -10775.2308 1542.5566 0.0000 0.0000 1779.3193 -7440.2027 301.7844 -9219.5220 -7440.2027 301.7844 719.3909 793.7412 30547.3319 719.3909 793.7412
ENERGY: 300000 6.4517 1.7207 6.9636 0.0000 -10796.2629 1458.7170 0.0000 0.0000 1800.3367 -7522.0732 305.3490 -9322.4098 -7472.6821 303.8409 138.1817 266.7074 30297.1099 35.8043 120.4656
ENERGY: 600000 5.2914 2.9935 7.0048 0.0000 -10795.0958 1536.4516 0.0000 0.0000 1746.5611 -7496.7933 296.2284 -9243.3545 -7497.6345 300.5752 559.6503 635.2790 30614.9923 -1.9971 66.6205
ENERGY: 900000 7.2203 3.4670 6.9853 0.0000 -10629.8681 1382.3982 0.0000 0.0000 1798.2945 -7431.5028 305.0027 -9229.7973 -7489.5932 301.6031 -508.1392 -420.5553 30337.5519 25.1766 92.7688
ENERGY: 1200000 3.2993 3.1862 6.2220 0.0000 -10700.2966 1415.9759 0.0000 0.0000 1764.7182 -7506.8950 299.3079 -9271.6132 -7485.8308 301.2232 -91.2966 -21.8121 30423.1116 67.4092 138.2241
ENERGY: 1500000 5.4036 2.3790 5.1881 0.0000 -10705.3087 1460.8058 0.0000 0.0000 1762.2775 -7469.2546 298.8940 -9231.5322 -7482.4252 301.5176 -166.4774 -25.1947 30563.1470 74.6922 142.4791
TCL: Running FEP window  16: Lambda1 0.24999999999999967 Lambda2 0.19999999999999968 [dLambda -0.04999999999999999]
TCL: Setting parameter firsttimestep to 0
TCL: Setting parameter alchLambda to 0.24999999999999967
Info: NONBONDED TABLE R-SQUARED SPACING: 0.0625
Info: NONBONDED TABLE SIZE: 705 POINTS
TCL: Setting parameter alchLambda2 to 0.19999999999999968
Info: NONBONDED TABLE R-SQUARED SPACING: 0.0625
Info: NONBONDED TABLE SIZE: 705 POINTS
TCL: Running for 1500000 steps
ETITLE: TS BOND ANGLE DIHED IMPRP ELECT VDW BOUNDARY MISC KINETIC TOTAL TEMP POTENTIAL TOTALAVG TEMPAVG PRESSURE GPRESSURE VOLUME PRESSAVG GPRESSAVG
ENERGY: 0 5.4036 2.3790 5.1881 0.0000 -10705.3097 1460.6597 0.0000 0.0000 1761.3582 -7470.3211 298.7380 -9231.6793 -7470.3211 298.7380 -116.6012 -32.1180 30563.1470 -116.6012 -32.1180
ENERGY: 300000 2.7731 4.0476 9.4672 0.0000 -10760.4980 1472.5303 0.0000 0.0000 1761.2917 -7510.3880 298.7268 -9271.6797 -7494.3335 300.6823 63.7233 108.5880 30707.2750 38.9029 112.5103
ENERGY: 600000 8.0077 3.9556 7.0229 0.0000 -10750.5573 1462.2477 0.0000 0.0000 1744.4054 -7524.9181 295.8627 -9269.3234 -7503.8480 300.2636 224.9549 336.2846 30065.0542 94.1321 173.6898
ENERGY: 900000 4.8159 2.1112 6.6745 0.0000 -10790.1073 1512.9777 0.0000 0.0000 1763.0746 -7500.4534 299.0292 -9263.5281 -7514.1064 299.0487 257.1882 293.5123 30484.9140 78.0041 164.3128
ENERGY: 1200000 3.6106 2.8554 5.8048 0.0000 -10609.5440 1373.5621 0.0000 0.0000 1793.5348 -7430.1763 304.1954 -9223.7111 -7512.0667 298.6240 -721.4510 -645.7957 30965.0246 1.6012 86.1516
ENERGY: 1500000 4.4822 3.3156 7.1584 0.0000 -10670.6551 1396.6641 0.0000 0.0000 1787.9455 -7471.0893 303.2474 -9259.0348 -7493.8789 300.6936 -19.9578 -25.3586 30373.0441 -18.1657 55.3846
TCL: Running FEP window  17: Lambda1 0.19999999999999968 Lambda2 0.1499999999999997 [dLambda -0.04999999999999999]
TCL: Setting parameter firsttimestep to 0
TCL: Setting parameter alchLambda to 0.19999999999999968
Info: NONBONDED TABLE R-SQUARED SPACING: 0.0625
Info: NONBONDED TABLE SIZE: 705 POINTS
TCL: Setting parameter alchLambda2 to 0.1499999999999997
Info: NONBONDED TABLE R-SQUARED SPACING: 0.0625
Info: NONBONDED TABLE SIZE: 705 POINTS
TCL: Running for 1500000 steps
ETITLE: TS BOND ANGLE DIHED IMPRP ELECT VDW BOUNDARY MISC KINETIC TOTAL TEMP POTENTIAL TOTALAVG TEMPAVG PRESSURE GPRESSURE VOLUME PRESSAVG GPRESSAVG
ENERGY: 0 4.4822 3.3157 7.1584 0.0000 -10670.6558 1397.1970 0.0000 0.0000 1787.0471 -7471.4554 303.0951 -9258.5025 -7471.4554 303.0951 -106.9411 -28.9225 30373.0441 -106.9411 -28.9225
ENERGY: 300000 4.1923 2.8001 8.0895 0.0000 -10727.0800 1435.9653 0.0000 0.0000 1791.4856 -7484.5473 303.8478 -9276.0328 -7479.7811 305.2840 -130.0322 -109.5407 30335.9477 76.7440 119.3779
ENERGY: 600000 2.0104 3.2124 5.9733 0.0000 -10762.6087 1503.1680 0.0000 0.0000 1754.2253 -7494.0192 297.5283 -9248.2445 -7481.3722 304.4137 605.4393 621.1847 30385.8331 91.8693 131.1435
ENERGY: 900000 7.1899 4.1499 9.5566 0.0000 -10733.5805 1468.3403 0.0000 0.0000 1757.9453 -7486.3984 298.1592 -9244.3437 -7469.4191 303.7445 279.6219 285.6226 30568.4701 71.5059 117.6135
ENERGY: 1200000 4.4035 2.1488 10.2710 0.0000 -10745.3248 1516.6252 0.0000 0.0000 1803.6941 -7408.1821 305.9185 -9211.8763 -7470.9007 303.7359 797.0422 901.5766 30371.9357 105.4854 159.6450
ENERGY: 1500000 3.6699 3.2665 9.9389 0.0000 -10655.9196 1421.6019 0.0000 0.0000 1745.1115 -7472.3309 295.9825 -9217.4423 -7477.1359 302.2419 -161.2625 -154.7788 30583.7956 112.6233 163.7040
TCL: Running FEP window  18: Lambda1 0.1499999999999997 Lambda2 0.09999999999999969 [dLambda -0.05 ]
TCL: Setting parameter firsttimestep to 0
TCL: Setting parameter alchLambda to 0.1499999999999997
Info: NONBONDED TABLE R-SQUARED SPACING: 0.0625
Info: NONBONDED TABLE SIZE: 705 POINTS
TCL: Setting parameter alchLambda2 to 0.09999999999999969
Info: NONBONDED TABLE R-SQUARED SPACING: 0.0625
Info: NONBONDED TABLE SIZE: 705 POINTS
TCL: Running for 1500000 steps
ETITLE: TS BOND ANGLE DIHED IMPRP ELECT VDW BOUNDARY MISC KINETIC TOTAL TEMP POTENTIAL TOTALAVG TEMPAVG PRESSURE GPRESSURE VOLUME PRESSAVG GPRESSAVG
ENERGY: 0 3.6699 3.2665 9.9389 0.0000 -10655.9200 1421.8565 0.0000 0.0000 1744.1995 -7472.9888 295.8278 -9217.1882 -7472.9888 295.8278 -246.3219 -155.8883 30583.7956 -246.3219 -155.8883
ENERGY: 300000 4.5791 4.2461 5.2046 0.0000 -10835.7711 1439.8967 0.0000 0.0000 1791.9766 -7589.8680 303.9311 -9381.8446 -7482.6594 302.3834 -357.6043 -308.4499 30574.1214 -205.0917 -176.5026
ENERGY: 600000 2.9145 2.4353 7.4485 0.0000 -10690.3813 1430.1885 0.0000 0.0000 1764.5125 -7482.8820 299.2730 -9247.3945 -7503.4508 301.6098 -223.1398 -223.4165 30888.8909 -130.7525 -96.3133
ENERGY: 900000 1.4880 3.1952 8.1839 0.0000 -10574.8652 1351.5088 0.0000 0.0000 1823.2770 -7387.2123 309.2399 -9210.4893 -7482.6174 302.3733 -723.0758 -640.4042 30639.8558 -54.2037 -2.9514
ENERGY: 1200000 3.2906 3.0583 7.5085 0.0000 -10765.3155 1492.7003 0.0000 0.0000 1773.1851 -7485.5728 300.7440 -9258.7579 -7471.6190 302.3189 527.3459 619.9909 30297.7833 23.9452 84.7442
ENERGY: 1500000 6.3540 4.3669 6.4326 0.0000 -10750.9366 1502.7911 0.0000 0.0000 1749.0899 -7481.9020 296.6573 -9230.9920 -7469.8751 301.6782 475.6886 492.0005 30249.2059 76.4686 135.3569
TCL: Running FEP window  19: Lambda1 0.09999999999999969 Lambda2 0.049999999999999684 [dLambda -0.05 ]
TCL: Setting parameter firsttimestep to 0
TCL: Setting parameter alchLambda to 0.09999999999999969
Info: NONBONDED TABLE R-SQUARED SPACING: 0.0625
Info: NONBONDED TABLE SIZE: 705 POINTS
TCL: Setting parameter alchLambda2 to 0.049999999999999684
Info: NONBONDED TABLE R-SQUARED SPACING: 0.0625
Info: NONBONDED TABLE SIZE: 705 POINTS
TCL: Running for 1500000 steps
ETITLE: TS BOND ANGLE DIHED IMPRP ELECT VDW BOUNDARY MISC KINETIC TOTAL TEMP POTENTIAL TOTALAVG TEMPAVG PRESSURE GPRESSURE VOLUME PRESSAVG GPRESSAVG
ENERGY: 0 6.3540 4.3669 6.4326 0.0000 -10750.9366 1503.2492 0.0000 0.0000 1748.2149 -7482.3191 296.5088 -9230.5339 -7482.3191 296.5088 406.6908 488.2399 30249.2059 406.6908 488.2399
ENERGY: 300000 4.1421 3.7559 6.5922 0.0000 -10615.7819 1362.3718 0.0000 0.0000 1771.2429 -7467.6770 300.4146 -9238.9199 -7463.2934 301.4705 -762.1001 -674.2990 30671.3976 299.0556 365.2509
ENERGY: 600000 2.2168 3.8471 5.4351 0.0000 -10696.5966 1432.5409 0.0000 0.0000 1781.5114 -7471.0452 302.1562 -9252.5566 -7455.4467 302.0893 51.4539 65.2280 30202.7607 109.5888 174.0888
ENERGY: 900000 4.5329 2.2133 6.2582 0.0000 -10757.7621 1491.9646 0.0000 0.0000 1736.2744 -7516.5187 294.4837 -9252.7931 -7471.8316 300.3467 224.4026 261.3797 31279.5391 64.8344 115.9259
ENERGY: 1200000 4.5212 5.3454 6.7881 0.0000 -10869.1994 1502.7875 0.0000 0.0000 1772.1849 -7577.5723 300.5743 -9349.7572 -7480.9920 301.0088 90.4286 54.3282 30463.8584 28.7424 71.6893
ENERGY: 1500000 2.9115 2.6460 4.1530 0.0000 -10829.0326 1534.2335 0.0000 0.0000 1778.2018 -7506.8867 301.5948 -9285.0885 -7488.6195 299.8989 432.7065 473.7180 30719.6430 -30.7444 16.3042
TCL: Running FEP window  20: Lambda1 0.049999999999999684 Lambda2 0.0    [dLambda -0.049999999999999684]
TCL: Setting parameter firsttimestep to 0
TCL: Setting parameter alchLambda to 0.049999999999999684
Info: NONBONDED TABLE R-SQUARED SPACING: 0.0625
Info: NONBONDED TABLE SIZE: 705 POINTS
TCL: Setting parameter alchLambda2 to 0.0
Info: NONBONDED TABLE R-SQUARED SPACING: 0.0625
Info: NONBONDED TABLE SIZE: 705 POINTS
TCL: Running for 1500000 steps
ETITLE: TS BOND ANGLE DIHED IMPRP ELECT VDW BOUNDARY MISC KINETIC TOTAL TEMP POTENTIAL TOTALAVG TEMPAVG PRESSURE GPRESSURE VOLUME PRESSAVG GPRESSAVG
ENERGY: 0 2.9115 2.6460 4.1530 0.0000 -10829.0327 1533.3904 0.0000 0.0000 1777.3153 -7508.6164 301.4445 -9285.9317 -7508.6164 301.4445 380.2408 465.6912 30719.6430 380.2408 465.6912
ENERGY: 300000 5.0742 2.9931 6.8562 0.0000 -10609.9357 1382.0787 0.0000 0.0000 1754.2008 -7458.7328 297.5241 -9212.9336 -7493.4908 297.9968 -846.3362 -745.9084 31210.0485 -177.7258 -108.2306
ENERGY: 600000 4.3110 2.2315 8.7856 0.0000 -10783.9014 1471.9911 0.0000 0.0000 1743.7111 -7552.8712 295.7450 -9296.5823 -7511.8859 296.7242 -59.7154 -26.8405 30328.8168 -68.1849 -14.5176
ENERGY: 900000 4.3535 1.8397 5.9539 0.0000 -10757.5229 1473.3239 0.0000 0.0000 1763.6169 -7508.4351 299.1211 -9272.0520 -7517.1371 297.6264 13.0594 86.8213 30323.7910 -71.1434 2.3695
ENERGY: 1200000 7.9942 3.7008 6.2476 0.0000 -10651.8586 1415.4862 0.0000 0.0000 1740.1847 -7478.2450 295.1469 -9218.4297 -7515.3433 297.2718 -544.3082 -478.3600 30796.0843 -137.3489 -71.9179
ENERGY: 1500000 2.3230 2.7675 6.7792 0.0000 -10820.8828 1479.8860 0.0000 0.0000 1802.2930 -7526.8341 305.6809 -9329.1271 -7510.9565 298.4500 149.1762 209.7630 30079.4955 -122.3725 -55.9482
TCL: Exiting due to exit command.
