Info: SIMULATION PARAMETERS:
Info: TIMESTEP               2
Info: NUMBER OF STEPS        0
Info: STEPS PER CYCLE        10
Info: PERIODIC CELL BASIS 1  31.4744 0 0
Info: PERIODIC CELL BASIS 2  0 30.4299 0
Info: PERIODIC CELL BASIS 3  0 0 32.1521
Info: PERIODIC CELL CENTER   0 0 0
Info: WRAPPING WATERS AROUND PERIODIC BOUNDARIES ON OUTPUT.
Info: WRAPPING ALL CLUSTERS AROUND PERIODIC BOUNDARIES ON OUTPUT.
Info: FIRST LDB TIMESTEP     50
Info: LAST LDB TIMESTEP     -1
Info: HOM BACKGROUND SCALING 1
Info: PME BACKGROUND SCALING 1
Info: MIN ATOMS PER PATCH    40
Info: EMPTY PATCH LOAD       40 ATOMS
Info: VELOCITY FILE          mobley_8754702_equil.vel
Info: CENTER OF MASS MOVING INITIALLY? NO
Info: DIELECTRIC             1
Info: EXCLUDE                SCALED ONE-FOUR
Info: 1-4 ELECTROSTATICS SCALED BY 0.833333
Info: MODIFIED 1-4 VDW PARAMETERS WILL BE USED
Info: DCD FILENAME           mobley_8754702_prod.dcd
Info: DCD FREQUENCY          100000
Info: DCD FIRST STEP         100000
Info: DCD FILE WILL CONTAIN UNIT CELL DATA
Info: XST FILENAME           mobley_8754702_prod.xst
Info: XST FREQUENCY          100000
Info: NO VELOCITY DCD OUTPUT
Info: NO FORCE DCD OUTPUT
Info: OUTPUT FILENAME        mobley_8754702_prod
Info: BINARY OUTPUT FILES WILL BE USED
Info: RESTART FILENAME       mobley_8754702_prod.restart
Info: RESTART FREQUENCY      100000
Info: BINARY RESTART FILES WILL BE USED
Info: CUTOFF                 9
Info: PAIRLIST DISTANCE      11
Info: PAIRLIST SHRINK RATE   0.01
Info: PAIRLIST GROW RATE     0.01
Info: PAIRLIST TRIGGER       0.3
Info: PAIRLISTS PER CYCLE    2
Info: PAIRLISTS ENABLED
Info: MARGIN                 2
Info: HYDROGEN GROUP CUTOFF  2.5
Info: PATCH DIMENSION        15.5
Info: ENERGY OUTPUT STEPS    100000
Info: ENERGY EVALUATION STEPS    100000
Info: OUTPUT ENERGY PRECISION 4
Info: CROSSTERM ENERGY INCLUDED IN DIHEDRAL
Info: TIMING OUTPUT STEPS    1000000
Info: PRESSURE OUTPUT STEPS  100000
Info: ALCHEMICAL FEP ON
Info: FEP CURRENT LAMBDA VALUE     1
Info: FEP COMPARISON LAMBDA VALUE  0.95
Info: FEP INTRA-ALCHEMICAL NON-BONDED INTERACTIONS WILL BE RETAINED
Info: FEP INTRA-ALCHEMICAL BONDED INTERACTIONS WILL BE RETAINED
Info: FEP VDW SHIFTING COEFFICIENT 5
Info: FEP ELEC. ACTIVE FOR ANNIHILATED PARTICLES BETWEEN LAMBDA = 0 AND LAMBDA = 0.5
Info: FEP ELEC. ACTIVE FOR EXNIHILATED PARTICLES BETWEEN LAMBDA = 0.5 AND LAMBDA = 1
Info: FEP VDW ACTIVE FOR ANNIHILATED PARTICLES BETWEEN LAMBDA = 0 AND LAMBDA = 1
Info: FEP VDW ACTIVE FOR EXNIHILATED PARTICLES BETWEEN LAMBDA = 0 AND LAMBDA = 1
Info: FEP BOND ACTIVE FOR ANNIHILATED PARTICLES BETWEEN LAMBDA = 1 AND LAMBDA = 1
Info: FEP BOND ACTIVE FOR EXNIHILATED PARTICLES BETWEEN LAMBDA = 0 AND LAMBDA = 0
Info: LANGEVIN DYNAMICS ACTIVE
Info: LANGEVIN TEMPERATURE   300
Info: LANGEVIN USING BBK INTEGRATOR
Info: LANGEVIN DAMPING COEFFICIENT IS 1 INVERSE PS
Info: LANGEVIN DYNAMICS APPLIED TO HYDROGENS
Info: LANGEVIN PISTON PRESSURE CONTROL ACTIVE
Info:        TARGET PRESSURE IS 1.01325 BAR
Info:     OSCILLATION PERIOD IS 50 FS
Info:             DECAY TIME IS 25 FS
Info:     PISTON TEMPERATURE IS 300 K
Info:       PRESSURE CONTROL IS GROUP-BASED
Info:    INITIAL STRAIN RATE IS -0.000695667 -0.000695667 -0.000695667
Info:       CELL FLUCTUATION IS ISOTROPIC
Info: PARTICLE MESH EWALD (PME) ACTIVE
Info: PME TOLERANCE               1e-06
Info: PME EWALD COEFFICIENT       0.348832
Info: PME INTERPOLATION ORDER     4
Info: PME GRID DIMENSIONS         32 32 36
Info: PME MAXIMUM GRID SPACING    1
Info: PME CALCULATION WILL BE PERFORMED ON GPU
Info: FULL ELECTROSTATIC EVALUATION FREQUENCY      2
Info: USING VERLET I (r-RESPA) MTS SCHEME.
Info: C1 SPLITTING OF LONG RANGE ELECTROSTATICS
Info: PLACING ATOMS IN PATCHES BY HYDROGEN GROUPS
Info: RIGID BONDS TO HYDROGEN : ALL
Info:         ERROR TOLERANCE : 1e-08
Info:          MAX ITERATIONS : 100
Info: RIGID WATER USING SETTLE ALGORITHM
Info: RANDOM NUMBER SEED     1743903583
Info: USE HYDROGEN BONDS?    NO
Info: Using AMBER format force field!
Info: AMBER PARM FILE        mobley_8754702.prmtop
Info: COORDINATE PDB         mobley_8754702.pdb
Info: Exclusions will be read from PARM file!
Info: SCNB (VDW SCALING)     2
Info: USING ARITHMETIC MEAN TO COMBINE L-J SIGMA PARAMETERS
Info: BINARY COORDINATES     mobley_8754702_equil.coor
Info: SUMMARY OF PARAMETERS:
Info: 9 BONDS
Info: 11 ANGLES
Info:   11 HARMONIC
Info:   0 COSINE-BASED
Info: 11 DIHEDRAL
Info: 0 IMPROPER
Info: 0 CROSSTERM
Info: 0 VDW
Info: 45 VDW_PAIRS
Info: 0 NBTHOLE_PAIRS
Info: To read alchdata from file: mobley_8754702.pdb
Info: To read alchflag data from column: 5
Info: STRUCTURE SUMMARY:
Info: 2981 ATOMS
Info: 2980 BONDS
Info: 22 ANGLES
Info: 28 DIHEDRALS
Info: 0 IMPROPERS
Info: 0 CROSSTERMS
Info: 3025 EXCLUSIONS
Info: 2975 RIGID BONDS
Info: ALCH: 0 ATOMS TO DISAPPEAR IN FINAL STATE
Info: ALCH: 14 ATOMS TO APPEAR IN FINAL STATE
Info: 5968 DEGREES OF FREEDOM
Info: 995 HYDROGEN GROUPS
Info: 4 ATOMS IN LARGEST HYDROGEN GROUP
Info: 995 MIGRATION GROUPS
Info: 4 ATOMS IN LARGEST MIGRATION GROUP
Info: TOTAL MASS = 17905.9 amu
Info: TOTAL CHARGE = -0.000100043 e
Info: MASS DENSITY = 0.96558 g/cm^3
Info: ATOM DENSITY = 0.0968042 atoms/A^3
Info: ADDED 0 IMPLICIT EXCLUSIONS
Info: NONBONDED TABLE R-SQUARED SPACING: 0.0625
Info: NONBONDED TABLE SIZE: 705 POINTS
Info: REMOVING COM VELOCITY 0.135905 -0.127628 0.132203
Info: Use 3D box decompostion in PME FFT.
Info: Updated CUDA force table with 4096 elements.
Info: Updated CUDA LJ table with 9 x 9 elements.
Info: Found 17 unique exclusion lists needing 36 bytes
TCL: Running for 1500000 steps
ETITLE: TS BOND ANGLE DIHED IMPRP ELECT VDW BOUNDARY MISC KINETIC TOTAL TEMP POTENTIAL TOTALAVG TEMPAVG PRESSURE GPRESSURE VOLUME PRESSAVG GPRESSAVG
ENERGY: 0 0.5024 3.5659 1.9237 0.0000 -10638.1958 1427.1803 0.0000 0.0000 1745.9687 -7459.0548 294.4408 -9205.0235 -7459.0548 294.4408 78.5849 152.0877 30794.1112 78.5849 152.0877
ENERGY: 300000 4.3288 3.0566 2.9587 0.0000 -10776.8897 1459.6597 0.0000 0.0000 1810.0359 -7496.8500 305.2451 -9306.8860 -7521.9256 302.7375 78.7990 146.4857 30720.4447 -135.8521 -48.9896
ENERGY: 600000 3.6787 5.9292 3.3521 0.0000 -10781.8096 1439.7508 0.0000 0.0000 1805.5667 -7523.5322 304.4914 -9329.0989 -7550.9164 301.5843 -329.7469 -256.5067 31234.9833 -164.7638 -84.7367
ENERGY: 900000 3.3257 5.9274 3.8671 0.0000 -10788.0544 1349.4894 0.0000 0.0000 1813.4636 -7611.9812 305.8232 -9425.4448 -7566.4737 302.9384 -1191.7902 -1108.3071 30869.0130 -197.7675 -123.6191
ENERGY: 1200000 1.0241 10.2835 3.5991 0.0000 -10783.2562 1435.2428 0.0000 0.0000 1801.1024 -7532.0042 303.7386 -9333.1066 -7572.2933 301.4841 -37.4493 1.0991 30543.3636 -115.5604 -51.8638
ENERGY: 1500000 0.6692 3.9678 3.6815 0.0000 -10902.3397 1508.4785 0.0000 0.0000 1801.2076 -7584.3350 303.7563 -9385.5426 -7568.1550 302.0900 605.8541 665.6273 30409.2173 -92.3668 -28.8312
TCL: Running FEP window   2: Lambda1 0.95   Lambda2 0.8999999999999999 [dLambda -0.050000000000000044]
TCL: Setting parameter firsttimestep to 0
TCL: Setting parameter alchLambda to 0.95
Info: NONBONDED TABLE R-SQUARED SPACING: 0.0625
Info: NONBONDED TABLE SIZE: 705 POINTS
TCL: Setting parameter alchLambda2 to 0.8999999999999999
Info: NONBONDED TABLE R-SQUARED SPACING: 0.0625
Info: NONBONDED TABLE SIZE: 705 POINTS
TCL: Running for 1500000 steps
ETITLE: TS BOND ANGLE DIHED IMPRP ELECT VDW BOUNDARY MISC KINETIC TOTAL TEMP POTENTIAL TOTALAVG TEMPAVG PRESSURE GPRESSURE VOLUME PRESSAVG GPRESSAVG
ENERGY: 0 0.6692 3.9678 3.6815 0.0000 -10901.4468 1508.5208 0.0000 0.0000 1800.2960 -7584.3113 303.6026 -9384.6074 -7584.3113 303.6026 567.5365 653.9800 30409.2173 567.5365 653.9800
ENERGY: 300000 1.2580 4.4864 2.4375 0.0000 -10820.9505 1477.5105 0.0000 0.0000 1754.2254 -7581.0327 295.8332 -9335.2582 -7569.3138 299.9711 110.2347 171.2826 30785.6063 40.4785 125.3603
ENERGY: 600000 0.4028 4.6317 1.5922 0.0000 -10931.8072 1559.5897 0.0000 0.0000 1782.7673 -7582.8235 300.6466 -9365.5908 -7569.8636 299.5852 592.6314 643.7476 30713.3825 23.3928 106.5864
ENERGY: 900000 1.3209 7.3585 3.4418 0.0000 -10890.9557 1466.8385 0.0000 0.0000 1751.6556 -7660.3405 295.3999 -9411.9961 -7580.1248 299.7865 39.5359 53.7782 30329.0503 29.1206 99.2352
ENERGY: 1200000 2.3834 6.8895 4.4890 0.0000 -10843.5678 1421.5657 0.0000 0.0000 1763.7219 -7644.5183 297.4347 -9408.2402 -7587.0215 298.5697 -570.5317 -515.7308 30709.4271 -133.5545 -67.8176
ENERGY: 1500000 1.6194 3.7722 4.4609 0.0000 -10667.5445 1365.7758 0.0000 0.0000 1767.2605 -7524.6558 298.0315 -9291.9162 -7584.0923 298.8420 -343.5040 -272.8915 30408.6197 -96.0437 -31.1708
TCL: Running FEP window   3: Lambda1 0.8999999999999999 Lambda2 0.8499999999999999 [dLambda -0.050000000000000044]
TCL: Setting parameter firsttimestep to 0
TCL: Setting parameter alchLambda to 0.8999999999999999
Info: NONBONDED TABLE R-SQUARED SPACING: 0.0625
Info: NONBONDED TABLE SIZE: 705 POINTS
TCL: Setting parameter alchLambda2 to 0.8499999999999999
Info: NONBONDED TABLE R-SQUARED SPACING: 0.0625
Info: NONBONDED TABLE SIZE: 705 POINTS
TCL: Running for 1500000 steps
ETITLE: TS BOND ANGLE DIHED IMPRP ELECT VDW BOUNDARY MISC KINETIC TOTAL TEMP POTENTIAL TOTALAVG TEMPAVG PRESSURE GPRESSURE VOLUME PRESSAVG GPRESSAVG
ENERGY: 0 1.6194 3.7722 4.4609 0.0000 -10666.5033 1364.8837 0.0000 0.0000 1766.3859 -7525.3812 297.8840 -9291.7671 -7525.3812 297.8840 -366.7372 -294.2071 30408.6197 -366.7372 -294.2071
ENERGY: 300000 1.4713 4.4561 2.8292 0.0000 -10844.8336 1427.2683 0.0000 0.0000 1707.2514 -7701.5573 287.9115 -9408.8086 -7574.6089 297.2680 -414.8625 -304.9605 30614.1905 -155.7372 -90.8756
ENERGY: 600000 1.8149 5.4491 4.9388 0.0000 -10695.6838 1393.0962 0.0000 0.0000 1794.7529 -7495.6319 302.6678 -9290.3847 -7562.1640 298.7049 -414.2171 -350.4584 30744.9876 -160.3912 -92.3745
ENERGY: 900000 2.6684 4.3484 3.6258 0.0000 -10877.9932 1459.4464 0.0000 0.0000 1798.7091 -7609.1951 303.3350 -9407.9042 -7576.4002 298.9418 24.8227 75.5312 30349.3233 -119.9400 -54.2874
ENERGY: 1200000 0.4948 2.8592 3.8755 0.0000 -10755.0286 1434.2749 0.0000 0.0000 1780.5775 -7532.9466 300.2773 -9313.5242 -7579.3825 298.5653 -83.3753 -59.9319 30898.7478 -137.4191 -74.3564
ENERGY: 1500000 2.5964 4.5030 3.6684 0.0000 -10674.7453 1360.9144 0.0000 0.0000 1795.7145 -7507.3487 302.8300 -9303.0632 -7578.7094 298.4060 -741.9256 -709.3365 31011.5296 -107.8572 -46.7703
TCL: Running FEP window   4: Lambda1 0.8499999999999999 Lambda2 0.7999999999999998 [dLambda -0.050000000000000044]
TCL: Setting parameter firsttimestep to 0
TCL: Setting parameter alchLambda to 0.8499999999999999
Info: NONBONDED TABLE R-SQUARED SPACING: 0.0625
Info: NONBONDED TABLE SIZE: 705 POINTS
TCL: Setting parameter alchLambda2 to 0.7999999999999998
Info: NONBONDED TABLE R-SQUARED SPACING: 0.0625
Info: NONBONDED TABLE SIZE: 705 POINTS
TCL: Running for 1500000 steps
ETITLE: TS BOND ANGLE DIHED IMPRP ELECT VDW BOUNDARY MISC KINETIC TOTAL TEMP POTENTIAL TOTALAVG TEMPAVG PRESSURE GPRESSURE VOLUME PRESSAVG GPRESSAVG
ENERGY: 0 2.5964 4.5030 3.6684 0.0000 -10673.3610 1361.0694 0.0000 0.0000 1794.7896 -7506.7342 302.6740 -9301.5238 -7506.7342 302.6740 -800.5631 -710.2850 31011.5296 -800.5631 -710.2850
ENERGY: 300000 1.5579 7.6085 3.3304 0.0000 -10850.4966 1461.3267 0.0000 0.0000 1809.1324 -7567.5408 305.0928 -9376.6732 -7586.5112 298.8581 36.1675 94.4782 30790.8521 -516.6250 -454.7630
ENERGY: 600000 1.0327 7.4309 3.3258 0.0000 -10795.5819 1438.9708 0.0000 0.0000 1788.1740 -7556.6477 301.5583 -9344.8216 -7589.2710 299.5412 -239.9411 -164.5437 30790.9725 -316.0911 -250.1700
ENERGY: 900000 2.2152 4.9450 3.5242 0.0000 -10846.2789 1448.9211 0.0000 0.0000 1764.9714 -7621.7020 297.6454 -9386.6734 -7583.7797 299.0524 -223.9969 -139.9496 30575.4453 -197.1734 -131.7575
ENERGY: 1200000 1.2506 6.0403 5.6656 0.0000 -10702.8043 1371.6218 0.0000 0.0000 1802.4306 -7515.7954 303.9626 -9318.2259 -7574.7779 299.7435 -692.6584 -588.4674 31065.7784 -138.7211 -65.7298
ENERGY: 1500000 1.0753 7.8605 2.6307 0.0000 -10787.9859 1435.4311 0.0000 0.0000 1823.7578 -7517.2304 307.5592 -9340.9882 -7576.8417 299.6869 -88.6774 -24.6833 30625.4262 -184.7123 -114.0188
TCL: Running FEP window   5: Lambda1 0.7999999999999998 Lambda2 0.7499999999999998 [dLambda -0.050000000000000044]
TCL: Setting parameter firsttimestep to 0
TCL: Setting parameter alchLambda to 0.7999999999999998
Info: NONBONDED TABLE R-SQUARED SPACING: 0.0625
Info: NONBONDED TABLE SIZE: 705 POINTS
TCL: Setting parameter alchLambda2 to 0.7499999999999998
Info: NONBONDED TABLE R-SQUARED SPACING: 0.0625
Info: NONBONDED TABLE SIZE: 705 POINTS
TCL: Running for 1500000 steps
ETITLE: TS BOND ANGLE DIHED IMPRP ELECT VDW BOUNDARY MISC KINETIC TOTAL TEMP POTENTIAL TOTALAVG TEMPAVG PRESSURE GPRESSURE VOLUME PRESSAVG GPRESSAVG
ENERGY: 0 1.0753 7.8605 2.6307 0.0000 -10785.7388 1434.3990 0.0000 0.0000 1822.8695 -7516.9037 307.4094 -9339.7733 -7516.9037 307.4094 -129.5262 -38.5307 30625.4262 -129.5262 -38.5307
ENERGY: 300000 0.3502 6.5532 3.9113 0.0000 -10674.6095 1311.4212 0.0000 0.0000 1779.0666 -7573.3070 300.0225 -9352.3736 -7532.7162 303.0144 -1160.4498 -1071.5074 30978.8524 -499.2289 -409.1763
ENERGY: 600000 3.0729 7.7026 4.9695 0.0000 -10875.4057 1450.4067 0.0000 0.0000 1763.3340 -7645.9199 297.3693 -9409.2539 -7557.3381 300.1696 -152.5481 -90.4328 30616.7687 -266.3491 -167.1517
ENERGY: 900000 1.1135 7.8363 2.2916 0.0000 -10816.5712 1393.3379 0.0000 0.0000 1782.6276 -7629.3643 300.6230 -9411.9919 -7570.3370 299.8139 -697.8451 -639.1590 30790.9916 -279.2587 -189.6366
ENERGY: 1200000 2.2884 6.6269 3.6663 0.0000 -10750.1515 1397.1028 0.0000 0.0000 1775.4559 -7565.0112 299.4136 -9340.4671 -7568.9315 300.6550 -468.0853 -418.4637 31021.9353 -274.3724 -189.9596
ENERGY: 1500000 1.7963 2.6124 1.2524 0.0000 -10940.1254 1524.5282 0.0000 0.0000 1782.5112 -7627.4249 300.6034 -9409.9361 -7568.9578 300.1824 337.3549 390.5415 30625.6294 -197.0155 -120.2394
TCL: Running FEP window   6: Lambda1 0.7499999999999998 Lambda2 0.6999999999999997 [dLambda -0.050000000000000044]
TCL: Setting parameter firsttimestep to 0
TCL: Setting parameter alchLambda to 0.7499999999999998
Info: NONBONDED TABLE R-SQUARED SPACING: 0.0625
Info: NONBONDED TABLE SIZE: 705 POINTS
TCL: Setting parameter alchLambda2 to 0.6999999999999997
Info: NONBONDED TABLE R-SQUARED SPACING: 0.0625
Info: NONBONDED TABLE SIZE: 705 POINTS
TCL: Running for 1500000 steps
ETITLE: TS BOND ANGLE DIHED IMPRP ELECT VDW BOUNDARY MISC KINETIC TOTAL TEMP POTENTIAL TOTALAVG TEMPAVG PRESSURE GPRESSURE VOLUME PRESSAVG GPRESSAVG
ENERGY: 0 1.7964 2.6124 1.2524 0.0000 -10939.0804 1524.4977 0.0000 0.0000 1781.6140 -7627.3076 300.4521 -9408.9215 -7627.3076 300.4521 302.2873 385.2914 30625.6294 302.2873 385.2914
ENERGY: 300000 2.5879 4.6292 2.9554 0.0000 -10875.9415 1458.4066 0.0000 0.0000 1755.9699 -7651.3926 296.1274 -9407.3624 -7632.7032 297.3022 -195.0922 -96.6612 30398.6181 -75.3401 11.7342
ENERGY: 600000 0.1981 6.1149 5.1864 0.0000 -10895.0726 1535.0439 0.0000 0.0000 1783.8417 -7564.6876 300.8277 -9348.5293 -7594.1477 299.5797 575.5896 591.8954 30850.5993 -6.7497 57.9532
ENERGY: 900000 1.4740 7.0988 2.4457 0.0000 -10932.5301 1484.9206 0.0000 0.0000 1762.7159 -7673.8752 297.2651 -9436.5911 -7591.7322 300.1438 -256.6616 -122.8448 30659.6847 -118.3144 -55.8784
ENERGY: 1200000 3.2499 3.8484 2.8641 0.0000 -10643.3598 1344.7061 0.0000 0.0000 1733.6165 -7555.0749 292.3577 -9288.6914 -7579.8188 299.4301 -544.9366 -471.4339 30604.3023 -194.7968 -133.8872
ENERGY: 1500000 1.3195 3.5431 4.6913 0.0000 -10794.8878 1455.6520 0.0000 0.0000 1760.3486 -7569.3334 296.8659 -9329.6819 -7571.3204 300.1837 247.3266 309.1898 30191.1727 -95.4598 -33.5323
TCL: Running FEP window   7: Lambda1 0.6999999999999997 Lambda2 0.6499999999999997 [dLambda -0.050000000000000044]
TCL: Setting parameter firsttimestep to 0
TCL: Setting parameter alchLambda to 0.6999999999999997
Info: NONBONDED TABLE R-SQUARED SPACING: 0.0625
Info: NONBONDED TABLE SIZE: 705 POINTS
TCL: Setting parameter alchLambda2 to 0.6499999999999997
Info: NONBONDED TABLE R-SQUARED SPACING: 0.0625
Info: NONBONDED TABLE SIZE: 705 POINTS
TCL: Running for 1500000 steps
ETITLE: TS BOND ANGLE DIHED IMPRP ELECT VDW BOUNDARY MISC KINETIC TOTAL TEMP POTENTIAL TOTALAVG TEMPAVG PRESSURE GPRESSURE VOLUME PRESSAVG GPRESSAVG
ENERGY: 0 1.3195 3.5431 4.6913 0.0000 -10793.4525 1454.0566 0.0000 0.0000 1759.4441 -7570.3979 296.7133 -9329.8420 -7570.3979 296.7133 202.7491 285.0733 30191.1727 202.7491 285.0733
ENERGY: 300000 2.4833 5.8970 3.7590 0.0000 -10814.7422 1526.8062 0.0000 0.0000 1816.9270 -7458.8697 306.4073 -9275.7968 -7524.2863 303.8878 701.6088 798.4320 31127.1711 446.5423 513.3059
ENERGY: 600000 4.3562 5.9948 2.6713 0.0000 -10871.1232 1526.6968 0.0000 0.0000 1794.5650 -7536.8391 302.6361 -9331.4041 -7536.3237 299.9443 444.3302 494.1120 30773.6358 220.6798 285.6801
ENERGY: 900000 1.6912 7.2276 2.9376 0.0000 -10818.4358 1477.4646 0.0000 0.0000 1771.6988 -7557.4161 298.7800 -9329.1149 -7552.5407 298.7316 478.7760 492.0071 30290.2730 113.8389 170.3643
ENERGY: 1200000 2.6461 4.8578 2.1714 0.0000 -10800.3404 1428.3782 0.0000 0.0000 1784.0844 -7578.2024 300.8687 -9362.2868 -7552.9551 299.5372 -214.5395 -149.4063 30654.4114 136.2197 191.4319
ENERGY: 1500000 1.6413 7.4720 3.6750 0.0000 -10652.9875 1327.3732 0.0000 0.0000 1779.5612 -7533.2648 300.1059 -9312.8260 -7561.5048 298.9114 -888.9249 -909.2846 31121.4472 51.5465 103.9440
TCL: Running FEP window   8: Lambda1 0.6499999999999997 Lambda2 0.5999999999999996 [dLambda -0.050000000000000044]
TCL: Setting parameter firsttimestep to 0
TCL: Setting parameter alchLambda to 0.6499999999999997
Info: NONBONDED TABLE R-SQUARED SPACING: 0.0625
Info: NONBONDED TABLE SIZE: 705 POINTS
TCL: Setting parameter alchLambda2 to 0.5999999999999996
Info: NONBONDED TABLE R-SQUARED SPACING: 0.0625
Info: NONBONDED TABLE SIZE: 705 POINTS
TCL: Running for 1500000 steps
ETITLE: TS BOND ANGLE DIHED IMPRP ELECT VDW BOUNDARY MISC KINETIC TOTAL TEMP POTENTIAL TOTALAVG TEMPAVG PRESSURE GPRESSURE VOLUME PRESSAVG GPRESSAVG
ENERGY: 0 1.6413 7.4720 3.6750 0.0000 -10652.5249 1327.8271 0.0000 0.0000 1778.6652 -7533.2443 299.9548 -9311.9094 -7533.2443 299.9548 -970.9147 -910.5614 31121.4472 -970.9147 -910.5614
ENERGY: 300000 2.8059 4.3852 2.6615 0.0000 -10873.8016 1445.9202 0.0000 0.0000 1746.6298 -7671.3990 294.5523 -9418.0288 -7625.1969 297.0558 -153.0114 -139.8838 30529.3556 135.4471 171.2978
ENERGY: 600000 0.3716 4.5312 5.2313 0.0000 -10817.3525 1534.9201 0.0000 0.0000 1791.6999 -7480.5983 302.1529 -9272.2982 -7574.9464 298.9721 593.8768 669.4526 31113.6071 196.4874 242.6286
ENERGY: 900000 0.8904 6.2510 4.0472 0.0000 -10824.7232 1532.5904 0.0000 0.0000 1772.1759 -7508.7684 298.8604 -9280.9442 -7567.6345 299.1844 949.0629 1046.8319 30445.6689 189.2199 248.4860
ENERGY: 1200000 2.6418 4.2833 4.5696 0.0000 -10727.8889 1363.4863 0.0000 0.0000 1732.5800 -7620.3280 292.1830 -9352.9080 -7557.3824 298.8710 -579.9735 -516.4639 30352.1301 128.2819 191.4166
ENERGY: 1500000 0.2201 6.6622 1.8333 0.0000 -10643.2319 1357.5921 0.0000 0.0000 1773.8542 -7503.0700 299.1434 -9276.9242 -7554.8563 299.0462 -821.8952 -715.8665 31043.7009 -13.4216 51.5222
TCL: Running FEP window   9: Lambda1 0.5999999999999996 Lambda2 0.5499999999999996 [dLambda -0.050000000000000044]
TCL: Setting parameter firsttimestep to 0
TCL: Setting parameter alchLambda to 0.5999999999999996
Info: NONBONDED TABLE R-SQUARED SPACING: 0.0625
Info: NONBONDED TABLE SIZE: 705 POINTS
TCL: Setting parameter alchLambda2 to 0.5499999999999996
Info: NONBONDED TABLE R-SQUARED SPACING: 0.0625
Info: NONBONDED TABLE SIZE: 705 POINTS
TCL: Running for 1500000 steps
ETITLE: TS BOND ANGLE DIHED IMPRP ELECT VDW BOUNDARY MISC KINETIC TOTAL TEMP POTENTIAL TOTALAVG TEMPAVG PRESSURE GPRESSURE VOLUME PRESSAVG GPRESSAVG
ENERGY: 0 0.2201 6.6622 1.8333 0.0000 -10642.7772 1358.1770 0.0000 0.0000 1772.9532 -7502.9314 298.9915 -9275.8846 -7502.9314 298.9915 -801.5828 -712.4515 31043.7009 -801.5828 -712.4515
ENERGY: 300000 0.7770 5.3225 4.8652 0.0000 -10800.7966 1426.3709 0.0000 0.0000 1786.7246 -7576.7363 301.3139 -9363.4609 -7528.9101 300.7369 -313.3920 -302.5768 30830.6124 -255.8060 -190.7387
ENERGY: 600000 1.5916 7.1930 3.8097 0.0000 -10704.3058 1402.7421 0.0000 0.0000 1756.4349 -7532.5345 296.2058 -9288.9694 -7536.0339 300.5437 -532.4737 -449.4363 31214.4934 -231.0280 -168.5790
ENERGY: 900000 1.7043 6.2271 4.9610 0.0000 -10790.0666 1380.3576 0.0000 0.0000 1751.0071 -7645.8095 295.2905 -9396.8166 -7561.7212 298.9193 -556.7322 -505.9675 30268.8608 -126.3086 -73.7686
ENERGY: 1200000 3.1366 5.2592 1.8918 0.0000 -10747.8309 1430.5675 0.0000 0.0000 1752.6440 -7554.3317 295.5666 -9306.9757 -7551.1394 299.0892 -160.3381 -77.0636 30637.8048 -161.7079 -98.9174
ENERGY: 1500000 1.0652 5.9118 4.2011 0.0000 -10810.4880 1460.4856 0.0000 0.0000 1759.1463 -7579.6779 296.6631 -9338.8242 -7555.4875 299.5863 -83.7402 18.0524 30585.1879 -226.9350 -160.2761
TCL: Running FEP window  10: Lambda1 0.5499999999999996 Lambda2 0.4999999999999996 [dLambda -0.04999999999999999]
TCL: Setting parameter firsttimestep to 0
TCL: Setting parameter alchLambda to 0.5499999999999996
Info: NONBONDED TABLE R-SQUARED SPACING: 0.0625
Info: NONBONDED TABLE SIZE: 705 POINTS
TCL: Setting parameter alchLambda2 to 0.4999999999999996
Info: NONBONDED TABLE R-SQUARED SPACING: 0.0625
Info: NONBONDED TABLE SIZE: 705 POINTS
TCL: Running for 1500000 steps
ETITLE: TS BOND ANGLE DIHED IMPRP ELECT VDW BOUNDARY MISC KINETIC TOTAL TEMP POTENTIAL TOTALAVG TEMPAVG PRESSURE GPRESSURE VOLUME PRESSAVG GPRESSAVG
ENERGY: 0 1.0652 5.9118 4.2011 0.0000 -10809.6589 1460.0008 0.0000 0.0000 1758.2192 -7580.2608 296.5068 -9338.4800 -7580.2608 296.5068 -98.2432 8.8181 30585.1879 -98.2432 8.8181
ENERGY: 300000 1.6941 3.8642 3.9753 0.0000 -10796.0562 1419.9370 0.0000 0.0000 1770.4299 -7596.1557 298.5660 -9366.5856 -7567.5606 299.5301 -315.2918 -312.2289 30438.0316 -21.5509 36.2510
ENERGY: 600000 1.8411 6.5162 3.6574 0.0000 -10798.5731 1447.7843 0.0000 0.0000 1749.0732 -7589.7009 294.9644 -9338.7741 -7569.0943 298.9420 111.8114 130.7242 30563.0389 17.7691 75.7278
ENERGY: 900000 1.1745 3.7892 3.0440 0.0000 -10915.3282 1527.3177 0.0000 0.0000 1803.1589 -7576.8439 304.0854 -9380.0028 -7563.5951 300.8992 711.8804 660.5441 30373.0540 121.1728 166.5456
ENERGY: 1200000 1.1073 5.3532 3.5211 0.0000 -10821.2768 1469.8217 0.0000 0.0000 1804.7554 -7536.7181 304.3546 -9341.4735 -7574.8414 299.7927 138.3178 100.0261 30892.0328 -10.5016 39.6096
ENERGY: 1500000 0.3312 4.9567 2.9456 0.0000 -10771.2447 1422.6236 0.0000 0.0000 1780.6711 -7559.7165 300.2931 -9340.3876 -7567.6453 299.5198 -353.0966 -268.1639 30921.3527 -24.8062 33.6158
TCL: Running FEP window  11: Lambda1 0.4999999999999996 Lambda2 0.4499999999999996 [dLambda -0.04999999999999999]
TCL: Setting parameter firsttimestep to 0
TCL: Setting parameter alchLambda to 0.4999999999999996
Info: NONBONDED TABLE R-SQUARED SPACING: 0.0625
Info: NONBONDED TABLE SIZE: 705 POINTS
TCL: Setting parameter alchLambda2 to 0.4499999999999996
Info: NONBONDED TABLE R-SQUARED SPACING: 0.0625
Info: NONBONDED TABLE SIZE: 705 POINTS
TCL: Running for 1500000 steps
ETITLE: TS BOND ANGLE DIHED IMPRP ELECT VDW BOUNDARY MISC KINETIC TOTAL TEMP POTENTIAL TOTALAVG TEMPAVG PRESSURE GPRESSURE VOLUME PRESSAVG GPRESSAVG
ENERGY: 0 0.3312 4.9567 2.9456 0.0000 -10770.9882 1422.6801 0.0000 0.0000 1779.7552 -7560.3194 300.1386 -9340.0745 -7560.3194 300.1386 -351.5607 -270.4092 30921.3527 -351.5607 -270.4092
ENERGY: 300000 1.7381 7.2835 1.8689 0.0000 -10875.7697 1475.3730 0.0000 0.0000 1735.7404 -7653.7659 292.7159 -9389.5063 -7595.5869 299.1359 37.9489 96.4691 30397.6324 57.7108 121.8885
ENERGY: 600000 1.1301 6.6258 6.1402 0.0000 -10770.4591 1437.4591 0.0000 0.0000 1775.1899 -7543.9140 299.3687 -9319.1039 -7591.1870 298.2376 -212.0099 -96.3498 31027.0781 43.6036 106.5586
ENERGY: 900000 0.7640 4.5168 4.1313 0.0000 -10931.7892 1532.0831 0.0000 0.0000 1811.1735 -7579.1205 305.4370 -9390.2940 -7582.2529 299.7953 445.2046 458.1725 30585.4048 105.2254 162.0149
ENERGY: 1200000 0.4796 6.4716 2.4681 0.0000 -10820.2801 1475.2549 0.0000 0.0000 1754.1206 -7581.4852 295.8156 -9335.6059 -7581.2343 298.9363 -88.5701 -10.6119 31237.6851 158.1611 215.0709
ENERGY: 1500000 2.5195 5.9115 2.9420 0.0000 -10748.4293 1384.0929 0.0000 0.0000 1734.7703 -7618.1931 292.5523 -9352.9634 -7582.6173 298.7130 -702.2808 -595.4748 30796.7341 94.9018 155.1710
TCL: Running FEP window  12: Lambda1 0.4499999999999996 Lambda2 0.39999999999999963 [dLambda -0.04999999999999999]
TCL: Setting parameter firsttimestep to 0
TCL: Setting parameter alchLambda to 0.4499999999999996
Info: NONBONDED TABLE R-SQUARED SPACING: 0.0625
Info: NONBONDED TABLE SIZE: 705 POINTS
TCL: Setting parameter alchLambda2 to 0.39999999999999963
Info: NONBONDED TABLE R-SQUARED SPACING: 0.0625
Info: NONBONDED TABLE SIZE: 705 POINTS
TCL: Running for 1500000 steps
ETITLE: TS BOND ANGLE DIHED IMPRP ELECT VDW BOUNDARY MISC KINETIC TOTAL TEMP POTENTIAL TOTALAVG TEMPAVG PRESSURE GPRESSURE VOLUME PRESSAVG GPRESSAVG
ENERGY: 0 2.5195 5.9115 2.9420 0.0000 -10748.4271 1384.0759 0.0000 0.0000 1733.8888 -7619.0893 292.4037 -9352.9782 -7619.0893 292.4037 -691.3968 -599.3112 30796.7341 -691.3968 -599.3112
ENERGY: 300000 1.7998 4.3329 2.9358 0.0000 -10841.9361 1497.8558 0.0000 0.0000 1788.1654 -7546.8464 301.5569 -9335.0118 -7596.9035 296.1228 558.4764 601.1184 30191.6098 -257.2404 -208.7201
ENERGY: 600000 1.0066 5.3059 2.5790 0.0000 -10763.9442 1402.8624 0.0000 0.0000 1781.6130 -7570.5772 300.4519 -9352.1903 -7577.4487 299.1887 -635.6510 -564.3863 31012.6910 -376.0860 -307.8911
ENERGY: 900000 0.8080 7.7705 2.7712 0.0000 -10766.3061 1475.2724 0.0000 0.0000 1714.9835 -7564.7004 289.2155 -9279.6839 -7580.4882 298.2078 289.6663 354.6330 30656.3007 -229.4196 -166.2393
ENERGY: 1200000 3.8923 6.5997 2.9599 0.0000 -10709.5038 1355.9674 0.0000 0.0000 1805.9346 -7534.1499 304.5535 -9340.0846 -7568.8483 299.7125 -838.5494 -775.7614 30613.3354 -167.4491 -107.1116
ENERGY: 1500000 1.2407 4.0720 3.0373 0.0000 -10753.3132 1413.3724 0.0000 0.0000 1774.8764 -7556.7145 299.3158 -9331.5908 -7570.4281 299.1941 -248.7339 -249.7255 30452.7558 -142.0755 -89.6846
TCL: Running FEP window  13: Lambda1 0.39999999999999963 Lambda2 0.34999999999999964 [dLambda -0.04999999999999999]
TCL: Setting parameter firsttimestep to 0
TCL: Setting parameter alchLambda to 0.39999999999999963
Info: NONBONDED TABLE R-SQUARED SPACING: 0.0625
Info: NONBONDED TABLE SIZE: 705 POINTS
TCL: Setting parameter alchLambda2 to 0.34999999999999964
Info: NONBONDED TABLE R-SQUARED SPACING: 0.0625
Info: NONBONDED TABLE SIZE: 705 POINTS
TCL: Running for 1500000 steps
ETITLE: TS BOND ANGLE DIHED IMPRP ELECT VDW BOUNDARY MISC KINETIC TOTAL TEMP POTENTIAL TOTALAVG TEMPAVG PRESSURE GPRESSURE VOLUME PRESSAVG GPRESSAVG
ENERGY: 0 1.2407 4.0720 3.0373 0.0000 -10753.3125 1413.4316 0.0000 0.0000 1773.9680 -7557.5630 299.1626 -9331.5310 -7557.5630 299.1626 -330.9807 -255.0897 30452.7558 -330.9807 -255.0897
ENERGY: 300000 1.1667 5.0586 3.4411 0.0000 -10874.9054 1497.6269 0.0000 0.0000 1733.5645 -7634.0476 292.3490 -9367.6121 -7530.4473 299.7681 81.5771 164.0597 30731.6224 -472.7729 -405.5065
ENERGY: 600000 1.1588 4.5010 2.9974 0.0000 -10987.9207 1613.1131 0.0000 0.0000 1782.9928 -7583.1576 300.6846 -9366.1504 -7549.6528 298.6403 1223.4651 1263.8027 30411.5006 -313.4636 -254.7227
ENERGY: 900000 0.9601 10.5228 3.3878 0.0000 -10848.4970 1479.9773 0.0000 0.0000 1779.9677 -7573.6813 300.1744 -9353.6490 -7556.4542 298.9711 223.8450 251.9516 30465.4881 -141.2806 -81.7294
ENERGY: 1200000 1.0929 5.4348 4.1656 0.0000 -10776.9440 1439.5022 0.0000 0.0000 1806.2256 -7520.5229 304.6026 -9326.7485 -7547.7010 299.7478 -87.3508 -69.8077 30681.9050 -167.7812 -106.6249
ENERGY: 1500000 0.9927 4.0351 3.3599 0.0000 -10854.3997 1463.9954 0.0000 0.0000 1778.6186 -7603.3980 299.9469 -9382.0166 -7557.2378 299.4443 51.6390 59.0235 30569.2559 -144.4473 -83.8413
TCL: Running FEP window  14: Lambda1 0.34999999999999964 Lambda2 0.29999999999999966 [dLambda -0.04999999999999999]
TCL: Setting parameter firsttimestep to 0
TCL: Setting parameter alchLambda to 0.34999999999999964
Info: NONBONDED TABLE R-SQUARED SPACING: 0.0625
Info: NONBONDED TABLE SIZE: 705 POINTS
TCL: Setting parameter alchLambda2 to 0.29999999999999966
Info: NONBONDED TABLE R-SQUARED SPACING: 0.0625
Info: NONBONDED TABLE SIZE: 705 POINTS
TCL: Running for 1500000 steps
ETITLE: TS BOND ANGLE DIHED IMPRP ELECT VDW BOUNDARY MISC KINETIC TOTAL TEMP POTENTIAL TOTALAVG TEMPAVG PRESSURE GPRESSURE VOLUME PRESSAVG GPRESSAVG
ENERGY: 0 0.9927 4.0351 3.3599 0.0000 -10854.3997 1464.1547 0.0000 0.0000 1777.7181 -7604.1392 299.7950 -9381.8572 -7604.1392 299.7950 -24.6797 55.7000 30569.2559 -24.6797 55.7000
ENERGY: 300000 2.9856 2.9968 4.8085 0.0000 -10837.7445 1475.0906 0.0000 0.0000 1768.8317 -7583.0312 298.2964 -9351.8629 -7568.7974 301.0788 9.3765 118.1070 30618.9265 -125.5822 -48.3235
ENERGY: 600000 2.9780 4.3135 2.8032 0.0000 -10777.8705 1431.5000 0.0000 0.0000 1768.8995 -7567.3763 298.3079 -9336.2758 -7560.8119 301.8650 -308.0470 -306.3252 31074.8829 120.9175 162.0893
ENERGY: 900000 2.5672 5.1837 3.1305 0.0000 -10838.5888 1423.9470 0.0000 0.0000 1757.3378 -7646.4227 296.3581 -9403.7605 -7568.4637 301.7736 -338.5151 -299.0377 30628.0554 135.2478 180.2170
ENERGY: 1200000 0.7243 4.0494 3.8725 0.0000 -10738.0022 1426.2335 0.0000 0.0000 1748.7962 -7554.3263 294.9177 -9303.1225 -7577.6887 300.4794 -84.4577 -18.5597 30496.7110 118.4792 168.0723
ENERGY: 1500000 2.0407 5.6048 3.1985 0.0000 -10643.8067 1383.4767 0.0000 0.0000 1769.7057 -7479.7803 298.4438 -9249.4860 -7565.0022 300.3382 -397.4687 -320.3657 31155.3345 111.5223 164.3089
TCL: Running FEP window  15: Lambda1 0.29999999999999966 Lambda2 0.24999999999999967 [dLambda -0.04999999999999999]
TCL: Setting parameter firsttimestep to 0
TCL: Setting parameter alchLambda to 0.29999999999999966
Info: NONBONDED TABLE R-SQUARED SPACING: 0.0625
Info: NONBONDED TABLE SIZE: 705 POINTS
TCL: Setting parameter alchLambda2 to 0.24999999999999967
Info: NONBONDED TABLE R-SQUARED SPACING: 0.0625
Info: NONBONDED TABLE SIZE: 705 POINTS
TCL: Running for 1500000 steps
ETITLE: TS BOND ANGLE DIHED IMPRP ELECT VDW BOUNDARY MISC KINETIC TOTAL TEMP POTENTIAL TOTALAVG TEMPAVG PRESSURE GPRESSURE VOLUME PRESSAVG GPRESSAVG
ENERGY: 0 2.0407 5.6048 3.1985 0.0000 -10643.8067 1383.7404 0.0000 0.0000 1768.8448 -7480.3775 298.2987 -9249.2223 -7480.3775 298.2987 -423.8261 -325.8531 31155.3345 -423.8261 -325.8531
ENERGY: 300000 0.2976 3.4239 2.6558 0.0000 -10685.6592 1397.7714 0.0000 0.0000 1802.2665 -7479.2439 303.9349 -9281.5105 -7539.2318 300.7776 -340.2056 -296.5407 30662.6063 -140.4696 -63.5674
ENERGY: 600000 2.9172 7.0299 4.0214 0.0000 -10822.4959 1520.7967 0.0000 0.0000 1774.0004 -7513.7303 299.1681 -9287.7307 -7533.5074 302.6963 366.1808 391.0227 31094.3742 -40.4532 29.1077
ENERGY: 900000 1.2689 6.2539 3.2312 0.0000 -10824.9613 1476.1942 0.0000 0.0000 1792.6707 -7545.3423 302.3167 -9338.0130 -7550.1500 301.5730 -101.1454 4.7334 30990.1643 -81.0101 -2.5253
ENERGY: 1200000 1.7053 6.3037 5.4476 0.0000 -10916.4314 1442.1144 0.0000 0.0000 1793.9331 -7666.9273 302.5296 -9460.8604 -7568.0280 301.0218 -261.0382 -170.4181 30219.8353 -258.1508 -183.4589
ENERGY: 1500000 2.8423 1.4281 4.8580 0.0000 -10776.2068 1461.4488 0.0000 0.0000 1829.1112 -7476.5184 308.4620 -9305.6296 -7569.0518 300.3544 313.6589 375.8166 30325.5748 -220.5761 -147.7357
TCL: Running FEP window  16: Lambda1 0.24999999999999967 Lambda2 0.19999999999999968 [dLambda -0.04999999999999999]
TCL: Setting parameter firsttimestep to 0
TCL: Setting parameter alchLambda to 0.24999999999999967
Info: NONBONDED TABLE R-SQUARED SPACING: 0.0625
Info: NONBONDED TABLE SIZE: 705 POINTS
TCL: Setting parameter alchLambda2 to 0.19999999999999968
Info: NONBONDED TABLE R-SQUARED SPACING: 0.0625
Info: NONBONDED TABLE SIZE: 705 POINTS
TCL: Running for 1500000 steps
ETITLE: TS BOND ANGLE DIHED IMPRP ELECT VDW BOUNDARY MISC KINETIC TOTAL TEMP POTENTIAL TOTALAVG TEMPAVG PRESSURE GPRESSURE VOLUME PRESSAVG GPRESSAVG
ENERGY: 0 2.8423 1.4281 4.8580 0.0000 -10776.2053 1461.3012 0.0000 0.0000 1828.1970 -7477.5787 308.3078 -9305.7757 -7477.5787 308.3078 288.0746 371.0015 30325.5748 288.0746 371.0015
ENERGY: 300000 1.4453 5.1601 2.6138 0.0000 -10886.7327 1522.0191 0.0000 0.0000 1801.6506 -7553.8439 303.8310 -9355.4944 -7538.5478 304.5511 929.3541 964.5090 30075.7273 102.3539 163.0807
ENERGY: 600000 2.2219 5.4497 3.0549 0.0000 -10845.1465 1459.6452 0.0000 0.0000 1798.0457 -7576.7291 303.2231 -9374.7748 -7537.5312 300.8243 126.5519 75.2971 30402.7451 26.1186 63.7507
ENERGY: 900000 1.0756 6.1475 3.1074 0.0000 -10841.6433 1530.1520 0.0000 0.0000 1760.9898 -7540.1709 296.9740 -9301.1607 -7538.7340 301.1036 626.6849 649.7458 30839.2270 45.5447 93.9278
ENERGY: 1200000 1.5613 6.7108 3.5713 0.0000 -10821.4066 1443.3884 0.0000 0.0000 1787.2058 -7578.9691 301.3951 -9366.1748 -7533.9166 301.4862 -2.2237 144.5453 30037.4347 -74.2116 -12.7280
ENERGY: 1500000 2.9019 4.1400 2.4662 0.0000 -10853.9200 1468.2947 0.0000 0.0000 1756.6477 -7619.4696 296.2417 -9376.1173 -7546.3941 300.7356 -322.2466 -267.2851 31072.6492 -72.5703 -11.0306
TCL: Running FEP window  17: Lambda1 0.19999999999999968 Lambda2 0.1499999999999997 [dLambda -0.04999999999999999]
TCL: Setting parameter firsttimestep to 0
TCL: Setting parameter alchLambda to 0.19999999999999968
Info: NONBONDED TABLE R-SQUARED SPACING: 0.0625
Info: NONBONDED TABLE SIZE: 705 POINTS
TCL: Setting parameter alchLambda2 to 0.1499999999999997
Info: NONBONDED TABLE R-SQUARED SPACING: 0.0625
Info: NONBONDED TABLE SIZE: 705 POINTS
TCL: Running for 1500000 steps
ETITLE: TS BOND ANGLE DIHED IMPRP ELECT VDW BOUNDARY MISC KINETIC TOTAL TEMP POTENTIAL TOTALAVG TEMPAVG PRESSURE GPRESSURE VOLUME PRESSAVG GPRESSAVG
ENERGY: 0 2.9019 4.1400 2.4662 0.0000 -10853.9199 1468.3644 0.0000 0.0000 1755.7597 -7620.2877 296.0920 -9376.0474 -7620.2877 296.0920 -355.9362 -267.0193 31072.6492 -355.9362 -267.0193
ENERGY: 300000 1.9163 10.0172 4.0668 0.0000 -10860.9498 1452.1010 0.0000 0.0000 1792.6977 -7600.1507 302.3212 -9392.8485 -7603.6239 299.0557 -345.7743 -239.5884 30701.2250 -343.8991 -261.6065
ENERGY: 600000 1.8819 9.7523 3.4294 0.0000 -10765.3453 1455.4006 0.0000 0.0000 1797.3844 -7497.4968 303.1116 -9294.8812 -7591.1994 301.0105 106.2710 176.5658 30603.0460 -223.5300 -138.1509
ENERGY: 900000 1.2243 4.9775 3.8453 0.0000 -10744.4630 1440.0522 0.0000 0.0000 1863.3351 -7431.0284 314.2335 -9294.3636 -7566.5431 302.1926 133.4760 181.7786 30529.3410 -174.4929 -95.0488
ENERGY: 1200000 1.9398 10.2745 4.9790 0.0000 -10770.2270 1418.8365 0.0000 0.0000 1785.9503 -7548.2468 301.1833 -9334.1972 -7562.3371 301.3306 -326.2079 -236.4590 30528.1181 -62.7431 7.9712
ENERGY: 1500000 1.8419 7.0541 2.5038 0.0000 -10852.9466 1461.8096 0.0000 0.0000 1785.3455 -7594.3918 301.0813 -9379.7373 -7572.0630 300.8966 -42.3461 41.3899 30585.6330 -27.4705 42.4983
TCL: Running FEP window  18: Lambda1 0.1499999999999997 Lambda2 0.09999999999999969 [dLambda -0.05 ]
TCL: Setting parameter firsttimestep to 0
TCL: Setting parameter alchLambda to 0.1499999999999997
Info: NONBONDED TABLE R-SQUARED SPACING: 0.0625
Info: NONBONDED TABLE SIZE: 705 POINTS
TCL: Setting parameter alchLambda2 to 0.09999999999999969
Info: NONBONDED TABLE R-SQUARED SPACING: 0.0625
Info: NONBONDED TABLE SIZE: 705 POINTS
TCL: Running for 1500000 steps
ETITLE: TS BOND ANGLE DIHED IMPRP ELECT VDW BOUNDARY MISC KINETIC TOTAL TEMP POTENTIAL TOTALAVG TEMPAVG PRESSURE GPRESSURE VOLUME PRESSAVG GPRESSAVG
ENERGY: 0 1.8419 7.0541 2.5038 0.0000 -10852.9469 1462.2157 0.0000 0.0000 1784.4858 -7594.8457 300.9364 -9379.3315 -7594.8457 300.9364 -36.0378 40.7314 30585.6330 -36.0378 40.7314
ENERGY: 300000 4.0197 4.4234 4.1769 0.0000 -10968.8064 1491.1433 0.0000 0.0000 1822.0630 -7642.9801 307.2734 -9465.0431 -7573.5573 303.0682 -147.6701 -107.9142 30582.6569 -277.9232 -204.8339
ENERGY: 600000 3.1419 6.0451 1.9636 0.0000 -10841.4138 1475.2196 0.0000 0.0000 1776.7310 -7578.3126 299.6286 -9355.0436 -7557.1195 301.6623 62.1278 82.4239 30717.5664 -145.2210 -84.4490
ENERGY: 900000 0.7259 4.0287 3.7335 0.0000 -10750.9838 1446.6256 0.0000 0.0000 1777.8107 -7518.0595 299.8107 -9295.8702 -7553.8177 300.5997 56.8557 112.2692 30519.8844 -206.2463 -143.6869
ENERGY: 1200000 0.6637 6.3959 2.8065 0.0000 -10604.6992 1358.6096 0.0000 0.0000 1726.6764 -7509.5471 291.1874 -9236.2235 -7544.8237 300.4025 -506.6584 -494.2616 30967.2789 -201.9365 -146.9231
ENERGY: 1500000 3.8835 6.9490 1.8690 0.0000 -10730.9294 1412.3404 0.0000 0.0000 1768.4916 -7537.3958 298.2391 -9305.8875 -7544.3123 300.6155 -425.9644 -409.8441 30820.0958 -141.6245 -82.3502
TCL: Running FEP window  19: Lambda1 0.09999999999999969 Lambda2 0.049999999999999684 [dLambda -0.05 ]
TCL: Setting parameter firsttimestep to 0
TCL: Setting parameter alchLambda to 0.09999999999999969
Info: NONBONDED TABLE R-SQUARED SPACING: 0.0625
Info: NONBONDED TABLE SIZE: 705 POINTS
TCL: Setting parameter alchLambda2 to 0.049999999999999684
Info: NONBONDED TABLE R-SQUARED SPACING: 0.0625
Info: NONBONDED TABLE SIZE: 705 POINTS
TCL: Running for 1500000 steps
ETITLE: TS BOND ANGLE DIHED IMPRP ELECT VDW BOUNDARY MISC KINETIC TOTAL TEMP POTENTIAL TOTALAVG TEMPAVG PRESSURE GPRESSURE VOLUME PRESSAVG GPRESSAVG
ENERGY: 0 3.8835 6.9490 1.8690 0.0000 -10730.9305 1412.5089 0.0000 0.0000 1767.6345 -7538.0856 298.0945 -9305.7201 -7538.0856 298.0945 -498.9904 -413.4022 30820.0958 -498.9904 -413.4022
ENERGY: 300000 0.3221 6.6969 2.3283 0.0000 -10878.9717 1528.8474 0.0000 0.0000 1841.2200 -7499.5570 310.5040 -9340.7769 -7544.6536 302.7147 651.7991 630.1781 30747.9374 9.3034 50.1178
ENERGY: 600000 2.5749 6.2106 4.4469 0.0000 -10816.3317 1476.2397 0.0000 0.0000 1741.1180 -7585.7416 293.6228 -9326.8595 -7555.2911 301.2889 64.6001 107.2492 30588.9453 91.9116 142.7933
ENERGY: 900000 0.9666 4.3063 3.4114 0.0000 -10741.8683 1416.4444 0.0000 0.0000 1735.5189 -7581.2207 292.6786 -9316.7396 -7556.0119 300.7054 -347.4904 -248.9602 30467.6690 8.0941 71.7525
ENERGY: 1200000 1.6071 3.3765 5.1588 0.0000 -10769.4871 1472.4196 0.0000 0.0000 1782.5275 -7504.3977 300.6061 -9286.9252 -7552.4624 301.2374 201.1894 213.1864 30694.8746 125.1491 179.4845
ENERGY: 1500000 1.5949 7.1928 1.7924 0.0000 -10699.6819 1396.2642 0.0000 0.0000 1800.8421 -7491.9956 303.6947 -9292.8376 -7551.4853 301.2275 -494.2421 -406.9113 30547.8115 100.2024 158.6649
TCL: Running FEP window  20: Lambda1 0.049999999999999684 Lambda2 0.0    [dLambda -0.049999999999999684]
TCL: Setting parameter firsttimestep to 0
TCL: Setting parameter alchLambda to 0.049999999999999684
Info: NONBONDED TABLE R-SQUARED SPACING: 0.0625
Info: NONBONDED TABLE SIZE: 705 POINTS
TCL: Setting parameter alchLambda2 to 0.0
Info: NONBONDED TABLE R-SQUARED SPACING: 0.0625
Info: NONBONDED TABLE SIZE: 705 POINTS
TCL: Running for 1500000 steps
ETITLE: TS BOND ANGLE DIHED IMPRP ELECT VDW BOUNDARY MISC KINETIC TOTAL TEMP POTENTIAL TOTALAVG TEMPAVG PRESSURE GPRESSURE VOLUME PRESSAVG GPRESSAVG
ENERGY: 0 1.5949 7.1928 1.7924 0.0000 -10699.6815 1395.7644 0.0000 0.0000 1799.9614 -7493.3755 303.5462 -9293.3369 -7493.3755 303.5462 -481.0772 -410.8638 30547.8115 -481.0772 -410.8638
ENERGY: 300000 1.5518 6.1242 4.9347 0.0000 -10817.0139 1439.0627 0.0000 0.0000 1814.1113 -7551.2292 305.9324 -9365.3405 -7533.6611 303.7032 -343.6381 -299.1217 30860.1919 -429.6878 -350.3399
ENERGY: 600000 0.9672 8.7813 2.7594 0.0000 -10828.6346 1472.5692 0.0000 0.0000 1799.3204 -7544.2370 303.4381 -9343.5574 -7544.4508 300.8868 -116.2827 17.6560 30785.7192 -372.4108 -276.7271
ENERGY: 900000 1.2708 7.0131 2.5544 0.0000 -10862.4733 1511.7085 0.0000 0.0000 1722.8700 -7617.0565 290.5455 -9339.9265 -7542.3493 300.9717 170.3446 219.3775 30741.8532 -273.9977 -190.4922
ENERGY: 1200000 4.0590 4.7321 4.1773 0.0000 -10797.8903 1470.8712 0.0000 0.0000 1748.0092 -7566.0415 294.7849 -9314.0507 -7552.7927 299.0325 66.7726 177.7650 30439.7645 -213.6241 -127.0964
ENERGY: 1500000 1.5436 3.4601 5.3074 0.0000 -10613.9923 1346.0360 0.0000 0.0000 1709.9570 -7547.6881 288.3678 -9257.6452 -7554.1623 298.0232 -883.3991 -864.9168 31269.7571 -243.2852 -161.9834
TCL: Exiting due to exit command.
