Info: SIMULATION PARAMETERS:
Info: TIMESTEP               2
Info: NUMBER OF STEPS        0
Info: STEPS PER CYCLE        10
Info: PERIODIC CELL BASIS 1  30.8459 0 0
Info: PERIODIC CELL BASIS 2  0 31.545 0
Info: PERIODIC CELL BASIS 3  0 0 30.8177
Info: PERIODIC CELL CENTER   0 0 0
Info: WRAPPING WATERS AROUND PERIODIC BOUNDARIES ON OUTPUT.
Info: WRAPPING ALL CLUSTERS AROUND PERIODIC BOUNDARIES ON OUTPUT.
Info: FIRST LDB TIMESTEP     50
Info: LAST LDB TIMESTEP     -1
Info: HOM BACKGROUND SCALING 1
Info: PME BACKGROUND SCALING 1
Info: MIN ATOMS PER PATCH    40
Info: EMPTY PATCH LOAD       40 ATOMS
Info: VELOCITY FILE          mobley_550662_equil.vel
Info: CENTER OF MASS MOVING INITIALLY? NO
Info: DIELECTRIC             1
Info: EXCLUDE                SCALED ONE-FOUR
Info: 1-4 ELECTROSTATICS SCALED BY 0.833333
Info: MODIFIED 1-4 VDW PARAMETERS WILL BE USED
Info: DCD FILENAME           mobley_550662_prod.dcd
Info: DCD FREQUENCY          100000
Info: DCD FIRST STEP         100000
Info: DCD FILE WILL CONTAIN UNIT CELL DATA
Info: XST FILENAME           mobley_550662_prod.xst
Info: XST FREQUENCY          100000
Info: NO VELOCITY DCD OUTPUT
Info: NO FORCE DCD OUTPUT
Info: OUTPUT FILENAME        mobley_550662_prod
Info: BINARY OUTPUT FILES WILL BE USED
Info: RESTART FILENAME       mobley_550662_prod.restart
Info: RESTART FREQUENCY      100000
Info: BINARY RESTART FILES WILL BE USED
Info: CUTOFF                 9
Info: PAIRLIST DISTANCE      11
Info: PAIRLIST SHRINK RATE   0.01
Info: PAIRLIST GROW RATE     0.01
Info: PAIRLIST TRIGGER       0.3
Info: PAIRLISTS PER CYCLE    2
Info: PAIRLISTS ENABLED
Info: MARGIN                 2
Info: HYDROGEN GROUP CUTOFF  2.5
Info: PATCH DIMENSION        15.5
Info: ENERGY OUTPUT STEPS    100000
Info: ENERGY EVALUATION STEPS    100000
Info: OUTPUT ENERGY PRECISION 4
Info: CROSSTERM ENERGY INCLUDED IN DIHEDRAL
Info: TIMING OUTPUT STEPS    1000000
Info: PRESSURE OUTPUT STEPS  100000
Info: ALCHEMICAL FEP ON
Info: FEP CURRENT LAMBDA VALUE     0
Info: FEP COMPARISON LAMBDA VALUE  0.05
Info: FEP INTRA-ALCHEMICAL NON-BONDED INTERACTIONS WILL BE RETAINED
Info: FEP INTRA-ALCHEMICAL BONDED INTERACTIONS WILL BE RETAINED
Info: FEP VDW SHIFTING COEFFICIENT 5
Info: FEP ELEC. ACTIVE FOR ANNIHILATED PARTICLES BETWEEN LAMBDA = 0 AND LAMBDA = 0.5
Info: FEP ELEC. ACTIVE FOR EXNIHILATED PARTICLES BETWEEN LAMBDA = 0.5 AND LAMBDA = 1
Info: FEP VDW ACTIVE FOR ANNIHILATED PARTICLES BETWEEN LAMBDA = 0 AND LAMBDA = 1
Info: FEP VDW ACTIVE FOR EXNIHILATED PARTICLES BETWEEN LAMBDA = 0 AND LAMBDA = 1
Info: FEP BOND ACTIVE FOR ANNIHILATED PARTICLES BETWEEN LAMBDA = 1 AND LAMBDA = 1
Info: FEP BOND ACTIVE FOR EXNIHILATED PARTICLES BETWEEN LAMBDA = 0 AND LAMBDA = 0
Info: LANGEVIN DYNAMICS ACTIVE
Info: LANGEVIN TEMPERATURE   300
Info: LANGEVIN USING BBK INTEGRATOR
Info: LANGEVIN DAMPING COEFFICIENT IS 1 INVERSE PS
Info: LANGEVIN DYNAMICS APPLIED TO HYDROGENS
Info: LANGEVIN PISTON PRESSURE CONTROL ACTIVE
Info:        TARGET PRESSURE IS 1.01325 BAR
Info:     OSCILLATION PERIOD IS 50 FS
Info:             DECAY TIME IS 25 FS
Info:     PISTON TEMPERATURE IS 300 K
Info:       PRESSURE CONTROL IS GROUP-BASED
Info:    INITIAL STRAIN RATE IS 0.00061499 0.00061499 0.00061499
Info:       CELL FLUCTUATION IS ISOTROPIC
Info: PARTICLE MESH EWALD (PME) ACTIVE
Info: PME TOLERANCE               1e-06
Info: PME EWALD COEFFICIENT       0.348832
Info: PME INTERPOLATION ORDER     4
Info: PME GRID DIMENSIONS         32 32 32
Info: PME MAXIMUM GRID SPACING    1
Info: PME CALCULATION WILL BE PERFORMED ON GPU
Info: FULL ELECTROSTATIC EVALUATION FREQUENCY      2
Info: USING VERLET I (r-RESPA) MTS SCHEME.
Info: C1 SPLITTING OF LONG RANGE ELECTROSTATICS
Info: PLACING ATOMS IN PATCHES BY HYDROGEN GROUPS
Info: RIGID BONDS TO HYDROGEN : ALL
Info:         ERROR TOLERANCE : 1e-08
Info:          MAX ITERATIONS : 100
Info: RIGID WATER USING SETTLE ALGORITHM
Info: RANDOM NUMBER SEED     1743925554
Info: USE HYDROGEN BONDS?    NO
Info: Using AMBER format force field!
Info: AMBER PARM FILE        mobley_550662.prmtop
Info: COORDINATE PDB         mobley_550662.pdb
Info: Exclusions will be read from PARM file!
Info: SCNB (VDW SCALING)     2
Info: USING ARITHMETIC MEAN TO COMBINE L-J SIGMA PARAMETERS
Info: BINARY COORDINATES     mobley_550662_equil.coor
Info: SUMMARY OF PARAMETERS:
Info: 6 BONDS
Info: 7 ANGLES
Info:   7 HARMONIC
Info:   0 COSINE-BASED
Info: 8 DIHEDRAL
Info: 0 IMPROPER
Info: 0 CROSSTERM
Info: 0 VDW
Info: 21 VDW_PAIRS
Info: 0 NBTHOLE_PAIRS
Info: To read alchdata from file: mobley_550662.pdb
Info: To read alchflag data from column: 5
Info: STRUCTURE SUMMARY:
Info: 2915 ATOMS
Info: 2914 BONDS
Info: 33 ANGLES
Info: 51 DIHEDRALS
Info: 0 IMPROPERS
Info: 0 CROSSTERMS
Info: 2974 EXCLUSIONS
Info: 2907 RIGID BONDS
Info: ALCH: 0 ATOMS TO DISAPPEAR IN FINAL STATE
Info: ALCH: 20 ATOMS TO APPEAR IN FINAL STATE
Info: 5838 DEGREES OF FREEDOM
Info: 973 HYDROGEN GROUPS
Info: 4 ATOMS IN LARGEST HYDROGEN GROUP
Info: 973 MIGRATION GROUPS
Info: 4 ATOMS IN LARGEST MIGRATION GROUP
Info: TOTAL MASS = 17505.6 amu
Info: TOTAL CHARGE = 0.000500083 e
Info: MASS DENSITY = 0.969411 g/cm^3
Info: ATOM DENSITY = 0.0972099 atoms/A^3
Info: ADDED 0 IMPLICIT EXCLUSIONS
Info: NONBONDED TABLE R-SQUARED SPACING: 0.0625
Info: NONBONDED TABLE SIZE: 705 POINTS
Info: REMOVING COM VELOCITY -0.148039 -0.121384 0.0469422
Info: Use 3D box decompostion in PME FFT.
Info: Updated CUDA force table with 4096 elements.
Info: Updated CUDA LJ table with 6 x 6 elements.
Info: Found 23 unique exclusion lists needing 60 bytes
TCL: Running for 1500000 steps
ETITLE: TS BOND ANGLE DIHED IMPRP ELECT VDW BOUNDARY MISC KINETIC TOTAL TEMP POTENTIAL TOTALAVG TEMPAVG PRESSURE GPRESSURE VOLUME PRESSAVG GPRESSAVG
ENERGY: 0 4.6721 8.0124 16.0563 0.0000 -10494.5769 1308.4839 0.0000 0.0000 1749.9641 -7407.3881 301.6862 -9157.3522 -7407.3881 301.6862 -1054.0962 -967.2488 29986.6603 -1054.0962 -967.2488
ENERGY: 300000 0.6049 11.7629 17.0064 0.0000 -10507.9607 1367.0247 0.0000 0.0000 1740.5643 -7370.9975 300.0657 -9111.5618 -7471.9917 297.1669 23.8336 -35.3328 29317.1038 -321.1686 -268.5882
ENERGY: 600000 1.0690 14.4901 15.4838 0.0000 -10685.8628 1437.6191 0.0000 0.0000 1765.0820 -7452.1188 304.2924 -9217.2007 -7439.4205 298.7572 -67.3110 -13.0954 29812.6433 -244.8232 -195.1104
ENERGY: 900000 2.5899 7.5941 17.4588 0.0000 -10614.0410 1422.5611 0.0000 0.0000 1768.5606 -7395.2764 304.8922 -9163.8370 -7438.5480 298.5906 -314.6063 -225.3741 30045.3160 -195.1960 -141.0285
ENERGY: 1200000 1.7427 8.0500 16.2541 0.0000 -10615.7332 1384.9351 0.0000 0.0000 1742.9871 -7461.7643 300.4834 -9204.7514 -7441.5724 298.7419 -680.0056 -617.9377 30081.0053 -176.0981 -114.9742
ENERGY: 1500000 0.2992 9.0636 16.0213 0.0000 -10547.9731 1442.7369 0.0000 0.0000 1781.5329 -7298.3192 307.1285 -9079.8521 -7420.3650 299.3180 251.0672 350.6095 29971.2607 -187.5650 -127.6099
TCL: Running FEP window   2: Lambda1 0.05   Lambda2 0.1    [dLambda 0.05  ]
TCL: Setting parameter firsttimestep to 0
TCL: Setting parameter alchLambda to 0.05
Info: NONBONDED TABLE R-SQUARED SPACING: 0.0625
Info: NONBONDED TABLE SIZE: 705 POINTS
TCL: Setting parameter alchLambda2 to 0.1
Info: NONBONDED TABLE R-SQUARED SPACING: 0.0625
Info: NONBONDED TABLE SIZE: 705 POINTS
TCL: Running for 1500000 steps
ETITLE: TS BOND ANGLE DIHED IMPRP ELECT VDW BOUNDARY MISC KINETIC TOTAL TEMP POTENTIAL TOTALAVG TEMPAVG PRESSURE GPRESSURE VOLUME PRESSAVG GPRESSAVG
ENERGY: 0 0.2992 9.0636 16.0213 0.0000 -10547.9723 1445.5359 0.0000 0.0000 1780.7261 -7296.3262 306.9894 -9077.0523 -7296.3262 306.9894 282.3774 359.0479 29971.2607 282.3774 359.0479
ENERGY: 300000 1.6512 16.0120 15.2156 0.0000 -10537.5419 1400.8622 0.0000 0.0000 1718.2359 -7385.5649 296.2164 -9103.8008 -7382.6396 300.9986 38.4267 64.0891 29662.9792 394.2943 450.4813
ENERGY: 600000 1.0359 8.5457 17.5628 0.0000 -10561.3694 1378.8710 0.0000 0.0000 1782.2832 -7373.0709 307.2579 -9155.3541 -7392.4349 301.3416 -319.8391 -291.7660 29738.6024 12.0823 62.3711
ENERGY: 900000 1.6857 12.5144 17.4017 0.0000 -10525.1203 1395.8777 0.0000 0.0000 1794.3253 -7303.3154 309.3339 -9097.6408 -7374.9243 301.2396 -320.4994 -306.6015 30227.6641 -116.8311 -63.7962
ENERGY: 1200000 2.1165 8.3358 15.9896 0.0000 -10721.1883 1553.6206 0.0000 0.0000 1761.3581 -7379.7677 303.6505 -9141.1258 -7377.8451 301.8157 873.0950 948.8678 29949.8988 -120.3326 -67.6852
ENERGY: 1500000 1.9476 5.5491 15.5959 0.0000 -10612.7368 1414.2959 0.0000 0.0000 1706.5755 -7468.7728 294.2062 -9175.3483 -7393.8294 301.0227 -161.5594 -52.3028 30099.3838 -200.2972 -137.9843
TCL: Running FEP window   3: Lambda1 0.1    Lambda2 0.15000000000000002 [dLambda 0.05000000000000002]
TCL: Setting parameter firsttimestep to 0
TCL: Setting parameter alchLambda to 0.1
Info: NONBONDED TABLE R-SQUARED SPACING: 0.0625
Info: NONBONDED TABLE SIZE: 705 POINTS
TCL: Setting parameter alchLambda2 to 0.15000000000000002
Info: NONBONDED TABLE R-SQUARED SPACING: 0.0625
Info: NONBONDED TABLE SIZE: 705 POINTS
TCL: Running for 1500000 steps
ETITLE: TS BOND ANGLE DIHED IMPRP ELECT VDW BOUNDARY MISC KINETIC TOTAL TEMP POTENTIAL TOTALAVG TEMPAVG PRESSURE GPRESSURE VOLUME PRESSAVG GPRESSAVG
ENERGY: 0 1.9476 5.5491 15.5959 0.0000 -10612.7366 1414.9678 0.0000 0.0000 1705.7320 -7468.9443 294.0608 -9174.6763 -7468.9443 294.0608 -129.8111 -44.6290 30099.3838 -129.8111 -44.6290
ENERGY: 300000 4.1587 10.8968 18.3676 0.0000 -10687.0170 1506.8489 0.0000 0.0000 1844.3141 -7302.4307 317.9517 -9146.7449 -7381.2346 300.2950 730.9819 811.9740 29674.2553 122.9210 163.8668
ENERGY: 600000 5.6849 8.6700 15.5646 0.0000 -10611.5583 1418.2463 0.0000 0.0000 1780.2880 -7383.1046 306.9139 -9163.3926 -7390.4159 301.3153 -135.1014 -77.9580 29741.6473 -193.7602 -138.9334
ENERGY: 900000 0.9247 12.2631 16.2083 0.0000 -10503.1514 1390.8609 0.0000 0.0000 1770.0176 -7312.8768 305.1433 -9082.8945 -7377.1031 301.1964 -34.8806 31.5302 29745.9181 -121.7663 -68.3962
ENERGY: 1200000 1.7592 8.4216 15.9755 0.0000 -10654.2069 1513.7641 0.0000 0.0000 1710.9827 -7403.3038 294.9660 -9114.2865 -7380.8427 299.9950 695.7317 745.3151 29995.4527 -42.1138 9.0066
ENERGY: 1500000 1.1861 9.1606 18.1144 0.0000 -10548.3264 1441.2879 0.0000 0.0000 1780.8413 -7297.7362 307.0093 -9078.5774 -7380.5382 300.5286 424.8176 515.6294 29716.8960 -75.4847 -22.6586
TCL: Running FEP window   4: Lambda1 0.15000000000000002 Lambda2 0.2    [dLambda 0.04999999999999999]
TCL: Setting parameter firsttimestep to 0
TCL: Setting parameter alchLambda to 0.15000000000000002
Info: NONBONDED TABLE R-SQUARED SPACING: 0.0625
Info: NONBONDED TABLE SIZE: 705 POINTS
TCL: Setting parameter alchLambda2 to 0.2
Info: NONBONDED TABLE R-SQUARED SPACING: 0.0625
Info: NONBONDED TABLE SIZE: 705 POINTS
TCL: Running for 1500000 steps
ETITLE: TS BOND ANGLE DIHED IMPRP ELECT VDW BOUNDARY MISC KINETIC TOTAL TEMP POTENTIAL TOTALAVG TEMPAVG PRESSURE GPRESSURE VOLUME PRESSAVG GPRESSAVG
ENERGY: 0 1.1861 9.1606 18.1144 0.0000 -10548.3260 1441.8802 0.0000 0.0000 1779.9654 -7298.0194 306.8583 -9077.9848 -7298.0194 306.8583 434.6343 520.2507 29716.8960 434.6343 520.2507
ENERGY: 300000 0.9260 14.6464 18.1555 0.0000 -10519.8822 1379.4867 0.0000 0.0000 1782.6492 -7324.0183 307.3210 -9106.6675 -7372.1196 301.3474 -266.0873 -177.9449 30052.8894 199.6864 287.5435
ENERGY: 600000 4.5610 7.8825 14.8261 0.0000 -10566.7601 1381.1709 0.0000 0.0000 1753.9757 -7404.3439 302.3778 -9158.3196 -7385.4331 299.6216 -385.6924 -376.1850 29847.4127 16.1039 83.4821
ENERGY: 900000 2.8362 5.8587 15.8272 0.0000 -10701.3754 1479.3909 0.0000 0.0000 1731.5919 -7465.8704 298.5189 -9197.4623 -7390.9808 299.2843 580.9860 657.5003 29102.5085 157.0537 217.1963
ENERGY: 1200000 3.3675 7.7926 16.7941 0.0000 -10379.1057 1386.1522 0.0000 0.0000 1784.4492 -7180.5502 307.6313 -8964.9994 -7392.9793 298.8001 -253.9814 -163.1941 30486.0341 104.3883 172.7194
ENERGY: 1500000 1.9164 8.1760 14.9733 0.0000 -10611.7569 1457.4632 0.0000 0.0000 1791.1791 -7338.0490 308.7915 -9129.2281 -7391.9061 299.3205 411.6118 463.6659 29580.8652 144.1398 205.6491
TCL: Running FEP window   5: Lambda1 0.2    Lambda2 0.25   [dLambda 0.04999999999999999]
TCL: Setting parameter firsttimestep to 0
TCL: Setting parameter alchLambda to 0.2
Info: NONBONDED TABLE R-SQUARED SPACING: 0.0625
Info: NONBONDED TABLE SIZE: 705 POINTS
TCL: Setting parameter alchLambda2 to 0.25
Info: NONBONDED TABLE R-SQUARED SPACING: 0.0625
Info: NONBONDED TABLE SIZE: 705 POINTS
TCL: Running for 1500000 steps
ETITLE: TS BOND ANGLE DIHED IMPRP ELECT VDW BOUNDARY MISC KINETIC TOTAL TEMP POTENTIAL TOTALAVG TEMPAVG PRESSURE GPRESSURE VOLUME PRESSAVG GPRESSAVG
ENERGY: 0 1.9164 8.1760 14.9733 0.0000 -10611.7584 1457.7983 0.0000 0.0000 1790.3365 -7338.5578 308.6462 -9128.8944 -7338.5578 308.6462 380.5344 467.2372 29580.8652 380.5344 467.2372
ENERGY: 300000 1.5231 8.9055 15.1468 0.0000 -10474.1023 1359.7429 0.0000 0.0000 1728.7001 -7360.0840 298.0204 -9088.7841 -7352.7467 301.5821 -345.4699 -283.9851 30012.3446 134.1646 216.4977
ENERGY: 600000 2.3740 13.4338 15.9079 0.0000 -10637.9150 1442.2657 0.0000 0.0000 1645.6463 -7518.2872 283.7023 -9163.9335 -7404.2749 298.2584 16.1688 94.6041 29477.5529 126.7893 197.7130
ENERGY: 900000 0.2168 14.8864 15.2733 0.0000 -10576.1214 1402.3192 0.0000 0.0000 1719.2475 -7424.1781 296.3908 -9143.4257 -7396.5915 298.7876 -261.7492 -108.0473 30016.5293 71.8280 153.7094
ENERGY: 1200000 2.0143 15.0091 16.2460 0.0000 -10488.3235 1391.8766 0.0000 0.0000 1759.2293 -7303.9483 303.2835 -9063.1776 -7400.5331 298.8482 -256.0596 -181.8707 30291.6809 -96.4394 -20.1509
ENERGY: 1500000 4.5258 5.3756 15.3632 0.0000 -10615.6982 1490.4250 0.0000 0.0000 1758.5319 -7341.4767 303.1633 -9100.0086 -7397.2439 298.8948 606.8387 656.5903 29520.7333 -114.4575 -40.4290
TCL: Running FEP window   6: Lambda1 0.25   Lambda2 0.3    [dLambda 0.04999999999999999]
TCL: Setting parameter firsttimestep to 0
TCL: Setting parameter alchLambda to 0.25
Info: NONBONDED TABLE R-SQUARED SPACING: 0.0625
Info: NONBONDED TABLE SIZE: 705 POINTS
TCL: Setting parameter alchLambda2 to 0.3
Info: NONBONDED TABLE R-SQUARED SPACING: 0.0625
Info: NONBONDED TABLE SIZE: 705 POINTS
TCL: Running for 1500000 steps
ETITLE: TS BOND ANGLE DIHED IMPRP ELECT VDW BOUNDARY MISC KINETIC TOTAL TEMP POTENTIAL TOTALAVG TEMPAVG PRESSURE GPRESSURE VOLUME PRESSAVG GPRESSAVG
ENERGY: 0 4.5258 5.3756 15.3632 0.0000 -10615.6980 1491.1215 0.0000 0.0000 1757.6334 -7341.6786 303.0083 -9099.3120 -7341.6786 303.0083 573.1265 666.3319 29520.7333 573.1265 666.3319
ENERGY: 300000 2.3573 13.2268 15.8593 0.0000 -10415.9975 1329.5236 0.0000 0.0000 1726.4512 -7328.5792 297.6327 -9055.0305 -7361.9352 300.9353 -926.4695 -838.7653 30528.6475 -176.6099 -115.1458
ENERGY: 600000 3.3666 13.4023 15.6188 0.0000 -10684.4138 1482.5720 0.0000 0.0000 1704.2484 -7465.2056 293.8050 -9169.4540 -7405.0533 298.9575 327.4545 367.8622 29980.1431 10.4179 63.7636
ENERGY: 900000 1.7194 8.1007 16.9489 0.0000 -10583.3923 1442.0923 0.0000 0.0000 1697.4270 -7417.1041 292.6290 -9114.5311 -7381.3500 299.4944 154.1333 230.3854 30035.8221 -31.6383 25.0064
ENERGY: 1200000 1.7611 15.6004 15.4818 0.0000 -10628.4461 1458.3390 0.0000 0.0000 1718.4798 -7418.7841 296.2584 -9137.2638 -7383.5057 299.8743 68.8547 197.6601 29926.1575 88.0242 155.5037
ENERGY: 1500000 1.6324 11.7434 15.6095 0.0000 -10712.4598 1513.0903 0.0000 0.0000 1768.0779 -7402.3063 304.8089 -9170.3842 -7379.9587 299.8354 728.8307 793.4130 29551.5354 53.8338 122.8923
TCL: Running FEP window   7: Lambda1 0.3    Lambda2 0.35   [dLambda 0.04999999999999999]
TCL: Setting parameter firsttimestep to 0
TCL: Setting parameter alchLambda to 0.3
Info: NONBONDED TABLE R-SQUARED SPACING: 0.0625
Info: NONBONDED TABLE SIZE: 705 POINTS
TCL: Setting parameter alchLambda2 to 0.35
Info: NONBONDED TABLE R-SQUARED SPACING: 0.0625
Info: NONBONDED TABLE SIZE: 705 POINTS
TCL: Running for 1500000 steps
ETITLE: TS BOND ANGLE DIHED IMPRP ELECT VDW BOUNDARY MISC KINETIC TOTAL TEMP POTENTIAL TOTALAVG TEMPAVG PRESSURE GPRESSURE VOLUME PRESSAVG GPRESSAVG
ENERGY: 0 1.6324 11.7434 15.6095 0.0000 -10712.4598 1512.8793 0.0000 0.0000 1767.2044 -7403.3908 304.6583 -9170.5952 -7403.3908 304.6583 696.0717 796.8815 29551.5354 696.0717 796.8815
ENERGY: 300000 1.9032 7.7035 16.1052 0.0000 -10534.7643 1391.2019 0.0000 0.0000 1727.4581 -7390.3923 297.8062 -9117.8504 -7435.0722 299.4321 -231.2515 -169.3072 30025.8570 271.4174 350.1367
ENERGY: 600000 1.9078 13.4249 17.3687 0.0000 -10536.5415 1377.0492 0.0000 0.0000 1731.0260 -7395.7649 298.4213 -9126.7909 -7425.4211 299.8020 -321.5649 -268.2540 29846.0473 73.9311 135.0860
ENERGY: 900000 0.5353 13.3840 15.7224 0.0000 -10689.5654 1469.9614 0.0000 0.0000 1742.7484 -7447.2140 300.4422 -9189.9624 -7430.0585 299.6429 659.0141 703.7669 29299.3970 113.3531 161.9430
ENERGY: 1200000 3.4180 6.9703 15.9189 0.0000 -10549.0089 1368.8043 0.0000 0.0000 1770.2323 -7383.6650 305.1803 -9153.8973 -7416.5445 301.2083 -627.7287 -586.5816 30307.8359 -61.2606 -14.3718
ENERGY: 1500000 2.5884 9.0491 15.2086 0.0000 -10568.0805 1411.7324 0.0000 0.0000 1701.1592 -7428.3429 293.2724 -9129.5021 -7414.0489 300.4210 -140.5761 -79.5745 29963.5407 -78.7389 -32.2517
TCL: Running FEP window   8: Lambda1 0.35   Lambda2 0.39999999999999997 [dLambda 0.04999999999999999]
TCL: Setting parameter firsttimestep to 0
TCL: Setting parameter alchLambda to 0.35
Info: NONBONDED TABLE R-SQUARED SPACING: 0.0625
Info: NONBONDED TABLE SIZE: 705 POINTS
TCL: Setting parameter alchLambda2 to 0.39999999999999997
Info: NONBONDED TABLE R-SQUARED SPACING: 0.0625
Info: NONBONDED TABLE SIZE: 705 POINTS
TCL: Running for 1500000 steps
ETITLE: TS BOND ANGLE DIHED IMPRP ELECT VDW BOUNDARY MISC KINETIC TOTAL TEMP POTENTIAL TOTALAVG TEMPAVG PRESSURE GPRESSURE VOLUME PRESSAVG GPRESSAVG
ENERGY: 0 2.5884 9.0491 15.2086 0.0000 -10568.0803 1412.9275 0.0000 0.0000 1700.2907 -7428.0160 293.1227 -9128.3067 -7428.0160 293.1227 -153.2610 -63.9328 29963.5407 -153.2610 -63.9328
ENERGY: 300000 0.4715 7.9896 17.3988 0.0000 -10517.1415 1339.0889 0.0000 0.0000 1783.2552 -7368.9376 307.4254 -9152.1927 -7417.6334 299.1280 -647.5046 -651.5152 30031.6908 -138.3935 -90.6531
ENERGY: 600000 3.0642 10.7481 16.7224 0.0000 -10703.3490 1502.5548 0.0000 0.0000 1769.4225 -7400.8372 305.0407 -9170.2596 -7394.6572 302.3381 216.0947 255.6107 30373.4079 82.6840 139.4261
ENERGY: 900000 1.3572 13.4760 16.1351 0.0000 -10450.8262 1338.7874 0.0000 0.0000 1705.8168 -7375.2537 294.0754 -9081.0705 -7392.0341 300.6509 -440.2301 -386.6421 29915.2515 -131.3475 -82.5345
ENERGY: 1200000 3.8893 9.7166 15.1396 0.0000 -10662.3999 1438.8081 0.0000 0.0000 1661.8529 -7532.9934 286.4962 -9194.8463 -7395.8930 300.7309 -167.9085 -57.1074 29890.3212 -157.5573 -99.0979
ENERGY: 1500000 2.8567 11.3686 16.5194 0.0000 -10648.4326 1485.5510 0.0000 0.0000 1796.1092 -7336.0276 309.6414 -9132.1368 -7398.0003 301.2205 681.2352 785.0317 29763.4398 -86.0561 -26.9397
TCL: Running FEP window   9: Lambda1 0.39999999999999997 Lambda2 0.44999999999999996 [dLambda 0.04999999999999999]
TCL: Setting parameter firsttimestep to 0
TCL: Setting parameter alchLambda to 0.39999999999999997
Info: NONBONDED TABLE R-SQUARED SPACING: 0.0625
Info: NONBONDED TABLE SIZE: 705 POINTS
TCL: Setting parameter alchLambda2 to 0.44999999999999996
Info: NONBONDED TABLE R-SQUARED SPACING: 0.0625
Info: NONBONDED TABLE SIZE: 705 POINTS
TCL: Running for 1500000 steps
ETITLE: TS BOND ANGLE DIHED IMPRP ELECT VDW BOUNDARY MISC KINETIC TOTAL TEMP POTENTIAL TOTALAVG TEMPAVG PRESSURE GPRESSURE VOLUME PRESSAVG GPRESSAVG
ENERGY: 0 2.8568 11.3686 16.5194 0.0000 -10648.4324 1485.9052 0.0000 0.0000 1795.2267 -7336.5557 309.4893 -9131.7824 -7336.5557 309.4893 707.2061 790.1151 29763.4398 707.2061 790.1151
ENERGY: 300000 3.6672 10.2202 17.3577 0.0000 -10634.2478 1456.2657 0.0000 0.0000 1671.8703 -7474.8668 288.2232 -9146.7370 -7399.6660 299.7306 277.8447 336.8318 29917.9748 445.8111 489.7775
ENERGY: 600000 3.2758 9.6346 15.8062 0.0000 -10655.9798 1484.0380 0.0000 0.0000 1737.0886 -7406.1366 299.4665 -9143.2252 -7394.2474 301.5239 416.1071 506.2221 30250.6770 357.6770 415.9252
ENERGY: 900000 2.5834 9.4601 17.5545 0.0000 -10590.9729 1443.4850 0.0000 0.0000 1729.8198 -7388.0700 298.2134 -9117.8898 -7378.7141 301.5097 366.7134 389.6671 29533.8635 232.6858 287.7784
ENERGY: 1200000 2.1816 8.6549 15.2639 0.0000 -10513.0770 1322.8864 0.0000 0.0000 1727.7857 -7436.3046 297.8627 -9164.0903 -7388.9694 300.9078 -979.9180 -891.6214 30234.4514 128.7056 194.0652
ENERGY: 1500000 0.4615 9.4344 16.4922 0.0000 -10621.3835 1451.3557 0.0000 0.0000 1795.5093 -7348.1304 309.5380 -9143.6397 -7374.3576 301.8395 166.9068 292.2385 29991.3319 129.1211 196.8787
TCL: Running FEP window  10: Lambda1 0.44999999999999996 Lambda2 0.49999999999999994 [dLambda 0.04999999999999999]
TCL: Setting parameter firsttimestep to 0
TCL: Setting parameter alchLambda to 0.44999999999999996
Info: NONBONDED TABLE R-SQUARED SPACING: 0.0625
Info: NONBONDED TABLE SIZE: 705 POINTS
TCL: Setting parameter alchLambda2 to 0.49999999999999994
Info: NONBONDED TABLE R-SQUARED SPACING: 0.0625
Info: NONBONDED TABLE SIZE: 705 POINTS
TCL: Running for 1500000 steps
ETITLE: TS BOND ANGLE DIHED IMPRP ELECT VDW BOUNDARY MISC KINETIC TOTAL TEMP POTENTIAL TOTALAVG TEMPAVG PRESSURE GPRESSURE VOLUME PRESSAVG GPRESSAVG
ENERGY: 0 0.4615 9.4344 16.4922 0.0000 -10621.3819 1450.9506 0.0000 0.0000 1794.6578 -7349.3854 309.3912 -9144.0432 -7349.3854 309.3912 198.4066 297.1467 29991.3319 198.4066 297.1467
ENERGY: 300000 2.3553 7.6712 17.0502 0.0000 -10505.8762 1383.6055 0.0000 0.0000 1729.7873 -7365.4067 298.2078 -9095.1940 -7383.1161 299.5045 -455.4009 -441.9198 30249.3030 89.4420 139.3410
ENERGY: 600000 0.9118 9.8206 15.3784 0.0000 -10608.2593 1441.2455 0.0000 0.0000 1731.8860 -7409.0171 298.5696 -9140.9031 -7383.4570 300.2474 256.5546 234.4598 29758.4862 185.8934 214.3014
ENERGY: 900000 2.7215 7.1984 15.7763 0.0000 -10581.1230 1402.3073 0.0000 0.0000 1787.7103 -7365.4092 308.1935 -9153.1195 -7384.3120 302.3058 -209.9621 -119.0495 29876.9523 138.3334 184.8837
ENERGY: 1200000 3.6276 7.6712 15.6192 0.0000 -10469.5674 1337.3208 0.0000 0.0000 1747.7809 -7357.5477 301.3098 -9105.3286 -7385.8615 301.5450 -643.8591 -562.0204 30062.9083 35.2578 92.5256
ENERGY: 1500000 3.5783 10.4132 16.6449 0.0000 -10664.5623 1473.1861 0.0000 0.0000 1753.0662 -7407.6736 302.2210 -9160.7398 -7386.3380 301.0938 375.2048 435.6675 29680.9367 59.5589 115.3368
TCL: Running FEP window  11: Lambda1 0.49999999999999994 Lambda2 0.5499999999999999 [dLambda 0.04999999999999999]
TCL: Setting parameter firsttimestep to 0
TCL: Setting parameter alchLambda to 0.49999999999999994
Info: NONBONDED TABLE R-SQUARED SPACING: 0.0625
Info: NONBONDED TABLE SIZE: 705 POINTS
TCL: Setting parameter alchLambda2 to 0.5499999999999999
Info: NONBONDED TABLE R-SQUARED SPACING: 0.0625
Info: NONBONDED TABLE SIZE: 705 POINTS
TCL: Running for 1500000 steps
ETITLE: TS BOND ANGLE DIHED IMPRP ELECT VDW BOUNDARY MISC KINETIC TOTAL TEMP POTENTIAL TOTALAVG TEMPAVG PRESSURE GPRESSURE VOLUME PRESSAVG GPRESSAVG
ENERGY: 0 3.5783 10.4132 16.6449 0.0000 -10664.5618 1473.4786 0.0000 0.0000 1752.2144 -7408.2324 302.0741 -9160.4467 -7408.2324 302.0741 366.0133 445.4748 29680.9367 366.0133 445.4748
ENERGY: 300000 0.9326 4.6405 16.8004 0.0000 -10541.8739 1325.4071 0.0000 0.0000 1744.3955 -7449.6977 300.7262 -9194.0932 -7374.6065 304.0795 -743.7923 -648.5835 29627.5278 59.6844 139.9946
ENERGY: 600000 2.2912 7.0398 16.8232 0.0000 -10742.4883 1491.5166 0.0000 0.0000 1740.0893 -7484.7282 299.9838 -9224.8175 -7390.6640 303.7371 388.0905 421.7307 30032.5517 174.2909 245.3812
ENERGY: 900000 3.1812 8.2431 15.7816 0.0000 -10502.2252 1352.0307 0.0000 0.0000 1752.0159 -7370.9728 302.0399 -9122.9886 -7401.3780 303.0062 -548.7864 -448.5885 29917.8125 118.0452 186.8206
ENERGY: 1200000 2.0991 10.8631 17.7706 0.0000 -10654.9481 1445.9722 0.0000 0.0000 1697.0347 -7481.2084 292.5614 -9178.2431 -7404.5934 302.5070 42.6072 126.0353 29728.7918 143.0239 207.4434
ENERGY: 1500000 0.6022 12.9175 17.0463 0.0000 -10635.0317 1453.0697 0.0000 0.0000 1799.1492 -7352.2468 310.1655 -9151.3960 -7392.7576 303.5918 608.9155 611.4187 29520.6259 219.7338 276.9535
TCL: Running FEP window  12: Lambda1 0.5499999999999999 Lambda2 0.6    [dLambda 0.050000000000000044]
TCL: Setting parameter firsttimestep to 0
TCL: Setting parameter alchLambda to 0.5499999999999999
Info: NONBONDED TABLE R-SQUARED SPACING: 0.0625
Info: NONBONDED TABLE SIZE: 705 POINTS
TCL: Setting parameter alchLambda2 to 0.6
Info: NONBONDED TABLE R-SQUARED SPACING: 0.0625
Info: NONBONDED TABLE SIZE: 705 POINTS
TCL: Running for 1500000 steps
ETITLE: TS BOND ANGLE DIHED IMPRP ELECT VDW BOUNDARY MISC KINETIC TOTAL TEMP POTENTIAL TOTALAVG TEMPAVG PRESSURE GPRESSURE VOLUME PRESSAVG GPRESSAVG
ENERGY: 0 0.6022 12.9175 17.0463 0.0000 -10634.8997 1452.7594 0.0000 0.0000 1798.3164 -7353.2579 310.0219 -9151.5743 -7353.2579 310.0219 550.4093 615.8133 29520.6259 550.4093 615.8133
ENERGY: 300000 1.4775 13.7252 15.9078 0.0000 -10474.9975 1400.0110 0.0000 0.0000 1774.7817 -7269.0943 305.9646 -9043.8761 -7372.7141 301.4230 -38.9174 -10.9875 30123.8182 -116.7505 -83.9746
ENERGY: 600000 1.5930 12.4558 17.3083 0.0000 -10629.3895 1452.3495 0.0000 0.0000 1708.3709 -7437.3122 294.5157 -9145.6830 -7370.9728 300.1047 126.6587 199.8254 29900.3846 -78.4291 -19.0996
ENERGY: 900000 1.6414 4.9768 17.6149 0.0000 -10473.6774 1305.6235 0.0000 0.0000 1718.1244 -7425.6965 296.1972 -9143.8209 -7377.0255 299.9175 -1060.8548 -1080.6137 30448.8198 -150.1325 -101.0697
ENERGY: 1200000 2.5793 10.7543 16.7240 0.0000 -10693.0392 1505.2664 0.0000 0.0000 1752.7458 -7404.9695 302.1657 -9157.7153 -7390.1144 300.2064 640.5229 676.0479 29569.6580 15.8000 56.7899
ENERGY: 1500000 2.0071 9.3093 16.2852 0.0000 -10703.8440 1507.8967 0.0000 0.0000 1717.6942 -7450.6514 296.1230 -9168.3457 -7402.2536 299.2559 572.7607 580.4987 29979.3543 52.5774 91.3159
TCL: Running FEP window  13: Lambda1 0.6    Lambda2 0.65   [dLambda 0.050000000000000044]
TCL: Setting parameter firsttimestep to 0
TCL: Setting parameter alchLambda to 0.6
Info: NONBONDED TABLE R-SQUARED SPACING: 0.0625
Info: NONBONDED TABLE SIZE: 705 POINTS
TCL: Setting parameter alchLambda2 to 0.65
Info: NONBONDED TABLE R-SQUARED SPACING: 0.0625
Info: NONBONDED TABLE SIZE: 705 POINTS
TCL: Running for 1500000 steps
ETITLE: TS BOND ANGLE DIHED IMPRP ELECT VDW BOUNDARY MISC KINETIC TOTAL TEMP POTENTIAL TOTALAVG TEMPAVG PRESSURE GPRESSURE VOLUME PRESSAVG GPRESSAVG
ENERGY: 0 2.0071 9.3093 16.2852 0.0000 -10703.5975 1507.8511 0.0000 0.0000 1716.8513 -7451.2936 295.9777 -9168.1449 -7451.2936 295.9777 487.2747 591.1246 29979.3543 487.2747 591.1246
ENERGY: 300000 3.9220 9.8170 16.3707 0.0000 -10546.2498 1420.4590 0.0000 0.0000 1708.8324 -7386.8487 294.5953 -9095.6811 -7418.4692 298.8691 90.4620 178.9576 29957.7301 148.5114 215.8271
ENERGY: 600000 2.7724 11.9857 16.4310 0.0000 -10490.5695 1333.0232 0.0000 0.0000 1673.0264 -7453.3309 288.4225 -9126.3573 -7413.4240 298.1889 -691.3039 -640.8392 29659.8201 17.0925 93.7669
ENERGY: 900000 1.2364 8.2027 16.1557 0.0000 -10687.7703 1446.8616 0.0000 0.0000 1754.7196 -7460.5943 302.5060 -9215.3140 -7420.1291 298.7706 14.7839 87.7164 29951.7684 -46.6172 28.9439
ENERGY: 1200000 1.6262 15.9986 15.6738 0.0000 -10593.0892 1474.5253 0.0000 0.0000 1783.5577 -7301.7076 307.4776 -9085.2653 -7409.1357 299.4570 481.8502 592.8036 30473.7634 -73.7881 7.6069
ENERGY: 1500000 1.1370 9.1202 16.4272 0.0000 -10568.2553 1426.6095 0.0000 0.0000 1717.9249 -7397.0365 296.1628 -9114.9614 -7398.5020 300.4087 114.2334 154.6164 30075.5565 -35.5052 34.2662
TCL: Running FEP window  14: Lambda1 0.65   Lambda2 0.7000000000000001 [dLambda 0.050000000000000044]
TCL: Setting parameter firsttimestep to 0
TCL: Setting parameter alchLambda to 0.65
Info: NONBONDED TABLE R-SQUARED SPACING: 0.0625
Info: NONBONDED TABLE SIZE: 705 POINTS
TCL: Setting parameter alchLambda2 to 0.7000000000000001
Info: NONBONDED TABLE R-SQUARED SPACING: 0.0625
Info: NONBONDED TABLE SIZE: 705 POINTS
TCL: Running for 1500000 steps
ETITLE: TS BOND ANGLE DIHED IMPRP ELECT VDW BOUNDARY MISC KINETIC TOTAL TEMP POTENTIAL TOTALAVG TEMPAVG PRESSURE GPRESSURE VOLUME PRESSAVG GPRESSAVG
ENERGY: 0 1.1370 9.1202 16.4272 0.0000 -10569.5206 1427.4060 0.0000 0.0000 1717.0838 -7398.3464 296.0178 -9115.4302 -7398.3464 296.0178 96.0677 169.9902 30075.5565 96.0677 169.9902
ENERGY: 300000 3.4271 11.3442 15.8749 0.0000 -10384.2600 1258.6977 0.0000 0.0000 1729.8272 -7365.0888 298.2147 -9094.9160 -7396.7997 296.9655 -1296.5317 -1176.9373 30087.3203 -308.2914 -238.5146
ENERGY: 600000 3.1960 12.0575 15.4904 0.0000 -10585.7479 1430.8090 0.0000 0.0000 1691.7842 -7432.4109 291.6562 -9124.1950 -7417.4879 295.7020 -29.7417 34.6160 30262.6706 -222.4917 -146.7642
ENERGY: 900000 1.6746 11.5665 16.4538 0.0000 -10607.5970 1457.4070 0.0000 0.0000 1707.4551 -7413.0400 294.3578 -9120.4951 -7412.0294 294.9329 523.4113 595.3436 29696.6694 -212.0027 -145.2283
ENERGY: 1200000 4.3944 7.8924 16.0046 0.0000 -10570.6394 1434.8579 0.0000 0.0000 1681.3723 -7426.1178 289.8613 -9107.4901 -7406.9967 295.1443 -17.9989 75.1697 30372.6116 -244.4410 -179.3627
ENERGY: 1500000 1.0838 12.3644 16.2710 0.0000 -10531.1812 1357.6458 0.0000 0.0000 1737.6013 -7406.2150 299.5549 -9143.8163 -7398.9768 296.7048 -501.8370 -462.5802 30121.0635 -198.3483 -133.5734
TCL: Running FEP window  15: Lambda1 0.7000000000000001 Lambda2 0.7500000000000001 [dLambda 0.050000000000000044]
TCL: Setting parameter firsttimestep to 0
TCL: Setting parameter alchLambda to 0.7000000000000001
Info: NONBONDED TABLE R-SQUARED SPACING: 0.0625
Info: NONBONDED TABLE SIZE: 705 POINTS
TCL: Setting parameter alchLambda2 to 0.7500000000000001
Info: NONBONDED TABLE R-SQUARED SPACING: 0.0625
Info: NONBONDED TABLE SIZE: 705 POINTS
TCL: Running for 1500000 steps
ETITLE: TS BOND ANGLE DIHED IMPRP ELECT VDW BOUNDARY MISC KINETIC TOTAL TEMP POTENTIAL TOTALAVG TEMPAVG PRESSURE GPRESSURE VOLUME PRESSAVG GPRESSAVG
ENERGY: 0 1.0838 12.3644 16.2710 0.0000 -10531.8319 1357.3155 0.0000 0.0000 1736.7133 -7408.0839 299.4018 -9144.7972 -7408.0839 299.4018 -529.0894 -454.5374 30121.0635 -529.0894 -454.5374
ENERGY: 300000 1.6114 11.1831 16.5666 0.0000 -10472.2405 1345.9255 0.0000 0.0000 1712.8346 -7384.1193 295.2852 -9096.9539 -7387.8123 299.7034 -476.4554 -409.9647 30058.7155 -738.0874 -685.0595
ENERGY: 600000 3.4898 13.1547 15.9188 0.0000 -10627.6707 1384.2033 0.0000 0.0000 1718.4620 -7492.4421 296.2554 -9210.9041 -7426.6073 295.7243 -556.6796 -435.4339 29861.8378 -471.8860 -406.6217
ENERGY: 900000 1.6793 9.3132 15.2943 0.0000 -10536.6492 1401.5496 0.0000 0.0000 1748.0716 -7360.7413 301.3599 -9108.8128 -7426.8804 297.3047 43.5555 61.8151 29896.9320 -429.7377 -363.4575
ENERGY: 1200000 1.2343 11.5000 16.1200 0.0000 -10803.6778 1635.4819 0.0000 0.0000 1714.9943 -7424.3472 295.6576 -9139.3415 -7432.8253 297.2154 1800.4891 1874.4129 29563.6751 -217.5676 -146.9788
ENERGY: 1500000 1.8495 9.1817 16.5316 0.0000 -10590.1824 1426.5275 0.0000 0.0000 1741.6971 -7394.3950 300.2610 -9136.0922 -7431.7718 298.0296 112.4723 136.1931 29854.3242 -87.3282 -22.8477
TCL: Running FEP window  16: Lambda1 0.7500000000000001 Lambda2 0.8000000000000002 [dLambda 0.050000000000000044]
TCL: Setting parameter firsttimestep to 0
TCL: Setting parameter alchLambda to 0.7500000000000001
Info: NONBONDED TABLE R-SQUARED SPACING: 0.0625
Info: NONBONDED TABLE SIZE: 705 POINTS
TCL: Setting parameter alchLambda2 to 0.8000000000000002
Info: NONBONDED TABLE R-SQUARED SPACING: 0.0625
Info: NONBONDED TABLE SIZE: 705 POINTS
TCL: Running for 1500000 steps
ETITLE: TS BOND ANGLE DIHED IMPRP ELECT VDW BOUNDARY MISC KINETIC TOTAL TEMP POTENTIAL TOTALAVG TEMPAVG PRESSURE GPRESSURE VOLUME PRESSAVG GPRESSAVG
ENERGY: 0 1.8495 9.1817 16.5316 0.0000 -10590.5661 1426.9431 0.0000 0.0000 1740.8216 -7395.2386 300.1101 -9136.0602 -7395.2386 300.1101 61.3826 148.9397 29854.3242 61.3826 148.9397
ENERGY: 300000 2.0078 7.5429 18.2465 0.0000 -10655.5878 1462.9996 0.0000 0.0000 1723.3725 -7441.4186 297.1019 -9164.7911 -7386.1742 300.2324 159.2088 253.2183 30002.8892 -209.5875 -142.2851
ENERGY: 600000 1.3253 11.1510 15.2341 0.0000 -10494.7604 1368.3528 0.0000 0.0000 1768.4583 -7330.2389 304.8745 -9098.6972 -7377.5327 303.6710 -86.2191 -41.2071 30022.7297 -209.4847 -158.7250
ENERGY: 900000 1.1556 11.8937 16.6758 0.0000 -10529.6232 1366.1103 0.0000 0.0000 1757.7506 -7376.0373 303.0286 -9133.7879 -7391.0914 302.0630 -616.8480 -576.6539 30488.7116 -268.5194 -219.8186
ENERGY: 1200000 2.9636 12.2035 17.3260 0.0000 -10525.4595 1399.3648 0.0000 0.0000 1724.1497 -7369.4518 297.2359 -9093.6016 -7386.4250 301.9788 -42.1976 67.1036 29959.5099 -256.3391 -199.7214
ENERGY: 1500000 3.6962 8.0552 16.3367 0.0000 -10686.9094 1486.7053 0.0000 0.0000 1703.2992 -7468.8167 293.6414 -9172.1159 -7399.7736 301.3627 325.6634 354.6734 29974.4652 -198.8496 -144.4033
TCL: Running FEP window  17: Lambda1 0.8000000000000002 Lambda2 0.8500000000000002 [dLambda 0.050000000000000044]
TCL: Setting parameter firsttimestep to 0
TCL: Setting parameter alchLambda to 0.8000000000000002
Info: NONBONDED TABLE R-SQUARED SPACING: 0.0625
Info: NONBONDED TABLE SIZE: 705 POINTS
TCL: Setting parameter alchLambda2 to 0.8500000000000002
Info: NONBONDED TABLE R-SQUARED SPACING: 0.0625
Info: NONBONDED TABLE SIZE: 705 POINTS
TCL: Running for 1500000 steps
ETITLE: TS BOND ANGLE DIHED IMPRP ELECT VDW BOUNDARY MISC KINETIC TOTAL TEMP POTENTIAL TOTALAVG TEMPAVG PRESSURE GPRESSURE VOLUME PRESSAVG GPRESSAVG
ENERGY: 0 3.6962 8.0553 16.3367 0.0000 -10688.1279 1486.4500 0.0000 0.0000 1702.4281 -7471.1617 293.4912 -9173.5898 -7471.1617 293.4912 286.0363 361.2816 29974.4652 286.0363 361.2816
ENERGY: 300000 1.0202 8.4824 16.9374 0.0000 -10593.7057 1340.1429 0.0000 0.0000 1742.2662 -7484.8567 300.3591 -9227.1229 -7393.9787 303.9409 -531.4040 -553.6846 29807.6905 132.6185 184.4892
ENERGY: 600000 0.6778 12.5392 16.4805 0.0000 -10777.1039 1518.4603 0.0000 0.0000 1705.3065 -7523.6397 293.9874 -9228.9462 -7413.7239 301.8115 702.8657 740.4641 29798.4914 69.4740 123.4651
ENERGY: 900000 1.4565 9.7461 15.6803 0.0000 -10479.4629 1358.6334 0.0000 0.0000 1727.6530 -7366.2936 297.8399 -9093.9466 -7400.9772 301.3029 -419.5044 -366.1458 30316.5286 -65.2485 -7.8027
ENERGY: 1200000 1.1440 12.7166 17.4478 0.0000 -10488.3372 1354.0205 0.0000 0.0000 1723.4559 -7379.5524 297.1163 -9103.0083 -7403.1352 301.0037 -324.9343 -242.9185 29864.4987 49.3074 110.2192
ENERGY: 1500000 3.5321 6.6788 15.2409 0.0000 -10398.7152 1298.2493 0.0000 0.0000 1743.6709 -7331.3432 300.6013 -9075.0141 -7393.9273 301.5637 -780.9731 -714.8298 29989.6683 5.5841 62.7025
TCL: Running FEP window  18: Lambda1 0.8500000000000002 Lambda2 0.9000000000000002 [dLambda 0.050000000000000044]
TCL: Setting parameter firsttimestep to 0
TCL: Setting parameter alchLambda to 0.8500000000000002
Info: NONBONDED TABLE R-SQUARED SPACING: 0.0625
Info: NONBONDED TABLE SIZE: 705 POINTS
TCL: Setting parameter alchLambda2 to 0.9000000000000002
Info: NONBONDED TABLE R-SQUARED SPACING: 0.0625
Info: NONBONDED TABLE SIZE: 705 POINTS
TCL: Running for 1500000 steps
ETITLE: TS BOND ANGLE DIHED IMPRP ELECT VDW BOUNDARY MISC KINETIC TOTAL TEMP POTENTIAL TOTALAVG TEMPAVG PRESSURE GPRESSURE VOLUME PRESSAVG GPRESSAVG
ENERGY: 0 3.5321 6.6788 15.2409 0.0000 -10399.9924 1299.2805 0.0000 0.0000 1742.8243 -7332.4358 300.4553 -9075.2601 -7332.4358 300.4553 -758.1855 -690.3495 29989.6683 -758.1855 -690.3495
ENERGY: 300000 0.5873 9.1854 17.0349 0.0000 -10419.6580 1339.6865 0.0000 0.0000 1736.6597 -7316.5041 299.3926 -9053.1639 -7381.0270 298.9708 -311.3345 -283.6040 30139.1132 -400.9063 -350.5282
ENERGY: 600000 6.1387 5.8926 16.0339 0.0000 -10577.2930 1395.8838 0.0000 0.0000 1731.4903 -7421.8537 298.5014 -9153.3440 -7393.6231 298.3770 -378.5094 -289.5562 30136.2705 -139.5413 -92.0862
ENERGY: 900000 2.4732 10.9656 15.3609 0.0000 -10558.5620 1414.9316 0.0000 0.0000 1698.7104 -7416.1203 292.8503 -9114.8307 -7398.9281 297.9415 96.8052 160.4849 29992.8930 -140.2956 -96.3807
ENERGY: 1200000 3.8950 8.4073 16.3602 0.0000 -10649.1849 1429.7273 0.0000 0.0000 1751.1401 -7439.6550 301.8889 -9190.7951 -7416.9339 298.2073 -139.2576 -62.1490 29722.0996 -35.3169 16.6679
ENERGY: 1500000 2.7117 10.5430 15.8886 0.0000 -10570.8224 1367.0208 0.0000 0.0000 1709.2065 -7465.4518 294.6598 -9174.6583 -7421.8741 298.5398 -400.1099 -398.9150 29749.6078 -83.5621 -39.8564
TCL: Running FEP window  19: Lambda1 0.9000000000000002 Lambda2 0.9500000000000003 [dLambda 0.050000000000000044]
TCL: Setting parameter firsttimestep to 0
TCL: Setting parameter alchLambda to 0.9000000000000002
Info: NONBONDED TABLE R-SQUARED SPACING: 0.0625
Info: NONBONDED TABLE SIZE: 705 POINTS
TCL: Setting parameter alchLambda2 to 0.9500000000000003
Info: NONBONDED TABLE R-SQUARED SPACING: 0.0625
Info: NONBONDED TABLE SIZE: 705 POINTS
TCL: Running for 1500000 steps
ETITLE: TS BOND ANGLE DIHED IMPRP ELECT VDW BOUNDARY MISC KINETIC TOTAL TEMP POTENTIAL TOTALAVG TEMPAVG PRESSURE GPRESSURE VOLUME PRESSAVG GPRESSAVG
ENERGY: 0 2.7117 10.5430 15.8886 0.0000 -10572.9929 1370.1641 0.0000 0.0000 1708.3479 -7465.3377 294.5117 -9173.6856 -7465.3377 294.5117 -437.0411 -356.2779 29749.6078 -437.0411 -356.2779
ENERGY: 300000 1.8802 10.4700 17.0382 0.0000 -10629.4910 1392.0192 0.0000 0.0000 1779.3215 -7428.7619 306.7473 -9208.0835 -7458.8837 298.1339 -58.5328 34.5378 29603.1399 -250.3668 -184.1636
ENERGY: 600000 4.2275 5.0106 15.9151 0.0000 -10442.6500 1336.3745 0.0000 0.0000 1754.5906 -7326.5317 302.4838 -9081.1223 -7445.9473 298.6816 -513.6068 -384.7577 29744.2124 -387.2399 -310.7972
ENERGY: 900000 1.5676 8.4255 17.2389 0.0000 -10563.5236 1463.2999 0.0000 0.0000 1773.5645 -7299.4274 305.7548 -9072.9918 -7418.2183 299.0587 574.8503 663.8815 29859.9403 -311.9703 -236.9725
ENERGY: 1200000 1.5891 6.2187 15.8382 0.0000 -10628.1535 1430.4172 0.0000 0.0000 1729.0300 -7445.0604 298.0772 -9174.0904 -7412.6721 299.0554 -20.0685 2.4653 30048.2654 -222.3361 -149.0625
ENERGY: 1500000 3.3295 10.9429 15.9923 0.0000 -10615.1165 1448.9216 0.0000 0.0000 1693.6060 -7442.3242 291.9703 -9135.9302 -7412.8762 298.5113 140.8176 183.6578 30111.1922 -122.1647 -58.2997
TCL: Running FEP window  20: Lambda1 0.9500000000000003 Lambda2 1.0    [dLambda 0.04999999999999971]
TCL: Setting parameter firsttimestep to 0
TCL: Setting parameter alchLambda to 0.9500000000000003
Info: NONBONDED TABLE R-SQUARED SPACING: 0.0625
Info: NONBONDED TABLE SIZE: 705 POINTS
TCL: Setting parameter alchLambda2 to 1.0
Info: NONBONDED TABLE R-SQUARED SPACING: 0.0625
Info: NONBONDED TABLE SIZE: 705 POINTS
TCL: Running for 1500000 steps
ETITLE: TS BOND ANGLE DIHED IMPRP ELECT VDW BOUNDARY MISC KINETIC TOTAL TEMP POTENTIAL TOTALAVG TEMPAVG PRESSURE GPRESSURE VOLUME PRESSAVG GPRESSAVG
ENERGY: 0 3.3295 10.9429 15.9923 0.0000 -10616.1593 1449.2699 0.0000 0.0000 1692.7745 -7443.8502 291.8269 -9136.6247 -7443.8502 291.8269 127.5754 197.7375 30111.1922 127.5754 197.7375
ENERGY: 300000 1.7366 8.1812 15.8365 0.0000 -10472.2466 1330.0845 0.0000 0.0000 1765.7421 -7350.6658 304.4062 -9116.4079 -7384.2141 302.4585 -445.1972 -387.1861 29811.2842 30.0803 93.0863
ENERGY: 600000 2.3995 12.1023 16.0759 0.0000 -10631.4315 1409.4255 0.0000 0.0000 1756.9389 -7434.4893 302.8886 -9191.4282 -7390.8404 301.3059 14.2286 77.1413 29831.8612 -3.8307 69.7286
ENERGY: 900000 4.6956 8.8002 16.3828 0.0000 -10615.2668 1439.1578 0.0000 0.0000 1755.1671 -7391.0633 302.5832 -9146.2305 -7393.3720 302.4981 223.3080 226.9067 29825.0391 -110.8245 -48.2033
ENERGY: 1200000 2.6911 9.2851 15.7116 0.0000 -10620.1385 1390.9728 0.0000 0.0000 1754.9702 -7446.5077 302.5492 -9201.4778 -7397.6622 302.4748 -496.0766 -377.5937 30153.9369 -61.3573 9.0334
ENERGY: 1500000 3.0618 9.8235 18.6457 0.0000 -10657.2273 1431.8445 0.0000 0.0000 1795.9085 -7397.9434 309.6068 -9193.8519 -7396.0353 302.3490 -63.4112 31.4397 29962.1895 -94.7576 -21.2081
TCL: Exiting due to exit command.
