Info: SIMULATION PARAMETERS:
Info: TIMESTEP               2
Info: NUMBER OF STEPS        0
Info: STEPS PER CYCLE        10
Info: PERIODIC CELL BASIS 1  32.193 0 0
Info: PERIODIC CELL BASIS 2  0 29.3839 0
Info: PERIODIC CELL BASIS 3  0 0 31.4285
Info: PERIODIC CELL CENTER   0 0 0
Info: WRAPPING WATERS AROUND PERIODIC BOUNDARIES ON OUTPUT.
Info: WRAPPING ALL CLUSTERS AROUND PERIODIC BOUNDARIES ON OUTPUT.
Info: FIRST LDB TIMESTEP     50
Info: LAST LDB TIMESTEP     -1
Info: HOM BACKGROUND SCALING 1
Info: PME BACKGROUND SCALING 1
Info: MIN ATOMS PER PATCH    40
Info: EMPTY PATCH LOAD       40 ATOMS
Info: VELOCITY FILE          mobley_4043987_equil.vel
Info: CENTER OF MASS MOVING INITIALLY? NO
Info: DIELECTRIC             1
Info: EXCLUDE                SCALED ONE-FOUR
Info: 1-4 ELECTROSTATICS SCALED BY 0.833333
Info: MODIFIED 1-4 VDW PARAMETERS WILL BE USED
Info: DCD FILENAME           mobley_4043987_prod.dcd
Info: DCD FREQUENCY          100000
Info: DCD FIRST STEP         100000
Info: DCD FILE WILL CONTAIN UNIT CELL DATA
Info: XST FILENAME           mobley_4043987_prod.xst
Info: XST FREQUENCY          100000
Info: NO VELOCITY DCD OUTPUT
Info: NO FORCE DCD OUTPUT
Info: OUTPUT FILENAME        mobley_4043987_prod
Info: BINARY OUTPUT FILES WILL BE USED
Info: RESTART FILENAME       mobley_4043987_prod.restart
Info: RESTART FREQUENCY      100000
Info: BINARY RESTART FILES WILL BE USED
Info: CUTOFF                 9
Info: PAIRLIST DISTANCE      11
Info: PAIRLIST SHRINK RATE   0.01
Info: PAIRLIST GROW RATE     0.01
Info: PAIRLIST TRIGGER       0.3
Info: PAIRLISTS PER CYCLE    2
Info: PAIRLISTS ENABLED
Info: MARGIN                 2
Info: HYDROGEN GROUP CUTOFF  2.5
Info: PATCH DIMENSION        15.5
Info: ENERGY OUTPUT STEPS    100000
Info: ENERGY EVALUATION STEPS    100000
Info: OUTPUT ENERGY PRECISION 4
Info: CROSSTERM ENERGY INCLUDED IN DIHEDRAL
Info: TIMING OUTPUT STEPS    1000000
Info: PRESSURE OUTPUT STEPS  100000
Info: ALCHEMICAL FEP ON
Info: FEP CURRENT LAMBDA VALUE     0
Info: FEP COMPARISON LAMBDA VALUE  0.05
Info: FEP INTRA-ALCHEMICAL NON-BONDED INTERACTIONS WILL BE RETAINED
Info: FEP INTRA-ALCHEMICAL BONDED INTERACTIONS WILL BE RETAINED
Info: FEP VDW SHIFTING COEFFICIENT 5
Info: FEP ELEC. ACTIVE FOR ANNIHILATED PARTICLES BETWEEN LAMBDA = 0 AND LAMBDA = 0.5
Info: FEP ELEC. ACTIVE FOR EXNIHILATED PARTICLES BETWEEN LAMBDA = 0.5 AND LAMBDA = 1
Info: FEP VDW ACTIVE FOR ANNIHILATED PARTICLES BETWEEN LAMBDA = 0 AND LAMBDA = 1
Info: FEP VDW ACTIVE FOR EXNIHILATED PARTICLES BETWEEN LAMBDA = 0 AND LAMBDA = 1
Info: FEP BOND ACTIVE FOR ANNIHILATED PARTICLES BETWEEN LAMBDA = 1 AND LAMBDA = 1
Info: FEP BOND ACTIVE FOR EXNIHILATED PARTICLES BETWEEN LAMBDA = 0 AND LAMBDA = 0
Info: LANGEVIN DYNAMICS ACTIVE
Info: LANGEVIN TEMPERATURE   300
Info: LANGEVIN USING BBK INTEGRATOR
Info: LANGEVIN DAMPING COEFFICIENT IS 1 INVERSE PS
Info: LANGEVIN DYNAMICS APPLIED TO HYDROGENS
Info: LANGEVIN PISTON PRESSURE CONTROL ACTIVE
Info:        TARGET PRESSURE IS 1.01325 BAR
Info:     OSCILLATION PERIOD IS 50 FS
Info:             DECAY TIME IS 25 FS
Info:     PISTON TEMPERATURE IS 300 K
Info:       PRESSURE CONTROL IS GROUP-BASED
Info:    INITIAL STRAIN RATE IS 0.000435817 0.000435817 0.000435817
Info:       CELL FLUCTUATION IS ISOTROPIC
Info: PARTICLE MESH EWALD (PME) ACTIVE
Info: PME TOLERANCE               1e-06
Info: PME EWALD COEFFICIENT       0.348832
Info: PME INTERPOLATION ORDER     4
Info: PME GRID DIMENSIONS         36 32 32
Info: PME MAXIMUM GRID SPACING    1
Info: PME CALCULATION WILL BE PERFORMED ON GPU
Info: FULL ELECTROSTATIC EVALUATION FREQUENCY      2
Info: USING VERLET I (r-RESPA) MTS SCHEME.
Info: C1 SPLITTING OF LONG RANGE ELECTROSTATICS
Info: PLACING ATOMS IN PATCHES BY HYDROGEN GROUPS
Info: RIGID BONDS TO HYDROGEN : ALL
Info:         ERROR TOLERANCE : 1e-08
Info:          MAX ITERATIONS : 100
Info: RIGID WATER USING SETTLE ALGORITHM
Info: RANDOM NUMBER SEED     1743938600
Info: USE HYDROGEN BONDS?    NO
Info: Using AMBER format force field!
Info: AMBER PARM FILE        mobley_4043987.prmtop
Info: COORDINATE PDB         mobley_4043987.pdb
Info: Exclusions will be read from PARM file!
Info: SCNB (VDW SCALING)     2
Info: USING ARITHMETIC MEAN TO COMBINE L-J SIGMA PARAMETERS
Info: BINARY COORDINATES     mobley_4043987_equil.coor
Info: SUMMARY OF PARAMETERS:
Info: 4 BONDS
Info: 3 ANGLES
Info:   3 HARMONIC
Info:   0 COSINE-BASED
Info: 5 DIHEDRAL
Info: 0 IMPROPER
Info: 0 CROSSTERM
Info: 0 VDW
Info: 10 VDW_PAIRS
Info: 0 NBTHOLE_PAIRS
Info: To read alchdata from file: mobley_4043987.pdb
Info: To read alchflag data from column: 5
Info: STRUCTURE SUMMARY:
Info: 2942 ATOMS
Info: 2941 BONDS
Info: 42 ANGLES
Info: 62 DIHEDRALS
Info: 0 IMPROPERS
Info: 0 CROSSTERMS
Info: 3037 EXCLUSIONS
Info: 2935 RIGID BONDS
Info: ALCH: 0 ATOMS TO DISAPPEAR IN FINAL STATE
Info: ALCH: 23 ATOMS TO APPEAR IN FINAL STATE
Info: 5891 DEGREES OF FREEDOM
Info: 980 HYDROGEN GROUPS
Info: 4 ATOMS IN LARGEST HYDROGEN GROUP
Info: 980 MIGRATION GROUPS
Info: 4 ATOMS IN LARGEST MIGRATION GROUP
Info: TOTAL MASS = 17629.8 amu
Info: TOTAL CHARGE = 0.0002 e
Info: MASS DENSITY = 0.984718 g/cm^3
Info: ATOM DENSITY = 0.0989575 atoms/A^3
Info: ADDED 0 IMPLICIT EXCLUSIONS
Info: NONBONDED TABLE R-SQUARED SPACING: 0.0625
Info: NONBONDED TABLE SIZE: 705 POINTS
Info: REMOVING COM VELOCITY -0.0204242 -0.0863469 0.151896
Info: Use 3D box decompostion in PME FFT.
Info: Updated CUDA force table with 4096 elements.
Info: Updated CUDA LJ table with 4 x 4 elements.
Info: Found 26 unique exclusion lists needing 80 bytes
TCL: Running for 1500000 steps
ETITLE: TS BOND ANGLE DIHED IMPRP ELECT VDW BOUNDARY MISC KINETIC TOTAL TEMP POTENTIAL TOTALAVG TEMPAVG PRESSURE GPRESSURE VOLUME PRESSAVG GPRESSAVG
ENERGY: 0 1.2204 16.0167 2.9263 0.0000 -10673.4450 1479.1294 0.0000 0.0000 1816.6287 -7357.5237 310.3613 -9174.1524 -7357.5237 310.3613 638.8304 734.7813 29729.9332 638.8304 734.7813
ENERGY: 300000 3.8821 12.1078 2.7469 0.0000 -10594.3147 1414.2099 0.0000 0.0000 1772.5021 -7388.8660 302.8225 -9161.3681 -7358.2381 308.7012 -414.9265 -302.9360 30457.8499 12.7579 97.4017
ENERGY: 600000 1.6867 11.7255 4.3225 0.0000 -10764.4199 1481.5318 0.0000 0.0000 1766.0931 -7499.0602 301.7275 -9265.1533 -7407.8963 305.3155 22.3949 50.7086 30344.0222 -215.7572 -153.7493
ENERGY: 900000 4.7939 7.0149 3.5170 0.0000 -10588.6632 1473.7417 0.0000 0.0000 1742.1883 -7357.4075 297.6435 -9099.5958 -7410.1783 302.5194 228.4159 317.6699 30521.4461 -148.4354 -83.7885
ENERGY: 1200000 2.7352 5.8750 3.1826 0.0000 -10629.0163 1471.6942 0.0000 0.0000 1786.1465 -7359.3828 305.1536 -9145.5293 -7398.7257 302.7969 527.9211 552.0962 29939.6445 -138.8930 -79.5105
ENERGY: 1500000 3.2339 8.7574 4.1591 0.0000 -10693.0002 1454.1549 0.0000 0.0000 1691.9630 -7530.7320 289.0628 -9222.6949 -7404.4563 301.8484 -36.7651 -0.9764 29798.3874 -122.5729 -59.5323
TCL: Running FEP window   2: Lambda1 0.05   Lambda2 0.1    [dLambda 0.05  ]
TCL: Setting parameter firsttimestep to 0
TCL: Setting parameter alchLambda to 0.05
Info: NONBONDED TABLE R-SQUARED SPACING: 0.0625
Info: NONBONDED TABLE SIZE: 705 POINTS
TCL: Setting parameter alchLambda2 to 0.1
Info: NONBONDED TABLE R-SQUARED SPACING: 0.0625
Info: NONBONDED TABLE SIZE: 705 POINTS
TCL: Running for 1500000 steps
ETITLE: TS BOND ANGLE DIHED IMPRP ELECT VDW BOUNDARY MISC KINETIC TOTAL TEMP POTENTIAL TOTALAVG TEMPAVG PRESSURE GPRESSURE VOLUME PRESSAVG GPRESSAVG
ENERGY: 0 3.2339 8.7574 4.1591 0.0000 -10692.9995 1457.4031 0.0000 0.0000 1691.0636 -7528.3825 288.9092 -9219.4461 -7528.3825 288.9092 -79.3297 5.5347 29798.3874 -79.3297 5.5347
ENERGY: 300000 4.6591 10.6410 2.6858 0.0000 -10615.0440 1444.2373 0.0000 0.0000 1742.0796 -7410.7411 297.6250 -9152.8207 -7442.5155 296.9904 -206.5062 -191.5316 30571.4205 51.8568 111.9005
ENERGY: 600000 4.3005 8.9945 2.8784 0.0000 -10620.5815 1413.9631 0.0000 0.0000 1763.4545 -7426.9905 301.2768 -9190.4450 -7435.0014 298.6984 -309.9985 -238.8132 30254.0279 11.2527 71.6768
ENERGY: 900000 3.3758 10.1886 3.2626 0.0000 -10579.5981 1529.6565 0.0000 0.0000 1730.7469 -7302.3677 295.6888 -9033.1146 -7422.3244 299.5200 1030.7201 1132.0561 30575.8748 46.3681 103.9656
ENERGY: 1200000 2.0761 14.2601 2.8176 0.0000 -10586.4193 1397.6550 0.0000 0.0000 1765.6338 -7403.9768 301.6491 -9169.6105 -7417.5787 300.3791 -469.6602 -356.7804 30304.7085 27.1295 88.9231
ENERGY: 1500000 2.2439 9.6749 3.5313 0.0000 -10629.6349 1432.4877 0.0000 0.0000 1744.4404 -7437.2566 298.0283 -9181.6970 -7414.3895 300.2304 -53.2173 -53.1309 30130.8157 -4.7355 51.4386
TCL: Running FEP window   3: Lambda1 0.1    Lambda2 0.15000000000000002 [dLambda 0.05000000000000002]
TCL: Setting parameter firsttimestep to 0
TCL: Setting parameter alchLambda to 0.1
Info: NONBONDED TABLE R-SQUARED SPACING: 0.0625
Info: NONBONDED TABLE SIZE: 705 POINTS
TCL: Setting parameter alchLambda2 to 0.15000000000000002
Info: NONBONDED TABLE R-SQUARED SPACING: 0.0625
Info: NONBONDED TABLE SIZE: 705 POINTS
TCL: Running for 1500000 steps
ETITLE: TS BOND ANGLE DIHED IMPRP ELECT VDW BOUNDARY MISC KINETIC TOTAL TEMP POTENTIAL TOTALAVG TEMPAVG PRESSURE GPRESSURE VOLUME PRESSAVG GPRESSAVG
ENERGY: 0 2.2439 9.6749 3.5313 0.0000 -10629.6341 1434.0379 0.0000 0.0000 1743.5712 -7436.5750 297.8798 -9180.1461 -7436.5750 297.8798 -121.4937 -46.1912 30130.8157 -121.4937 -46.1912
ENERGY: 300000 2.9505 12.0422 2.7867 0.0000 -10610.2462 1405.0589 0.0000 0.0000 1745.2142 -7442.1937 298.1605 -9187.4079 -7396.2365 298.7607 -227.3514 -182.0624 29907.2813 -304.5634 -239.0253
ENERGY: 600000 1.0109 10.5087 3.2105 0.0000 -10679.9202 1468.6028 0.0000 0.0000 1815.4385 -7381.1488 310.1579 -9196.5873 -7388.1792 302.2815 148.6192 222.3635 30242.6947 -100.2246 -41.4990
ENERGY: 900000 1.9071 8.8448 3.8117 0.0000 -10553.4301 1354.3813 0.0000 0.0000 1766.1339 -7418.3514 301.7345 -9184.4852 -7400.4235 301.5152 -695.8458 -660.6167 30344.3274 -34.2433 24.8817
ENERGY: 1200000 3.3999 8.9867 4.8280 0.0000 -10577.8269 1392.6004 0.0000 0.0000 1717.8814 -7450.1305 293.4908 -9168.0119 -7420.2816 299.4503 -534.2618 -484.6735 30209.1703 -97.5750 -42.1323
ENERGY: 1500000 3.9037 15.3581 3.3669 0.0000 -10637.5681 1464.5346 0.0000 0.0000 1787.2190 -7363.1858 305.3368 -9150.4049 -7414.8844 300.4914 44.8593 101.1554 30137.2901 -25.5573 25.8648
TCL: Running FEP window   4: Lambda1 0.15000000000000002 Lambda2 0.2    [dLambda 0.04999999999999999]
TCL: Setting parameter firsttimestep to 0
TCL: Setting parameter alchLambda to 0.15000000000000002
Info: NONBONDED TABLE R-SQUARED SPACING: 0.0625
Info: NONBONDED TABLE SIZE: 705 POINTS
TCL: Setting parameter alchLambda2 to 0.2
Info: NONBONDED TABLE R-SQUARED SPACING: 0.0625
Info: NONBONDED TABLE SIZE: 705 POINTS
TCL: Running for 1500000 steps
ETITLE: TS BOND ANGLE DIHED IMPRP ELECT VDW BOUNDARY MISC KINETIC TOTAL TEMP POTENTIAL TOTALAVG TEMPAVG PRESSURE GPRESSURE VOLUME PRESSAVG GPRESSAVG
ENERGY: 0 3.9037 15.3581 3.3669 0.0000 -10637.5681 1465.2503 0.0000 0.0000 1786.2845 -7363.4046 305.1771 -9149.6891 -7363.4046 305.1771 23.5665 107.0161 30137.2901 23.5665 107.0161
ENERGY: 300000 1.4779 13.4968 3.4538 0.0000 -10584.2834 1395.0055 0.0000 0.0000 1804.2178 -7366.6316 308.2409 -9170.8494 -7400.3138 303.5534 -466.2659 -426.9944 30610.8695 -45.6402 -12.6384
ENERGY: 600000 0.9945 11.6133 2.8926 0.0000 -10548.2119 1369.0599 0.0000 0.0000 1796.0399 -7367.6119 306.8438 -9163.6517 -7414.6295 303.6119 -369.6704 -309.4451 29882.9546 -199.1661 -153.9859
ENERGY: 900000 0.3906 8.9608 4.2652 0.0000 -10574.7212 1398.1749 0.0000 0.0000 1771.1253 -7391.8045 302.5873 -9162.9298 -7413.7930 301.9508 95.8251 161.2112 29672.7842 0.8329 47.8326
ENERGY: 1200000 1.4532 13.3478 5.1711 0.0000 -10569.6831 1384.5240 0.0000 0.0000 1758.8330 -7406.3539 300.4872 -9165.1869 -7419.0452 300.8918 -379.3857 -371.5708 30587.1774 -87.8137 -43.0070
ENERGY: 1500000 1.6448 10.5874 3.2809 0.0000 -10638.8305 1428.3999 0.0000 0.0000 1795.3122 -7399.6052 306.7195 -9194.9175 -7421.1752 301.5422 26.7697 76.5221 29737.5164 -20.0797 30.8606
TCL: Running FEP window   5: Lambda1 0.2    Lambda2 0.25   [dLambda 0.04999999999999999]
TCL: Setting parameter firsttimestep to 0
TCL: Setting parameter alchLambda to 0.2
Info: NONBONDED TABLE R-SQUARED SPACING: 0.0625
Info: NONBONDED TABLE SIZE: 705 POINTS
TCL: Setting parameter alchLambda2 to 0.25
Info: NONBONDED TABLE R-SQUARED SPACING: 0.0625
Info: NONBONDED TABLE SIZE: 705 POINTS
TCL: Running for 1500000 steps
ETITLE: TS BOND ANGLE DIHED IMPRP ELECT VDW BOUNDARY MISC KINETIC TOTAL TEMP POTENTIAL TOTALAVG TEMPAVG PRESSURE GPRESSURE VOLUME PRESSAVG GPRESSAVG
ENERGY: 0 1.6448 10.5874 3.2809 0.0000 -10638.8297 1430.7402 0.0000 0.0000 1794.4308 -7398.1456 306.5689 -9192.5763 -7398.1456 306.5689 9.7471 88.3733 29737.5164 9.7471 88.3733
ENERGY: 300000 4.6955 12.0400 3.1371 0.0000 -10781.7607 1548.3527 0.0000 0.0000 1790.6003 -7422.9351 305.9145 -9213.5354 -7425.1639 303.2214 886.7138 937.9209 30074.8124 88.8653 137.8515
ENERGY: 600000 1.2343 7.7273 2.4050 0.0000 -10462.8294 1333.8941 0.0000 0.0000 1736.3809 -7381.1879 296.6514 -9117.5688 -7425.7078 299.3511 -655.6908 -592.0414 30279.4793 -27.5846 34.3615
ENERGY: 900000 1.0478 12.4003 3.6005 0.0000 -10601.1628 1484.6553 0.0000 0.0000 1806.4348 -7293.0241 308.6197 -9099.4589 -7412.3847 301.3463 615.8151 630.9646 30352.3263 129.3742 191.3640
ENERGY: 1200000 1.7581 6.1867 2.9120 0.0000 -10716.6200 1456.6896 0.0000 0.0000 1714.6026 -7534.4709 292.9307 -9249.0735 -7416.1340 300.8105 -111.7776 -25.5905 30367.7920 72.3208 131.6702
ENERGY: 1500000 1.7927 9.4378 2.7615 0.0000 -10712.4881 1509.2684 0.0000 0.0000 1786.8026 -7402.4252 305.2657 -9189.2278 -7416.2226 300.7425 828.3295 938.2259 29628.4104 128.3130 183.7292
TCL: Running FEP window   6: Lambda1 0.25   Lambda2 0.3    [dLambda 0.04999999999999999]
TCL: Setting parameter firsttimestep to 0
TCL: Setting parameter alchLambda to 0.25
Info: NONBONDED TABLE R-SQUARED SPACING: 0.0625
Info: NONBONDED TABLE SIZE: 705 POINTS
TCL: Setting parameter alchLambda2 to 0.3
Info: NONBONDED TABLE R-SQUARED SPACING: 0.0625
Info: NONBONDED TABLE SIZE: 705 POINTS
TCL: Running for 1500000 steps
ETITLE: TS BOND ANGLE DIHED IMPRP ELECT VDW BOUNDARY MISC KINETIC TOTAL TEMP POTENTIAL TOTALAVG TEMPAVG PRESSURE GPRESSURE VOLUME PRESSAVG GPRESSAVG
ENERGY: 0 1.7927 9.4378 2.7615 0.0000 -10712.4885 1511.2570 0.0000 0.0000 1785.9255 -7401.3141 305.1158 -9187.2396 -7401.3141 305.1158 866.5948 952.7537 29628.4104 866.5948 952.7537
ENERGY: 300000 1.3121 10.3350 4.0972 0.0000 -10765.2922 1555.3388 0.0000 0.0000 1748.0246 -7446.1844 298.6406 -9194.2090 -7429.0633 302.1604 929.0011 957.3452 30194.0939 342.9207 425.3160
ENERGY: 600000 6.6250 11.9177 3.2771 0.0000 -10542.1020 1391.4098 0.0000 0.0000 1796.0108 -7332.8616 306.8388 -9128.8724 -7419.8064 300.5048 -471.6630 -447.8182 30657.2667 14.6259 71.9652
ENERGY: 900000 1.8881 13.7655 2.7991 0.0000 -10624.3077 1426.4238 0.0000 0.0000 1835.3321 -7344.0991 313.5567 -9179.4311 -7422.9759 300.6263 -164.0007 -107.0027 30427.8984 -107.4763 -43.9760
ENERGY: 1200000 0.6764 7.6426 3.3871 0.0000 -10669.6381 1474.3927 0.0000 0.0000 1782.8814 -7400.6578 304.5957 -9183.5392 -7417.1510 300.2305 452.4850 529.1332 30139.9109 -81.8681 -14.4930
ENERGY: 1500000 2.2200 12.4762 3.5235 0.0000 -10701.7595 1422.6519 0.0000 0.0000 1769.2454 -7491.6424 302.2661 -9260.8878 -7416.0520 300.7973 -402.7625 -361.5904 30257.0215 -100.9096 -32.8695
TCL: Running FEP window   7: Lambda1 0.3    Lambda2 0.35   [dLambda 0.04999999999999999]
TCL: Setting parameter firsttimestep to 0
TCL: Setting parameter alchLambda to 0.3
Info: NONBONDED TABLE R-SQUARED SPACING: 0.0625
Info: NONBONDED TABLE SIZE: 705 POINTS
TCL: Setting parameter alchLambda2 to 0.35
Info: NONBONDED TABLE R-SQUARED SPACING: 0.0625
Info: NONBONDED TABLE SIZE: 705 POINTS
TCL: Running for 1500000 steps
ETITLE: TS BOND ANGLE DIHED IMPRP ELECT VDW BOUNDARY MISC KINETIC TOTAL TEMP POTENTIAL TOTALAVG TEMPAVG PRESSURE GPRESSURE VOLUME PRESSAVG GPRESSAVG
ENERGY: 0 2.2200 12.4762 3.5235 0.0000 -10701.7578 1423.1394 0.0000 0.0000 1768.3540 -7492.0447 302.1138 -9260.3987 -7492.0447 302.1138 -427.6056 -354.2261 30257.0215 -427.6056 -354.2261
ENERGY: 300000 1.1994 11.8704 2.2661 0.0000 -10611.8306 1461.9096 0.0000 0.0000 1793.7472 -7340.8378 306.4521 -9134.5850 -7379.8070 302.8639 240.1209 311.9960 30284.7551 39.9542 111.3753
ENERGY: 600000 2.0537 16.1667 5.9594 0.0000 -10720.4335 1526.1109 0.0000 0.0000 1806.2736 -7363.8692 308.5922 -9170.1428 -7408.7919 302.1695 757.4254 786.0346 30157.4381 195.7881 270.6436
ENERGY: 900000 1.6329 8.3994 5.1928 0.0000 -10549.6569 1403.1532 0.0000 0.0000 1777.3490 -7353.9295 303.6506 -9131.2785 -7404.1869 302.8781 -204.4662 -87.6633 30365.4718 203.2632 283.2299
ENERGY: 1200000 1.3098 8.4174 3.6432 0.0000 -10562.8389 1405.5621 0.0000 0.0000 1777.7461 -7366.1604 303.7184 -9143.9065 -7406.1410 302.0530 -167.1666 -97.3757 30524.2284 126.5996 206.4043
ENERGY: 1500000 1.0455 8.3641 5.7339 0.0000 -10611.3910 1380.2853 0.0000 0.0000 1793.1173 -7422.8449 306.3445 -9215.9622 -7399.0897 302.6803 -714.5138 -597.5284 30800.0734 36.8912 115.5896
TCL: Running FEP window   8: Lambda1 0.35   Lambda2 0.39999999999999997 [dLambda 0.04999999999999999]
TCL: Setting parameter firsttimestep to 0
TCL: Setting parameter alchLambda to 0.35
Info: NONBONDED TABLE R-SQUARED SPACING: 0.0625
Info: NONBONDED TABLE SIZE: 705 POINTS
TCL: Setting parameter alchLambda2 to 0.39999999999999997
Info: NONBONDED TABLE R-SQUARED SPACING: 0.0625
Info: NONBONDED TABLE SIZE: 705 POINTS
TCL: Running for 1500000 steps
ETITLE: TS BOND ANGLE DIHED IMPRP ELECT VDW BOUNDARY MISC KINETIC TOTAL TEMP POTENTIAL TOTALAVG TEMPAVG PRESSURE GPRESSURE VOLUME PRESSAVG GPRESSAVG
ENERGY: 0 1.0455 8.3641 5.7339 0.0000 -10611.3905 1380.3854 0.0000 0.0000 1792.2238 -7423.6377 306.1918 -9215.8615 -7423.6377 306.1918 -670.3325 -591.6323 30800.0734 -670.3325 -591.6323
ENERGY: 300000 2.7875 10.5060 4.1813 0.0000 -10644.3552 1414.9792 0.0000 0.0000 1786.4501 -7425.4511 305.2054 -9211.9012 -7415.2235 304.4946 -509.5279 -429.2621 30325.4288 -306.3480 -234.2746
ENERGY: 600000 1.5785 12.5429 4.6283 0.0000 -10666.9003 1487.2453 0.0000 0.0000 1747.5031 -7413.4022 298.5515 -9160.9053 -7406.1196 304.0185 564.1677 678.0497 29837.2848 55.4247 128.0917
ENERGY: 900000 1.5465 12.2923 5.3530 0.0000 -10495.7797 1340.2622 0.0000 0.0000 1747.6407 -7388.6849 298.5751 -9136.3256 -7404.9892 302.9427 -626.7155 -587.9161 30216.0348 17.1987 85.9522
ENERGY: 1200000 1.5191 8.4302 3.7487 0.0000 -10595.2201 1406.6700 0.0000 0.0000 1749.4293 -7425.4229 298.8806 -9174.8522 -7402.2846 301.9063 -520.7666 -449.7343 30845.8113 -83.7858 -18.1493
ENERGY: 1500000 1.7418 10.9646 4.7074 0.0000 -10677.0030 1478.6887 0.0000 0.0000 1749.8602 -7431.0404 298.9542 -9180.9006 -7400.9629 301.2587 605.4635 640.1825 29844.9255 -19.7229 41.2577
TCL: Running FEP window   9: Lambda1 0.39999999999999997 Lambda2 0.44999999999999996 [dLambda 0.04999999999999999]
TCL: Setting parameter firsttimestep to 0
TCL: Setting parameter alchLambda to 0.39999999999999997
Info: NONBONDED TABLE R-SQUARED SPACING: 0.0625
Info: NONBONDED TABLE SIZE: 705 POINTS
TCL: Setting parameter alchLambda2 to 0.44999999999999996
Info: NONBONDED TABLE R-SQUARED SPACING: 0.0625
Info: NONBONDED TABLE SIZE: 705 POINTS
TCL: Running for 1500000 steps
ETITLE: TS BOND ANGLE DIHED IMPRP ELECT VDW BOUNDARY MISC KINETIC TOTAL TEMP POTENTIAL TOTALAVG TEMPAVG PRESSURE GPRESSURE VOLUME PRESSAVG GPRESSAVG
ENERGY: 0 1.7418 10.9646 4.7074 0.0000 -10677.0035 1479.3449 0.0000 0.0000 1748.9897 -7431.2552 298.8055 -9180.2449 -7431.2552 298.8055 566.5830 652.8061 29844.9255 566.5830 652.8061
ENERGY: 300000 4.3495 11.9097 5.1410 0.0000 -10748.6214 1540.8093 0.0000 0.0000 1743.0664 -7443.3455 297.7936 -9186.4119 -7441.9982 299.2323 830.5984 852.5258 30112.0708 299.9203 338.2717
ENERGY: 600000 3.5486 12.9680 4.9595 0.0000 -10654.9610 1435.9511 0.0000 0.0000 1781.7230 -7415.8108 304.3978 -9197.5338 -7455.5538 298.6505 51.8833 109.7516 30156.0693 165.8281 226.3436
ENERGY: 900000 1.1012 9.2641 2.8047 0.0000 -10734.9322 1424.1839 0.0000 0.0000 1764.0117 -7533.5666 301.3719 -9297.5783 -7453.9288 299.2911 -160.3526 -135.8682 29838.5974 78.8115 132.5512
ENERGY: 1200000 1.1034 10.1324 3.3242 0.0000 -10676.3383 1510.6399 0.0000 0.0000 1768.6843 -7382.4542 302.1702 -9151.1384 -7453.4276 299.2919 605.5819 658.7343 30390.5747 167.1124 217.7945
ENERGY: 1500000 1.2670 8.4368 4.7110 0.0000 -10565.9918 1414.5951 0.0000 0.0000 1745.1735 -7391.8084 298.1535 -9136.9820 -7443.5194 299.1616 -31.0307 14.2690 30372.5358 123.7115 176.1803
TCL: Running FEP window  10: Lambda1 0.44999999999999996 Lambda2 0.49999999999999994 [dLambda 0.04999999999999999]
TCL: Setting parameter firsttimestep to 0
TCL: Setting parameter alchLambda to 0.44999999999999996
Info: NONBONDED TABLE R-SQUARED SPACING: 0.0625
Info: NONBONDED TABLE SIZE: 705 POINTS
TCL: Setting parameter alchLambda2 to 0.49999999999999994
Info: NONBONDED TABLE R-SQUARED SPACING: 0.0625
Info: NONBONDED TABLE SIZE: 705 POINTS
TCL: Running for 1500000 steps
ETITLE: TS BOND ANGLE DIHED IMPRP ELECT VDW BOUNDARY MISC KINETIC TOTAL TEMP POTENTIAL TOTALAVG TEMPAVG PRESSURE GPRESSURE VOLUME PRESSAVG GPRESSAVG
ENERGY: 0 1.2670 8.4368 4.7110 0.0000 -10565.9912 1414.7643 0.0000 0.0000 1744.3053 -7392.5069 298.0052 -9136.8122 -7392.5069 298.0052 -63.4378 22.1146 30372.5358 -63.4378 22.1146
ENERGY: 300000 5.0020 17.5561 2.7908 0.0000 -10493.6193 1325.9286 0.0000 0.0000 1691.7910 -7450.5508 289.0334 -9142.3418 -7419.6803 298.0631 -939.3687 -839.9530 30336.8209 -554.4150 -482.1703
ENERGY: 600000 1.5495 11.3310 3.3172 0.0000 -10650.6567 1423.6489 0.0000 0.0000 1738.6483 -7472.1619 297.0387 -9210.8102 -7420.4689 299.1081 8.5790 52.3367 29837.8989 -381.4286 -315.8863
ENERGY: 900000 2.0327 8.9319 3.3432 0.0000 -10677.1832 1473.1166 0.0000 0.0000 1733.1821 -7456.5766 296.1049 -9189.7587 -7419.5156 299.2520 45.7509 119.0356 30383.4064 -259.4712 -196.9344
ENERGY: 1200000 2.1379 8.2329 2.9933 0.0000 -10792.6949 1487.7445 0.0000 0.0000 1761.5265 -7530.0598 300.9474 -9291.5863 -7425.5430 300.1142 272.7090 303.9951 29752.9984 -187.5825 -125.9444
ENERGY: 1500000 2.8060 10.4304 4.4090 0.0000 -10628.9712 1426.1196 0.0000 0.0000 1757.9810 -7427.2253 300.3416 -9185.2063 -7433.7350 299.4677 -101.0736 -54.7828 30202.6083 -237.1858 -177.6759
TCL: Running FEP window  11: Lambda1 0.49999999999999994 Lambda2 0.5499999999999999 [dLambda 0.04999999999999999]
TCL: Setting parameter firsttimestep to 0
TCL: Setting parameter alchLambda to 0.49999999999999994
Info: NONBONDED TABLE R-SQUARED SPACING: 0.0625
Info: NONBONDED TABLE SIZE: 705 POINTS
TCL: Setting parameter alchLambda2 to 0.5499999999999999
Info: NONBONDED TABLE R-SQUARED SPACING: 0.0625
Info: NONBONDED TABLE SIZE: 705 POINTS
TCL: Running for 1500000 steps
ETITLE: TS BOND ANGLE DIHED IMPRP ELECT VDW BOUNDARY MISC KINETIC TOTAL TEMP POTENTIAL TOTALAVG TEMPAVG PRESSURE GPRESSURE VOLUME PRESSAVG GPRESSAVG
ENERGY: 0 2.8060 10.4304 4.4090 0.0000 -10628.9692 1427.1639 0.0000 0.0000 1757.0860 -7427.0741 300.1887 -9184.1600 -7427.0741 300.1887 -126.6323 -37.3484 30202.6083 -126.6323 -37.3484
ENERGY: 300000 1.1444 15.1129 2.4290 0.0000 -10645.0969 1421.9022 0.0000 0.0000 1747.8669 -7456.6415 298.6137 -9204.5084 -7446.3490 300.1844 -278.8883 -240.2543 30918.0058 -21.7639 27.4623
ENERGY: 600000 2.7534 13.3688 2.8312 0.0000 -10616.5897 1402.9563 0.0000 0.0000 1726.5883 -7468.0916 294.9784 -9194.6800 -7466.2205 297.1159 -363.5064 -289.9564 30045.6175 -70.9652 -20.2858
ENERGY: 900000 0.9485 15.2244 4.9806 0.0000 -10564.1459 1379.8701 0.0000 0.0000 1738.0172 -7425.1052 296.9309 -9163.1224 -7442.8307 297.8434 -567.0175 -530.3636 30576.2549 -118.8846 -68.9294
ENERGY: 1200000 3.5381 12.8305 3.2159 0.0000 -10662.8759 1484.4959 0.0000 0.0000 1780.0645 -7378.7310 304.1145 -9158.7955 -7436.7629 298.0969 160.1993 231.0624 30412.3319 -40.3087 9.4705
ENERGY: 1500000 0.7796 10.3353 4.1231 0.0000 -10550.0519 1359.9009 0.0000 0.0000 1757.3366 -7417.5764 300.2315 -9174.9131 -7425.6659 298.8654 -684.6287 -615.0911 30510.4643 -83.7402 -28.6735
TCL: Running FEP window  12: Lambda1 0.5499999999999999 Lambda2 0.6    [dLambda 0.050000000000000044]
TCL: Setting parameter firsttimestep to 0
TCL: Setting parameter alchLambda to 0.5499999999999999
Info: NONBONDED TABLE R-SQUARED SPACING: 0.0625
Info: NONBONDED TABLE SIZE: 705 POINTS
TCL: Setting parameter alchLambda2 to 0.6
Info: NONBONDED TABLE R-SQUARED SPACING: 0.0625
Info: NONBONDED TABLE SIZE: 705 POINTS
TCL: Running for 1500000 steps
ETITLE: TS BOND ANGLE DIHED IMPRP ELECT VDW BOUNDARY MISC KINETIC TOTAL TEMP POTENTIAL TOTALAVG TEMPAVG PRESSURE GPRESSURE VOLUME PRESSAVG GPRESSAVG
ENERGY: 0 0.7796 10.3352 4.1231 0.0000 -10550.0289 1360.2814 0.0000 0.0000 1756.4647 -7418.0448 300.0826 -9174.5095 -7418.0448 300.0826 -672.6520 -602.1319 30510.4643 -672.6520 -602.1319
ENERGY: 300000 2.0862 8.2143 5.1559 0.0000 -10671.6086 1465.2504 0.0000 0.0000 1719.1817 -7471.7200 293.7130 -9190.9017 -7463.1726 295.6177 303.3007 305.5552 30243.3688 -89.8865 -49.7216
ENERGY: 600000 1.0525 6.5242 4.3116 0.0000 -10721.3230 1475.3924 0.0000 0.0000 1765.5211 -7468.5212 301.6298 -9234.0423 -7479.5176 298.6080 360.9344 402.7868 29948.8432 87.9339 122.7707
ENERGY: 900000 1.0476 10.1237 4.6794 0.0000 -10697.1676 1450.6466 0.0000 0.0000 1741.4096 -7489.2606 297.5105 -9230.6703 -7484.7878 299.1096 176.7513 324.7883 29742.3501 -49.6383 0.4904
ENERGY: 1200000 1.6198 14.6054 2.7458 0.0000 -10659.6543 1512.3545 0.0000 0.0000 1827.2604 -7301.0684 312.1776 -9128.3287 -7469.4208 299.5459 488.5296 534.5659 30715.3046 -71.2350 -18.0490
ENERGY: 1500000 1.6544 7.7789 1.9942 0.0000 -10579.7224 1391.1614 0.0000 0.0000 1754.6617 -7422.4719 299.7745 -9177.1336 -7455.7341 299.2233 -293.7120 -225.5968 30507.0894 -126.9342 -71.8194
TCL: Running FEP window  13: Lambda1 0.6    Lambda2 0.65   [dLambda 0.050000000000000044]
TCL: Setting parameter firsttimestep to 0
TCL: Setting parameter alchLambda to 0.6
Info: NONBONDED TABLE R-SQUARED SPACING: 0.0625
Info: NONBONDED TABLE SIZE: 705 POINTS
TCL: Setting parameter alchLambda2 to 0.65
Info: NONBONDED TABLE R-SQUARED SPACING: 0.0625
Info: NONBONDED TABLE SIZE: 705 POINTS
TCL: Running for 1500000 steps
ETITLE: TS BOND ANGLE DIHED IMPRP ELECT VDW BOUNDARY MISC KINETIC TOTAL TEMP POTENTIAL TOTALAVG TEMPAVG PRESSURE GPRESSURE VOLUME PRESSAVG GPRESSAVG
ENERGY: 0 1.6544 7.7789 1.9942 0.0000 -10579.7132 1391.1143 0.0000 0.0000 1753.7828 -7423.3886 299.6244 -9177.1714 -7423.3886 299.6244 -301.8360 -217.0017 30507.0894 -301.8360 -217.0017
ENERGY: 300000 2.8920 9.2089 3.8114 0.0000 -10544.1416 1420.6489 0.0000 0.0000 1783.2659 -7324.3146 304.6614 -9107.5804 -7408.2488 299.4502 272.2733 275.5435 30361.7738 -165.3348 -78.2951
ENERGY: 600000 2.2553 9.2106 3.7112 0.0000 -10694.0111 1425.7349 0.0000 0.0000 1749.8665 -7503.2327 298.9553 -9253.0991 -7439.2930 299.6922 -153.7070 -172.1193 30046.9888 -90.6575 -20.7686
ENERGY: 900000 2.9795 10.9288 4.8829 0.0000 -10529.5259 1409.5098 0.0000 0.0000 1753.9258 -7347.2989 299.6488 -9101.2247 -7437.0449 298.5318 63.4823 199.2537 30220.0272 -130.3256 -54.7081
ENERGY: 1200000 3.0701 14.5388 3.6171 0.0000 -10600.2010 1419.0478 0.0000 0.0000 1762.3132 -7397.6139 301.0818 -9159.9272 -7440.8674 298.3151 32.5338 68.3093 30272.1852 -136.4412 -73.8575
ENERGY: 1500000 2.4890 14.5099 3.8326 0.0000 -10577.0828 1357.1999 0.0000 0.0000 1754.0594 -7444.9922 299.6717 -9199.0516 -7437.0379 298.5825 -609.5191 -520.4045 30093.6346 -186.0063 -125.0700
TCL: Running FEP window  14: Lambda1 0.65   Lambda2 0.7000000000000001 [dLambda 0.050000000000000044]
TCL: Setting parameter firsttimestep to 0
TCL: Setting parameter alchLambda to 0.65
Info: NONBONDED TABLE R-SQUARED SPACING: 0.0625
Info: NONBONDED TABLE SIZE: 705 POINTS
TCL: Setting parameter alchLambda2 to 0.7000000000000001
Info: NONBONDED TABLE R-SQUARED SPACING: 0.0625
Info: NONBONDED TABLE SIZE: 705 POINTS
TCL: Running for 1500000 steps
ETITLE: TS BOND ANGLE DIHED IMPRP ELECT VDW BOUNDARY MISC KINETIC TOTAL TEMP POTENTIAL TOTALAVG TEMPAVG PRESSURE GPRESSURE VOLUME PRESSAVG GPRESSAVG
ENERGY: 0 2.4890 14.5099 3.8326 0.0000 -10577.1024 1357.5561 0.0000 0.0000 1753.2025 -7445.5124 299.5253 -9198.7149 -7445.5124 299.5253 -585.3706 -506.4890 30093.6346 -585.3706 -506.4890
ENERGY: 300000 1.8950 8.4145 3.0225 0.0000 -10400.9685 1285.5217 0.0000 0.0000 1780.0038 -7322.1109 304.1041 -9102.1147 -7418.7699 299.5987 -980.1629 -908.0116 30702.6249 -496.9198 -417.4744
ENERGY: 600000 1.8482 10.3940 2.6797 0.0000 -10662.2043 1416.6554 0.0000 0.0000 1804.7768 -7425.8504 308.3364 -9230.6271 -7440.9727 299.6109 -317.1845 -274.2257 30520.6092 -334.5249 -243.0692
ENERGY: 900000 1.5235 6.8887 3.4002 0.0000 -10661.6910 1440.9151 0.0000 0.0000 1749.6462 -7459.3172 298.9177 -9208.9634 -7428.1700 299.0877 -49.6704 -1.2315 30357.1401 -251.2364 -172.4397
ENERGY: 1200000 2.5994 12.3090 4.0121 0.0000 -10566.8073 1425.9443 0.0000 0.0000 1748.7381 -7373.2043 298.7625 -9121.9424 -7417.3484 299.2476 -28.7541 30.0672 30311.5348 -280.1500 -209.6093
ENERGY: 1500000 2.4965 7.5614 4.4221 0.0000 -10612.9228 1437.3941 0.0000 0.0000 1777.1006 -7383.9481 303.6081 -9161.0487 -7414.2509 299.5479 241.5752 330.3926 30046.7321 -147.3896 -77.5076
TCL: Running FEP window  15: Lambda1 0.7000000000000001 Lambda2 0.7500000000000001 [dLambda 0.050000000000000044]
TCL: Setting parameter firsttimestep to 0
TCL: Setting parameter alchLambda to 0.7000000000000001
Info: NONBONDED TABLE R-SQUARED SPACING: 0.0625
Info: NONBONDED TABLE SIZE: 705 POINTS
TCL: Setting parameter alchLambda2 to 0.7500000000000001
Info: NONBONDED TABLE R-SQUARED SPACING: 0.0625
Info: NONBONDED TABLE SIZE: 705 POINTS
TCL: Running for 1500000 steps
ETITLE: TS BOND ANGLE DIHED IMPRP ELECT VDW BOUNDARY MISC KINETIC TOTAL TEMP POTENTIAL TOTALAVG TEMPAVG PRESSURE GPRESSURE VOLUME PRESSAVG GPRESSAVG
ENERGY: 0 2.4965 7.5614 4.4221 0.0000 -10612.8973 1437.4648 0.0000 0.0000 1776.2151 -7384.7375 303.4568 -9160.9526 -7384.7375 303.4568 256.7896 341.8348 30046.7321 256.7896 341.8348
ENERGY: 300000 2.2222 8.9036 3.9719 0.0000 -10478.1295 1312.6501 0.0000 0.0000 1757.4842 -7392.8975 300.2568 -9150.3818 -7347.4064 301.3456 -884.8216 -863.7027 30526.4016 105.8396 173.4881
ENERGY: 600000 1.6902 12.4964 3.0717 0.0000 -10710.6514 1453.3093 0.0000 0.0000 1722.1551 -7517.9287 294.2210 -9240.0839 -7398.4728 298.8413 -56.8503 -47.1325 30359.2439 -69.7199 -15.3528
ENERGY: 900000 1.5594 16.1669 2.6586 0.0000 -10623.0885 1392.2866 0.0000 0.0000 1786.0641 -7424.3528 305.1395 -9210.4169 -7394.8689 299.2614 -472.4100 -378.3828 30542.4563 -120.1779 -60.3280
ENERGY: 1200000 3.3517 14.1254 2.8056 0.0000 -10706.0146 1472.7054 0.0000 0.0000 1789.7948 -7423.2317 305.7768 -9213.0265 -7404.6787 299.6047 215.9485 279.1545 30094.5091 -62.8321 0.4511
ENERGY: 1500000 5.3593 10.6534 2.5367 0.0000 -10599.5817 1450.6361 0.0000 0.0000 1773.9160 -7356.4802 303.0640 -9130.3963 -7408.5514 300.7841 -7.5791 99.3305 30374.9671 -93.3106 -28.8549
TCL: Running FEP window  16: Lambda1 0.7500000000000001 Lambda2 0.8000000000000002 [dLambda 0.050000000000000044]
TCL: Setting parameter firsttimestep to 0
TCL: Setting parameter alchLambda to 0.7500000000000001
Info: NONBONDED TABLE R-SQUARED SPACING: 0.0625
Info: NONBONDED TABLE SIZE: 705 POINTS
TCL: Setting parameter alchLambda2 to 0.8000000000000002
Info: NONBONDED TABLE R-SQUARED SPACING: 0.0625
Info: NONBONDED TABLE SIZE: 705 POINTS
TCL: Running for 1500000 steps
ETITLE: TS BOND ANGLE DIHED IMPRP ELECT VDW BOUNDARY MISC KINETIC TOTAL TEMP POTENTIAL TOTALAVG TEMPAVG PRESSURE GPRESSURE VOLUME PRESSAVG GPRESSAVG
ENERGY: 0 5.3593 10.6534 2.5367 0.0000 -10599.5530 1450.7597 0.0000 0.0000 1773.0414 -7357.2025 302.9146 -9130.2439 -7357.2025 302.9146 9.7223 109.5352 30374.9671 9.7223 109.5352
ENERGY: 300000 1.7908 9.1559 3.2656 0.0000 -10585.6164 1378.0241 0.0000 0.0000 1754.4376 -7438.9425 299.7363 -9193.3801 -7399.4921 299.3245 -239.7678 -160.6340 29976.7908 38.2810 132.5197
ENERGY: 600000 3.9602 13.0093 3.0628 0.0000 -10673.0931 1479.3929 0.0000 0.0000 1758.4914 -7415.1766 300.4288 -9173.6680 -7401.0119 299.3005 29.0406 146.0767 30936.5320 27.6284 112.8511
ENERGY: 900000 2.4658 12.6354 4.3958 0.0000 -10664.6306 1484.6440 0.0000 0.0000 1705.2934 -7455.1962 291.3402 -9160.4897 -7411.0456 299.2402 44.0849 24.9219 30967.4337 124.7417 183.8639
ENERGY: 1200000 2.3246 10.5080 2.8078 0.0000 -10503.2671 1291.4489 0.0000 0.0000 1789.3048 -7406.8730 305.6931 -9196.1778 -7414.5287 299.8478 -892.5206 -899.7795 30247.3676 3.4492 54.8579
ENERGY: 1500000 2.1614 15.3901 3.5771 0.0000 -10645.4600 1413.4678 0.0000 0.0000 1777.1063 -7433.7573 303.6091 -9210.8636 -7418.7225 299.9827 -261.7836 -264.0175 30572.2102 -37.4342 12.8841
TCL: Running FEP window  17: Lambda1 0.8000000000000002 Lambda2 0.8500000000000002 [dLambda 0.050000000000000044]
TCL: Setting parameter firsttimestep to 0
TCL: Setting parameter alchLambda to 0.8000000000000002
Info: NONBONDED TABLE R-SQUARED SPACING: 0.0625
Info: NONBONDED TABLE SIZE: 705 POINTS
TCL: Setting parameter alchLambda2 to 0.8500000000000002
Info: NONBONDED TABLE R-SQUARED SPACING: 0.0625
Info: NONBONDED TABLE SIZE: 705 POINTS
TCL: Running for 1500000 steps
ETITLE: TS BOND ANGLE DIHED IMPRP ELECT VDW BOUNDARY MISC KINETIC TOTAL TEMP POTENTIAL TOTALAVG TEMPAVG PRESSURE GPRESSURE VOLUME PRESSAVG GPRESSAVG
ENERGY: 0 2.1614 15.3901 3.5771 0.0000 -10645.4436 1414.6861 0.0000 0.0000 1776.2267 -7433.4022 303.4588 -9209.6289 -7433.4022 303.4588 -324.7615 -235.5636 30572.2102 -324.7615 -235.5636
ENERGY: 300000 0.7559 13.7274 3.3447 0.0000 -10831.3442 1521.0733 0.0000 0.0000 1752.4385 -7540.0045 299.3947 -9292.4430 -7466.3851 298.7280 533.2518 593.8173 29965.5253 167.9090 233.8636
ENERGY: 600000 2.9612 8.9979 3.8816 0.0000 -10608.0788 1404.8950 0.0000 0.0000 1686.6084 -7500.7347 288.1480 -9187.3431 -7461.6705 299.0018 -249.2686 -267.8352 30498.9802 -126.4481 -74.6798
ENERGY: 900000 3.3442 11.6003 4.6327 0.0000 -10606.9165 1498.8427 0.0000 0.0000 1768.3820 -7320.1146 302.1186 -9088.4966 -7428.5132 300.9580 728.2822 839.9723 30164.7079 -2.8204 52.4130
ENERGY: 1200000 1.0391 8.4196 3.2349 0.0000 -10617.3157 1431.3148 0.0000 0.0000 1709.8907 -7463.4166 292.1257 -9173.3073 -7428.1921 300.2165 86.5537 132.2039 30165.7947 -40.6319 11.1968
ENERGY: 1500000 0.6225 15.7133 7.0629 0.0000 -10688.5167 1485.1968 0.0000 0.0000 1755.9491 -7423.9722 299.9945 -9179.9213 -7430.3974 299.6673 410.2415 402.5230 30606.3829 54.7081 101.1158
TCL: Running FEP window  18: Lambda1 0.8500000000000002 Lambda2 0.9000000000000002 [dLambda 0.050000000000000044]
TCL: Setting parameter firsttimestep to 0
TCL: Setting parameter alchLambda to 0.8500000000000002
Info: NONBONDED TABLE R-SQUARED SPACING: 0.0625
Info: NONBONDED TABLE SIZE: 705 POINTS
TCL: Setting parameter alchLambda2 to 0.9000000000000002
Info: NONBONDED TABLE R-SQUARED SPACING: 0.0625
Info: NONBONDED TABLE SIZE: 705 POINTS
TCL: Running for 1500000 steps
ETITLE: TS BOND ANGLE DIHED IMPRP ELECT VDW BOUNDARY MISC KINETIC TOTAL TEMP POTENTIAL TOTALAVG TEMPAVG PRESSURE GPRESSURE VOLUME PRESSAVG GPRESSAVG
ENERGY: 0 0.6225 15.7133 7.0629 0.0000 -10688.5018 1485.0820 0.0000 0.0000 1755.1002 -7424.9209 299.8495 -9180.0210 -7424.9209 299.8495 328.1801 411.0654 30606.3829 328.1801 411.0654
ENERGY: 300000 1.2010 12.2320 3.7321 0.0000 -10653.5007 1420.9874 0.0000 0.0000 1719.7847 -7495.5634 293.8160 -9215.3481 -7437.5013 299.2246 -271.6782 -190.4604 30387.7309 67.1390 139.3976
ENERGY: 600000 4.1053 16.3331 4.2117 0.0000 -10710.2999 1442.5914 0.0000 0.0000 1773.8395 -7469.2188 303.0510 -9243.0583 -7433.6904 299.9222 -82.4399 -2.6702 30168.2293 -123.6126 -36.3268
ENERGY: 900000 1.9048 13.5113 4.6787 0.0000 -10541.9869 1417.7188 0.0000 0.0000 1735.0187 -7369.1546 296.4186 -9104.1733 -7426.1516 298.7140 -264.1618 -247.4138 31069.7962 -123.2569 -50.0403
ENERGY: 1200000 1.9459 9.2421 3.0579 0.0000 -10611.6860 1445.1608 0.0000 0.0000 1770.5867 -7381.6926 302.4953 -9152.2794 -7430.8088 299.1647 -29.7078 36.5253 30489.2119 -132.1320 -64.9892
ENERGY: 1500000 2.7858 9.9059 4.2405 0.0000 -10605.6133 1375.9570 0.0000 0.0000 1750.4879 -7462.2362 299.0615 -9212.7241 -7425.9377 299.8394 -301.9100 -299.5522 29907.0192 -128.7569 -67.5393
TCL: Running FEP window  19: Lambda1 0.9000000000000002 Lambda2 0.9500000000000003 [dLambda 0.050000000000000044]
TCL: Setting parameter firsttimestep to 0
TCL: Setting parameter alchLambda to 0.9000000000000002
Info: NONBONDED TABLE R-SQUARED SPACING: 0.0625
Info: NONBONDED TABLE SIZE: 705 POINTS
TCL: Setting parameter alchLambda2 to 0.9500000000000003
Info: NONBONDED TABLE R-SQUARED SPACING: 0.0625
Info: NONBONDED TABLE SIZE: 705 POINTS
TCL: Running for 1500000 steps
ETITLE: TS BOND ANGLE DIHED IMPRP ELECT VDW BOUNDARY MISC KINETIC TOTAL TEMP POTENTIAL TOTALAVG TEMPAVG PRESSURE GPRESSURE VOLUME PRESSAVG GPRESSAVG
ENERGY: 0 2.7858 9.9059 4.2405 0.0000 -10605.5743 1376.1073 0.0000 0.0000 1749.6111 -7462.9236 298.9117 -9212.5348 -7462.9236 298.9117 -345.8000 -281.0237 29907.0192 -345.8000 -281.0237
ENERGY: 300000 2.4853 19.6632 6.0743 0.0000 -10682.9235 1480.8757 0.0000 0.0000 1756.3421 -7417.4828 300.0616 -9173.8249 -7433.5032 299.7748 414.4717 412.9971 30256.8593 90.4421 135.1793
ENERGY: 600000 1.3434 7.7821 4.9967 0.0000 -10673.9108 1378.4504 0.0000 0.0000 1812.3778 -7468.9603 309.6350 -9281.3381 -7435.2758 301.8890 -383.3875 -372.2855 29836.0937 131.1341 164.9170
ENERGY: 900000 2.7000 10.8325 4.4008 0.0000 -10645.0787 1485.6492 0.0000 0.0000 1720.0458 -7421.4505 293.8606 -9141.4962 -7430.1680 300.9529 261.0863 305.7827 30570.4377 210.1433 240.3550
ENERGY: 1200000 1.2578 11.2476 3.4400 0.0000 -10793.2906 1506.1579 0.0000 0.0000 1709.1434 -7562.0439 291.9980 -9271.1873 -7433.5632 300.3414 655.0453 770.6712 29648.5251 225.8521 267.6461
ENERGY: 1500000 1.8333 9.3032 2.8302 0.0000 -10527.8903 1368.8852 0.0000 0.0000 1802.4936 -7342.5448 307.9464 -9145.0385 -7426.5070 300.7478 -114.8684 -44.8247 30023.5845 127.1475 175.7802
TCL: Running FEP window  20: Lambda1 0.9500000000000003 Lambda2 1.0    [dLambda 0.04999999999999971]
TCL: Setting parameter firsttimestep to 0
TCL: Setting parameter alchLambda to 0.9500000000000003
Info: NONBONDED TABLE R-SQUARED SPACING: 0.0625
Info: NONBONDED TABLE SIZE: 705 POINTS
TCL: Setting parameter alchLambda2 to 1.0
Info: NONBONDED TABLE R-SQUARED SPACING: 0.0625
Info: NONBONDED TABLE SIZE: 705 POINTS
TCL: Running for 1500000 steps
ETITLE: TS BOND ANGLE DIHED IMPRP ELECT VDW BOUNDARY MISC KINETIC TOTAL TEMP POTENTIAL TOTALAVG TEMPAVG PRESSURE GPRESSURE VOLUME PRESSAVG GPRESSAVG
ENERGY: 0 1.8333 9.3032 2.8302 0.0000 -10527.8495 1369.3225 0.0000 0.0000 1801.5725 -7342.9878 307.7890 -9144.5603 -7342.9878 307.7890 -106.2859 -27.0114 30023.5845 -106.2859 -27.0114
ENERGY: 300000 1.2696 9.5608 2.4848 0.0000 -10602.6539 1423.1955 0.0000 0.0000 1777.5559 -7388.5872 303.6859 -9166.1431 -7388.6966 302.1753 -62.5592 31.1401 30423.2286 -7.5431 65.1474
ENERGY: 600000 1.3441 17.4185 6.2898 0.0000 -10576.0949 1377.4455 0.0000 0.0000 1735.5260 -7438.0708 296.5053 -9173.5969 -7399.1671 300.6685 -144.2817 -104.4608 30084.8255 35.5363 95.1524
ENERGY: 900000 1.5881 9.8513 3.8275 0.0000 -10618.2650 1393.3113 0.0000 0.0000 1834.2992 -7375.3876 313.3802 -9209.6868 -7402.9711 302.0374 -125.6409 -114.3280 29951.5837 13.0272 65.9475
ENERGY: 1200000 1.2140 10.4016 3.0027 0.0000 -10554.5071 1348.1316 0.0000 0.0000 1855.8435 -7335.9136 317.0609 -9191.7571 -7402.3529 302.7984 -856.4495 -778.7760 30851.1618 -40.1814 22.8962
ENERGY: 1500000 1.3078 10.3609 4.6428 0.0000 -10572.0627 1377.8612 0.0000 0.0000 1791.9614 -7385.9286 306.1470 -9177.8900 -7402.9449 302.2313 -155.7485 -121.7150 30228.2498 -8.5228 49.8692
TCL: Exiting due to exit command.
