Info: SIMULATION PARAMETERS:
Info: TIMESTEP               2
Info: NUMBER OF STEPS        0
Info: STEPS PER CYCLE        10
Info: PERIODIC CELL BASIS 1  31.0775 0 0
Info: PERIODIC CELL BASIS 2  0 29.6678 0
Info: PERIODIC CELL BASIS 3  0 0 33.2671
Info: PERIODIC CELL CENTER   0 0 0
Info: WRAPPING WATERS AROUND PERIODIC BOUNDARIES ON OUTPUT.
Info: WRAPPING ALL CLUSTERS AROUND PERIODIC BOUNDARIES ON OUTPUT.
Info: FIRST LDB TIMESTEP     50
Info: LAST LDB TIMESTEP     -1
Info: HOM BACKGROUND SCALING 1
Info: PME BACKGROUND SCALING 1
Info: MIN ATOMS PER PATCH    40
Info: EMPTY PATCH LOAD       40 ATOMS
Info: VELOCITY FILE          mobley_2457863_equil.vel
Info: CENTER OF MASS MOVING INITIALLY? NO
Info: DIELECTRIC             1
Info: EXCLUDE                SCALED ONE-FOUR
Info: 1-4 ELECTROSTATICS SCALED BY 0.833333
Info: MODIFIED 1-4 VDW PARAMETERS WILL BE USED
Info: DCD FILENAME           mobley_2457863_prod.dcd
Info: DCD FREQUENCY          100000
Info: DCD FIRST STEP         100000
Info: DCD FILE WILL CONTAIN UNIT CELL DATA
Info: XST FILENAME           mobley_2457863_prod.xst
Info: XST FREQUENCY          100000
Info: NO VELOCITY DCD OUTPUT
Info: NO FORCE DCD OUTPUT
Info: OUTPUT FILENAME        mobley_2457863_prod
Info: BINARY OUTPUT FILES WILL BE USED
Info: RESTART FILENAME       mobley_2457863_prod.restart
Info: RESTART FREQUENCY      100000
Info: BINARY RESTART FILES WILL BE USED
Info: CUTOFF                 9
Info: PAIRLIST DISTANCE      11
Info: PAIRLIST SHRINK RATE   0.01
Info: PAIRLIST GROW RATE     0.01
Info: PAIRLIST TRIGGER       0.3
Info: PAIRLISTS PER CYCLE    2
Info: PAIRLISTS ENABLED
Info: MARGIN                 2
Info: HYDROGEN GROUP CUTOFF  2.5
Info: PATCH DIMENSION        15.5
Info: ENERGY OUTPUT STEPS    100000
Info: ENERGY EVALUATION STEPS    100000
Info: OUTPUT ENERGY PRECISION 4
Info: CROSSTERM ENERGY INCLUDED IN DIHEDRAL
Info: TIMING OUTPUT STEPS    1000000
Info: PRESSURE OUTPUT STEPS  100000
Info: ALCHEMICAL FEP ON
Info: FEP CURRENT LAMBDA VALUE     1
Info: FEP COMPARISON LAMBDA VALUE  0.95
Info: FEP INTRA-ALCHEMICAL NON-BONDED INTERACTIONS WILL BE RETAINED
Info: FEP INTRA-ALCHEMICAL BONDED INTERACTIONS WILL BE RETAINED
Info: FEP VDW SHIFTING COEFFICIENT 5
Info: FEP ELEC. ACTIVE FOR ANNIHILATED PARTICLES BETWEEN LAMBDA = 0 AND LAMBDA = 0.5
Info: FEP ELEC. ACTIVE FOR EXNIHILATED PARTICLES BETWEEN LAMBDA = 0.5 AND LAMBDA = 1
Info: FEP VDW ACTIVE FOR ANNIHILATED PARTICLES BETWEEN LAMBDA = 0 AND LAMBDA = 1
Info: FEP VDW ACTIVE FOR EXNIHILATED PARTICLES BETWEEN LAMBDA = 0 AND LAMBDA = 1
Info: FEP BOND ACTIVE FOR ANNIHILATED PARTICLES BETWEEN LAMBDA = 1 AND LAMBDA = 1
Info: FEP BOND ACTIVE FOR EXNIHILATED PARTICLES BETWEEN LAMBDA = 0 AND LAMBDA = 0
Info: LANGEVIN DYNAMICS ACTIVE
Info: LANGEVIN TEMPERATURE   300
Info: LANGEVIN USING BBK INTEGRATOR
Info: LANGEVIN DAMPING COEFFICIENT IS 1 INVERSE PS
Info: LANGEVIN DYNAMICS APPLIED TO HYDROGENS
Info: LANGEVIN PISTON PRESSURE CONTROL ACTIVE
Info:        TARGET PRESSURE IS 1.01325 BAR
Info:     OSCILLATION PERIOD IS 50 FS
Info:             DECAY TIME IS 25 FS
Info:     PISTON TEMPERATURE IS 300 K
Info:       PRESSURE CONTROL IS GROUP-BASED
Info:    INITIAL STRAIN RATE IS 0.000295029 0.000295029 0.000295029
Info:       CELL FLUCTUATION IS ISOTROPIC
Info: PARTICLE MESH EWALD (PME) ACTIVE
Info: PME TOLERANCE               1e-06
Info: PME EWALD COEFFICIENT       0.348832
Info: PME INTERPOLATION ORDER     4
Info: PME GRID DIMENSIONS         32 32 36
Info: PME MAXIMUM GRID SPACING    1
Info: PME CALCULATION WILL BE PERFORMED ON GPU
Info: FULL ELECTROSTATIC EVALUATION FREQUENCY      2
Info: USING VERLET I (r-RESPA) MTS SCHEME.
Info: C1 SPLITTING OF LONG RANGE ELECTROSTATICS
Info: PLACING ATOMS IN PATCHES BY HYDROGEN GROUPS
Info: RIGID BONDS TO HYDROGEN : ALL
Info:         ERROR TOLERANCE : 1e-08
Info:          MAX ITERATIONS : 100
Info: RIGID WATER USING SETTLE ALGORITHM
Info: RANDOM NUMBER SEED     1743766153
Info: USE HYDROGEN BONDS?    NO
Info: Using AMBER format force field!
Info: AMBER PARM FILE        mobley_2457863.prmtop
Info: COORDINATE PDB         mobley_2457863.pdb
Info: Exclusions will be read from PARM file!
Info: SCNB (VDW SCALING)     2
Info: USING ARITHMETIC MEAN TO COMBINE L-J SIGMA PARAMETERS
Info: BINARY COORDINATES     mobley_2457863_equil.coor
Info: SUMMARY OF PARAMETERS:
Info: 9 BONDS
Info: 8 ANGLES
Info:   8 HARMONIC
Info:   0 COSINE-BASED
Info: 4 DIHEDRAL
Info: 0 IMPROPER
Info: 0 CROSSTERM
Info: 0 VDW
Info: 36 VDW_PAIRS
Info: 0 NBTHOLE_PAIRS
Info: To read alchdata from file: mobley_2457863.pdb
Info: To read alchflag data from column: 5
Info: STRUCTURE SUMMARY:
Info: 2969 ATOMS
Info: 2969 BONDS
Info: 26 ANGLES
Info: 37 DIHEDRALS
Info: 0 IMPROPERS
Info: 0 CROSSTERMS
Info: 3023 EXCLUSIONS
Info: 2960 RIGID BONDS
Info: ALCH: 0 ATOMS TO DISAPPEAR IN FINAL STATE
Info: ALCH: 17 ATOMS TO APPEAR IN FINAL STATE
Info: 5947 DEGREES OF FREEDOM
Info: 993 HYDROGEN GROUPS
Info: 4 ATOMS IN LARGEST HYDROGEN GROUP
Info: 993 MIGRATION GROUPS
Info: 4 ATOMS IN LARGEST MIGRATION GROUP
Info: TOTAL MASS = 17851.9 amu
Info: TOTAL CHARGE = 0.000200033 e
Info: MASS DENSITY = 0.966488 g/cm^3
Info: ATOM DENSITY = 0.0967974 atoms/A^3
Info: ADDED 0 IMPLICIT EXCLUSIONS
Info: NONBONDED TABLE R-SQUARED SPACING: 0.0625
Info: NONBONDED TABLE SIZE: 705 POINTS
Info: REMOVING COM VELOCITY 0.113532 0.200823 -0.292289
Info: Use 3D box decompostion in PME FFT.
Info: Updated CUDA force table with 4096 elements.
Info: Updated CUDA LJ table with 8 x 8 elements.
Info: Found 18 unique exclusion lists needing 44 bytes
TCL: Running for 1500000 steps
ETITLE: TS BOND ANGLE DIHED IMPRP ELECT VDW BOUNDARY MISC KINETIC TOTAL TEMP POTENTIAL TOTALAVG TEMPAVG PRESSURE GPRESSURE VOLUME PRESSAVG GPRESSAVG
ENERGY: 0 2.4088 6.8951 1.6407 0.0000 -10732.6391 1435.9054 0.0000 0.0000 1847.7549 -7438.0342 312.7064 -9285.7891 -7438.0342 312.7064 123.2132 202.8655 30672.3118 123.2132 202.8655
ENERGY: 300000 3.0736 4.6238 6.7951 0.0000 -10749.5695 1432.0057 0.0000 0.0000 1752.6766 -7550.3947 296.6158 -9303.0714 -7491.8287 302.8676 15.1954 44.9200 30623.5780 53.2819 111.8525
ENERGY: 600000 2.3533 3.8348 1.9944 0.0000 -11040.1015 1575.0245 0.0000 0.0000 1735.1129 -7721.7815 293.6434 -9456.8944 -7536.2288 301.5091 669.0684 669.3351 30350.7953 13.3877 63.1356
ENERGY: 900000 4.2440 8.0678 5.9568 0.0000 -10729.8662 1414.1671 0.0000 0.0000 1803.7034 -7493.7271 305.2513 -9297.4305 -7536.7750 300.9434 -23.8808 62.1136 30314.2841 59.6636 119.0849
ENERGY: 1200000 2.2374 4.6598 7.3379 0.0000 -10673.0480 1403.3218 0.0000 0.0000 1821.6515 -7433.8395 308.2888 -9255.4910 -7525.0813 301.5279 -304.3327 -237.0979 31244.4525 70.1019 127.0984
ENERGY: 1500000 3.8524 7.7203 5.1420 0.0000 -10751.1868 1419.4288 0.0000 0.0000 1794.4395 -7520.6037 303.6836 -9315.0432 -7518.6277 302.0740 -381.7455 -267.3088 30752.4009 -17.9364 50.7826
TCL: Running FEP window   2: Lambda1 0.95   Lambda2 0.8999999999999999 [dLambda -0.050000000000000044]
TCL: Setting parameter firsttimestep to 0
TCL: Setting parameter alchLambda to 0.95
Info: NONBONDED TABLE R-SQUARED SPACING: 0.0625
Info: NONBONDED TABLE SIZE: 705 POINTS
TCL: Setting parameter alchLambda2 to 0.8999999999999999
Info: NONBONDED TABLE R-SQUARED SPACING: 0.0625
Info: NONBONDED TABLE SIZE: 705 POINTS
TCL: Running for 1500000 steps
ETITLE: TS BOND ANGLE DIHED IMPRP ELECT VDW BOUNDARY MISC KINETIC TOTAL TEMP POTENTIAL TOTALAVG TEMPAVG PRESSURE GPRESSURE VOLUME PRESSAVG GPRESSAVG
ENERGY: 0 3.8524 7.7203 5.1420 0.0000 -10749.8294 1419.5804 0.0000 0.0000 1793.5677 -7519.9665 303.5360 -9313.5342 -7519.9665 303.5360 -357.4968 -272.6835 30752.4009 -357.4968 -272.6835
ENERGY: 300000 1.9811 3.7060 3.6960 0.0000 -10720.0976 1464.0907 0.0000 0.0000 1759.2275 -7487.3964 297.7244 -9246.6239 -7550.7261 302.2485 455.3511 503.3528 30673.9958 23.1469 104.9114
ENERGY: 600000 3.2438 6.3749 3.7733 0.0000 -10834.7401 1459.9353 0.0000 0.0000 1809.0821 -7552.3307 306.1616 -9361.4128 -7530.5586 302.0180 392.1087 472.9781 30226.6687 93.4041 159.5753
ENERGY: 900000 0.7104 5.3157 4.8950 0.0000 -10783.7290 1424.0564 0.0000 0.0000 1827.1022 -7521.6493 309.2112 -9348.7514 -7546.6645 301.9960 -414.6693 -350.1579 31231.5534 74.7906 135.3824
ENERGY: 1200000 5.1615 4.7755 4.6022 0.0000 -10909.6458 1483.8932 0.0000 0.0000 1781.5638 -7629.6496 301.5045 -9411.2134 -7557.6125 302.4024 73.7689 108.9214 30487.1892 -4.1894 52.5648
ENERGY: 1500000 3.7775 5.5170 5.7819 0.0000 -10745.8143 1419.6877 0.0000 0.0000 1806.5658 -7504.4844 305.7358 -9311.0502 -7554.2216 302.0058 -287.9724 -208.2653 30716.6077 -80.2114 -14.8376
TCL: Running FEP window   3: Lambda1 0.8999999999999999 Lambda2 0.8499999999999999 [dLambda -0.050000000000000044]
TCL: Setting parameter firsttimestep to 0
TCL: Setting parameter alchLambda to 0.8999999999999999
Info: NONBONDED TABLE R-SQUARED SPACING: 0.0625
Info: NONBONDED TABLE SIZE: 705 POINTS
TCL: Setting parameter alchLambda2 to 0.8499999999999999
Info: NONBONDED TABLE R-SQUARED SPACING: 0.0625
Info: NONBONDED TABLE SIZE: 705 POINTS
TCL: Running for 1500000 steps
ETITLE: TS BOND ANGLE DIHED IMPRP ELECT VDW BOUNDARY MISC KINETIC TOTAL TEMP POTENTIAL TOTALAVG TEMPAVG PRESSURE GPRESSURE VOLUME PRESSAVG GPRESSAVG
ENERGY: 0 3.7775 5.5170 5.7819 0.0000 -10743.6350 1419.0039 0.0000 0.0000 1805.6661 -7503.8886 305.5835 -9309.5546 -7503.8886 305.5835 -315.9082 -225.9125 30716.6077 -315.9082 -225.9125
ENERGY: 300000 0.7690 4.1596 5.9086 0.0000 -10813.3185 1497.3808 0.0000 0.0000 1786.8615 -7518.2390 302.4011 -9305.1005 -7504.2006 304.2116 709.8621 768.4332 30006.2571 298.0428 357.7779
ENERGY: 600000 3.6926 6.0772 3.9213 0.0000 -10703.4709 1393.3921 0.0000 0.0000 1780.6406 -7515.7470 301.3483 -9296.3876 -7534.2954 299.0557 -47.4360 43.3677 30080.2137 71.5157 123.1710
ENERGY: 900000 2.7892 5.6792 4.7601 0.0000 -10791.4754 1373.7955 0.0000 0.0000 1751.2538 -7653.1975 296.3750 -9404.4513 -7561.9379 297.6378 -1007.1238 -901.5542 31081.4484 -121.0100 -56.6393
ENERGY: 1200000 0.9570 5.1217 2.8239 0.0000 -10874.2048 1452.5362 0.0000 0.0000 1811.8564 -7600.9097 306.6311 -9412.7660 -7568.5284 299.3524 7.9487 115.8660 30130.9780 -119.1072 -48.4742
ENERGY: 1500000 2.1567 2.8694 2.2628 0.0000 -10966.9634 1515.3728 0.0000 0.0000 1744.8744 -7699.4272 295.2954 -9444.3017 -7575.9618 299.1964 94.9277 238.1312 30535.8732 -153.0843 -78.8287
TCL: Running FEP window   4: Lambda1 0.8499999999999999 Lambda2 0.7999999999999998 [dLambda -0.050000000000000044]
TCL: Setting parameter firsttimestep to 0
TCL: Setting parameter alchLambda to 0.8499999999999999
Info: NONBONDED TABLE R-SQUARED SPACING: 0.0625
Info: NONBONDED TABLE SIZE: 705 POINTS
TCL: Setting parameter alchLambda2 to 0.7999999999999998
Info: NONBONDED TABLE R-SQUARED SPACING: 0.0625
Info: NONBONDED TABLE SIZE: 705 POINTS
TCL: Running for 1500000 steps
ETITLE: TS BOND ANGLE DIHED IMPRP ELECT VDW BOUNDARY MISC KINETIC TOTAL TEMP POTENTIAL TOTALAVG TEMPAVG PRESSURE GPRESSURE VOLUME PRESSAVG GPRESSAVG
ENERGY: 0 2.1567 2.8694 2.2628 0.0000 -10965.4671 1515.4020 0.0000 0.0000 1744.0137 -7698.7624 295.1497 -9442.7761 -7698.7624 295.1497 146.1786 231.4377 30535.8732 146.1786 231.4377
ENERGY: 300000 4.2017 8.6122 5.9464 0.0000 -10774.5972 1419.4945 0.0000 0.0000 1746.6807 -7589.6617 295.6010 -9336.3424 -7585.5686 300.2747 -529.5283 -477.4267 30950.8855 -354.9401 -298.0915
ENERGY: 600000 3.8626 6.3336 5.2270 0.0000 -10669.5544 1346.9085 0.0000 0.0000 1745.3644 -7561.8582 295.3783 -9307.2226 -7584.5131 299.5729 -1171.0329 -1100.3973 31223.6240 -331.3667 -286.6283
ENERGY: 900000 1.1873 6.7697 4.7209 0.0000 -10823.6473 1499.6761 0.0000 0.0000 1759.1858 -7552.1075 297.7174 -9311.2933 -7569.3684 300.6624 503.4284 551.6125 30548.9536 -164.9282 -109.5005
ENERGY: 1200000 3.6913 3.1251 3.5596 0.0000 -10613.8031 1342.4605 0.0000 0.0000 1806.3817 -7454.5850 305.7046 -9260.9666 -7557.9419 300.3319 -440.5589 -343.9240 30398.9100 -246.9099 -183.6611
ENERGY: 1500000 4.8819 7.6621 5.0469 0.0000 -10720.8589 1394.1637 0.0000 0.0000 1809.1703 -7499.9341 306.1765 -9309.1044 -7556.8787 299.8057 -319.5106 -231.3355 30556.4444 -207.3924 -145.5764
TCL: Running FEP window   5: Lambda1 0.7999999999999998 Lambda2 0.7499999999999998 [dLambda -0.050000000000000044]
TCL: Setting parameter firsttimestep to 0
TCL: Setting parameter alchLambda to 0.7999999999999998
Info: NONBONDED TABLE R-SQUARED SPACING: 0.0625
Info: NONBONDED TABLE SIZE: 705 POINTS
TCL: Setting parameter alchLambda2 to 0.7499999999999998
Info: NONBONDED TABLE R-SQUARED SPACING: 0.0625
Info: NONBONDED TABLE SIZE: 705 POINTS
TCL: Running for 1500000 steps
ETITLE: TS BOND ANGLE DIHED IMPRP ELECT VDW BOUNDARY MISC KINETIC TOTAL TEMP POTENTIAL TOTALAVG TEMPAVG PRESSURE GPRESSURE VOLUME PRESSAVG GPRESSAVG
ENERGY: 0 4.8819 7.6621 5.0469 0.0000 -10719.3108 1393.4938 0.0000 0.0000 1808.2955 -7499.9306 306.0285 -9308.2261 -7499.9306 306.0285 -326.4823 -248.7729 30556.4444 -326.4823 -248.7729
ENERGY: 300000 1.3813 4.2750 6.3398 0.0000 -10721.3321 1351.2086 0.0000 0.0000 1794.5114 -7563.6160 303.6957 -9358.1274 -7497.3400 304.6600 -773.8898 -734.7881 30477.2430 -169.8558 -100.2320
ENERGY: 600000 6.7488 3.6579 5.8045 0.0000 -10784.1046 1410.0387 0.0000 0.0000 1740.4099 -7617.4449 294.5398 -9357.8548 -7538.0448 301.4977 -581.6368 -536.2383 30778.0009 -243.1750 -186.1307
ENERGY: 900000 2.2665 4.3806 3.4913 0.0000 -10686.7699 1371.2773 0.0000 0.0000 1777.4107 -7527.9434 300.8017 -9305.3541 -7555.4856 299.3204 -643.2378 -537.1766 30706.7271 -188.7138 -132.9797
ENERGY: 1200000 2.0634 4.5973 2.3336 0.0000 -10786.7797 1426.8295 0.0000 0.0000 1750.7276 -7600.2283 296.2859 -9350.9559 -7561.2541 298.7354 -174.0543 -91.7776 30466.8827 -111.3230 -54.4512
ENERGY: 1500000 3.5743 7.6646 1.3596 0.0000 -10913.3721 1489.9815 0.0000 0.0000 1792.7514 -7618.0407 303.3979 -9410.7921 -7566.6538 298.6989 41.7196 130.7704 30617.9619 -36.2599 15.7621
TCL: Running FEP window   6: Lambda1 0.7499999999999998 Lambda2 0.6999999999999997 [dLambda -0.050000000000000044]
TCL: Setting parameter firsttimestep to 0
TCL: Setting parameter alchLambda to 0.7499999999999998
Info: NONBONDED TABLE R-SQUARED SPACING: 0.0625
Info: NONBONDED TABLE SIZE: 705 POINTS
TCL: Setting parameter alchLambda2 to 0.6999999999999997
Info: NONBONDED TABLE R-SQUARED SPACING: 0.0625
Info: NONBONDED TABLE SIZE: 705 POINTS
TCL: Running for 1500000 steps
ETITLE: TS BOND ANGLE DIHED IMPRP ELECT VDW BOUNDARY MISC KINETIC TOTAL TEMP POTENTIAL TOTALAVG TEMPAVG PRESSURE GPRESSURE VOLUME PRESSAVG GPRESSAVG
ENERGY: 0 3.5743 7.6646 1.3596 0.0000 -10911.1797 1489.6686 0.0000 0.0000 1791.8775 -7617.0350 303.2500 -9408.9126 -7617.0350 303.2500 31.2771 120.4773 30617.9619 31.2771 120.4773
ENERGY: 300000 1.8681 3.9803 4.0407 0.0000 -10761.1972 1356.0204 0.0000 0.0000 1755.5989 -7639.6888 297.1103 -9395.2878 -7598.9038 298.1269 -1045.8491 -951.0642 30856.6000 -273.6585 -204.4465
ENERGY: 600000 2.2210 4.0345 3.0977 0.0000 -10866.9155 1566.5452 0.0000 0.0000 1751.1611 -7539.8559 296.3593 -9291.0170 -7574.0987 298.8433 1164.2663 1181.6894 30226.6055 59.5528 123.5483
ENERGY: 900000 0.7511 6.8573 5.1819 0.0000 -10808.0436 1519.8974 0.0000 0.0000 1796.2442 -7479.1117 303.9890 -9275.3559 -7556.1560 299.5432 923.8813 985.5688 30061.6609 61.7909 121.6246
ENERGY: 1200000 2.0659 5.7347 7.7776 0.0000 -10774.2601 1403.7140 0.0000 0.0000 1811.5592 -7543.4088 306.5808 -9354.9680 -7548.1347 300.3650 -332.5524 -259.7480 30281.2576 50.1163 111.7496
ENERGY: 1500000 2.0157 8.2971 2.7299 0.0000 -10686.5987 1438.9044 0.0000 0.0000 1827.6901 -7406.9614 309.3107 -9234.6515 -7544.5202 300.9279 200.2975 210.1429 30765.8061 42.6419 104.5528
TCL: Running FEP window   7: Lambda1 0.6999999999999997 Lambda2 0.6499999999999997 [dLambda -0.050000000000000044]
TCL: Setting parameter firsttimestep to 0
TCL: Setting parameter alchLambda to 0.6999999999999997
Info: NONBONDED TABLE R-SQUARED SPACING: 0.0625
Info: NONBONDED TABLE SIZE: 705 POINTS
TCL: Setting parameter alchLambda2 to 0.6499999999999997
Info: NONBONDED TABLE R-SQUARED SPACING: 0.0625
Info: NONBONDED TABLE SIZE: 705 POINTS
TCL: Running for 1500000 steps
ETITLE: TS BOND ANGLE DIHED IMPRP ELECT VDW BOUNDARY MISC KINETIC TOTAL TEMP POTENTIAL TOTALAVG TEMPAVG PRESSURE GPRESSURE VOLUME PRESSAVG GPRESSAVG
ENERGY: 0 2.0157 8.2971 2.7299 0.0000 -10685.0663 1439.1212 0.0000 0.0000 1826.8078 -7406.0945 309.1614 -9232.9023 -7406.0945 309.1614 119.9291 208.8985 30765.8061 119.9291 208.8985
ENERGY: 300000 2.1681 5.7226 2.8830 0.0000 -10728.4613 1447.2046 0.0000 0.0000 1752.8828 -7517.6000 296.6507 -9270.4828 -7501.2587 303.4088 202.3134 299.4621 30480.0783 10.6658 88.2185
ENERGY: 600000 2.5622 7.3905 3.3631 0.0000 -10608.3904 1326.8186 0.0000 0.0000 1823.9663 -7444.2897 308.6805 -9268.2560 -7523.8762 305.3585 -936.2199 -908.3586 31330.4982 -58.6271 -0.7917
ENERGY: 900000 1.5616 1.6217 5.8730 0.0000 -10837.9420 1498.6049 0.0000 0.0000 1726.0793 -7604.2015 292.1146 -9330.2808 -7544.1790 302.0806 382.2917 487.0493 30267.2387 -15.5864 59.7716
ENERGY: 1200000 2.1632 6.6072 3.8560 0.0000 -10820.0385 1468.7642 0.0000 0.0000 1800.7236 -7537.9244 304.7470 -9338.6480 -7544.6902 302.2668 43.9340 154.7652 30342.1502 -77.8155 -8.4674
ENERGY: 1500000 2.3831 6.3411 6.6262 0.0000 -10764.6250 1392.0979 0.0000 0.0000 1746.8647 -7610.3121 295.6322 -9357.1768 -7549.1854 301.5849 -612.1343 -524.3040 30866.3619 -99.0856 -32.3381
TCL: Running FEP window   8: Lambda1 0.6499999999999997 Lambda2 0.5999999999999996 [dLambda -0.050000000000000044]
TCL: Setting parameter firsttimestep to 0
TCL: Setting parameter alchLambda to 0.6499999999999997
Info: NONBONDED TABLE R-SQUARED SPACING: 0.0625
Info: NONBONDED TABLE SIZE: 705 POINTS
TCL: Setting parameter alchLambda2 to 0.5999999999999996
Info: NONBONDED TABLE R-SQUARED SPACING: 0.0625
Info: NONBONDED TABLE SIZE: 705 POINTS
TCL: Running for 1500000 steps
ETITLE: TS BOND ANGLE DIHED IMPRP ELECT VDW BOUNDARY MISC KINETIC TOTAL TEMP POTENTIAL TOTALAVG TEMPAVG PRESSURE GPRESSURE VOLUME PRESSAVG GPRESSAVG
ENERGY: 0 2.3831 6.3411 6.6262 0.0000 -10762.6600 1391.4018 0.0000 0.0000 1745.9785 -7609.9293 295.4822 -9355.9079 -7609.9293 295.4822 -622.4478 -536.9993 30866.3619 -622.4478 -536.9993
ENERGY: 300000 4.1376 7.9674 9.8962 0.0000 -10872.4466 1466.7539 0.0000 0.0000 1755.4231 -7628.2684 297.0806 -9383.6915 -7612.1197 299.0301 47.5037 82.0283 30675.5176 -275.9426 -230.5067
ENERGY: 600000 0.6510 3.9687 3.5930 0.0000 -10701.6379 1385.8980 0.0000 0.0000 1753.6091 -7553.9181 296.7736 -9307.5272 -7593.4682 300.2357 -424.2621 -325.1513 30476.2790 -340.3532 -273.4135
ENERGY: 900000 1.7413 6.3232 4.9168 0.0000 -10748.8885 1508.7127 0.0000 0.0000 1791.8767 -7435.3179 303.2498 -9227.1946 -7564.6896 300.8576 606.7916 673.2585 30690.4192 -140.7074 -82.6491
ENERGY: 1200000 2.6620 8.9937 1.9618 0.0000 -10862.0797 1486.0161 0.0000 0.0000 1795.2288 -7567.2174 303.8171 -9362.4463 -7568.7031 300.8599 401.8947 475.4295 30169.8649 -58.6335 -3.5496
ENERGY: 1500000 1.4085 4.2691 4.2799 0.0000 -10780.0042 1454.4860 0.0000 0.0000 1769.5772 -7545.9834 299.4760 -9315.5607 -7566.5834 300.9428 210.2764 286.4287 30116.1510 -37.9066 15.7682
TCL: Running FEP window   9: Lambda1 0.5999999999999996 Lambda2 0.5499999999999996 [dLambda -0.050000000000000044]
TCL: Setting parameter firsttimestep to 0
TCL: Setting parameter alchLambda to 0.5999999999999996
Info: NONBONDED TABLE R-SQUARED SPACING: 0.0625
Info: NONBONDED TABLE SIZE: 705 POINTS
TCL: Setting parameter alchLambda2 to 0.5499999999999996
Info: NONBONDED TABLE R-SQUARED SPACING: 0.0625
Info: NONBONDED TABLE SIZE: 705 POINTS
TCL: Running for 1500000 steps
ETITLE: TS BOND ANGLE DIHED IMPRP ELECT VDW BOUNDARY MISC KINETIC TOTAL TEMP POTENTIAL TOTALAVG TEMPAVG PRESSURE GPRESSURE VOLUME PRESSAVG GPRESSAVG
ENERGY: 0 1.4085 4.2691 4.2799 0.0000 -10778.5232 1454.8853 0.0000 0.0000 1768.6959 -7544.9845 299.3268 -9313.6804 -7544.9845 299.3268 199.1839 281.4958 30116.1510 199.1839 281.4958
ENERGY: 300000 3.5407 6.5524 2.9565 0.0000 -10737.1648 1393.8567 0.0000 0.0000 1783.1814 -7547.0771 301.7783 -9330.2586 -7568.0830 299.4311 -267.4909 -213.6469 30330.8758 -262.0740 -187.8552
ENERGY: 600000 1.7966 4.8021 4.7629 0.0000 -10863.1465 1440.7701 0.0000 0.0000 1780.7786 -7630.2361 301.3716 -9411.0148 -7578.5171 299.4742 -217.4734 -127.7334 30308.5980 -343.1449 -277.3116
ENERGY: 900000 2.6377 4.9305 2.4083 0.0000 -10922.4494 1523.8475 0.0000 0.0000 1785.3065 -7603.3189 302.1379 -9388.6253 -7582.7099 299.4202 299.7314 369.7545 30617.9833 -205.5035 -135.3236
ENERGY: 1200000 2.9383 4.3955 3.3570 0.0000 -10810.0093 1440.2039 0.0000 0.0000 1799.1330 -7559.9816 304.4779 -9359.1146 -7575.5478 299.5740 -346.4169 -218.1429 30713.7230 -316.0404 -245.5836
ENERGY: 1500000 4.1772 7.7768 4.2016 0.0000 -10700.4786 1401.4867 0.0000 0.0000 1775.4515 -7507.3848 300.4701 -9282.8363 -7574.0921 300.3240 -540.2301 -468.4966 30723.7534 -392.2874 -323.9972
TCL: Running FEP window  10: Lambda1 0.5499999999999996 Lambda2 0.4999999999999996 [dLambda -0.04999999999999999]
TCL: Setting parameter firsttimestep to 0
TCL: Setting parameter alchLambda to 0.5499999999999996
Info: NONBONDED TABLE R-SQUARED SPACING: 0.0625
Info: NONBONDED TABLE SIZE: 705 POINTS
TCL: Setting parameter alchLambda2 to 0.4999999999999996
Info: NONBONDED TABLE R-SQUARED SPACING: 0.0625
Info: NONBONDED TABLE SIZE: 705 POINTS
TCL: Running for 1500000 steps
ETITLE: TS BOND ANGLE DIHED IMPRP ELECT VDW BOUNDARY MISC KINETIC TOTAL TEMP POTENTIAL TOTALAVG TEMPAVG PRESSURE GPRESSURE VOLUME PRESSAVG GPRESSAVG
ENERGY: 0 4.1772 7.7768 4.2016 0.0000 -10699.6378 1401.5075 0.0000 0.0000 1774.5624 -7507.4122 300.3196 -9281.9746 -7507.4122 300.3196 -548.0404 -471.1901 30723.7534 -548.0404 -471.1901
ENERGY: 300000 3.2762 8.8129 4.0813 0.0000 -10755.9401 1385.4033 0.0000 0.0000 1796.8895 -7557.4767 304.0982 -9354.3662 -7550.8738 301.2785 -857.4415 -723.4737 30819.0251 -364.0726 -284.8593
ENERGY: 600000 2.0689 5.6547 12.2215 0.0000 -10735.9815 1479.4218 0.0000 0.0000 1785.3198 -7451.2948 302.1402 -9236.6146 -7531.4703 301.5801 425.0168 487.5066 30806.2813 -232.3530 -172.3392
ENERGY: 900000 2.6327 6.7583 5.0880 0.0000 -10885.0566 1500.9327 0.0000 0.0000 1803.9266 -7565.7184 305.2891 -9369.6449 -7543.2082 300.4981 311.0150 388.0864 30458.8962 -178.9720 -117.8223
ENERGY: 1200000 2.5744 1.5447 7.2953 0.0000 -10656.4226 1336.1799 0.0000 0.0000 1769.4973 -7539.3311 299.4624 -9308.8283 -7546.1542 300.5713 -823.5150 -784.6584 30718.4313 -128.3318 -67.9083
ENERGY: 1500000 2.6653 8.5702 7.9463 0.0000 -10663.0359 1435.3018 0.0000 0.0000 1821.8313 -7386.7210 308.3192 -9208.5523 -7539.9655 300.9169 -257.2272 -175.3541 31232.9992 -105.9314 -49.3052
TCL: Running FEP window  11: Lambda1 0.4999999999999996 Lambda2 0.4499999999999996 [dLambda -0.04999999999999999]
TCL: Setting parameter firsttimestep to 0
TCL: Setting parameter alchLambda to 0.4999999999999996
Info: NONBONDED TABLE R-SQUARED SPACING: 0.0625
Info: NONBONDED TABLE SIZE: 705 POINTS
TCL: Setting parameter alchLambda2 to 0.4499999999999996
Info: NONBONDED TABLE R-SQUARED SPACING: 0.0625
Info: NONBONDED TABLE SIZE: 705 POINTS
TCL: Running for 1500000 steps
ETITLE: TS BOND ANGLE DIHED IMPRP ELECT VDW BOUNDARY MISC KINETIC TOTAL TEMP POTENTIAL TOTALAVG TEMPAVG PRESSURE GPRESSURE VOLUME PRESSAVG GPRESSAVG
ENERGY: 0 2.6653 8.5702 7.9463 0.0000 -10662.7972 1435.5634 0.0000 0.0000 1820.9173 -7387.1348 308.1645 -9208.0521 -7387.1348 308.1645 -265.3529 -179.6111 31232.9992 -265.3529 -179.6111
ENERGY: 300000 2.8987 4.4546 2.6444 0.0000 -10797.3465 1398.9974 0.0000 0.0000 1777.8886 -7610.4627 300.8825 -9388.3513 -7528.9951 302.2084 -441.3716 -374.9720 30356.3663 -286.7279 -228.5547
ENERGY: 600000 3.2797 8.0742 5.1943 0.0000 -10703.4341 1386.8335 0.0000 0.0000 1781.9631 -7518.0893 301.5721 -9300.0524 -7525.1225 300.7249 -202.6021 -177.7466 30217.5599 -296.1911 -241.3617
ENERGY: 900000 1.4427 5.3163 7.3947 0.0000 -10667.4764 1347.2843 0.0000 0.0000 1832.3677 -7473.6707 310.1024 -9306.0384 -7519.3735 301.6650 -554.5970 -572.9523 30296.2677 -262.9255 -226.6402
ENERGY: 1200000 1.6305 5.5154 2.3871 0.0000 -10856.3395 1482.6315 0.0000 0.0000 1741.2018 -7622.9731 294.6738 -9364.1750 -7519.1618 301.1600 54.0380 149.4677 30338.2312 -275.5317 -232.7755
ENERGY: 1500000 0.5175 3.7652 3.7683 0.0000 -10822.4411 1488.0815 0.0000 0.0000 1783.9286 -7542.3800 301.9047 -9326.3086 -7532.3462 300.5710 184.2016 255.2146 30449.2610 -274.3161 -225.9702
TCL: Running FEP window  12: Lambda1 0.4499999999999996 Lambda2 0.39999999999999963 [dLambda -0.04999999999999999]
TCL: Setting parameter firsttimestep to 0
TCL: Setting parameter alchLambda to 0.4499999999999996
Info: NONBONDED TABLE R-SQUARED SPACING: 0.0625
Info: NONBONDED TABLE SIZE: 705 POINTS
TCL: Setting parameter alchLambda2 to 0.39999999999999963
Info: NONBONDED TABLE R-SQUARED SPACING: 0.0625
Info: NONBONDED TABLE SIZE: 705 POINTS
TCL: Running for 1500000 steps
ETITLE: TS BOND ANGLE DIHED IMPRP ELECT VDW BOUNDARY MISC KINETIC TOTAL TEMP POTENTIAL TOTALAVG TEMPAVG PRESSURE GPRESSURE VOLUME PRESSAVG GPRESSAVG
ENERGY: 0 0.5175 3.7652 3.7683 0.0000 -10822.4413 1488.0427 0.0000 0.0000 1783.0526 -7543.2951 301.7565 -9326.3476 -7543.2951 301.7565 163.9273 250.6816 30449.2610 163.9273 250.6816
ENERGY: 300000 3.6459 7.6198 3.0048 0.0000 -10814.0055 1468.4135 0.0000 0.0000 1770.0630 -7561.2585 299.5582 -9331.3215 -7548.4856 300.4903 22.4343 116.5257 30696.0168 291.5737 360.3157
ENERGY: 600000 2.3283 7.7798 5.8355 0.0000 -10859.9659 1497.5473 0.0000 0.0000 1801.9723 -7544.5028 304.9584 -9346.4751 -7545.6039 301.6671 242.2621 371.6809 30347.7963 206.7412 281.3124
ENERGY: 900000 1.9837 4.7565 8.3837 0.0000 -10831.3752 1475.6213 0.0000 0.0000 1737.6650 -7602.9651 294.0753 -9340.6301 -7542.6853 300.6636 168.4807 215.2309 30136.8105 161.5796 223.8518
ENERGY: 1200000 3.3883 5.7288 7.7114 0.0000 -10771.5853 1435.1474 0.0000 0.0000 1756.2645 -7563.3448 297.2230 -9319.6093 -7554.1123 299.6969 -78.8926 -33.0842 30388.1558 46.0697 110.6961
ENERGY: 1500000 2.3367 7.1512 2.9531 0.0000 -10757.9781 1427.7079 0.0000 0.0000 1767.5512 -7550.2780 299.1331 -9317.8292 -7548.6232 299.7836 -296.9643 -156.0935 30713.3429 3.2308 76.7395
TCL: Running FEP window  13: Lambda1 0.39999999999999963 Lambda2 0.34999999999999964 [dLambda -0.04999999999999999]
TCL: Setting parameter firsttimestep to 0
TCL: Setting parameter alchLambda to 0.39999999999999963
Info: NONBONDED TABLE R-SQUARED SPACING: 0.0625
Info: NONBONDED TABLE SIZE: 705 POINTS
TCL: Setting parameter alchLambda2 to 0.34999999999999964
Info: NONBONDED TABLE R-SQUARED SPACING: 0.0625
Info: NONBONDED TABLE SIZE: 705 POINTS
TCL: Running for 1500000 steps
ETITLE: TS BOND ANGLE DIHED IMPRP ELECT VDW BOUNDARY MISC KINETIC TOTAL TEMP POTENTIAL TOTALAVG TEMPAVG PRESSURE GPRESSURE VOLUME PRESSAVG GPRESSAVG
ENERGY: 0 2.3367 7.1512 2.9531 0.0000 -10757.9777 1428.0923 0.0000 0.0000 1766.6346 -7550.8098 298.9780 -9317.4444 -7550.8098 298.9780 -244.2470 -158.0775 30713.3429 -244.2470 -158.0775
ENERGY: 300000 4.0016 6.6897 2.9215 0.0000 -10842.4933 1458.8284 0.0000 0.0000 1779.8681 -7590.1839 301.2175 -9370.0520 -7565.8601 298.7485 67.5920 120.4566 30243.7844 100.5691 176.0849
ENERGY: 600000 4.4407 3.4530 6.4293 0.0000 -10750.4172 1417.9126 0.0000 0.0000 1795.0543 -7523.1273 303.7876 -9318.1816 -7561.0341 300.1682 -393.1115 -289.2058 30516.2330 -152.7506 -77.7216
ENERGY: 900000 3.2687 6.6253 6.3663 0.0000 -10742.5387 1495.6605 0.0000 0.0000 1755.5256 -7475.0923 297.0979 -9230.6179 -7552.2349 299.2276 454.3802 452.5635 30619.6644 -179.7934 -110.2530
ENERGY: 1200000 3.5502 4.7841 2.8002 0.0000 -10844.7827 1433.4200 0.0000 0.0000 1775.0084 -7625.2199 300.3951 -9400.2283 -7559.4272 299.0932 -378.2529 -410.0057 30500.2727 -197.2118 -126.8764
ENERGY: 1500000 2.0746 7.1274 5.9296 0.0000 -10792.4577 1444.6319 0.0000 0.0000 1747.3338 -7585.3603 295.7116 -9332.6942 -7560.3588 298.7800 -257.2305 -131.5819 30770.9942 -84.1385 -7.0671
TCL: Running FEP window  14: Lambda1 0.34999999999999964 Lambda2 0.29999999999999966 [dLambda -0.04999999999999999]
TCL: Setting parameter firsttimestep to 0
TCL: Setting parameter alchLambda to 0.34999999999999964
Info: NONBONDED TABLE R-SQUARED SPACING: 0.0625
Info: NONBONDED TABLE SIZE: 705 POINTS
TCL: Setting parameter alchLambda2 to 0.29999999999999966
Info: NONBONDED TABLE R-SQUARED SPACING: 0.0625
Info: NONBONDED TABLE SIZE: 705 POINTS
TCL: Running for 1500000 steps
ETITLE: TS BOND ANGLE DIHED IMPRP ELECT VDW BOUNDARY MISC KINETIC TOTAL TEMP POTENTIAL TOTALAVG TEMPAVG PRESSURE GPRESSURE VOLUME PRESSAVG GPRESSAVG
ENERGY: 0 2.0746 7.1274 5.9296 0.0000 -10792.4590 1445.0300 0.0000 0.0000 1746.4137 -7585.8837 295.5559 -9332.2975 -7585.8837 295.5559 -230.4008 -134.8766 30770.9942 -230.4008 -134.8766
ENERGY: 300000 3.1078 9.9636 5.6544 0.0000 -10878.3179 1525.3942 0.0000 0.0000 1761.9029 -7572.2950 298.1772 -9334.1979 -7595.8244 296.8221 697.6136 799.5611 30056.6959 127.9834 201.9951
ENERGY: 600000 1.7419 7.2027 5.3057 0.0000 -10829.4390 1501.6126 0.0000 0.0000 1782.6422 -7530.9339 301.6870 -9313.5761 -7577.5774 298.7519 171.5256 241.3040 30962.0760 43.9171 110.6420
ENERGY: 900000 3.1627 4.2154 4.2549 0.0000 -10826.4747 1431.0506 0.0000 0.0000 1725.6764 -7658.1147 292.0464 -9383.7910 -7573.7055 299.0034 -510.5157 -466.2213 30770.3300 -3.2046 53.9486
ENERGY: 1200000 6.2167 5.4819 5.4009 0.0000 -10813.4133 1452.3562 0.0000 0.0000 1772.7170 -7571.2406 300.0073 -9343.9576 -7564.1427 299.6364 40.8449 128.9802 30323.0925 115.2889 180.6068
ENERGY: 1500000 5.0618 7.4362 4.7269 0.0000 -10696.5482 1443.0849 0.0000 0.0000 1687.8420 -7548.3965 285.6434 -9236.2385 -7563.3515 298.0220 -320.4404 -237.8610 31299.0176 73.2746 140.1506
TCL: Running FEP window  15: Lambda1 0.29999999999999966 Lambda2 0.24999999999999967 [dLambda -0.04999999999999999]
TCL: Setting parameter firsttimestep to 0
TCL: Setting parameter alchLambda to 0.29999999999999966
Info: NONBONDED TABLE R-SQUARED SPACING: 0.0625
Info: NONBONDED TABLE SIZE: 705 POINTS
TCL: Setting parameter alchLambda2 to 0.24999999999999967
Info: NONBONDED TABLE R-SQUARED SPACING: 0.0625
Info: NONBONDED TABLE SIZE: 705 POINTS
TCL: Running for 1500000 steps
ETITLE: TS BOND ANGLE DIHED IMPRP ELECT VDW BOUNDARY MISC KINETIC TOTAL TEMP POTENTIAL TOTALAVG TEMPAVG PRESSURE GPRESSURE VOLUME PRESSAVG GPRESSAVG
ENERGY: 0 5.0618 7.4362 4.7269 0.0000 -10696.5470 1443.5401 0.0000 0.0000 1686.9977 -7548.7844 285.5005 -9235.7820 -7548.7844 285.5005 -310.3741 -235.9940 31299.0176 -310.3741 -235.9940
ENERGY: 300000 3.8700 5.9196 4.7595 0.0000 -10530.5581 1275.1950 0.0000 0.0000 1795.4840 -7445.3301 303.8603 -9240.8141 -7527.9644 298.1551 -1279.3053 -1188.4970 30782.5777 -560.0309 -497.2596
ENERGY: 600000 1.2020 4.1078 5.9877 0.0000 -10879.0692 1461.9443 0.0000 0.0000 1808.2723 -7597.5551 306.0245 -9405.8274 -7563.1580 298.0419 73.9420 163.7780 30198.7300 -321.4359 -267.9398
ENERGY: 900000 1.7033 4.2333 4.3159 0.0000 -10703.5990 1453.8560 0.0000 0.0000 1732.5591 -7506.9313 293.2112 -9239.4905 -7557.2288 297.1555 237.6882 318.0786 30448.2424 -134.3239 -77.5881
ENERGY: 1200000 4.3633 5.9740 8.9949 0.0000 -10787.1031 1431.2608 0.0000 0.0000 1759.9012 -7576.6089 297.8384 -9336.5101 -7550.9652 298.0373 -380.7949 -250.9824 30301.4226 -51.5752 9.8641
ENERGY: 1500000 1.6722 3.7114 5.3271 0.0000 -10690.5124 1352.2863 0.0000 0.0000 1805.2187 -7522.2967 305.5078 -9327.5153 -7551.2661 298.5545 -686.6220 -613.2638 30700.9221 -88.1390 -21.2739
TCL: Running FEP window  16: Lambda1 0.24999999999999967 Lambda2 0.19999999999999968 [dLambda -0.04999999999999999]
TCL: Setting parameter firsttimestep to 0
TCL: Setting parameter alchLambda to 0.24999999999999967
Info: NONBONDED TABLE R-SQUARED SPACING: 0.0625
Info: NONBONDED TABLE SIZE: 705 POINTS
TCL: Setting parameter alchLambda2 to 0.19999999999999968
Info: NONBONDED TABLE R-SQUARED SPACING: 0.0625
Info: NONBONDED TABLE SIZE: 705 POINTS
TCL: Running for 1500000 steps
ETITLE: TS BOND ANGLE DIHED IMPRP ELECT VDW BOUNDARY MISC KINETIC TOTAL TEMP POTENTIAL TOTALAVG TEMPAVG PRESSURE GPRESSURE VOLUME PRESSAVG GPRESSAVG
ENERGY: 0 1.6722 3.7114 5.3271 0.0000 -10690.5132 1352.2907 0.0000 0.0000 1804.3488 -7523.1630 305.3606 -9327.5118 -7523.1630 305.3606 -697.9461 -620.1271 30700.9221 -697.9461 -620.1271
ENERGY: 300000 4.1031 7.7623 3.9512 0.0000 -10906.9652 1547.2184 0.0000 0.0000 1736.4702 -7607.4600 293.8731 -9343.9303 -7570.4936 299.6550 543.8171 668.3625 30381.8157 -45.3857 45.1704
ENERGY: 600000 1.6582 1.9944 6.4884 0.0000 -10745.8110 1394.0080 0.0000 0.0000 1732.9190 -7608.7431 293.2721 -9341.6620 -7592.6468 299.6613 -407.2795 -364.6040 30646.6485 -37.3099 41.7738
ENERGY: 900000 2.1351 8.8571 8.8497 0.0000 -10858.4355 1462.9694 0.0000 0.0000 1733.9052 -7641.7189 293.4390 -9375.6241 -7583.3974 299.1801 -89.4234 -81.0468 30372.4561 -58.8052 13.0857
ENERGY: 1200000 1.1296 4.3650 5.2245 0.0000 -10654.6448 1344.1903 0.0000 0.0000 1744.3773 -7555.3580 295.2112 -9299.7354 -7578.6481 299.3982 -1119.8020 -1059.7070 31005.0244 -138.5212 -71.1419
ENERGY: 1500000 2.5042 5.4625 6.4159 0.0000 -10707.4311 1419.5739 0.0000 0.0000 1767.2252 -7506.2495 299.0779 -9273.4747 -7571.8077 299.3387 -159.5599 -144.8727 30482.6926 -113.6622 -47.8902
TCL: Running FEP window  17: Lambda1 0.19999999999999968 Lambda2 0.1499999999999997 [dLambda -0.04999999999999999]
TCL: Setting parameter firsttimestep to 0
TCL: Setting parameter alchLambda to 0.19999999999999968
Info: NONBONDED TABLE R-SQUARED SPACING: 0.0625
Info: NONBONDED TABLE SIZE: 705 POINTS
TCL: Setting parameter alchLambda2 to 0.1499999999999997
Info: NONBONDED TABLE R-SQUARED SPACING: 0.0625
Info: NONBONDED TABLE SIZE: 705 POINTS
TCL: Running for 1500000 steps
ETITLE: TS BOND ANGLE DIHED IMPRP ELECT VDW BOUNDARY MISC KINETIC TOTAL TEMP POTENTIAL TOTALAVG TEMPAVG PRESSURE GPRESSURE VOLUME PRESSAVG GPRESSAVG
ENERGY: 0 2.5042 5.4625 6.4159 0.0000 -10707.4325 1418.8805 0.0000 0.0000 1766.3343 -7507.8351 298.9271 -9274.1694 -7507.8351 298.9271 -234.3352 -148.1262 30482.6926 -234.3352 -148.1262
ENERGY: 300000 6.1170 4.8814 6.1178 0.0000 -10708.8315 1423.3515 0.0000 0.0000 1837.2852 -7431.0786 310.9346 -9268.3639 -7513.9939 302.6669 -15.1769 51.6926 30620.1434 -85.1079 6.6616
ENERGY: 600000 3.2937 6.3715 3.3614 0.0000 -10828.9569 1479.6716 0.0000 0.0000 1742.1496 -7594.1090 294.8342 -9336.2586 -7531.4784 300.8678 329.6465 377.0077 30215.3785 126.8635 197.4572
ENERGY: 900000 3.8804 4.0872 6.4816 0.0000 -10929.4637 1545.9686 0.0000 0.0000 1752.2535 -7616.7924 296.5442 -9369.0459 -7550.2496 299.5038 440.8782 470.8602 30489.3950 175.3014 238.7511
ENERGY: 1200000 2.4956 3.5661 2.9461 0.0000 -10678.9647 1332.1409 0.0000 0.0000 1796.2976 -7541.5184 303.9980 -9337.8160 -7548.0665 299.5811 -598.5779 -562.5180 29923.7869 124.2925 188.5264
ENERGY: 1500000 1.6115 4.4095 5.3581 0.0000 -10854.3069 1486.6218 0.0000 0.0000 1785.2128 -7571.0930 302.1221 -9356.3059 -7538.7492 299.6123 241.9877 284.5337 30210.0236 127.3445 187.5571
TCL: Running FEP window  18: Lambda1 0.1499999999999997 Lambda2 0.09999999999999969 [dLambda -0.05 ]
TCL: Setting parameter firsttimestep to 0
TCL: Setting parameter alchLambda to 0.1499999999999997
Info: NONBONDED TABLE R-SQUARED SPACING: 0.0625
Info: NONBONDED TABLE SIZE: 705 POINTS
TCL: Setting parameter alchLambda2 to 0.09999999999999969
Info: NONBONDED TABLE R-SQUARED SPACING: 0.0625
Info: NONBONDED TABLE SIZE: 705 POINTS
TCL: Running for 1500000 steps
ETITLE: TS BOND ANGLE DIHED IMPRP ELECT VDW BOUNDARY MISC KINETIC TOTAL TEMP POTENTIAL TOTALAVG TEMPAVG PRESSURE GPRESSURE VOLUME PRESSAVG GPRESSAVG
ENERGY: 0 1.6115 4.4095 5.3581 0.0000 -10854.3068 1485.5743 0.0000 0.0000 1784.3055 -7573.0478 301.9685 -9357.3533 -7573.0478 301.9685 186.3554 275.3069 30210.0236 186.3554 275.3069
ENERGY: 300000 2.8966 5.9969 2.8157 0.0000 -10758.8571 1453.7747 0.0000 0.0000 1767.5023 -7525.8710 299.1248 -9293.3733 -7561.8718 299.4473 173.6575 201.2181 30399.4672 -74.9033 -11.7408
ENERGY: 600000 1.9111 4.5048 2.3749 0.0000 -10757.4254 1433.1392 0.0000 0.0000 1804.9108 -7510.5845 305.4557 -9315.4953 -7550.0142 301.0791 -213.4665 -130.7255 30755.2759 -66.6123 14.6843
ENERGY: 900000 3.0635 6.6488 5.1949 0.0000 -10759.2823 1393.0418 0.0000 0.0000 1791.0381 -7560.2952 303.1079 -9351.3333 -7541.7201 301.4466 -463.9346 -468.6002 30207.3031 -116.4348 -45.5948
ENERGY: 1200000 2.2717 4.1799 4.6874 0.0000 -10869.0621 1518.2065 0.0000 0.0000 1739.6494 -7600.0671 294.4111 -9339.7165 -7551.7021 300.2207 485.1001 564.1081 30501.7335 -59.0151 19.2263
ENERGY: 1500000 5.7992 2.4478 5.0005 0.0000 -10740.4976 1447.5916 0.0000 0.0000 1785.2430 -7494.4155 302.1272 -9279.6585 -7549.3302 300.0063 -14.5914 39.8598 30397.7751 -47.3042 24.2974
TCL: Running FEP window  19: Lambda1 0.09999999999999969 Lambda2 0.049999999999999684 [dLambda -0.05 ]
TCL: Setting parameter firsttimestep to 0
TCL: Setting parameter alchLambda to 0.09999999999999969
Info: NONBONDED TABLE R-SQUARED SPACING: 0.0625
Info: NONBONDED TABLE SIZE: 705 POINTS
TCL: Setting parameter alchLambda2 to 0.049999999999999684
Info: NONBONDED TABLE R-SQUARED SPACING: 0.0625
Info: NONBONDED TABLE SIZE: 705 POINTS
TCL: Running for 1500000 steps
ETITLE: TS BOND ANGLE DIHED IMPRP ELECT VDW BOUNDARY MISC KINETIC TOTAL TEMP POTENTIAL TOTALAVG TEMPAVG PRESSURE GPRESSURE VOLUME PRESSAVG GPRESSAVG
ENERGY: 0 5.7992 2.4478 5.0005 0.0000 -10740.4988 1446.8028 0.0000 0.0000 1784.3626 -7496.0859 301.9782 -9280.4485 -7496.0859 301.9782 -48.5382 30.9280 30397.7751 -48.5382 30.9280
ENERGY: 300000 2.0465 5.9341 5.6901 0.0000 -10716.7026 1358.3453 0.0000 0.0000 1740.9173 -7603.7693 294.6257 -9344.6866 -7546.5153 299.9347 -951.6104 -875.5586 30587.2540 -378.4474 -319.2232
ENERGY: 600000 4.6345 3.5843 3.2523 0.0000 -10723.9767 1459.1577 0.0000 0.0000 1779.4742 -7473.8737 301.1509 -9253.3479 -7525.0382 302.0544 102.5871 123.9063 30770.3130 -354.2619 -315.7744
ENERGY: 900000 5.2767 4.9850 6.0552 0.0000 -10845.8690 1487.2443 0.0000 0.0000 1750.8011 -7591.5067 296.2984 -9342.3079 -7548.4174 299.6623 -19.1538 23.0068 30533.8192 -274.6093 -227.2757
ENERGY: 1200000 1.5805 5.1483 2.0753 0.0000 -10669.9393 1379.4110 0.0000 0.0000 1772.6381 -7509.0860 299.9940 -9281.7241 -7540.2422 300.2682 -438.3377 -372.0784 30402.6546 -215.0364 -161.3491
ENERGY: 1500000 3.6608 7.2567 3.0084 0.0000 -10803.7680 1430.5500 0.0000 0.0000 1770.9421 -7588.3500 299.7069 -9359.2921 -7545.8796 300.3365 23.8333 144.7899 29990.2906 -201.7847 -146.2516
TCL: Running FEP window  20: Lambda1 0.049999999999999684 Lambda2 0.0    [dLambda -0.049999999999999684]
TCL: Setting parameter firsttimestep to 0
TCL: Setting parameter alchLambda to 0.049999999999999684
Info: NONBONDED TABLE R-SQUARED SPACING: 0.0625
Info: NONBONDED TABLE SIZE: 705 POINTS
TCL: Setting parameter alchLambda2 to 0.0
Info: NONBONDED TABLE R-SQUARED SPACING: 0.0625
Info: NONBONDED TABLE SIZE: 705 POINTS
TCL: Running for 1500000 steps
ETITLE: TS BOND ANGLE DIHED IMPRP ELECT VDW BOUNDARY MISC KINETIC TOTAL TEMP POTENTIAL TOTALAVG TEMPAVG PRESSURE GPRESSURE VOLUME PRESSAVG GPRESSAVG
ENERGY: 0 3.6608 7.2567 3.0084 0.0000 -10803.7693 1430.8631 0.0000 0.0000 1770.0798 -7588.9005 299.5610 -9358.9803 -7588.9005 299.5610 45.8886 144.1663 29990.2906 45.8886 144.1663
ENERGY: 300000 2.4414 4.7373 5.5296 0.0000 -10953.5490 1519.0466 0.0000 0.0000 1705.0857 -7716.7084 288.5617 -9421.7941 -7608.1931 293.9731 227.8658 291.7881 30057.8960 -25.7890 32.0306
ENERGY: 600000 5.1901 8.2374 3.5215 0.0000 -10806.8325 1475.5529 0.0000 0.0000 1705.7863 -7608.5443 288.6803 -9314.3306 -7580.4103 295.2354 508.4048 464.2312 29954.3224 5.3033 41.5846
ENERGY: 900000 2.4796 8.1125 3.1142 0.0000 -10617.7975 1309.2679 0.0000 0.0000 1790.7851 -7504.0382 303.0651 -9294.8233 -7561.5045 297.8223 -1048.1042 -917.4423 30506.1526 -150.5627 -91.8461
ENERGY: 1200000 2.8562 5.2613 2.7989 0.0000 -10779.0339 1444.3155 0.0000 0.0000 1806.7923 -7517.0096 305.7741 -9323.8019 -7555.5977 299.1559 47.3523 113.8506 30338.8048 -59.0994 0.7135
ENERGY: 1500000 1.3249 4.1594 6.4645 0.0000 -10761.7337 1421.4426 0.0000 0.0000 1758.1282 -7570.2141 297.5384 -9328.3423 -7554.1560 299.7980 -398.9756 -283.1497 30762.1255 -72.5515 -5.9556
TCL: Exiting due to exit command.
