Info: SIMULATION PARAMETERS:
Info: TIMESTEP               2
Info: NUMBER OF STEPS        0
Info: STEPS PER CYCLE        10
Info: PERIODIC CELL BASIS 1  29.4125 0 0
Info: PERIODIC CELL BASIS 2  0 32.3846 0
Info: PERIODIC CELL BASIS 3  0 0 31.5991
Info: PERIODIC CELL CENTER   0 0 0
Info: WRAPPING WATERS AROUND PERIODIC BOUNDARIES ON OUTPUT.
Info: WRAPPING ALL CLUSTERS AROUND PERIODIC BOUNDARIES ON OUTPUT.
Info: FIRST LDB TIMESTEP     50
Info: LAST LDB TIMESTEP     -1
Info: HOM BACKGROUND SCALING 1
Info: PME BACKGROUND SCALING 1
Info: MIN ATOMS PER PATCH    40
Info: EMPTY PATCH LOAD       40 ATOMS
Info: VELOCITY FILE          mobley_8765203_equil.vel
Info: CENTER OF MASS MOVING INITIALLY? NO
Info: DIELECTRIC             1
Info: EXCLUDE                SCALED ONE-FOUR
Info: 1-4 ELECTROSTATICS SCALED BY 0.833333
Info: MODIFIED 1-4 VDW PARAMETERS WILL BE USED
Info: DCD FILENAME           mobley_8765203_prod.dcd
Info: DCD FREQUENCY          100000
Info: DCD FIRST STEP         100000
Info: DCD FILE WILL CONTAIN UNIT CELL DATA
Info: XST FILENAME           mobley_8765203_prod.xst
Info: XST FREQUENCY          100000
Info: NO VELOCITY DCD OUTPUT
Info: NO FORCE DCD OUTPUT
Info: OUTPUT FILENAME        mobley_8765203_prod
Info: BINARY OUTPUT FILES WILL BE USED
Info: RESTART FILENAME       mobley_8765203_prod.restart
Info: RESTART FREQUENCY      100000
Info: BINARY RESTART FILES WILL BE USED
Info: CUTOFF                 9
Info: PAIRLIST DISTANCE      11
Info: PAIRLIST SHRINK RATE   0.01
Info: PAIRLIST GROW RATE     0.01
Info: PAIRLIST TRIGGER       0.3
Info: PAIRLISTS PER CYCLE    2
Info: PAIRLISTS ENABLED
Info: MARGIN                 2
Info: HYDROGEN GROUP CUTOFF  2.5
Info: PATCH DIMENSION        15.5
Info: ENERGY OUTPUT STEPS    100000
Info: ENERGY EVALUATION STEPS    100000
Info: OUTPUT ENERGY PRECISION 4
Info: CROSSTERM ENERGY INCLUDED IN DIHEDRAL
Info: TIMING OUTPUT STEPS    1000000
Info: PRESSURE OUTPUT STEPS  100000
Info: ALCHEMICAL FEP ON
Info: FEP CURRENT LAMBDA VALUE     0
Info: FEP COMPARISON LAMBDA VALUE  0.05
Info: FEP INTRA-ALCHEMICAL NON-BONDED INTERACTIONS WILL BE RETAINED
Info: FEP INTRA-ALCHEMICAL BONDED INTERACTIONS WILL BE RETAINED
Info: FEP VDW SHIFTING COEFFICIENT 5
Info: FEP ELEC. ACTIVE FOR ANNIHILATED PARTICLES BETWEEN LAMBDA = 0 AND LAMBDA = 0.5
Info: FEP ELEC. ACTIVE FOR EXNIHILATED PARTICLES BETWEEN LAMBDA = 0.5 AND LAMBDA = 1
Info: FEP VDW ACTIVE FOR ANNIHILATED PARTICLES BETWEEN LAMBDA = 0 AND LAMBDA = 1
Info: FEP VDW ACTIVE FOR EXNIHILATED PARTICLES BETWEEN LAMBDA = 0 AND LAMBDA = 1
Info: FEP BOND ACTIVE FOR ANNIHILATED PARTICLES BETWEEN LAMBDA = 1 AND LAMBDA = 1
Info: FEP BOND ACTIVE FOR EXNIHILATED PARTICLES BETWEEN LAMBDA = 0 AND LAMBDA = 0
Info: LANGEVIN DYNAMICS ACTIVE
Info: LANGEVIN TEMPERATURE   300
Info: LANGEVIN USING BBK INTEGRATOR
Info: LANGEVIN DAMPING COEFFICIENT IS 1 INVERSE PS
Info: LANGEVIN DYNAMICS APPLIED TO HYDROGENS
Info: LANGEVIN PISTON PRESSURE CONTROL ACTIVE
Info:        TARGET PRESSURE IS 1.01325 BAR
Info:     OSCILLATION PERIOD IS 50 FS
Info:             DECAY TIME IS 25 FS
Info:     PISTON TEMPERATURE IS 300 K
Info:       PRESSURE CONTROL IS GROUP-BASED
Info:    INITIAL STRAIN RATE IS 0.000387411 0.000387411 0.000387411
Info:       CELL FLUCTUATION IS ISOTROPIC
Info: PARTICLE MESH EWALD (PME) ACTIVE
Info: PME TOLERANCE               1e-06
Info: PME EWALD COEFFICIENT       0.348832
Info: PME INTERPOLATION ORDER     4
Info: PME GRID DIMENSIONS         32 36 32
Info: PME MAXIMUM GRID SPACING    1
Info: PME CALCULATION WILL BE PERFORMED ON GPU
Info: FULL ELECTROSTATIC EVALUATION FREQUENCY      2
Info: USING VERLET I (r-RESPA) MTS SCHEME.
Info: C1 SPLITTING OF LONG RANGE ELECTROSTATICS
Info: PLACING ATOMS IN PATCHES BY HYDROGEN GROUPS
Info: RIGID BONDS TO HYDROGEN : ALL
Info:         ERROR TOLERANCE : 1e-08
Info:          MAX ITERATIONS : 100
Info: RIGID WATER USING SETTLE ALGORITHM
Info: RANDOM NUMBER SEED     1743730483
Info: USE HYDROGEN BONDS?    NO
Info: Using AMBER format force field!
Info: AMBER PARM FILE        mobley_8765203.prmtop
Info: COORDINATE PDB         mobley_8765203.pdb
Info: Exclusions will be read from PARM file!
Info: SCNB (VDW SCALING)     2
Info: USING ARITHMETIC MEAN TO COMBINE L-J SIGMA PARAMETERS
Info: BINARY COORDINATES     mobley_8765203_equil.coor
Info: SUMMARY OF PARAMETERS:
Info: 8 BONDS
Info: 9 ANGLES
Info:   9 HARMONIC
Info:   0 COSINE-BASED
Info: 5 DIHEDRAL
Info: 0 IMPROPER
Info: 0 CROSSTERM
Info: 0 VDW
Info: 21 VDW_PAIRS
Info: 0 NBTHOLE_PAIRS
Info: To read alchdata from file: mobley_8765203.pdb
Info: To read alchflag data from column: 5
Info: STRUCTURE SUMMARY:
Info: 2902 ATOMS
Info: 2901 BONDS
Info: 18 ANGLES
Info: 28 DIHEDRALS
Info: 0 IMPROPERS
Info: 0 CROSSTERMS
Info: 2937 EXCLUSIONS
Info: 2897 RIGID BONDS
Info: ALCH: 0 ATOMS TO DISAPPEAR IN FINAL STATE
Info: ALCH: 13 ATOMS TO APPEAR IN FINAL STATE
Info: 5809 DEGREES OF FREEDOM
Info: 968 HYDROGEN GROUPS
Info: 4 ATOMS IN LARGEST HYDROGEN GROUP
Info: 968 MIGRATION GROUPS
Info: 4 ATOMS IN LARGEST MIGRATION GROUP
Info: TOTAL MASS = 17417.5 amu
Info: TOTAL CHARGE = 0.000200022 e
Info: MASS DENSITY = 0.96095 g/cm^3
Info: ATOM DENSITY = 0.0964168 atoms/A^3
Info: ADDED 0 IMPLICIT EXCLUSIONS
Info: NONBONDED TABLE R-SQUARED SPACING: 0.0625
Info: NONBONDED TABLE SIZE: 705 POINTS
Info: REMOVING COM VELOCITY -0.0420906 0.150739 -0.0973092
Info: Use 3D box decompostion in PME FFT.
Info: Updated CUDA force table with 4096 elements.
Info: Updated CUDA LJ table with 6 x 6 elements.
Info: Found 16 unique exclusion lists needing 28 bytes
TCL: Running for 1500000 steps
ETITLE: TS BOND ANGLE DIHED IMPRP ELECT VDW BOUNDARY MISC KINETIC TOTAL TEMP POTENTIAL TOTALAVG TEMPAVG PRESSURE GPRESSURE VOLUME PRESSAVG GPRESSAVG
ENERGY: 0 0.8949 2.4012 11.9260 0.0000 -10482.6033 1425.9568 0.0000 0.0000 1700.6948 -7340.7297 294.6561 -9041.4245 -7340.7297 294.6561 -47.8488 40.4214 30098.4895 -47.8488 40.4214
ENERGY: 300000 2.0979 4.4932 12.1685 0.0000 -10521.7738 1358.6659 0.0000 0.0000 1756.2620 -7388.0861 304.2834 -9144.3482 -7366.7969 297.2747 -590.0454 -519.2946 29548.9588 -543.6670 -468.8758
ENERGY: 600000 1.5752 4.6400 11.9933 0.0000 -10539.5330 1454.2801 0.0000 0.0000 1747.6725 -7319.3719 302.7952 -9067.0444 -7349.2492 299.9428 348.8363 370.9040 29926.2307 -24.3993 24.1737
ENERGY: 900000 2.9665 2.6021 11.0162 0.0000 -10487.9923 1417.7407 0.0000 0.0000 1759.1381 -7294.5288 304.7817 -9053.6669 -7341.8136 300.9787 187.5351 295.3099 29627.3071 -44.0279 11.9267
ENERGY: 1200000 0.6821 4.2774 12.7960 0.0000 -10498.8964 1378.2685 0.0000 0.0000 1759.1640 -7343.7083 304.7862 -9102.8724 -7347.7963 300.6314 -520.8265 -431.9793 30041.9883 74.7556 133.9097
ENERGY: 1500000 1.9396 5.7352 11.6145 0.0000 -10556.5759 1429.5729 0.0000 0.0000 1712.0210 -7395.6928 296.6184 -9107.7138 -7358.2662 299.8893 -79.1031 -12.1032 29942.4399 74.7345 136.3500
TCL: Running FEP window   2: Lambda1 0.05   Lambda2 0.1    [dLambda 0.05  ]
TCL: Setting parameter firsttimestep to 0
TCL: Setting parameter alchLambda to 0.05
Info: NONBONDED TABLE R-SQUARED SPACING: 0.0625
Info: NONBONDED TABLE SIZE: 705 POINTS
TCL: Setting parameter alchLambda2 to 0.1
Info: NONBONDED TABLE R-SQUARED SPACING: 0.0625
Info: NONBONDED TABLE SIZE: 705 POINTS
TCL: Running for 1500000 steps
ETITLE: TS BOND ANGLE DIHED IMPRP ELECT VDW BOUNDARY MISC KINETIC TOTAL TEMP POTENTIAL TOTALAVG TEMPAVG PRESSURE GPRESSURE VOLUME PRESSAVG GPRESSAVG
ENERGY: 0 1.9396 5.7352 11.6145 0.0000 -10556.5749 1431.5855 0.0000 0.0000 1711.1228 -7394.5773 296.4628 -9105.7001 -7394.5773 296.4628 -86.5823 -4.4895 29942.4399 -86.5823 -4.4895
ENERGY: 300000 1.9069 5.0677 11.8347 0.0000 -10413.8007 1318.6890 0.0000 0.0000 1778.6100 -7297.6924 308.1554 -9076.3024 -7362.2134 304.4648 -800.9891 -744.8409 29804.8438 -371.5817 -304.9329
ENERGY: 600000 0.4497 5.4720 11.3364 0.0000 -10568.4405 1427.0487 0.0000 0.0000 1700.4148 -7423.7188 294.6076 -9124.1336 -7382.3789 299.8791 104.9705 177.0529 29382.9759 -273.1586 -198.7753
ENERGY: 900000 1.7426 2.8865 11.7334 0.0000 -10537.0614 1468.2746 0.0000 0.0000 1723.6352 -7328.7890 298.6306 -9052.4242 -7371.5259 299.5304 459.9504 533.2856 29741.5880 -171.7621 -106.7761
ENERGY: 1200000 1.3047 4.3782 9.7935 0.0000 -10543.8617 1455.8559 0.0000 0.0000 1705.8670 -7366.6623 295.5522 -9072.5293 -7369.4153 299.5210 365.3998 438.3698 29712.0929 -101.1371 -36.0513
ENERGY: 1500000 1.0431 6.3163 12.5119 0.0000 -10549.3749 1439.5966 0.0000 0.0000 1724.7892 -7365.1179 298.8306 -9089.9071 -7369.6457 299.3591 161.9784 233.2934 29640.3237 -63.3808 2.1039
TCL: Running FEP window   3: Lambda1 0.1    Lambda2 0.15000000000000002 [dLambda 0.05000000000000002]
TCL: Setting parameter firsttimestep to 0
TCL: Setting parameter alchLambda to 0.1
Info: NONBONDED TABLE R-SQUARED SPACING: 0.0625
Info: NONBONDED TABLE SIZE: 705 POINTS
TCL: Setting parameter alchLambda2 to 0.15000000000000002
Info: NONBONDED TABLE R-SQUARED SPACING: 0.0625
Info: NONBONDED TABLE SIZE: 705 POINTS
TCL: Running for 1500000 steps
ETITLE: TS BOND ANGLE DIHED IMPRP ELECT VDW BOUNDARY MISC KINETIC TOTAL TEMP POTENTIAL TOTALAVG TEMPAVG PRESSURE GPRESSURE VOLUME PRESSAVG GPRESSAVG
ENERGY: 0 1.0431 6.3163 12.5119 0.0000 -10549.3739 1439.5340 0.0000 0.0000 1723.9030 -7366.0657 298.6770 -9089.9687 -7366.0657 298.6770 162.0043 233.6158 29640.3237 162.0043 233.6158
ENERGY: 300000 3.8496 2.9278 11.3945 0.0000 -10491.0469 1383.6306 0.0000 0.0000 1659.4358 -7429.8085 287.5077 -9089.2444 -7371.1499 294.8419 -463.7711 -408.5980 29999.1057 7.0915 80.5789
ENERGY: 600000 2.5837 4.4548 10.9760 0.0000 -10647.0217 1491.8761 0.0000 0.0000 1760.7557 -7376.3755 305.0620 -9137.1311 -7341.1816 297.2870 449.3036 466.4105 29451.7396 -67.7688 -2.3992
ENERGY: 900000 0.5591 3.5557 11.9927 0.0000 -10432.6276 1351.0369 0.0000 0.0000 1751.2129 -7314.2702 303.4087 -9065.4831 -7340.0371 299.6209 -267.1435 -258.0861 29593.0876 -104.1364 -42.5010
ENERGY: 1200000 1.9299 5.0396 11.0176 0.0000 -10561.4813 1498.7453 0.0000 0.0000 1728.1440 -7316.6050 299.4118 -9044.7490 -7336.3924 300.5153 233.3104 294.8938 30240.8387 -106.4542 -40.2887
ENERGY: 1500000 0.8389 6.6421 11.6644 0.0000 -10582.2820 1440.4658 0.0000 0.0000 1675.8231 -7446.8476 290.3469 -9122.6707 -7350.3924 299.3312 -110.9476 -17.8802 29884.8191 -116.0021 -49.6736
TCL: Running FEP window   4: Lambda1 0.15000000000000002 Lambda2 0.2    [dLambda 0.04999999999999999]
TCL: Setting parameter firsttimestep to 0
TCL: Setting parameter alchLambda to 0.15000000000000002
Info: NONBONDED TABLE R-SQUARED SPACING: 0.0625
Info: NONBONDED TABLE SIZE: 705 POINTS
TCL: Setting parameter alchLambda2 to 0.2
Info: NONBONDED TABLE R-SQUARED SPACING: 0.0625
Info: NONBONDED TABLE SIZE: 705 POINTS
TCL: Running for 1500000 steps
ETITLE: TS BOND ANGLE DIHED IMPRP ELECT VDW BOUNDARY MISC KINETIC TOTAL TEMP POTENTIAL TOTALAVG TEMPAVG PRESSURE GPRESSURE VOLUME PRESSAVG GPRESSAVG
ENERGY: 0 0.8389 6.6421 11.6644 0.0000 -10582.2854 1441.0535 0.0000 0.0000 1674.9745 -7447.1119 290.1999 -9122.0864 -7447.1119 290.1999 -98.4077 -10.1954 29884.8191 -98.4077 -10.1954
ENERGY: 300000 1.1042 1.9949 11.6313 0.0000 -10597.0583 1404.3421 0.0000 0.0000 1699.0271 -7478.9587 294.3671 -9177.9858 -7375.0605 299.1077 -176.1343 -152.6353 29374.4226 -134.3109 -80.9590
ENERGY: 600000 1.2228 4.6497 10.6864 0.0000 -10568.7159 1392.8105 0.0000 0.0000 1729.6702 -7429.6763 299.6762 -9159.3465 -7372.8817 299.6708 -463.8139 -401.5149 29742.8583 -10.3924 41.9826
ENERGY: 900000 1.6421 5.9516 10.5528 0.0000 -10521.7291 1424.1760 0.0000 0.0000 1734.4112 -7344.9955 300.4976 -9079.4066 -7358.1433 301.0657 -190.7285 -120.3542 30074.5758 -39.4764 13.6075
ENERGY: 1200000 10.1112 2.1109 11.5686 0.0000 -10488.8064 1377.9443 0.0000 0.0000 1729.5245 -7357.5469 299.6510 -9087.0714 -7353.8058 300.2121 -427.2787 -395.5335 29595.2244 -26.8210 25.3153
ENERGY: 1500000 2.2221 7.7262 11.1629 0.0000 -10751.9558 1563.7695 0.0000 0.0000 1681.8643 -7485.2107 291.3936 -9167.0750 -7354.1034 299.4065 718.3715 796.6250 29565.6315 104.0289 163.5574
TCL: Running FEP window   5: Lambda1 0.2    Lambda2 0.25   [dLambda 0.04999999999999999]
TCL: Setting parameter firsttimestep to 0
TCL: Setting parameter alchLambda to 0.2
Info: NONBONDED TABLE R-SQUARED SPACING: 0.0625
Info: NONBONDED TABLE SIZE: 705 POINTS
TCL: Setting parameter alchLambda2 to 0.25
Info: NONBONDED TABLE R-SQUARED SPACING: 0.0625
Info: NONBONDED TABLE SIZE: 705 POINTS
TCL: Running for 1500000 steps
ETITLE: TS BOND ANGLE DIHED IMPRP ELECT VDW BOUNDARY MISC KINETIC TOTAL TEMP POTENTIAL TOTALAVG TEMPAVG PRESSURE GPRESSURE VOLUME PRESSAVG GPRESSAVG
ENERGY: 0 2.2221 7.7262 11.1629 0.0000 -10751.9550 1564.7537 0.0000 0.0000 1681.0031 -7485.0870 291.2444 -9166.0901 -7485.0870 291.2444 714.2605 803.3924 29565.6315 714.2605 803.3924
ENERGY: 300000 1.4358 5.8456 12.2279 0.0000 -10602.7053 1453.8028 0.0000 0.0000 1749.4801 -7379.9131 303.1084 -9129.3932 -7436.6983 292.5641 216.8062 235.6244 29848.5184 141.3663 221.6294
ENERGY: 600000 3.1145 4.8687 11.4935 0.0000 -10522.3455 1413.2243 0.0000 0.0000 1700.5741 -7389.0704 294.6352 -9089.6446 -7390.7630 298.4372 -11.5480 60.2765 29389.5604 137.6427 213.8386
ENERGY: 900000 1.8752 2.9002 12.7353 0.0000 -10509.9798 1465.2476 0.0000 0.0000 1740.8531 -7286.3684 301.6138 -9027.2215 -7372.5224 299.6961 657.4133 682.3340 29798.1036 77.7933 148.8085
ENERGY: 1200000 1.6418 2.4686 13.2103 0.0000 -10507.6984 1461.0007 0.0000 0.0000 1690.1738 -7339.2031 292.8332 -9029.3769 -7371.4373 298.7552 656.7578 662.6496 29661.3495 40.3827 108.0551
ENERGY: 1500000 1.5557 3.7026 10.3436 0.0000 -10653.9613 1493.7952 0.0000 0.0000 1693.8256 -7450.7385 293.4659 -9144.5641 -7372.0696 298.1938 603.0525 633.5292 29695.7666 67.0628 131.4967
TCL: Running FEP window   6: Lambda1 0.25   Lambda2 0.3    [dLambda 0.04999999999999999]
TCL: Setting parameter firsttimestep to 0
TCL: Setting parameter alchLambda to 0.25
Info: NONBONDED TABLE R-SQUARED SPACING: 0.0625
Info: NONBONDED TABLE SIZE: 705 POINTS
TCL: Setting parameter alchLambda2 to 0.3
Info: NONBONDED TABLE R-SQUARED SPACING: 0.0625
Info: NONBONDED TABLE SIZE: 705 POINTS
TCL: Running for 1500000 steps
ETITLE: TS BOND ANGLE DIHED IMPRP ELECT VDW BOUNDARY MISC KINETIC TOTAL TEMP POTENTIAL TOTALAVG TEMPAVG PRESSURE GPRESSURE VOLUME PRESSAVG GPRESSAVG
ENERGY: 0 1.5558 3.7027 10.3436 0.0000 -10653.9630 1494.1627 0.0000 0.0000 1692.9387 -7451.2596 293.3123 -9144.1983 -7451.2596 293.3123 538.7375 638.0244 29695.7666 538.7375 638.0244
ENERGY: 300000 1.4844 4.2855 11.6840 0.0000 -10507.3961 1367.3802 0.0000 0.0000 1722.7701 -7399.7919 298.4808 -9122.5620 -7403.1260 296.4540 -543.5865 -417.1317 29704.4374 -265.0010 -174.5452
ENERGY: 600000 0.8937 5.8137 11.7903 0.0000 -10543.5122 1407.8542 0.0000 0.0000 1708.0776 -7409.0828 295.9352 -9117.1604 -7402.5005 295.3858 -34.6076 75.7377 29305.8393 -251.9279 -170.9637
ENERGY: 900000 0.8195 7.0779 9.9212 0.0000 -10448.9256 1355.8681 0.0000 0.0000 1717.4206 -7357.8183 297.5539 -9075.2389 -7379.8608 296.5446 -596.7329 -538.7317 30155.0309 -300.3499 -214.0359
ENERGY: 1200000 2.6307 4.1997 10.8994 0.0000 -10462.0367 1388.0482 0.0000 0.0000 1731.1499 -7325.1088 299.9326 -9056.2587 -7361.6650 298.5958 -422.1341 -414.3425 30348.1197 -235.5893 -157.0877
ENERGY: 1500000 0.3022 7.9508 10.5901 0.0000 -10502.5068 1360.9230 0.0000 0.0000 1691.1437 -7431.5968 293.0013 -9122.7405 -7357.4250 299.1600 -656.0677 -574.0028 30124.8245 -204.7496 -126.6074
TCL: Running FEP window   7: Lambda1 0.3    Lambda2 0.35   [dLambda 0.04999999999999999]
TCL: Setting parameter firsttimestep to 0
TCL: Setting parameter alchLambda to 0.3
Info: NONBONDED TABLE R-SQUARED SPACING: 0.0625
Info: NONBONDED TABLE SIZE: 705 POINTS
TCL: Setting parameter alchLambda2 to 0.35
Info: NONBONDED TABLE R-SQUARED SPACING: 0.0625
Info: NONBONDED TABLE SIZE: 705 POINTS
TCL: Running for 1500000 steps
ETITLE: TS BOND ANGLE DIHED IMPRP ELECT VDW BOUNDARY MISC KINETIC TOTAL TEMP POTENTIAL TOTALAVG TEMPAVG PRESSURE GPRESSURE VOLUME PRESSAVG GPRESSAVG
ENERGY: 0 0.3022 7.9509 10.5901 0.0000 -10502.5066 1361.4113 0.0000 0.0000 1690.2564 -7431.9957 292.8476 -9122.2521 -7431.9957 292.8476 -652.0505 -567.8823 30124.8245 -652.0505 -567.8823
ENERGY: 300000 2.3520 3.8206 12.8216 0.0000 -10455.0645 1417.1279 0.0000 0.0000 1762.3987 -7256.5437 305.3467 -9018.9424 -7363.1847 297.3023 102.5297 129.0404 30068.3348 -334.1861 -283.0860
ENERGY: 600000 0.9147 4.9171 11.6110 0.0000 -10539.8802 1360.3217 0.0000 0.0000 1708.3895 -7453.7263 295.9892 -9162.1158 -7373.1168 296.7401 -792.1156 -746.6957 29929.1414 -386.6628 -325.1540
ENERGY: 900000 1.1519 4.1968 14.4775 0.0000 -10535.9444 1383.5754 0.0000 0.0000 1752.7054 -7379.8374 303.6672 -9132.5428 -7356.3201 299.1348 -313.6205 -282.6364 29761.8981 -249.6667 -183.0813
ENERGY: 1200000 1.3345 2.2432 11.2015 0.0000 -10618.2333 1480.0138 0.0000 0.0000 1799.1630 -7324.2772 311.7163 -9123.4402 -7356.6713 299.8374 351.7514 457.1327 29745.5093 -123.6054 -54.0429
ENERGY: 1500000 2.2134 3.6229 11.8552 0.0000 -10589.2827 1410.1796 0.0000 0.0000 1748.3242 -7413.0874 302.9082 -9161.4116 -7364.6512 299.8863 -305.5679 -225.2322 29602.2351 -130.9921 -62.5214
TCL: Running FEP window   8: Lambda1 0.35   Lambda2 0.39999999999999997 [dLambda 0.04999999999999999]
TCL: Setting parameter firsttimestep to 0
TCL: Setting parameter alchLambda to 0.35
Info: NONBONDED TABLE R-SQUARED SPACING: 0.0625
Info: NONBONDED TABLE SIZE: 705 POINTS
TCL: Setting parameter alchLambda2 to 0.39999999999999997
Info: NONBONDED TABLE R-SQUARED SPACING: 0.0625
Info: NONBONDED TABLE SIZE: 705 POINTS
TCL: Running for 1500000 steps
ETITLE: TS BOND ANGLE DIHED IMPRP ELECT VDW BOUNDARY MISC KINETIC TOTAL TEMP POTENTIAL TOTALAVG TEMPAVG PRESSURE GPRESSURE VOLUME PRESSAVG GPRESSAVG
ENERGY: 0 2.2134 3.6229 11.8552 0.0000 -10589.2824 1411.0965 0.0000 0.0000 1747.4375 -7413.0568 302.7545 -9160.4944 -7413.0568 302.7545 -285.7746 -215.8164 29602.2351 -285.7746 -215.8164
ENERGY: 300000 1.9471 8.8115 10.5049 0.0000 -10360.7726 1342.8413 0.0000 0.0000 1747.0200 -7249.6478 302.6822 -8996.6677 -7340.9971 302.9098 -637.1098 -576.8118 30188.3633 -453.9922 -375.6218
ENERGY: 600000 1.2464 4.1596 11.0493 0.0000 -10444.0468 1371.3416 0.0000 0.0000 1740.0820 -7316.1680 301.4802 -9056.2500 -7355.4708 300.8338 -219.6714 -160.9955 29788.6862 -447.6134 -384.9502
ENERGY: 900000 2.0418 3.7860 13.5407 0.0000 -10440.8716 1330.7543 0.0000 0.0000 1737.2737 -7353.4752 300.9936 -9090.7488 -7375.4606 299.2729 -1098.6117 -944.6831 30211.6631 -514.4188 -435.7839
ENERGY: 1200000 2.3576 3.0792 12.5950 0.0000 -10442.6925 1400.0192 0.0000 0.0000 1744.7451 -7279.8966 302.2881 -9024.6416 -7368.0396 298.7664 -109.5873 -68.4782 29879.8710 -449.2095 -372.4827
ENERGY: 1500000 0.8969 9.0349 11.0266 0.0000 -10476.6290 1424.7923 0.0000 0.0000 1728.6589 -7302.2195 299.5010 -9030.8784 -7363.5775 299.3491 -85.9931 28.3729 30222.9351 -330.4908 -257.0896
TCL: Running FEP window   9: Lambda1 0.39999999999999997 Lambda2 0.44999999999999996 [dLambda 0.04999999999999999]
TCL: Setting parameter firsttimestep to 0
TCL: Setting parameter alchLambda to 0.39999999999999997
Info: NONBONDED TABLE R-SQUARED SPACING: 0.0625
Info: NONBONDED TABLE SIZE: 705 POINTS
TCL: Setting parameter alchLambda2 to 0.44999999999999996
Info: NONBONDED TABLE R-SQUARED SPACING: 0.0625
Info: NONBONDED TABLE SIZE: 705 POINTS
TCL: Running for 1500000 steps
ETITLE: TS BOND ANGLE DIHED IMPRP ELECT VDW BOUNDARY MISC KINETIC TOTAL TEMP POTENTIAL TOTALAVG TEMPAVG PRESSURE GPRESSURE VOLUME PRESSAVG GPRESSAVG
ENERGY: 0 0.8969 9.0349 11.0266 0.0000 -10476.6287 1424.6329 0.0000 0.0000 1727.8380 -7303.1994 299.3588 -9031.0374 -7303.1994 299.3588 -56.3294 33.3239 30222.9351 -56.3294 33.3239
ENERGY: 300000 1.0535 3.2641 10.3167 0.0000 -10306.2319 1303.3571 0.0000 0.0000 1730.0914 -7258.1490 299.7492 -8988.2404 -7334.9990 299.9187 -771.8421 -723.1995 30266.8061 67.4031 133.7767
ENERGY: 600000 1.0303 3.4825 13.8021 0.0000 -10518.3592 1402.2323 0.0000 0.0000 1744.9848 -7352.8273 302.3296 -9097.8122 -7346.7067 298.8248 -170.8522 -115.0089 29725.4305 -30.6410 28.3565
ENERGY: 900000 0.6805 1.9116 14.2988 0.0000 -10305.9600 1275.7743 0.0000 0.0000 1729.1064 -7284.1883 299.5786 -9013.2948 -7325.1203 299.9038 -899.5423 -814.6842 30005.6016 -159.2992 -99.4186
ENERGY: 1200000 0.2184 4.2901 11.7228 0.0000 -10512.7598 1383.4975 0.0000 0.0000 1732.0501 -7380.9809 300.0886 -9113.0309 -7341.5261 299.9928 -298.6012 -252.2708 29824.7029 -219.9161 -157.8130
ENERGY: 1500000 1.6952 3.5028 11.3508 0.0000 -10517.6489 1366.4358 0.0000 0.0000 1680.9939 -7453.6705 291.2428 -9134.6644 -7362.3139 298.9717 -352.5155 -292.2978 29527.8807 -161.9947 -97.2919
TCL: Running FEP window  10: Lambda1 0.44999999999999996 Lambda2 0.49999999999999994 [dLambda 0.04999999999999999]
TCL: Setting parameter firsttimestep to 0
TCL: Setting parameter alchLambda to 0.44999999999999996
Info: NONBONDED TABLE R-SQUARED SPACING: 0.0625
Info: NONBONDED TABLE SIZE: 705 POINTS
TCL: Setting parameter alchLambda2 to 0.49999999999999994
Info: NONBONDED TABLE R-SQUARED SPACING: 0.0625
Info: NONBONDED TABLE SIZE: 705 POINTS
TCL: Running for 1500000 steps
ETITLE: TS BOND ANGLE DIHED IMPRP ELECT VDW BOUNDARY MISC KINETIC TOTAL TEMP POTENTIAL TOTALAVG TEMPAVG PRESSURE GPRESSURE VOLUME PRESSAVG GPRESSAVG
ENERGY: 0 1.6952 3.5028 11.3508 0.0000 -10517.6486 1366.1764 0.0000 0.0000 1680.1052 -7454.8183 291.0888 -9134.9235 -7454.8183 291.0888 -361.4137 -290.9960 29527.8807 -361.4137 -290.9960
ENERGY: 300000 0.5760 4.5039 10.8009 0.0000 -10571.4581 1426.5724 0.0000 0.0000 1774.9164 -7354.0885 307.5154 -9129.0049 -7401.0120 296.1283 -122.5837 -13.4717 29837.6245 -314.9202 -226.6678
ENERGY: 600000 0.0906 3.1542 12.1437 0.0000 -10553.4731 1451.4715 0.0000 0.0000 1749.5931 -7337.0201 303.1280 -9086.6131 -7387.8502 298.2005 262.7812 309.6314 29817.4724 -193.2439 -102.3069
ENERGY: 900000 0.1454 5.5522 13.2450 0.0000 -10528.6700 1399.1568 0.0000 0.0000 1732.8146 -7377.7561 300.2210 -9110.5706 -7382.7569 298.5581 211.5640 231.6415 29291.0670 -100.2338 -25.0539
ENERGY: 1200000 0.3211 3.8530 11.6224 0.0000 -10460.8450 1405.5274 0.0000 0.0000 1796.9747 -7242.5463 311.3372 -9039.5210 -7372.5362 300.4013 298.0613 390.1490 29690.1235 -72.3338 3.3654
ENERGY: 1500000 1.1916 4.4541 11.7201 0.0000 -10415.9609 1375.7358 0.0000 0.0000 1752.1577 -7270.7016 303.5723 -9022.8593 -7368.5049 300.1878 -216.3508 -140.1732 30027.0273 -172.7747 -98.3895
TCL: Running FEP window  11: Lambda1 0.49999999999999994 Lambda2 0.5499999999999999 [dLambda 0.04999999999999999]
TCL: Setting parameter firsttimestep to 0
TCL: Setting parameter alchLambda to 0.49999999999999994
Info: NONBONDED TABLE R-SQUARED SPACING: 0.0625
Info: NONBONDED TABLE SIZE: 705 POINTS
TCL: Setting parameter alchLambda2 to 0.5499999999999999
Info: NONBONDED TABLE R-SQUARED SPACING: 0.0625
Info: NONBONDED TABLE SIZE: 705 POINTS
TCL: Running for 1500000 steps
ETITLE: TS BOND ANGLE DIHED IMPRP ELECT VDW BOUNDARY MISC KINETIC TOTAL TEMP POTENTIAL TOTALAVG TEMPAVG PRESSURE GPRESSURE VOLUME PRESSAVG GPRESSAVG
ENERGY: 0 1.1916 4.4541 11.7201 0.0000 -10415.9615 1376.5103 0.0000 0.0000 1751.2938 -7270.7916 303.4227 -9022.0854 -7270.7916 303.4227 -222.1755 -128.1306 30027.0273 -222.1755 -128.1306
ENERGY: 300000 2.0328 7.0216 10.8006 0.0000 -10555.9101 1395.8458 0.0000 0.0000 1725.0779 -7415.1314 298.8806 -9140.2093 -7400.7684 296.7826 -595.4782 -503.3004 30089.8809 -210.3476 -135.2755
ENERGY: 600000 4.1437 4.0182 12.7945 0.0000 -10486.8736 1358.8664 0.0000 0.0000 1698.4528 -7408.5980 294.2676 -9107.0508 -7371.8043 299.2259 -486.3945 -421.2504 29623.6519 -10.6759 47.6594
ENERGY: 900000 1.4902 4.1514 11.8498 0.0000 -10527.6128 1439.4923 0.0000 0.0000 1714.5447 -7356.0844 297.0557 -9070.6291 -7364.4501 298.9522 204.4915 235.4439 29595.5920 108.4403 172.4697
ENERGY: 1200000 0.3800 3.2556 11.0835 0.0000 -10444.3333 1362.0916 0.0000 0.0000 1672.4938 -7395.0288 289.7701 -9067.5226 -7367.3569 297.7925 -580.2432 -427.2616 29920.3992 98.5149 171.4974
ENERGY: 1500000 0.1893 6.5492 10.5604 0.0000 -10364.7858 1320.6950 0.0000 0.0000 1689.1600 -7337.6320 292.6576 -9026.7921 -7371.1548 297.9375 -420.1289 -426.5787 29758.2036 -12.2506 57.2104
TCL: Running FEP window  12: Lambda1 0.5499999999999999 Lambda2 0.6    [dLambda 0.050000000000000044]
TCL: Setting parameter firsttimestep to 0
TCL: Setting parameter alchLambda to 0.5499999999999999
Info: NONBONDED TABLE R-SQUARED SPACING: 0.0625
Info: NONBONDED TABLE SIZE: 705 POINTS
TCL: Setting parameter alchLambda2 to 0.6
Info: NONBONDED TABLE R-SQUARED SPACING: 0.0625
Info: NONBONDED TABLE SIZE: 705 POINTS
TCL: Running for 1500000 steps
ETITLE: TS BOND ANGLE DIHED IMPRP ELECT VDW BOUNDARY MISC KINETIC TOTAL TEMP POTENTIAL TOTALAVG TEMPAVG PRESSURE GPRESSURE VOLUME PRESSAVG GPRESSAVG
ENERGY: 0 0.1893 6.5492 10.5604 0.0000 -10365.0116 1320.7510 0.0000 0.0000 1688.2815 -7338.6803 292.5054 -9026.9618 -7338.6803 292.5054 -494.4961 -418.8211 29758.2036 -494.4961 -418.8211
ENERGY: 300000 2.1549 3.7885 10.5769 0.0000 -10512.9428 1344.5652 0.0000 0.0000 1731.6957 -7420.1616 300.0272 -9151.8573 -7343.1323 301.5786 -881.5242 -894.4606 30251.2908 -300.3718 -247.9106
ENERGY: 600000 2.1486 4.8770 11.5494 0.0000 -10503.4143 1346.0745 0.0000 0.0000 1779.0724 -7359.6926 308.2355 -9138.7650 -7342.8189 302.3677 -806.1641 -763.3569 29980.0087 -281.1779 -229.5917
ENERGY: 900000 1.3061 6.3090 11.6822 0.0000 -10483.3445 1400.1598 0.0000 0.0000 1742.3992 -7321.4882 301.8816 -9063.8874 -7362.2023 302.0206 95.7007 132.4414 29718.5589 -231.9664 -177.4609
ENERGY: 1200000 2.0899 3.5538 14.5530 0.0000 -10633.1840 1446.1120 0.0000 0.0000 1696.8218 -7470.0535 293.9851 -9166.8753 -7373.3814 301.3498 49.2413 166.4109 29770.7882 -149.8861 -94.0692
ENERGY: 1500000 0.9455 2.4642 10.2914 0.0000 -10412.9685 1362.0859 0.0000 0.0000 1705.1334 -7332.0481 295.4251 -9037.1815 -7373.7930 299.9431 -540.3655 -490.7549 30304.9113 -80.7374 -21.3486
TCL: Running FEP window  13: Lambda1 0.6    Lambda2 0.65   [dLambda 0.050000000000000044]
TCL: Setting parameter firsttimestep to 0
TCL: Setting parameter alchLambda to 0.6
Info: NONBONDED TABLE R-SQUARED SPACING: 0.0625
Info: NONBONDED TABLE SIZE: 705 POINTS
TCL: Setting parameter alchLambda2 to 0.65
Info: NONBONDED TABLE R-SQUARED SPACING: 0.0625
Info: NONBONDED TABLE SIZE: 705 POINTS
TCL: Running for 1500000 steps
ETITLE: TS BOND ANGLE DIHED IMPRP ELECT VDW BOUNDARY MISC KINETIC TOTAL TEMP POTENTIAL TOTALAVG TEMPAVG PRESSURE GPRESSURE VOLUME PRESSAVG GPRESSAVG
ENERGY: 0 0.9455 2.4642 10.2914 0.0000 -10412.9949 1361.8796 0.0000 0.0000 1704.2991 -7333.1152 295.2805 -9037.4143 -7333.1152 295.2805 -566.3382 -487.7854 30304.9113 -566.3382 -487.7854
ENERGY: 300000 0.2447 3.9113 11.0942 0.0000 -10432.4929 1328.5535 0.0000 0.0000 1782.7219 -7305.9673 308.8678 -9088.6893 -7344.0621 301.8275 -804.1691 -767.1041 30354.9404 -68.8862 -8.8262
ENERGY: 600000 3.0842 2.8977 10.4732 0.0000 -10477.4712 1423.6988 0.0000 0.0000 1774.3374 -7262.9799 307.4151 -9037.3173 -7341.3884 299.3956 163.7642 162.1366 30076.6419 -129.5742 -89.1960
ENERGY: 900000 1.4804 2.4525 11.1816 0.0000 -10470.1004 1400.2546 0.0000 0.0000 1770.6363 -7284.0950 306.7739 -9054.7313 -7319.0306 301.5644 -22.2277 46.9152 29797.1540 -76.0263 -19.0607
ENERGY: 1200000 1.7747 5.9421 9.8801 0.0000 -10524.7551 1381.4511 0.0000 0.0000 1753.2627 -7372.4443 303.7638 -9125.7071 -7334.7058 301.1324 -599.0255 -543.4366 30276.6988 -63.5137 -8.1025
ENERGY: 1500000 1.2275 5.5015 11.6616 0.0000 -10439.2730 1364.8723 0.0000 0.0000 1774.6263 -7281.3838 307.4652 -9056.0101 -7334.2825 301.3017 -246.1828 -252.1971 29934.5817 -6.8037 43.7188
TCL: Running FEP window  14: Lambda1 0.65   Lambda2 0.7000000000000001 [dLambda 0.050000000000000044]
TCL: Setting parameter firsttimestep to 0
TCL: Setting parameter alchLambda to 0.65
Info: NONBONDED TABLE R-SQUARED SPACING: 0.0625
Info: NONBONDED TABLE SIZE: 705 POINTS
TCL: Setting parameter alchLambda2 to 0.7000000000000001
Info: NONBONDED TABLE R-SQUARED SPACING: 0.0625
Info: NONBONDED TABLE SIZE: 705 POINTS
TCL: Running for 1500000 steps
ETITLE: TS BOND ANGLE DIHED IMPRP ELECT VDW BOUNDARY MISC KINETIC TOTAL TEMP POTENTIAL TOTALAVG TEMPAVG PRESSURE GPRESSURE VOLUME PRESSAVG GPRESSAVG
ENERGY: 0 1.2275 5.5015 11.6616 0.0000 -10439.3790 1364.6864 0.0000 0.0000 1773.7775 -7282.5245 307.3181 -9056.3020 -7282.5245 307.3181 -321.4564 -246.2011 29934.5817 -321.4564 -246.2011
ENERGY: 300000 3.4646 2.5685 14.4669 0.0000 -10475.7655 1404.7801 0.0000 0.0000 1773.1136 -7277.3718 307.2031 -9050.4854 -7316.6531 305.8412 144.0213 180.0914 29857.3250 301.5588 361.2536
ENERGY: 600000 1.6640 3.4109 10.7466 0.0000 -10569.7577 1412.8416 0.0000 0.0000 1754.4553 -7386.6393 303.9704 -9141.0946 -7333.5578 304.5550 -220.5434 -124.0421 29669.9002 80.5211 136.1392
ENERGY: 900000 1.0825 4.3449 15.7571 0.0000 -10446.6565 1365.2623 0.0000 0.0000 1744.5276 -7315.6821 302.2504 -9060.2097 -7330.7314 305.4417 -601.8371 -476.6650 30088.5560 49.3374 108.6492
ENERGY: 1200000 1.7800 3.5607 11.0344 0.0000 -10521.4669 1440.5835 0.0000 0.0000 1734.9880 -7329.5203 300.5976 -9064.5083 -7336.2771 303.3435 125.5510 218.7100 30019.3181 7.4454 73.1556
ENERGY: 1500000 0.9237 6.9817 12.2186 0.0000 -10460.7066 1348.3688 0.0000 0.0000 1763.6804 -7328.5332 305.5687 -9092.2136 -7350.0177 302.5556 -456.0559 -466.5695 29969.7060 74.2664 136.9285
TCL: Running FEP window  15: Lambda1 0.7000000000000001 Lambda2 0.7500000000000001 [dLambda 0.050000000000000044]
TCL: Setting parameter firsttimestep to 0
TCL: Setting parameter alchLambda to 0.7000000000000001
Info: NONBONDED TABLE R-SQUARED SPACING: 0.0625
Info: NONBONDED TABLE SIZE: 705 POINTS
TCL: Setting parameter alchLambda2 to 0.7500000000000001
Info: NONBONDED TABLE R-SQUARED SPACING: 0.0625
Info: NONBONDED TABLE SIZE: 705 POINTS
TCL: Running for 1500000 steps
ETITLE: TS BOND ANGLE DIHED IMPRP ELECT VDW BOUNDARY MISC KINETIC TOTAL TEMP POTENTIAL TOTALAVG TEMPAVG PRESSURE GPRESSURE VOLUME PRESSAVG GPRESSAVG
ENERGY: 0 0.9237 6.9818 12.2186 0.0000 -10461.1355 1348.2003 0.0000 0.0000 1762.8205 -7329.9905 305.4197 -9092.8111 -7329.9905 305.4197 -538.6362 -464.3728 29969.7060 -538.6362 -464.3728
ENERGY: 300000 0.8245 4.4318 11.8645 0.0000 -10555.1048 1406.1094 0.0000 0.0000 1702.5586 -7429.3160 294.9790 -9131.8746 -7364.5816 300.7301 -59.8234 24.1615 29588.8659 -11.0768 56.9289
ENERGY: 600000 1.5241 3.0815 11.8662 0.0000 -10663.1592 1543.5648 0.0000 0.0000 1688.5042 -7414.6184 292.5440 -9103.1225 -7387.4786 297.5257 1151.6181 1233.3381 29557.6363 -21.4002 35.2844
ENERGY: 900000 1.6202 4.0663 10.8286 0.0000 -10441.0911 1339.3456 0.0000 0.0000 1728.1136 -7357.1168 299.4066 -9085.2304 -7374.2386 297.9365 -563.4719 -476.9204 29722.3180 -141.6526 -75.2057
ENERGY: 1200000 3.5807 3.5581 12.0391 0.0000 -10576.6359 1442.0212 0.0000 0.0000 1739.8164 -7375.6205 301.4341 -9115.4369 -7362.7240 299.3379 182.0778 197.6877 29649.4680 -110.1845 -51.4664
ENERGY: 1500000 0.3048 9.6629 12.8135 0.0000 -10431.2645 1422.0818 0.0000 0.0000 1770.7028 -7215.6987 306.7854 -8986.4015 -7347.5293 299.9965 255.2271 290.2190 29925.7611 6.4334 61.7331
TCL: Running FEP window  16: Lambda1 0.7500000000000001 Lambda2 0.8000000000000002 [dLambda 0.050000000000000044]
TCL: Setting parameter firsttimestep to 0
TCL: Setting parameter alchLambda to 0.7500000000000001
Info: NONBONDED TABLE R-SQUARED SPACING: 0.0625
Info: NONBONDED TABLE SIZE: 705 POINTS
TCL: Setting parameter alchLambda2 to 0.8000000000000002
Info: NONBONDED TABLE R-SQUARED SPACING: 0.0625
Info: NONBONDED TABLE SIZE: 705 POINTS
TCL: Running for 1500000 steps
ETITLE: TS BOND ANGLE DIHED IMPRP ELECT VDW BOUNDARY MISC KINETIC TOTAL TEMP POTENTIAL TOTALAVG TEMPAVG PRESSURE GPRESSURE VOLUME PRESSAVG GPRESSAVG
ENERGY: 0 0.3048 9.6629 12.8135 0.0000 -10431.4754 1422.7816 0.0000 0.0000 1769.7880 -7216.1246 306.6269 -8985.9126 -7216.1246 306.6269 227.2511 304.3264 29925.7611 227.2511 304.3264
ENERGY: 300000 0.2736 4.1430 9.6339 0.0000 -10637.3042 1503.5357 0.0000 0.0000 1765.3771 -7354.3409 305.8627 -9119.7179 -7326.0443 300.8041 746.1080 820.9765 29506.7128 162.9154 223.4126
ENERGY: 600000 0.6697 2.1865 14.8707 0.0000 -10470.1017 1384.1855 0.0000 0.0000 1687.4152 -7380.7740 292.3553 -9068.1893 -7336.5111 298.8472 -173.5569 -135.1850 29786.7269 111.5547 169.4909
ENERGY: 900000 0.2203 1.9045 14.1096 0.0000 -10486.5852 1401.2596 0.0000 0.0000 1696.1642 -7372.9269 293.8711 -9069.0912 -7359.6019 298.7545 -200.0809 -192.2940 30082.9787 -63.9043 0.0826
ENERGY: 1200000 1.6449 5.2264 11.2662 0.0000 -10479.0050 1338.7772 0.0000 0.0000 1698.9962 -7423.0942 294.3618 -9122.0904 -7371.0192 298.3937 -728.8638 -748.1821 30057.6366 -41.3840 16.6347
ENERGY: 1500000 2.0821 4.5954 10.1377 0.0000 -10567.0176 1454.8237 0.0000 0.0000 1735.9140 -7359.4647 300.7580 -9095.3787 -7368.3778 298.1777 331.7866 375.8677 29762.4210 -76.6229 -21.1968
TCL: Running FEP window  17: Lambda1 0.8000000000000002 Lambda2 0.8500000000000002 [dLambda 0.050000000000000044]
TCL: Setting parameter firsttimestep to 0
TCL: Setting parameter alchLambda to 0.8000000000000002
Info: NONBONDED TABLE R-SQUARED SPACING: 0.0625
Info: NONBONDED TABLE SIZE: 705 POINTS
TCL: Setting parameter alchLambda2 to 0.8500000000000002
Info: NONBONDED TABLE R-SQUARED SPACING: 0.0625
Info: NONBONDED TABLE SIZE: 705 POINTS
TCL: Running for 1500000 steps
ETITLE: TS BOND ANGLE DIHED IMPRP ELECT VDW BOUNDARY MISC KINETIC TOTAL TEMP POTENTIAL TOTALAVG TEMPAVG PRESSURE GPRESSURE VOLUME PRESSAVG GPRESSAVG
ENERGY: 0 2.0821 4.5954 10.1377 0.0000 -10567.4303 1454.6761 0.0000 0.0000 1735.0803 -7360.8586 300.6136 -9095.9389 -7360.8586 300.6136 309.6567 379.0578 29762.4210 309.6567 379.0578
ENERGY: 300000 0.2492 2.0547 12.6538 0.0000 -10661.0537 1485.8689 0.0000 0.0000 1708.5913 -7451.6358 296.0242 -9160.2271 -7364.0796 301.1507 473.4947 571.3245 29526.6566 131.1213 219.1308
ENERGY: 600000 0.5874 5.9058 12.5650 0.0000 -10609.7076 1405.1856 0.0000 0.0000 1761.0655 -7424.3982 305.1157 -9185.4637 -7366.8086 302.0129 -92.2786 -67.1005 29437.8158 -96.3760 -37.6378
ENERGY: 900000 0.3102 8.7939 12.4935 0.0000 -10569.3631 1454.2610 0.0000 0.0000 1688.7357 -7404.7689 292.5841 -9093.5045 -7379.1195 300.0134 368.1026 435.0251 29572.8103 11.9760 77.3410
ENERGY: 1200000 1.0584 4.3581 11.9091 0.0000 -10548.8163 1430.5154 0.0000 0.0000 1712.5929 -7388.3824 296.7175 -9100.9752 -7372.8991 300.6156 -119.6108 -44.2660 30121.2527 8.6463 73.1719
ENERGY: 1500000 0.9894 5.4099 11.3296 0.0000 -10557.3779 1358.5654 0.0000 0.0000 1682.7900 -7498.2935 291.5540 -9181.0836 -7377.4290 299.3757 -845.9742 -795.1624 30003.2645 -53.3477 6.1933
TCL: Running FEP window  18: Lambda1 0.8500000000000002 Lambda2 0.9000000000000002 [dLambda 0.050000000000000044]
TCL: Setting parameter firsttimestep to 0
TCL: Setting parameter alchLambda to 0.8500000000000002
Info: NONBONDED TABLE R-SQUARED SPACING: 0.0625
Info: NONBONDED TABLE SIZE: 705 POINTS
TCL: Setting parameter alchLambda2 to 0.9000000000000002
Info: NONBONDED TABLE R-SQUARED SPACING: 0.0625
Info: NONBONDED TABLE SIZE: 705 POINTS
TCL: Running for 1500000 steps
ETITLE: TS BOND ANGLE DIHED IMPRP ELECT VDW BOUNDARY MISC KINETIC TOTAL TEMP POTENTIAL TOTALAVG TEMPAVG PRESSURE GPRESSURE VOLUME PRESSAVG GPRESSAVG
ENERGY: 0 0.9894 5.4099 11.3296 0.0000 -10557.6845 1358.7743 0.0000 0.0000 1681.9311 -7499.2502 291.4051 -9181.1813 -7499.2502 291.4051 -865.2250 -781.9789 30003.2645 -865.2250 -781.9789
ENERGY: 300000 1.6307 5.0216 10.0145 0.0000 -10497.5735 1456.9052 0.0000 0.0000 1752.8774 -7271.1242 303.6970 -9024.0016 -7396.1964 295.2136 735.0879 772.1599 29872.6391 90.3116 140.7127
ENERGY: 600000 3.7477 2.9123 13.7717 0.0000 -10524.8473 1423.0522 0.0000 0.0000 1727.1421 -7354.2214 299.2382 -9081.3635 -7370.5071 297.0844 -75.9013 -20.8364 29976.3473 -105.1278 -46.8890
ENERGY: 900000 1.2974 5.5540 12.2529 0.0000 -10391.1202 1353.7881 0.0000 0.0000 1727.8273 -7290.4005 299.3569 -9018.2278 -7361.0002 297.5955 -299.3315 -217.7045 30048.9861 -155.8850 -96.5038
ENERGY: 1200000 0.2729 10.4161 10.9783 0.0000 -10535.5851 1448.7666 0.0000 0.0000 1713.3374 -7351.8137 296.8465 -9065.1512 -7353.8166 297.9923 397.8763 455.3940 29591.3988 -93.4553 -28.2933
ENERGY: 1500000 4.0448 3.2814 10.5794 0.0000 -10542.3060 1393.9029 0.0000 0.0000 1716.8565 -7413.6410 297.4562 -9130.4975 -7354.5144 298.1301 -307.4909 -292.4543 29864.9600 -133.6197 -69.9135
TCL: Running FEP window  19: Lambda1 0.9000000000000002 Lambda2 0.9500000000000003 [dLambda 0.050000000000000044]
TCL: Setting parameter firsttimestep to 0
TCL: Setting parameter alchLambda to 0.9000000000000002
Info: NONBONDED TABLE R-SQUARED SPACING: 0.0625
Info: NONBONDED TABLE SIZE: 705 POINTS
TCL: Setting parameter alchLambda2 to 0.9500000000000003
Info: NONBONDED TABLE R-SQUARED SPACING: 0.0625
Info: NONBONDED TABLE SIZE: 705 POINTS
TCL: Running for 1500000 steps
ETITLE: TS BOND ANGLE DIHED IMPRP ELECT VDW BOUNDARY MISC KINETIC TOTAL TEMP POTENTIAL TOTALAVG TEMPAVG PRESSURE GPRESSURE VOLUME PRESSAVG GPRESSAVG
ENERGY: 0 4.0448 3.2814 10.5794 0.0000 -10542.4758 1393.8794 0.0000 0.0000 1715.9637 -7414.7270 297.3015 -9130.6908 -7414.7270 297.3015 -353.9943 -280.7511 29864.9600 -353.9943 -280.7511
ENERGY: 300000 1.9327 1.9032 11.0141 0.0000 -10419.2491 1321.1248 0.0000 0.0000 1742.0862 -7341.1881 301.8274 -9083.2743 -7359.6419 298.6245 -759.1394 -668.7624 29924.6542 -126.9336 -57.6386
ENERGY: 600000 0.3459 1.7010 10.3835 0.0000 -10596.6732 1394.8798 0.0000 0.0000 1692.3742 -7496.9890 293.2145 -9189.3631 -7389.9699 296.9983 -476.4651 -424.5425 29876.2128 -101.0149 -41.0616
ENERGY: 900000 0.7018 6.9260 10.5958 0.0000 -10462.1774 1329.1416 0.0000 0.0000 1722.7537 -7392.0585 298.4779 -9114.8122 -7383.8452 297.3522 -633.7056 -650.9673 29778.2218 -112.3432 -57.6545
ENERGY: 1200000 2.1691 4.6452 11.7793 0.0000 -10523.5373 1399.9432 0.0000 0.0000 1733.6223 -7371.3782 300.3610 -9105.0005 -7382.7023 298.0252 -289.3100 -182.5699 30018.8413 -59.9301 -5.5494
ENERGY: 1500000 0.7335 3.1761 10.9345 0.0000 -10414.2750 1384.1070 0.0000 0.0000 1744.9355 -7270.3882 302.3211 -9015.3238 -7369.2057 299.0068 -7.7358 34.8259 29773.2968 -86.1522 -32.3795
TCL: Running FEP window  20: Lambda1 0.9500000000000003 Lambda2 1.0    [dLambda 0.04999999999999971]
TCL: Setting parameter firsttimestep to 0
TCL: Setting parameter alchLambda to 0.9500000000000003
Info: NONBONDED TABLE R-SQUARED SPACING: 0.0625
Info: NONBONDED TABLE SIZE: 705 POINTS
TCL: Setting parameter alchLambda2 to 1.0
Info: NONBONDED TABLE R-SQUARED SPACING: 0.0625
Info: NONBONDED TABLE SIZE: 705 POINTS
TCL: Running for 1500000 steps
ETITLE: TS BOND ANGLE DIHED IMPRP ELECT VDW BOUNDARY MISC KINETIC TOTAL TEMP POTENTIAL TOTALAVG TEMPAVG PRESSURE GPRESSURE VOLUME PRESSAVG GPRESSAVG
ENERGY: 0 0.7335 3.1761 10.9345 0.0000 -10414.4243 1384.3808 0.0000 0.0000 1744.0473 -7271.1520 302.1672 -9015.1993 -7271.1520 302.1672 -33.0431 46.9933 29773.2968 -33.0431 46.9933
ENERGY: 300000 1.5117 4.6792 10.0054 0.0000 -10454.9143 1407.9038 0.0000 0.0000 1719.7186 -7311.0956 297.9521 -9030.8142 -7311.8816 301.9499 -68.2295 8.8893 30168.5804 -233.3899 -160.3094
ENERGY: 600000 0.4964 3.6705 10.4965 0.0000 -10478.6952 1422.4183 0.0000 0.0000 1771.7078 -7269.9057 306.9595 -9041.6136 -7323.7938 302.4012 167.1278 143.9352 30017.3277 -4.0437 58.4314
ENERGY: 900000 0.7182 2.7721 10.6841 0.0000 -10472.8922 1407.5101 0.0000 0.0000 1735.8739 -7315.3339 300.7511 -9051.2078 -7323.9291 302.5195 -0.4100 111.9455 30095.7213 -22.8825 44.7922
ENERGY: 1200000 1.7505 3.0719 11.7992 0.0000 -10598.8164 1504.8622 0.0000 0.0000 1783.1389 -7294.1935 308.9400 -9077.3325 -7320.3109 302.5953 654.0192 783.1898 29775.2552 107.9865 180.2379
ENERGY: 1500000 1.7748 2.7924 11.7604 0.0000 -10471.1410 1440.6310 0.0000 0.0000 1766.3342 -7247.8482 306.0285 -9014.1824 -7328.6605 302.5719 486.4655 602.9978 29679.3852 84.6427 158.9131
TCL: Exiting due to exit command.
