Info: SIMULATION PARAMETERS:
Info: TIMESTEP               2
Info: NUMBER OF STEPS        0
Info: STEPS PER CYCLE        10
Info: PERIODIC CELL BASIS 1  30.8986 0 0
Info: PERIODIC CELL BASIS 2  0 30.2367 0
Info: PERIODIC CELL BASIS 3  0 0 31.948
Info: PERIODIC CELL CENTER   0 0 0
Info: WRAPPING WATERS AROUND PERIODIC BOUNDARIES ON OUTPUT.
Info: WRAPPING ALL CLUSTERS AROUND PERIODIC BOUNDARIES ON OUTPUT.
Info: FIRST LDB TIMESTEP     50
Info: LAST LDB TIMESTEP     -1
Info: HOM BACKGROUND SCALING 1
Info: PME BACKGROUND SCALING 1
Info: MIN ATOMS PER PATCH    40
Info: EMPTY PATCH LOAD       40 ATOMS
Info: VELOCITY FILE          mobley_8436428_equil.vel
Info: CENTER OF MASS MOVING INITIALLY? NO
Info: DIELECTRIC             1
Info: EXCLUDE                SCALED ONE-FOUR
Info: 1-4 ELECTROSTATICS SCALED BY 0.833333
Info: MODIFIED 1-4 VDW PARAMETERS WILL BE USED
Info: DCD FILENAME           mobley_8436428_prod.dcd
Info: DCD FREQUENCY          100000
Info: DCD FIRST STEP         100000
Info: DCD FILE WILL CONTAIN UNIT CELL DATA
Info: XST FILENAME           mobley_8436428_prod.xst
Info: XST FREQUENCY          100000
Info: NO VELOCITY DCD OUTPUT
Info: NO FORCE DCD OUTPUT
Info: OUTPUT FILENAME        mobley_8436428_prod
Info: BINARY OUTPUT FILES WILL BE USED
Info: RESTART FILENAME       mobley_8436428_prod.restart
Info: RESTART FREQUENCY      100000
Info: BINARY RESTART FILES WILL BE USED
Info: CUTOFF                 9
Info: PAIRLIST DISTANCE      11
Info: PAIRLIST SHRINK RATE   0.01
Info: PAIRLIST GROW RATE     0.01
Info: PAIRLIST TRIGGER       0.3
Info: PAIRLISTS PER CYCLE    2
Info: PAIRLISTS ENABLED
Info: MARGIN                 2
Info: HYDROGEN GROUP CUTOFF  2.5
Info: PATCH DIMENSION        15.5
Info: ENERGY OUTPUT STEPS    100000
Info: ENERGY EVALUATION STEPS    100000
Info: OUTPUT ENERGY PRECISION 4
Info: CROSSTERM ENERGY INCLUDED IN DIHEDRAL
Info: TIMING OUTPUT STEPS    1000000
Info: PRESSURE OUTPUT STEPS  100000
Info: ALCHEMICAL FEP ON
Info: FEP CURRENT LAMBDA VALUE     0
Info: FEP COMPARISON LAMBDA VALUE  0.05
Info: FEP INTRA-ALCHEMICAL NON-BONDED INTERACTIONS WILL BE RETAINED
Info: FEP INTRA-ALCHEMICAL BONDED INTERACTIONS WILL BE RETAINED
Info: FEP VDW SHIFTING COEFFICIENT 5
Info: FEP ELEC. ACTIVE FOR ANNIHILATED PARTICLES BETWEEN LAMBDA = 0 AND LAMBDA = 0.5
Info: FEP ELEC. ACTIVE FOR EXNIHILATED PARTICLES BETWEEN LAMBDA = 0.5 AND LAMBDA = 1
Info: FEP VDW ACTIVE FOR ANNIHILATED PARTICLES BETWEEN LAMBDA = 0 AND LAMBDA = 1
Info: FEP VDW ACTIVE FOR EXNIHILATED PARTICLES BETWEEN LAMBDA = 0 AND LAMBDA = 1
Info: FEP BOND ACTIVE FOR ANNIHILATED PARTICLES BETWEEN LAMBDA = 1 AND LAMBDA = 1
Info: FEP BOND ACTIVE FOR EXNIHILATED PARTICLES BETWEEN LAMBDA = 0 AND LAMBDA = 0
Info: LANGEVIN DYNAMICS ACTIVE
Info: LANGEVIN TEMPERATURE   300
Info: LANGEVIN USING BBK INTEGRATOR
Info: LANGEVIN DAMPING COEFFICIENT IS 1 INVERSE PS
Info: LANGEVIN DYNAMICS APPLIED TO HYDROGENS
Info: LANGEVIN PISTON PRESSURE CONTROL ACTIVE
Info:        TARGET PRESSURE IS 1.01325 BAR
Info:     OSCILLATION PERIOD IS 50 FS
Info:             DECAY TIME IS 25 FS
Info:     PISTON TEMPERATURE IS 300 K
Info:       PRESSURE CONTROL IS GROUP-BASED
Info:    INITIAL STRAIN RATE IS -0.000806156 -0.000806156 -0.000806156
Info:       CELL FLUCTUATION IS ISOTROPIC
Info: PARTICLE MESH EWALD (PME) ACTIVE
Info: PME TOLERANCE               1e-06
Info: PME EWALD COEFFICIENT       0.348832
Info: PME INTERPOLATION ORDER     4
Info: PME GRID DIMENSIONS         32 32 32
Info: PME MAXIMUM GRID SPACING    1
Info: PME CALCULATION WILL BE PERFORMED ON GPU
Info: FULL ELECTROSTATIC EVALUATION FREQUENCY      2
Info: USING VERLET I (r-RESPA) MTS SCHEME.
Info: C1 SPLITTING OF LONG RANGE ELECTROSTATICS
Info: PLACING ATOMS IN PATCHES BY HYDROGEN GROUPS
Info: RIGID BONDS TO HYDROGEN : ALL
Info:         ERROR TOLERANCE : 1e-08
Info:          MAX ITERATIONS : 100
Info: RIGID WATER USING SETTLE ALGORITHM
Info: RANDOM NUMBER SEED     1743883743
Info: USE HYDROGEN BONDS?    NO
Info: Using AMBER format force field!
Info: AMBER PARM FILE        mobley_8436428.prmtop
Info: COORDINATE PDB         mobley_8436428.pdb
Info: Exclusions will be read from PARM file!
Info: SCNB (VDW SCALING)     2
Info: USING ARITHMETIC MEAN TO COMBINE L-J SIGMA PARAMETERS
Info: BINARY COORDINATES     mobley_8436428_equil.coor
Info: SUMMARY OF PARAMETERS:
Info: 4 BONDS
Info: 3 ANGLES
Info:   3 HARMONIC
Info:   0 COSINE-BASED
Info: 5 DIHEDRAL
Info: 0 IMPROPER
Info: 0 CROSSTERM
Info: 0 VDW
Info: 10 VDW_PAIRS
Info: 0 NBTHOLE_PAIRS
Info: To read alchdata from file: mobley_8436428.pdb
Info: To read alchflag data from column: 5
Info: STRUCTURE SUMMARY:
Info: 2909 ATOMS
Info: 2908 BONDS
Info: 42 ANGLES
Info: 62 DIHEDRALS
Info: 0 IMPROPERS
Info: 0 CROSSTERMS
Info: 3004 EXCLUSIONS
Info: 2902 RIGID BONDS
Info: ALCH: 0 ATOMS TO DISAPPEAR IN FINAL STATE
Info: ALCH: 23 ATOMS TO APPEAR IN FINAL STATE
Info: 5825 DEGREES OF FREEDOM
Info: 969 HYDROGEN GROUPS
Info: 4 ATOMS IN LARGEST HYDROGEN GROUP
Info: 969 MIGRATION GROUPS
Info: 4 ATOMS IN LARGEST MIGRATION GROUP
Info: TOTAL MASS = 17431.6 amu
Info: TOTAL CHARGE = 0.000399984 e
Info: MASS DENSITY = 0.969795 g/cm^3
Info: ATOM DENSITY = 0.0974602 atoms/A^3
Info: ADDED 0 IMPLICIT EXCLUSIONS
Info: NONBONDED TABLE R-SQUARED SPACING: 0.0625
Info: NONBONDED TABLE SIZE: 705 POINTS
Info: REMOVING COM VELOCITY 0.0232748 0.0820462 -0.052759
Info: Use 3D box decompostion in PME FFT.
Info: Updated CUDA force table with 4096 elements.
Info: Updated CUDA LJ table with 4 x 4 elements.
Info: Found 26 unique exclusion lists needing 80 bytes
TCL: Running for 1500000 steps
ETITLE: TS BOND ANGLE DIHED IMPRP ELECT VDW BOUNDARY MISC KINETIC TOTAL TEMP POTENTIAL TOTALAVG TEMPAVG PRESSURE GPRESSURE VOLUME PRESSAVG GPRESSAVG
ENERGY: 0 2.1155 18.4485 3.0781 0.0000 -10671.8097 1528.1949 0.0000 0.0000 1784.1115 -7335.8611 308.2595 -9119.9726 -7335.8611 308.2595 813.2773 894.6683 29848.0751 813.2773 894.6683
ENERGY: 300000 1.4421 13.2707 3.8835 0.0000 -10655.6799 1479.7784 0.0000 0.0000 1845.1411 -7312.1641 318.8042 -9157.3052 -7341.0981 305.5770 784.7847 830.5871 29043.9874 369.0861 433.4043
ENERGY: 600000 0.8531 10.9295 4.0299 0.0000 -10414.3257 1394.1967 0.0000 0.0000 1714.0620 -7290.2545 296.1563 -9004.3165 -7331.7968 301.9692 -368.5537 -280.9462 30637.6047 265.7477 329.8542
ENERGY: 900000 1.8231 10.7356 2.8563 0.0000 -10544.4852 1456.4991 0.0000 0.0000 1678.2549 -7394.3163 289.9695 -9072.5712 -7342.7593 299.8062 388.0527 423.8105 29418.0836 222.0671 278.8863
ENERGY: 1200000 1.8393 13.1342 3.9055 0.0000 -10510.3231 1399.5802 0.0000 0.0000 1781.5483 -7310.3157 307.8166 -9091.8640 -7328.2149 302.0097 -182.0008 -30.4144 29312.4873 115.1723 182.8286
ENERGY: 1500000 2.2114 12.4365 3.2013 0.0000 -10427.7887 1397.9655 0.0000 0.0000 1696.7579 -7315.2162 293.1665 -9011.9740 -7333.6945 301.1052 -478.6886 -443.2507 30608.1914 67.2605 134.8963
TCL: Running FEP window   2: Lambda1 0.05   Lambda2 0.1    [dLambda 0.05  ]
TCL: Setting parameter firsttimestep to 0
TCL: Setting parameter alchLambda to 0.05
Info: NONBONDED TABLE R-SQUARED SPACING: 0.0625
Info: NONBONDED TABLE SIZE: 705 POINTS
TCL: Setting parameter alchLambda2 to 0.1
Info: NONBONDED TABLE R-SQUARED SPACING: 0.0625
Info: NONBONDED TABLE SIZE: 705 POINTS
TCL: Running for 1500000 steps
ETITLE: TS BOND ANGLE DIHED IMPRP ELECT VDW BOUNDARY MISC KINETIC TOTAL TEMP POTENTIAL TOTALAVG TEMPAVG PRESSURE GPRESSURE VOLUME PRESSAVG GPRESSAVG
ENERGY: 0 2.2114 12.4365 3.2013 0.0000 -10427.7888 1401.6974 0.0000 0.0000 1695.9216 -7312.3206 293.0220 -9008.2422 -7312.3206 293.0220 -512.0797 -438.4816 30608.1914 -512.0797 -438.4816
ENERGY: 300000 2.2697 11.0933 4.2884 0.0000 -10472.7256 1377.9073 0.0000 0.0000 1771.4502 -7305.7166 306.0719 -9077.1669 -7304.8786 302.7032 -345.1234 -330.0395 29978.5463 -424.0172 -362.1408
ENERGY: 600000 5.9951 10.0624 5.3530 0.0000 -10659.0964 1473.1911 0.0000 0.0000 1764.5467 -7399.9481 304.8791 -9164.4948 -7309.7130 300.0114 164.2574 263.3853 29395.2903 -406.7351 -340.9507
ENERGY: 900000 2.5113 14.1051 3.5274 0.0000 -10364.1170 1271.3557 0.0000 0.0000 1734.4321 -7338.1855 299.6759 -9072.6176 -7310.5574 300.3919 -1176.5997 -1132.9092 29662.6407 -459.7353 -397.5327
ENERGY: 1200000 5.2165 9.8379 2.7276 0.0000 -10516.5802 1446.4308 0.0000 0.0000 1744.8825 -7307.4850 301.4815 -9052.3675 -7305.7902 300.9890 150.9037 243.3043 29934.2470 -435.4069 -370.5486
ENERGY: 1500000 1.8626 16.8769 2.7757 0.0000 -10464.8840 1347.6807 0.0000 0.0000 1743.2622 -7352.4260 301.2015 -9095.6881 -7313.6041 300.9403 -798.3753 -727.2336 30231.4045 -428.3181 -362.0472
TCL: Running FEP window   3: Lambda1 0.1    Lambda2 0.15000000000000002 [dLambda 0.05000000000000002]
TCL: Setting parameter firsttimestep to 0
TCL: Setting parameter alchLambda to 0.1
Info: NONBONDED TABLE R-SQUARED SPACING: 0.0625
Info: NONBONDED TABLE SIZE: 705 POINTS
TCL: Setting parameter alchLambda2 to 0.15000000000000002
Info: NONBONDED TABLE R-SQUARED SPACING: 0.0625
Info: NONBONDED TABLE SIZE: 705 POINTS
TCL: Running for 1500000 steps
ETITLE: TS BOND ANGLE DIHED IMPRP ELECT VDW BOUNDARY MISC KINETIC TOTAL TEMP POTENTIAL TOTALAVG TEMPAVG PRESSURE GPRESSURE VOLUME PRESSAVG GPRESSAVG
ENERGY: 0 1.8626 16.8769 2.7757 0.0000 -10464.8846 1348.2709 0.0000 0.0000 1742.3900 -7352.7084 301.0508 -9095.0984 -7352.7084 301.0508 -798.1420 -721.2844 30231.4045 -798.1420 -721.2844
ENERGY: 300000 4.1549 11.2195 2.3707 0.0000 -10500.5673 1421.6435 0.0000 0.0000 1713.6483 -7347.5303 296.0848 -9061.1787 -7347.8196 298.6453 -108.0740 -43.7940 29978.6562 -301.5417 -229.5129
ENERGY: 600000 1.5681 10.1749 2.1387 0.0000 -10473.8561 1437.8004 0.0000 0.0000 1722.3877 -7299.7864 297.5948 -9022.1741 -7343.8433 298.5348 450.5545 467.7700 29581.7902 -223.5712 -153.1574
ENERGY: 900000 1.8159 10.6566 3.0324 0.0000 -10315.3292 1319.8462 0.0000 0.0000 1735.5905 -7244.3876 299.8760 -8979.9781 -7331.6929 298.7150 -679.2669 -605.8147 30021.7544 -185.4580 -125.2147
ENERGY: 1200000 1.2216 12.2320 2.3589 0.0000 -10575.2422 1420.7352 0.0000 0.0000 1748.7443 -7389.9501 302.1487 -9138.6945 -7337.6918 298.6034 117.9266 179.7427 29206.5254 -69.1863 -7.4902
ENERGY: 1500000 2.4439 14.5094 2.3885 0.0000 -10572.3616 1462.4982 0.0000 0.0000 1699.5736 -7390.9479 293.6530 -9090.5215 -7328.1631 299.9266 250.4505 319.9608 29616.8874 -90.9709 -23.7469
TCL: Running FEP window   4: Lambda1 0.15000000000000002 Lambda2 0.2    [dLambda 0.04999999999999999]
TCL: Setting parameter firsttimestep to 0
TCL: Setting parameter alchLambda to 0.15000000000000002
Info: NONBONDED TABLE R-SQUARED SPACING: 0.0625
Info: NONBONDED TABLE SIZE: 705 POINTS
TCL: Setting parameter alchLambda2 to 0.2
Info: NONBONDED TABLE R-SQUARED SPACING: 0.0625
Info: NONBONDED TABLE SIZE: 705 POINTS
TCL: Running for 1500000 steps
ETITLE: TS BOND ANGLE DIHED IMPRP ELECT VDW BOUNDARY MISC KINETIC TOTAL TEMP POTENTIAL TOTALAVG TEMPAVG PRESSURE GPRESSURE VOLUME PRESSAVG GPRESSAVG
ENERGY: 0 2.4439 14.5094 2.3885 0.0000 -10572.3609 1463.4878 0.0000 0.0000 1698.7438 -7390.7874 293.5096 -9089.5312 -7390.7874 293.5096 243.1388 324.8582 29616.8874 243.1388 324.8582
ENERGY: 300000 2.1830 15.1065 3.4754 0.0000 -10448.1078 1395.4356 0.0000 0.0000 1717.0632 -7314.8440 296.6749 -9031.9072 -7339.4373 297.0374 4.9558 99.0564 29788.5353 -121.9611 -45.8359
ENERGY: 600000 1.2202 9.3872 4.1361 0.0000 -10626.3789 1485.9131 0.0000 0.0000 1721.7295 -7403.9927 297.4811 -9125.7222 -7366.3090 297.0991 585.2046 668.2456 29450.5888 30.6771 104.2565
ENERGY: 900000 1.2158 12.9657 4.6868 0.0000 -10514.8267 1408.7990 0.0000 0.0000 1712.6577 -7374.5017 295.9137 -9087.1595 -7356.0955 298.1322 -340.9187 -286.9553 29993.8128 -160.0538 -91.5882
ENERGY: 1200000 0.4992 13.8732 2.4042 0.0000 -10570.4317 1435.7535 0.0000 0.0000 1773.1876 -7344.7141 306.3720 -9117.9017 -7361.9639 298.6037 186.0717 223.8172 29476.6924 -107.1379 -39.2921
ENERGY: 1500000 4.2603 13.7664 3.1201 0.0000 -10496.6705 1431.5041 0.0000 0.0000 1762.6638 -7281.3559 304.5537 -9044.0197 -7353.6129 298.8740 27.1676 125.0036 29878.9089 -67.0053 4.7087
TCL: Running FEP window   5: Lambda1 0.2    Lambda2 0.25   [dLambda 0.04999999999999999]
TCL: Setting parameter firsttimestep to 0
TCL: Setting parameter alchLambda to 0.2
Info: NONBONDED TABLE R-SQUARED SPACING: 0.0625
Info: NONBONDED TABLE SIZE: 705 POINTS
TCL: Setting parameter alchLambda2 to 0.25
Info: NONBONDED TABLE R-SQUARED SPACING: 0.0625
Info: NONBONDED TABLE SIZE: 705 POINTS
TCL: Running for 1500000 steps
ETITLE: TS BOND ANGLE DIHED IMPRP ELECT VDW BOUNDARY MISC KINETIC TOTAL TEMP POTENTIAL TOTALAVG TEMPAVG PRESSURE GPRESSURE VOLUME PRESSAVG GPRESSAVG
ENERGY: 0 4.2603 13.7664 3.1201 0.0000 -10496.6716 1433.7964 0.0000 0.0000 1761.7920 -7279.9364 304.4031 -9041.7284 -7279.9364 304.4031 53.7991 136.2365 29878.9089 53.7991 136.2365
ENERGY: 300000 0.1970 9.6532 3.9733 0.0000 -10535.1528 1448.6051 0.0000 0.0000 1747.0140 -7325.7102 301.8498 -9072.7242 -7331.5777 302.2492 534.9599 567.4477 29370.3571 351.5102 419.5762
ENERGY: 600000 1.8313 12.1236 3.4531 0.0000 -10501.0504 1452.7761 0.0000 0.0000 1694.7174 -7336.1488 292.8139 -9030.8662 -7343.8363 301.1907 222.2514 296.1902 29900.6825 272.2110 339.3510
ENERGY: 900000 1.4301 9.4066 5.5286 0.0000 -10521.9784 1421.7647 0.0000 0.0000 1672.8762 -7410.9722 289.0402 -9083.8484 -7340.4058 301.4130 -72.4818 21.4469 29894.7715 266.0832 338.0203
ENERGY: 1200000 4.4016 14.6553 6.1022 0.0000 -10534.7438 1472.3726 0.0000 0.0000 1783.9577 -7253.2544 308.2329 -9037.2122 -7328.8380 302.0405 808.9380 834.3822 29471.2080 211.8667 278.3642
ENERGY: 1500000 0.5105 13.7030 5.8680 0.0000 -10466.2904 1401.7359 0.0000 0.0000 1662.2475 -7382.2255 287.2038 -9044.4730 -7335.8135 300.1372 -161.4665 -112.4918 29774.3311 114.3771 174.2600
TCL: Running FEP window   6: Lambda1 0.25   Lambda2 0.3    [dLambda 0.04999999999999999]
TCL: Setting parameter firsttimestep to 0
TCL: Setting parameter alchLambda to 0.25
Info: NONBONDED TABLE R-SQUARED SPACING: 0.0625
Info: NONBONDED TABLE SIZE: 705 POINTS
TCL: Setting parameter alchLambda2 to 0.3
Info: NONBONDED TABLE R-SQUARED SPACING: 0.0625
Info: NONBONDED TABLE SIZE: 705 POINTS
TCL: Running for 1500000 steps
ETITLE: TS BOND ANGLE DIHED IMPRP ELECT VDW BOUNDARY MISC KINETIC TOTAL TEMP POTENTIAL TOTALAVG TEMPAVG PRESSURE GPRESSURE VOLUME PRESSAVG GPRESSAVG
ENERGY: 0 0.5105 13.7029 5.8680 0.0000 -10466.2914 1401.9029 0.0000 0.0000 1661.3934 -7382.9136 287.0562 -9044.3070 -7382.9136 287.0562 -184.8056 -108.1303 29774.3311 -184.8056 -108.1303
ENERGY: 300000 2.7081 12.1573 3.9404 0.0000 -10444.3865 1378.5425 0.0000 0.0000 1679.3194 -7367.7188 290.1535 -9047.0382 -7371.7303 293.2560 -441.2374 -333.1588 29986.5740 19.8575 118.1064
ENERGY: 600000 1.9231 6.7028 2.6058 0.0000 -10547.3021 1472.7774 0.0000 0.0000 1709.7903 -7353.5027 295.4182 -9063.2930 -7362.5381 295.3063 612.2922 661.9224 29474.3131 37.4036 106.0509
ENERGY: 900000 2.7567 8.9396 2.8661 0.0000 -10447.4144 1395.5347 0.0000 0.0000 1754.3118 -7283.0055 303.1107 -9037.3173 -7354.4823 296.6556 58.8828 61.6056 29814.0600 26.8154 76.4714
ENERGY: 1200000 2.1846 13.8340 2.5507 0.0000 -10415.8595 1330.4417 0.0000 0.0000 1676.2937 -7390.5548 289.6307 -9066.8485 -7354.7027 296.9127 -881.6484 -802.1005 30095.8317 -131.3500 -80.2191
ENERGY: 1500000 3.9896 12.6808 4.9108 0.0000 -10376.8104 1363.7761 0.0000 0.0000 1749.1952 -7242.2579 302.2266 -8991.4532 -7344.0943 296.8542 -471.6831 -420.7958 30099.8989 -172.3440 -118.1003
TCL: Running FEP window   7: Lambda1 0.3    Lambda2 0.35   [dLambda 0.04999999999999999]
TCL: Setting parameter firsttimestep to 0
TCL: Setting parameter alchLambda to 0.3
Info: NONBONDED TABLE R-SQUARED SPACING: 0.0625
Info: NONBONDED TABLE SIZE: 705 POINTS
TCL: Setting parameter alchLambda2 to 0.35
Info: NONBONDED TABLE R-SQUARED SPACING: 0.0625
Info: NONBONDED TABLE SIZE: 705 POINTS
TCL: Running for 1500000 steps
ETITLE: TS BOND ANGLE DIHED IMPRP ELECT VDW BOUNDARY MISC KINETIC TOTAL TEMP POTENTIAL TOTALAVG TEMPAVG PRESSURE GPRESSURE VOLUME PRESSAVG GPRESSAVG
ENERGY: 0 3.9896 12.6808 4.9108 0.0000 -10376.8105 1365.1579 0.0000 0.0000 1748.3174 -7241.7541 302.0750 -8990.0716 -7241.7541 302.0750 -476.7374 -407.2451 30099.8989 -476.7374 -407.2451
ENERGY: 300000 1.9770 10.6693 3.1465 0.0000 -10377.9111 1311.0701 0.0000 0.0000 1712.4055 -7338.6427 295.8701 -9051.0482 -7323.5631 299.7588 -929.3087 -834.9341 30137.5619 -320.6120 -273.5049
ENERGY: 600000 1.1946 9.7910 2.7656 0.0000 -10583.6682 1428.9847 0.0000 0.0000 1779.6230 -7361.3093 307.4840 -9140.9323 -7335.0778 300.0772 -36.5518 -27.0365 29755.8635 -435.7035 -389.3190
ENERGY: 900000 2.5214 14.9599 2.8322 0.0000 -10437.9625 1337.7367 0.0000 0.0000 1737.4922 -7342.4200 300.2046 -9079.9122 -7324.1933 301.5418 -763.2742 -667.9122 29797.3008 -359.2557 -314.2596
ENERGY: 1200000 1.6063 7.8746 5.9692 0.0000 -10660.6775 1469.3980 0.0000 0.0000 1735.3891 -7440.4404 299.8412 -9175.8295 -7341.3383 302.0704 239.8054 317.1021 29645.8632 -277.4157 -229.9623
ENERGY: 1500000 6.1255 9.0959 2.0285 0.0000 -10372.6796 1352.5870 0.0000 0.0000 1696.8895 -7305.9532 293.1892 -9002.8427 -7337.0182 301.5595 -675.5415 -591.5216 30177.1331 -351.7750 -297.0181
TCL: Running FEP window   8: Lambda1 0.35   Lambda2 0.39999999999999997 [dLambda 0.04999999999999999]
TCL: Setting parameter firsttimestep to 0
TCL: Setting parameter alchLambda to 0.35
Info: NONBONDED TABLE R-SQUARED SPACING: 0.0625
Info: NONBONDED TABLE SIZE: 705 POINTS
TCL: Setting parameter alchLambda2 to 0.39999999999999997
Info: NONBONDED TABLE R-SQUARED SPACING: 0.0625
Info: NONBONDED TABLE SIZE: 705 POINTS
TCL: Running for 1500000 steps
ETITLE: TS BOND ANGLE DIHED IMPRP ELECT VDW BOUNDARY MISC KINETIC TOTAL TEMP POTENTIAL TOTALAVG TEMPAVG PRESSURE GPRESSURE VOLUME PRESSAVG GPRESSAVG
ENERGY: 0 6.1255 9.0959 2.0285 0.0000 -10372.6786 1353.9097 0.0000 0.0000 1696.0212 -7305.4978 293.0392 -9001.5190 -7305.4978 293.0392 -672.0068 -578.0871 30177.1331 -672.0068 -578.0871
ENERGY: 300000 2.1666 8.7899 3.9268 0.0000 -10384.4820 1311.6502 0.0000 0.0000 1777.5620 -7280.3866 307.1279 -9057.9486 -7298.3232 300.1068 -961.6778 -834.7539 29807.4052 -260.1348 -159.6824
ENERGY: 600000 1.8865 10.7508 2.6087 0.0000 -10628.8470 1501.9359 0.0000 0.0000 1716.9581 -7394.7071 296.6567 -9111.6652 -7313.8596 298.6882 468.1859 513.7035 29822.5428 -24.7236 53.8656
ENERGY: 900000 1.6369 14.4494 3.3092 0.0000 -10493.1991 1337.0694 0.0000 0.0000 1741.8140 -7394.9202 300.9513 -9136.7342 -7324.4381 300.3295 -740.2203 -751.1098 29631.4973 -128.0884 -62.0953
ENERGY: 1200000 2.5434 7.9986 3.6162 0.0000 -10481.6201 1404.9893 0.0000 0.0000 1713.0293 -7349.4432 295.9779 -9062.4726 -7328.8635 300.1187 114.1576 121.1169 29603.9518 -40.2932 22.8626
ENERGY: 1500000 6.9345 11.2866 3.9640 0.0000 -10460.0667 1365.9932 0.0000 0.0000 1721.3745 -7350.5139 297.4198 -9071.8884 -7322.7198 300.4431 -484.2938 -461.7223 29735.4953 -73.7098 -17.2882
TCL: Running FEP window   9: Lambda1 0.39999999999999997 Lambda2 0.44999999999999996 [dLambda 0.04999999999999999]
TCL: Setting parameter firsttimestep to 0
TCL: Setting parameter alchLambda to 0.39999999999999997
Info: NONBONDED TABLE R-SQUARED SPACING: 0.0625
Info: NONBONDED TABLE SIZE: 705 POINTS
TCL: Setting parameter alchLambda2 to 0.44999999999999996
Info: NONBONDED TABLE R-SQUARED SPACING: 0.0625
Info: NONBONDED TABLE SIZE: 705 POINTS
TCL: Running for 1500000 steps
ETITLE: TS BOND ANGLE DIHED IMPRP ELECT VDW BOUNDARY MISC KINETIC TOTAL TEMP POTENTIAL TOTALAVG TEMPAVG PRESSURE GPRESSURE VOLUME PRESSAVG GPRESSAVG
ENERGY: 0 6.9345 11.2866 3.9640 0.0000 -10460.0660 1366.8001 0.0000 0.0000 1720.5394 -7350.5415 297.2755 -9071.0808 -7350.5415 297.2755 -524.0449 -447.8976 29735.4953 -524.0449 -447.8976
ENERGY: 300000 1.4463 7.7566 3.7748 0.0000 -10469.9637 1409.4149 0.0000 0.0000 1828.5977 -7218.9736 315.9458 -9047.5712 -7305.8798 302.6628 -105.2022 -70.6036 30224.4342 -132.2545 -75.8960
ENERGY: 600000 2.9049 11.2646 2.9590 0.0000 -10398.8281 1377.9237 0.0000 0.0000 1706.6982 -7297.0777 294.8840 -9003.7759 -7316.2421 300.1329 -400.3021 -332.3950 30117.5349 -189.7731 -135.9879
ENERGY: 900000 2.6217 10.6076 6.0343 0.0000 -10594.0390 1488.3802 0.0000 0.0000 1767.6650 -7318.7303 305.4179 -9086.3953 -7316.9749 301.1700 303.6064 368.3379 30164.5526 -25.0296 23.2741
ENERGY: 1200000 1.5858 10.2346 3.4934 0.0000 -10697.6939 1532.7656 0.0000 0.0000 1758.3079 -7391.3065 303.8011 -9149.6144 -7337.2926 301.3989 710.5937 770.9228 29717.8058 17.5931 65.3881
ENERGY: 1500000 0.3670 14.9051 2.2731 0.0000 -10595.8801 1458.7846 0.0000 0.0000 1751.3571 -7368.1933 302.6002 -9119.5503 -7339.6918 301.1219 376.8371 453.5155 29478.5652 30.2144 77.2961
TCL: Running FEP window  10: Lambda1 0.44999999999999996 Lambda2 0.49999999999999994 [dLambda 0.04999999999999999]
TCL: Setting parameter firsttimestep to 0
TCL: Setting parameter alchLambda to 0.44999999999999996
Info: NONBONDED TABLE R-SQUARED SPACING: 0.0625
Info: NONBONDED TABLE SIZE: 705 POINTS
TCL: Setting parameter alchLambda2 to 0.49999999999999994
Info: NONBONDED TABLE R-SQUARED SPACING: 0.0625
Info: NONBONDED TABLE SIZE: 705 POINTS
TCL: Running for 1500000 steps
ETITLE: TS BOND ANGLE DIHED IMPRP ELECT VDW BOUNDARY MISC KINETIC TOTAL TEMP POTENTIAL TOTALAVG TEMPAVG PRESSURE GPRESSURE VOLUME PRESSAVG GPRESSAVG
ENERGY: 0 0.3670 14.9051 2.2731 0.0000 -10595.8788 1458.8889 0.0000 0.0000 1750.4883 -7368.9564 302.4501 -9119.4447 -7368.9564 302.4501 390.7145 464.5810 29478.5652 390.7145 464.5810
ENERGY: 300000 2.5289 14.0210 4.7449 0.0000 -10481.1161 1380.3343 0.0000 0.0000 1744.9552 -7334.5320 301.4940 -9079.4871 -7347.3973 297.3188 -334.5988 -213.1166 29676.0920 -52.5605 43.6860
ENERGY: 600000 2.1740 11.1793 2.6659 0.0000 -10467.2965 1425.4446 0.0000 0.0000 1669.2468 -7356.5859 288.4131 -9025.8327 -7349.1806 295.2768 265.5785 351.3204 29574.9889 144.4977 223.5049
ENERGY: 900000 1.1990 14.9715 3.5433 0.0000 -10475.5161 1347.1461 0.0000 0.0000 1757.4235 -7351.2328 303.6483 -9108.6562 -7360.2470 295.5095 -668.5444 -533.1374 30061.4716 -23.0296 58.8347
ENERGY: 1200000 3.7832 18.2191 3.0495 0.0000 -10559.8967 1406.2924 0.0000 0.0000 1692.9051 -7435.6473 292.5008 -9128.5524 -7359.2175 296.4836 -433.5141 -339.3098 29869.0825 -145.5026 -62.6385
ENERGY: 1500000 1.9040 13.5999 2.6468 0.0000 -10509.5187 1439.3317 0.0000 0.0000 1740.1641 -7311.8722 300.6662 -9052.0363 -7354.0827 296.8335 373.9624 458.9157 29671.1730 -85.8080 -5.8752
TCL: Running FEP window  11: Lambda1 0.49999999999999994 Lambda2 0.5499999999999999 [dLambda 0.04999999999999999]
TCL: Setting parameter firsttimestep to 0
TCL: Setting parameter alchLambda to 0.49999999999999994
Info: NONBONDED TABLE R-SQUARED SPACING: 0.0625
Info: NONBONDED TABLE SIZE: 705 POINTS
TCL: Setting parameter alchLambda2 to 0.5499999999999999
Info: NONBONDED TABLE R-SQUARED SPACING: 0.0625
Info: NONBONDED TABLE SIZE: 705 POINTS
TCL: Running for 1500000 steps
ETITLE: TS BOND ANGLE DIHED IMPRP ELECT VDW BOUNDARY MISC KINETIC TOTAL TEMP POTENTIAL TOTALAVG TEMPAVG PRESSURE GPRESSURE VOLUME PRESSAVG GPRESSAVG
ENERGY: 0 1.9040 13.5999 2.6468 0.0000 -10509.5206 1439.5728 0.0000 0.0000 1739.3357 -7312.4613 300.5231 -9051.7971 -7312.4613 300.5231 390.4067 469.8990 29671.1730 390.4067 469.8990
ENERGY: 300000 1.8451 12.6406 3.8839 0.0000 -10600.8519 1491.4264 0.0000 0.0000 1747.1383 -7343.9175 301.8712 -9091.0558 -7342.2216 298.6108 788.6742 813.6181 29478.9118 505.1542 531.2878
ENERGY: 600000 0.7072 9.7797 4.1435 0.0000 -10493.8439 1380.7115 0.0000 0.0000 1742.9678 -7355.5342 301.1507 -9098.5020 -7328.5953 300.7108 -165.6743 -107.2094 29757.6430 243.1597 294.0518
ENERGY: 900000 1.6252 10.0988 3.2804 0.0000 -10454.4797 1377.1083 0.0000 0.0000 1789.8563 -7272.5107 309.2521 -9062.3670 -7326.9848 301.0634 -165.5703 -103.8800 29960.6616 74.8965 132.2568
ENERGY: 1200000 2.6173 7.7109 4.2273 0.0000 -10456.8147 1382.0947 0.0000 0.0000 1740.0488 -7320.1157 300.6463 -9060.1645 -7323.2898 300.7688 -222.4319 -101.6802 29696.0957 58.3080 117.8795
ENERGY: 1500000 2.7238 7.9187 2.9852 0.0000 -10454.3672 1332.2385 0.0000 0.0000 1738.2051 -7370.2958 300.3278 -9108.5009 -7328.6544 300.9964 -825.7345 -707.9414 29749.0308 -61.4698 -0.9687
TCL: Running FEP window  12: Lambda1 0.5499999999999999 Lambda2 0.6    [dLambda 0.050000000000000044]
TCL: Setting parameter firsttimestep to 0
TCL: Setting parameter alchLambda to 0.5499999999999999
Info: NONBONDED TABLE R-SQUARED SPACING: 0.0625
Info: NONBONDED TABLE SIZE: 705 POINTS
TCL: Setting parameter alchLambda2 to 0.6
Info: NONBONDED TABLE R-SQUARED SPACING: 0.0625
Info: NONBONDED TABLE SIZE: 705 POINTS
TCL: Running for 1500000 steps
ETITLE: TS BOND ANGLE DIHED IMPRP ELECT VDW BOUNDARY MISC KINETIC TOTAL TEMP POTENTIAL TOTALAVG TEMPAVG PRESSURE GPRESSURE VOLUME PRESSAVG GPRESSAVG
ENERGY: 0 2.7238 7.9187 2.9852 0.0000 -10454.3095 1331.9949 0.0000 0.0000 1737.3677 -7371.3192 300.1831 -9108.6869 -7371.3192 300.1831 -784.4950 -701.7195 29749.0308 -784.4950 -701.7195
ENERGY: 300000 2.4089 8.5219 5.0674 0.0000 -10482.8260 1406.3974 0.0000 0.0000 1699.5888 -7360.8417 293.6556 -9060.4305 -7386.9213 298.8667 -95.5216 -88.0946 29933.5793 76.7091 137.0111
ENERGY: 600000 1.3064 14.9396 3.5704 0.0000 -10529.4354 1352.8559 0.0000 0.0000 1748.0703 -7408.6928 302.0323 -9156.7631 -7378.5784 299.7634 -735.8720 -687.3765 29966.6953 -198.4036 -152.1418
ENERGY: 900000 3.2158 10.3141 2.7444 0.0000 -10462.1934 1384.8782 0.0000 0.0000 1731.2653 -7329.7757 299.1287 -9061.0410 -7373.7590 299.2637 -591.1991 -484.1813 30618.4592 -162.6225 -105.6139
ENERGY: 1200000 2.6791 9.4341 2.4545 0.0000 -10613.4830 1437.5734 0.0000 0.0000 1757.2883 -7404.0536 303.6250 -9161.3419 -7376.1468 299.2719 -127.0385 -79.8182 29821.9586 -25.2106 40.2033
ENERGY: 1500000 1.8437 14.3740 2.8337 0.0000 -10515.3763 1437.9153 0.0000 0.0000 1701.0552 -7357.3544 293.9090 -9058.4096 -7373.4424 298.1747 228.4038 236.5926 30037.7288 -5.8800 54.4211
TCL: Running FEP window  13: Lambda1 0.6    Lambda2 0.65   [dLambda 0.050000000000000044]
TCL: Setting parameter firsttimestep to 0
TCL: Setting parameter alchLambda to 0.6
Info: NONBONDED TABLE R-SQUARED SPACING: 0.0625
Info: NONBONDED TABLE SIZE: 705 POINTS
TCL: Setting parameter alchLambda2 to 0.65
Info: NONBONDED TABLE R-SQUARED SPACING: 0.0625
Info: NONBONDED TABLE SIZE: 705 POINTS
TCL: Running for 1500000 steps
ETITLE: TS BOND ANGLE DIHED IMPRP ELECT VDW BOUNDARY MISC KINETIC TOTAL TEMP POTENTIAL TOTALAVG TEMPAVG PRESSURE GPRESSURE VOLUME PRESSAVG GPRESSAVG
ENERGY: 0 1.8437 14.3740 2.8337 0.0000 -10515.3353 1437.6394 0.0000 0.0000 1700.2165 -7358.4280 293.7641 -9058.6445 -7358.4280 293.7641 167.4342 243.2333 30037.7288 167.4342 243.2333
ENERGY: 300000 1.8647 11.1286 3.1546 0.0000 -10529.6457 1448.9186 0.0000 0.0000 1733.4368 -7331.1424 299.5039 -9064.5792 -7329.9704 298.2405 198.6317 264.5807 29865.6969 416.6241 489.6014
ENERGY: 600000 3.3731 10.2563 3.0274 0.0000 -10432.2315 1361.9338 0.0000 0.0000 1743.1489 -7310.4920 301.1819 -9053.6409 -7347.7309 298.6253 -629.7317 -615.6394 30075.7157 107.4155 169.9561
ENERGY: 900000 1.3633 8.4739 4.5538 0.0000 -10535.3331 1394.8520 0.0000 0.0000 1752.1392 -7373.9509 302.7353 -9126.0902 -7344.0750 299.4646 -351.4425 -305.4682 30080.9130 117.0144 169.6882
ENERGY: 1200000 1.8658 11.3087 3.6107 0.0000 -10474.9066 1416.3298 0.0000 0.0000 1743.0964 -7298.6952 301.1729 -9041.7915 -7348.9608 300.1126 224.4891 214.3943 29842.2407 119.7026 162.2800
ENERGY: 1500000 2.2380 12.9554 3.8073 0.0000 -10477.3572 1344.8231 0.0000 0.0000 1730.2714 -7383.2620 298.9570 -9113.5334 -7345.0792 300.2876 -796.8944 -702.1660 30234.5232 61.7931 113.4868
TCL: Running FEP window  14: Lambda1 0.65   Lambda2 0.7000000000000001 [dLambda 0.050000000000000044]
TCL: Setting parameter firsttimestep to 0
TCL: Setting parameter alchLambda to 0.65
Info: NONBONDED TABLE R-SQUARED SPACING: 0.0625
Info: NONBONDED TABLE SIZE: 705 POINTS
TCL: Setting parameter alchLambda2 to 0.7000000000000001
Info: NONBONDED TABLE R-SQUARED SPACING: 0.0625
Info: NONBONDED TABLE SIZE: 705 POINTS
TCL: Running for 1500000 steps
ETITLE: TS BOND ANGLE DIHED IMPRP ELECT VDW BOUNDARY MISC KINETIC TOTAL TEMP POTENTIAL TOTALAVG TEMPAVG PRESSURE GPRESSURE VOLUME PRESSAVG GPRESSAVG
ENERGY: 0 2.2380 12.9554 3.8073 0.0000 -10477.3525 1344.8690 0.0000 0.0000 1729.3855 -7384.0973 298.8039 -9113.4828 -7384.0973 298.8039 -763.9817 -692.8412 30234.5232 -763.9817 -692.8412
ENERGY: 300000 3.3161 12.8162 5.6177 0.0000 -10455.9420 1375.4376 0.0000 0.0000 1737.0659 -7321.6885 300.1309 -9058.7544 -7361.5352 297.3606 -5.5158 75.5685 29262.7292 -743.9918 -676.0081
ENERGY: 600000 1.8538 7.8311 4.3568 0.0000 -10572.7352 1414.5772 0.0000 0.0000 1735.0665 -7409.0497 299.7855 -9144.1162 -7353.7848 299.8229 158.9297 147.9127 29431.1901 -397.2545 -350.6690
ENERGY: 900000 3.1496 13.2204 2.9481 0.0000 -10505.7434 1411.3419 0.0000 0.0000 1697.4324 -7377.6510 293.2830 -9075.0834 -7345.6528 299.8275 -112.0132 -5.7065 29872.1461 -283.5100 -228.3790
ENERGY: 1200000 1.5856 7.7493 6.6907 0.0000 -10664.6193 1508.2398 0.0000 0.0000 1772.8835 -7367.4703 306.3195 -9140.3538 -7337.8000 300.9010 636.4934 683.6984 29632.5117 -191.5272 -138.9579
ENERGY: 1500000 1.9446 11.5859 2.9979 0.0000 -10734.6248 1512.1071 0.0000 0.0000 1774.3345 -7431.6548 306.5702 -9205.9893 -7343.4256 301.3508 564.2976 665.3402 29417.5445 -91.3184 -34.6137
TCL: Running FEP window  15: Lambda1 0.7000000000000001 Lambda2 0.7500000000000001 [dLambda 0.050000000000000044]
TCL: Setting parameter firsttimestep to 0
TCL: Setting parameter alchLambda to 0.7000000000000001
Info: NONBONDED TABLE R-SQUARED SPACING: 0.0625
Info: NONBONDED TABLE SIZE: 705 POINTS
TCL: Setting parameter alchLambda2 to 0.7500000000000001
Info: NONBONDED TABLE R-SQUARED SPACING: 0.0625
Info: NONBONDED TABLE SIZE: 705 POINTS
TCL: Running for 1500000 steps
ETITLE: TS BOND ANGLE DIHED IMPRP ELECT VDW BOUNDARY MISC KINETIC TOTAL TEMP POTENTIAL TOTALAVG TEMPAVG PRESSURE GPRESSURE VOLUME PRESSAVG GPRESSAVG
ENERGY: 0 1.9446 11.5859 2.9979 0.0000 -10734.6177 1511.7677 0.0000 0.0000 1773.4694 -7432.8521 306.4207 -9206.3215 -7432.8521 306.4207 566.1466 669.6235 29417.5445 566.1466 669.6235
ENERGY: 300000 1.4394 8.1991 2.4818 0.0000 -10443.2153 1423.2984 0.0000 0.0000 1743.1557 -7264.6409 301.1831 -9007.7966 -7320.0996 303.1209 -39.6267 0.5380 30511.9494 461.3226 523.5730
ENERGY: 600000 1.5522 10.0613 2.2516 0.0000 -10532.8050 1455.8691 0.0000 0.0000 1778.2232 -7284.8477 307.2421 -9063.0709 -7335.0364 301.8300 634.9715 694.5507 29443.1651 486.9925 537.6874
ENERGY: 900000 2.3642 9.5931 3.8385 0.0000 -10436.8894 1354.2392 0.0000 0.0000 1729.8349 -7337.0195 298.8815 -9066.8544 -7344.9425 301.4615 -321.4174 -282.3722 29940.8005 353.7312 412.5377
ENERGY: 1200000 2.5210 7.9701 3.1657 0.0000 -10432.0473 1321.8126 0.0000 0.0000 1701.9949 -7394.5830 294.0713 -9096.5779 -7346.9585 300.8543 -770.9992 -723.0306 29828.2263 194.6795 261.3761
ENERGY: 1500000 2.8337 10.8691 5.1062 0.0000 -10507.3399 1364.5107 0.0000 0.0000 1738.3097 -7385.7106 300.3458 -9124.0203 -7348.5018 300.3239 -771.4066 -632.6512 30295.2110 101.4862 178.2246
TCL: Running FEP window  16: Lambda1 0.7500000000000001 Lambda2 0.8000000000000002 [dLambda 0.050000000000000044]
TCL: Setting parameter firsttimestep to 0
TCL: Setting parameter alchLambda to 0.7500000000000001
Info: NONBONDED TABLE R-SQUARED SPACING: 0.0625
Info: NONBONDED TABLE SIZE: 705 POINTS
TCL: Setting parameter alchLambda2 to 0.8000000000000002
Info: NONBONDED TABLE R-SQUARED SPACING: 0.0625
Info: NONBONDED TABLE SIZE: 705 POINTS
TCL: Running for 1500000 steps
ETITLE: TS BOND ANGLE DIHED IMPRP ELECT VDW BOUNDARY MISC KINETIC TOTAL TEMP POTENTIAL TOTALAVG TEMPAVG PRESSURE GPRESSURE VOLUME PRESSAVG GPRESSAVG
ENERGY: 0 2.8337 10.8691 5.1062 0.0000 -10507.3608 1365.6785 0.0000 0.0000 1737.4721 -7385.4013 300.2011 -9122.8733 -7385.4013 300.2011 -686.2935 -605.7487 30295.2110 -686.2935 -605.7487
ENERGY: 300000 2.5576 13.2451 2.6397 0.0000 -10497.3193 1425.4403 0.0000 0.0000 1733.1397 -7320.2968 299.4526 -9053.4365 -7353.6122 298.0544 132.6613 203.9720 29857.5072 -164.5478 -63.5372
ENERGY: 600000 0.8505 11.1672 4.4552 0.0000 -10417.9616 1377.1590 0.0000 0.0000 1770.4801 -7253.8494 305.9043 -9024.3295 -7296.5110 300.9949 307.3060 348.2784 29629.1433 101.9354 169.2486
ENERGY: 900000 3.3067 13.1888 3.0469 0.0000 -10444.9799 1416.3397 0.0000 0.0000 1798.6108 -7210.4871 310.7647 -9009.0979 -7294.4286 301.8350 -20.7152 37.0109 30268.7336 67.8010 132.4594
ENERGY: 1200000 0.4682 10.2378 2.6058 0.0000 -10520.9117 1409.6905 0.0000 0.0000 1719.7194 -7378.1900 297.1338 -9097.9095 -7309.8838 301.1094 117.3449 160.8077 29733.6604 102.2934 161.3337
ENERGY: 1500000 2.6250 13.1309 3.3303 0.0000 -10428.7624 1410.7133 0.0000 0.0000 1732.4847 -7266.4782 299.3394 -8998.9629 -7314.3815 300.8346 126.0292 103.5747 30266.4738 112.4954 164.4142
TCL: Running FEP window  17: Lambda1 0.8000000000000002 Lambda2 0.8500000000000002 [dLambda 0.050000000000000044]
TCL: Setting parameter firsttimestep to 0
TCL: Setting parameter alchLambda to 0.8000000000000002
Info: NONBONDED TABLE R-SQUARED SPACING: 0.0625
Info: NONBONDED TABLE SIZE: 705 POINTS
TCL: Setting parameter alchLambda2 to 0.8500000000000002
Info: NONBONDED TABLE R-SQUARED SPACING: 0.0625
Info: NONBONDED TABLE SIZE: 705 POINTS
TCL: Running for 1500000 steps
ETITLE: TS BOND ANGLE DIHED IMPRP ELECT VDW BOUNDARY MISC KINETIC TOTAL TEMP POTENTIAL TOTALAVG TEMPAVG PRESSURE GPRESSURE VOLUME PRESSAVG GPRESSAVG
ENERGY: 0 2.6250 13.1309 3.3303 0.0000 -10428.7455 1411.0617 0.0000 0.0000 1731.6037 -7266.9939 299.1872 -8998.5976 -7266.9939 299.1872 24.8443 118.6961 30266.4738 24.8443 118.6961
ENERGY: 300000 1.1361 10.4601 4.5401 0.0000 -10665.6370 1511.6414 0.0000 0.0000 1763.3046 -7374.5547 304.6645 -9137.8593 -7354.1887 302.5243 903.2416 947.8987 29494.0749 92.9703 158.0501
ENERGY: 600000 3.5475 13.2618 3.6652 0.0000 -10563.0781 1424.4866 0.0000 0.0000 1773.7727 -7344.3444 306.4731 -9118.1171 -7370.3657 302.3124 -129.4616 -26.7451 29987.4957 -60.8538 5.6157
ENERGY: 900000 3.3805 9.3291 2.7686 0.0000 -10586.9174 1437.2816 0.0000 0.0000 1750.7508 -7383.4069 302.4954 -9134.1577 -7362.7400 301.9285 251.4399 220.9852 29751.7818 -75.2324 -8.0083
ENERGY: 1200000 4.3776 9.9892 2.9172 0.0000 -10731.7153 1512.8199 0.0000 0.0000 1735.8082 -7465.8031 299.9136 -9201.6113 -7365.5956 301.6815 425.6609 482.0680 29635.7068 -43.0759 17.2830
ENERGY: 1500000 2.0706 12.3332 2.5690 0.0000 -10541.7165 1404.0946 0.0000 0.0000 1693.8749 -7426.7742 292.6684 -9120.6491 -7366.7316 300.9501 -155.4392 -156.2157 29677.8119 -79.9961 -16.2889
TCL: Running FEP window  18: Lambda1 0.8500000000000002 Lambda2 0.9000000000000002 [dLambda 0.050000000000000044]
TCL: Setting parameter firsttimestep to 0
TCL: Setting parameter alchLambda to 0.8500000000000002
Info: NONBONDED TABLE R-SQUARED SPACING: 0.0625
Info: NONBONDED TABLE SIZE: 705 POINTS
TCL: Setting parameter alchLambda2 to 0.9000000000000002
Info: NONBONDED TABLE R-SQUARED SPACING: 0.0625
Info: NONBONDED TABLE SIZE: 705 POINTS
TCL: Running for 1500000 steps
ETITLE: TS BOND ANGLE DIHED IMPRP ELECT VDW BOUNDARY MISC KINETIC TOTAL TEMP POTENTIAL TOTALAVG TEMPAVG PRESSURE GPRESSURE VOLUME PRESSAVG GPRESSAVG
ENERGY: 0 2.0706 12.3332 2.5690 0.0000 -10541.6978 1403.9053 0.0000 0.0000 1692.9936 -7427.8262 292.5161 -9120.8197 -7427.8262 292.5161 -242.3916 -150.7041 29677.8119 -242.3916 -150.7041
ENERGY: 300000 2.0180 12.2334 2.8864 0.0000 -10455.3156 1361.3339 0.0000 0.0000 1675.5373 -7401.3066 289.5000 -9076.8439 -7379.2567 296.5943 -381.7350 -328.6848 29820.7587 -156.6494 -79.1686
ENERGY: 600000 2.8785 12.6549 6.8586 0.0000 -10548.4913 1401.5863 0.0000 0.0000 1732.3261 -7392.1868 299.3120 -9124.5130 -7367.0939 296.3381 -106.3743 11.5700 29563.1752 -137.6444 -50.9754
ENERGY: 900000 1.6968 11.0779 4.0256 0.0000 -10517.6732 1428.9738 0.0000 0.0000 1786.9302 -7284.9689 308.7465 -9071.8991 -7343.2853 299.0662 45.6862 83.0007 30097.8640 -14.0868 55.4000
ENERGY: 1200000 1.5278 11.7086 3.6963 0.0000 -10458.8771 1350.7927 0.0000 0.0000 1769.3163 -7321.8354 305.7032 -9091.1517 -7337.5633 299.3690 -503.2877 -442.2936 29850.2622 -65.2862 0.1727
ENERGY: 1500000 0.7012 12.4128 2.8473 0.0000 -10418.4246 1403.8459 0.0000 0.0000 1761.3802 -7237.2371 304.3320 -8998.6173 -7324.9302 300.1783 241.4303 367.4366 29842.1816 -8.8760 60.2041
TCL: Running FEP window  19: Lambda1 0.9000000000000002 Lambda2 0.9500000000000003 [dLambda 0.050000000000000044]
TCL: Setting parameter firsttimestep to 0
TCL: Setting parameter alchLambda to 0.9000000000000002
Info: NONBONDED TABLE R-SQUARED SPACING: 0.0625
Info: NONBONDED TABLE SIZE: 705 POINTS
TCL: Setting parameter alchLambda2 to 0.9500000000000003
Info: NONBONDED TABLE R-SQUARED SPACING: 0.0625
Info: NONBONDED TABLE SIZE: 705 POINTS
TCL: Running for 1500000 steps
ETITLE: TS BOND ANGLE DIHED IMPRP ELECT VDW BOUNDARY MISC KINETIC TOTAL TEMP POTENTIAL TOTALAVG TEMPAVG PRESSURE GPRESSURE VOLUME PRESSAVG GPRESSAVG
ENERGY: 0 0.7012 12.4128 2.8473 0.0000 -10418.4305 1404.5332 0.0000 0.0000 1760.5248 -7237.4111 304.1842 -8997.9360 -7237.4111 304.1842 315.8558 389.7680 29842.1816 315.8558 389.7680
ENERGY: 300000 2.5536 11.4900 4.6858 0.0000 -10435.3001 1375.4582 0.0000 0.0000 1704.1178 -7336.9947 294.4381 -9041.1125 -7320.5009 299.7217 -183.9503 -147.5331 29796.1159 162.1223 205.4234
ENERGY: 600000 0.8559 7.0673 3.9818 0.0000 -10446.8209 1390.7549 0.0000 0.0000 1728.9279 -7315.2331 298.7248 -9044.1610 -7305.5473 301.4310 -176.2734 -107.4060 30188.8760 -36.2294 4.5232
ENERGY: 900000 3.1528 10.4408 4.2855 0.0000 -10456.4553 1386.3210 0.0000 0.0000 1719.5844 -7332.6708 297.1105 -9052.2552 -7306.8131 300.1711 -500.3180 -439.4345 30665.0123 -117.0419 -68.9960
ENERGY: 1200000 2.7158 9.7539 2.7338 0.0000 -10446.2641 1377.9990 0.0000 0.0000 1685.9445 -7367.1172 291.2982 -9053.0617 -7311.3567 299.3412 -258.5693 -186.3594 29857.4693 -109.5958 -58.2637
ENERGY: 1500000 0.7262 17.9961 3.2879 0.0000 -10617.6171 1484.7292 0.0000 0.0000 1690.3836 -7420.4941 292.0651 -9110.8776 -7326.5287 298.5912 512.9686 574.9363 29887.6205 47.4189 96.4988
TCL: Running FEP window  20: Lambda1 0.9500000000000003 Lambda2 1.0    [dLambda 0.04999999999999971]
TCL: Setting parameter firsttimestep to 0
TCL: Setting parameter alchLambda to 0.9500000000000003
Info: NONBONDED TABLE R-SQUARED SPACING: 0.0625
Info: NONBONDED TABLE SIZE: 705 POINTS
TCL: Setting parameter alchLambda2 to 1.0
Info: NONBONDED TABLE R-SQUARED SPACING: 0.0625
Info: NONBONDED TABLE SIZE: 705 POINTS
TCL: Running for 1500000 steps
ETITLE: TS BOND ANGLE DIHED IMPRP ELECT VDW BOUNDARY MISC KINETIC TOTAL TEMP POTENTIAL TOTALAVG TEMPAVG PRESSURE GPRESSURE VOLUME PRESSAVG GPRESSAVG
ENERGY: 0 0.7262 17.9961 3.2879 0.0000 -10617.5955 1484.9233 0.0000 0.0000 1689.5355 -7421.1265 291.9186 -9110.6619 -7421.1265 291.9186 518.5479 593.2073 29887.6205 518.5479 593.2073
ENERGY: 300000 1.9152 15.7491 3.0894 0.0000 -10640.4882 1467.8345 0.0000 0.0000 1725.5149 -7426.3852 298.1351 -9151.9001 -7365.6637 299.9062 286.6311 363.5909 29593.2223 -97.8850 -35.3288
ENERGY: 600000 2.3528 6.4398 2.7238 0.0000 -10590.3127 1425.1156 0.0000 0.0000 1727.8724 -7425.8084 298.5425 -9153.6808 -7376.1986 299.3993 -241.5237 -208.5856 30254.3091 15.4598 70.7371
ENERGY: 900000 0.8929 12.2412 6.4353 0.0000 -10566.6494 1501.5004 0.0000 0.0000 1668.7524 -7376.8272 288.3277 -9045.5796 -7374.8990 298.5776 807.1922 927.2578 29495.2694 71.4253 133.3165
ENERGY: 1200000 1.7028 14.2254 3.9928 0.0000 -10447.5068 1356.3499 0.0000 0.0000 1796.7103 -7274.5256 310.4363 -9071.2359 -7363.5633 299.6827 -668.7226 -626.0424 30280.5923 -0.0807 63.9933
ENERGY: 1500000 4.6452 9.6229 2.9350 0.0000 -10486.1586 1421.0140 0.0000 0.0000 1760.1779 -7287.7636 304.1242 -9047.9415 -7358.6010 299.2610 -113.6517 -44.2418 30115.4075 -7.9520 59.6923
TCL: Exiting due to exit command.
