Info: SIMULATION PARAMETERS:
Info: TIMESTEP               2
Info: NUMBER OF STEPS        0
Info: STEPS PER CYCLE        10
Info: PERIODIC CELL BASIS 1  34.3804 0 0
Info: PERIODIC CELL BASIS 2  0 30.3099 0
Info: PERIODIC CELL BASIS 3  0 0 29.3297
Info: PERIODIC CELL CENTER   0 0 0
Info: WRAPPING WATERS AROUND PERIODIC BOUNDARIES ON OUTPUT.
Info: WRAPPING ALL CLUSTERS AROUND PERIODIC BOUNDARIES ON OUTPUT.
Info: FIRST LDB TIMESTEP     50
Info: LAST LDB TIMESTEP     -1
Info: HOM BACKGROUND SCALING 1
Info: PME BACKGROUND SCALING 1
Info: MIN ATOMS PER PATCH    40
Info: EMPTY PATCH LOAD       40 ATOMS
Info: VELOCITY FILE          mobley_2364370_equil.vel
Info: CENTER OF MASS MOVING INITIALLY? NO
Info: DIELECTRIC             1
Info: EXCLUDE                SCALED ONE-FOUR
Info: 1-4 ELECTROSTATICS SCALED BY 0.833333
Info: MODIFIED 1-4 VDW PARAMETERS WILL BE USED
Info: DCD FILENAME           mobley_2364370_prod.dcd
Info: DCD FREQUENCY          100000
Info: DCD FIRST STEP         100000
Info: DCD FILE WILL CONTAIN UNIT CELL DATA
Info: XST FILENAME           mobley_2364370_prod.xst
Info: XST FREQUENCY          100000
Info: NO VELOCITY DCD OUTPUT
Info: NO FORCE DCD OUTPUT
Info: OUTPUT FILENAME        mobley_2364370_prod
Info: BINARY OUTPUT FILES WILL BE USED
Info: RESTART FILENAME       mobley_2364370_prod.restart
Info: RESTART FREQUENCY      100000
Info: BINARY RESTART FILES WILL BE USED
Info: CUTOFF                 9
Info: PAIRLIST DISTANCE      11
Info: PAIRLIST SHRINK RATE   0.01
Info: PAIRLIST GROW RATE     0.01
Info: PAIRLIST TRIGGER       0.3
Info: PAIRLISTS PER CYCLE    2
Info: PAIRLISTS ENABLED
Info: MARGIN                 2
Info: HYDROGEN GROUP CUTOFF  2.5
Info: PATCH DIMENSION        15.5
Info: ENERGY OUTPUT STEPS    100000
Info: ENERGY EVALUATION STEPS    100000
Info: OUTPUT ENERGY PRECISION 4
Info: CROSSTERM ENERGY INCLUDED IN DIHEDRAL
Info: TIMING OUTPUT STEPS    1000000
Info: PRESSURE OUTPUT STEPS  100000
Info: ALCHEMICAL FEP ON
Info: FEP CURRENT LAMBDA VALUE     1
Info: FEP COMPARISON LAMBDA VALUE  0.95
Info: FEP INTRA-ALCHEMICAL NON-BONDED INTERACTIONS WILL BE RETAINED
Info: FEP INTRA-ALCHEMICAL BONDED INTERACTIONS WILL BE RETAINED
Info: FEP VDW SHIFTING COEFFICIENT 5
Info: FEP ELEC. ACTIVE FOR ANNIHILATED PARTICLES BETWEEN LAMBDA = 0 AND LAMBDA = 0.5
Info: FEP ELEC. ACTIVE FOR EXNIHILATED PARTICLES BETWEEN LAMBDA = 0.5 AND LAMBDA = 1
Info: FEP VDW ACTIVE FOR ANNIHILATED PARTICLES BETWEEN LAMBDA = 0 AND LAMBDA = 1
Info: FEP VDW ACTIVE FOR EXNIHILATED PARTICLES BETWEEN LAMBDA = 0 AND LAMBDA = 1
Info: FEP BOND ACTIVE FOR ANNIHILATED PARTICLES BETWEEN LAMBDA = 1 AND LAMBDA = 1
Info: FEP BOND ACTIVE FOR EXNIHILATED PARTICLES BETWEEN LAMBDA = 0 AND LAMBDA = 0
Info: LANGEVIN DYNAMICS ACTIVE
Info: LANGEVIN TEMPERATURE   300
Info: LANGEVIN USING BBK INTEGRATOR
Info: LANGEVIN DAMPING COEFFICIENT IS 1 INVERSE PS
Info: LANGEVIN DYNAMICS APPLIED TO HYDROGENS
Info: LANGEVIN PISTON PRESSURE CONTROL ACTIVE
Info:        TARGET PRESSURE IS 1.01325 BAR
Info:     OSCILLATION PERIOD IS 50 FS
Info:             DECAY TIME IS 25 FS
Info:     PISTON TEMPERATURE IS 300 K
Info:       PRESSURE CONTROL IS GROUP-BASED
Info:    INITIAL STRAIN RATE IS 3.88671e-05 3.88671e-05 3.88671e-05
Info:       CELL FLUCTUATION IS ISOTROPIC
Info: PARTICLE MESH EWALD (PME) ACTIVE
Info: PME TOLERANCE               1e-06
Info: PME EWALD COEFFICIENT       0.348832
Info: PME INTERPOLATION ORDER     4
Info: PME GRID DIMENSIONS         36 32 32
Info: PME MAXIMUM GRID SPACING    1
Info: PME CALCULATION WILL BE PERFORMED ON GPU
Info: FULL ELECTROSTATIC EVALUATION FREQUENCY      2
Info: USING VERLET I (r-RESPA) MTS SCHEME.
Info: C1 SPLITTING OF LONG RANGE ELECTROSTATICS
Info: PLACING ATOMS IN PATCHES BY HYDROGEN GROUPS
Info: RIGID BONDS TO HYDROGEN : ALL
Info:         ERROR TOLERANCE : 1e-08
Info:          MAX ITERATIONS : 100
Info: RIGID WATER USING SETTLE ALGORITHM
Info: RANDOM NUMBER SEED     1743924156
Info: USE HYDROGEN BONDS?    NO
Info: Using AMBER format force field!
Info: AMBER PARM FILE        mobley_2364370.prmtop
Info: COORDINATE PDB         mobley_2364370.pdb
Info: Exclusions will be read from PARM file!
Info: SCNB (VDW SCALING)     2
Info: USING ARITHMETIC MEAN TO COMBINE L-J SIGMA PARAMETERS
Info: BINARY COORDINATES     mobley_2364370_equil.coor
Info: SUMMARY OF PARAMETERS:
Info: 9 BONDS
Info: 12 ANGLES
Info:   12 HARMONIC
Info:   0 COSINE-BASED
Info: 20 DIHEDRAL
Info: 0 IMPROPER
Info: 0 CROSSTERM
Info: 0 VDW
Info: 36 VDW_PAIRS
Info: 0 NBTHOLE_PAIRS
Info: To read alchdata from file: mobley_2364370.pdb
Info: To read alchflag data from column: 5
Info: STRUCTURE SUMMARY:
Info: 2948 ATOMS
Info: 2947 BONDS
Info: 34 ANGLES
Info: 53 DIHEDRALS
Info: 0 IMPROPERS
Info: 0 CROSSTERMS
Info: 3019 EXCLUSIONS
Info: 2940 RIGID BONDS
Info: ALCH: 0 ATOMS TO DISAPPEAR IN FINAL STATE
Info: ALCH: 20 ATOMS TO APPEAR IN FINAL STATE
Info: 5904 DEGREES OF FREEDOM
Info: 984 HYDROGEN GROUPS
Info: 4 ATOMS IN LARGEST HYDROGEN GROUP
Info: 984 MIGRATION GROUPS
Info: 4 ATOMS IN LARGEST MIGRATION GROUP
Info: TOTAL MASS = 17699.8 amu
Info: TOTAL CHARGE = 0.000299968 e
Info: MASS DENSITY = 0.961666 g/cm^3
Info: ATOM DENSITY = 0.096455 atoms/A^3
Info: ADDED 0 IMPLICIT EXCLUSIONS
Info: NONBONDED TABLE R-SQUARED SPACING: 0.0625
Info: NONBONDED TABLE SIZE: 705 POINTS
Info: REMOVING COM VELOCITY 0.185391 0.105832 0.0341094
Info: Use 3D box decompostion in PME FFT.
Info: Updated CUDA force table with 4096 elements.
Info: Updated CUDA LJ table with 8 x 8 elements.
Info: Found 23 unique exclusion lists needing 64 bytes
TCL: Running for 1500000 steps
ETITLE: TS BOND ANGLE DIHED IMPRP ELECT VDW BOUNDARY MISC KINETIC TOTAL TEMP POTENTIAL TOTALAVG TEMPAVG PRESSURE GPRESSURE VOLUME PRESSAVG GPRESSAVG
ENERGY: 0 3.1517 14.9960 8.3003 0.0000 -10652.1981 1366.3936 0.0000 0.0000 1732.9956 -7526.3609 295.4211 -9259.3565 -7526.3609 295.4211 -717.4335 -632.3206 30563.4692 -717.4335 -632.3206
ENERGY: 300000 3.5964 8.1045 6.9243 0.0000 -10679.9664 1398.3992 0.0000 0.0000 1744.2746 -7518.6674 297.3438 -9262.9420 -7511.5710 298.0064 -316.4958 -236.7154 30381.7707 -81.5647 14.1625
ENERGY: 600000 2.8284 8.4323 5.6106 0.0000 -10731.9932 1471.0232 0.0000 0.0000 1739.4677 -7504.6309 296.5244 -9244.0986 -7491.2931 298.7951 109.0540 246.6517 30385.4111 -232.6716 -142.5113
ENERGY: 900000 2.7870 10.6655 8.5664 0.0000 -10545.2533 1362.8460 0.0000 0.0000 1714.0735 -7446.3149 292.1955 -9160.3884 -7488.6104 297.9390 -491.5593 -425.1119 31121.2471 -217.1349 -125.9189
ENERGY: 1200000 1.8753 8.5948 8.0463 0.0000 -10744.4461 1491.2469 0.0000 0.0000 1805.9030 -7428.7799 307.8495 -9234.6829 -7497.0813 298.8418 591.1035 631.5678 30343.1098 -135.7954 -45.9988
ENERGY: 1500000 1.7309 3.6047 8.6801 0.0000 -10739.9666 1492.0601 0.0000 0.0000 1718.6513 -7515.2396 292.9758 -9233.8909 -7490.5541 298.9525 596.1451 644.5788 29980.5802 -53.6755 23.7279
TCL: Running FEP window   2: Lambda1 0.95   Lambda2 0.8999999999999999 [dLambda -0.050000000000000044]
TCL: Setting parameter firsttimestep to 0
TCL: Setting parameter alchLambda to 0.95
Info: NONBONDED TABLE R-SQUARED SPACING: 0.0625
Info: NONBONDED TABLE SIZE: 705 POINTS
TCL: Setting parameter alchLambda2 to 0.8999999999999999
Info: NONBONDED TABLE R-SQUARED SPACING: 0.0625
Info: NONBONDED TABLE SIZE: 705 POINTS
TCL: Running for 1500000 steps
ETITLE: TS BOND ANGLE DIHED IMPRP ELECT VDW BOUNDARY MISC KINETIC TOTAL TEMP POTENTIAL TOTALAVG TEMPAVG PRESSURE GPRESSURE VOLUME PRESSAVG GPRESSAVG
ENERGY: 0 1.7309 3.6047 8.6801 0.0000 -10738.3594 1492.3702 0.0000 0.0000 1717.7875 -7514.1861 292.8286 -9231.9736 -7514.1861 292.8286 550.5964 638.0998 29980.5802 550.5964 638.0998
ENERGY: 300000 0.4095 14.6101 6.7641 0.0000 -10697.2862 1451.2304 0.0000 0.0000 1756.3819 -7467.8901 299.4077 -9224.2721 -7506.8991 296.3033 245.3908 310.0461 30252.7422 -171.1966 -100.3827
ENERGY: 600000 2.1421 8.7033 6.7003 0.0000 -10650.8342 1366.8281 0.0000 0.0000 1769.4378 -7497.0227 301.6333 -9266.4605 -7514.2410 296.4348 -572.3301 -486.0040 30405.2203 -145.7405 -81.2852
ENERGY: 900000 0.9626 8.6620 7.3773 0.0000 -10700.5861 1454.8900 0.0000 0.0000 1771.7437 -7456.9506 302.0264 -9228.6943 -7504.1642 297.6474 266.7317 342.2374 30235.8788 -113.6795 -46.9211
ENERGY: 1200000 3.0513 9.3681 6.6015 0.0000 -10725.0611 1492.2315 0.0000 0.0000 1721.4411 -7492.3677 293.4514 -9213.8088 -7506.5110 298.4117 458.9646 535.7444 30402.9527 -51.7119 24.3045
ENERGY: 1500000 0.7435 10.1556 6.1945 0.0000 -10600.3892 1344.3815 0.0000 0.0000 1764.7646 -7474.1495 300.8367 -9238.9141 -7489.5094 298.8790 -726.2788 -673.6647 30488.4373 -75.5692 -2.6959
TCL: Running FEP window   3: Lambda1 0.8999999999999999 Lambda2 0.8499999999999999 [dLambda -0.050000000000000044]
TCL: Setting parameter firsttimestep to 0
TCL: Setting parameter alchLambda to 0.8999999999999999
Info: NONBONDED TABLE R-SQUARED SPACING: 0.0625
Info: NONBONDED TABLE SIZE: 705 POINTS
TCL: Setting parameter alchLambda2 to 0.8499999999999999
Info: NONBONDED TABLE R-SQUARED SPACING: 0.0625
Info: NONBONDED TABLE SIZE: 705 POINTS
TCL: Running for 1500000 steps
ETITLE: TS BOND ANGLE DIHED IMPRP ELECT VDW BOUNDARY MISC KINETIC TOTAL TEMP POTENTIAL TOTALAVG TEMPAVG PRESSURE GPRESSURE VOLUME PRESSAVG GPRESSAVG
ENERGY: 0 0.7435 10.1556 6.1945 0.0000 -10599.2832 1344.7946 0.0000 0.0000 1763.8374 -7473.5576 300.6786 -9237.3949 -7473.5576 300.6786 -760.8051 -679.4659 30488.4373 -760.8051 -679.4659
ENERGY: 300000 3.5762 10.5060 6.9389 0.0000 -10542.3553 1336.3177 0.0000 0.0000 1787.4275 -7397.5890 304.7000 -9185.0165 -7432.5233 303.6075 -466.4615 -405.6524 30398.7251 -215.3817 -173.2820
ENERGY: 600000 1.6270 9.4621 6.8598 0.0000 -10753.6313 1404.0152 0.0000 0.0000 1760.6764 -7570.9907 300.1398 -9331.6672 -7454.7231 302.8644 -499.4792 -428.0591 30184.3744 -228.7526 -167.0978
ENERGY: 900000 2.0244 5.5618 4.9979 0.0000 -10719.6815 1441.7700 0.0000 0.0000 1731.0380 -7534.2894 295.0874 -9265.3274 -7464.3000 301.7182 222.9957 333.0482 30026.0554 -152.2515 -81.1080
ENERGY: 1200000 1.4792 12.7563 5.8579 0.0000 -10617.2045 1422.5471 0.0000 0.0000 1749.9643 -7424.5997 298.3137 -9174.5640 -7472.9010 300.8995 -170.4200 -74.1189 30988.0481 -199.5504 -125.1524
ENERGY: 1500000 0.6925 6.9453 7.3640 0.0000 -10599.9833 1402.1613 0.0000 0.0000 1764.9562 -7417.8642 300.8694 -9182.8204 -7477.6787 300.1316 91.3554 180.3454 30033.4112 -142.6366 -73.3247
TCL: Running FEP window   4: Lambda1 0.8499999999999999 Lambda2 0.7999999999999998 [dLambda -0.050000000000000044]
TCL: Setting parameter firsttimestep to 0
TCL: Setting parameter alchLambda to 0.8499999999999999
Info: NONBONDED TABLE R-SQUARED SPACING: 0.0625
Info: NONBONDED TABLE SIZE: 705 POINTS
TCL: Setting parameter alchLambda2 to 0.7999999999999998
Info: NONBONDED TABLE R-SQUARED SPACING: 0.0625
Info: NONBONDED TABLE SIZE: 705 POINTS
TCL: Running for 1500000 steps
ETITLE: TS BOND ANGLE DIHED IMPRP ELECT VDW BOUNDARY MISC KINETIC TOTAL TEMP POTENTIAL TOTALAVG TEMPAVG PRESSURE GPRESSURE VOLUME PRESSAVG GPRESSAVG
ENERGY: 0 0.6925 6.9453 7.3640 0.0000 -10598.2463 1400.9369 0.0000 0.0000 1764.1080 -7418.1997 300.7248 -9182.3077 -7418.1997 300.7248 61.5247 156.2239 30033.4112 61.5247 156.2239
ENERGY: 300000 1.2828 9.7338 6.7816 0.0000 -10771.7746 1508.0038 0.0000 0.0000 1765.3835 -7480.5891 300.9422 -9245.9727 -7459.3840 301.8700 486.5291 517.2942 30592.0087 -58.4351 9.4770
ENERGY: 600000 2.0087 12.3017 6.6078 0.0000 -10786.2012 1464.9931 0.0000 0.0000 1733.5971 -7566.6929 295.5236 -9300.2899 -7491.1824 300.1593 201.6837 247.8100 30413.0880 115.7723 176.5152
ENERGY: 900000 1.9539 5.2696 7.2227 0.0000 -10662.8937 1411.8146 0.0000 0.0000 1783.5034 -7453.1294 304.0311 -9236.6329 -7480.3214 301.1715 -204.5931 -98.4081 30441.9688 55.0311 116.4347
ENERGY: 1200000 2.5961 11.9449 6.8923 0.0000 -10542.1367 1382.7525 0.0000 0.0000 1810.2035 -7327.7474 308.5826 -9137.9510 -7468.5761 301.2701 -211.2950 -227.4313 30878.5092 -6.2530 53.2736
ENERGY: 1500000 1.6003 9.4727 5.1979 0.0000 -10677.4305 1423.4889 0.0000 0.0000 1721.2263 -7516.4444 293.4148 -9237.6708 -7474.3810 300.8524 -411.5410 -356.8640 30749.3769 17.1724 78.1841
TCL: Running FEP window   5: Lambda1 0.7999999999999998 Lambda2 0.7499999999999998 [dLambda -0.050000000000000044]
TCL: Setting parameter firsttimestep to 0
TCL: Setting parameter alchLambda to 0.7999999999999998
Info: NONBONDED TABLE R-SQUARED SPACING: 0.0625
Info: NONBONDED TABLE SIZE: 705 POINTS
TCL: Setting parameter alchLambda2 to 0.7499999999999998
Info: NONBONDED TABLE R-SQUARED SPACING: 0.0625
Info: NONBONDED TABLE SIZE: 705 POINTS
TCL: Running for 1500000 steps
ETITLE: TS BOND ANGLE DIHED IMPRP ELECT VDW BOUNDARY MISC KINETIC TOTAL TEMP POTENTIAL TOTALAVG TEMPAVG PRESSURE GPRESSURE VOLUME PRESSAVG GPRESSAVG
ENERGY: 0 1.6003 9.4727 5.1979 0.0000 -10676.9084 1423.7073 0.0000 0.0000 1720.3473 -7516.5829 293.2650 -9236.9302 -7516.5829 293.2650 -431.4339 -367.9545 30749.3769 -431.4339 -367.9545
ENERGY: 300000 0.8435 7.5378 5.9693 0.0000 -10737.9824 1464.8191 0.0000 0.0000 1769.4654 -7489.3472 301.6380 -9258.8127 -7499.5264 298.3409 289.8747 356.9417 29992.1791 48.1685 118.9289
ENERGY: 600000 1.0750 11.6855 6.2686 0.0000 -10606.7460 1380.7057 0.0000 0.0000 1742.7196 -7464.2916 297.0787 -9207.0113 -7492.3964 299.5824 -128.6874 -87.0264 30222.3336 -30.1234 34.9207
ENERGY: 900000 1.0480 6.3839 9.9681 0.0000 -10571.5601 1291.4777 0.0000 0.0000 1727.1776 -7535.5047 294.4293 -9262.6823 -7501.2576 298.3482 -1253.1527 -1105.8952 30404.4667 -228.1893 -158.1889
ENERGY: 1200000 0.8485 7.5262 5.3895 0.0000 -10686.6992 1406.7529 0.0000 0.0000 1745.6595 -7520.5226 297.5799 -9266.1821 -7500.1351 298.9324 -497.0579 -335.5638 30286.3451 -198.9895 -124.6790
ENERGY: 1500000 1.2335 10.9932 7.5812 0.0000 -10670.4419 1408.4139 0.0000 0.0000 1749.7799 -7492.4401 298.2823 -9242.2201 -7498.4401 299.2307 -112.3799 -55.9407 30103.9754 -222.0453 -153.8215
TCL: Running FEP window   6: Lambda1 0.7499999999999998 Lambda2 0.6999999999999997 [dLambda -0.050000000000000044]
TCL: Setting parameter firsttimestep to 0
TCL: Setting parameter alchLambda to 0.7499999999999998
Info: NONBONDED TABLE R-SQUARED SPACING: 0.0625
Info: NONBONDED TABLE SIZE: 705 POINTS
TCL: Setting parameter alchLambda2 to 0.6999999999999997
Info: NONBONDED TABLE R-SQUARED SPACING: 0.0625
Info: NONBONDED TABLE SIZE: 705 POINTS
TCL: Running for 1500000 steps
ETITLE: TS BOND ANGLE DIHED IMPRP ELECT VDW BOUNDARY MISC KINETIC TOTAL TEMP POTENTIAL TOTALAVG TEMPAVG PRESSURE GPRESSURE VOLUME PRESSAVG GPRESSAVG
ENERGY: 0 1.2335 10.9932 7.5812 0.0000 -10669.7707 1408.4392 0.0000 0.0000 1748.9146 -7492.6089 298.1348 -9241.5235 -7492.6089 298.1348 -150.4041 -68.2799 30103.9754 -150.4041 -68.2799
ENERGY: 300000 1.2730 5.8444 6.1471 0.0000 -10650.1598 1425.3611 0.0000 0.0000 1848.9832 -7362.5510 315.1933 -9211.5342 -7432.1627 303.0305 184.7968 194.6579 30229.9617 10.5240 81.8924
ENERGY: 600000 2.2690 9.6891 6.5250 0.0000 -10552.8488 1384.6432 0.0000 0.0000 1799.6182 -7350.1043 306.7781 -9149.7225 -7439.6483 301.9573 -165.6558 -74.2124 30294.1718 -64.4846 -0.6408
ENERGY: 900000 2.8636 10.5830 8.0854 0.0000 -10809.3829 1522.1202 0.0000 0.0000 1718.7990 -7546.9317 293.0010 -9265.7307 -7455.3223 301.3674 209.1983 308.0464 30738.2863 -196.1554 -122.9512
ENERGY: 1200000 0.7788 5.3548 6.7576 0.0000 -10627.7543 1442.5600 0.0000 0.0000 1806.2917 -7366.0114 307.9158 -9172.3031 -7452.2835 301.6177 373.6076 401.0664 30411.7943 -85.5919 -23.6273
ENERGY: 1500000 2.8781 7.7088 6.0965 0.0000 -10888.2772 1555.7282 0.0000 0.0000 1778.5021 -7537.3635 303.1785 -9315.8656 -7462.6951 301.2417 742.2018 887.0945 30003.6160 -14.1643 57.9447
TCL: Running FEP window   7: Lambda1 0.6999999999999997 Lambda2 0.6499999999999997 [dLambda -0.050000000000000044]
TCL: Setting parameter firsttimestep to 0
TCL: Setting parameter alchLambda to 0.6999999999999997
Info: NONBONDED TABLE R-SQUARED SPACING: 0.0625
Info: NONBONDED TABLE SIZE: 705 POINTS
TCL: Setting parameter alchLambda2 to 0.6499999999999997
Info: NONBONDED TABLE R-SQUARED SPACING: 0.0625
Info: NONBONDED TABLE SIZE: 705 POINTS
TCL: Running for 1500000 steps
ETITLE: TS BOND ANGLE DIHED IMPRP ELECT VDW BOUNDARY MISC KINETIC TOTAL TEMP POTENTIAL TOTALAVG TEMPAVG PRESSURE GPRESSURE VOLUME PRESSAVG GPRESSAVG
ENERGY: 0 2.8781 7.7088 6.0965 0.0000 -10887.4509 1555.7292 0.0000 0.0000 1777.6100 -7537.4283 303.0264 -9315.0383 -7537.4283 303.0264 787.6040 877.6229 30003.6160 787.6040 877.6229
ENERGY: 300000 0.8756 10.3449 8.2822 0.0000 -10646.5192 1449.3000 0.0000 0.0000 1728.4838 -7449.2328 294.6520 -9177.7166 -7472.4851 302.4524 200.6722 243.4942 30564.7551 420.8504 485.2163
ENERGY: 600000 1.7329 8.4573 6.5668 0.0000 -10708.0583 1483.1818 0.0000 0.0000 1777.0198 -7431.0997 302.9258 -9208.1195 -7477.0712 301.7304 438.5170 467.5346 30288.6203 421.0407 479.6797
ENERGY: 900000 2.3773 8.4684 7.7709 0.0000 -10728.9214 1486.8072 0.0000 0.0000 1755.8832 -7467.6143 299.3227 -9223.4975 -7483.0482 301.8385 396.2481 472.4505 30068.7681 243.3680 305.7652
ENERGY: 1200000 2.2032 12.7240 6.8455 0.0000 -10601.7415 1341.5640 0.0000 0.0000 1741.8042 -7496.6006 296.9227 -9238.4048 -7484.5995 301.0277 -689.8889 -643.9895 30233.2332 95.4387 152.3012
ENERGY: 1500000 2.5914 9.4031 6.1159 0.0000 -10589.1590 1419.1966 0.0000 0.0000 1733.2844 -7418.5675 295.4703 -9151.8519 -7479.8379 300.0496 -131.0507 -31.7558 30687.8473 83.6855 139.1666
TCL: Running FEP window   8: Lambda1 0.6499999999999997 Lambda2 0.5999999999999996 [dLambda -0.050000000000000044]
TCL: Setting parameter firsttimestep to 0
TCL: Setting parameter alchLambda to 0.6499999999999997
Info: NONBONDED TABLE R-SQUARED SPACING: 0.0625
Info: NONBONDED TABLE SIZE: 705 POINTS
TCL: Setting parameter alchLambda2 to 0.5999999999999996
Info: NONBONDED TABLE R-SQUARED SPACING: 0.0625
Info: NONBONDED TABLE SIZE: 705 POINTS
TCL: Running for 1500000 steps
ETITLE: TS BOND ANGLE DIHED IMPRP ELECT VDW BOUNDARY MISC KINETIC TOTAL TEMP POTENTIAL TOTALAVG TEMPAVG PRESSURE GPRESSURE VOLUME PRESSAVG GPRESSAVG
ENERGY: 0 2.5914 9.4031 6.1159 0.0000 -10587.6854 1418.7184 0.0000 0.0000 1732.3565 -7418.5001 295.3121 -9150.8566 -7418.5001 295.3121 -134.7946 -41.1024 30687.8473 -134.7946 -41.1024
ENERGY: 300000 2.6181 9.7633 6.8730 0.0000 -10638.3408 1429.9797 0.0000 0.0000 1751.6186 -7437.4880 298.5957 -9189.1066 -7478.6337 297.1970 237.1053 228.4053 30172.1631 -69.4835 1.4856
ENERGY: 600000 2.9923 8.3238 5.8177 0.0000 -10855.2757 1492.6634 0.0000 0.0000 1759.2606 -7586.2179 299.8984 -9345.4785 -7490.2071 298.7832 176.4242 222.4506 30165.1567 -2.3896 55.1749
ENERGY: 900000 6.1459 10.8977 7.7089 0.0000 -10706.2711 1387.6808 0.0000 0.0000 1730.7086 -7563.1292 295.0312 -9293.8377 -7482.3535 299.1634 -739.0456 -703.1898 30535.0953 98.6211 164.5943
ENERGY: 1200000 3.2177 12.4623 7.0131 0.0000 -10621.7865 1380.5390 0.0000 0.0000 1733.9532 -7484.6012 295.5843 -9218.5544 -7481.7919 299.4874 -523.6783 -426.1116 30497.6887 44.6413 112.4453
ENERGY: 1500000 0.9659 7.8899 6.6518 0.0000 -10907.3776 1572.6813 0.0000 0.0000 1788.5313 -7530.6573 304.8882 -9319.1885 -7480.3179 300.9981 655.0509 769.5512 30348.8620 152.5900 220.0271
TCL: Running FEP window   9: Lambda1 0.5999999999999996 Lambda2 0.5499999999999996 [dLambda -0.050000000000000044]
TCL: Setting parameter firsttimestep to 0
TCL: Setting parameter alchLambda to 0.5999999999999996
Info: NONBONDED TABLE R-SQUARED SPACING: 0.0625
Info: NONBONDED TABLE SIZE: 705 POINTS
TCL: Setting parameter alchLambda2 to 0.5499999999999996
Info: NONBONDED TABLE R-SQUARED SPACING: 0.0625
Info: NONBONDED TABLE SIZE: 705 POINTS
TCL: Running for 1500000 steps
ETITLE: TS BOND ANGLE DIHED IMPRP ELECT VDW BOUNDARY MISC KINETIC TOTAL TEMP POTENTIAL TOTALAVG TEMPAVG PRESSURE GPRESSURE VOLUME PRESSAVG GPRESSAVG
ENERGY: 0 0.9659 7.8900 6.6518 0.0000 -10906.9966 1572.4962 0.0000 0.0000 1787.6628 -7531.3299 304.7401 -9318.9927 -7531.3299 304.7401 687.0214 760.2617 30348.8620 687.0214 760.2617
ENERGY: 300000 3.9774 8.9578 6.1979 0.0000 -10754.2649 1495.7014 0.0000 0.0000 1784.9618 -7454.4686 304.2797 -9239.4304 -7490.2501 303.0112 558.1180 596.3579 30196.0756 10.7832 74.5091
ENERGY: 600000 1.7972 8.3584 7.3237 0.0000 -10685.6723 1449.7895 0.0000 0.0000 1738.9403 -7479.4631 296.4345 -9218.4035 -7495.8255 301.1870 262.4253 376.9634 30277.9399 56.0146 121.7431
ENERGY: 900000 4.0504 6.7663 7.5232 0.0000 -10558.5837 1398.3577 0.0000 0.0000 1814.0883 -7327.7978 309.2448 -9141.8860 -7457.5966 302.6189 -342.1058 -291.8921 31036.7749 -112.9969 -46.6349
ENERGY: 1200000 2.0707 9.0972 6.1431 0.0000 -10736.3788 1463.6316 0.0000 0.0000 1764.4884 -7490.9478 300.7896 -9255.4361 -7454.7359 302.9428 220.7781 250.4168 30115.0637 -41.4121 17.8040
ENERGY: 1500000 1.8098 13.0324 6.2319 0.0000 -10648.2785 1399.9530 0.0000 0.0000 1780.2430 -7447.0083 303.4753 -9227.2514 -7461.7338 302.3479 -254.2807 -216.8759 30555.7913 -78.5412 -26.6812
TCL: Running FEP window  10: Lambda1 0.5499999999999996 Lambda2 0.4999999999999996 [dLambda -0.04999999999999999]
TCL: Setting parameter firsttimestep to 0
TCL: Setting parameter alchLambda to 0.5499999999999996
Info: NONBONDED TABLE R-SQUARED SPACING: 0.0625
Info: NONBONDED TABLE SIZE: 705 POINTS
TCL: Setting parameter alchLambda2 to 0.4999999999999996
Info: NONBONDED TABLE R-SQUARED SPACING: 0.0625
Info: NONBONDED TABLE SIZE: 705 POINTS
TCL: Running for 1500000 steps
ETITLE: TS BOND ANGLE DIHED IMPRP ELECT VDW BOUNDARY MISC KINETIC TOTAL TEMP POTENTIAL TOTALAVG TEMPAVG PRESSURE GPRESSURE VOLUME PRESSAVG GPRESSAVG
ENERGY: 0 1.8098 13.0324 6.2319 0.0000 -10647.6512 1400.4262 0.0000 0.0000 1779.3816 -7446.7692 303.3284 -9226.1508 -7446.7692 303.3284 -308.3835 -217.6929 30555.7913 -308.3835 -217.6929
ENERGY: 300000 1.4342 3.2850 7.4493 0.0000 -10611.2959 1461.2917 0.0000 0.0000 1708.0713 -7429.7643 291.1723 -9137.8356 -7443.4233 300.5390 371.0209 482.8783 30465.6218 -185.1121 -108.0144
ENERGY: 600000 3.2120 8.0135 4.3032 0.0000 -10696.7952 1431.1990 0.0000 0.0000 1808.9579 -7441.1096 308.3703 -9250.0675 -7464.2422 301.7227 -77.1743 -49.9031 30092.3651 -150.4322 -88.6714
ENERGY: 900000 1.0329 7.5790 7.1901 0.0000 -10780.9524 1437.3862 0.0000 0.0000 1731.3341 -7596.4300 295.1379 -9327.7641 -7485.2294 299.9958 -182.6688 -119.9993 30356.9855 -88.2347 -18.2573
ENERGY: 1200000 1.7255 6.9144 6.2921 0.0000 -10568.9450 1328.1172 0.0000 0.0000 1797.2367 -7428.6591 306.3722 -9225.8958 -7471.1980 301.1298 -968.4986 -888.8984 30671.5386 -144.0640 -63.8113
ENERGY: 1500000 2.8992 4.0433 6.1556 0.0000 -10652.9499 1396.6039 0.0000 0.0000 1751.3170 -7491.9308 298.5443 -9243.2478 -7478.5115 301.1163 -427.9148 -381.3653 30427.7502 -163.1386 -89.2731
TCL: Running FEP window  11: Lambda1 0.4999999999999996 Lambda2 0.4499999999999996 [dLambda -0.04999999999999999]
TCL: Setting parameter firsttimestep to 0
TCL: Setting parameter alchLambda to 0.4999999999999996
Info: NONBONDED TABLE R-SQUARED SPACING: 0.0625
Info: NONBONDED TABLE SIZE: 705 POINTS
TCL: Setting parameter alchLambda2 to 0.4499999999999996
Info: NONBONDED TABLE R-SQUARED SPACING: 0.0625
Info: NONBONDED TABLE SIZE: 705 POINTS
TCL: Running for 1500000 steps
ETITLE: TS BOND ANGLE DIHED IMPRP ELECT VDW BOUNDARY MISC KINETIC TOTAL TEMP POTENTIAL TOTALAVG TEMPAVG PRESSURE GPRESSURE VOLUME PRESSAVG GPRESSAVG
ENERGY: 0 2.8992 4.0433 6.1556 0.0000 -10652.9784 1396.3003 0.0000 0.0000 1750.4504 -7493.1296 298.3966 -9243.5799 -7493.1296 298.3966 -461.7167 -390.1614 30427.7502 -461.7167 -390.1614
ENERGY: 300000 2.4880 14.0077 6.0266 0.0000 -10635.0837 1426.8812 0.0000 0.0000 1722.5870 -7463.0932 293.6467 -9185.6801 -7456.5612 297.7979 -164.8495 -117.9490 30577.0159 -421.9464 -347.7044
ENERGY: 600000 0.6715 7.3000 6.7647 0.0000 -10603.0834 1459.0984 0.0000 0.0000 1722.3271 -7406.9217 293.6025 -9129.2488 -7462.5009 297.6437 346.4801 402.4483 30621.4279 -183.0104 -113.9449
ENERGY: 900000 0.8471 9.2593 5.4164 0.0000 -10614.9384 1383.4729 0.0000 0.0000 1729.0755 -7486.8672 294.7528 -9215.9427 -7467.9406 298.2491 -308.4737 -215.4373 30002.9413 -112.5297 -45.0333
ENERGY: 1200000 1.2980 11.2652 6.5293 0.0000 -10654.3272 1371.1080 0.0000 0.0000 1726.6958 -7537.4309 294.3472 -9264.1267 -7478.4714 297.8588 -670.1951 -624.9536 30407.5821 -190.8075 -126.7352
ENERGY: 1500000 1.8354 7.6405 6.1067 0.0000 -10692.8605 1444.3853 0.0000 0.0000 1774.9709 -7457.9216 302.5766 -9232.8925 -7474.3992 299.3247 192.9520 209.8852 30316.0466 -130.1987 -77.9880
TCL: Running FEP window  12: Lambda1 0.4499999999999996 Lambda2 0.39999999999999963 [dLambda -0.04999999999999999]
TCL: Setting parameter firsttimestep to 0
TCL: Setting parameter alchLambda to 0.4499999999999996
Info: NONBONDED TABLE R-SQUARED SPACING: 0.0625
Info: NONBONDED TABLE SIZE: 705 POINTS
TCL: Setting parameter alchLambda2 to 0.39999999999999963
Info: NONBONDED TABLE R-SQUARED SPACING: 0.0625
Info: NONBONDED TABLE SIZE: 705 POINTS
TCL: Running for 1500000 steps
ETITLE: TS BOND ANGLE DIHED IMPRP ELECT VDW BOUNDARY MISC KINETIC TOTAL TEMP POTENTIAL TOTALAVG TEMPAVG PRESSURE GPRESSURE VOLUME PRESSAVG GPRESSAVG
ENERGY: 0 1.8354 7.6405 6.1067 0.0000 -10692.8605 1444.3747 0.0000 0.0000 1774.1071 -7458.7959 302.4293 -9232.9031 -7458.7959 302.4293 103.4064 201.6737 30316.0466 103.4064 201.6737
ENERGY: 300000 4.1366 6.4114 9.6558 0.0000 -10840.4747 1479.5703 0.0000 0.0000 1779.0672 -7561.6336 303.2748 -9340.7007 -7497.4086 303.2217 -117.1803 -8.8318 30231.3322 -336.7273 -252.6113
ENERGY: 600000 1.3698 6.7420 7.4771 0.0000 -10799.4514 1502.5564 0.0000 0.0000 1798.1183 -7483.1878 306.5225 -9281.3061 -7492.2179 302.5019 431.3429 437.3666 30226.5407 -385.4923 -315.5133
ENERGY: 900000 0.7976 13.9394 8.5179 0.0000 -10613.0924 1385.1906 0.0000 0.0000 1729.7454 -7474.9015 294.8670 -9204.6469 -7491.0854 300.7906 -333.8971 -276.9051 30289.9202 -383.6114 -316.9572
ENERGY: 1200000 0.5416 10.2885 8.0947 0.0000 -10574.2096 1397.3461 0.0000 0.0000 1794.9596 -7362.9790 305.9840 -9157.9386 -7479.6023 301.8622 167.1403 160.8058 30114.8996 -279.7174 -214.1025
ENERGY: 1500000 1.4375 7.0558 6.6459 0.0000 -10535.2016 1345.4473 0.0000 0.0000 1763.4878 -7411.1273 300.6190 -9174.6151 -7468.9092 301.9319 -623.8198 -547.1381 30674.6685 -236.6139 -167.3138
TCL: Running FEP window  13: Lambda1 0.39999999999999963 Lambda2 0.34999999999999964 [dLambda -0.04999999999999999]
TCL: Setting parameter firsttimestep to 0
TCL: Setting parameter alchLambda to 0.39999999999999963
Info: NONBONDED TABLE R-SQUARED SPACING: 0.0625
Info: NONBONDED TABLE SIZE: 705 POINTS
TCL: Setting parameter alchLambda2 to 0.34999999999999964
Info: NONBONDED TABLE R-SQUARED SPACING: 0.0625
Info: NONBONDED TABLE SIZE: 705 POINTS
TCL: Running for 1500000 steps
ETITLE: TS BOND ANGLE DIHED IMPRP ELECT VDW BOUNDARY MISC KINETIC TOTAL TEMP POTENTIAL TOTALAVG TEMPAVG PRESSURE GPRESSURE VOLUME PRESSAVG GPRESSAVG
ENERGY: 0 1.4375 7.0559 6.6459 0.0000 -10535.2000 1346.0427 0.0000 0.0000 1762.6417 -7411.3763 300.4748 -9174.0181 -7411.3763 300.4748 -628.6323 -545.4649 30674.6685 -628.6323 -545.4649
ENERGY: 300000 3.5089 9.0841 6.5589 0.0000 -10554.5121 1281.4353 0.0000 0.0000 1757.7634 -7496.1616 299.6432 -9253.9249 -7456.8058 302.4626 -1322.1826 -1292.1627 30403.3254 -333.4604 -269.5398
ENERGY: 600000 1.9193 10.4891 6.3572 0.0000 -10596.8913 1414.7086 0.0000 0.0000 1763.7452 -7399.6718 300.6629 -9163.4170 -7459.3466 300.6343 89.5389 116.0932 30351.2286 -517.0068 -445.2313
ENERGY: 900000 2.2998 6.0308 5.4178 0.0000 -10721.8509 1496.7304 0.0000 0.0000 1743.9732 -7467.3988 297.2924 -9211.3720 -7473.9872 299.4885 552.7746 618.4638 30030.6952 -276.8483 -211.5906
ENERGY: 1200000 2.1103 9.6287 7.2758 0.0000 -10832.8691 1537.8319 0.0000 0.0000 1797.5278 -7478.4945 306.4218 -9276.0223 -7473.9795 299.3711 853.5141 891.0863 30155.1196 -153.9431 -89.1399
ENERGY: 1500000 2.6418 6.6014 8.8672 0.0000 -10709.4732 1398.2755 0.0000 0.0000 1752.7431 -7540.3441 298.7874 -9293.0872 -7484.1148 299.0763 -607.5856 -558.7279 30803.2730 -128.8538 -62.4128
TCL: Running FEP window  14: Lambda1 0.34999999999999964 Lambda2 0.29999999999999966 [dLambda -0.04999999999999999]
TCL: Setting parameter firsttimestep to 0
TCL: Setting parameter alchLambda to 0.34999999999999964
Info: NONBONDED TABLE R-SQUARED SPACING: 0.0625
Info: NONBONDED TABLE SIZE: 705 POINTS
TCL: Setting parameter alchLambda2 to 0.29999999999999966
Info: NONBONDED TABLE R-SQUARED SPACING: 0.0625
Info: NONBONDED TABLE SIZE: 705 POINTS
TCL: Running for 1500000 steps
ETITLE: TS BOND ANGLE DIHED IMPRP ELECT VDW BOUNDARY MISC KINETIC TOTAL TEMP POTENTIAL TOTALAVG TEMPAVG PRESSURE GPRESSURE VOLUME PRESSAVG GPRESSAVG
ENERGY: 0 2.6418 6.6014 8.8672 0.0000 -10709.4726 1397.3572 0.0000 0.0000 1751.8278 -7542.1771 298.6314 -9294.0049 -7542.1771 298.6314 -656.6830 -571.5865 30803.2730 -656.6830 -571.5865
ENERGY: 300000 2.7137 7.1945 5.7136 0.0000 -10552.2949 1357.3838 0.0000 0.0000 1722.3799 -7456.9093 293.6115 -9179.2892 -7474.4655 295.8583 -579.8635 -505.0072 30224.9155 -390.2654 -314.4039
ENERGY: 600000 3.1086 11.8919 5.5120 0.0000 -10573.2181 1383.3221 0.0000 0.0000 1726.2064 -7443.1770 294.2638 -9169.3834 -7471.1031 294.3009 -470.9390 -397.9644 30521.9919 -499.0711 -424.3845
ENERGY: 900000 2.3092 11.7596 6.2694 0.0000 -10597.5252 1376.3711 0.0000 0.0000 1731.2423 -7469.5737 295.1222 -9200.8159 -7466.1814 295.4477 -583.0324 -510.8480 30712.9618 -381.8776 -316.2133
ENERGY: 1200000 3.3714 9.8406 9.7371 0.0000 -10771.3638 1518.1147 0.0000 0.0000 1752.0598 -7478.2403 298.6709 -9230.3001 -7467.0163 296.6587 617.8199 700.8511 30129.2081 -272.5546 -212.7636
ENERGY: 1500000 3.4438 9.5598 6.1823 0.0000 -10636.5069 1420.6836 0.0000 0.0000 1704.0155 -7492.6219 290.4809 -9196.6374 -7456.2767 297.4475 -94.1971 -92.1902 30356.9894 -274.0027 -214.9743
TCL: Running FEP window  15: Lambda1 0.29999999999999966 Lambda2 0.24999999999999967 [dLambda -0.04999999999999999]
TCL: Setting parameter firsttimestep to 0
TCL: Setting parameter alchLambda to 0.29999999999999966
Info: NONBONDED TABLE R-SQUARED SPACING: 0.0625
Info: NONBONDED TABLE SIZE: 705 POINTS
TCL: Setting parameter alchLambda2 to 0.24999999999999967
Info: NONBONDED TABLE R-SQUARED SPACING: 0.0625
Info: NONBONDED TABLE SIZE: 705 POINTS
TCL: Running for 1500000 steps
ETITLE: TS BOND ANGLE DIHED IMPRP ELECT VDW BOUNDARY MISC KINETIC TOTAL TEMP POTENTIAL TOTALAVG TEMPAVG PRESSURE GPRESSURE VOLUME PRESSAVG GPRESSAVG
ENERGY: 0 3.4438 9.5598 6.1823 0.0000 -10636.5065 1421.1652 0.0000 0.0000 1703.0757 -7493.0798 290.3207 -9196.1555 -7493.0798 290.3207 -172.2371 -89.4931 30356.9894 -172.2371 -89.4931
ENERGY: 300000 3.5970 8.5290 6.7394 0.0000 -10655.9682 1446.6655 0.0000 0.0000 1748.6580 -7441.7793 298.0910 -9190.4373 -7470.1517 298.2371 426.2692 443.7388 29939.6466 46.7033 88.5375
ENERGY: 600000 0.9350 4.9200 5.4232 0.0000 -10608.1620 1361.2083 0.0000 0.0000 1757.4633 -7478.2122 299.5921 -9235.6755 -7465.2897 298.2129 -661.1806 -563.6256 30475.7757 -28.5933 26.1831
ENERGY: 900000 1.9594 6.9373 7.4870 0.0000 -10741.1859 1464.7242 0.0000 0.0000 1758.6197 -7501.4583 299.7892 -9260.0780 -7462.2438 300.3031 259.6250 306.5275 29987.9887 51.6202 105.6534
ENERGY: 1200000 1.0972 9.3386 7.3934 0.0000 -10546.2603 1316.9208 0.0000 0.0000 1789.5012 -7422.0091 305.0535 -9211.5103 -7462.4704 301.3216 -806.5488 -741.1949 30418.0952 -44.0615 9.3431
ENERGY: 1500000 1.9295 7.0219 4.8584 0.0000 -10726.0972 1438.1600 0.0000 0.0000 1766.4386 -7507.6889 301.1221 -9274.1274 -7459.8914 300.7782 -102.2201 3.2323 30188.3074 -31.2627 29.3136
TCL: Running FEP window  16: Lambda1 0.24999999999999967 Lambda2 0.19999999999999968 [dLambda -0.04999999999999999]
TCL: Setting parameter firsttimestep to 0
TCL: Setting parameter alchLambda to 0.24999999999999967
Info: NONBONDED TABLE R-SQUARED SPACING: 0.0625
Info: NONBONDED TABLE SIZE: 705 POINTS
TCL: Setting parameter alchLambda2 to 0.19999999999999968
Info: NONBONDED TABLE R-SQUARED SPACING: 0.0625
Info: NONBONDED TABLE SIZE: 705 POINTS
TCL: Running for 1500000 steps
ETITLE: TS BOND ANGLE DIHED IMPRP ELECT VDW BOUNDARY MISC KINETIC TOTAL TEMP POTENTIAL TOTALAVG TEMPAVG PRESSURE GPRESSURE VOLUME PRESSAVG GPRESSAVG
ENERGY: 0 1.9295 7.0219 4.8584 0.0000 -10726.0964 1438.4285 0.0000 0.0000 1765.5494 -7508.3087 300.9705 -9273.8581 -7508.3087 300.9705 -95.1780 -0.9033 30188.3074 -95.1780 -0.9033
ENERGY: 300000 3.0379 11.7785 5.4286 0.0000 -10881.3283 1570.5972 0.0000 0.0000 1791.4900 -7498.9961 305.3925 -9290.4861 -7499.8151 298.1158 1012.5799 1055.0096 29877.0178 52.1118 133.8279
ENERGY: 600000 3.6070 7.3697 6.4255 0.0000 -10736.4228 1468.8186 0.0000 0.0000 1769.7241 -7480.4779 301.6821 -9250.2020 -7494.0148 296.3708 406.4413 502.1140 30032.5819 -4.6620 68.0753
ENERGY: 900000 1.3931 10.0994 6.9376 0.0000 -10788.5310 1568.8746 0.0000 0.0000 1782.0128 -7419.2134 303.7770 -9201.2262 -7473.8034 298.5407 959.7478 1037.9423 30293.9725 203.8797 275.8599
ENERGY: 1200000 2.2818 7.5950 5.0401 0.0000 -10849.7263 1493.1159 0.0000 0.0000 1702.4074 -7639.2860 290.2068 -9341.6935 -7481.9135 298.9090 -6.3936 98.5270 30267.2769 129.8529 199.7138
ENERGY: 1500000 0.7131 6.4381 4.7742 0.0000 -10646.2877 1430.7990 0.0000 0.0000 1735.0813 -7468.4821 295.7766 -9203.5633 -7476.0209 299.3625 87.1166 132.9616 30296.1179 64.3336 138.1253
TCL: Running FEP window  17: Lambda1 0.19999999999999968 Lambda2 0.1499999999999997 [dLambda -0.04999999999999999]
TCL: Setting parameter firsttimestep to 0
TCL: Setting parameter alchLambda to 0.19999999999999968
Info: NONBONDED TABLE R-SQUARED SPACING: 0.0625
Info: NONBONDED TABLE SIZE: 705 POINTS
TCL: Setting parameter alchLambda2 to 0.1499999999999997
Info: NONBONDED TABLE R-SQUARED SPACING: 0.0625
Info: NONBONDED TABLE SIZE: 705 POINTS
TCL: Running for 1500000 steps
ETITLE: TS BOND ANGLE DIHED IMPRP ELECT VDW BOUNDARY MISC KINETIC TOTAL TEMP POTENTIAL TOTALAVG TEMPAVG PRESSURE GPRESSURE VOLUME PRESSAVG GPRESSAVG
ENERGY: 0 0.7131 6.4381 4.7742 0.0000 -10646.2885 1430.7232 0.0000 0.0000 1734.2208 -7469.4192 295.6299 -9203.6400 -7469.4192 295.6299 45.3521 126.6899 30296.1179 45.3521 126.6899
ENERGY: 300000 1.9047 12.6593 8.1770 0.0000 -10541.6495 1374.4108 0.0000 0.0000 1753.2816 -7391.2161 298.8792 -9144.4976 -7452.6491 299.7038 -167.1785 -132.2080 30076.5292 79.1614 129.2108
ENERGY: 600000 3.6349 10.1488 5.6963 0.0000 -10661.8370 1432.4037 0.0000 0.0000 1790.2446 -7419.7088 305.1802 -9209.9534 -7448.5016 300.8697 342.1183 353.0199 29862.3748 140.6947 184.3661
ENERGY: 900000 3.1074 9.7524 6.1610 0.0000 -10780.1520 1496.7702 0.0000 0.0000 1761.7304 -7502.6306 300.3195 -9264.3610 -7462.1671 300.4114 624.2888 710.6609 29625.5265 143.5024 202.2402
ENERGY: 1200000 1.4556 10.0975 7.2207 0.0000 -10740.5293 1484.8032 0.0000 0.0000 1750.1535 -7486.7988 298.3460 -9236.9523 -7463.3498 300.6439 410.0969 377.1739 30319.8069 174.2092 226.4286
ENERGY: 1500000 4.5621 10.5799 6.6511 0.0000 -10733.3656 1435.6510 0.0000 0.0000 1728.6690 -7547.2526 294.6835 -9275.9216 -7478.2219 300.1701 -266.2380 -182.4244 30258.0009 70.0728 127.4308
TCL: Running FEP window  18: Lambda1 0.1499999999999997 Lambda2 0.09999999999999969 [dLambda -0.05 ]
TCL: Setting parameter firsttimestep to 0
TCL: Setting parameter alchLambda to 0.1499999999999997
Info: NONBONDED TABLE R-SQUARED SPACING: 0.0625
Info: NONBONDED TABLE SIZE: 705 POINTS
TCL: Setting parameter alchLambda2 to 0.09999999999999969
Info: NONBONDED TABLE R-SQUARED SPACING: 0.0625
Info: NONBONDED TABLE SIZE: 705 POINTS
TCL: Running for 1500000 steps
ETITLE: TS BOND ANGLE DIHED IMPRP ELECT VDW BOUNDARY MISC KINETIC TOTAL TEMP POTENTIAL TOTALAVG TEMPAVG PRESSURE GPRESSURE VOLUME PRESSAVG GPRESSAVG
ENERGY: 0 4.5621 10.5799 6.6511 0.0000 -10733.3659 1435.4228 0.0000 0.0000 1727.7800 -7548.3701 294.5320 -9276.1501 -7548.3701 294.5320 -275.2130 -188.5335 30258.0009 -275.2130 -188.5335
ENERGY: 300000 0.7221 8.7970 6.9072 0.0000 -10731.1784 1449.1543 0.0000 0.0000 1741.6693 -7523.9284 296.8997 -9265.5977 -7534.8354 296.1141 -42.1586 -20.3690 30296.5598 -81.2395 -34.4456
ENERGY: 600000 2.9355 9.9746 7.3364 0.0000 -10724.2021 1415.4191 0.0000 0.0000 1718.8667 -7569.6699 293.0126 -9288.5366 -7537.8379 296.3039 -333.4562 -268.6752 30067.2581 -344.9312 -279.0108
ENERGY: 900000 1.2391 11.9055 7.2305 0.0000 -10601.2258 1333.4219 0.0000 0.0000 1699.9077 -7547.5210 289.7806 -9247.4287 -7521.4768 296.3101 -877.4153 -773.6544 30130.2954 -292.3286 -217.6130
ENERGY: 1200000 4.0473 9.3579 5.9989 0.0000 -10590.2315 1398.2633 0.0000 0.0000 1791.2689 -7381.2952 305.3549 -9172.5642 -7499.5057 297.0602 -384.0416 -281.5625 30397.2526 -232.1035 -157.7655
ENERGY: 1500000 2.3469 8.5815 6.1293 0.0000 -10793.0213 1522.4161 0.0000 0.0000 1734.2416 -7519.3059 295.6335 -9253.5474 -7487.2983 298.8175 411.9959 469.5403 30350.2858 -159.7977 -85.8417
TCL: Running FEP window  19: Lambda1 0.09999999999999969 Lambda2 0.049999999999999684 [dLambda -0.05 ]
TCL: Setting parameter firsttimestep to 0
TCL: Setting parameter alchLambda to 0.09999999999999969
Info: NONBONDED TABLE R-SQUARED SPACING: 0.0625
Info: NONBONDED TABLE SIZE: 705 POINTS
TCL: Setting parameter alchLambda2 to 0.049999999999999684
Info: NONBONDED TABLE R-SQUARED SPACING: 0.0625
Info: NONBONDED TABLE SIZE: 705 POINTS
TCL: Running for 1500000 steps
ETITLE: TS BOND ANGLE DIHED IMPRP ELECT VDW BOUNDARY MISC KINETIC TOTAL TEMP POTENTIAL TOTALAVG TEMPAVG PRESSURE GPRESSURE VOLUME PRESSAVG GPRESSAVG
ENERGY: 0 2.3469 8.5815 6.1293 0.0000 -10793.0218 1521.3848 0.0000 0.0000 1733.3514 -7521.2279 295.4817 -9254.5792 -7521.2279 295.4817 377.3232 460.6290 30350.2858 377.3232 460.6290
ENERGY: 300000 1.6696 7.1684 6.4488 0.0000 -10567.6682 1329.1948 0.0000 0.0000 1773.7751 -7449.4116 302.3727 -9223.1867 -7488.6701 296.4235 -1107.8818 -998.3741 30455.9803 -342.8697 -258.5040
ENERGY: 600000 2.1997 7.9691 7.3069 0.0000 -10525.6590 1329.5711 0.0000 0.0000 1798.8505 -7379.7617 306.6473 -9178.6122 -7479.8895 301.0097 -778.5716 -671.1752 30229.4663 -233.7252 -150.2918
ENERGY: 900000 1.0029 9.3682 6.6819 0.0000 -10737.1609 1416.7138 0.0000 0.0000 1782.8797 -7520.5144 303.9248 -9303.3942 -7484.7910 300.3852 -319.6911 -286.2246 29983.7496 -117.0988 -48.8750
ENERGY: 1200000 1.3563 12.6755 7.7733 0.0000 -10586.2182 1437.1782 0.0000 0.0000 1790.9529 -7336.2821 305.3010 -9127.2349 -7480.4832 300.4909 26.9808 71.5102 30535.4274 -129.5463 -61.5660
ENERGY: 1500000 3.8908 13.6186 7.1317 0.0000 -10803.4030 1471.9289 0.0000 0.0000 1757.6690 -7549.1641 299.6271 -9306.8331 -7477.1352 300.8263 -272.3951 -170.4352 30093.5677 -215.3233 -141.5162
TCL: Running FEP window  20: Lambda1 0.049999999999999684 Lambda2 0.0    [dLambda -0.049999999999999684]
TCL: Setting parameter firsttimestep to 0
TCL: Setting parameter alchLambda to 0.049999999999999684
Info: NONBONDED TABLE R-SQUARED SPACING: 0.0625
Info: NONBONDED TABLE SIZE: 705 POINTS
TCL: Setting parameter alchLambda2 to 0.0
Info: NONBONDED TABLE R-SQUARED SPACING: 0.0625
Info: NONBONDED TABLE SIZE: 705 POINTS
TCL: Running for 1500000 steps
ETITLE: TS BOND ANGLE DIHED IMPRP ELECT VDW BOUNDARY MISC KINETIC TOTAL TEMP POTENTIAL TOTALAVG TEMPAVG PRESSURE GPRESSURE VOLUME PRESSAVG GPRESSAVG
ENERGY: 0 3.8908 13.6186 7.1317 0.0000 -10803.4045 1471.3879 0.0000 0.0000 1756.7507 -7550.6248 299.4706 -9307.3755 -7550.6248 299.4706 -261.4812 -174.7415 30093.5677 -261.4812 -174.7415
ENERGY: 300000 2.1510 10.0669 8.6395 0.0000 -10714.7811 1473.9881 0.0000 0.0000 1726.0626 -7493.8730 294.2392 -9219.9355 -7500.8084 299.4491 388.3132 455.3202 29921.9634 221.2490 277.6066
ENERGY: 600000 1.7709 6.4218 6.8894 0.0000 -10760.4764 1505.9833 0.0000 0.0000 1761.7718 -7477.6391 300.3265 -9239.4110 -7503.3615 298.9252 252.3915 310.8822 30504.3420 133.0735 197.8696
ENERGY: 900000 1.6630 6.5131 6.7115 0.0000 -10694.7568 1465.2040 0.0000 0.0000 1699.8707 -7514.7945 289.7743 -9214.6652 -7506.6571 297.4897 138.4908 227.8737 30303.0174 94.1308 161.2669
ENERGY: 1200000 1.3574 5.2848 6.6717 0.0000 -10685.6608 1473.6790 0.0000 0.0000 1795.5906 -7403.0772 306.0916 -9198.6679 -7491.0634 298.7709 299.8601 368.6746 30338.9861 74.1138 138.3512
ENERGY: 1500000 3.6881 4.9982 6.9845 0.0000 -10589.7818 1375.3271 0.0000 0.0000 1796.3473 -7402.4367 306.2205 -9198.7839 -7478.5088 299.6651 -673.0986 -629.7284 30603.5729 63.9258 121.7122
TCL: Exiting due to exit command.
