Info: SIMULATION PARAMETERS:
Info: TIMESTEP               2
Info: NUMBER OF STEPS        0
Info: STEPS PER CYCLE        10
Info: PERIODIC CELL BASIS 1  31.4293 0 0
Info: PERIODIC CELL BASIS 2  0 31.2321 0
Info: PERIODIC CELL BASIS 3  0 0 30.2727
Info: PERIODIC CELL CENTER   0 0 0
Info: WRAPPING WATERS AROUND PERIODIC BOUNDARIES ON OUTPUT.
Info: WRAPPING ALL CLUSTERS AROUND PERIODIC BOUNDARIES ON OUTPUT.
Info: FIRST LDB TIMESTEP     50
Info: LAST LDB TIMESTEP     -1
Info: HOM BACKGROUND SCALING 1
Info: PME BACKGROUND SCALING 1
Info: MIN ATOMS PER PATCH    40
Info: EMPTY PATCH LOAD       40 ATOMS
Info: VELOCITY FILE          mobley_5286200_equil.vel
Info: CENTER OF MASS MOVING INITIALLY? NO
Info: DIELECTRIC             1
Info: EXCLUDE                SCALED ONE-FOUR
Info: 1-4 ELECTROSTATICS SCALED BY 0.833333
Info: MODIFIED 1-4 VDW PARAMETERS WILL BE USED
Info: DCD FILENAME           mobley_5286200_prod.dcd
Info: DCD FREQUENCY          100000
Info: DCD FIRST STEP         100000
Info: DCD FILE WILL CONTAIN UNIT CELL DATA
Info: XST FILENAME           mobley_5286200_prod.xst
Info: XST FREQUENCY          100000
Info: NO VELOCITY DCD OUTPUT
Info: NO FORCE DCD OUTPUT
Info: OUTPUT FILENAME        mobley_5286200_prod
Info: BINARY OUTPUT FILES WILL BE USED
Info: RESTART FILENAME       mobley_5286200_prod.restart
Info: RESTART FREQUENCY      100000
Info: BINARY RESTART FILES WILL BE USED
Info: CUTOFF                 9
Info: PAIRLIST DISTANCE      11
Info: PAIRLIST SHRINK RATE   0.01
Info: PAIRLIST GROW RATE     0.01
Info: PAIRLIST TRIGGER       0.3
Info: PAIRLISTS PER CYCLE    2
Info: PAIRLISTS ENABLED
Info: MARGIN                 2
Info: HYDROGEN GROUP CUTOFF  2.5
Info: PATCH DIMENSION        15.5
Info: ENERGY OUTPUT STEPS    100000
Info: ENERGY EVALUATION STEPS    100000
Info: OUTPUT ENERGY PRECISION 4
Info: CROSSTERM ENERGY INCLUDED IN DIHEDRAL
Info: TIMING OUTPUT STEPS    1000000
Info: PRESSURE OUTPUT STEPS  100000
Info: ALCHEMICAL FEP ON
Info: FEP CURRENT LAMBDA VALUE     0
Info: FEP COMPARISON LAMBDA VALUE  0.05
Info: FEP INTRA-ALCHEMICAL NON-BONDED INTERACTIONS WILL BE RETAINED
Info: FEP INTRA-ALCHEMICAL BONDED INTERACTIONS WILL BE RETAINED
Info: FEP VDW SHIFTING COEFFICIENT 5
Info: FEP ELEC. ACTIVE FOR ANNIHILATED PARTICLES BETWEEN LAMBDA = 0 AND LAMBDA = 0.5
Info: FEP ELEC. ACTIVE FOR EXNIHILATED PARTICLES BETWEEN LAMBDA = 0.5 AND LAMBDA = 1
Info: FEP VDW ACTIVE FOR ANNIHILATED PARTICLES BETWEEN LAMBDA = 0 AND LAMBDA = 1
Info: FEP VDW ACTIVE FOR EXNIHILATED PARTICLES BETWEEN LAMBDA = 0 AND LAMBDA = 1
Info: FEP BOND ACTIVE FOR ANNIHILATED PARTICLES BETWEEN LAMBDA = 1 AND LAMBDA = 1
Info: FEP BOND ACTIVE FOR EXNIHILATED PARTICLES BETWEEN LAMBDA = 0 AND LAMBDA = 0
Info: LANGEVIN DYNAMICS ACTIVE
Info: LANGEVIN TEMPERATURE   300
Info: LANGEVIN USING BBK INTEGRATOR
Info: LANGEVIN DAMPING COEFFICIENT IS 1 INVERSE PS
Info: LANGEVIN DYNAMICS APPLIED TO HYDROGENS
Info: LANGEVIN PISTON PRESSURE CONTROL ACTIVE
Info:        TARGET PRESSURE IS 1.01325 BAR
Info:     OSCILLATION PERIOD IS 50 FS
Info:             DECAY TIME IS 25 FS
Info:     PISTON TEMPERATURE IS 300 K
Info:       PRESSURE CONTROL IS GROUP-BASED
Info:    INITIAL STRAIN RATE IS -0.000360865 -0.000360865 -0.000360865
Info:       CELL FLUCTUATION IS ISOTROPIC
Info: PARTICLE MESH EWALD (PME) ACTIVE
Info: PME TOLERANCE               1e-06
Info: PME EWALD COEFFICIENT       0.348832
Info: PME INTERPOLATION ORDER     4
Info: PME GRID DIMENSIONS         32 32 32
Info: PME MAXIMUM GRID SPACING    1
Info: PME CALCULATION WILL BE PERFORMED ON GPU
Info: FULL ELECTROSTATIC EVALUATION FREQUENCY      2
Info: USING VERLET I (r-RESPA) MTS SCHEME.
Info: C1 SPLITTING OF LONG RANGE ELECTROSTATICS
Info: PLACING ATOMS IN PATCHES BY HYDROGEN GROUPS
Info: RIGID BONDS TO HYDROGEN : ALL
Info:         ERROR TOLERANCE : 1e-08
Info:          MAX ITERATIONS : 100
Info: RIGID WATER USING SETTLE ALGORITHM
Info: RANDOM NUMBER SEED     1743899262
Info: USE HYDROGEN BONDS?    NO
Info: Using AMBER format force field!
Info: AMBER PARM FILE        mobley_5286200.prmtop
Info: COORDINATE PDB         mobley_5286200.pdb
Info: Exclusions will be read from PARM file!
Info: SCNB (VDW SCALING)     2
Info: USING ARITHMETIC MEAN TO COMBINE L-J SIGMA PARAMETERS
Info: BINARY COORDINATES     mobley_5286200_equil.coor
Info: SUMMARY OF PARAMETERS:
Info: 6 BONDS
Info: 7 ANGLES
Info:   7 HARMONIC
Info:   0 COSINE-BASED
Info: 8 DIHEDRAL
Info: 0 IMPROPER
Info: 0 CROSSTERM
Info: 0 VDW
Info: 21 VDW_PAIRS
Info: 0 NBTHOLE_PAIRS
Info: To read alchdata from file: mobley_5286200.pdb
Info: To read alchflag data from column: 5
Info: STRUCTURE SUMMARY:
Info: 2903 ATOMS
Info: 2902 BONDS
Info: 24 ANGLES
Info: 33 DIHEDRALS
Info: 0 IMPROPERS
Info: 0 CROSSTERMS
Info: 2953 EXCLUSIONS
Info: 2897 RIGID BONDS
Info: ALCH: 0 ATOMS TO DISAPPEAR IN FINAL STATE
Info: ALCH: 14 ATOMS TO APPEAR IN FINAL STATE
Info: 5812 DEGREES OF FREEDOM
Info: 969 HYDROGEN GROUPS
Info: 3 ATOMS IN LARGEST HYDROGEN GROUP
Info: 969 MIGRATION GROUPS
Info: 3 ATOMS IN LARGEST MIGRATION GROUP
Info: TOTAL MASS = 17476.4 amu
Info: TOTAL CHARGE = 0.00029999 e
Info: MASS DENSITY = 0.976616 g/cm^3
Info: ATOM DENSITY = 0.0976921 atoms/A^3
Info: ADDED 0 IMPLICIT EXCLUSIONS
Info: NONBONDED TABLE R-SQUARED SPACING: 0.0625
Info: NONBONDED TABLE SIZE: 705 POINTS
Info: REDUCING NUMBER OF PATCHES TO IMPROVE LOAD BALANCE
Info: REMOVING COM VELOCITY -0.0851773 0.0463827 -0.130225
Info: Use 3D box decompostion in PME FFT.
Info: Updated CUDA force table with 4096 elements.
Info: Updated CUDA LJ table with 6 x 6 elements.
Info: Found 17 unique exclusion lists needing 40 bytes
TCL: Running for 1500000 steps
ETITLE: TS BOND ANGLE DIHED IMPRP ELECT VDW BOUNDARY MISC KINETIC TOTAL TEMP POTENTIAL TOTALAVG TEMPAVG PRESSURE GPRESSURE VOLUME PRESSAVG GPRESSAVG
ENERGY: 0 0.6360 5.1041 2.7224 0.0000 -10524.8117 1453.3303 0.0000 0.0000 1705.1550 -7357.8640 295.2763 -9063.0189 -7357.8640 295.2763 501.4069 591.8780 29715.8130 501.4069 591.8780
ENERGY: 300000 1.6663 6.2987 2.5415 0.0000 -10468.9354 1428.6784 0.0000 0.0000 1736.4615 -7293.2890 300.6976 -9029.7505 -7338.9689 302.1950 256.2771 331.5212 29697.3697 209.1254 271.4600
ENERGY: 600000 0.4475 8.0616 2.0351 0.0000 -10371.5330 1340.7943 0.0000 0.0000 1758.8340 -7261.3605 304.5718 -9020.1945 -7329.6865 301.5289 -405.1281 -301.0808 29890.4877 96.0995 165.4325
ENERGY: 900000 1.1080 6.3549 2.0756 0.0000 -10564.8068 1453.7622 0.0000 0.0000 1709.2263 -7392.2799 295.9813 -9101.5062 -7330.6089 300.8658 274.3157 366.2260 29490.2031 49.3687 115.5175
ENERGY: 1200000 2.0371 10.4036 2.3098 0.0000 -10557.5457 1427.3590 0.0000 0.0000 1717.9360 -7397.5002 297.4896 -9115.4362 -7334.3669 300.5166 -190.4084 -181.3298 30112.8795 22.1758 81.0074
ENERGY: 1500000 0.4155 7.4720 3.8655 0.0000 -10511.0117 1401.1988 0.0000 0.0000 1707.8147 -7390.2452 295.7369 -9098.0599 -7336.6477 299.4158 -448.8403 -437.1415 30448.3995 10.6774 64.8543
TCL: Running FEP window   2: Lambda1 0.05   Lambda2 0.1    [dLambda 0.05  ]
TCL: Setting parameter firsttimestep to 0
TCL: Setting parameter alchLambda to 0.05
Info: NONBONDED TABLE R-SQUARED SPACING: 0.0625
Info: NONBONDED TABLE SIZE: 705 POINTS
TCL: Setting parameter alchLambda2 to 0.1
Info: NONBONDED TABLE R-SQUARED SPACING: 0.0625
Info: NONBONDED TABLE SIZE: 705 POINTS
TCL: Running for 1500000 steps
ETITLE: TS BOND ANGLE DIHED IMPRP ELECT VDW BOUNDARY MISC KINETIC TOTAL TEMP POTENTIAL TOTALAVG TEMPAVG PRESSURE GPRESSURE VOLUME PRESSAVG GPRESSAVG
ENERGY: 0 0.4155 7.4720 3.8655 0.0000 -10511.0116 1405.1053 0.0000 0.0000 1706.9483 -7387.2050 295.5869 -9094.1534 -7387.2050 295.5869 -504.9945 -431.3737 30448.3995 -504.9945 -431.3737
ENERGY: 300000 1.8352 6.2880 2.5663 0.0000 -10603.7336 1455.9604 0.0000 0.0000 1773.5893 -7363.4944 307.1269 -9137.0837 -7360.7493 304.5361 -102.0981 3.9275 30162.8268 -533.6898 -478.8740
ENERGY: 600000 2.4254 4.6474 1.8780 0.0000 -10580.4464 1428.4104 0.0000 0.0000 1743.3709 -7399.7142 301.8941 -9143.0851 -7375.1875 302.7262 -82.3084 -10.9542 29673.3655 -268.5823 -207.1502
ENERGY: 900000 0.7772 3.3018 1.6713 0.0000 -10512.5133 1467.2516 0.0000 0.0000 1690.1010 -7349.4105 292.6695 -9039.5114 -7388.8169 300.3429 484.1687 492.3542 29904.4861 -85.0237 -31.5248
ENERGY: 1200000 1.8541 7.0155 1.8347 0.0000 -10618.3032 1473.3733 0.0000 0.0000 1770.8019 -7363.4237 306.6442 -9134.2256 -7385.1541 301.3702 445.1549 499.8578 29588.0332 -59.4737 -4.4777
ENERGY: 1500000 0.7264 5.0574 1.4482 0.0000 -10435.4102 1426.4925 0.0000 0.0000 1765.3819 -7236.3037 305.7056 -9001.6856 -7376.9754 301.3516 325.1973 291.9132 29695.1578 -53.1020 -1.7821
TCL: Running FEP window   3: Lambda1 0.1    Lambda2 0.15000000000000002 [dLambda 0.05000000000000002]
TCL: Setting parameter firsttimestep to 0
TCL: Setting parameter alchLambda to 0.1
Info: NONBONDED TABLE R-SQUARED SPACING: 0.0625
Info: NONBONDED TABLE SIZE: 705 POINTS
TCL: Setting parameter alchLambda2 to 0.15000000000000002
Info: NONBONDED TABLE R-SQUARED SPACING: 0.0625
Info: NONBONDED TABLE SIZE: 705 POINTS
TCL: Running for 1500000 steps
ETITLE: TS BOND ANGLE DIHED IMPRP ELECT VDW BOUNDARY MISC KINETIC TOTAL TEMP POTENTIAL TOTALAVG TEMPAVG PRESSURE GPRESSURE VOLUME PRESSAVG GPRESSAVG
ENERGY: 0 0.7264 5.0574 1.4482 0.0000 -10435.4106 1426.0955 0.0000 0.0000 1764.5097 -7237.5732 305.5546 -9002.0830 -7237.5732 305.5546 192.3200 291.3544 29695.1578 192.3200 291.3544
ENERGY: 300000 2.6158 6.9276 4.2738 0.0000 -10570.3943 1420.7167 0.0000 0.0000 1781.5744 -7354.2860 308.5096 -9135.8605 -7305.7410 305.2326 -357.4891 -283.7254 29983.9987 -470.2610 -408.2564
ENERGY: 600000 0.4983 5.9385 2.0118 0.0000 -10586.2813 1435.8113 0.0000 0.0000 1710.8083 -7431.2132 296.2553 -9142.0215 -7334.2186 303.5165 -76.5664 14.3728 29927.7027 -166.1254 -106.9258
ENERGY: 900000 1.2555 8.7643 2.1025 0.0000 -10414.7881 1346.0130 0.0000 0.0000 1710.9737 -7345.6790 296.2839 -9056.6527 -7329.0492 302.6397 -192.4668 -214.8768 29657.0461 -132.8193 -81.5420
ENERGY: 1200000 0.8281 3.3321 3.6861 0.0000 -10532.6399 1415.4304 0.0000 0.0000 1684.6467 -7424.7165 291.7250 -9109.3632 -7343.5609 301.1841 -79.4139 -44.8056 29789.5685 -148.7488 -101.7364
ENERGY: 1500000 2.0901 3.4538 3.0224 0.0000 -10576.2765 1455.3921 0.0000 0.0000 1728.8587 -7383.4594 299.3810 -9112.3182 -7341.5923 302.5565 358.0440 466.8220 29509.9393 -93.1534 -42.8281
TCL: Running FEP window   4: Lambda1 0.15000000000000002 Lambda2 0.2    [dLambda 0.04999999999999999]
TCL: Setting parameter firsttimestep to 0
TCL: Setting parameter alchLambda to 0.15000000000000002
Info: NONBONDED TABLE R-SQUARED SPACING: 0.0625
Info: NONBONDED TABLE SIZE: 705 POINTS
TCL: Setting parameter alchLambda2 to 0.2
Info: NONBONDED TABLE R-SQUARED SPACING: 0.0625
Info: NONBONDED TABLE SIZE: 705 POINTS
TCL: Running for 1500000 steps
ETITLE: TS BOND ANGLE DIHED IMPRP ELECT VDW BOUNDARY MISC KINETIC TOTAL TEMP POTENTIAL TOTALAVG TEMPAVG PRESSURE GPRESSURE VOLUME PRESSAVG GPRESSAVG
ENERGY: 0 2.0901 3.4538 3.0224 0.0000 -10576.2773 1457.0893 0.0000 0.0000 1728.0123 -7382.6093 299.2345 -9110.6217 -7382.6093 299.2345 376.5336 478.8023 29509.9393 376.5336 478.8023
ENERGY: 300000 3.0418 6.2241 3.0231 0.0000 -10296.6873 1308.6136 0.0000 0.0000 1753.4689 -7222.3159 303.6427 -8975.7848 -7305.2255 300.9405 -648.0826 -579.5290 30135.1527 -32.9682 61.7352
ENERGY: 600000 0.7141 5.9634 1.9218 0.0000 -10491.4629 1404.0997 0.0000 0.0000 1767.8152 -7310.9487 306.1270 -9078.7639 -7341.3793 301.4108 -200.6897 -107.7717 29964.9128 -141.2931 -69.9231
ENERGY: 900000 2.2908 4.8128 1.3282 0.0000 -10483.5359 1400.7372 0.0000 0.0000 1717.3466 -7357.0204 297.3875 -9074.3669 -7353.4624 299.8293 -37.4439 47.7968 29617.9226 -76.9889 -7.7704
ENERGY: 1200000 1.9359 8.7285 1.4640 0.0000 -10422.4702 1419.4426 0.0000 0.0000 1754.1763 -7236.7228 303.7652 -8990.8992 -7340.8348 300.8590 63.3906 153.3316 30312.2947 -96.2954 -24.9599
ENERGY: 1500000 1.6105 5.8959 2.9502 0.0000 -10513.4156 1446.1858 0.0000 0.0000 1764.6361 -7292.1369 305.5765 -9056.7730 -7331.1975 301.2061 284.2568 369.7489 29726.4822 -66.3661 4.8826
TCL: Running FEP window   5: Lambda1 0.2    Lambda2 0.25   [dLambda 0.04999999999999999]
TCL: Setting parameter firsttimestep to 0
TCL: Setting parameter alchLambda to 0.2
Info: NONBONDED TABLE R-SQUARED SPACING: 0.0625
Info: NONBONDED TABLE SIZE: 705 POINTS
TCL: Setting parameter alchLambda2 to 0.25
Info: NONBONDED TABLE R-SQUARED SPACING: 0.0625
Info: NONBONDED TABLE SIZE: 705 POINTS
TCL: Running for 1500000 steps
ETITLE: TS BOND ANGLE DIHED IMPRP ELECT VDW BOUNDARY MISC KINETIC TOTAL TEMP POTENTIAL TOTALAVG TEMPAVG PRESSURE GPRESSURE VOLUME PRESSAVG GPRESSAVG
ENERGY: 0 1.6105 5.8959 2.9502 0.0000 -10513.4154 1447.2357 0.0000 0.0000 1763.7538 -7291.9692 305.4237 -9055.7230 -7291.9692 305.4237 284.4556 382.5338 29726.4822 284.4556 382.5338
ENERGY: 300000 1.0393 6.0731 2.2858 0.0000 -10585.5422 1425.7298 0.0000 0.0000 1719.0025 -7431.4117 297.6743 -9150.4142 -7376.8023 297.8898 -94.5549 -29.7264 29420.9077 222.5675 293.0597
ENERGY: 600000 2.2226 8.6585 1.5732 0.0000 -10611.4120 1498.5791 0.0000 0.0000 1687.2491 -7413.1295 292.1756 -9100.3786 -7342.5603 299.6844 418.3376 508.7952 29631.7246 168.1795 230.4624
ENERGY: 900000 0.3524 5.4212 1.8619 0.0000 -10660.0843 1485.2731 0.0000 0.0000 1702.8954 -7464.2804 294.8850 -9167.1758 -7355.5354 300.9894 127.7505 138.8166 30029.0473 135.1256 191.9149
ENERGY: 1200000 0.2387 4.7494 1.5977 0.0000 -10292.6833 1315.5182 0.0000 0.0000 1741.3205 -7229.2588 301.5390 -8970.5793 -7352.1092 300.2979 -395.7418 -352.7341 29907.6223 138.1679 196.2997
ENERGY: 1500000 1.2546 5.8145 1.9547 0.0000 -10405.0837 1286.5058 0.0000 0.0000 1756.1780 -7353.3760 304.1118 -9109.5540 -7353.3873 300.2861 -1005.6341 -955.8647 29814.3088 19.2546 77.3046
TCL: Running FEP window   6: Lambda1 0.25   Lambda2 0.3    [dLambda 0.04999999999999999]
TCL: Setting parameter firsttimestep to 0
TCL: Setting parameter alchLambda to 0.25
Info: NONBONDED TABLE R-SQUARED SPACING: 0.0625
Info: NONBONDED TABLE SIZE: 705 POINTS
TCL: Setting parameter alchLambda2 to 0.3
Info: NONBONDED TABLE R-SQUARED SPACING: 0.0625
Info: NONBONDED TABLE SIZE: 705 POINTS
TCL: Running for 1500000 steps
ETITLE: TS BOND ANGLE DIHED IMPRP ELECT VDW BOUNDARY MISC KINETIC TOTAL TEMP POTENTIAL TOTALAVG TEMPAVG PRESSURE GPRESSURE VOLUME PRESSAVG GPRESSAVG
ENERGY: 0 1.2546 5.8145 1.9547 0.0000 -10405.0843 1286.5488 0.0000 0.0000 1755.3387 -7354.1730 303.9665 -9109.5117 -7354.1730 303.9665 -1043.1586 -948.4303 29814.3088 -1043.1586 -948.4303
ENERGY: 300000 4.0728 7.0351 2.1903 0.0000 -10429.6386 1366.5228 0.0000 0.0000 1753.3083 -7296.5093 303.6149 -9049.8176 -7332.6433 300.0992 -491.4495 -397.0071 30023.5405 -296.5265 -218.6503
ENERGY: 600000 0.8846 5.8953 2.1512 0.0000 -10637.4142 1444.8030 0.0000 0.0000 1785.8965 -7397.7837 309.2581 -9183.6802 -7342.2578 301.7570 13.7087 81.0631 29626.1099 -106.6760 -21.9345
ENERGY: 900000 1.7732 3.2484 3.3304 0.0000 -10403.5927 1293.7547 0.0000 0.0000 1745.9760 -7355.5100 302.3452 -9101.4859 -7345.2905 301.1477 -995.8690 -908.9318 29942.3661 -230.4333 -139.7015
ENERGY: 1200000 1.3275 6.2810 2.9187 0.0000 -10583.8873 1420.6228 0.0000 0.0000 1720.5013 -7432.2361 297.9338 -9152.7374 -7359.5276 300.0923 -75.3125 10.4485 29627.2118 -189.1955 -105.6369
ENERGY: 1500000 0.5907 5.0658 1.8367 0.0000 -10563.3937 1477.0348 0.0000 0.0000 1752.8622 -7326.0035 303.5376 -9078.8656 -7355.5426 300.7563 737.7188 787.8467 29534.0200 -135.1100 -54.3051
TCL: Running FEP window   7: Lambda1 0.3    Lambda2 0.35   [dLambda 0.04999999999999999]
TCL: Setting parameter firsttimestep to 0
TCL: Setting parameter alchLambda to 0.3
Info: NONBONDED TABLE R-SQUARED SPACING: 0.0625
Info: NONBONDED TABLE SIZE: 705 POINTS
TCL: Setting parameter alchLambda2 to 0.35
Info: NONBONDED TABLE R-SQUARED SPACING: 0.0625
Info: NONBONDED TABLE SIZE: 705 POINTS
TCL: Running for 1500000 steps
ETITLE: TS BOND ANGLE DIHED IMPRP ELECT VDW BOUNDARY MISC KINETIC TOTAL TEMP POTENTIAL TOTALAVG TEMPAVG PRESSURE GPRESSURE VOLUME PRESSAVG GPRESSAVG
ENERGY: 0 0.5907 5.0658 1.8367 0.0000 -10563.3939 1477.2532 0.0000 0.0000 1752.0006 -7326.6468 303.3884 -9078.6474 -7326.6468 303.3884 721.5133 795.4795 29534.0200 721.5133 795.4795
ENERGY: 300000 3.9174 6.4780 1.6869 0.0000 -10336.1274 1283.7938 0.0000 0.0000 1742.0216 -7298.2298 301.6604 -9040.2513 -7302.5671 301.8295 -1004.3385 -902.6075 29951.0883 32.8648 111.4542
ENERGY: 600000 2.7274 8.7774 2.0713 0.0000 -10580.4903 1443.3681 0.0000 0.0000 1773.0323 -7350.5138 307.0304 -9123.5461 -7305.5128 302.3909 122.0345 212.3154 29771.1510 205.6985 276.6817
ENERGY: 900000 4.0669 5.3379 5.1091 0.0000 -10364.3130 1368.8466 0.0000 0.0000 1789.0889 -7191.8636 309.8109 -8980.9524 -7307.3846 303.1298 -201.6767 -133.7218 30028.0043 107.2787 163.9725
ENERGY: 1200000 2.8788 8.4794 3.0311 0.0000 -10579.7428 1415.2001 0.0000 0.0000 1743.5945 -7406.5589 301.9328 -9150.1535 -7334.9152 301.8277 -542.2479 -482.8397 30403.6330 124.5426 183.4148
ENERGY: 1500000 2.3846 9.1060 1.7463 0.0000 -10361.9406 1305.9121 0.0000 0.0000 1714.0753 -7328.7164 296.8210 -9042.7917 -7336.5209 301.4800 -988.7937 -853.8498 29928.3563 -17.9903 47.0542
TCL: Running FEP window   8: Lambda1 0.35   Lambda2 0.39999999999999997 [dLambda 0.04999999999999999]
TCL: Setting parameter firsttimestep to 0
TCL: Setting parameter alchLambda to 0.35
Info: NONBONDED TABLE R-SQUARED SPACING: 0.0625
Info: NONBONDED TABLE SIZE: 705 POINTS
TCL: Setting parameter alchLambda2 to 0.39999999999999997
Info: NONBONDED TABLE R-SQUARED SPACING: 0.0625
Info: NONBONDED TABLE SIZE: 705 POINTS
TCL: Running for 1500000 steps
ETITLE: TS BOND ANGLE DIHED IMPRP ELECT VDW BOUNDARY MISC KINETIC TOTAL TEMP POTENTIAL TOTALAVG TEMPAVG PRESSURE GPRESSURE VOLUME PRESSAVG GPRESSAVG
ENERGY: 0 2.3846 9.1060 1.7463 0.0000 -10361.9398 1306.6029 0.0000 0.0000 1713.2155 -7328.8846 296.6722 -9042.1001 -7328.8846 296.6722 -945.6945 -845.1865 29928.3563 -945.6945 -845.1865
ENERGY: 300000 2.7787 6.3466 1.9417 0.0000 -10563.8471 1455.8351 0.0000 0.0000 1683.3823 -7413.5627 291.5060 -9096.9450 -7358.5287 295.9752 208.5628 305.6628 29667.4987 -286.9485 -184.1616
ENERGY: 600000 1.0193 7.5963 1.9010 0.0000 -10558.1446 1455.3930 0.0000 0.0000 1702.0990 -7390.1361 294.7471 -9092.2351 -7363.0219 296.6908 357.1518 418.7664 29683.2491 -63.2103 25.6369
ENERGY: 900000 0.8614 6.1959 2.7001 0.0000 -10384.2359 1362.4749 0.0000 0.0000 1763.1262 -7248.8774 305.3150 -9012.0036 -7365.6159 297.9582 -142.8973 -59.3270 29671.9282 -95.1079 -13.3555
ENERGY: 1200000 3.0248 7.0689 2.3229 0.0000 -10416.6998 1296.4321 0.0000 0.0000 1677.3153 -7430.5359 290.4554 -9107.8512 -7373.7221 297.9368 -1170.6998 -1121.6837 30263.9323 -266.1344 -193.7669
ENERGY: 1500000 1.2568 11.2722 2.0205 0.0000 -10588.0738 1504.9534 0.0000 0.0000 1720.4698 -7348.1011 297.9284 -9068.5710 -7368.5448 297.8205 753.9471 779.2871 29739.9873 -123.9583 -56.2598
TCL: Running FEP window   9: Lambda1 0.39999999999999997 Lambda2 0.44999999999999996 [dLambda 0.04999999999999999]
TCL: Setting parameter firsttimestep to 0
TCL: Setting parameter alchLambda to 0.39999999999999997
Info: NONBONDED TABLE R-SQUARED SPACING: 0.0625
Info: NONBONDED TABLE SIZE: 705 POINTS
TCL: Setting parameter alchLambda2 to 0.44999999999999996
Info: NONBONDED TABLE R-SQUARED SPACING: 0.0625
Info: NONBONDED TABLE SIZE: 705 POINTS
TCL: Running for 1500000 steps
ETITLE: TS BOND ANGLE DIHED IMPRP ELECT VDW BOUNDARY MISC KINETIC TOTAL TEMP POTENTIAL TOTALAVG TEMPAVG PRESSURE GPRESSURE VOLUME PRESSAVG GPRESSAVG
ENERGY: 0 1.2568 11.2722 2.0205 0.0000 -10588.0762 1504.7265 0.0000 0.0000 1719.6567 -7349.1435 297.7875 -9068.8002 -7349.1435 297.7875 700.1443 779.9786 29739.9873 700.1443 779.9786
ENERGY: 300000 0.5750 3.5686 4.0074 0.0000 -10505.6099 1396.5127 0.0000 0.0000 1741.1536 -7359.7925 301.5101 -9100.9461 -7355.7362 301.1982 -248.2066 -142.4110 29921.1132 -121.4070 -56.5751
ENERGY: 600000 2.9887 4.3691 3.1314 0.0000 -10656.9196 1466.3523 0.0000 0.0000 1801.6317 -7378.4465 311.9829 -9180.0781 -7359.6528 305.4508 90.5913 134.2839 29821.9909 -49.7961 20.2124
ENERGY: 900000 1.6113 3.1478 2.7241 0.0000 -10506.9900 1421.2910 0.0000 0.0000 1769.6883 -7308.5275 306.4514 -9078.2158 -7360.3803 304.4539 -33.6717 84.8720 29875.8824 45.1919 120.1704
ENERGY: 1200000 0.6035 7.1324 4.7171 0.0000 -10269.2203 1280.2124 0.0000 0.0000 1708.5848 -7267.9701 295.8703 -8976.5549 -7360.1017 303.0818 -578.5986 -527.4404 29539.2564 -69.5161 3.0295
ENERGY: 1500000 1.0381 5.7571 3.7727 0.0000 -10590.5260 1475.4403 0.0000 0.0000 1729.3341 -7375.1837 299.4633 -9104.5178 -7363.0487 302.3258 289.3089 361.7592 29787.0535 13.0762 79.8631
TCL: Running FEP window  10: Lambda1 0.44999999999999996 Lambda2 0.49999999999999994 [dLambda 0.04999999999999999]
TCL: Setting parameter firsttimestep to 0
TCL: Setting parameter alchLambda to 0.44999999999999996
Info: NONBONDED TABLE R-SQUARED SPACING: 0.0625
Info: NONBONDED TABLE SIZE: 705 POINTS
TCL: Setting parameter alchLambda2 to 0.49999999999999994
Info: NONBONDED TABLE R-SQUARED SPACING: 0.0625
Info: NONBONDED TABLE SIZE: 705 POINTS
TCL: Running for 1500000 steps
ETITLE: TS BOND ANGLE DIHED IMPRP ELECT VDW BOUNDARY MISC KINETIC TOTAL TEMP POTENTIAL TOTALAVG TEMPAVG PRESSURE GPRESSURE VOLUME PRESSAVG GPRESSAVG
ENERGY: 0 1.0381 5.7571 3.7727 0.0000 -10590.5253 1476.3695 0.0000 0.0000 1728.4785 -7375.1094 299.3152 -9103.5879 -7375.1094 299.3152 288.5586 373.6092 29787.0535 288.5586 373.6092
ENERGY: 300000 2.8953 6.4141 1.7083 0.0000 -10617.8145 1445.4114 0.0000 0.0000 1717.5995 -7443.7860 297.4313 -9161.3855 -7395.9887 298.0099 168.1959 185.6524 29732.9753 51.5328 121.9397
ENERGY: 600000 0.6994 4.8808 1.9271 0.0000 -10507.7977 1401.8439 0.0000 0.0000 1694.5927 -7403.8539 293.4473 -9098.4466 -7412.6492 297.9674 -56.1016 2.7152 29755.8361 48.6434 111.6894
ENERGY: 900000 2.0586 8.3249 1.8368 0.0000 -10460.6621 1415.1432 0.0000 0.0000 1733.4963 -7299.8023 300.1841 -9033.2986 -7396.0430 298.9138 93.4069 75.7210 29920.1771 82.6510 133.4826
ENERGY: 1200000 1.3525 4.6631 1.7977 0.0000 -10329.4660 1302.8268 0.0000 0.0000 1682.9219 -7335.9039 291.4263 -9018.8259 -7377.7543 299.3472 -601.5967 -566.0604 29976.1794 84.9085 140.4834
ENERGY: 1500000 0.9220 6.0999 2.0668 0.0000 -10559.5670 1433.2036 0.0000 0.0000 1797.2917 -7319.9829 311.2314 -9117.2746 -7375.6520 300.4132 72.9930 144.2773 29880.2231 117.6801 173.2069
TCL: Running FEP window  11: Lambda1 0.49999999999999994 Lambda2 0.5499999999999999 [dLambda 0.04999999999999999]
TCL: Setting parameter firsttimestep to 0
TCL: Setting parameter alchLambda to 0.49999999999999994
Info: NONBONDED TABLE R-SQUARED SPACING: 0.0625
Info: NONBONDED TABLE SIZE: 705 POINTS
TCL: Setting parameter alchLambda2 to 0.5499999999999999
Info: NONBONDED TABLE R-SQUARED SPACING: 0.0625
Info: NONBONDED TABLE SIZE: 705 POINTS
TCL: Running for 1500000 steps
ETITLE: TS BOND ANGLE DIHED IMPRP ELECT VDW BOUNDARY MISC KINETIC TOTAL TEMP POTENTIAL TOTALAVG TEMPAVG PRESSURE GPRESSURE VOLUME PRESSAVG GPRESSAVG
ENERGY: 0 0.9220 6.0999 2.0668 0.0000 -10559.5662 1433.1077 0.0000 0.0000 1796.4380 -7320.9317 311.0835 -9117.3698 -7320.9317 311.0835 57.1472 147.4680 29880.2231 57.1472 147.4680
ENERGY: 300000 0.5765 6.1348 1.9757 0.0000 -10400.3600 1318.1094 0.0000 0.0000 1809.8336 -7263.7300 313.4032 -9073.5636 -7309.2178 307.0822 -518.8389 -483.1662 29806.8474 -254.3919 -190.5579
ENERGY: 600000 0.6874 7.7637 2.2148 0.0000 -10542.1569 1427.1843 0.0000 0.0000 1727.5954 -7376.7115 299.1623 -9104.3068 -7314.7510 304.8074 413.1998 432.9499 29374.1056 -170.8999 -113.5614
ENERGY: 900000 1.3913 6.6244 2.1921 0.0000 -10409.0775 1420.2578 0.0000 0.0000 1768.3519 -7210.2600 306.2199 -8978.6119 -7303.8429 304.8566 156.8815 216.4419 30285.0929 -125.1911 -60.8514
ENERGY: 1200000 1.4113 5.4862 2.3864 0.0000 -10538.4290 1426.4445 0.0000 0.0000 1717.2023 -7385.4983 297.3625 -9102.7006 -7329.7496 302.2834 59.0338 69.5034 29853.9445 -56.9685 4.1329
ENERGY: 1500000 5.0559 6.3041 2.2323 0.0000 -10369.9023 1373.7573 0.0000 0.0000 1731.6168 -7250.9360 299.8586 -8982.5528 -7332.1369 301.6790 -292.8086 -192.3697 30272.9528 7.5552 72.4496
TCL: Running FEP window  12: Lambda1 0.5499999999999999 Lambda2 0.6    [dLambda 0.050000000000000044]
TCL: Setting parameter firsttimestep to 0
TCL: Setting parameter alchLambda to 0.5499999999999999
Info: NONBONDED TABLE R-SQUARED SPACING: 0.0625
Info: NONBONDED TABLE SIZE: 705 POINTS
TCL: Setting parameter alchLambda2 to 0.6
Info: NONBONDED TABLE R-SQUARED SPACING: 0.0625
Info: NONBONDED TABLE SIZE: 705 POINTS
TCL: Running for 1500000 steps
ETITLE: TS BOND ANGLE DIHED IMPRP ELECT VDW BOUNDARY MISC KINETIC TOTAL TEMP POTENTIAL TOTALAVG TEMPAVG PRESSURE GPRESSURE VOLUME PRESSAVG GPRESSAVG
ENERGY: 0 5.0559 6.3041 2.2323 0.0000 -10370.0803 1373.5208 0.0000 0.0000 1730.7734 -7252.1939 299.7126 -8982.9673 -7252.1939 299.7126 -290.7589 -189.5054 30272.9528 -290.7589 -189.5054
ENERGY: 300000 2.7577 7.4746 2.1879 0.0000 -10400.1915 1328.4279 0.0000 0.0000 1711.0484 -7348.2949 296.2969 -9059.3433 -7330.0977 300.1178 -680.5171 -628.9850 29797.3898 -36.3933 44.5101
ENERGY: 600000 0.2640 7.0241 1.4961 0.0000 -10464.5337 1344.4978 0.0000 0.0000 1723.7713 -7387.4803 298.5001 -9111.2516 -7324.0991 300.7069 -686.6595 -637.3165 30003.3674 -59.8178 13.6921
ENERGY: 900000 0.9104 5.8699 2.9760 0.0000 -10467.3460 1416.5971 0.0000 0.0000 1737.8727 -7303.1199 300.9420 -9040.9926 -7334.3358 300.0081 385.9272 463.0011 29472.3177 10.3969 85.7547
ENERGY: 1200000 1.1745 5.3633 2.1859 0.0000 -10486.8252 1367.3832 0.0000 0.0000 1752.6980 -7358.0202 303.5092 -9110.7182 -7335.7188 300.1344 -241.6100 -110.2804 29411.7233 -76.1576 4.0528
ENERGY: 1500000 2.2724 9.3999 2.1490 0.0000 -10381.6494 1306.0703 0.0000 0.0000 1758.4064 -7303.3514 304.4977 -9061.7578 -7340.6323 299.9446 -829.3649 -738.6218 29833.0309 -84.4238 -13.5744
TCL: Running FEP window  13: Lambda1 0.6    Lambda2 0.65   [dLambda 0.050000000000000044]
TCL: Setting parameter firsttimestep to 0
TCL: Setting parameter alchLambda to 0.6
Info: NONBONDED TABLE R-SQUARED SPACING: 0.0625
Info: NONBONDED TABLE SIZE: 705 POINTS
TCL: Setting parameter alchLambda2 to 0.65
Info: NONBONDED TABLE R-SQUARED SPACING: 0.0625
Info: NONBONDED TABLE SIZE: 705 POINTS
TCL: Running for 1500000 steps
ETITLE: TS BOND ANGLE DIHED IMPRP ELECT VDW BOUNDARY MISC KINETIC TOTAL TEMP POTENTIAL TOTALAVG TEMPAVG PRESSURE GPRESSURE VOLUME PRESSAVG GPRESSAVG
ENERGY: 0 2.2724 9.3999 2.1490 0.0000 -10381.8465 1305.8605 0.0000 0.0000 1757.5215 -7304.6432 304.3445 -9062.1648 -7304.6432 304.3445 -818.6751 -732.1850 29833.0309 -818.6751 -732.1850
ENERGY: 300000 0.6085 6.5881 2.5736 0.0000 -10440.9110 1358.4468 0.0000 0.0000 1714.0657 -7358.6283 296.8194 -9072.6940 -7341.7732 297.8080 -746.9261 -687.9503 30252.8069 -429.0502 -367.6233
ENERGY: 600000 1.4648 3.4380 3.6062 0.0000 -10413.3027 1340.6725 0.0000 0.0000 1715.7681 -7348.3531 297.1142 -9064.1212 -7327.3864 298.9760 -369.4264 -335.8853 29335.3230 -152.3084 -108.5896
ENERGY: 900000 1.7988 6.2144 2.4384 0.0000 -10472.6433 1441.8351 0.0000 0.0000 1771.8513 -7248.5053 306.8259 -9020.3566 -7324.3940 300.0475 419.6456 470.4267 29836.1769 -17.9432 29.2702
ENERGY: 1200000 0.7490 6.9590 2.6165 0.0000 -10526.0442 1425.8345 0.0000 0.0000 1696.3663 -7393.5188 293.7544 -9089.8851 -7339.7639 299.4672 66.4982 110.5889 29687.5236 -7.8734 34.9351
ENERGY: 1500000 0.6734 5.4382 2.7740 0.0000 -10554.5194 1421.9339 0.0000 0.0000 1757.2620 -7366.4379 304.2995 -9123.6999 -7345.6921 299.6312 82.9230 123.1143 29785.1555 -40.5517 11.1445
TCL: Running FEP window  14: Lambda1 0.65   Lambda2 0.7000000000000001 [dLambda 0.050000000000000044]
TCL: Setting parameter firsttimestep to 0
TCL: Setting parameter alchLambda to 0.65
Info: NONBONDED TABLE R-SQUARED SPACING: 0.0625
Info: NONBONDED TABLE SIZE: 705 POINTS
TCL: Setting parameter alchLambda2 to 0.7000000000000001
Info: NONBONDED TABLE R-SQUARED SPACING: 0.0625
Info: NONBONDED TABLE SIZE: 705 POINTS
TCL: Running for 1500000 steps
ETITLE: TS BOND ANGLE DIHED IMPRP ELECT VDW BOUNDARY MISC KINETIC TOTAL TEMP POTENTIAL TOTALAVG TEMPAVG PRESSURE GPRESSURE VOLUME PRESSAVG GPRESSAVG
ENERGY: 0 0.6734 5.4382 2.7740 0.0000 -10555.0365 1422.3847 0.0000 0.0000 1756.3873 -7367.3789 304.1481 -9123.7661 -7367.3789 304.1481 65.3822 137.4079 29785.1555 65.3822 137.4079
ENERGY: 300000 0.5906 4.2597 1.8616 0.0000 -10377.6742 1290.5219 0.0000 0.0000 1661.3274 -7419.1130 287.6868 -9080.4405 -7401.2510 296.3641 -921.0717 -840.5551 29656.4594 -236.7980 -170.0536
ENERGY: 600000 2.0008 5.5656 3.2784 0.0000 -10466.3005 1341.3538 0.0000 0.0000 1755.2360 -7358.8658 303.9487 -9114.1018 -7383.2887 298.3968 -565.5136 -518.0493 29813.6206 -246.5757 -199.3352
ENERGY: 900000 1.3799 7.7066 2.1195 0.0000 -10599.4837 1497.0125 0.0000 0.0000 1749.5174 -7341.7477 302.9584 -9091.2651 -7364.9510 298.3519 758.3271 861.8528 29630.7976 -96.8502 -41.3510
ENERGY: 1200000 2.5109 7.9508 1.5826 0.0000 -10476.3382 1383.8262 0.0000 0.0000 1769.7219 -7310.7457 306.4572 -9080.4676 -7353.7602 298.8506 -23.4155 95.0797 29597.9391 -29.3525 34.8490
ENERGY: 1500000 0.7156 4.9213 3.0455 0.0000 -10385.2354 1309.9482 0.0000 0.0000 1697.2861 -7369.3187 293.9137 -9066.6048 -7353.1301 298.4695 -783.0873 -699.7904 29985.9905 -126.8482 -65.1246
TCL: Running FEP window  15: Lambda1 0.7000000000000001 Lambda2 0.7500000000000001 [dLambda 0.050000000000000044]
TCL: Setting parameter firsttimestep to 0
TCL: Setting parameter alchLambda to 0.7000000000000001
Info: NONBONDED TABLE R-SQUARED SPACING: 0.0625
Info: NONBONDED TABLE SIZE: 705 POINTS
TCL: Setting parameter alchLambda2 to 0.7500000000000001
Info: NONBONDED TABLE R-SQUARED SPACING: 0.0625
Info: NONBONDED TABLE SIZE: 705 POINTS
TCL: Running for 1500000 steps
ETITLE: TS BOND ANGLE DIHED IMPRP ELECT VDW BOUNDARY MISC KINETIC TOTAL TEMP POTENTIAL TOTALAVG TEMPAVG PRESSURE GPRESSURE VOLUME PRESSAVG GPRESSAVG
ENERGY: 0 0.7156 4.9213 3.0455 0.0000 -10385.7425 1309.8802 0.0000 0.0000 1696.4301 -7370.7497 293.7655 -9067.1799 -7370.7497 293.7655 -796.6198 -692.8007 29985.9905 -796.6198 -692.8007
ENERGY: 300000 1.1596 6.1568 1.3329 0.0000 -10450.4330 1457.4591 0.0000 0.0000 1750.4116 -7233.9131 303.1133 -8984.3246 -7358.4668 298.1868 371.5727 487.1723 30152.4956 -468.1115 -393.8489
ENERGY: 600000 2.3409 5.8415 3.4291 0.0000 -10448.1283 1408.7185 0.0000 0.0000 1704.5077 -7323.2907 295.1642 -9027.7984 -7360.7237 297.1089 125.8811 174.6514 29889.0947 -283.2022 -226.4463
ENERGY: 900000 1.7080 6.1358 1.9121 0.0000 -10522.4679 1443.6924 0.0000 0.0000 1725.2794 -7343.7402 298.7612 -9069.0197 -7363.0223 296.9802 254.7137 313.7920 29982.6692 -167.8564 -112.3967
ENERGY: 1200000 1.9089 7.4962 3.5680 0.0000 -10420.2554 1386.3607 0.0000 0.0000 1773.9132 -7247.0084 307.1830 -9020.9216 -7343.7811 298.8258 58.6846 118.0613 29683.5412 -211.5445 -158.1570
ENERGY: 1500000 0.5531 6.5364 2.3038 0.0000 -10484.8935 1409.4002 0.0000 0.0000 1758.0582 -7308.0419 304.4374 -9066.1001 -7349.9714 298.3630 141.6143 167.6062 29766.8514 -202.2033 -150.4569
TCL: Running FEP window  16: Lambda1 0.7500000000000001 Lambda2 0.8000000000000002 [dLambda 0.050000000000000044]
TCL: Setting parameter firsttimestep to 0
TCL: Setting parameter alchLambda to 0.7500000000000001
Info: NONBONDED TABLE R-SQUARED SPACING: 0.0625
Info: NONBONDED TABLE SIZE: 705 POINTS
TCL: Setting parameter alchLambda2 to 0.8000000000000002
Info: NONBONDED TABLE R-SQUARED SPACING: 0.0625
Info: NONBONDED TABLE SIZE: 705 POINTS
TCL: Running for 1500000 steps
ETITLE: TS BOND ANGLE DIHED IMPRP ELECT VDW BOUNDARY MISC KINETIC TOTAL TEMP POTENTIAL TOTALAVG TEMPAVG PRESSURE GPRESSURE VOLUME PRESSAVG GPRESSAVG
ENERGY: 0 0.5531 6.5364 2.3038 0.0000 -10484.8361 1409.5134 0.0000 0.0000 1757.2285 -7308.7009 304.2937 -9065.9294 -7308.7009 304.2937 106.4087 177.6290 29766.8514 106.4087 177.6290
ENERGY: 300000 0.3155 13.4933 1.6988 0.0000 -10524.8904 1434.5375 0.0000 0.0000 1783.3121 -7291.5331 308.8106 -9074.8452 -7325.5639 306.3240 150.5022 176.2031 30130.2644 -172.4954 -120.8378
ENERGY: 600000 1.0193 7.5765 1.7712 0.0000 -10631.3277 1505.1074 0.0000 0.0000 1712.4192 -7403.4341 296.5342 -9115.8533 -7340.8980 303.9501 610.4532 718.1077 30050.0140 -96.3287 -26.7063
ENERGY: 900000 0.3801 3.6752 1.6581 0.0000 -10437.5153 1376.9480 0.0000 0.0000 1763.3547 -7291.4992 305.3546 -9054.8539 -7340.0015 303.8841 -194.0352 -146.3586 29942.9866 -85.3223 -22.7318
ENERGY: 1200000 1.1417 5.1204 1.5855 0.0000 -10619.4006 1473.9839 0.0000 0.0000 1714.6270 -7422.9421 296.9166 -9137.5691 -7351.8818 302.8693 546.2360 622.9881 29473.6898 13.8355 78.1527
ENERGY: 1500000 1.7983 5.0076 1.3044 0.0000 -10383.3016 1342.9168 0.0000 0.0000 1702.6521 -7329.6223 294.8429 -9032.2745 -7344.3843 302.1639 -399.2792 -393.2894 30155.3006 3.6228 63.9922
TCL: Running FEP window  17: Lambda1 0.8000000000000002 Lambda2 0.8500000000000002 [dLambda 0.050000000000000044]
TCL: Setting parameter firsttimestep to 0
TCL: Setting parameter alchLambda to 0.8000000000000002
Info: NONBONDED TABLE R-SQUARED SPACING: 0.0625
Info: NONBONDED TABLE SIZE: 705 POINTS
TCL: Setting parameter alchLambda2 to 0.8500000000000002
Info: NONBONDED TABLE R-SQUARED SPACING: 0.0625
Info: NONBONDED TABLE SIZE: 705 POINTS
TCL: Running for 1500000 steps
ETITLE: TS BOND ANGLE DIHED IMPRP ELECT VDW BOUNDARY MISC KINETIC TOTAL TEMP POTENTIAL TOTALAVG TEMPAVG PRESSURE GPRESSURE VOLUME PRESSAVG GPRESSAVG
ENERGY: 0 1.7983 5.0076 1.3044 0.0000 -10383.4228 1342.9473 0.0000 0.0000 1701.7547 -7330.6105 294.6875 -9032.3652 -7330.6105 294.6875 -453.8399 -383.5159 30155.3006 -453.8399 -383.5159
ENERGY: 300000 1.7833 9.4221 2.1187 0.0000 -10516.9564 1395.4640 0.0000 0.0000 1777.0551 -7331.1133 307.7271 -9108.1684 -7346.0358 303.3003 -360.2902 -211.4196 29960.9930 -63.8161 19.6069
ENERGY: 600000 1.2967 8.2806 1.5098 0.0000 -10302.1168 1301.1252 0.0000 0.0000 1680.2501 -7309.6546 290.9636 -8989.9046 -7351.7722 299.7621 -1069.5542 -1015.2843 30771.6704 -128.7671 -62.4144
ENERGY: 900000 2.4640 6.3215 1.3103 0.0000 -10466.6832 1386.4416 0.0000 0.0000 1739.0690 -7331.0769 301.1491 -9070.1459 -7345.6162 300.5870 -221.0933 -163.3888 30008.9177 -48.1136 20.1891
ENERGY: 1200000 1.5998 7.1420 1.8176 0.0000 -10609.2141 1481.9630 0.0000 0.0000 1726.4108 -7390.2808 298.9571 -9116.6916 -7362.6145 300.1252 204.1196 272.0621 30165.2539 -73.2779 -6.2996
ENERGY: 1500000 1.1097 5.9034 3.7459 0.0000 -10351.8012 1348.9896 0.0000 0.0000 1757.4961 -7234.5565 304.3401 -8992.0526 -7355.4172 301.1303 -281.3295 -281.0020 30367.0763 -80.4890 -20.3575
TCL: Running FEP window  18: Lambda1 0.8500000000000002 Lambda2 0.9000000000000002 [dLambda 0.050000000000000044]
TCL: Setting parameter firsttimestep to 0
TCL: Setting parameter alchLambda to 0.8500000000000002
Info: NONBONDED TABLE R-SQUARED SPACING: 0.0625
Info: NONBONDED TABLE SIZE: 705 POINTS
TCL: Setting parameter alchLambda2 to 0.9000000000000002
Info: NONBONDED TABLE R-SQUARED SPACING: 0.0625
Info: NONBONDED TABLE SIZE: 705 POINTS
TCL: Running for 1500000 steps
ETITLE: TS BOND ANGLE DIHED IMPRP ELECT VDW BOUNDARY MISC KINETIC TOTAL TEMP POTENTIAL TOTALAVG TEMPAVG PRESSURE GPRESSURE VOLUME PRESSAVG GPRESSAVG
ENERGY: 0 1.1097 5.9034 3.7459 0.0000 -10352.1367 1349.6159 0.0000 0.0000 1756.6064 -7235.1554 304.1860 -8991.7618 -7235.1554 304.1860 -349.7191 -263.1117 30367.0763 -349.7191 -263.1117
ENERGY: 300000 2.3455 4.8856 1.6911 0.0000 -10455.1235 1381.2448 0.0000 0.0000 1781.2510 -7283.7056 308.4536 -9064.9566 -7317.3588 303.2351 -185.1630 -86.9514 29884.9292 -217.2814 -136.2823
ENERGY: 600000 2.2003 7.3427 1.5591 0.0000 -10433.5686 1360.7964 0.0000 0.0000 1759.8712 -7301.7990 304.7514 -9061.6702 -7308.4128 302.0573 -500.8091 -370.3525 30077.3288 -168.4630 -88.9832
ENERGY: 900000 1.7658 9.4278 3.4140 0.0000 -10466.7236 1378.3882 0.0000 0.0000 1730.6520 -7343.0759 299.6916 -9073.7279 -7328.0280 301.3653 -331.6939 -226.5790 30083.2650 -183.0246 -102.5789
ENERGY: 1200000 1.9716 6.9328 2.2589 0.0000 -10471.2786 1387.1312 0.0000 0.0000 1675.9092 -7397.0749 290.2119 -9072.9840 -7332.5393 300.1396 -2.1801 46.0897 29522.1135 -106.2941 -30.6414
ENERGY: 1500000 2.0849 6.0234 1.7265 0.0000 -10436.9680 1382.0500 0.0000 0.0000 1735.7953 -7309.2880 300.5822 -9045.0833 -7344.9845 299.1413 -163.9641 -125.9540 30005.9952 -123.5027 -50.4492
TCL: Running FEP window  19: Lambda1 0.9000000000000002 Lambda2 0.9500000000000003 [dLambda 0.050000000000000044]
TCL: Setting parameter firsttimestep to 0
TCL: Setting parameter alchLambda to 0.9000000000000002
Info: NONBONDED TABLE R-SQUARED SPACING: 0.0625
Info: NONBONDED TABLE SIZE: 705 POINTS
TCL: Setting parameter alchLambda2 to 0.9500000000000003
Info: NONBONDED TABLE R-SQUARED SPACING: 0.0625
Info: NONBONDED TABLE SIZE: 705 POINTS
TCL: Running for 1500000 steps
ETITLE: TS BOND ANGLE DIHED IMPRP ELECT VDW BOUNDARY MISC KINETIC TOTAL TEMP POTENTIAL TOTALAVG TEMPAVG PRESSURE GPRESSURE VOLUME PRESSAVG GPRESSAVG
ENERGY: 0 2.0849 6.0234 1.7265 0.0000 -10437.3505 1381.9652 0.0000 0.0000 1734.9911 -7310.5595 300.4430 -9045.5506 -7310.5595 300.4430 -206.1135 -115.3376 30005.9952 -206.1135 -115.3376
ENERGY: 300000 1.4412 7.3397 1.5153 0.0000 -10510.6437 1477.0674 0.0000 0.0000 1778.2095 -7245.0706 307.9270 -9023.2801 -7299.5195 303.3071 567.8481 581.0117 30176.8352 129.9817 199.3949
ENERGY: 600000 1.3027 3.0583 2.0899 0.0000 -10498.5472 1380.7055 0.0000 0.0000 1764.2950 -7347.0958 305.5174 -9111.3907 -7323.6485 303.4100 -339.5210 -287.5924 30082.6785 -145.6518 -90.1176
ENERGY: 900000 0.6929 7.8327 2.7477 0.0000 -10448.1433 1331.3540 0.0000 0.0000 1733.2446 -7372.2715 300.1405 -9105.5161 -7343.8951 302.0622 -718.8575 -654.3055 30229.2913 -240.3823 -182.2885
ENERGY: 1200000 1.4013 6.3220 4.3753 0.0000 -10508.3706 1403.4388 0.0000 0.0000 1739.9386 -7352.8946 301.2997 -9092.8333 -7345.2729 301.5815 -29.0446 6.4086 29830.3021 -161.3948 -105.5030
ENERGY: 1500000 0.2984 5.5817 2.1985 0.0000 -10536.0362 1505.3189 0.0000 0.0000 1776.2282 -7246.4104 307.5839 -9022.6387 -7340.3661 302.1220 1028.3605 1072.0309 29854.8655 -82.6578 -27.7201
TCL: Running FEP window  20: Lambda1 0.9500000000000003 Lambda2 1.0    [dLambda 0.04999999999999971]
TCL: Setting parameter firsttimestep to 0
TCL: Setting parameter alchLambda to 0.9500000000000003
Info: NONBONDED TABLE R-SQUARED SPACING: 0.0625
Info: NONBONDED TABLE SIZE: 705 POINTS
TCL: Setting parameter alchLambda2 to 1.0
Info: NONBONDED TABLE R-SQUARED SPACING: 0.0625
Info: NONBONDED TABLE SIZE: 705 POINTS
TCL: Running for 1500000 steps
ETITLE: TS BOND ANGLE DIHED IMPRP ELECT VDW BOUNDARY MISC KINETIC TOTAL TEMP POTENTIAL TOTALAVG TEMPAVG PRESSURE GPRESSURE VOLUME PRESSAVG GPRESSAVG
ENERGY: 0 0.2984 5.5817 2.1985 0.0000 -10536.6224 1505.7331 0.0000 0.0000 1775.3793 -7247.4313 307.4369 -9022.8106 -7247.4313 307.4369 998.6044 1087.7287 29854.8655 998.6044 1087.7287
ENERGY: 300000 2.9606 5.4786 3.2448 0.0000 -10528.2641 1457.0191 0.0000 0.0000 1750.0473 -7309.5138 303.0502 -9059.5611 -7310.4085 302.7610 501.1719 645.6624 29823.2226 436.8772 534.0362
ENERGY: 600000 0.8345 5.1410 1.7127 0.0000 -10804.5204 1583.1981 0.0000 0.0000 1724.1295 -7489.5046 298.5621 -9213.6341 -7366.5152 301.0916 832.7860 943.3819 30121.5109 350.5311 448.7870
ENERGY: 900000 2.3093 6.2018 2.1833 0.0000 -10524.6109 1381.4261 0.0000 0.0000 1724.8455 -7407.6449 298.6861 -9132.4904 -7370.3759 301.3588 -195.9664 -138.6674 29785.2781 164.7565 251.7613
ENERGY: 1200000 3.0611 8.3387 2.4140 0.0000 -10405.5731 1353.4594 0.0000 0.0000 1718.9165 -7319.3834 297.6594 -9038.2999 -7361.8467 302.1135 -418.9461 -320.4749 30074.4892 89.7118 176.9500
ENERGY: 1500000 0.7280 3.2325 2.9351 0.0000 -10584.3566 1410.6986 0.0000 0.0000 1705.0487 -7461.7139 295.2579 -9166.7625 -7367.5631 301.5377 71.4019 120.1802 29782.3167 44.4229 123.5243
TCL: Exiting due to exit command.
