Info: SIMULATION PARAMETERS:
Info: TIMESTEP               2
Info: NUMBER OF STEPS        0
Info: STEPS PER CYCLE        10
Info: PERIODIC CELL BASIS 1  31.0596 0 0
Info: PERIODIC CELL BASIS 2  0 31.7419 0
Info: PERIODIC CELL BASIS 3  0 0 31.6221
Info: PERIODIC CELL CENTER   0 0 0
Info: WRAPPING WATERS AROUND PERIODIC BOUNDARIES ON OUTPUT.
Info: WRAPPING ALL CLUSTERS AROUND PERIODIC BOUNDARIES ON OUTPUT.
Info: FIRST LDB TIMESTEP     50
Info: LAST LDB TIMESTEP     -1
Info: HOM BACKGROUND SCALING 1
Info: PME BACKGROUND SCALING 1
Info: MIN ATOMS PER PATCH    40
Info: EMPTY PATCH LOAD       40 ATOMS
Info: VELOCITY FILE          mobley_1923244_equil.vel
Info: CENTER OF MASS MOVING INITIALLY? NO
Info: DIELECTRIC             1
Info: EXCLUDE                SCALED ONE-FOUR
Info: 1-4 ELECTROSTATICS SCALED BY 0.833333
Info: MODIFIED 1-4 VDW PARAMETERS WILL BE USED
Info: DCD FILENAME           mobley_1923244_prod.dcd
Info: DCD FREQUENCY          100000
Info: DCD FIRST STEP         100000
Info: DCD FILE WILL CONTAIN UNIT CELL DATA
Info: XST FILENAME           mobley_1923244_prod.xst
Info: XST FREQUENCY          100000
Info: NO VELOCITY DCD OUTPUT
Info: NO FORCE DCD OUTPUT
Info: OUTPUT FILENAME        mobley_1923244_prod
Info: BINARY OUTPUT FILES WILL BE USED
Info: RESTART FILENAME       mobley_1923244_prod.restart
Info: RESTART FREQUENCY      100000
Info: BINARY RESTART FILES WILL BE USED
Info: CUTOFF                 9
Info: PAIRLIST DISTANCE      11
Info: PAIRLIST SHRINK RATE   0.01
Info: PAIRLIST GROW RATE     0.01
Info: PAIRLIST TRIGGER       0.3
Info: PAIRLISTS PER CYCLE    2
Info: PAIRLISTS ENABLED
Info: MARGIN                 2
Info: HYDROGEN GROUP CUTOFF  2.5
Info: PATCH DIMENSION        15.5
Info: ENERGY OUTPUT STEPS    100000
Info: ENERGY EVALUATION STEPS    100000
Info: OUTPUT ENERGY PRECISION 4
Info: CROSSTERM ENERGY INCLUDED IN DIHEDRAL
Info: TIMING OUTPUT STEPS    1000000
Info: PRESSURE OUTPUT STEPS  100000
Info: ALCHEMICAL FEP ON
Info: FEP CURRENT LAMBDA VALUE     0
Info: FEP COMPARISON LAMBDA VALUE  0.05
Info: FEP INTRA-ALCHEMICAL NON-BONDED INTERACTIONS WILL BE RETAINED
Info: FEP INTRA-ALCHEMICAL BONDED INTERACTIONS WILL BE RETAINED
Info: FEP VDW SHIFTING COEFFICIENT 5
Info: FEP ELEC. ACTIVE FOR ANNIHILATED PARTICLES BETWEEN LAMBDA = 0 AND LAMBDA = 0.5
Info: FEP ELEC. ACTIVE FOR EXNIHILATED PARTICLES BETWEEN LAMBDA = 0.5 AND LAMBDA = 1
Info: FEP VDW ACTIVE FOR ANNIHILATED PARTICLES BETWEEN LAMBDA = 0 AND LAMBDA = 1
Info: FEP VDW ACTIVE FOR EXNIHILATED PARTICLES BETWEEN LAMBDA = 0 AND LAMBDA = 1
Info: FEP BOND ACTIVE FOR ANNIHILATED PARTICLES BETWEEN LAMBDA = 1 AND LAMBDA = 1
Info: FEP BOND ACTIVE FOR EXNIHILATED PARTICLES BETWEEN LAMBDA = 0 AND LAMBDA = 0
Info: LANGEVIN DYNAMICS ACTIVE
Info: LANGEVIN TEMPERATURE   300
Info: LANGEVIN USING BBK INTEGRATOR
Info: LANGEVIN DAMPING COEFFICIENT IS 1 INVERSE PS
Info: LANGEVIN DYNAMICS APPLIED TO HYDROGENS
Info: LANGEVIN PISTON PRESSURE CONTROL ACTIVE
Info:        TARGET PRESSURE IS 1.01325 BAR
Info:     OSCILLATION PERIOD IS 50 FS
Info:             DECAY TIME IS 25 FS
Info:     PISTON TEMPERATURE IS 300 K
Info:       PRESSURE CONTROL IS GROUP-BASED
Info:    INITIAL STRAIN RATE IS 0.000272571 0.000272571 0.000272571
Info:       CELL FLUCTUATION IS ISOTROPIC
Info: PARTICLE MESH EWALD (PME) ACTIVE
Info: PME TOLERANCE               1e-06
Info: PME EWALD COEFFICIENT       0.348832
Info: PME INTERPOLATION ORDER     4
Info: PME GRID DIMENSIONS         32 32 32
Info: PME MAXIMUM GRID SPACING    1
Info: PME CALCULATION WILL BE PERFORMED ON GPU
Info: FULL ELECTROSTATIC EVALUATION FREQUENCY      2
Info: USING VERLET I (r-RESPA) MTS SCHEME.
Info: C1 SPLITTING OF LONG RANGE ELECTROSTATICS
Info: PLACING ATOMS IN PATCHES BY HYDROGEN GROUPS
Info: RIGID BONDS TO HYDROGEN : ALL
Info:         ERROR TOLERANCE : 1e-08
Info:          MAX ITERATIONS : 100
Info: RIGID WATER USING SETTLE ALGORITHM
Info: RANDOM NUMBER SEED     1743738488
Info: USE HYDROGEN BONDS?    NO
Info: Using AMBER format force field!
Info: AMBER PARM FILE        mobley_1923244.prmtop
Info: COORDINATE PDB         mobley_1923244.pdb
Info: Exclusions will be read from PARM file!
Info: SCNB (VDW SCALING)     2
Info: USING ARITHMETIC MEAN TO COMBINE L-J SIGMA PARAMETERS
Info: BINARY COORDINATES     mobley_1923244_equil.coor
Info: SUMMARY OF PARAMETERS:
Info: 4 BONDS
Info: 3 ANGLES
Info:   3 HARMONIC
Info:   0 COSINE-BASED
Info: 5 DIHEDRAL
Info: 0 IMPROPER
Info: 0 CROSSTERM
Info: 0 VDW
Info: 10 VDW_PAIRS
Info: 0 NBTHOLE_PAIRS
Info: To read alchdata from file: mobley_1923244.pdb
Info: To read alchflag data from column: 5
Info: STRUCTURE SUMMARY:
Info: 2981 ATOMS
Info: 2980 BONDS
Info: 24 ANGLES
Info: 29 DIHEDRALS
Info: 0 IMPROPERS
Info: 0 CROSSTERMS
Info: 3031 EXCLUSIONS
Info: 2977 RIGID BONDS
Info: ALCH: 0 ATOMS TO DISAPPEAR IN FINAL STATE
Info: ALCH: 14 ATOMS TO APPEAR IN FINAL STATE
Info: 5966 DEGREES OF FREEDOM
Info: 993 HYDROGEN GROUPS
Info: 4 ATOMS IN LARGEST HYDROGEN GROUP
Info: 993 MIGRATION GROUPS
Info: 4 ATOMS IN LARGEST MIGRATION GROUP
Info: TOTAL MASS = 17875.9 amu
Info: TOTAL CHARGE = 0.000200011 e
Info: MASS DENSITY = 0.952159 g/cm^3
Info: ATOM DENSITY = 0.0956188 atoms/A^3
Info: ADDED 0 IMPLICIT EXCLUSIONS
Info: NONBONDED TABLE R-SQUARED SPACING: 0.0625
Info: NONBONDED TABLE SIZE: 705 POINTS
Info: REDUCING NUMBER OF PATCHES TO IMPROVE LOAD BALANCE
Info: REMOVING COM VELOCITY 0.0623052 0.000743677 -0.00134514
Info: Use 3D box decompostion in PME FFT.
Info: Updated CUDA force table with 4096 elements.
Info: Updated CUDA LJ table with 4 x 4 elements.
Info: Found 17 unique exclusion lists needing 36 bytes
TCL: Running for 1500000 steps
ETITLE: TS BOND ANGLE DIHED IMPRP ELECT VDW BOUNDARY MISC KINETIC TOTAL TEMP POTENTIAL TOTALAVG TEMPAVG PRESSURE GPRESSURE VOLUME PRESSAVG GPRESSAVG
ENERGY: 0 0.4655 4.6605 0.7092 0.0000 -10566.3395 1285.4795 0.0000 0.0000 1778.0313 -7496.9935 299.9484 -9275.0248 -7496.9935 299.9484 -1407.9670 -1332.8094 31175.8937 -1407.9670 -1332.8094
ENERGY: 300000 0.8214 7.1736 2.1506 0.0000 -10824.4290 1408.2624 0.0000 0.0000 1722.3180 -7683.7029 290.5497 -9406.0209 -7599.0967 297.7692 -702.3728 -643.6878 30412.3413 -684.8890 -613.2879
ENERGY: 600000 1.5556 6.7745 1.0312 0.0000 -10771.3704 1437.9097 0.0000 0.0000 1776.7160 -7547.3833 299.7265 -9324.0993 -7568.6739 299.5408 -5.5614 6.6790 30369.8005 -536.6562 -489.0301
ENERGY: 900000 0.2692 2.0550 0.8049 0.0000 -10842.5231 1454.9261 0.0000 0.0000 1784.9715 -7599.4964 301.1192 -9384.4679 -7579.3596 299.9315 165.9074 186.9699 30056.7723 -435.7306 -377.7088
ENERGY: 1200000 2.2882 8.2597 1.2287 0.0000 -10814.3466 1456.3323 0.0000 0.0000 1782.8204 -7563.4173 300.7563 -9346.2377 -7577.6171 300.5335 39.1455 89.3540 30394.8883 -331.0661 -267.8779
ENERGY: 1500000 1.5631 7.9987 0.8083 0.0000 -10727.1499 1443.1495 0.0000 0.0000 1776.0992 -7497.5311 299.6224 -9273.6303 -7561.6180 300.8443 -182.2358 -173.0474 30967.9291 -279.3870 -222.5945
TCL: Running FEP window   2: Lambda1 0.05   Lambda2 0.1    [dLambda 0.05  ]
TCL: Setting parameter firsttimestep to 0
TCL: Setting parameter alchLambda to 0.05
Info: NONBONDED TABLE R-SQUARED SPACING: 0.0625
Info: NONBONDED TABLE SIZE: 705 POINTS
TCL: Setting parameter alchLambda2 to 0.1
Info: NONBONDED TABLE R-SQUARED SPACING: 0.0625
Info: NONBONDED TABLE SIZE: 705 POINTS
TCL: Running for 1500000 steps
ETITLE: TS BOND ANGLE DIHED IMPRP ELECT VDW BOUNDARY MISC KINETIC TOTAL TEMP POTENTIAL TOTALAVG TEMPAVG PRESSURE GPRESSURE VOLUME PRESSAVG GPRESSAVG
ENERGY: 0 1.5631 7.9987 0.8083 0.0000 -10727.1502 1445.6918 0.0000 0.0000 1775.1825 -7495.9059 299.4678 -9271.0884 -7495.9059 299.4678 -245.4429 -167.7054 30967.9291 -245.4429 -167.7054
ENERGY: 300000 0.4660 6.8321 1.1735 0.0000 -10673.7157 1363.4539 0.0000 0.0000 1777.2485 -7524.5417 299.8163 -9301.7902 -7575.2849 302.3870 -712.3852 -634.0309 30878.2466 -250.8757 -209.9902
ENERGY: 600000 0.0905 7.7389 1.0340 0.0000 -10846.8502 1505.5525 0.0000 0.0000 1780.7895 -7551.6448 300.4137 -9332.4343 -7566.4869 300.2372 452.0758 521.3439 30423.8813 -93.8946 -36.2180
ENERGY: 900000 1.7488 3.0863 2.3036 0.0000 -10791.7172 1435.2505 0.0000 0.0000 1775.9567 -7573.3713 299.5984 -9349.3280 -7574.7507 299.7283 -385.4136 -338.3445 30717.3528 -59.0348 -7.8393
ENERGY: 1200000 1.6801 6.3919 1.1440 0.0000 -10750.6502 1432.8188 0.0000 0.0000 1775.5940 -7533.0213 299.5372 -9308.6154 -7566.3676 299.6056 -82.7464 -3.5499 30348.3227 11.8136 62.2774
ENERGY: 1500000 0.4617 3.9108 1.1933 0.0000 -10899.4812 1498.2761 0.0000 0.0000 1810.9973 -7584.6420 305.5096 -9395.6392 -7567.3618 299.7485 246.9500 314.0788 30256.8538 42.9247 96.8780
TCL: Running FEP window   3: Lambda1 0.1    Lambda2 0.15000000000000002 [dLambda 0.05000000000000002]
TCL: Setting parameter firsttimestep to 0
TCL: Setting parameter alchLambda to 0.1
Info: NONBONDED TABLE R-SQUARED SPACING: 0.0625
Info: NONBONDED TABLE SIZE: 705 POINTS
TCL: Setting parameter alchLambda2 to 0.15000000000000002
Info: NONBONDED TABLE R-SQUARED SPACING: 0.0625
Info: NONBONDED TABLE SIZE: 705 POINTS
TCL: Running for 1500000 steps
ETITLE: TS BOND ANGLE DIHED IMPRP ELECT VDW BOUNDARY MISC KINETIC TOTAL TEMP POTENTIAL TOTALAVG TEMPAVG PRESSURE GPRESSURE VOLUME PRESSAVG GPRESSAVG
ENERGY: 0 0.4617 3.9108 1.1933 0.0000 -10899.4816 1498.8006 0.0000 0.0000 1810.1453 -7584.9698 305.3659 -9395.1151 -7584.9698 305.3659 233.7482 317.2671 30256.8538 233.7482 317.2671
ENERGY: 300000 0.5859 7.8217 2.3720 0.0000 -10882.5238 1488.6122 0.0000 0.0000 1755.9766 -7627.1554 296.2278 -9383.1320 -7576.5177 302.1639 369.1053 366.4209 30370.1749 266.8267 318.7256
ENERGY: 600000 0.2035 8.6793 1.2605 0.0000 -10778.4660 1414.0644 0.0000 0.0000 1756.6941 -7597.5642 296.3489 -9354.2583 -7542.5944 301.2589 -50.5148 -37.2445 30056.2792 48.3312 100.4913
ENERGY: 900000 0.2842 3.1397 1.8390 0.0000 -10745.7856 1395.9112 0.0000 0.0000 1750.8421 -7593.7695 295.3617 -9344.6116 -7548.7295 301.0364 -790.5923 -678.0192 30855.9553 11.5869 69.4645
ENERGY: 1200000 0.5885 5.7022 1.3632 0.0000 -10698.6554 1399.4605 0.0000 0.0000 1708.4225 -7583.1185 288.2056 -9291.5410 -7556.1936 299.4720 -479.4083 -426.0440 30782.3726 17.4907 75.6706
ENERGY: 1500000 1.2259 8.6913 0.7733 0.0000 -10752.5036 1369.3868 0.0000 0.0000 1739.1211 -7633.3051 293.3844 -9372.4263 -7567.7191 298.2629 -992.1264 -884.0868 30769.3705 -139.8666 -75.8909
TCL: Running FEP window   4: Lambda1 0.15000000000000002 Lambda2 0.2    [dLambda 0.04999999999999999]
TCL: Setting parameter firsttimestep to 0
TCL: Setting parameter alchLambda to 0.15000000000000002
Info: NONBONDED TABLE R-SQUARED SPACING: 0.0625
Info: NONBONDED TABLE SIZE: 705 POINTS
TCL: Setting parameter alchLambda2 to 0.2
Info: NONBONDED TABLE R-SQUARED SPACING: 0.0625
Info: NONBONDED TABLE SIZE: 705 POINTS
TCL: Running for 1500000 steps
ETITLE: TS BOND ANGLE DIHED IMPRP ELECT VDW BOUNDARY MISC KINETIC TOTAL TEMP POTENTIAL TOTALAVG TEMPAVG PRESSURE GPRESSURE VOLUME PRESSAVG GPRESSAVG
ENERGY: 0 1.2259 8.6913 0.7733 0.0000 -10752.5029 1370.6869 0.0000 0.0000 1738.2673 -7632.8583 293.2403 -9371.1255 -7632.8583 293.2403 -961.0381 -880.0044 30769.3705 -961.0381 -880.0044
ENERGY: 300000 0.6110 8.0925 0.7097 0.0000 -10772.8246 1467.0258 0.0000 0.0000 1784.2784 -7512.1071 301.0022 -9296.3855 -7593.0651 295.1369 289.0276 242.7980 30535.4402 -12.0128 21.7691
ENERGY: 600000 0.3290 6.4179 1.1217 0.0000 -10824.6236 1476.6784 0.0000 0.0000 1762.4409 -7577.6357 297.3183 -9340.0767 -7565.9532 297.9078 43.1975 156.8749 30571.8357 -21.7884 24.1902
ENERGY: 900000 1.1348 6.4340 1.5862 0.0000 -10850.5424 1487.0080 0.0000 0.0000 1784.4196 -7569.9598 301.0261 -9354.3794 -7573.3015 299.1012 66.0295 32.3911 30915.8795 -45.6357 -6.4063
ENERGY: 1200000 1.7254 8.1853 1.7399 0.0000 -10802.0237 1449.6727 0.0000 0.0000 1796.9250 -7543.7753 303.1357 -9340.7003 -7575.9436 298.3918 -57.1905 39.8841 30368.8210 7.0985 57.7268
ENERGY: 1500000 0.6063 6.2739 2.1141 0.0000 -10804.5279 1462.3764 0.0000 0.0000 1796.3946 -7536.7625 303.0462 -9333.1572 -7569.6633 298.9716 238.3214 314.3836 30364.5721 10.3197 65.5075
TCL: Running FEP window   5: Lambda1 0.2    Lambda2 0.25   [dLambda 0.04999999999999999]
TCL: Setting parameter firsttimestep to 0
TCL: Setting parameter alchLambda to 0.2
Info: NONBONDED TABLE R-SQUARED SPACING: 0.0625
Info: NONBONDED TABLE SIZE: 705 POINTS
TCL: Setting parameter alchLambda2 to 0.25
Info: NONBONDED TABLE R-SQUARED SPACING: 0.0625
Info: NONBONDED TABLE SIZE: 705 POINTS
TCL: Running for 1500000 steps
ETITLE: TS BOND ANGLE DIHED IMPRP ELECT VDW BOUNDARY MISC KINETIC TOTAL TEMP POTENTIAL TOTALAVG TEMPAVG PRESSURE GPRESSURE VOLUME PRESSAVG GPRESSAVG
ENERGY: 0 0.6063 6.2739 2.1141 0.0000 -10804.5291 1462.0412 0.0000 0.0000 1795.4689 -7538.0247 302.8901 -9333.4936 -7538.0247 302.8901 226.3661 315.9865 30364.5721 226.3661 315.9865
ENERGY: 300000 0.9433 8.6247 0.7187 0.0000 -10894.3555 1530.9394 0.0000 0.0000 1762.2771 -7590.8523 297.2907 -9353.1294 -7551.7487 301.2529 405.8568 453.9217 30627.7795 69.4990 147.3745
ENERGY: 600000 1.0139 4.6719 1.3487 0.0000 -10727.8150 1382.4500 0.0000 0.0000 1718.9937 -7619.3369 289.9889 -9338.3306 -7574.7000 298.4237 -803.1315 -720.4267 30853.8752 -214.7797 -140.2652
ENERGY: 900000 0.2898 5.0787 1.5353 0.0000 -10800.6229 1467.2572 0.0000 0.0000 1827.2322 -7499.2297 308.2484 -9326.4619 -7553.9064 300.2352 118.9375 170.0426 30675.6305 -292.5461 -222.7001
ENERGY: 1200000 1.5137 4.4990 0.7342 0.0000 -10762.2609 1409.7656 0.0000 0.0000 1731.0553 -7614.6931 292.0237 -9345.7484 -7552.3303 299.5855 -717.8766 -630.0343 30984.5190 -333.7646 -258.5841
ENERGY: 1500000 2.8272 6.0698 0.6518 0.0000 -10806.2987 1459.8947 0.0000 0.0000 1759.4854 -7577.3698 296.8198 -9336.8552 -7561.8595 299.3839 3.2562 36.2322 30501.1502 -299.0831 -224.9729
TCL: Running FEP window   6: Lambda1 0.25   Lambda2 0.3    [dLambda 0.04999999999999999]
TCL: Setting parameter firsttimestep to 0
TCL: Setting parameter alchLambda to 0.25
Info: NONBONDED TABLE R-SQUARED SPACING: 0.0625
Info: NONBONDED TABLE SIZE: 705 POINTS
TCL: Setting parameter alchLambda2 to 0.3
Info: NONBONDED TABLE R-SQUARED SPACING: 0.0625
Info: NONBONDED TABLE SIZE: 705 POINTS
TCL: Running for 1500000 steps
ETITLE: TS BOND ANGLE DIHED IMPRP ELECT VDW BOUNDARY MISC KINETIC TOTAL TEMP POTENTIAL TOTALAVG TEMPAVG PRESSURE GPRESSURE VOLUME PRESSAVG GPRESSAVG
ENERGY: 0 2.8272 6.0698 0.6518 0.0000 -10806.3003 1460.0394 0.0000 0.0000 1758.5892 -7578.1230 296.6686 -9336.7122 -7578.1230 296.6686 -54.0239 40.5241 30501.1502 -54.0239 40.5241
ENERGY: 300000 1.1978 7.9395 1.4945 0.0000 -10826.7271 1430.5968 0.0000 0.0000 1786.5544 -7598.9441 301.3862 -9385.4984 -7587.0863 297.1727 -236.4749 -163.9675 30440.5792 -91.5983 -14.7799
ENERGY: 600000 1.9546 4.5939 0.6934 0.0000 -10682.5319 1360.9876 0.0000 0.0000 1761.1412 -7553.1612 297.0991 -9314.3024 -7592.8291 296.7586 -516.7990 -477.8058 30450.2350 -111.2827 -42.0140
ENERGY: 900000 0.4801 6.1913 0.5584 0.0000 -10835.7052 1438.2629 0.0000 0.0000 1760.5728 -7629.6398 297.0032 -9390.2125 -7602.2447 297.1767 -642.4363 -612.1733 31367.4354 -157.2275 -93.9989
ENERGY: 1200000 1.7853 3.9501 1.7740 0.0000 -10826.2883 1470.4855 0.0000 0.0000 1823.6107 -7524.6827 307.6375 -9348.2934 -7598.9964 297.2571 -133.0704 -93.4919 31017.1109 -219.9264 -158.2095
ENERGY: 1500000 0.6483 6.9779 0.7372 0.0000 -10714.4796 1417.5716 0.0000 0.0000 1811.6632 -7476.8815 305.6220 -9288.5447 -7590.9787 298.2066 -269.7648 -158.7908 30729.3446 -171.2063 -105.1467
TCL: Running FEP window   7: Lambda1 0.3    Lambda2 0.35   [dLambda 0.04999999999999999]
TCL: Setting parameter firsttimestep to 0
TCL: Setting parameter alchLambda to 0.3
Info: NONBONDED TABLE R-SQUARED SPACING: 0.0625
Info: NONBONDED TABLE SIZE: 705 POINTS
TCL: Setting parameter alchLambda2 to 0.35
Info: NONBONDED TABLE R-SQUARED SPACING: 0.0625
Info: NONBONDED TABLE SIZE: 705 POINTS
TCL: Running for 1500000 steps
ETITLE: TS BOND ANGLE DIHED IMPRP ELECT VDW BOUNDARY MISC KINETIC TOTAL TEMP POTENTIAL TOTALAVG TEMPAVG PRESSURE GPRESSURE VOLUME PRESSAVG GPRESSAVG
ENERGY: 0 0.6483 6.9779 0.7372 0.0000 -10714.4808 1417.5442 0.0000 0.0000 1810.7863 -7477.7870 305.4741 -9288.5732 -7477.7870 305.4741 -234.6829 -153.4000 30729.3446 -234.6829 -153.4000
ENERGY: 300000 0.2954 3.4569 2.1121 0.0000 -10831.4738 1519.7755 0.0000 0.0000 1792.7774 -7513.0566 302.4360 -9305.8340 -7511.8264 301.8026 958.6879 1069.8034 30002.1024 -85.9180 -20.9950
ENERGY: 600000 0.2700 3.5352 1.2114 0.0000 -10752.8125 1434.2621 0.0000 0.0000 1796.9274 -7516.6063 303.1361 -9313.5337 -7549.3166 301.3787 74.1233 131.5775 30679.9337 57.1546 118.5455
ENERGY: 900000 1.0913 5.4732 0.9512 0.0000 -10873.1835 1470.1393 0.0000 0.0000 1746.5500 -7648.9786 294.6376 -9395.5285 -7561.3864 300.4718 47.7795 91.5855 30040.6869 11.3438 69.8191
ENERGY: 1200000 0.5392 3.6227 0.6063 0.0000 -10840.9318 1448.3947 0.0000 0.0000 1764.1056 -7623.6633 297.5992 -9387.7689 -7567.3477 300.3008 -123.5489 -55.4162 30423.8488 -54.1110 -2.4012
ENERGY: 1500000 1.3276 6.2097 1.8002 0.0000 -10741.7073 1426.1129 0.0000 0.0000 1785.4048 -7520.8521 301.1923 -9306.2569 -7563.4194 299.6762 -280.2399 -234.3308 30864.1501 -62.8210 -10.9911
TCL: Running FEP window   8: Lambda1 0.35   Lambda2 0.39999999999999997 [dLambda 0.04999999999999999]
TCL: Setting parameter firsttimestep to 0
TCL: Setting parameter alchLambda to 0.35
Info: NONBONDED TABLE R-SQUARED SPACING: 0.0625
Info: NONBONDED TABLE SIZE: 705 POINTS
TCL: Setting parameter alchLambda2 to 0.39999999999999997
Info: NONBONDED TABLE R-SQUARED SPACING: 0.0625
Info: NONBONDED TABLE SIZE: 705 POINTS
TCL: Running for 1500000 steps
ETITLE: TS BOND ANGLE DIHED IMPRP ELECT VDW BOUNDARY MISC KINETIC TOTAL TEMP POTENTIAL TOTALAVG TEMPAVG PRESSURE GPRESSURE VOLUME PRESSAVG GPRESSAVG
ENERGY: 0 1.3276 6.2097 1.8002 0.0000 -10741.7078 1426.4020 0.0000 0.0000 1784.5396 -7521.4286 301.0463 -9305.9682 -7521.4286 301.0463 -318.1565 -231.4487 30864.1501 -318.1565 -231.4487
ENERGY: 300000 1.6575 7.2806 0.8924 0.0000 -10689.9363 1355.7800 0.0000 0.0000 1758.7279 -7565.5978 296.6920 -9324.3257 -7551.0883 302.1546 -920.1113 -880.5686 30780.3890 -182.0356 -137.2090
ENERGY: 600000 1.5266 8.6559 0.6998 0.0000 -10861.3698 1396.2571 0.0000 0.0000 1741.8758 -7712.3547 293.8491 -9454.2305 -7577.8493 300.7999 -930.1878 -867.7626 30800.5735 -345.3570 -291.5384
ENERGY: 900000 2.2946 6.0738 1.4872 0.0000 -10772.8220 1413.0906 0.0000 0.0000 1722.9934 -7626.8823 290.6637 -9349.8757 -7590.1838 298.9026 -531.1106 -484.7879 31157.4700 -285.0837 -233.0029
ENERGY: 1200000 0.2544 4.2115 2.2884 0.0000 -10700.1811 1417.6180 0.0000 0.0000 1718.9950 -7556.8138 289.9891 -9275.8088 -7592.6350 297.8193 -180.1029 -95.9081 30657.5515 -251.9144 -195.2361
ENERGY: 1500000 0.2730 7.0928 1.1295 0.0000 -10772.2595 1441.3289 0.0000 0.0000 1744.9516 -7577.4836 294.3680 -9322.4353 -7585.8380 298.5264 -239.7063 -208.2411 31106.5997 -182.0955 -126.3232
TCL: Running FEP window   9: Lambda1 0.39999999999999997 Lambda2 0.44999999999999996 [dLambda 0.04999999999999999]
TCL: Setting parameter firsttimestep to 0
TCL: Setting parameter alchLambda to 0.39999999999999997
Info: NONBONDED TABLE R-SQUARED SPACING: 0.0625
Info: NONBONDED TABLE SIZE: 705 POINTS
TCL: Setting parameter alchLambda2 to 0.44999999999999996
Info: NONBONDED TABLE R-SQUARED SPACING: 0.0625
Info: NONBONDED TABLE SIZE: 705 POINTS
TCL: Running for 1500000 steps
ETITLE: TS BOND ANGLE DIHED IMPRP ELECT VDW BOUNDARY MISC KINETIC TOTAL TEMP POTENTIAL TOTALAVG TEMPAVG PRESSURE GPRESSURE VOLUME PRESSAVG GPRESSAVG
ENERGY: 0 0.2730 7.0928 1.1295 0.0000 -10772.2602 1441.2092 0.0000 0.0000 1744.0658 -7578.4899 294.2185 -9322.5557 -7578.4899 294.2185 -284.2481 -205.5697 31106.5997 -284.2481 -205.5697
ENERGY: 300000 1.1266 8.2979 1.5982 0.0000 -10850.1476 1473.7673 0.0000 0.0000 1802.5684 -7562.7893 304.0877 -9365.3576 -7531.9515 302.9785 64.3028 140.1875 30354.4667 -61.5268 -11.2282
ENERGY: 600000 2.4779 7.1228 1.8438 0.0000 -10510.4325 1375.7530 0.0000 0.0000 1784.5704 -7338.6646 301.0515 -9123.2351 -7506.5742 302.9418 -401.0175 -345.4709 31410.7679 90.3029 143.0297
ENERGY: 900000 2.2888 5.6702 1.4456 0.0000 -10871.5299 1508.3199 0.0000 0.0000 1794.1934 -7559.6121 302.6749 -9353.8055 -7513.1401 302.9546 153.7186 201.0795 30677.3913 63.5526 116.4710
ENERGY: 1200000 0.8419 5.0157 2.1624 0.0000 -10688.4816 1360.9465 0.0000 0.0000 1781.7057 -7537.8094 300.5683 -9319.5151 -7528.0616 302.3960 -896.4934 -818.9449 30849.0997 -62.0972 -5.5540
ENERGY: 1500000 0.5330 2.6126 0.4953 0.0000 -10709.8009 1355.2867 0.0000 0.0000 1800.8080 -7550.0653 303.7908 -9350.8733 -7534.1050 302.3550 -868.5459 -885.8106 30936.3640 -81.0193 -27.4969
TCL: Running FEP window  10: Lambda1 0.44999999999999996 Lambda2 0.49999999999999994 [dLambda 0.04999999999999999]
TCL: Setting parameter firsttimestep to 0
TCL: Setting parameter alchLambda to 0.44999999999999996
Info: NONBONDED TABLE R-SQUARED SPACING: 0.0625
Info: NONBONDED TABLE SIZE: 705 POINTS
TCL: Setting parameter alchLambda2 to 0.49999999999999994
Info: NONBONDED TABLE R-SQUARED SPACING: 0.0625
Info: NONBONDED TABLE SIZE: 705 POINTS
TCL: Running for 1500000 steps
ETITLE: TS BOND ANGLE DIHED IMPRP ELECT VDW BOUNDARY MISC KINETIC TOTAL TEMP POTENTIAL TOTALAVG TEMPAVG PRESSURE GPRESSURE VOLUME PRESSAVG GPRESSAVG
ENERGY: 0 0.5330 2.6126 0.4953 0.0000 -10709.8026 1355.0784 0.0000 0.0000 1799.9250 -7551.1584 303.6418 -9351.0834 -7551.1584 303.6418 -962.7546 -883.4724 30936.3640 -962.7546 -883.4724
ENERGY: 300000 0.6102 5.8010 0.5381 0.0000 -10673.7502 1381.5107 0.0000 0.0000 1787.6105 -7497.6797 301.5644 -9285.2902 -7546.3322 301.0051 -571.9351 -516.4872 30859.7514 -339.4678 -273.5907
ENERGY: 600000 1.0035 3.2685 3.3615 0.0000 -10785.2221 1443.0656 0.0000 0.0000 1757.4676 -7577.0554 296.4794 -9334.5230 -7564.6045 300.0018 -157.0353 -157.7919 30869.0888 -105.6649 -49.4498
ENERGY: 900000 0.6972 7.0421 2.2131 0.0000 -10848.8954 1459.8427 0.0000 0.0000 1845.5688 -7533.5317 311.3418 -9379.1005 -7565.9698 301.2603 -166.9055 -100.8288 30700.0861 -86.0408 -28.1263
ENERGY: 1200000 0.9539 2.7242 0.7960 0.0000 -10797.8948 1433.0326 0.0000 0.0000 1750.4529 -7609.9352 295.2960 -9360.3881 -7565.3649 301.0908 -539.1193 -444.9053 31042.7728 -89.3142 -29.6881
ENERGY: 1500000 0.9672 4.0212 1.2297 0.0000 -10861.5806 1516.6577 0.0000 0.0000 1798.6934 -7540.0114 303.4340 -9338.7048 -7557.7117 301.1939 454.9289 442.8959 30696.9470 -57.4106 0.6136
TCL: Running FEP window  11: Lambda1 0.49999999999999994 Lambda2 0.5499999999999999 [dLambda 0.04999999999999999]
TCL: Setting parameter firsttimestep to 0
TCL: Setting parameter alchLambda to 0.49999999999999994
Info: NONBONDED TABLE R-SQUARED SPACING: 0.0625
Info: NONBONDED TABLE SIZE: 705 POINTS
TCL: Setting parameter alchLambda2 to 0.5499999999999999
Info: NONBONDED TABLE R-SQUARED SPACING: 0.0625
Info: NONBONDED TABLE SIZE: 705 POINTS
TCL: Running for 1500000 steps
ETITLE: TS BOND ANGLE DIHED IMPRP ELECT VDW BOUNDARY MISC KINETIC TOTAL TEMP POTENTIAL TOTALAVG TEMPAVG PRESSURE GPRESSURE VOLUME PRESSAVG GPRESSAVG
ENERGY: 0 0.9672 4.0212 1.2297 0.0000 -10861.5806 1516.8407 0.0000 0.0000 1797.7577 -7540.7641 303.2762 -9338.5218 -7540.7641 303.2762 369.5488 449.3000 30696.9470 369.5488 449.3000
ENERGY: 300000 1.9631 4.6408 1.3014 0.0000 -10743.1584 1364.2902 0.0000 0.0000 1799.2459 -7571.7169 303.5272 -9370.9628 -7549.0303 303.6294 -780.1594 -743.2965 30444.1568 -260.6701 -195.0315
ENERGY: 600000 0.1699 7.6192 0.6710 0.0000 -11004.6684 1541.0100 0.0000 0.0000 1824.0981 -7631.1002 307.7197 -9455.1983 -7562.5580 303.9543 488.1451 533.5951 30395.8452 -69.2740 -11.6802
ENERGY: 900000 1.0971 7.5260 0.6725 0.0000 -10860.8068 1429.7126 0.0000 0.0000 1771.7984 -7650.0002 298.8969 -9421.7986 -7563.0214 302.4285 -193.9693 -146.6645 30127.1162 -54.1875 4.7794
ENERGY: 1200000 0.4985 6.0286 2.4869 0.0000 -10804.8352 1413.0361 0.0000 0.0000 1778.7181 -7604.0670 300.0643 -9382.7851 -7566.5529 301.6488 -378.6084 -364.4411 30539.8092 -117.3316 -59.8181
ENERGY: 1500000 0.6966 4.2014 0.9820 0.0000 -10909.0190 1516.2950 0.0000 0.0000 1736.7164 -7650.1277 292.9787 -9386.8440 -7576.8777 300.5497 751.9818 763.3666 29956.7003 -84.9930 -31.3462
TCL: Running FEP window  12: Lambda1 0.5499999999999999 Lambda2 0.6    [dLambda 0.050000000000000044]
TCL: Setting parameter firsttimestep to 0
TCL: Setting parameter alchLambda to 0.5499999999999999
Info: NONBONDED TABLE R-SQUARED SPACING: 0.0625
Info: NONBONDED TABLE SIZE: 705 POINTS
TCL: Setting parameter alchLambda2 to 0.6
Info: NONBONDED TABLE R-SQUARED SPACING: 0.0625
Info: NONBONDED TABLE SIZE: 705 POINTS
TCL: Running for 1500000 steps
ETITLE: TS BOND ANGLE DIHED IMPRP ELECT VDW BOUNDARY MISC KINETIC TOTAL TEMP POTENTIAL TOTALAVG TEMPAVG PRESSURE GPRESSURE VOLUME PRESSAVG GPRESSAVG
ENERGY: 0 0.6966 4.2014 0.9820 0.0000 -10909.0388 1515.8835 0.0000 0.0000 1735.7923 -7651.4830 292.8228 -9387.2754 -7651.4830 292.8228 674.9680 763.2480 29956.7003 674.9680 763.2480
ENERGY: 300000 0.2557 8.2240 1.0933 0.0000 -10858.6380 1494.0988 0.0000 0.0000 1772.3371 -7582.6290 298.9878 -9354.9661 -7580.6460 298.1584 122.5296 175.7578 30549.8317 478.9504 559.4101
ENERGY: 600000 1.4419 5.6755 2.5212 0.0000 -10880.5736 1509.0840 0.0000 0.0000 1769.2252 -7592.6258 298.4628 -9361.8509 -7576.4918 299.9606 378.9070 448.2109 30504.2092 161.3952 233.7571
ENERGY: 900000 0.5560 8.0102 1.1909 0.0000 -10677.3020 1330.2517 0.0000 0.0000 1812.9159 -7524.3773 305.8333 -9337.2932 -7550.0344 300.4514 -833.9839 -784.6453 30488.3293 -88.3436 -14.3668
ENERGY: 1200000 0.3412 4.0053 1.9933 0.0000 -10806.3833 1403.9911 0.0000 0.0000 1809.2792 -7586.7732 305.2198 -9396.0524 -7563.7718 300.6098 -312.1729 -267.4819 30277.0975 -125.9510 -51.5777
ENERGY: 1500000 1.5693 7.2206 2.0990 0.0000 -10752.2339 1418.4423 0.0000 0.0000 1735.4109 -7587.4917 292.7585 -9322.9026 -7574.5673 300.7198 -377.6056 -314.6925 30875.3318 -180.5558 -109.6654
TCL: Running FEP window  13: Lambda1 0.6    Lambda2 0.65   [dLambda 0.050000000000000044]
TCL: Setting parameter firsttimestep to 0
TCL: Setting parameter alchLambda to 0.6
Info: NONBONDED TABLE R-SQUARED SPACING: 0.0625
Info: NONBONDED TABLE SIZE: 705 POINTS
TCL: Setting parameter alchLambda2 to 0.65
Info: NONBONDED TABLE R-SQUARED SPACING: 0.0625
Info: NONBONDED TABLE SIZE: 705 POINTS
TCL: Running for 1500000 steps
ETITLE: TS BOND ANGLE DIHED IMPRP ELECT VDW BOUNDARY MISC KINETIC TOTAL TEMP POTENTIAL TOTALAVG TEMPAVG PRESSURE GPRESSURE VOLUME PRESSAVG GPRESSAVG
ENERGY: 0 1.5693 7.2207 2.0990 0.0000 -10752.2591 1418.9045 0.0000 0.0000 1734.5500 -7587.9156 292.6132 -9322.4656 -7587.9156 292.6132 -390.0058 -306.8686 30875.3318 -390.0058 -306.8686
ENERGY: 300000 0.0858 7.9880 0.7242 0.0000 -10810.9908 1475.6971 0.0000 0.0000 1755.4652 -7571.0305 296.1416 -9326.4957 -7608.3271 292.5151 -197.9841 -57.8451 31312.9912 -13.9959 57.8420
ENERGY: 600000 2.7528 4.5472 1.3357 0.0000 -10711.0409 1414.2789 0.0000 0.0000 1802.3127 -7485.8136 304.0446 -9288.1264 -7582.2338 295.0940 -317.0009 -297.0413 30591.0347 0.6788 55.2687
ENERGY: 900000 0.8198 6.0806 1.0806 0.0000 -10881.0480 1524.8745 0.0000 0.0000 1763.6889 -7584.5036 297.5289 -9348.1925 -7575.9178 296.1952 324.9546 409.7766 30956.6057 8.2237 70.1524
ENERGY: 1200000 1.6059 5.3096 1.4787 0.0000 -10753.2120 1320.0582 0.0000 0.0000 1816.3385 -7608.4210 306.4107 -9424.7596 -7574.9264 297.7912 -1144.4286 -1085.7140 30621.6324 -53.5927 0.1569
ENERGY: 1500000 1.5194 6.7081 1.6753 0.0000 -10842.1589 1474.3530 0.0000 0.0000 1793.8697 -7564.0334 302.6203 -9357.9031 -7566.2126 298.8293 59.8357 133.2946 30567.5461 -2.9025 46.6093
TCL: Running FEP window  14: Lambda1 0.65   Lambda2 0.7000000000000001 [dLambda 0.050000000000000044]
TCL: Setting parameter firsttimestep to 0
TCL: Setting parameter alchLambda to 0.65
Info: NONBONDED TABLE R-SQUARED SPACING: 0.0625
Info: NONBONDED TABLE SIZE: 705 POINTS
TCL: Setting parameter alchLambda2 to 0.7000000000000001
Info: NONBONDED TABLE R-SQUARED SPACING: 0.0625
Info: NONBONDED TABLE SIZE: 705 POINTS
TCL: Running for 1500000 steps
ETITLE: TS BOND ANGLE DIHED IMPRP ELECT VDW BOUNDARY MISC KINETIC TOTAL TEMP POTENTIAL TOTALAVG TEMPAVG PRESSURE GPRESSURE VOLUME PRESSAVG GPRESSAVG
ENERGY: 0 1.5194 6.7081 1.6753 0.0000 -10842.1004 1474.9912 0.0000 0.0000 1793.0231 -7564.1833 302.4775 -9357.2064 -7564.1833 302.4775 62.7173 145.0724 30567.5461 62.7173 145.0724
ENERGY: 300000 0.9511 6.2335 0.7142 0.0000 -10779.7818 1426.0110 0.0000 0.0000 1770.9059 -7574.9660 298.7464 -9345.8719 -7594.6027 297.2893 -99.6547 -61.4391 30372.9941 -125.4882 -67.5193
ENERGY: 600000 0.5403 6.9875 1.3579 0.0000 -11022.5282 1635.4020 0.0000 0.0000 1800.2226 -7578.0178 303.6920 -9378.2404 -7592.4717 297.9025 1361.4565 1462.4815 30143.0839 76.5221 136.0793
ENERGY: 900000 2.1953 6.0127 3.0006 0.0000 -10823.2498 1420.5313 0.0000 0.0000 1737.3800 -7654.1299 293.0906 -9391.5099 -7598.8752 297.6673 -281.4767 -301.0572 30338.4735 -67.3862 -20.2682
ENERGY: 1200000 1.4213 8.3690 1.2167 0.0000 -10726.9476 1417.8774 0.0000 0.0000 1726.6400 -7571.4232 291.2788 -9298.0632 -7595.9230 296.7654 -324.2515 -230.4784 30690.3497 -126.9121 -73.1773
ENERGY: 1500000 0.5481 6.3324 0.8060 0.0000 -10949.1714 1569.4828 0.0000 0.0000 1813.6639 -7558.3383 305.9595 -9372.0021 -7587.7127 297.4058 898.2363 934.4928 30494.8089 -66.7802 -13.9253
TCL: Running FEP window  15: Lambda1 0.7000000000000001 Lambda2 0.7500000000000001 [dLambda 0.050000000000000044]
TCL: Setting parameter firsttimestep to 0
TCL: Setting parameter alchLambda to 0.7000000000000001
Info: NONBONDED TABLE R-SQUARED SPACING: 0.0625
Info: NONBONDED TABLE SIZE: 705 POINTS
TCL: Setting parameter alchLambda2 to 0.7500000000000001
Info: NONBONDED TABLE R-SQUARED SPACING: 0.0625
Info: NONBONDED TABLE SIZE: 705 POINTS
TCL: Running for 1500000 steps
ETITLE: TS BOND ANGLE DIHED IMPRP ELECT VDW BOUNDARY MISC KINETIC TOTAL TEMP POTENTIAL TOTALAVG TEMPAVG PRESSURE GPRESSURE VOLUME PRESSAVG GPRESSAVG
ENERGY: 0 0.5481 6.3324 0.8060 0.0000 -10949.1595 1569.1157 0.0000 0.0000 1812.7616 -7559.5957 305.8073 -9372.3573 -7559.5957 305.8073 860.8937 934.4501 30494.8089 860.8937 934.4501
ENERGY: 300000 0.5188 5.5565 3.8560 0.0000 -10676.6856 1390.3230 0.0000 0.0000 1812.9781 -7463.4533 305.8438 -9276.4314 -7541.1789 302.6672 -377.4651 -388.9646 30774.1016 184.5308 231.6890
ENERGY: 600000 2.2161 5.8920 1.3630 0.0000 -10789.2547 1481.9174 0.0000 0.0000 1773.8067 -7524.0595 299.2357 -9297.8662 -7533.9690 304.1155 505.1211 528.2691 30468.9329 326.7944 365.1437
ENERGY: 900000 0.0395 5.8937 2.0847 0.0000 -10736.1832 1444.4398 0.0000 0.0000 1747.4239 -7536.3015 294.7850 -9283.7254 -7540.2675 302.6618 241.1975 299.6257 30360.2063 142.3164 176.7213
ENERGY: 1200000 1.2578 5.6227 1.1798 0.0000 -10754.0645 1457.4385 0.0000 0.0000 1805.0028 -7483.5628 304.4984 -9288.5657 -7525.1417 303.1295 176.3016 215.3779 30426.1150 114.6239 148.3522
ENERGY: 1500000 3.5598 6.9913 1.0909 0.0000 -10686.8057 1422.4437 0.0000 0.0000 1775.8047 -7476.9153 299.5728 -9252.7200 -7526.0353 302.3712 -316.6221 -270.3568 31120.8218 36.8481 77.3165
TCL: Running FEP window  16: Lambda1 0.7500000000000001 Lambda2 0.8000000000000002 [dLambda 0.050000000000000044]
TCL: Setting parameter firsttimestep to 0
TCL: Setting parameter alchLambda to 0.7500000000000001
Info: NONBONDED TABLE R-SQUARED SPACING: 0.0625
Info: NONBONDED TABLE SIZE: 705 POINTS
TCL: Setting parameter alchLambda2 to 0.8000000000000002
Info: NONBONDED TABLE R-SQUARED SPACING: 0.0625
Info: NONBONDED TABLE SIZE: 705 POINTS
TCL: Running for 1500000 steps
ETITLE: TS BOND ANGLE DIHED IMPRP ELECT VDW BOUNDARY MISC KINETIC TOTAL TEMP POTENTIAL TOTALAVG TEMPAVG PRESSURE GPRESSURE VOLUME PRESSAVG GPRESSAVG
ENERGY: 0 3.5598 6.9913 1.0909 0.0000 -10686.7394 1423.3513 0.0000 0.0000 1774.9263 -7476.8199 299.4246 -9251.7462 -7476.8199 299.4246 -331.5527 -252.6486 31120.8218 -331.5527 -252.6486
ENERGY: 300000 1.4885 8.2496 1.1939 0.0000 -10711.6549 1416.0248 0.0000 0.0000 1777.7176 -7506.9805 299.8955 -9284.6981 -7534.4871 302.3599 -298.9047 -229.6652 31181.6435 -403.7751 -347.6267
ENERGY: 600000 0.1201 2.9900 1.1001 0.0000 -10836.9742 1489.4003 0.0000 0.0000 1741.4572 -7601.9066 293.7784 -9343.3637 -7545.6161 299.9118 499.9966 525.6069 30509.9126 -203.8171 -156.2994
ENERGY: 900000 0.5676 5.0775 1.8536 0.0000 -10745.0177 1397.1006 0.0000 0.0000 1762.0066 -7578.4119 297.2451 -9340.4185 -7536.7746 299.7330 -468.5164 -386.2930 30588.4175 -378.8469 -326.8700
ENERGY: 1200000 0.7233 5.9733 0.6969 0.0000 -10768.9021 1449.5335 0.0000 0.0000 1804.9728 -7507.0024 304.4933 -9311.9752 -7537.5244 300.5223 -137.9588 -77.6883 31014.8791 -350.1355 -295.1017
ENERGY: 1500000 0.1989 7.7326 2.1124 0.0000 -10773.2964 1430.3602 0.0000 0.0000 1774.6578 -7558.2345 299.3793 -9332.8923 -7536.6181 300.2693 -162.0872 -104.9931 30540.8009 -295.9100 -238.1761
TCL: Running FEP window  17: Lambda1 0.8000000000000002 Lambda2 0.8500000000000002 [dLambda 0.050000000000000044]
TCL: Setting parameter firsttimestep to 0
TCL: Setting parameter alchLambda to 0.8000000000000002
Info: NONBONDED TABLE R-SQUARED SPACING: 0.0625
Info: NONBONDED TABLE SIZE: 705 POINTS
TCL: Setting parameter alchLambda2 to 0.8500000000000002
Info: NONBONDED TABLE R-SQUARED SPACING: 0.0625
Info: NONBONDED TABLE SIZE: 705 POINTS
TCL: Running for 1500000 steps
ETITLE: TS BOND ANGLE DIHED IMPRP ELECT VDW BOUNDARY MISC KINETIC TOTAL TEMP POTENTIAL TOTALAVG TEMPAVG PRESSURE GPRESSURE VOLUME PRESSAVG GPRESSAVG
ENERGY: 0 0.1989 7.7326 2.1124 0.0000 -10773.2898 1430.8000 0.0000 0.0000 1773.7775 -7558.6684 299.2308 -9332.4458 -7558.6684 299.2308 -189.5885 -95.6841 30540.8009 -189.5885 -95.6841
ENERGY: 300000 0.3333 6.8500 0.6650 0.0000 -10873.2860 1478.3726 0.0000 0.0000 1775.8611 -7611.2040 299.5823 -9387.0652 -7548.8016 304.0620 36.7959 86.6987 30523.2145 366.8611 411.8194
ENERGY: 600000 2.2208 4.2600 2.2808 0.0000 -10779.7348 1434.8257 0.0000 0.0000 1788.5452 -7547.6022 301.7221 -9336.1474 -7546.5221 303.5747 -272.5336 -200.2889 30518.5985 206.6377 256.7364
ENERGY: 900000 0.1347 5.8266 1.0722 0.0000 -10770.2801 1387.9724 0.0000 0.0000 1833.7887 -7541.4855 309.3545 -9375.2742 -7538.8772 304.4031 -644.9661 -552.6692 30867.7734 -31.8210 31.5653
ENERGY: 1200000 0.9867 6.6808 0.9821 0.0000 -10741.4199 1406.9879 0.0000 0.0000 1758.2196 -7567.5629 296.6062 -9325.7825 -7540.8021 303.0948 -575.9502 -508.0600 31002.6188 -78.2297 -21.7456
ENERGY: 1500000 1.1773 6.7638 1.0499 0.0000 -10874.8442 1466.9733 0.0000 0.0000 1811.4522 -7587.4277 305.5864 -9398.8799 -7545.3016 302.8872 244.5878 274.5866 30365.7572 -12.9118 43.4938
TCL: Running FEP window  18: Lambda1 0.8500000000000002 Lambda2 0.9000000000000002 [dLambda 0.050000000000000044]
TCL: Setting parameter firsttimestep to 0
TCL: Setting parameter alchLambda to 0.8500000000000002
Info: NONBONDED TABLE R-SQUARED SPACING: 0.0625
Info: NONBONDED TABLE SIZE: 705 POINTS
TCL: Setting parameter alchLambda2 to 0.9000000000000002
Info: NONBONDED TABLE R-SQUARED SPACING: 0.0625
Info: NONBONDED TABLE SIZE: 705 POINTS
TCL: Running for 1500000 steps
ETITLE: TS BOND ANGLE DIHED IMPRP ELECT VDW BOUNDARY MISC KINETIC TOTAL TEMP POTENTIAL TOTALAVG TEMPAVG PRESSURE GPRESSURE VOLUME PRESSAVG GPRESSAVG
ENERGY: 0 1.1773 6.7638 1.0499 0.0000 -10874.8183 1467.6226 0.0000 0.0000 1810.5822 -7587.6224 305.4396 -9398.2046 -7587.6224 305.4396 221.4299 289.7378 30365.7572 221.4299 289.7378
ENERGY: 300000 1.0151 7.3740 0.7304 0.0000 -10759.4324 1429.1423 0.0000 0.0000 1791.3966 -7529.7740 302.2031 -9321.1706 -7595.5314 300.5203 -64.5675 83.1899 30239.9208 -89.8705 -16.4676
ENERGY: 600000 0.7643 7.6396 1.6757 0.0000 -10786.8078 1473.2680 0.0000 0.0000 1733.6075 -7569.8528 292.4542 -9303.4604 -7595.5516 298.2455 141.1409 219.4563 30853.4015 -65.2336 14.4000
ENERGY: 900000 0.8681 9.0236 2.1595 0.0000 -10880.9897 1430.1855 0.0000 0.0000 1846.1746 -7592.5786 311.4439 -9438.7531 -7581.5463 299.1190 -384.8453 -400.9108 30736.1065 -65.1572 -1.9216
ENERGY: 1200000 1.1855 4.4197 2.9287 0.0000 -10930.6021 1531.8617 0.0000 0.0000 1729.1423 -7661.0642 291.7010 -9390.2066 -7584.1439 298.1435 382.8242 393.7323 30809.3902 8.8001 63.2007
ENERGY: 1500000 2.6797 9.3817 3.5438 0.0000 -10816.8782 1496.3946 0.0000 0.0000 1756.2333 -7548.6451 296.2711 -9304.8784 -7573.1241 298.7542 137.6322 180.6363 31050.3412 75.7981 123.3799
TCL: Running FEP window  19: Lambda1 0.9000000000000002 Lambda2 0.9500000000000003 [dLambda 0.050000000000000044]
TCL: Setting parameter firsttimestep to 0
TCL: Setting parameter alchLambda to 0.9000000000000002
Info: NONBONDED TABLE R-SQUARED SPACING: 0.0625
Info: NONBONDED TABLE SIZE: 705 POINTS
TCL: Setting parameter alchLambda2 to 0.9500000000000003
Info: NONBONDED TABLE R-SQUARED SPACING: 0.0625
Info: NONBONDED TABLE SIZE: 705 POINTS
TCL: Running for 1500000 steps
ETITLE: TS BOND ANGLE DIHED IMPRP ELECT VDW BOUNDARY MISC KINETIC TOTAL TEMP POTENTIAL TOTALAVG TEMPAVG PRESSURE GPRESSURE VOLUME PRESSAVG GPRESSAVG
ENERGY: 0 2.6797 9.3817 3.5438 0.0000 -10816.8541 1496.0240 0.0000 0.0000 1755.3758 -7549.8491 296.1265 -9305.2249 -7549.8491 296.1265 98.5157 184.9616 31050.3412 98.5157 184.9616
ENERGY: 300000 1.0267 5.7142 0.5928 0.0000 -11036.9324 1637.8608 0.0000 0.0000 1776.3793 -7615.3586 299.6697 -9391.7379 -7554.2343 299.3148 1344.5975 1470.4233 30508.0716 376.5882 458.9539
ENERGY: 600000 0.5807 3.5549 0.5348 0.0000 -10839.5807 1391.7964 0.0000 0.0000 1713.8488 -7729.2652 289.1210 -9443.1140 -7569.8838 298.4351 -907.3918 -895.5229 31011.5555 75.1153 143.0466
ENERGY: 900000 0.1266 4.1684 2.8024 0.0000 -10792.1382 1429.7502 0.0000 0.0000 1784.9812 -7570.3094 301.1208 -9355.2906 -7563.0504 299.8558 -478.2468 -398.6771 31365.1226 -52.5925 16.3870
ENERGY: 1200000 0.5403 7.3974 1.7075 0.0000 -10702.8589 1398.2545 0.0000 0.0000 1808.0005 -7486.9586 305.0041 -9294.9590 -7543.4256 301.8868 -432.4040 -287.0203 30800.2879 -98.0301 -25.6805
ENERGY: 1500000 2.1383 3.4416 2.0009 0.0000 -10774.2082 1478.6570 0.0000 0.0000 1759.7844 -7528.1860 296.8702 -9287.9704 -7550.3438 301.4441 490.2355 549.9529 30919.3494 -61.6377 12.1498
TCL: Running FEP window  20: Lambda1 0.9500000000000003 Lambda2 1.0    [dLambda 0.04999999999999971]
TCL: Setting parameter firsttimestep to 0
TCL: Setting parameter alchLambda to 0.9500000000000003
Info: NONBONDED TABLE R-SQUARED SPACING: 0.0625
Info: NONBONDED TABLE SIZE: 705 POINTS
TCL: Setting parameter alchLambda2 to 1.0
Info: NONBONDED TABLE R-SQUARED SPACING: 0.0625
Info: NONBONDED TABLE SIZE: 705 POINTS
TCL: Running for 1500000 steps
ETITLE: TS BOND ANGLE DIHED IMPRP ELECT VDW BOUNDARY MISC KINETIC TOTAL TEMP POTENTIAL TOTALAVG TEMPAVG PRESSURE GPRESSURE VOLUME PRESSAVG GPRESSAVG
ENERGY: 0 2.1383 3.4416 2.0009 0.0000 -10774.2089 1478.5348 0.0000 0.0000 1758.9060 -7529.1872 296.7220 -9288.0933 -7529.1872 296.7220 477.5414 560.1833 30919.3494 477.5414 560.1833
ENERGY: 300000 0.0728 2.3615 1.3352 0.0000 -10773.2946 1443.8409 0.0000 0.0000 1809.9833 -7515.7008 305.3386 -9325.6842 -7556.1423 298.5342 122.7645 101.8573 30732.1874 181.0498 243.1371
ENERGY: 600000 1.0124 4.1782 1.0238 0.0000 -10875.6505 1490.4496 0.0000 0.0000 1820.2702 -7558.7164 307.0740 -9378.9866 -7583.5758 299.0467 230.2283 351.7447 30585.8221 50.0626 121.8101
ENERGY: 900000 1.0116 4.0361 1.0644 0.0000 -10868.9159 1472.0905 0.0000 0.0000 1784.8662 -7605.8472 301.1014 -9390.7133 -7588.6186 299.7890 40.4613 100.3361 30585.5529 -29.4182 35.8070
ENERGY: 1200000 0.5682 6.0215 1.1032 0.0000 -10781.8928 1408.6764 0.0000 0.0000 1806.7161 -7558.8074 304.7874 -9365.5235 -7581.2603 300.4878 -386.6636 -322.8522 30836.6724 -39.8998 19.7349
ENERGY: 1500000 1.5074 6.1200 1.2649 0.0000 -10755.5376 1406.6260 0.0000 0.0000 1790.3910 -7549.6284 302.0334 -9340.0194 -7568.4595 301.0809 -114.5106 -63.3620 30458.4919 -23.8617 38.5233
TCL: Exiting due to exit command.
