Info: SIMULATION PARAMETERS:
Info: TIMESTEP               2
Info: NUMBER OF STEPS        0
Info: STEPS PER CYCLE        10
Info: PERIODIC CELL BASIS 1  31.0092 0 0
Info: PERIODIC CELL BASIS 2  0 29.7293 0
Info: PERIODIC CELL BASIS 3  0 0 32.9671
Info: PERIODIC CELL CENTER   0 0 0
Info: WRAPPING WATERS AROUND PERIODIC BOUNDARIES ON OUTPUT.
Info: WRAPPING ALL CLUSTERS AROUND PERIODIC BOUNDARIES ON OUTPUT.
Info: FIRST LDB TIMESTEP     50
Info: LAST LDB TIMESTEP     -1
Info: HOM BACKGROUND SCALING 1
Info: PME BACKGROUND SCALING 1
Info: MIN ATOMS PER PATCH    40
Info: EMPTY PATCH LOAD       40 ATOMS
Info: VELOCITY FILE          mobley_5072416_equil.vel
Info: CENTER OF MASS MOVING INITIALLY? NO
Info: DIELECTRIC             1
Info: EXCLUDE                SCALED ONE-FOUR
Info: 1-4 ELECTROSTATICS SCALED BY 0.833333
Info: MODIFIED 1-4 VDW PARAMETERS WILL BE USED
Info: DCD FILENAME           mobley_5072416_prod.dcd
Info: DCD FREQUENCY          100000
Info: DCD FIRST STEP         100000
Info: DCD FILE WILL CONTAIN UNIT CELL DATA
Info: XST FILENAME           mobley_5072416_prod.xst
Info: XST FREQUENCY          100000
Info: NO VELOCITY DCD OUTPUT
Info: NO FORCE DCD OUTPUT
Info: OUTPUT FILENAME        mobley_5072416_prod
Info: BINARY OUTPUT FILES WILL BE USED
Info: RESTART FILENAME       mobley_5072416_prod.restart
Info: RESTART FREQUENCY      100000
Info: BINARY RESTART FILES WILL BE USED
Info: CUTOFF                 9
Info: PAIRLIST DISTANCE      11
Info: PAIRLIST SHRINK RATE   0.01
Info: PAIRLIST GROW RATE     0.01
Info: PAIRLIST TRIGGER       0.3
Info: PAIRLISTS PER CYCLE    2
Info: PAIRLISTS ENABLED
Info: MARGIN                 2
Info: HYDROGEN GROUP CUTOFF  2.5
Info: PATCH DIMENSION        15.5
Info: ENERGY OUTPUT STEPS    100000
Info: ENERGY EVALUATION STEPS    100000
Info: OUTPUT ENERGY PRECISION 4
Info: CROSSTERM ENERGY INCLUDED IN DIHEDRAL
Info: TIMING OUTPUT STEPS    1000000
Info: PRESSURE OUTPUT STEPS  100000
Info: ALCHEMICAL FEP ON
Info: FEP CURRENT LAMBDA VALUE     0
Info: FEP COMPARISON LAMBDA VALUE  0.05
Info: FEP INTRA-ALCHEMICAL NON-BONDED INTERACTIONS WILL BE RETAINED
Info: FEP INTRA-ALCHEMICAL BONDED INTERACTIONS WILL BE RETAINED
Info: FEP VDW SHIFTING COEFFICIENT 5
Info: FEP ELEC. ACTIVE FOR ANNIHILATED PARTICLES BETWEEN LAMBDA = 0 AND LAMBDA = 0.5
Info: FEP ELEC. ACTIVE FOR EXNIHILATED PARTICLES BETWEEN LAMBDA = 0.5 AND LAMBDA = 1
Info: FEP VDW ACTIVE FOR ANNIHILATED PARTICLES BETWEEN LAMBDA = 0 AND LAMBDA = 1
Info: FEP VDW ACTIVE FOR EXNIHILATED PARTICLES BETWEEN LAMBDA = 0 AND LAMBDA = 1
Info: FEP BOND ACTIVE FOR ANNIHILATED PARTICLES BETWEEN LAMBDA = 1 AND LAMBDA = 1
Info: FEP BOND ACTIVE FOR EXNIHILATED PARTICLES BETWEEN LAMBDA = 0 AND LAMBDA = 0
Info: LANGEVIN DYNAMICS ACTIVE
Info: LANGEVIN TEMPERATURE   300
Info: LANGEVIN USING BBK INTEGRATOR
Info: LANGEVIN DAMPING COEFFICIENT IS 1 INVERSE PS
Info: LANGEVIN DYNAMICS APPLIED TO HYDROGENS
Info: LANGEVIN PISTON PRESSURE CONTROL ACTIVE
Info:        TARGET PRESSURE IS 1.01325 BAR
Info:     OSCILLATION PERIOD IS 50 FS
Info:             DECAY TIME IS 25 FS
Info:     PISTON TEMPERATURE IS 300 K
Info:       PRESSURE CONTROL IS GROUP-BASED
Info:    INITIAL STRAIN RATE IS -0.000183043 -0.000183043 -0.000183043
Info:       CELL FLUCTUATION IS ISOTROPIC
Info: PARTICLE MESH EWALD (PME) ACTIVE
Info: PME TOLERANCE               1e-06
Info: PME EWALD COEFFICIENT       0.348832
Info: PME INTERPOLATION ORDER     4
Info: PME GRID DIMENSIONS         32 32 36
Info: PME MAXIMUM GRID SPACING    1
Info: PME CALCULATION WILL BE PERFORMED ON GPU
Info: FULL ELECTROSTATIC EVALUATION FREQUENCY      2
Info: USING VERLET I (r-RESPA) MTS SCHEME.
Info: C1 SPLITTING OF LONG RANGE ELECTROSTATICS
Info: PLACING ATOMS IN PATCHES BY HYDROGEN GROUPS
Info: RIGID BONDS TO HYDROGEN : ALL
Info:         ERROR TOLERANCE : 1e-08
Info:          MAX ITERATIONS : 100
Info: RIGID WATER USING SETTLE ALGORITHM
Info: RANDOM NUMBER SEED     1743776314
Info: USE HYDROGEN BONDS?    NO
Info: Using AMBER format force field!
Info: AMBER PARM FILE        mobley_5072416.prmtop
Info: COORDINATE PDB         mobley_5072416.pdb
Info: Exclusions will be read from PARM file!
Info: SCNB (VDW SCALING)     2
Info: USING ARITHMETIC MEAN TO COMBINE L-J SIGMA PARAMETERS
Info: BINARY COORDINATES     mobley_5072416_equil.coor
Info: SUMMARY OF PARAMETERS:
Info: 9 BONDS
Info: 9 ANGLES
Info:   9 HARMONIC
Info:   0 COSINE-BASED
Info: 5 DIHEDRAL
Info: 0 IMPROPER
Info: 0 CROSSTERM
Info: 0 VDW
Info: 45 VDW_PAIRS
Info: 0 NBTHOLE_PAIRS
Info: To read alchdata from file: mobley_5072416.pdb
Info: To read alchflag data from column: 5
Info: STRUCTURE SUMMARY:
Info: 2955 ATOMS
Info: 2955 BONDS
Info: 28 ANGLES
Info: 40 DIHEDRALS
Info: 0 IMPROPERS
Info: 0 CROSSTERMS
Info: 3013 EXCLUSIONS
Info: 2946 RIGID BONDS
Info: ALCH: 0 ATOMS TO DISAPPEAR IN FINAL STATE
Info: ALCH: 18 ATOMS TO APPEAR IN FINAL STATE
Info: 5919 DEGREES OF FREEDOM
Info: 988 HYDROGEN GROUPS
Info: 4 ATOMS IN LARGEST HYDROGEN GROUP
Info: 988 MIGRATION GROUPS
Info: 4 ATOMS IN LARGEST MIGRATION GROUP
Info: TOTAL MASS = 17760.8 amu
Info: TOTAL CHARGE = 4.65661e-08 e
Info: MASS DENSITY = 0.970433 g/cm^3
Info: ATOM DENSITY = 0.0972302 atoms/A^3
Info: ADDED 0 IMPLICIT EXCLUSIONS
Info: NONBONDED TABLE R-SQUARED SPACING: 0.0625
Info: NONBONDED TABLE SIZE: 705 POINTS
Info: REMOVING COM VELOCITY -0.0424715 -0.0135049 -0.146985
Info: Use 3D box decompostion in PME FFT.
Info: Updated CUDA force table with 4096 elements.
Info: Updated CUDA LJ table with 9 x 9 elements.
Info: Found 17 unique exclusion lists needing 40 bytes
TCL: Running for 1500000 steps
ETITLE: TS BOND ANGLE DIHED IMPRP ELECT VDW BOUNDARY MISC KINETIC TOTAL TEMP POTENTIAL TOTALAVG TEMPAVG PRESSURE GPRESSURE VOLUME PRESSAVG GPRESSAVG
ENERGY: 0 5.2734 3.4648 3.8900 0.0000 -10698.0580 1441.3140 0.0000 0.0000 1818.2487 -7425.8671 309.1686 -9244.1158 -7425.8671 309.1686 -94.2168 -4.1948 30391.8068 -94.2168 -4.1948
ENERGY: 300000 2.3038 7.6414 2.5426 0.0000 -10604.8499 1416.3110 0.0000 0.0000 1773.5183 -7402.5328 301.5628 -9176.0511 -7458.4829 302.4466 -106.9357 -32.9733 30493.4039 -299.8812 -214.1554
ENERGY: 600000 1.5374 5.3583 5.8472 0.0000 -10762.9793 1453.9299 0.0000 0.0000 1761.1974 -7535.1091 299.4678 -9296.3065 -7486.2251 300.7758 -50.9485 8.4958 30031.3225 -293.8351 -229.7933
ENERGY: 900000 3.1280 5.0345 2.3140 0.0000 -10761.7661 1445.8206 0.0000 0.0000 1826.7760 -7478.6930 310.6185 -9305.4690 -7474.7415 302.6076 9.5604 76.1864 29820.1368 -214.7660 -153.2732
ENERGY: 1200000 9.3663 4.3976 7.3278 0.0000 -10678.5501 1417.9379 0.0000 0.0000 1750.5044 -7489.0161 297.6496 -9239.5205 -7479.7269 300.9612 -60.6917 -110.9277 30517.1976 -51.2723 -4.3992
ENERGY: 1500000 3.4538 7.1852 6.4331 0.0000 -10695.0664 1435.8559 0.0000 0.0000 1766.7925 -7475.3459 300.4191 -9242.1384 -7486.6314 300.1393 -195.6913 -122.7685 30200.6802 -24.4238 24.6674
TCL: Running FEP window   2: Lambda1 0.05   Lambda2 0.1    [dLambda 0.05  ]
TCL: Setting parameter firsttimestep to 0
TCL: Setting parameter alchLambda to 0.05
Info: NONBONDED TABLE R-SQUARED SPACING: 0.0625
Info: NONBONDED TABLE SIZE: 705 POINTS
TCL: Setting parameter alchLambda2 to 0.1
Info: NONBONDED TABLE R-SQUARED SPACING: 0.0625
Info: NONBONDED TABLE SIZE: 705 POINTS
TCL: Running for 1500000 steps
ETITLE: TS BOND ANGLE DIHED IMPRP ELECT VDW BOUNDARY MISC KINETIC TOTAL TEMP POTENTIAL TOTALAVG TEMPAVG PRESSURE GPRESSURE VOLUME PRESSAVG GPRESSAVG
ENERGY: 0 3.4538 7.1852 6.4331 0.0000 -10695.0670 1439.2800 0.0000 0.0000 1765.9486 -7472.7662 300.2756 -9238.7149 -7472.7662 300.2756 -203.3639 -115.2673 30200.6802 -203.3639 -115.2673
ENERGY: 300000 3.8339 8.5141 8.0110 0.0000 -10780.3986 1480.3670 0.0000 0.0000 1768.2580 -7511.4146 300.6683 -9279.6727 -7513.5967 300.0784 14.6829 72.4001 30333.7734 -21.2475 26.6342
ENERGY: 600000 3.9126 5.9379 7.8413 0.0000 -10747.9532 1474.5516 0.0000 0.0000 1811.2982 -7444.4116 307.9867 -9255.7098 -7499.3317 302.5220 316.0481 344.8135 29831.7776 -79.6315 -20.2560
ENERGY: 900000 3.6650 5.9527 5.3053 0.0000 -10779.6283 1511.3472 0.0000 0.0000 1779.3575 -7474.0006 302.5556 -9253.3581 -7495.5330 302.3116 412.3728 434.4503 30235.2158 -159.3437 -102.5196
ENERGY: 1200000 6.5077 6.6043 2.9301 0.0000 -10695.1788 1440.6792 0.0000 0.0000 1750.8541 -7487.6034 297.7090 -9238.4575 -7500.3872 301.7278 -153.1983 -112.7266 30215.8458 -154.3071 -96.3818
ENERGY: 1500000 3.9737 6.3533 3.1292 0.0000 -10599.0593 1429.4292 0.0000 0.0000 1785.5009 -7370.6730 303.6002 -9156.1739 -7496.4680 301.2178 98.3139 135.1017 30247.3236 -150.7860 -96.1862
TCL: Running FEP window   3: Lambda1 0.1    Lambda2 0.15000000000000002 [dLambda 0.05000000000000002]
TCL: Setting parameter firsttimestep to 0
TCL: Setting parameter alchLambda to 0.1
Info: NONBONDED TABLE R-SQUARED SPACING: 0.0625
Info: NONBONDED TABLE SIZE: 705 POINTS
TCL: Setting parameter alchLambda2 to 0.15000000000000002
Info: NONBONDED TABLE R-SQUARED SPACING: 0.0625
Info: NONBONDED TABLE SIZE: 705 POINTS
TCL: Running for 1500000 steps
ETITLE: TS BOND ANGLE DIHED IMPRP ELECT VDW BOUNDARY MISC KINETIC TOTAL TEMP POTENTIAL TOTALAVG TEMPAVG PRESSURE GPRESSURE VOLUME PRESSAVG GPRESSAVG
ENERGY: 0 3.9737 6.3533 3.1292 0.0000 -10599.0597 1431.7605 0.0000 0.0000 1784.6311 -7369.2119 303.4524 -9153.8430 -7369.2119 303.4524 63.9239 140.3876 30247.3236 63.9239 140.3876
ENERGY: 300000 6.6237 7.5614 2.0276 0.0000 -10613.2955 1335.7412 0.0000 0.0000 1752.0095 -7509.3322 297.9055 -9261.3417 -7474.6794 299.7636 -696.5868 -654.8406 29832.8069 15.7185 56.6819
ENERGY: 600000 2.6209 7.3794 5.9899 0.0000 -10695.1561 1447.9514 0.0000 0.0000 1787.0640 -7444.1505 303.8660 -9231.2146 -7482.8446 301.2669 15.0177 110.9181 30452.3215 -73.4016 -16.4347
ENERGY: 900000 2.9768 5.6375 7.6598 0.0000 -10760.3736 1525.2300 0.0000 0.0000 1818.9622 -7399.9074 309.2899 -9218.8696 -7475.3135 302.5136 918.8717 1015.7510 30027.1730 55.7605 120.0896
ENERGY: 1200000 2.5745 8.4258 8.6749 0.0000 -10791.0232 1514.2185 0.0000 0.0000 1801.2093 -7455.9202 306.2712 -9257.1295 -7474.8888 302.5026 637.9640 701.1225 30036.8171 37.4608 109.2231
ENERGY: 1500000 4.1552 4.7260 6.2753 0.0000 -10793.0941 1529.6510 0.0000 0.0000 1732.1334 -7516.1532 294.5258 -9248.2866 -7481.4725 301.3582 439.8696 608.6957 30021.9966 73.7812 149.0697
TCL: Running FEP window   4: Lambda1 0.15000000000000002 Lambda2 0.2    [dLambda 0.04999999999999999]
TCL: Setting parameter firsttimestep to 0
TCL: Setting parameter alchLambda to 0.15000000000000002
Info: NONBONDED TABLE R-SQUARED SPACING: 0.0625
Info: NONBONDED TABLE SIZE: 705 POINTS
TCL: Setting parameter alchLambda2 to 0.2
Info: NONBONDED TABLE R-SQUARED SPACING: 0.0625
Info: NONBONDED TABLE SIZE: 705 POINTS
TCL: Running for 1500000 steps
ETITLE: TS BOND ANGLE DIHED IMPRP ELECT VDW BOUNDARY MISC KINETIC TOTAL TEMP POTENTIAL TOTALAVG TEMPAVG PRESSURE GPRESSURE VOLUME PRESSAVG GPRESSAVG
ENERGY: 0 4.1552 4.7260 6.2753 0.0000 -10793.0959 1531.0959 0.0000 0.0000 1731.2763 -7515.5672 294.3801 -9246.8435 -7515.5672 294.3801 526.3310 616.0002 30021.9966 526.3310 616.0002
ENERGY: 300000 3.2067 6.7955 6.0820 0.0000 -10700.9576 1351.3255 0.0000 0.0000 1758.7744 -7574.7735 299.0558 -9333.5479 -7500.8806 297.5013 -590.3636 -561.3681 29764.0082 -128.9516 -85.5607
ENERGY: 600000 1.4480 6.7235 8.2489 0.0000 -10587.7157 1350.6382 0.0000 0.0000 1761.3680 -7459.2891 299.4968 -9220.6570 -7505.9403 297.4328 -589.6865 -554.4736 30337.4417 -179.1286 -131.7187
ENERGY: 900000 3.3212 9.2428 9.9665 0.0000 -10617.9018 1390.6784 0.0000 0.0000 1765.5292 -7439.1636 300.2043 -9204.6929 -7499.1980 298.8942 -353.5915 -310.8692 30320.5532 -141.1671 -96.5688
ENERGY: 1200000 1.8339 7.1161 9.9147 0.0000 -10625.0296 1361.5429 0.0000 0.0000 1751.1115 -7493.5105 297.7528 -9244.6220 -7491.8565 299.5607 -694.0780 -683.8599 30585.7099 -102.5738 -50.7533
ENERGY: 1500000 1.1765 7.5690 8.5635 0.0000 -10804.6345 1439.2223 0.0000 0.0000 1751.7470 -7596.3562 297.8608 -9348.1032 -7499.2990 299.2046 -365.8955 -277.1463 30098.3923 -123.3604 -67.5826
TCL: Running FEP window   5: Lambda1 0.2    Lambda2 0.25   [dLambda 0.04999999999999999]
TCL: Setting parameter firsttimestep to 0
TCL: Setting parameter alchLambda to 0.2
Info: NONBONDED TABLE R-SQUARED SPACING: 0.0625
Info: NONBONDED TABLE SIZE: 705 POINTS
TCL: Setting parameter alchLambda2 to 0.25
Info: NONBONDED TABLE R-SQUARED SPACING: 0.0625
Info: NONBONDED TABLE SIZE: 705 POINTS
TCL: Running for 1500000 steps
ETITLE: TS BOND ANGLE DIHED IMPRP ELECT VDW BOUNDARY MISC KINETIC TOTAL TEMP POTENTIAL TOTALAVG TEMPAVG PRESSURE GPRESSURE VOLUME PRESSAVG GPRESSAVG
ENERGY: 0 1.1765 7.5690 8.5635 0.0000 -10804.6344 1441.2377 0.0000 0.0000 1750.8607 -7595.2270 297.7101 -9346.0877 -7595.2270 297.7101 -341.1337 -266.0842 30098.3923 -341.1337 -266.0842
ENERGY: 300000 0.7143 3.5755 6.4885 0.0000 -10863.7822 1560.3695 0.0000 0.0000 1753.7855 -7538.8488 298.2075 -9292.6344 -7528.3011 298.9294 762.3390 741.5808 30313.3062 79.1499 108.0558
ENERGY: 600000 2.8773 8.7863 2.4874 0.0000 -10580.4009 1362.1100 0.0000 0.0000 1732.4445 -7471.6954 294.5787 -9204.1399 -7508.0967 298.6547 -581.4598 -553.6524 30383.3457 -3.3766 31.8005
ENERGY: 900000 2.6443 7.9869 7.4415 0.0000 -10816.9275 1508.8327 0.0000 0.0000 1761.4198 -7528.6022 299.5056 -9290.0220 -7500.9156 297.1220 420.9683 475.6867 30014.7475 -106.1687 -59.7499
ENERGY: 1200000 2.3285 8.9723 4.2197 0.0000 -10552.6545 1389.0383 0.0000 0.0000 1755.5603 -7392.5355 298.5092 -9148.0957 -7478.9150 297.8555 -288.3686 -266.4404 30950.9552 -79.3632 -30.4825
ENERGY: 1500000 4.6224 8.5431 6.1455 0.0000 -10966.4145 1568.5009 0.0000 0.0000 1756.4474 -7622.1553 298.6601 -9378.6026 -7476.3295 298.2598 497.2245 526.8803 30405.5968 -25.0630 25.2712
TCL: Running FEP window   6: Lambda1 0.25   Lambda2 0.3    [dLambda 0.04999999999999999]
TCL: Setting parameter firsttimestep to 0
TCL: Setting parameter alchLambda to 0.25
Info: NONBONDED TABLE R-SQUARED SPACING: 0.0625
Info: NONBONDED TABLE SIZE: 705 POINTS
TCL: Setting parameter alchLambda2 to 0.3
Info: NONBONDED TABLE R-SQUARED SPACING: 0.0625
Info: NONBONDED TABLE SIZE: 705 POINTS
TCL: Running for 1500000 steps
ETITLE: TS BOND ANGLE DIHED IMPRP ELECT VDW BOUNDARY MISC KINETIC TOTAL TEMP POTENTIAL TOTALAVG TEMPAVG PRESSURE GPRESSURE VOLUME PRESSAVG GPRESSAVG
ENERGY: 0 4.6224 8.5431 6.1455 0.0000 -10966.4143 1571.2653 0.0000 0.0000 1755.5243 -7620.3136 298.5031 -9375.8379 -7620.3136 298.5031 456.1922 543.1681 30405.5968 456.1922 543.1681
ENERGY: 300000 2.9775 5.2503 8.0085 0.0000 -10637.8994 1395.0833 0.0000 0.0000 1757.8883 -7468.6915 298.9051 -9226.5798 -7512.2017 300.0547 -513.7340 -426.3084 30456.4536 363.3380 436.1646
ENERGY: 600000 1.6452 7.5591 2.7831 0.0000 -10798.6689 1530.5876 0.0000 0.0000 1738.4895 -7517.6043 295.6066 -9256.0938 -7514.0430 299.6377 715.9785 729.7081 30178.2366 380.8958 431.1793
ENERGY: 900000 1.6743 9.7627 5.8014 0.0000 -10659.5661 1451.2998 0.0000 0.0000 1760.0631 -7430.9649 299.2749 -9191.0280 -7518.4635 298.8820 45.1775 59.2379 30895.1090 416.2332 476.4262
ENERGY: 1200000 3.8228 5.5042 6.0871 0.0000 -10754.7103 1461.7445 0.0000 0.0000 1749.0627 -7528.4890 297.4044 -9277.5516 -7508.9189 299.5442 -170.9364 -123.2527 30572.4429 306.1626 366.3909
ENERGY: 1500000 6.2535 4.9673 7.5114 0.0000 -10568.2269 1338.9999 0.0000 0.0000 1712.8055 -7497.6892 291.2394 -9210.4947 -7495.5005 299.7520 -1247.7377 -1149.1838 30808.0036 207.2399 270.5693
TCL: Running FEP window   7: Lambda1 0.3    Lambda2 0.35   [dLambda 0.04999999999999999]
TCL: Setting parameter firsttimestep to 0
TCL: Setting parameter alchLambda to 0.3
Info: NONBONDED TABLE R-SQUARED SPACING: 0.0625
Info: NONBONDED TABLE SIZE: 705 POINTS
TCL: Setting parameter alchLambda2 to 0.35
Info: NONBONDED TABLE R-SQUARED SPACING: 0.0625
Info: NONBONDED TABLE SIZE: 705 POINTS
TCL: Running for 1500000 steps
ETITLE: TS BOND ANGLE DIHED IMPRP ELECT VDW BOUNDARY MISC KINETIC TOTAL TEMP POTENTIAL TOTALAVG TEMPAVG PRESSURE GPRESSURE VOLUME PRESSAVG GPRESSAVG
ENERGY: 0 6.2535 4.9673 7.5114 0.0000 -10568.2271 1339.2637 0.0000 0.0000 1711.9319 -7498.2994 291.0908 -9210.2312 -7498.2994 291.0908 -1230.7820 -1143.8024 30808.0036 -1230.7820 -1143.8024
ENERGY: 300000 5.6180 6.2802 2.3188 0.0000 -10769.2896 1522.1336 0.0000 0.0000 1757.9322 -7475.0066 298.9126 -9232.9389 -7457.4006 298.4356 752.2510 764.8432 30236.2143 -279.0372 -213.9541
ENERGY: 600000 1.3720 5.1103 4.6620 0.0000 -10661.3608 1412.3150 0.0000 0.0000 1801.7018 -7436.1997 306.3550 -9237.9015 -7432.8961 300.0018 -3.4248 34.6788 30331.6604 -138.9393 -60.6806
ENERGY: 900000 1.4727 4.8014 7.9284 0.0000 -10771.4881 1472.1207 0.0000 0.0000 1734.3590 -7550.8060 294.9043 -9285.1650 -7457.0943 298.6754 182.8529 176.9270 30292.5393 27.3313 94.8470
ENERGY: 1200000 3.2493 5.5406 6.7890 0.0000 -10683.1427 1462.4956 0.0000 0.0000 1756.0473 -7449.0210 298.5921 -9205.0682 -7456.6724 299.1552 114.6939 153.1039 30612.2858 47.9686 109.3013
ENERGY: 1500000 3.5144 8.6901 5.7444 0.0000 -10725.7197 1479.7481 0.0000 0.0000 1771.4606 -7456.5622 301.2129 -9228.0228 -7463.9728 298.9348 398.7342 424.4722 30192.4398 93.2660 153.6310
TCL: Running FEP window   8: Lambda1 0.35   Lambda2 0.39999999999999997 [dLambda 0.04999999999999999]
TCL: Setting parameter firsttimestep to 0
TCL: Setting parameter alchLambda to 0.35
Info: NONBONDED TABLE R-SQUARED SPACING: 0.0625
Info: NONBONDED TABLE SIZE: 705 POINTS
TCL: Setting parameter alchLambda2 to 0.39999999999999997
Info: NONBONDED TABLE R-SQUARED SPACING: 0.0625
Info: NONBONDED TABLE SIZE: 705 POINTS
TCL: Running for 1500000 steps
ETITLE: TS BOND ANGLE DIHED IMPRP ELECT VDW BOUNDARY MISC KINETIC TOTAL TEMP POTENTIAL TOTALAVG TEMPAVG PRESSURE GPRESSURE VOLUME PRESSAVG GPRESSAVG
ENERGY: 0 3.5144 8.6901 5.7444 0.0000 -10725.7188 1479.5897 0.0000 0.0000 1770.5989 -7457.5813 301.0664 -9228.1802 -7457.5813 301.0664 333.2142 430.2181 30192.4398 333.2142 430.2181
ENERGY: 300000 3.5486 7.7040 3.5727 0.0000 -10729.9954 1489.9932 0.0000 0.0000 1789.2058 -7435.9710 304.2302 -9225.1768 -7445.3316 302.5317 271.8547 335.1250 30389.8767 176.6862 247.9460
ENERGY: 600000 4.4120 7.1883 6.3317 0.0000 -10604.6975 1384.6428 0.0000 0.0000 1773.4846 -7428.6381 301.5570 -9202.1227 -7470.5061 301.2143 -377.9893 -298.2284 30250.2090 19.9049 97.7398
ENERGY: 900000 2.6680 5.2921 5.0850 0.0000 -10479.4180 1349.3299 0.0000 0.0000 1747.7121 -7369.3309 297.1748 -9117.0430 -7458.9563 300.3367 -221.7056 -201.8567 30472.1179 20.2833 83.6196
ENERGY: 1200000 3.9081 3.2078 8.3356 0.0000 -10765.9749 1457.1238 0.0000 0.0000 1810.8859 -7482.5137 307.9166 -9293.3996 -7469.2775 300.1991 -10.7750 -19.5476 30157.9439 -49.0331 3.5335
ENERGY: 1500000 4.0791 4.2803 6.4951 0.0000 -10769.3979 1515.9482 0.0000 0.0000 1779.5424 -7459.0528 302.5871 -9238.5952 -7469.5405 299.9633 798.9188 909.4623 29842.3379 60.3890 115.8501
TCL: Running FEP window   9: Lambda1 0.39999999999999997 Lambda2 0.44999999999999996 [dLambda 0.04999999999999999]
TCL: Setting parameter firsttimestep to 0
TCL: Setting parameter alchLambda to 0.39999999999999997
Info: NONBONDED TABLE R-SQUARED SPACING: 0.0625
Info: NONBONDED TABLE SIZE: 705 POINTS
TCL: Setting parameter alchLambda2 to 0.44999999999999996
Info: NONBONDED TABLE R-SQUARED SPACING: 0.0625
Info: NONBONDED TABLE SIZE: 705 POINTS
TCL: Running for 1500000 steps
ETITLE: TS BOND ANGLE DIHED IMPRP ELECT VDW BOUNDARY MISC KINETIC TOTAL TEMP POTENTIAL TOTALAVG TEMPAVG PRESSURE GPRESSURE VOLUME PRESSAVG GPRESSAVG
ENERGY: 0 4.0791 4.2803 6.4951 0.0000 -10769.3983 1515.4059 0.0000 0.0000 1778.6711 -7460.4668 302.4389 -9239.1379 -7460.4668 302.4389 849.1273 908.9043 29842.3379 849.1273 908.9043
ENERGY: 300000 2.8129 4.5997 4.4144 0.0000 -10771.3089 1524.1795 0.0000 0.0000 1795.0177 -7440.2847 305.2184 -9235.3024 -7476.2594 301.2603 721.0060 756.9380 30105.4959 92.3772 138.6149
ENERGY: 600000 1.8761 4.4636 5.8671 0.0000 -10683.4396 1453.4411 0.0000 0.0000 1823.3603 -7394.4314 310.0377 -9217.7917 -7478.1848 301.9534 91.1993 177.0309 30589.8372 139.0589 203.9497
ENERGY: 900000 1.9083 7.7816 8.2355 0.0000 -10710.6935 1426.1687 0.0000 0.0000 1744.2519 -7522.3475 296.5864 -9266.5994 -7474.9540 301.4415 -80.4145 44.5392 29866.5778 97.3920 166.0473
ENERGY: 1200000 3.4311 5.0005 4.5193 0.0000 -10735.8023 1466.2935 0.0000 0.0000 1756.2437 -7500.3142 298.6255 -9256.5579 -7480.3103 300.9182 84.7433 137.8177 30372.9377 53.8831 115.8448
ENERGY: 1500000 2.5452 7.3571 5.7056 0.0000 -10829.9777 1534.4040 0.0000 0.0000 1781.0683 -7498.8975 302.8465 -9279.9658 -7476.6649 300.9905 850.5907 938.4954 30093.4582 92.4449 148.6776
TCL: Running FEP window  10: Lambda1 0.44999999999999996 Lambda2 0.49999999999999994 [dLambda 0.04999999999999999]
TCL: Setting parameter firsttimestep to 0
TCL: Setting parameter alchLambda to 0.44999999999999996
Info: NONBONDED TABLE R-SQUARED SPACING: 0.0625
Info: NONBONDED TABLE SIZE: 705 POINTS
TCL: Setting parameter alchLambda2 to 0.49999999999999994
Info: NONBONDED TABLE R-SQUARED SPACING: 0.0625
Info: NONBONDED TABLE SIZE: 705 POINTS
TCL: Running for 1500000 steps
ETITLE: TS BOND ANGLE DIHED IMPRP ELECT VDW BOUNDARY MISC KINETIC TOTAL TEMP POTENTIAL TOTALAVG TEMPAVG PRESSURE GPRESSURE VOLUME PRESSAVG GPRESSAVG
ENERGY: 0 2.5452 7.3571 5.7056 0.0000 -10829.9796 1535.1376 0.0000 0.0000 1780.1861 -7499.0479 302.6965 -9279.2340 -7499.0479 302.6965 868.5751 952.4904 30093.4582 868.5751 952.4904
ENERGY: 300000 4.6374 4.6442 5.9089 0.0000 -10627.8487 1361.6545 0.0000 0.0000 1754.9410 -7496.0628 298.4039 -9251.0037 -7507.6376 298.0822 -681.1314 -635.3185 30440.5684 219.7523 268.5117
ENERGY: 600000 5.3602 4.4982 5.4063 0.0000 -10677.8807 1422.1128 0.0000 0.0000 1806.1942 -7434.3090 307.1189 -9240.5032 -7486.2971 300.5072 -218.4020 -219.7101 30443.3826 -47.0617 0.5138
ENERGY: 900000 1.3663 4.3662 3.3597 0.0000 -10587.2934 1395.7078 0.0000 0.0000 1735.2302 -7447.2633 295.0524 -9182.4935 -7473.5433 300.2173 -99.1793 -49.5048 30240.6207 -120.9057 -75.3773
ENERGY: 1200000 1.7739 7.0022 9.4370 0.0000 -10697.3637 1438.3437 0.0000 0.0000 1801.7206 -7439.0863 306.3582 -9240.8069 -7473.0599 300.4712 -156.5977 -76.6750 30440.2918 -134.1947 -74.6402
ENERGY: 1500000 2.6234 5.5583 5.3747 0.0000 -10815.7063 1507.0819 0.0000 0.0000 1781.6662 -7513.4017 302.9482 -9295.0679 -7482.7095 300.6200 334.6871 401.2886 30105.6224 -122.1581 -59.0606
TCL: Running FEP window  11: Lambda1 0.49999999999999994 Lambda2 0.5499999999999999 [dLambda 0.04999999999999999]
TCL: Setting parameter firsttimestep to 0
TCL: Setting parameter alchLambda to 0.49999999999999994
Info: NONBONDED TABLE R-SQUARED SPACING: 0.0625
Info: NONBONDED TABLE SIZE: 705 POINTS
TCL: Setting parameter alchLambda2 to 0.5499999999999999
Info: NONBONDED TABLE R-SQUARED SPACING: 0.0625
Info: NONBONDED TABLE SIZE: 705 POINTS
TCL: Running for 1500000 steps
ETITLE: TS BOND ANGLE DIHED IMPRP ELECT VDW BOUNDARY MISC KINETIC TOTAL TEMP POTENTIAL TOTALAVG TEMPAVG PRESSURE GPRESSURE VOLUME PRESSAVG GPRESSAVG
ENERGY: 0 2.6234 5.5584 5.3747 0.0000 -10815.7056 1506.7010 0.0000 0.0000 1780.7868 -7514.6613 302.7987 -9295.4481 -7514.6613 302.7987 336.0601 409.1625 30105.6224 336.0601 409.1625
ENERGY: 300000 3.5148 6.7340 7.3551 0.0000 -10592.1451 1358.9413 0.0000 0.0000 1817.5665 -7398.0333 309.0526 -9215.5998 -7456.5134 299.0765 -520.0111 -402.9027 30262.6049 -196.5459 -123.3283
ENERGY: 600000 0.9831 4.8089 6.3072 0.0000 -10691.2626 1493.6240 0.0000 0.0000 1743.4340 -7442.1053 296.4473 -9185.5394 -7457.6854 299.1989 501.3391 623.7157 30556.5617 -71.0825 3.5015
ENERGY: 900000 2.3168 5.3975 3.0756 0.0000 -10634.1049 1399.2439 0.0000 0.0000 1747.0539 -7477.0173 297.0629 -9224.0712 -7474.5553 299.3768 -597.2811 -521.6940 30855.4361 -129.5711 -59.2241
ENERGY: 1200000 3.4180 6.6074 6.3229 0.0000 -10886.6125 1607.1451 0.0000 0.0000 1750.7744 -7512.3447 297.6955 -9263.1191 -7475.0013 299.3277 1147.6061 1225.4105 30320.6349 -75.9522 0.8181
ENERGY: 1500000 1.0309 5.2172 3.2525 0.0000 -10618.9374 1358.5329 0.0000 0.0000 1799.0791 -7451.8248 305.9090 -9250.9040 -7468.9145 300.5654 -654.4221 -518.1490 30447.9804 -122.8406 -50.2613
TCL: Running FEP window  12: Lambda1 0.5499999999999999 Lambda2 0.6    [dLambda 0.050000000000000044]
TCL: Setting parameter firsttimestep to 0
TCL: Setting parameter alchLambda to 0.5499999999999999
Info: NONBONDED TABLE R-SQUARED SPACING: 0.0625
Info: NONBONDED TABLE SIZE: 705 POINTS
TCL: Setting parameter alchLambda2 to 0.6
Info: NONBONDED TABLE R-SQUARED SPACING: 0.0625
Info: NONBONDED TABLE SIZE: 705 POINTS
TCL: Running for 1500000 steps
ETITLE: TS BOND ANGLE DIHED IMPRP ELECT VDW BOUNDARY MISC KINETIC TOTAL TEMP POTENTIAL TOTALAVG TEMPAVG PRESSURE GPRESSURE VOLUME PRESSAVG GPRESSAVG
ENERGY: 0 1.0309 5.2172 3.2525 0.0000 -10619.0525 1358.1540 0.0000 0.0000 1798.1935 -7453.2044 305.7584 -9251.3979 -7453.2044 305.7584 -606.4590 -516.1586 30447.9804 -606.4590 -516.1586
ENERGY: 300000 2.1420 7.0243 9.1666 0.0000 -10726.2809 1447.3158 0.0000 0.0000 1803.9181 -7456.7140 306.7318 -9260.6322 -7476.9678 302.8394 17.3211 71.8411 30390.7243 -162.1382 -106.1101
ENERGY: 600000 3.9158 8.5728 3.1061 0.0000 -10719.7369 1400.2282 0.0000 0.0000 1744.7511 -7559.1628 296.6713 -9303.9140 -7489.5733 302.0292 -291.3200 -236.1904 30045.5157 -298.9540 -242.6971
ENERGY: 900000 2.4026 4.6879 6.5045 0.0000 -10802.3642 1505.5646 0.0000 0.0000 1822.2687 -7460.9359 309.8521 -9283.2046 -7479.7253 303.2233 625.9299 618.8083 30256.1365 -126.8384 -70.4827
ENERGY: 1200000 2.8922 6.0279 6.2814 0.0000 -10796.6224 1485.2272 0.0000 0.0000 1772.4802 -7523.7135 301.3862 -9296.1937 -7486.8895 302.1321 18.7310 147.0784 30660.7575 -41.4162 28.2814
ENERGY: 1500000 2.6017 4.1907 5.9470 0.0000 -10798.6438 1428.5246 0.0000 0.0000 1788.4522 -7568.9277 304.1021 -9357.3799 -7495.5371 301.5708 -230.6447 -147.0241 30108.6711 -66.8558 5.3584
TCL: Running FEP window  13: Lambda1 0.6    Lambda2 0.65   [dLambda 0.050000000000000044]
TCL: Setting parameter firsttimestep to 0
TCL: Setting parameter alchLambda to 0.6
Info: NONBONDED TABLE R-SQUARED SPACING: 0.0625
Info: NONBONDED TABLE SIZE: 705 POINTS
TCL: Setting parameter alchLambda2 to 0.65
Info: NONBONDED TABLE R-SQUARED SPACING: 0.0625
Info: NONBONDED TABLE SIZE: 705 POINTS
TCL: Running for 1500000 steps
ETITLE: TS BOND ANGLE DIHED IMPRP ELECT VDW BOUNDARY MISC KINETIC TOTAL TEMP POTENTIAL TOTALAVG TEMPAVG PRESSURE GPRESSURE VOLUME PRESSAVG GPRESSAVG
ENERGY: 0 2.6017 4.1907 5.9470 0.0000 -10799.1822 1428.5150 0.0000 0.0000 1787.5639 -7570.3639 303.9510 -9357.9278 -7570.3639 303.9510 -213.4824 -140.4794 30108.6711 -213.4824 -140.4794
ENERGY: 300000 4.7845 3.7784 6.7025 0.0000 -10793.2295 1510.4381 0.0000 0.0000 1824.3555 -7443.1705 310.2070 -9267.5260 -7476.8531 304.5859 498.4546 533.0428 30289.2065 -36.5974 -2.6665
ENERGY: 600000 3.1586 8.5802 1.8212 0.0000 -10735.5762 1498.2234 0.0000 0.0000 1818.4608 -7405.3321 309.2046 -9223.7928 -7457.5556 302.8261 460.1793 468.5561 30394.2300 -138.1829 -99.9843
ENERGY: 900000 1.6062 6.6248 4.0911 0.0000 -10699.0437 1439.9021 0.0000 0.0000 1755.3010 -7491.5185 298.4652 -9246.8195 -7478.9032 301.0734 -110.0881 -64.2425 30570.2867 -151.0310 -120.6301
ENERGY: 1200000 1.4418 7.4400 4.0396 0.0000 -10568.1345 1351.7353 0.0000 0.0000 1717.2626 -7486.2153 291.9972 -9203.4779 -7477.8709 299.3003 -646.8828 -507.7797 30418.5800 -60.4918 -18.3152
ENERGY: 1500000 4.9968 5.9446 6.5707 0.0000 -10823.9502 1513.1546 0.0000 0.0000 1730.9038 -7562.3798 294.3167 -9293.2836 -7489.0574 299.5946 463.6691 529.5173 29797.2598 -52.0411 -5.5689
TCL: Running FEP window  14: Lambda1 0.65   Lambda2 0.7000000000000001 [dLambda 0.050000000000000044]
TCL: Setting parameter firsttimestep to 0
TCL: Setting parameter alchLambda to 0.65
Info: NONBONDED TABLE R-SQUARED SPACING: 0.0625
Info: NONBONDED TABLE SIZE: 705 POINTS
TCL: Setting parameter alchLambda2 to 0.7000000000000001
Info: NONBONDED TABLE R-SQUARED SPACING: 0.0625
Info: NONBONDED TABLE SIZE: 705 POINTS
TCL: Running for 1500000 steps
ETITLE: TS BOND ANGLE DIHED IMPRP ELECT VDW BOUNDARY MISC KINETIC TOTAL TEMP POTENTIAL TOTALAVG TEMPAVG PRESSURE GPRESSURE VOLUME PRESSAVG GPRESSAVG
ENERGY: 0 4.9968 5.9446 6.5707 0.0000 -10824.4830 1512.9768 0.0000 0.0000 1730.0352 -7563.9591 294.1690 -9293.9942 -7563.9591 294.1690 439.7163 533.6194 29797.2598 439.7163 533.6194
ENERGY: 300000 2.8805 7.8227 5.0696 0.0000 -10752.6444 1476.7039 0.0000 0.0000 1751.3698 -7508.7977 297.7967 -9260.1675 -7504.9439 296.0566 450.1543 508.1247 29864.7623 188.9152 238.0830
ENERGY: 600000 2.7023 6.3154 3.2583 0.0000 -10745.4712 1481.0831 0.0000 0.0000 1802.9040 -7449.2081 306.5594 -9252.1121 -7498.3235 298.5523 565.4090 588.4464 30153.4075 51.7161 80.7673
ENERGY: 900000 2.5014 4.8923 5.6426 0.0000 -10750.8154 1450.1587 0.0000 0.0000 1738.7220 -7548.8984 295.6461 -9287.6204 -7497.3658 298.7582 98.0490 133.9339 30149.4237 -8.0498 25.4156
ENERGY: 1200000 3.1008 7.8466 5.0515 0.0000 -10640.2665 1337.1310 0.0000 0.0000 1740.2475 -7546.8892 295.9055 -9287.1366 -7505.1461 298.4899 -800.6562 -748.5649 30247.3018 -122.1610 -92.2646
ENERGY: 1500000 2.2132 4.0273 6.1068 0.0000 -10625.8314 1338.3174 0.0000 0.0000 1802.4063 -7472.7604 306.4748 -9275.1667 -7501.4504 299.3727 -1042.2135 -965.3469 30824.1412 -202.4245 -162.9976
TCL: Running FEP window  15: Lambda1 0.7000000000000001 Lambda2 0.7500000000000001 [dLambda 0.050000000000000044]
TCL: Setting parameter firsttimestep to 0
TCL: Setting parameter alchLambda to 0.7000000000000001
Info: NONBONDED TABLE R-SQUARED SPACING: 0.0625
Info: NONBONDED TABLE SIZE: 705 POINTS
TCL: Setting parameter alchLambda2 to 0.7500000000000001
Info: NONBONDED TABLE R-SQUARED SPACING: 0.0625
Info: NONBONDED TABLE SIZE: 705 POINTS
TCL: Running for 1500000 steps
ETITLE: TS BOND ANGLE DIHED IMPRP ELECT VDW BOUNDARY MISC KINETIC TOTAL TEMP POTENTIAL TOTALAVG TEMPAVG PRESSURE GPRESSURE VOLUME PRESSAVG GPRESSAVG
ENERGY: 0 2.2132 4.0273 6.1068 0.0000 -10626.0879 1337.9008 0.0000 0.0000 1801.5559 -7474.2839 306.3302 -9275.8398 -7474.2839 306.3302 -1045.7776 -964.7717 30824.1412 -1045.7776 -964.7717
ENERGY: 300000 3.2013 7.1792 5.7185 0.0000 -10685.2715 1459.2580 0.0000 0.0000 1739.4385 -7470.4760 295.7680 -9209.9145 -7482.7554 299.5003 175.6792 175.3461 30550.4564 -145.2099 -89.9276
ENERGY: 600000 1.7225 3.8258 4.2419 0.0000 -10658.4520 1370.0392 0.0000 0.0000 1769.9269 -7508.6956 300.9521 -9278.6225 -7495.9635 298.8886 -378.7125 -352.8241 30225.8606 -209.6812 -156.6059
ENERGY: 900000 1.8862 4.8812 2.9613 0.0000 -10700.6535 1406.8797 0.0000 0.0000 1788.8788 -7495.1664 304.1746 -9284.0452 -7480.0535 300.1615 -117.8173 -71.5038 30109.2214 -61.3156 -14.1979
ENERGY: 1200000 4.9120 7.4482 5.8300 0.0000 -10614.7038 1445.2224 0.0000 0.0000 1754.0739 -7397.2172 298.2565 -9151.2912 -7469.1463 300.5145 -110.0326 -42.3173 30981.8347 -146.7814 -96.8608
ENERGY: 1500000 2.9174 4.7143 9.8467 0.0000 -10693.7591 1395.2144 0.0000 0.0000 1814.3904 -7466.6759 308.5125 -9281.0663 -7476.6511 299.9116 -389.3980 -289.8519 30329.7148 -144.6567 -90.1702
TCL: Running FEP window  16: Lambda1 0.7500000000000001 Lambda2 0.8000000000000002 [dLambda 0.050000000000000044]
TCL: Setting parameter firsttimestep to 0
TCL: Setting parameter alchLambda to 0.7500000000000001
Info: NONBONDED TABLE R-SQUARED SPACING: 0.0625
Info: NONBONDED TABLE SIZE: 705 POINTS
TCL: Setting parameter alchLambda2 to 0.8000000000000002
Info: NONBONDED TABLE R-SQUARED SPACING: 0.0625
Info: NONBONDED TABLE SIZE: 705 POINTS
TCL: Running for 1500000 steps
ETITLE: TS BOND ANGLE DIHED IMPRP ELECT VDW BOUNDARY MISC KINETIC TOTAL TEMP POTENTIAL TOTALAVG TEMPAVG PRESSURE GPRESSURE VOLUME PRESSAVG GPRESSAVG
ENERGY: 0 2.9174 4.7143 9.8467 0.0000 -10695.0478 1395.5798 0.0000 0.0000 1813.4843 -7468.5053 308.3584 -9281.9896 -7468.5053 308.3584 -365.3538 -278.3367 30329.7148 -365.3538 -278.3367
ENERGY: 300000 3.5037 5.0596 6.4148 0.0000 -10477.6071 1302.4367 0.0000 0.0000 1750.1576 -7410.0347 297.5906 -9160.1923 -7463.5896 301.2613 -1056.2078 -1007.4460 30609.8048 -161.1183 -110.8924
ENERGY: 600000 2.5492 7.4895 2.7686 0.0000 -10786.7663 1513.1262 0.0000 0.0000 1805.2710 -7455.5619 306.9619 -9260.8328 -7474.5716 300.5903 569.8550 613.9284 30291.3574 57.6923 118.8505
ENERGY: 900000 4.5967 4.2289 7.8745 0.0000 -10633.0990 1386.8950 0.0000 0.0000 1739.7752 -7489.7287 295.8252 -9229.5039 -7481.8872 300.7492 -201.7208 -176.8401 30498.0598 -48.0624 16.3297
ENERGY: 1200000 4.4787 5.1742 4.8274 0.0000 -10672.4309 1379.9007 0.0000 0.0000 1800.1800 -7477.8700 306.0962 -9278.0500 -7479.0433 301.3828 -798.0986 -736.9100 30549.2654 -92.1604 -31.4216
ENERGY: 1500000 3.2316 7.8271 6.9265 0.0000 -10670.7183 1432.5421 0.0000 0.0000 1720.0802 -7500.1108 292.4763 -9220.1910 -7484.2680 300.1802 -249.1728 -152.1814 30694.6679 -118.3459 -50.6415
TCL: Running FEP window  17: Lambda1 0.8000000000000002 Lambda2 0.8500000000000002 [dLambda 0.050000000000000044]
TCL: Setting parameter firsttimestep to 0
TCL: Setting parameter alchLambda to 0.8000000000000002
Info: NONBONDED TABLE R-SQUARED SPACING: 0.0625
Info: NONBONDED TABLE SIZE: 705 POINTS
TCL: Setting parameter alchLambda2 to 0.8500000000000002
Info: NONBONDED TABLE R-SQUARED SPACING: 0.0625
Info: NONBONDED TABLE SIZE: 705 POINTS
TCL: Running for 1500000 steps
ETITLE: TS BOND ANGLE DIHED IMPRP ELECT VDW BOUNDARY MISC KINETIC TOTAL TEMP POTENTIAL TOTALAVG TEMPAVG PRESSURE GPRESSURE VOLUME PRESSAVG GPRESSAVG
ENERGY: 0 3.2316 7.8271 6.9265 0.0000 -10672.7727 1435.3596 0.0000 0.0000 1719.2118 -7500.2161 292.3287 -9219.4279 -7500.2161 292.3287 -201.2148 -121.4245 30694.6679 -201.2148 -121.4245
ENERGY: 300000 1.4380 4.6538 6.6259 0.0000 -10704.9078 1403.1860 0.0000 0.0000 1755.3664 -7533.6377 298.4763 -9289.0041 -7512.4289 297.7725 -665.6629 -600.4770 30993.0388 -6.4376 67.6739
ENERGY: 600000 5.0414 6.7737 9.0540 0.0000 -10571.3930 1377.9614 0.0000 0.0000 1745.5766 -7426.9860 296.8117 -9172.5625 -7483.6414 298.9520 -549.6389 -502.7794 30739.7640 38.3120 112.8784
ENERGY: 900000 1.2325 5.2280 3.7133 0.0000 -10693.8203 1413.4383 0.0000 0.0000 1798.3209 -7471.8874 305.7801 -9270.2083 -7479.6047 300.9568 -59.6785 18.1466 30199.5864 85.1277 159.3661
ENERGY: 1200000 2.4644 3.3395 6.7135 0.0000 -10625.9147 1428.4166 0.0000 0.0000 1802.9427 -7382.0380 306.5660 -9184.9807 -7475.1062 300.5113 -10.3666 15.0311 30863.5428 62.2342 126.1191
ENERGY: 1500000 2.0155 1.9813 5.8180 0.0000 -10772.5071 1424.5692 0.0000 0.0000 1738.5086 -7599.6146 295.6098 -9338.1232 -7478.4697 300.5521 -314.3623 -210.5764 30269.0427 29.5439 96.6078
TCL: Running FEP window  18: Lambda1 0.8500000000000002 Lambda2 0.9000000000000002 [dLambda 0.050000000000000044]
TCL: Setting parameter firsttimestep to 0
TCL: Setting parameter alchLambda to 0.8500000000000002
Info: NONBONDED TABLE R-SQUARED SPACING: 0.0625
Info: NONBONDED TABLE SIZE: 705 POINTS
TCL: Setting parameter alchLambda2 to 0.9000000000000002
Info: NONBONDED TABLE R-SQUARED SPACING: 0.0625
Info: NONBONDED TABLE SIZE: 705 POINTS
TCL: Running for 1500000 steps
ETITLE: TS BOND ANGLE DIHED IMPRP ELECT VDW BOUNDARY MISC KINETIC TOTAL TEMP POTENTIAL TOTALAVG TEMPAVG PRESSURE GPRESSURE VOLUME PRESSAVG GPRESSAVG
ENERGY: 0 2.0155 1.9813 5.8180 0.0000 -10774.7977 1425.2511 0.0000 0.0000 1737.6177 -7602.1142 295.4584 -9339.7319 -7602.1142 295.4584 -300.4743 -192.6618 30269.0427 -300.4743 -192.6618
ENERGY: 300000 2.3681 5.7079 7.2254 0.0000 -10673.4223 1490.0438 0.0000 0.0000 1761.4450 -7406.6321 299.5099 -9168.0771 -7466.5830 301.1992 486.4721 478.0149 30822.6887 -12.7595 37.0749
ENERGY: 600000 6.3892 5.4798 6.3023 0.0000 -10685.5144 1420.8698 0.0000 0.0000 1746.6257 -7499.8476 296.9901 -9246.4733 -7473.9632 301.3777 -382.4552 -401.5252 30876.9856 -23.9567 20.0359
ENERGY: 900000 2.0665 6.3733 6.3020 0.0000 -10831.8130 1512.1310 0.0000 0.0000 1737.8966 -7567.0437 295.5058 -9304.9403 -7486.3461 300.3808 583.7991 655.3366 30236.2460 129.2415 181.0102
ENERGY: 1200000 1.4449 6.6302 8.7161 0.0000 -10708.5768 1409.8696 0.0000 0.0000 1752.0255 -7529.8905 297.9082 -9281.9159 -7501.5327 299.3937 -360.4365 -311.3126 30583.5522 -2.0565 55.1457
ENERGY: 1500000 2.3402 4.9307 8.5642 0.0000 -10753.0512 1448.7930 0.0000 0.0000 1747.2888 -7541.1343 297.1028 -9288.4232 -7495.4978 300.0122 2.6368 40.6104 30327.4083 3.9501 59.4587
TCL: Running FEP window  19: Lambda1 0.9000000000000002 Lambda2 0.9500000000000003 [dLambda 0.050000000000000044]
TCL: Setting parameter firsttimestep to 0
TCL: Setting parameter alchLambda to 0.9000000000000002
Info: NONBONDED TABLE R-SQUARED SPACING: 0.0625
Info: NONBONDED TABLE SIZE: 705 POINTS
TCL: Setting parameter alchLambda2 to 0.9500000000000003
Info: NONBONDED TABLE R-SQUARED SPACING: 0.0625
Info: NONBONDED TABLE SIZE: 705 POINTS
TCL: Running for 1500000 steps
ETITLE: TS BOND ANGLE DIHED IMPRP ELECT VDW BOUNDARY MISC KINETIC TOTAL TEMP POTENTIAL TOTALAVG TEMPAVG PRESSURE GPRESSURE VOLUME PRESSAVG GPRESSAVG
ENERGY: 0 2.3402 4.9307 8.5642 0.0000 -10754.9031 1448.9030 0.0000 0.0000 1746.4306 -7543.7344 296.9569 -9290.1650 -7543.7344 296.9569 -36.9499 51.2493 30327.4083 -36.9499 51.2493
ENERGY: 300000 2.9880 7.7658 5.0811 0.0000 -10796.7081 1518.8225 0.0000 0.0000 1751.4604 -7510.5902 297.8121 -9262.0507 -7491.7154 302.5725 271.5773 404.1669 30859.5499 -179.1975 -93.4700
ENERGY: 600000 1.9202 5.3115 3.3984 0.0000 -10751.8691 1410.2490 0.0000 0.0000 1742.5063 -7588.4837 296.2896 -9330.9900 -7493.4955 301.4796 -175.5483 -117.8180 29826.6376 -159.1607 -90.5258
ENERGY: 900000 2.4562 5.8548 7.4284 0.0000 -10683.0329 1354.4748 0.0000 0.0000 1785.3759 -7527.4427 303.5790 -9312.8187 -7496.8938 301.4675 -654.8398 -649.0307 30160.8610 -67.5539 -11.1548
ENERGY: 1200000 1.9056 4.4012 5.2404 0.0000 -10660.4444 1442.2890 0.0000 0.0000 1754.8821 -7451.7261 298.3939 -9206.6082 -7484.5472 301.3750 89.4073 41.9596 30891.8965 -92.2583 -44.3692
ENERGY: 1500000 3.0184 9.3582 4.9935 0.0000 -10715.9839 1462.8772 0.0000 0.0000 1769.6657 -7466.0710 300.9077 -9235.7367 -7482.8360 300.8084 184.4253 253.0823 30305.5191 -104.4099 -54.1708
TCL: Running FEP window  20: Lambda1 0.9500000000000003 Lambda2 1.0    [dLambda 0.04999999999999971]
TCL: Setting parameter firsttimestep to 0
TCL: Setting parameter alchLambda to 0.9500000000000003
Info: NONBONDED TABLE R-SQUARED SPACING: 0.0625
Info: NONBONDED TABLE SIZE: 705 POINTS
TCL: Setting parameter alchLambda2 to 1.0
Info: NONBONDED TABLE R-SQUARED SPACING: 0.0625
Info: NONBONDED TABLE SIZE: 705 POINTS
TCL: Running for 1500000 steps
ETITLE: TS BOND ANGLE DIHED IMPRP ELECT VDW BOUNDARY MISC KINETIC TOTAL TEMP POTENTIAL TOTALAVG TEMPAVG PRESSURE GPRESSURE VOLUME PRESSAVG GPRESSAVG
ENERGY: 0 3.0183 9.3582 4.9935 0.0000 -10718.4268 1464.1181 0.0000 0.0000 1768.8038 -7468.1348 300.7611 -9236.9386 -7468.1348 300.7611 197.7424 278.2036 30305.5191 197.7424 278.2036
ENERGY: 300000 1.3619 3.8487 3.4663 0.0000 -10666.7506 1393.5964 0.0000 0.0000 1772.7351 -7491.7423 301.4296 -9264.4774 -7533.2518 297.2087 -352.8539 -309.3897 30439.3872 114.9233 167.1409
ENERGY: 600000 3.2026 2.3562 8.1710 0.0000 -10682.0146 1389.5714 0.0000 0.0000 1789.4153 -7489.2981 304.2658 -9278.7135 -7527.1738 298.3754 -514.5250 -426.1556 30554.3035 29.0822 81.7012
ENERGY: 900000 3.2286 4.5138 8.2853 0.0000 -10707.7755 1444.6331 0.0000 0.0000 1808.9051 -7438.2098 307.5798 -9247.1148 -7521.9372 298.9716 283.0580 375.2542 30054.6979 -2.1542 57.7179
ENERGY: 1200000 4.1917 4.3821 7.2896 0.0000 -10697.7744 1463.9727 0.0000 0.0000 1831.1315 -7386.8068 311.3591 -9217.9383 -7508.1689 300.1073 411.3063 463.0539 30370.4899 34.5317 98.9456
ENERGY: 1500000 0.8147 5.2691 2.3942 0.0000 -10789.0544 1455.8830 0.0000 0.0000 1768.9203 -7555.7731 300.7809 -9324.6934 -7499.8408 301.0021 -29.6444 -42.6187 30464.8327 -42.3598 15.9348
TCL: Exiting due to exit command.
