Info: SIMULATION PARAMETERS:
Info: TIMESTEP               2
Info: NUMBER OF STEPS        0
Info: STEPS PER CYCLE        10
Info: PERIODIC CELL BASIS 1  30.4 0 0
Info: PERIODIC CELL BASIS 2  0 29.809 0
Info: PERIODIC CELL BASIS 3  0 0 33.2829
Info: PERIODIC CELL CENTER   0 0 0
Info: WRAPPING WATERS AROUND PERIODIC BOUNDARIES ON OUTPUT.
Info: WRAPPING ALL CLUSTERS AROUND PERIODIC BOUNDARIES ON OUTPUT.
Info: FIRST LDB TIMESTEP     50
Info: LAST LDB TIMESTEP     -1
Info: HOM BACKGROUND SCALING 1
Info: PME BACKGROUND SCALING 1
Info: MIN ATOMS PER PATCH    40
Info: EMPTY PATCH LOAD       40 ATOMS
Info: VELOCITY FILE          mobley_1189457_equil.vel
Info: CENTER OF MASS MOVING INITIALLY? NO
Info: DIELECTRIC             1
Info: EXCLUDE                SCALED ONE-FOUR
Info: 1-4 ELECTROSTATICS SCALED BY 0.833333
Info: MODIFIED 1-4 VDW PARAMETERS WILL BE USED
Info: DCD FILENAME           mobley_1189457_prod.dcd
Info: DCD FREQUENCY          100000
Info: DCD FIRST STEP         100000
Info: DCD FILE WILL CONTAIN UNIT CELL DATA
Info: XST FILENAME           mobley_1189457_prod.xst
Info: XST FREQUENCY          100000
Info: NO VELOCITY DCD OUTPUT
Info: NO FORCE DCD OUTPUT
Info: OUTPUT FILENAME        mobley_1189457_prod
Info: BINARY OUTPUT FILES WILL BE USED
Info: RESTART FILENAME       mobley_1189457_prod.restart
Info: RESTART FREQUENCY      100000
Info: BINARY RESTART FILES WILL BE USED
Info: CUTOFF                 9
Info: PAIRLIST DISTANCE      11
Info: PAIRLIST SHRINK RATE   0.01
Info: PAIRLIST GROW RATE     0.01
Info: PAIRLIST TRIGGER       0.3
Info: PAIRLISTS PER CYCLE    2
Info: PAIRLISTS ENABLED
Info: MARGIN                 2
Info: HYDROGEN GROUP CUTOFF  2.5
Info: PATCH DIMENSION        15.5
Info: ENERGY OUTPUT STEPS    100000
Info: ENERGY EVALUATION STEPS    100000
Info: OUTPUT ENERGY PRECISION 4
Info: CROSSTERM ENERGY INCLUDED IN DIHEDRAL
Info: TIMING OUTPUT STEPS    1000000
Info: PRESSURE OUTPUT STEPS  100000
Info: ALCHEMICAL FEP ON
Info: FEP CURRENT LAMBDA VALUE     0
Info: FEP COMPARISON LAMBDA VALUE  0.05
Info: FEP INTRA-ALCHEMICAL NON-BONDED INTERACTIONS WILL BE RETAINED
Info: FEP INTRA-ALCHEMICAL BONDED INTERACTIONS WILL BE RETAINED
Info: FEP VDW SHIFTING COEFFICIENT 5
Info: FEP ELEC. ACTIVE FOR ANNIHILATED PARTICLES BETWEEN LAMBDA = 0 AND LAMBDA = 0.5
Info: FEP ELEC. ACTIVE FOR EXNIHILATED PARTICLES BETWEEN LAMBDA = 0.5 AND LAMBDA = 1
Info: FEP VDW ACTIVE FOR ANNIHILATED PARTICLES BETWEEN LAMBDA = 0 AND LAMBDA = 1
Info: FEP VDW ACTIVE FOR EXNIHILATED PARTICLES BETWEEN LAMBDA = 0 AND LAMBDA = 1
Info: FEP BOND ACTIVE FOR ANNIHILATED PARTICLES BETWEEN LAMBDA = 1 AND LAMBDA = 1
Info: FEP BOND ACTIVE FOR EXNIHILATED PARTICLES BETWEEN LAMBDA = 0 AND LAMBDA = 0
Info: LANGEVIN DYNAMICS ACTIVE
Info: LANGEVIN TEMPERATURE   300
Info: LANGEVIN USING BBK INTEGRATOR
Info: LANGEVIN DAMPING COEFFICIENT IS 1 INVERSE PS
Info: LANGEVIN DYNAMICS APPLIED TO HYDROGENS
Info: LANGEVIN PISTON PRESSURE CONTROL ACTIVE
Info:        TARGET PRESSURE IS 1.01325 BAR
Info:     OSCILLATION PERIOD IS 50 FS
Info:             DECAY TIME IS 25 FS
Info:     PISTON TEMPERATURE IS 300 K
Info:       PRESSURE CONTROL IS GROUP-BASED
Info:    INITIAL STRAIN RATE IS -0.000116051 -0.000116051 -0.000116051
Info:       CELL FLUCTUATION IS ISOTROPIC
Info: PARTICLE MESH EWALD (PME) ACTIVE
Info: PME TOLERANCE               1e-06
Info: PME EWALD COEFFICIENT       0.348832
Info: PME INTERPOLATION ORDER     4
Info: PME GRID DIMENSIONS         32 32 36
Info: PME MAXIMUM GRID SPACING    1
Info: PME CALCULATION WILL BE PERFORMED ON GPU
Info: FULL ELECTROSTATIC EVALUATION FREQUENCY      2
Info: USING VERLET I (r-RESPA) MTS SCHEME.
Info: C1 SPLITTING OF LONG RANGE ELECTROSTATICS
Info: PLACING ATOMS IN PATCHES BY HYDROGEN GROUPS
Info: RIGID BONDS TO HYDROGEN : ALL
Info:         ERROR TOLERANCE : 1e-08
Info:          MAX ITERATIONS : 100
Info: RIGID WATER USING SETTLE ALGORITHM
Info: RANDOM NUMBER SEED     1743752297
Info: USE HYDROGEN BONDS?    NO
Info: Using AMBER format force field!
Info: AMBER PARM FILE        mobley_1189457.prmtop
Info: COORDINATE PDB         mobley_1189457.pdb
Info: Exclusions will be read from PARM file!
Info: SCNB (VDW SCALING)     2
Info: USING ARITHMETIC MEAN TO COMBINE L-J SIGMA PARAMETERS
Info: BINARY COORDINATES     mobley_1189457_equil.coor
Info: SUMMARY OF PARAMETERS:
Info: 7 BONDS
Info: 6 ANGLES
Info:   6 HARMONIC
Info:   0 COSINE-BASED
Info: 4 DIHEDRAL
Info: 0 IMPROPER
Info: 0 CROSSTERM
Info: 0 VDW
Info: 28 VDW_PAIRS
Info: 0 NBTHOLE_PAIRS
Info: To read alchdata from file: mobley_1189457.pdb
Info: To read alchflag data from column: 5
Info: STRUCTURE SUMMARY:
Info: 2950 ATOMS
Info: 2950 BONDS
Info: 25 ANGLES
Info: 35 DIHEDRALS
Info: 0 IMPROPERS
Info: 0 CROSSTERMS
Info: 3001 EXCLUSIONS
Info: 2942 RIGID BONDS
Info: ALCH: 0 ATOMS TO DISAPPEAR IN FINAL STATE
Info: ALCH: 16 ATOMS TO APPEAR IN FINAL STATE
Info: 5908 DEGREES OF FREEDOM
Info: 986 HYDROGEN GROUPS
Info: 4 ATOMS IN LARGEST HYDROGEN GROUP
Info: 986 MIGRATION GROUPS
Info: 4 ATOMS IN LARGEST MIGRATION GROUP
Info: TOTAL MASS = 17743.8 amu
Info: TOTAL CHARGE = 0.000199981 e
Info: MASS DENSITY = 0.976934 g/cm^3
Info: ATOM DENSITY = 0.0978093 atoms/A^3
Info: ADDED 0 IMPLICIT EXCLUSIONS
Info: NONBONDED TABLE R-SQUARED SPACING: 0.0625
Info: NONBONDED TABLE SIZE: 705 POINTS
Info: REMOVING COM VELOCITY 0.0340042 0.124166 -0.0210453
Info: Use 3D box decompostion in PME FFT.
Info: Updated CUDA force table with 4096 elements.
Info: Updated CUDA LJ table with 7 x 7 elements.
Info: Found 15 unique exclusion lists needing 36 bytes
TCL: Running for 1500000 steps
ETITLE: TS BOND ANGLE DIHED IMPRP ELECT VDW BOUNDARY MISC KINETIC TOTAL TEMP POTENTIAL TOTALAVG TEMPAVG PRESSURE GPRESSURE VOLUME PRESSAVG GPRESSAVG
ENERGY: 0 1.2627 3.4900 3.1272 0.0000 -10783.6968 1508.6308 0.0000 0.0000 1738.9420 -7528.2442 296.2341 -9267.1861 -7528.2442 296.2341 528.0683 602.2693 30160.7236 528.0683 602.2693
ENERGY: 300000 3.1922 6.1447 4.8692 0.0000 -10579.7640 1393.8331 0.0000 0.0000 1777.9279 -7393.7970 302.8754 -9171.7248 -7452.3666 301.3367 -282.0273 -241.6511 30413.8262 90.3270 166.0289
ENERGY: 600000 6.4802 3.9355 2.5114 0.0000 -10739.6052 1420.7539 0.0000 0.0000 1819.5524 -7486.3718 309.9663 -9305.9242 -7462.4454 302.3042 -399.6140 -380.9696 30478.6787 19.6831 70.5510
ENERGY: 900000 3.4997 1.6899 5.7003 0.0000 -10671.4575 1368.6641 0.0000 0.0000 1709.0554 -7582.8481 291.1428 -9291.9035 -7483.2774 300.4468 -739.0653 -727.6035 29867.0102 -90.7734 -41.7170
ENERGY: 1200000 4.9994 4.5223 5.6957 0.0000 -10607.8066 1368.2770 0.0000 0.0000 1836.9007 -7387.4115 312.9216 -9224.3123 -7479.6091 300.3707 -695.1733 -584.2813 30133.8572 -144.7644 -94.5927
ENERGY: 1500000 1.0380 2.1956 6.1670 0.0000 -10797.0505 1506.8348 0.0000 0.0000 1731.9850 -7548.8302 295.0489 -9280.8152 -7477.2032 299.2293 614.0957 614.0717 29981.9616 -43.3792 -0.1009
TCL: Running FEP window   2: Lambda1 0.05   Lambda2 0.1    [dLambda 0.05  ]
TCL: Setting parameter firsttimestep to 0
TCL: Setting parameter alchLambda to 0.05
Info: NONBONDED TABLE R-SQUARED SPACING: 0.0625
Info: NONBONDED TABLE SIZE: 705 POINTS
TCL: Setting parameter alchLambda2 to 0.1
Info: NONBONDED TABLE R-SQUARED SPACING: 0.0625
Info: NONBONDED TABLE SIZE: 705 POINTS
TCL: Running for 1500000 steps
ETITLE: TS BOND ANGLE DIHED IMPRP ELECT VDW BOUNDARY MISC KINETIC TOTAL TEMP POTENTIAL TOTALAVG TEMPAVG PRESSURE GPRESSURE VOLUME PRESSAVG GPRESSAVG
ENERGY: 0 1.0380 2.1956 6.1670 0.0000 -10797.0535 1507.8063 0.0000 0.0000 1731.0840 -7548.7627 294.8954 -9279.8467 -7548.7627 294.8954 543.3776 620.0654 29981.9616 543.3776 620.0654
ENERGY: 300000 4.3872 6.8698 6.0016 0.0000 -10723.1699 1425.4004 0.0000 0.0000 1820.2700 -7460.2409 310.0885 -9280.5109 -7449.4048 303.4417 -400.9422 -431.4049 30637.7203 -39.2603 -23.5794
ENERGY: 600000 1.7042 3.9384 5.8424 0.0000 -10509.6314 1390.5058 0.0000 0.0000 1829.2481 -7278.3925 311.6180 -9107.6406 -7434.3003 303.9745 -12.7221 55.7143 30276.7204 4.1378 47.7542
ENERGY: 900000 1.6308 4.1775 5.6124 0.0000 -10594.8708 1393.1806 0.0000 0.0000 1757.1643 -7433.1053 299.3383 -9190.2695 -7440.5865 303.4681 -422.5681 -383.0200 30394.8358 -110.1107 -59.1207
ENERGY: 1200000 1.6518 3.2617 5.7457 0.0000 -10506.0649 1312.5841 0.0000 0.0000 1812.2370 -7370.5846 308.7201 -9182.8215 -7445.8729 302.5295 -1021.5117 -884.2098 30291.0676 -130.1998 -69.4505
ENERGY: 1500000 7.2585 4.7951 4.4250 0.0000 -10745.7002 1480.3991 0.0000 0.0000 1725.1755 -7523.6471 293.8889 -9248.8225 -7451.9396 302.1814 259.1739 353.1543 29807.6005 -120.4933 -55.4246
TCL: Running FEP window   3: Lambda1 0.1    Lambda2 0.15000000000000002 [dLambda 0.05000000000000002]
TCL: Setting parameter firsttimestep to 0
TCL: Setting parameter alchLambda to 0.1
Info: NONBONDED TABLE R-SQUARED SPACING: 0.0625
Info: NONBONDED TABLE SIZE: 705 POINTS
TCL: Setting parameter alchLambda2 to 0.15000000000000002
Info: NONBONDED TABLE R-SQUARED SPACING: 0.0625
Info: NONBONDED TABLE SIZE: 705 POINTS
TCL: Running for 1500000 steps
ETITLE: TS BOND ANGLE DIHED IMPRP ELECT VDW BOUNDARY MISC KINETIC TOTAL TEMP POTENTIAL TOTALAVG TEMPAVG PRESSURE GPRESSURE VOLUME PRESSAVG GPRESSAVG
ENERGY: 0 7.2585 4.7951 4.4250 0.0000 -10745.6999 1482.2570 0.0000 0.0000 1724.2850 -7522.6792 293.7372 -9246.9642 -7522.6792 293.7372 278.3725 365.6233 29807.6005 278.3725 365.6233
ENERGY: 300000 6.1717 3.7593 3.7458 0.0000 -10687.7647 1458.0643 0.0000 0.0000 1786.5300 -7429.4935 304.3408 -9216.0236 -7475.2785 299.1653 63.7497 156.4161 30094.2398 -89.5533 -8.9079
ENERGY: 600000 2.0120 6.0221 5.0663 0.0000 -10770.1029 1476.7358 0.0000 0.0000 1747.3659 -7532.9008 297.6691 -9280.2667 -7459.2733 300.6465 136.5646 251.2750 29967.5345 -42.8939 42.1844
ENERGY: 900000 1.6312 8.4058 3.1136 0.0000 -10595.9110 1351.1003 0.0000 0.0000 1805.0592 -7426.6009 307.4973 -9231.6601 -7450.3005 303.1195 -574.6554 -469.3663 30149.0229 -80.1326 2.3455
ENERGY: 1200000 1.2607 7.7166 4.4893 0.0000 -10814.7323 1528.8777 0.0000 0.0000 1798.2341 -7474.1539 306.3347 -9272.3880 -7468.1342 302.7028 758.5423 840.6920 29801.5928 -0.6546 74.0939
ENERGY: 1500000 2.9715 3.8897 4.6202 0.0000 -10703.3658 1451.5648 0.0000 0.0000 1780.7069 -7459.6126 303.3488 -9240.3195 -7467.5277 301.9157 -244.1349 -133.7470 30715.0412 -51.4878 26.7020
TCL: Running FEP window   4: Lambda1 0.15000000000000002 Lambda2 0.2    [dLambda 0.04999999999999999]
TCL: Setting parameter firsttimestep to 0
TCL: Setting parameter alchLambda to 0.15000000000000002
Info: NONBONDED TABLE R-SQUARED SPACING: 0.0625
Info: NONBONDED TABLE SIZE: 705 POINTS
TCL: Setting parameter alchLambda2 to 0.2
Info: NONBONDED TABLE R-SQUARED SPACING: 0.0625
Info: NONBONDED TABLE SIZE: 705 POINTS
TCL: Running for 1500000 steps
ETITLE: TS BOND ANGLE DIHED IMPRP ELECT VDW BOUNDARY MISC KINETIC TOTAL TEMP POTENTIAL TOTALAVG TEMPAVG PRESSURE GPRESSURE VOLUME PRESSAVG GPRESSAVG
ENERGY: 0 2.9715 3.8897 4.6202 0.0000 -10703.3638 1452.0730 0.0000 0.0000 1779.8363 -7459.9730 303.2005 -9239.8093 -7459.9730 303.2005 -217.0224 -132.7621 30715.0412 -217.0224 -132.7621
ENERGY: 300000 1.8247 6.2120 2.8896 0.0000 -10706.0148 1508.7616 0.0000 0.0000 1734.8636 -7451.4633 295.5393 -9186.3269 -7459.6833 301.1139 690.0440 736.7107 30190.0492 -94.3440 -43.4010
ENERGY: 600000 2.8222 3.3158 5.1989 0.0000 -10698.2942 1459.7155 0.0000 0.0000 1810.6672 -7416.5744 308.4527 -9227.2416 -7478.9821 300.2118 58.4462 119.6513 30498.8026 -158.6902 -109.0723
ENERGY: 900000 3.3080 4.0602 2.7715 0.0000 -10641.2901 1501.5026 0.0000 0.0000 1763.3758 -7366.2720 300.3964 -9129.6478 -7472.6588 300.3209 680.9631 747.1965 30381.0705 -146.8987 -95.1270
ENERGY: 1200000 1.2083 6.7745 4.7813 0.0000 -10691.8474 1480.7982 0.0000 0.0000 1769.7125 -7428.5726 301.4759 -9198.2852 -7464.0199 300.7540 369.0035 387.7975 30609.3133 -128.3817 -83.7623
ENERGY: 1500000 0.8494 2.7848 5.6314 0.0000 -10736.2639 1514.2464 0.0000 0.0000 1748.5398 -7464.2123 297.8691 -9212.7520 -7467.9223 300.3456 555.3634 611.6069 30415.6100 -49.8379 1.2562
TCL: Running FEP window   5: Lambda1 0.2    Lambda2 0.25   [dLambda 0.04999999999999999]
TCL: Setting parameter firsttimestep to 0
TCL: Setting parameter alchLambda to 0.2
Info: NONBONDED TABLE R-SQUARED SPACING: 0.0625
Info: NONBONDED TABLE SIZE: 705 POINTS
TCL: Setting parameter alchLambda2 to 0.25
Info: NONBONDED TABLE R-SQUARED SPACING: 0.0625
Info: NONBONDED TABLE SIZE: 705 POINTS
TCL: Running for 1500000 steps
ETITLE: TS BOND ANGLE DIHED IMPRP ELECT VDW BOUNDARY MISC KINETIC TOTAL TEMP POTENTIAL TOTALAVG TEMPAVG PRESSURE GPRESSURE VOLUME PRESSAVG GPRESSAVG
ENERGY: 0 0.8494 2.7848 5.6314 0.0000 -10736.2648 1514.6526 0.0000 0.0000 1747.6377 -7464.7089 297.7154 -9212.3466 -7464.7089 297.7154 532.9807 618.9693 30415.6100 532.9807 618.9693
ENERGY: 300000 1.3323 7.8190 6.2782 0.0000 -10760.8130 1503.2743 0.0000 0.0000 1720.7913 -7521.3179 293.1420 -9242.1092 -7491.7259 298.8382 190.3064 276.7286 30392.3951 111.3552 177.1095
ENERGY: 600000 3.6267 5.6489 3.9315 0.0000 -10714.6715 1520.0204 0.0000 0.0000 1775.1137 -7406.3303 302.3960 -9181.4440 -7476.0920 298.3811 911.1307 951.4627 30099.9205 311.6409 369.2929
ENERGY: 900000 1.6895 3.1814 4.3340 0.0000 -10781.4793 1505.0155 0.0000 0.0000 1812.2859 -7454.9730 308.7284 -9267.2589 -7459.2662 301.2129 490.3489 546.7483 30074.7006 299.8656 360.2127
ENERGY: 1200000 2.7123 6.3648 6.9677 0.0000 -10774.3181 1509.6728 0.0000 0.0000 1854.2564 -7394.3440 315.8782 -9248.6004 -7455.4091 302.3517 865.2123 991.0064 30026.8310 245.0532 309.2009
ENERGY: 1500000 4.1410 8.2739 5.1657 0.0000 -10727.7910 1481.0218 0.0000 0.0000 1755.3678 -7473.8208 299.0322 -9229.1886 -7453.4454 301.8598 510.9563 596.5769 29962.9083 205.2341 266.1209
TCL: Running FEP window   6: Lambda1 0.25   Lambda2 0.3    [dLambda 0.04999999999999999]
TCL: Setting parameter firsttimestep to 0
TCL: Setting parameter alchLambda to 0.25
Info: NONBONDED TABLE R-SQUARED SPACING: 0.0625
Info: NONBONDED TABLE SIZE: 705 POINTS
TCL: Setting parameter alchLambda2 to 0.3
Info: NONBONDED TABLE R-SQUARED SPACING: 0.0625
Info: NONBONDED TABLE SIZE: 705 POINTS
TCL: Running for 1500000 steps
ETITLE: TS BOND ANGLE DIHED IMPRP ELECT VDW BOUNDARY MISC KINETIC TOTAL TEMP POTENTIAL TOTALAVG TEMPAVG PRESSURE GPRESSURE VOLUME PRESSAVG GPRESSAVG
ENERGY: 0 4.1410 8.2739 5.1657 0.0000 -10727.7880 1481.5019 0.0000 0.0000 1754.4877 -7474.2178 298.8823 -9228.7056 -7474.2178 298.8823 528.7421 604.4784 29962.9083 528.7421 604.4784
ENERGY: 300000 4.7260 4.6692 5.2980 0.0000 -10581.7741 1338.5612 0.0000 0.0000 1770.0361 -7458.4836 301.5310 -9228.5197 -7488.7483 298.1498 -860.2052 -772.7616 30263.7324 -273.2880 -209.4739
ENERGY: 600000 4.2980 2.8899 4.1481 0.0000 -10701.5889 1416.9453 0.0000 0.0000 1709.3068 -7564.0008 291.1856 -9273.3076 -7487.3142 298.3258 -277.7320 -210.9970 30105.1845 -109.4578 -41.5284
ENERGY: 900000 2.1304 2.7458 3.5587 0.0000 -10574.9872 1379.8839 0.0000 0.0000 1769.3518 -7417.3167 301.4145 -9186.6685 -7489.7892 298.2129 -312.4845 -180.9646 30311.2629 -66.4377 2.3149
ENERGY: 1200000 1.6441 2.8314 3.2562 0.0000 -10444.1506 1264.0699 0.0000 0.0000 1784.4707 -7387.8783 303.9900 -9172.3490 -7486.6915 298.2804 -1466.3285 -1356.2702 30777.2548 -136.6331 -66.8945
ENERGY: 1500000 1.1421 4.8437 3.6491 0.0000 -10771.6104 1512.7692 0.0000 0.0000 1722.0867 -7527.1196 293.3627 -9249.2063 -7490.0401 298.2491 454.5225 519.8668 30227.7978 -83.0986 -14.8360
TCL: Running FEP window   7: Lambda1 0.3    Lambda2 0.35   [dLambda 0.04999999999999999]
TCL: Setting parameter firsttimestep to 0
TCL: Setting parameter alchLambda to 0.3
Info: NONBONDED TABLE R-SQUARED SPACING: 0.0625
Info: NONBONDED TABLE SIZE: 705 POINTS
TCL: Setting parameter alchLambda2 to 0.35
Info: NONBONDED TABLE R-SQUARED SPACING: 0.0625
Info: NONBONDED TABLE SIZE: 705 POINTS
TCL: Running for 1500000 steps
ETITLE: TS BOND ANGLE DIHED IMPRP ELECT VDW BOUNDARY MISC KINETIC TOTAL TEMP POTENTIAL TOTALAVG TEMPAVG PRESSURE GPRESSURE VOLUME PRESSAVG GPRESSAVG
ENERGY: 0 1.1421 4.8437 3.6491 0.0000 -10771.6085 1512.5539 0.0000 0.0000 1721.2231 -7528.1968 293.2156 -9249.4198 -7528.1968 293.2156 429.2612 521.2862 30227.7978 429.2612 521.2862
ENERGY: 300000 1.5661 5.7630 7.8475 0.0000 -10619.5458 1394.1774 0.0000 0.0000 1780.1326 -7430.0593 303.2510 -9210.1919 -7488.7748 298.6074 -244.3074 -248.4355 30393.9347 -18.1338 26.2288
ENERGY: 600000 6.0944 4.3364 3.4399 0.0000 -10719.5140 1495.5070 0.0000 0.0000 1745.0801 -7465.0561 297.2797 -9210.1363 -7483.5337 298.9275 250.6233 240.0931 30739.9191 155.3746 213.2048
ENERGY: 900000 2.0274 5.1055 3.3069 0.0000 -10769.4745 1466.4452 0.0000 0.0000 1766.2256 -7526.3640 300.8819 -9292.5896 -7488.5122 298.9443 -86.5186 25.6349 30315.7931 141.7144 209.8552
ENERGY: 1200000 2.3847 2.7998 3.2462 0.0000 -10535.4588 1446.1144 0.0000 0.0000 1708.6347 -7372.2789 291.0711 -9080.9136 -7472.4245 299.2771 373.8320 486.9984 30426.3459 99.6724 158.1013
ENERGY: 1500000 4.3664 3.8385 3.9200 0.0000 -10692.0034 1441.1989 0.0000 0.0000 1792.5237 -7446.1560 305.3619 -9238.6797 -7471.6542 299.6207 213.5332 244.8852 29771.6835 78.1270 136.9328
TCL: Running FEP window   8: Lambda1 0.35   Lambda2 0.39999999999999997 [dLambda 0.04999999999999999]
TCL: Setting parameter firsttimestep to 0
TCL: Setting parameter alchLambda to 0.35
Info: NONBONDED TABLE R-SQUARED SPACING: 0.0625
Info: NONBONDED TABLE SIZE: 705 POINTS
TCL: Setting parameter alchLambda2 to 0.39999999999999997
Info: NONBONDED TABLE R-SQUARED SPACING: 0.0625
Info: NONBONDED TABLE SIZE: 705 POINTS
TCL: Running for 1500000 steps
ETITLE: TS BOND ANGLE DIHED IMPRP ELECT VDW BOUNDARY MISC KINETIC TOTAL TEMP POTENTIAL TOTALAVG TEMPAVG PRESSURE GPRESSURE VOLUME PRESSAVG GPRESSAVG
ENERGY: 0 4.3664 3.8385 3.9200 0.0000 -10692.0043 1441.2274 0.0000 0.0000 1791.6761 -7446.9759 305.2175 -9238.6520 -7446.9759 305.2175 144.7482 252.2564 29771.6835 144.7482 252.2564
ENERGY: 300000 2.4172 3.8387 1.7070 0.0000 -10751.2292 1498.1615 0.0000 0.0000 1745.7601 -7499.3448 297.3955 -9245.1049 -7495.3736 299.2713 363.6446 431.7394 30187.5078 -169.1900 -85.8192
ENERGY: 600000 1.4488 4.8633 3.3539 0.0000 -10798.6074 1463.4516 0.0000 0.0000 1689.6811 -7635.8088 287.8423 -9325.4899 -7522.9079 295.9031 -112.2828 -56.4077 29896.1884 -132.4455 -59.5073
ENERGY: 900000 2.3775 4.1569 4.6049 0.0000 -10692.3313 1410.8722 0.0000 0.0000 1793.1316 -7477.1881 305.4654 -9270.3198 -7519.5907 297.5356 -402.6887 -386.7008 30514.7072 -160.4016 -90.6862
ENERGY: 1200000 0.7676 4.3005 3.2828 0.0000 -10728.2101 1407.8129 0.0000 0.0000 1817.3420 -7494.7044 309.5897 -9312.0463 -7504.8845 298.4001 -325.6421 -270.2640 29851.4497 -150.2529 -82.3535
ENERGY: 1500000 1.8242 6.1435 4.8018 0.0000 -10658.2582 1469.7188 0.0000 0.0000 1749.5857 -7426.1842 298.0472 -9175.7698 -7497.2109 298.3900 345.7877 363.1338 30541.6586 -179.6331 -118.2597
TCL: Running FEP window   9: Lambda1 0.39999999999999997 Lambda2 0.44999999999999996 [dLambda 0.04999999999999999]
TCL: Setting parameter firsttimestep to 0
TCL: Setting parameter alchLambda to 0.39999999999999997
Info: NONBONDED TABLE R-SQUARED SPACING: 0.0625
Info: NONBONDED TABLE SIZE: 705 POINTS
TCL: Setting parameter alchLambda2 to 0.44999999999999996
Info: NONBONDED TABLE R-SQUARED SPACING: 0.0625
Info: NONBONDED TABLE SIZE: 705 POINTS
TCL: Running for 1500000 steps
ETITLE: TS BOND ANGLE DIHED IMPRP ELECT VDW BOUNDARY MISC KINETIC TOTAL TEMP POTENTIAL TOTALAVG TEMPAVG PRESSURE GPRESSURE VOLUME PRESSAVG GPRESSAVG
ENERGY: 0 1.8242 6.1435 4.8018 0.0000 -10658.2565 1469.6867 0.0000 0.0000 1748.6624 -7427.1379 297.8900 -9175.8002 -7427.1379 297.8900 289.4839 366.3952 30541.6586 289.4839 366.3952
ENERGY: 300000 1.9237 3.6078 2.6618 0.0000 -10735.6549 1554.3215 0.0000 0.0000 1813.9214 -7359.2188 309.0070 -9173.1402 -7451.9510 299.8647 1226.1954 1219.3934 30377.4049 423.1508 470.6236
ENERGY: 600000 1.5243 3.5044 2.4882 0.0000 -10696.9758 1427.2508 0.0000 0.0000 1784.7297 -7477.4783 304.0341 -9262.2081 -7462.2072 299.7893 -201.1751 -165.6433 30452.5928 240.9986 284.6427
ENERGY: 900000 4.2683 4.5546 5.6648 0.0000 -10741.9729 1474.5318 0.0000 0.0000 1781.9948 -7470.9587 303.5682 -9252.9535 -7476.8140 299.8617 -72.9817 -28.5249 30850.8758 103.6105 152.2433
ENERGY: 1200000 4.0888 5.5156 4.1069 0.0000 -10639.6385 1428.3690 0.0000 0.0000 1740.4813 -7457.0769 296.4963 -9197.5582 -7467.0041 299.6436 -317.3424 -223.9552 30796.3843 80.5996 128.7261
ENERGY: 1500000 2.6453 4.1894 3.7526 0.0000 -10713.1231 1507.8249 0.0000 0.0000 1863.7504 -7330.9604 317.4955 -9194.7108 -7461.7294 300.4379 877.1686 915.0758 30131.2537 123.9107 170.7821
TCL: Running FEP window  10: Lambda1 0.44999999999999996 Lambda2 0.49999999999999994 [dLambda 0.04999999999999999]
TCL: Setting parameter firsttimestep to 0
TCL: Setting parameter alchLambda to 0.44999999999999996
Info: NONBONDED TABLE R-SQUARED SPACING: 0.0625
Info: NONBONDED TABLE SIZE: 705 POINTS
TCL: Setting parameter alchLambda2 to 0.49999999999999994
Info: NONBONDED TABLE R-SQUARED SPACING: 0.0625
Info: NONBONDED TABLE SIZE: 705 POINTS
TCL: Running for 1500000 steps
ETITLE: TS BOND ANGLE DIHED IMPRP ELECT VDW BOUNDARY MISC KINETIC TOTAL TEMP POTENTIAL TOTALAVG TEMPAVG PRESSURE GPRESSURE VOLUME PRESSAVG GPRESSAVG
ENERGY: 0 2.6453 4.1894 3.7526 0.0000 -10713.1232 1508.1564 0.0000 0.0000 1862.8240 -7331.5554 317.3377 -9194.3794 -7331.5554 317.3377 838.7735 924.7210 30131.2537 838.7735 924.7210
ENERGY: 300000 4.3276 1.9020 3.2754 0.0000 -10795.7450 1509.7784 0.0000 0.0000 1720.8049 -7555.6569 293.1443 -9276.4617 -7446.2935 303.6011 214.3458 304.0343 30587.8295 300.0732 360.4457
ENERGY: 600000 4.2579 3.1519 6.1417 0.0000 -10637.6803 1394.6027 0.0000 0.0000 1805.5172 -7424.0089 307.5753 -9229.5261 -7462.2723 302.1109 -564.7062 -449.1060 30630.5805 -11.3977 56.9253
ENERGY: 900000 1.7587 3.4851 2.3515 0.0000 -10594.8395 1401.8958 0.0000 0.0000 1773.4985 -7411.8500 302.1209 -9185.3485 -7449.4308 301.9869 -415.7554 -357.4535 30800.4191 -5.3600 55.3327
ENERGY: 1200000 2.2596 3.5117 5.8149 0.0000 -10643.9673 1397.5024 0.0000 0.0000 1714.1489 -7520.7297 292.0105 -9234.8786 -7458.8879 300.1296 -645.3220 -544.6376 30745.0684 -142.5847 -78.0761
ENERGY: 1500000 2.5093 6.9600 5.0737 0.0000 -10677.0446 1400.9823 0.0000 0.0000 1785.8955 -7475.6237 304.2327 -9261.5192 -7457.5463 300.2520 -335.4922 -318.5421 30236.8046 -145.7804 -88.8547
TCL: Running FEP window  11: Lambda1 0.49999999999999994 Lambda2 0.5499999999999999 [dLambda 0.04999999999999999]
TCL: Setting parameter firsttimestep to 0
TCL: Setting parameter alchLambda to 0.49999999999999994
Info: NONBONDED TABLE R-SQUARED SPACING: 0.0625
Info: NONBONDED TABLE SIZE: 705 POINTS
TCL: Setting parameter alchLambda2 to 0.5499999999999999
Info: NONBONDED TABLE R-SQUARED SPACING: 0.0625
Info: NONBONDED TABLE SIZE: 705 POINTS
TCL: Running for 1500000 steps
ETITLE: TS BOND ANGLE DIHED IMPRP ELECT VDW BOUNDARY MISC KINETIC TOTAL TEMP POTENTIAL TOTALAVG TEMPAVG PRESSURE GPRESSURE VOLUME PRESSAVG GPRESSAVG
ENERGY: 0 2.5093 6.9600 5.0737 0.0000 -10677.0459 1400.6028 0.0000 0.0000 1785.0245 -7476.8756 304.0844 -9261.9001 -7476.8756 304.0844 -400.1510 -318.4107 30236.8046 -400.1510 -318.4107
ENERGY: 300000 2.6167 5.5895 4.8447 0.0000 -10534.9659 1345.6195 0.0000 0.0000 1796.9122 -7379.3835 306.1095 -9176.2956 -7440.8948 300.2455 -641.8001 -578.2167 30587.5851 -277.7606 -193.0852
ENERGY: 600000 1.7353 6.7591 2.0843 0.0000 -10527.6681 1369.4497 0.0000 0.0000 1767.0120 -7380.6276 301.0159 -9147.6397 -7439.4124 299.4861 -643.9249 -569.7054 30836.5255 -411.7073 -344.8456
ENERGY: 900000 2.0526 1.9516 3.0550 0.0000 -10591.0108 1386.2286 0.0000 0.0000 1790.4705 -7407.2525 305.0121 -9197.7230 -7437.9467 300.3693 -499.6022 -461.0594 31177.2362 -387.8944 -324.6739
ENERGY: 1200000 2.7193 4.9794 4.6327 0.0000 -10705.3374 1466.0274 0.0000 0.0000 1758.7384 -7468.2402 299.6064 -9226.9785 -7451.8932 300.5290 3.5636 100.5843 30655.6189 -277.8641 -219.8152
ENERGY: 1500000 2.6268 4.9399 4.9803 0.0000 -10760.6342 1435.9750 0.0000 0.0000 1744.8561 -7567.2560 297.2415 -9312.1121 -7456.1093 301.3377 -340.5464 -276.1292 30172.6372 -182.2609 -120.5136
TCL: Running FEP window  12: Lambda1 0.5499999999999999 Lambda2 0.6    [dLambda 0.050000000000000044]
TCL: Setting parameter firsttimestep to 0
TCL: Setting parameter alchLambda to 0.5499999999999999
Info: NONBONDED TABLE R-SQUARED SPACING: 0.0625
Info: NONBONDED TABLE SIZE: 705 POINTS
TCL: Setting parameter alchLambda2 to 0.6
Info: NONBONDED TABLE R-SQUARED SPACING: 0.0625
Info: NONBONDED TABLE SIZE: 705 POINTS
TCL: Running for 1500000 steps
ETITLE: TS BOND ANGLE DIHED IMPRP ELECT VDW BOUNDARY MISC KINETIC TOTAL TEMP POTENTIAL TOTALAVG TEMPAVG PRESSURE GPRESSURE VOLUME PRESSAVG GPRESSAVG
ENERGY: 0 2.6268 4.9399 4.9803 0.0000 -10760.8689 1435.8801 0.0000 0.0000 1744.0020 -7568.4397 297.0961 -9312.4417 -7568.4397 297.0961 -357.5482 -269.2372 30172.6372 -357.5482 -269.2372
ENERGY: 300000 4.1405 5.6767 4.4055 0.0000 -10693.4134 1407.9464 0.0000 0.0000 1743.9362 -7527.3081 297.0848 -9271.2443 -7512.7070 297.7030 25.7875 34.9159 29915.2321 -314.5421 -244.4958
ENERGY: 600000 3.5380 4.9108 3.6217 0.0000 -10759.9212 1491.4511 0.0000 0.0000 1748.0222 -7508.3774 297.7809 -9256.3996 -7508.3892 297.6739 198.7535 164.3980 30525.0974 -156.8843 -102.2618
ENERGY: 900000 2.8379 6.5858 1.1776 0.0000 -10485.4916 1234.3321 0.0000 0.0000 1680.9331 -7559.6250 286.3521 -9240.5582 -7501.1699 298.8419 -1823.4569 -1806.7765 30837.9837 -234.4347 -184.2623
ENERGY: 1200000 5.1496 5.4243 5.6852 0.0000 -10430.7632 1252.7697 0.0000 0.0000 1807.5027 -7354.2317 307.9136 -9161.7344 -7483.8457 300.0025 -1007.5291 -1023.6504 30602.6935 -232.5311 -191.4824
ENERGY: 1500000 2.6631 4.5224 4.5431 0.0000 -10623.7269 1396.9144 0.0000 0.0000 1806.8674 -7408.2165 307.8054 -9215.0839 -7482.1087 299.8556 -425.0170 -369.9983 30771.1529 -218.5861 -172.1233
TCL: Running FEP window  13: Lambda1 0.6    Lambda2 0.65   [dLambda 0.050000000000000044]
TCL: Setting parameter firsttimestep to 0
TCL: Setting parameter alchLambda to 0.6
Info: NONBONDED TABLE R-SQUARED SPACING: 0.0625
Info: NONBONDED TABLE SIZE: 705 POINTS
TCL: Setting parameter alchLambda2 to 0.65
Info: NONBONDED TABLE R-SQUARED SPACING: 0.0625
Info: NONBONDED TABLE SIZE: 705 POINTS
TCL: Running for 1500000 steps
ETITLE: TS BOND ANGLE DIHED IMPRP ELECT VDW BOUNDARY MISC KINETIC TOTAL TEMP POTENTIAL TOTALAVG TEMPAVG PRESSURE GPRESSURE VOLUME PRESSAVG GPRESSAVG
ENERGY: 0 2.6631 4.5224 4.5431 0.0000 -10623.9159 1396.9598 0.0000 0.0000 1805.9880 -7409.2395 307.6555 -9215.2275 -7409.2395 307.6555 -451.0935 -361.2630 30771.1529 -451.0935 -361.2630
ENERGY: 300000 1.5109 4.1194 4.8130 0.0000 -10633.2869 1418.8377 0.0000 0.0000 1744.2927 -7459.7131 297.1456 -9204.0058 -7451.5505 301.3000 -153.5652 -91.1662 30356.0682 -33.1708 8.0362
ENERGY: 600000 1.7915 1.7288 6.1489 0.0000 -10725.1498 1461.2399 0.0000 0.0000 1722.7261 -7531.5147 293.4716 -9254.2407 -7472.9811 297.8965 42.9990 77.2803 30312.5908 -180.8617 -135.8547
ENERGY: 900000 5.1869 4.1830 5.1492 0.0000 -10679.2435 1423.0634 0.0000 0.0000 1809.8540 -7431.8070 308.3141 -9241.6609 -7473.7720 298.2715 -374.5002 -323.5114 30756.6293 -183.6618 -138.7457
ENERGY: 1200000 3.6994 2.3016 4.2877 0.0000 -10704.2108 1422.2229 0.0000 0.0000 1785.0908 -7486.6083 304.0956 -9271.6991 -7477.9229 298.6151 -110.6901 -24.0355 29910.3469 -160.5181 -114.9959
ENERGY: 1500000 2.9527 6.2157 4.6736 0.0000 -10648.3128 1403.4117 0.0000 0.0000 1719.7405 -7511.3187 292.9630 -9231.0592 -7481.0180 298.3780 -94.0673 -55.7200 30251.3386 -69.8840 -26.1022
TCL: Running FEP window  14: Lambda1 0.65   Lambda2 0.7000000000000001 [dLambda 0.050000000000000044]
TCL: Setting parameter firsttimestep to 0
TCL: Setting parameter alchLambda to 0.65
Info: NONBONDED TABLE R-SQUARED SPACING: 0.0625
Info: NONBONDED TABLE SIZE: 705 POINTS
TCL: Setting parameter alchLambda2 to 0.7000000000000001
Info: NONBONDED TABLE R-SQUARED SPACING: 0.0625
Info: NONBONDED TABLE SIZE: 705 POINTS
TCL: Running for 1500000 steps
ETITLE: TS BOND ANGLE DIHED IMPRP ELECT VDW BOUNDARY MISC KINETIC TOTAL TEMP POTENTIAL TOTALAVG TEMPAVG PRESSURE GPRESSURE VOLUME PRESSAVG GPRESSAVG
ENERGY: 0 2.9527 6.2157 4.6736 0.0000 -10648.3935 1403.0303 0.0000 0.0000 1718.9107 -7512.6106 292.8217 -9231.5213 -7512.6106 292.8217 -135.2149 -50.8706 30251.3386 -135.2149 -50.8706
ENERGY: 300000 1.3002 2.2061 4.8377 0.0000 -10586.8335 1370.1191 0.0000 0.0000 1810.0178 -7398.3524 308.3420 -9208.3703 -7437.0581 301.3898 -639.1107 -587.9761 30748.8221 -32.4435 36.1151
ENERGY: 600000 1.8728 3.2826 5.4662 0.0000 -10787.8658 1533.8934 0.0000 0.0000 1761.1530 -7482.1978 300.0178 -9243.3508 -7471.1610 301.2569 1060.6626 1125.7753 29782.5257 106.1997 172.5376
ENERGY: 900000 3.8698 6.9266 3.7503 0.0000 -10675.5079 1418.2784 0.0000 0.0000 1759.1485 -7483.5343 299.6763 -9242.6828 -7478.0174 299.7922 -148.0440 -84.8932 30211.5923 47.5634 98.9367
ENERGY: 1200000 3.8128 2.3132 4.5825 0.0000 -10768.4629 1461.0074 0.0000 0.0000 1795.5524 -7501.1946 305.8778 -9296.7470 -7476.0711 299.9036 167.3358 144.2309 29901.0976 -4.0980 49.5185
ENERGY: 1500000 2.0825 2.3094 2.5066 0.0000 -10693.1301 1503.8184 0.0000 0.0000 1838.3715 -7344.0418 313.1722 -9182.4133 -7468.0791 300.2756 1292.7412 1344.7923 29385.9753 44.4074 92.9832
TCL: Running FEP window  15: Lambda1 0.7000000000000001 Lambda2 0.7500000000000001 [dLambda 0.050000000000000044]
TCL: Setting parameter firsttimestep to 0
TCL: Setting parameter alchLambda to 0.7000000000000001
Info: NONBONDED TABLE R-SQUARED SPACING: 0.0625
Info: NONBONDED TABLE SIZE: 705 POINTS
TCL: Setting parameter alchLambda2 to 0.7500000000000001
Info: NONBONDED TABLE R-SQUARED SPACING: 0.0625
Info: NONBONDED TABLE SIZE: 705 POINTS
TCL: Running for 1500000 steps
ETITLE: TS BOND ANGLE DIHED IMPRP ELECT VDW BOUNDARY MISC KINETIC TOTAL TEMP POTENTIAL TOTALAVG TEMPAVG PRESSURE GPRESSURE VOLUME PRESSAVG GPRESSAVG
ENERGY: 0 2.0825 2.3094 2.5066 0.0000 -10693.4872 1503.8717 0.0000 0.0000 1837.4796 -7345.2375 313.0202 -9182.7171 -7345.2375 313.0202 1272.5338 1353.7164 29385.9753 1272.5338 1353.7164
ENERGY: 300000 1.7334 5.4425 5.2668 0.0000 -10858.7030 1519.9041 0.0000 0.0000 1743.3653 -7582.9908 296.9876 -9326.3561 -7484.9496 301.4763 455.1827 498.5546 30247.6188 392.1634 432.9220
ENERGY: 600000 1.0502 2.7096 3.3977 0.0000 -10694.6608 1455.3537 0.0000 0.0000 1745.7749 -7486.3747 297.3981 -9232.1496 -7466.3663 299.9998 95.3936 181.7904 30354.3876 245.3025 304.6509
ENERGY: 900000 2.2756 2.9355 6.7770 0.0000 -10779.3614 1445.1843 0.0000 0.0000 1782.7676 -7539.4214 303.6999 -9322.1890 -7474.7791 299.8899 -167.3251 -96.8187 30502.2636 182.8979 250.1561
ENERGY: 1200000 1.0270 4.5038 3.3256 0.0000 -10600.9018 1432.3415 0.0000 0.0000 1714.3373 -7445.3666 292.0426 -9159.7039 -7482.0709 298.7970 298.5418 394.5291 30148.5528 99.8445 167.5222
ENERGY: 1500000 1.4038 1.7906 5.9982 0.0000 -10562.8893 1374.9073 0.0000 0.0000 1790.2413 -7388.5480 304.9731 -9178.7894 -7476.8538 299.4005 -454.6341 -407.3573 30666.9852 86.6816 152.9350
TCL: Running FEP window  16: Lambda1 0.7500000000000001 Lambda2 0.8000000000000002 [dLambda 0.050000000000000044]
TCL: Setting parameter firsttimestep to 0
TCL: Setting parameter alchLambda to 0.7500000000000001
Info: NONBONDED TABLE R-SQUARED SPACING: 0.0625
Info: NONBONDED TABLE SIZE: 705 POINTS
TCL: Setting parameter alchLambda2 to 0.8000000000000002
Info: NONBONDED TABLE R-SQUARED SPACING: 0.0625
Info: NONBONDED TABLE SIZE: 705 POINTS
TCL: Running for 1500000 steps
ETITLE: TS BOND ANGLE DIHED IMPRP ELECT VDW BOUNDARY MISC KINETIC TOTAL TEMP POTENTIAL TOTALAVG TEMPAVG PRESSURE GPRESSURE VOLUME PRESSAVG GPRESSAVG
ENERGY: 0 1.4038 1.7906 5.9982 0.0000 -10563.6436 1374.6894 0.0000 0.0000 1789.3899 -7390.3717 304.8280 -9179.7616 -7390.3717 304.8280 -487.1223 -401.2698 30666.9852 -487.1223 -401.2698
ENERGY: 300000 2.5240 3.9787 2.2610 0.0000 -10758.0954 1466.8558 0.0000 0.0000 1757.9427 -7524.5332 299.4709 -9282.4759 -7461.9946 304.8354 56.8714 120.9676 30306.5880 25.9905 92.4212
ENERGY: 600000 4.7843 4.3003 4.1674 0.0000 -10615.7424 1396.7596 0.0000 0.0000 1794.3743 -7411.3564 305.6771 -9205.7307 -7455.5012 303.8358 -265.7675 -178.7280 30526.3337 -201.8024 -133.1912
ENERGY: 900000 4.4776 3.9840 5.5330 0.0000 -10632.9479 1378.8887 0.0000 0.0000 1711.0771 -7528.9875 291.4872 -9240.0646 -7453.3541 303.1390 -210.8908 -129.3796 29613.1292 -171.8844 -103.7999
ENERGY: 1200000 2.3870 6.2206 3.2549 0.0000 -10716.3763 1499.4494 0.0000 0.0000 1783.8719 -7421.1926 303.8880 -9205.0645 -7458.6249 301.8250 524.8114 667.7210 30145.9257 -67.1318 -4.3137
ENERGY: 1500000 2.5179 5.4102 3.2826 0.0000 -10630.9522 1388.0712 0.0000 0.0000 1742.5995 -7489.0709 296.8571 -9231.6704 -7452.9711 301.8068 -330.4592 -179.9065 29984.4032 -84.1055 -15.5570
TCL: Running FEP window  17: Lambda1 0.8000000000000002 Lambda2 0.8500000000000002 [dLambda 0.050000000000000044]
TCL: Setting parameter firsttimestep to 0
TCL: Setting parameter alchLambda to 0.8000000000000002
Info: NONBONDED TABLE R-SQUARED SPACING: 0.0625
Info: NONBONDED TABLE SIZE: 705 POINTS
TCL: Setting parameter alchLambda2 to 0.8500000000000002
Info: NONBONDED TABLE R-SQUARED SPACING: 0.0625
Info: NONBONDED TABLE SIZE: 705 POINTS
TCL: Running for 1500000 steps
ETITLE: TS BOND ANGLE DIHED IMPRP ELECT VDW BOUNDARY MISC KINETIC TOTAL TEMP POTENTIAL TOTALAVG TEMPAVG PRESSURE GPRESSURE VOLUME PRESSAVG GPRESSAVG
ENERGY: 0 2.5179 5.4102 3.2826 0.0000 -10631.3824 1388.3348 0.0000 0.0000 1741.7146 -7490.1224 296.7064 -9231.8371 -7490.1224 296.7064 -257.3238 -166.3462 29984.4032 -257.3238 -166.3462
ENERGY: 300000 1.5139 7.1898 5.2636 0.0000 -10549.2132 1325.3047 0.0000 0.0000 1812.5625 -7397.3786 308.7755 -9209.9411 -7461.2238 302.8654 -867.8998 -819.6284 30911.2378 -454.2890 -380.2760
ENERGY: 600000 2.2400 5.0527 5.8885 0.0000 -10830.9943 1499.6003 0.0000 0.0000 1803.8749 -7514.3380 307.2956 -9318.2129 -7468.8615 303.2832 360.1851 450.8177 30170.0888 -177.3482 -108.2349
ENERGY: 900000 3.9843 3.5533 4.7090 0.0000 -10613.4310 1405.1788 0.0000 0.0000 1803.1327 -7392.8728 307.1692 -9196.0055 -7474.3723 301.8280 -341.8932 -260.9643 30342.7818 -142.9094 -74.5908
ENERGY: 1200000 2.6664 2.1352 1.7395 0.0000 -10688.2119 1408.0264 0.0000 0.0000 1773.1773 -7500.4671 302.0661 -9273.6444 -7488.5382 301.2667 -456.4186 -433.2004 30610.3038 -120.7024 -63.7039
ENERGY: 1500000 2.2879 4.6788 3.6622 0.0000 -10610.6096 1369.0525 0.0000 0.0000 1777.4219 -7453.5063 302.7892 -9230.9282 -7492.7548 301.0296 -536.1383 -414.3373 30646.7796 -117.5979 -55.2697
TCL: Running FEP window  18: Lambda1 0.8500000000000002 Lambda2 0.9000000000000002 [dLambda 0.050000000000000044]
TCL: Setting parameter firsttimestep to 0
TCL: Setting parameter alchLambda to 0.8500000000000002
Info: NONBONDED TABLE R-SQUARED SPACING: 0.0625
Info: NONBONDED TABLE SIZE: 705 POINTS
TCL: Setting parameter alchLambda2 to 0.9000000000000002
Info: NONBONDED TABLE R-SQUARED SPACING: 0.0625
Info: NONBONDED TABLE SIZE: 705 POINTS
TCL: Running for 1500000 steps
ETITLE: TS BOND ANGLE DIHED IMPRP ELECT VDW BOUNDARY MISC KINETIC TOTAL TEMP POTENTIAL TOTALAVG TEMPAVG PRESSURE GPRESSURE VOLUME PRESSAVG GPRESSAVG
ENERGY: 0 2.2879 4.6788 3.6622 0.0000 -10611.4811 1369.7987 0.0000 0.0000 1776.5562 -7454.4973 302.6417 -9231.0535 -7454.4973 302.6417 -475.6561 -391.7503 30646.7796 -475.6561 -391.7503
ENERGY: 300000 2.4438 4.5904 2.9566 0.0000 -10797.2644 1534.1892 0.0000 0.0000 1749.4803 -7503.6041 298.0293 -9253.0843 -7490.1420 302.4398 920.5959 957.6501 29993.8925 165.8430 215.0756
ENERGY: 600000 4.0753 4.0632 4.7616 0.0000 -10620.0346 1337.4277 0.0000 0.0000 1745.1672 -7524.5397 297.2945 -9269.7069 -7486.3202 299.8303 -1077.8613 -1088.0573 30712.4582 -71.1151 -38.4222
ENERGY: 900000 3.5425 6.8396 2.4664 0.0000 -10864.0888 1606.7749 0.0000 0.0000 1739.2646 -7505.2010 296.2890 -9244.4656 -7462.2304 299.9017 1519.4156 1579.2645 29955.3239 113.7499 155.7898
ENERGY: 1200000 1.9140 6.9915 3.1696 0.0000 -10719.5284 1477.9628 0.0000 0.0000 1721.8603 -7507.6303 293.3241 -9229.4906 -7472.5942 299.6877 6.4583 125.9300 31200.5178 85.1593 133.8072
ENERGY: 1500000 2.5706 9.6303 3.8753 0.0000 -10512.8061 1340.8301 0.0000 0.0000 1794.2083 -7361.6914 305.6488 -9155.8997 -7458.4733 300.0992 -662.4016 -596.9712 30340.8236 1.9928 55.1424
TCL: Running FEP window  19: Lambda1 0.9000000000000002 Lambda2 0.9500000000000003 [dLambda 0.050000000000000044]
TCL: Setting parameter firsttimestep to 0
TCL: Setting parameter alchLambda to 0.9000000000000002
Info: NONBONDED TABLE R-SQUARED SPACING: 0.0625
Info: NONBONDED TABLE SIZE: 705 POINTS
TCL: Setting parameter alchLambda2 to 0.9500000000000003
Info: NONBONDED TABLE R-SQUARED SPACING: 0.0625
Info: NONBONDED TABLE SIZE: 705 POINTS
TCL: Running for 1500000 steps
ETITLE: TS BOND ANGLE DIHED IMPRP ELECT VDW BOUNDARY MISC KINETIC TOTAL TEMP POTENTIAL TOTALAVG TEMPAVG PRESSURE GPRESSURE VOLUME PRESSAVG GPRESSAVG
ENERGY: 0 2.5706 9.6303 3.8753 0.0000 -10513.6642 1340.7971 0.0000 0.0000 1793.3650 -7363.4258 305.5052 -9156.7908 -7363.4258 305.5052 -672.3885 -588.8752 30340.8236 -672.3885 -588.8752
ENERGY: 300000 4.1177 4.6941 8.7356 0.0000 -10748.3434 1516.1013 0.0000 0.0000 1739.6617 -7475.0331 296.3567 -9214.6948 -7459.4086 297.9958 620.2357 723.9671 30217.6060 -54.8585 23.3340
ENERGY: 600000 4.4325 6.4548 7.1774 0.0000 -10637.8220 1294.9679 0.0000 0.0000 1765.2662 -7559.5233 300.7185 -9324.7894 -7476.8760 299.3357 -1406.8619 -1359.5662 30427.8201 -318.7555 -251.4033
ENERGY: 900000 1.3289 4.7689 2.5091 0.0000 -10706.6368 1431.2393 0.0000 0.0000 1775.6783 -7491.1124 302.4922 -9266.7907 -7488.1338 299.8651 -378.3413 -322.1266 30872.6552 -319.6637 -254.9497
ENERGY: 1200000 1.3673 5.2516 3.3620 0.0000 -10768.1169 1473.4985 0.0000 0.0000 1813.7926 -7470.8449 308.9851 -9284.6375 -7485.1610 300.9749 541.9679 615.3707 29866.9681 -226.9406 -152.4182
ENERGY: 1500000 2.2837 5.1458 3.1821 0.0000 -10754.7379 1520.7275 0.0000 0.0000 1809.2600 -7414.1387 308.2129 -9223.3987 -7471.6336 302.2957 708.9621 785.2591 30365.3240 -177.3724 -101.1539
TCL: Running FEP window  20: Lambda1 0.9500000000000003 Lambda2 1.0    [dLambda 0.04999999999999971]
TCL: Setting parameter firsttimestep to 0
TCL: Setting parameter alchLambda to 0.9500000000000003
Info: NONBONDED TABLE R-SQUARED SPACING: 0.0625
Info: NONBONDED TABLE SIZE: 705 POINTS
TCL: Setting parameter alchLambda2 to 1.0
Info: NONBONDED TABLE R-SQUARED SPACING: 0.0625
Info: NONBONDED TABLE SIZE: 705 POINTS
TCL: Running for 1500000 steps
ETITLE: TS BOND ANGLE DIHED IMPRP ELECT VDW BOUNDARY MISC KINETIC TOTAL TEMP POTENTIAL TOTALAVG TEMPAVG PRESSURE GPRESSURE VOLUME PRESSAVG GPRESSAVG
ENERGY: 0 2.2837 5.1458 3.1821 0.0000 -10755.5212 1520.5621 0.0000 0.0000 1808.3904 -7415.9571 308.0648 -9224.3474 -7415.9571 308.0648 705.7720 796.7026 30365.3240 705.7720 796.7026
ENERGY: 300000 2.5592 5.6332 2.5187 0.0000 -10701.9977 1483.5338 0.0000 0.0000 1768.5815 -7439.1713 301.2832 -9207.7528 -7470.0867 299.8088 743.9324 806.1604 30122.7134 70.8719 145.0926
ENERGY: 600000 0.8729 6.5264 3.6030 0.0000 -10675.4619 1414.1907 0.0000 0.0000 1773.1932 -7477.0756 302.0689 -9250.2688 -7454.5035 302.2621 -158.6527 -142.7960 30531.9838 17.9350 80.1571
ENERGY: 900000 0.9319 9.9561 2.1933 0.0000 -10687.3222 1406.2827 0.0000 0.0000 1830.2212 -7437.7371 311.7838 -9267.9583 -7449.3654 302.7814 -217.8498 -146.3411 30401.9442 5.9636 73.0992
ENERGY: 1200000 1.5667 4.5583 7.2046 0.0000 -10737.6247 1469.8935 0.0000 0.0000 1782.3791 -7472.0225 303.6337 -9254.4016 -7450.6262 302.9234 -75.3920 7.8186 30726.5254 20.5445 88.9823
ENERGY: 1500000 1.2990 6.9238 3.4258 0.0000 -10783.3418 1475.4842 0.0000 0.0000 1765.5439 -7530.6650 300.7658 -9296.2089 -7462.9780 302.1477 245.8655 321.6761 30036.8548 -10.7327 56.6563
TCL: Exiting due to exit command.
