Info: SIMULATION PARAMETERS:
Info: TIMESTEP               2
Info: NUMBER OF STEPS        0
Info: STEPS PER CYCLE        10
Info: PERIODIC CELL BASIS 1  30.3126 0 0
Info: PERIODIC CELL BASIS 2  0 30.3596 0
Info: PERIODIC CELL BASIS 3  0 0 33.1873
Info: PERIODIC CELL CENTER   0 0 0
Info: WRAPPING WATERS AROUND PERIODIC BOUNDARIES ON OUTPUT.
Info: WRAPPING ALL CLUSTERS AROUND PERIODIC BOUNDARIES ON OUTPUT.
Info: FIRST LDB TIMESTEP     50
Info: LAST LDB TIMESTEP     -1
Info: HOM BACKGROUND SCALING 1
Info: PME BACKGROUND SCALING 1
Info: MIN ATOMS PER PATCH    40
Info: EMPTY PATCH LOAD       40 ATOMS
Info: VELOCITY FILE          mobley_1858644_equil.vel
Info: CENTER OF MASS MOVING INITIALLY? NO
Info: DIELECTRIC             1
Info: EXCLUDE                SCALED ONE-FOUR
Info: 1-4 ELECTROSTATICS SCALED BY 0.833333
Info: MODIFIED 1-4 VDW PARAMETERS WILL BE USED
Info: DCD FILENAME           mobley_1858644_prod.dcd
Info: DCD FREQUENCY          100000
Info: DCD FIRST STEP         100000
Info: DCD FILE WILL CONTAIN UNIT CELL DATA
Info: XST FILENAME           mobley_1858644_prod.xst
Info: XST FREQUENCY          100000
Info: NO VELOCITY DCD OUTPUT
Info: NO FORCE DCD OUTPUT
Info: OUTPUT FILENAME        mobley_1858644_prod
Info: BINARY OUTPUT FILES WILL BE USED
Info: RESTART FILENAME       mobley_1858644_prod.restart
Info: RESTART FREQUENCY      100000
Info: BINARY RESTART FILES WILL BE USED
Info: CUTOFF                 9
Info: PAIRLIST DISTANCE      11
Info: PAIRLIST SHRINK RATE   0.01
Info: PAIRLIST GROW RATE     0.01
Info: PAIRLIST TRIGGER       0.3
Info: PAIRLISTS PER CYCLE    2
Info: PAIRLISTS ENABLED
Info: MARGIN                 2
Info: HYDROGEN GROUP CUTOFF  2.5
Info: PATCH DIMENSION        15.5
Info: ENERGY OUTPUT STEPS    100000
Info: ENERGY EVALUATION STEPS    100000
Info: OUTPUT ENERGY PRECISION 4
Info: CROSSTERM ENERGY INCLUDED IN DIHEDRAL
Info: TIMING OUTPUT STEPS    1000000
Info: PRESSURE OUTPUT STEPS  100000
Info: ALCHEMICAL FEP ON
Info: FEP CURRENT LAMBDA VALUE     1
Info: FEP COMPARISON LAMBDA VALUE  0.95
Info: FEP INTRA-ALCHEMICAL NON-BONDED INTERACTIONS WILL BE RETAINED
Info: FEP INTRA-ALCHEMICAL BONDED INTERACTIONS WILL BE RETAINED
Info: FEP VDW SHIFTING COEFFICIENT 5
Info: FEP ELEC. ACTIVE FOR ANNIHILATED PARTICLES BETWEEN LAMBDA = 0 AND LAMBDA = 0.5
Info: FEP ELEC. ACTIVE FOR EXNIHILATED PARTICLES BETWEEN LAMBDA = 0.5 AND LAMBDA = 1
Info: FEP VDW ACTIVE FOR ANNIHILATED PARTICLES BETWEEN LAMBDA = 0 AND LAMBDA = 1
Info: FEP VDW ACTIVE FOR EXNIHILATED PARTICLES BETWEEN LAMBDA = 0 AND LAMBDA = 1
Info: FEP BOND ACTIVE FOR ANNIHILATED PARTICLES BETWEEN LAMBDA = 1 AND LAMBDA = 1
Info: FEP BOND ACTIVE FOR EXNIHILATED PARTICLES BETWEEN LAMBDA = 0 AND LAMBDA = 0
Info: LANGEVIN DYNAMICS ACTIVE
Info: LANGEVIN TEMPERATURE   300
Info: LANGEVIN USING BBK INTEGRATOR
Info: LANGEVIN DAMPING COEFFICIENT IS 1 INVERSE PS
Info: LANGEVIN DYNAMICS APPLIED TO HYDROGENS
Info: LANGEVIN PISTON PRESSURE CONTROL ACTIVE
Info:        TARGET PRESSURE IS 1.01325 BAR
Info:     OSCILLATION PERIOD IS 50 FS
Info:             DECAY TIME IS 25 FS
Info:     PISTON TEMPERATURE IS 300 K
Info:       PRESSURE CONTROL IS GROUP-BASED
Info:    INITIAL STRAIN RATE IS -7.94372e-06 -7.94372e-06 -7.94372e-06
Info:       CELL FLUCTUATION IS ISOTROPIC
Info: PARTICLE MESH EWALD (PME) ACTIVE
Info: PME TOLERANCE               1e-06
Info: PME EWALD COEFFICIENT       0.348832
Info: PME INTERPOLATION ORDER     4
Info: PME GRID DIMENSIONS         32 32 36
Info: PME MAXIMUM GRID SPACING    1
Info: PME CALCULATION WILL BE PERFORMED ON GPU
Info: FULL ELECTROSTATIC EVALUATION FREQUENCY      2
Info: USING VERLET I (r-RESPA) MTS SCHEME.
Info: C1 SPLITTING OF LONG RANGE ELECTROSTATICS
Info: PLACING ATOMS IN PATCHES BY HYDROGEN GROUPS
Info: RIGID BONDS TO HYDROGEN : ALL
Info:         ERROR TOLERANCE : 1e-08
Info:          MAX ITERATIONS : 100
Info: RIGID WATER USING SETTLE ALGORITHM
Info: RANDOM NUMBER SEED     1743855354
Info: USE HYDROGEN BONDS?    NO
Info: Using AMBER format force field!
Info: AMBER PARM FILE        mobley_1858644.prmtop
Info: COORDINATE PDB         mobley_1858644.pdb
Info: Exclusions will be read from PARM file!
Info: SCNB (VDW SCALING)     2
Info: USING ARITHMETIC MEAN TO COMBINE L-J SIGMA PARAMETERS
Info: BINARY COORDINATES     mobley_1858644_equil.coor
Info: SUMMARY OF PARAMETERS:
Info: 10 BONDS
Info: 12 ANGLES
Info:   12 HARMONIC
Info:   0 COSINE-BASED
Info: 8 DIHEDRAL
Info: 0 IMPROPER
Info: 0 CROSSTERM
Info: 0 VDW
Info: 36 VDW_PAIRS
Info: 0 NBTHOLE_PAIRS
Info: To read alchdata from file: mobley_1858644.pdb
Info: To read alchflag data from column: 5
Info: STRUCTURE SUMMARY:
Info: 2989 ATOMS
Info: 2989 BONDS
Info: 31 ANGLES
Info: 51 DIHEDRALS
Info: 0 IMPROPERS
Info: 0 CROSSTERMS
Info: 3059 EXCLUSIONS
Info: 2980 RIGID BONDS
Info: ALCH: 0 ATOMS TO DISAPPEAR IN FINAL STATE
Info: ALCH: 19 ATOMS TO APPEAR IN FINAL STATE
Info: 5987 DEGREES OF FREEDOM
Info: 999 HYDROGEN GROUPS
Info: 3 ATOMS IN LARGEST HYDROGEN GROUP
Info: 999 MIGRATION GROUPS
Info: 3 ATOMS IN LARGEST MIGRATION GROUP
Info: TOTAL MASS = 17958 amu
Info: TOTAL CHARGE = -0.000100002 e
Info: MASS DENSITY = 0.976398 g/cm^3
Info: ATOM DENSITY = 0.0978668 atoms/A^3
Info: ADDED 0 IMPLICIT EXCLUSIONS
Info: NONBONDED TABLE R-SQUARED SPACING: 0.0625
Info: NONBONDED TABLE SIZE: 705 POINTS
Info: REMOVING COM VELOCITY 0.00287124 -0.0559153 -0.0375737
Info: Use 3D box decompostion in PME FFT.
Info: Updated CUDA force table with 4096 elements.
Info: Updated CUDA LJ table with 8 x 8 elements.
Info: Found 21 unique exclusion lists needing 52 bytes
TCL: Running for 1500000 steps
ETITLE: TS BOND ANGLE DIHED IMPRP ELECT VDW BOUNDARY MISC KINETIC TOTAL TEMP POTENTIAL TOTALAVG TEMPAVG PRESSURE GPRESSURE VOLUME PRESSAVG GPRESSAVG
ENERGY: 0 6.6372 6.0151 4.0690 0.0000 -10933.2819 1529.3809 0.0000 0.0000 1750.3305 -7636.8492 294.2396 -9387.1797 -7636.8492 294.2396 439.5136 525.3600 30541.5025 439.5136 525.3600
ENERGY: 300000 2.9510 5.1834 6.3669 0.0000 -10892.0309 1557.9754 0.0000 0.0000 1758.1929 -7561.3612 295.5614 -9319.5541 -7570.5631 296.8954 1033.1902 1068.5535 30407.4933 444.1887 519.4712
ENERGY: 600000 2.1081 6.1912 4.6830 0.0000 -10741.3665 1434.3112 0.0000 0.0000 1784.6688 -7509.4042 300.0121 -9294.0730 -7556.0746 298.5388 -167.5542 -49.5189 30914.7546 125.1850 201.3304
ENERGY: 900000 5.1574 7.1803 2.9017 0.0000 -10804.1018 1397.8917 0.0000 0.0000 1749.6317 -7641.3390 294.1222 -9390.9707 -7562.8344 299.0432 -607.1960 -494.8349 30768.6847 -12.1606 59.3844
ENERGY: 1200000 4.0600 11.0815 2.7295 0.0000 -10753.3548 1333.6464 0.0000 0.0000 1768.2193 -7633.6180 297.2468 -9401.8373 -7576.1727 299.4154 -1006.0175 -1046.1544 30909.3382 -165.8599 -106.1771
ENERGY: 1500000 3.4630 5.0223 6.4426 0.0000 -10693.1933 1403.5863 0.0000 0.0000 1735.4826 -7539.1964 291.7436 -9274.6790 -7563.0846 299.4527 -242.9873 -214.7285 31074.5389 -128.4644 -70.2216
TCL: Running FEP window   2: Lambda1 0.95   Lambda2 0.8999999999999999 [dLambda -0.050000000000000044]
TCL: Setting parameter firsttimestep to 0
TCL: Setting parameter alchLambda to 0.95
Info: NONBONDED TABLE R-SQUARED SPACING: 0.0625
Info: NONBONDED TABLE SIZE: 705 POINTS
TCL: Setting parameter alchLambda2 to 0.8999999999999999
Info: NONBONDED TABLE R-SQUARED SPACING: 0.0625
Info: NONBONDED TABLE SIZE: 705 POINTS
TCL: Running for 1500000 steps
ETITLE: TS BOND ANGLE DIHED IMPRP ELECT VDW BOUNDARY MISC KINETIC TOTAL TEMP POTENTIAL TOTALAVG TEMPAVG PRESSURE GPRESSURE VOLUME PRESSAVG GPRESSAVG
ENERGY: 0 3.4630 5.0223 6.4426 0.0000 -10692.0391 1403.7066 0.0000 0.0000 1734.5746 -7538.8299 291.5910 -9273.4045 -7538.8299 291.5910 -301.7940 -219.3364 31074.5389 -301.7940 -219.3364
ENERGY: 300000 1.7878 3.6320 4.9886 0.0000 -10723.8661 1438.6710 0.0000 0.0000 1722.1835 -7552.6033 289.5080 -9274.7867 -7548.9894 296.8825 81.4791 60.4857 30969.8560 286.1318 328.8973
ENERGY: 600000 4.3834 2.3993 2.4429 0.0000 -10803.5347 1458.9258 0.0000 0.0000 1794.1478 -7541.2355 301.6056 -9335.3833 -7543.5585 298.5132 -129.2781 -48.2167 30934.5924 240.5139 302.4673
ENERGY: 900000 4.4529 5.2541 6.5698 0.0000 -10740.7665 1412.1355 0.0000 0.0000 1795.5374 -7516.8168 301.8392 -9312.3542 -7541.4806 299.7662 -497.7517 -468.2716 31264.5686 105.6081 157.0048
ENERGY: 1200000 4.6637 3.3222 3.8217 0.0000 -10773.7854 1410.4451 0.0000 0.0000 1805.9978 -7545.5349 303.5976 -9351.5326 -7543.0548 300.7684 -449.4602 -404.8734 31016.6334 -7.8206 45.9840
ENERGY: 1500000 2.4001 3.7544 2.9227 0.0000 -10875.1996 1464.3265 0.0000 0.0000 1844.8009 -7556.9950 310.1206 -9401.7959 -7559.2686 300.3972 -86.4416 9.0071 30979.5270 -60.5264 2.4162
TCL: Running FEP window   3: Lambda1 0.8999999999999999 Lambda2 0.8499999999999999 [dLambda -0.050000000000000044]
TCL: Setting parameter firsttimestep to 0
TCL: Setting parameter alchLambda to 0.8999999999999999
Info: NONBONDED TABLE R-SQUARED SPACING: 0.0625
Info: NONBONDED TABLE SIZE: 705 POINTS
TCL: Setting parameter alchLambda2 to 0.8499999999999999
Info: NONBONDED TABLE R-SQUARED SPACING: 0.0625
Info: NONBONDED TABLE SIZE: 705 POINTS
TCL: Running for 1500000 steps
ETITLE: TS BOND ANGLE DIHED IMPRP ELECT VDW BOUNDARY MISC KINETIC TOTAL TEMP POTENTIAL TOTALAVG TEMPAVG PRESSURE GPRESSURE VOLUME PRESSAVG GPRESSAVG
ENERGY: 0 2.4001 3.7544 2.9227 0.0000 -10873.6668 1463.7799 0.0000 0.0000 1843.9131 -7556.8966 309.9714 -9400.8097 -7556.8966 309.9714 -97.4081 -6.8113 30979.5270 -97.4081 -6.8113
ENERGY: 300000 1.8845 5.8565 4.3995 0.0000 -10882.5127 1484.4554 0.0000 0.0000 1817.4448 -7568.4720 305.5219 -9385.9168 -7600.4262 302.6027 378.4602 425.1372 30448.3230 -58.1703 -8.2178
ENERGY: 600000 1.5633 3.8001 6.8925 0.0000 -10829.0816 1445.5122 0.0000 0.0000 1747.5293 -7623.7843 293.7687 -9371.3136 -7600.6780 301.7482 -456.6231 -385.5134 31083.9544 -52.1771 -0.9557
ENERGY: 900000 1.6746 7.1707 3.7040 0.0000 -10778.6899 1428.9072 0.0000 0.0000 1774.4922 -7562.7412 298.3014 -9337.2334 -7586.5435 301.3217 -416.4415 -321.3277 31086.4180 -39.2230 12.8402
ENERGY: 1200000 3.0816 9.7232 6.6893 0.0000 -10781.2645 1380.6466 0.0000 0.0000 1721.7092 -7659.4145 289.4283 -9381.1237 -7594.8073 300.4892 -828.7927 -695.6152 30651.9076 -45.3565 15.2989
ENERGY: 1500000 2.6688 7.2931 3.3627 0.0000 -10769.4457 1449.3049 0.0000 0.0000 1789.7849 -7517.0313 300.8721 -9306.8163 -7585.6567 300.1772 294.9721 317.7380 30553.4608 27.7117 80.6949
TCL: Running FEP window   4: Lambda1 0.8499999999999999 Lambda2 0.7999999999999998 [dLambda -0.050000000000000044]
TCL: Setting parameter firsttimestep to 0
TCL: Setting parameter alchLambda to 0.8499999999999999
Info: NONBONDED TABLE R-SQUARED SPACING: 0.0625
Info: NONBONDED TABLE SIZE: 705 POINTS
TCL: Setting parameter alchLambda2 to 0.7999999999999998
Info: NONBONDED TABLE R-SQUARED SPACING: 0.0625
Info: NONBONDED TABLE SIZE: 705 POINTS
TCL: Running for 1500000 steps
ETITLE: TS BOND ANGLE DIHED IMPRP ELECT VDW BOUNDARY MISC KINETIC TOTAL TEMP POTENTIAL TOTALAVG TEMPAVG PRESSURE GPRESSURE VOLUME PRESSAVG GPRESSAVG
ENERGY: 0 2.6688 7.2931 3.3627 0.0000 -10767.3720 1449.5949 0.0000 0.0000 1788.8960 -7515.5566 300.7227 -9304.4526 -7515.5566 300.7227 231.9257 312.7038 30553.4608 231.9257 312.7038
ENERGY: 300000 2.3360 8.5535 4.0814 0.0000 -10997.0122 1639.8856 0.0000 0.0000 1759.4594 -7582.6963 295.7743 -9342.1557 -7579.5740 296.6082 1414.7719 1507.7839 30407.4171 443.1863 523.1213
ENERGY: 600000 1.1149 6.0498 4.5712 0.0000 -10997.2971 1592.0005 0.0000 0.0000 1812.6706 -7580.8902 304.7193 -9393.5608 -7589.1177 298.2431 1267.1451 1275.4524 30216.1784 513.9431 575.8923
ENERGY: 900000 1.5511 6.8182 2.3857 0.0000 -10762.1028 1415.3272 0.0000 0.0000 1723.9414 -7612.0791 289.8035 -9336.0206 -7585.8445 296.9678 -584.3521 -514.3967 31307.2863 271.0521 332.1866
ENERGY: 1200000 2.4222 4.2451 2.9393 0.0000 -10856.8390 1530.3403 0.0000 0.0000 1749.1053 -7567.7868 294.0337 -9316.8921 -7583.6919 296.1722 618.0659 679.7367 30635.7735 222.1046 279.1539
ENERGY: 1500000 5.0957 5.1320 2.8561 0.0000 -10803.6109 1473.4539 0.0000 0.0000 1804.8391 -7512.2340 303.4028 -9317.0731 -7583.8071 297.3944 203.6022 229.7016 30934.8500 131.4011 189.3533
TCL: Running FEP window   5: Lambda1 0.7999999999999998 Lambda2 0.7499999999999998 [dLambda -0.050000000000000044]
TCL: Setting parameter firsttimestep to 0
TCL: Setting parameter alchLambda to 0.7999999999999998
Info: NONBONDED TABLE R-SQUARED SPACING: 0.0625
Info: NONBONDED TABLE SIZE: 705 POINTS
TCL: Setting parameter alchLambda2 to 0.7499999999999998
Info: NONBONDED TABLE R-SQUARED SPACING: 0.0625
Info: NONBONDED TABLE SIZE: 705 POINTS
TCL: Running for 1500000 steps
ETITLE: TS BOND ANGLE DIHED IMPRP ELECT VDW BOUNDARY MISC KINETIC TOTAL TEMP POTENTIAL TOTALAVG TEMPAVG PRESSURE GPRESSURE VOLUME PRESSAVG GPRESSAVG
ENERGY: 0 5.0957 5.1320 2.8561 0.0000 -10801.8422 1473.5437 0.0000 0.0000 1803.9772 -7511.2374 303.2579 -9315.2146 -7511.2374 303.2579 146.1062 225.8507 30934.8500 146.1062 225.8507
ENERGY: 300000 3.3948 7.2434 3.7105 0.0000 -10931.4111 1499.5522 0.0000 0.0000 1850.5702 -7566.9401 311.0905 -9417.5103 -7574.9910 299.2459 469.1964 511.0743 30145.0883 112.3448 180.1301
ENERGY: 600000 5.1860 9.2866 4.6049 0.0000 -10812.3114 1504.4497 0.0000 0.0000 1762.9054 -7525.8788 296.3536 -9288.7842 -7575.4844 299.4153 558.3435 650.1900 30710.9174 85.3820 146.6210
ENERGY: 900000 3.3691 5.3018 2.8286 0.0000 -10701.4528 1315.5793 0.0000 0.0000 1811.0657 -7563.3082 304.4495 -9374.3740 -7562.4564 299.6898 -920.2878 -854.9165 30555.6434 -141.5294 -83.8099
ENERGY: 1200000 1.4361 9.8577 2.0477 0.0000 -10729.1889 1406.2495 0.0000 0.0000 1779.6448 -7529.9531 299.1675 -9309.5980 -7566.5926 298.6609 -733.6838 -632.1107 31371.7906 -89.2913 -34.0470
ENERGY: 1500000 2.1741 6.3758 5.9498 0.0000 -10834.4122 1468.9571 0.0000 0.0000 1720.9584 -7629.9970 289.3020 -9350.9555 -7577.5097 297.7900 108.4962 172.3831 30429.6903 -86.4788 -33.7493
TCL: Running FEP window   6: Lambda1 0.7499999999999998 Lambda2 0.6999999999999997 [dLambda -0.050000000000000044]
TCL: Setting parameter firsttimestep to 0
TCL: Setting parameter alchLambda to 0.7499999999999998
Info: NONBONDED TABLE R-SQUARED SPACING: 0.0625
Info: NONBONDED TABLE SIZE: 705 POINTS
TCL: Setting parameter alchLambda2 to 0.6999999999999997
Info: NONBONDED TABLE R-SQUARED SPACING: 0.0625
Info: NONBONDED TABLE SIZE: 705 POINTS
TCL: Running for 1500000 steps
ETITLE: TS BOND ANGLE DIHED IMPRP ELECT VDW BOUNDARY MISC KINETIC TOTAL TEMP POTENTIAL TOTALAVG TEMPAVG PRESSURE GPRESSURE VOLUME PRESSAVG GPRESSAVG
ENERGY: 0 2.1741 6.3758 5.9498 0.0000 -10833.0233 1468.7697 0.0000 0.0000 1720.0765 -7629.6775 289.1538 -9349.7540 -7629.6775 289.1538 65.1367 163.2519 30429.6903 65.1367 163.2519
ENERGY: 300000 2.6316 6.5174 3.7830 0.0000 -10648.0931 1418.6431 0.0000 0.0000 1794.3636 -7422.1545 301.6418 -9216.5181 -7533.1270 296.0086 -206.4600 -162.1975 31533.8624 -246.7694 -155.3784
ENERGY: 600000 2.1139 3.1004 5.1098 0.0000 -10702.0087 1460.5374 0.0000 0.0000 1729.4884 -7501.6589 290.7360 -9231.1472 -7528.8310 296.4123 327.6780 349.9131 30817.5423 -241.6773 -168.9266
ENERGY: 900000 1.6284 5.1872 2.9064 0.0000 -10900.7448 1495.1805 0.0000 0.0000 1777.8416 -7618.0007 298.8644 -9395.8422 -7557.3849 296.2329 -72.8444 2.8277 30950.6934 -280.9484 -222.2155
ENERGY: 1200000 5.1315 10.0604 2.5017 0.0000 -10900.1569 1421.7270 0.0000 0.0000 1749.0982 -7711.6381 294.0325 -9460.7363 -7550.7848 297.7237 -551.5445 -577.1195 30180.4833 -325.8178 -265.2120
ENERGY: 1500000 0.9475 5.1010 4.2257 0.0000 -10805.4777 1445.0939 0.0000 0.0000 1791.9078 -7558.2019 301.2290 -9350.1097 -7543.5354 299.0249 -325.1684 -240.1073 30927.4022 -317.8814 -257.2572
TCL: Running FEP window   7: Lambda1 0.6999999999999997 Lambda2 0.6499999999999997 [dLambda -0.050000000000000044]
TCL: Setting parameter firsttimestep to 0
TCL: Setting parameter alchLambda to 0.6999999999999997
Info: NONBONDED TABLE R-SQUARED SPACING: 0.0625
Info: NONBONDED TABLE SIZE: 705 POINTS
TCL: Setting parameter alchLambda2 to 0.6499999999999997
Info: NONBONDED TABLE R-SQUARED SPACING: 0.0625
Info: NONBONDED TABLE SIZE: 705 POINTS
TCL: Running for 1500000 steps
ETITLE: TS BOND ANGLE DIHED IMPRP ELECT VDW BOUNDARY MISC KINETIC TOTAL TEMP POTENTIAL TOTALAVG TEMPAVG PRESSURE GPRESSURE VOLUME PRESSAVG GPRESSAVG
ENERGY: 0 0.9475 5.1010 4.2257 0.0000 -10803.6851 1444.9857 0.0000 0.0000 1790.9987 -7557.4265 301.0762 -9348.4252 -7557.4265 301.0762 -337.8236 -246.0378 30927.4022 -337.8236 -246.0378
ENERGY: 300000 2.0660 11.9701 4.2712 0.0000 -10798.7258 1428.9289 0.0000 0.0000 1775.8302 -7575.6593 298.5263 -9351.4895 -7567.8578 298.6767 -296.3295 -216.7405 31095.7212 -86.4253 -1.3519
ENERGY: 600000 2.3481 7.3668 5.5061 0.0000 -10797.6380 1481.8787 0.0000 0.0000 1776.6234 -7523.9150 298.6596 -9300.5384 -7565.6694 298.1754 226.0490 243.0664 30794.4139 68.3251 144.3446
ENERGY: 900000 2.4801 4.3853 2.8202 0.0000 -10840.6565 1478.7947 0.0000 0.0000 1818.9172 -7533.2590 305.7694 -9352.1763 -7556.3228 300.0263 -33.8072 43.9607 30980.1382 123.3007 198.2695
ENERGY: 1200000 3.1894 9.7166 4.4396 0.0000 -10888.6165 1520.9990 0.0000 0.0000 1810.6902 -7539.5815 304.3864 -9350.2717 -7558.8758 300.2201 354.8028 478.7935 30482.5179 32.6197 103.4412
ENERGY: 1500000 2.4559 4.7551 5.0177 0.0000 -10676.4171 1308.5740 0.0000 0.0000 1737.2531 -7618.3613 292.0413 -9355.6144 -7564.8225 299.2771 -1318.1095 -1251.1451 31091.2135 -144.9127 -78.2423
TCL: Running FEP window   8: Lambda1 0.6499999999999997 Lambda2 0.5999999999999996 [dLambda -0.050000000000000044]
TCL: Setting parameter firsttimestep to 0
TCL: Setting parameter alchLambda to 0.6499999999999997
Info: NONBONDED TABLE R-SQUARED SPACING: 0.0625
Info: NONBONDED TABLE SIZE: 705 POINTS
TCL: Setting parameter alchLambda2 to 0.5999999999999996
Info: NONBONDED TABLE R-SQUARED SPACING: 0.0625
Info: NONBONDED TABLE SIZE: 705 POINTS
TCL: Running for 1500000 steps
ETITLE: TS BOND ANGLE DIHED IMPRP ELECT VDW BOUNDARY MISC KINETIC TOTAL TEMP POTENTIAL TOTALAVG TEMPAVG PRESSURE GPRESSURE VOLUME PRESSAVG GPRESSAVG
ENERGY: 0 2.4559 4.7551 5.0177 0.0000 -10675.5900 1309.0514 0.0000 0.0000 1736.3542 -7617.9558 291.8901 -9354.3099 -7617.9558 291.8901 -1351.9166 -1254.2801 31091.2135 -1351.9166 -1254.2801
ENERGY: 300000 3.4964 4.5616 4.5572 0.0000 -10638.1034 1323.3526 0.0000 0.0000 1815.7128 -7486.4229 305.2307 -9302.1357 -7551.5279 297.0071 -1114.6833 -1109.1007 31194.6354 -425.2838 -379.2465
ENERGY: 600000 2.2446 8.5614 3.1443 0.0000 -10777.4595 1458.7599 0.0000 0.0000 1786.4571 -7518.2923 300.3127 -9304.7494 -7538.9149 298.3790 178.0138 195.2122 30776.9868 -46.2028 15.3245
ENERGY: 900000 0.9600 8.6841 5.6529 0.0000 -10798.6543 1502.6838 0.0000 0.0000 1818.9961 -7461.6774 305.7827 -9280.6735 -7541.5001 299.6448 302.2047 347.3977 31164.0367 -7.6837 49.3565
ENERGY: 1200000 3.0559 5.1575 3.7967 0.0000 -10855.5186 1420.5525 0.0000 0.0000 1799.5219 -7623.4341 302.5090 -9422.9560 -7543.3838 299.6057 20.9165 73.4017 30046.7413 -2.5208 56.9326
ENERGY: 1500000 3.0368 12.1329 5.8628 0.0000 -10893.7150 1525.9927 0.0000 0.0000 1759.5446 -7587.1451 295.7886 -9346.6897 -7551.0973 298.9874 535.1569 652.9541 30200.3938 86.4199 148.2978
TCL: Running FEP window   9: Lambda1 0.5999999999999996 Lambda2 0.5499999999999996 [dLambda -0.050000000000000044]
TCL: Setting parameter firsttimestep to 0
TCL: Setting parameter alchLambda to 0.5999999999999996
Info: NONBONDED TABLE R-SQUARED SPACING: 0.0625
Info: NONBONDED TABLE SIZE: 705 POINTS
TCL: Setting parameter alchLambda2 to 0.5499999999999996
Info: NONBONDED TABLE R-SQUARED SPACING: 0.0625
Info: NONBONDED TABLE SIZE: 705 POINTS
TCL: Running for 1500000 steps
ETITLE: TS BOND ANGLE DIHED IMPRP ELECT VDW BOUNDARY MISC KINETIC TOTAL TEMP POTENTIAL TOTALAVG TEMPAVG PRESSURE GPRESSURE VOLUME PRESSAVG GPRESSAVG
ENERGY: 0 3.0368 12.1329 5.8628 0.0000 -10893.3390 1526.3597 0.0000 0.0000 1758.6595 -7587.2873 295.6398 -9345.9468 -7587.2873 295.6398 550.7972 647.1861 30200.3938 550.7972 647.1861
ENERGY: 300000 2.3365 3.1271 5.8896 0.0000 -10883.9464 1488.6081 0.0000 0.0000 1740.5577 -7643.4274 292.5968 -9383.9851 -7570.6026 298.4640 48.2199 50.3813 30623.2061 391.7776 442.7499
ENERGY: 600000 3.4651 6.2748 3.4448 0.0000 -10760.8240 1441.5937 0.0000 0.0000 1756.4903 -7549.5554 295.2751 -9306.0457 -7568.3205 298.4451 226.9999 247.0204 30644.6536 316.9032 364.7952
ENERGY: 900000 4.9556 5.7781 6.3466 0.0000 -10770.6676 1398.3956 0.0000 0.0000 1850.1321 -7505.0596 311.0168 -9355.1916 -7571.6511 298.1520 -685.8575 -604.1146 30763.2889 78.6671 131.3746
ENERGY: 1200000 2.6305 11.5437 3.9792 0.0000 -10815.9069 1432.8156 0.0000 0.0000 1777.7008 -7587.2371 298.8407 -9364.9379 -7568.6136 298.5800 -605.4584 -524.8292 31502.9800 14.7846 67.7939
ENERGY: 1500000 1.5142 3.7329 6.1213 0.0000 -10649.8370 1353.6534 0.0000 0.0000 1768.9104 -7515.9048 297.3630 -9284.8152 -7553.3283 299.3670 -711.9868 -708.0051 31143.6948 -65.1430 -16.5169
TCL: Running FEP window  10: Lambda1 0.5499999999999996 Lambda2 0.4999999999999996 [dLambda -0.04999999999999999]
TCL: Setting parameter firsttimestep to 0
TCL: Setting parameter alchLambda to 0.5499999999999996
Info: NONBONDED TABLE R-SQUARED SPACING: 0.0625
Info: NONBONDED TABLE SIZE: 705 POINTS
TCL: Setting parameter alchLambda2 to 0.4999999999999996
Info: NONBONDED TABLE R-SQUARED SPACING: 0.0625
Info: NONBONDED TABLE SIZE: 705 POINTS
TCL: Running for 1500000 steps
ETITLE: TS BOND ANGLE DIHED IMPRP ELECT VDW BOUNDARY MISC KINETIC TOTAL TEMP POTENTIAL TOTALAVG TEMPAVG PRESSURE GPRESSURE VOLUME PRESSAVG GPRESSAVG
ENERGY: 0 1.5142 3.7329 6.1213 0.0000 -10649.6781 1353.5105 0.0000 0.0000 1768.0166 -7516.7826 297.2128 -9284.7992 -7516.7826 297.2128 -793.6552 -715.3491 31143.6948 -793.6552 -715.3491
ENERGY: 300000 1.3150 2.4140 6.3832 0.0000 -10962.0094 1544.8143 0.0000 0.0000 1798.6435 -7608.4394 302.3613 -9407.0829 -7575.7608 300.6911 739.8453 787.0952 30260.7497 151.0848 222.2193
ENERGY: 600000 2.1423 7.2990 7.0831 0.0000 -10771.2242 1443.6708 0.0000 0.0000 1821.0891 -7489.9398 306.1345 -9311.0290 -7555.5222 301.3918 -179.0353 -137.1232 31164.3260 27.2806 90.1666
ENERGY: 900000 3.3781 5.4158 2.9546 0.0000 -10908.2918 1501.8995 0.0000 0.0000 1776.6963 -7617.9475 298.6719 -9394.6438 -7566.6145 299.8008 45.9531 108.9111 30772.7276 73.2689 132.4133
ENERGY: 1200000 3.7784 5.9971 2.1747 0.0000 -10816.5382 1415.8946 0.0000 0.0000 1775.9671 -7612.7264 298.5493 -9388.6935 -7556.7675 300.7411 -578.7083 -527.8758 30986.0095 20.8532 77.0132
ENERGY: 1500000 2.8975 3.8491 5.2054 0.0000 -10916.9264 1578.1692 0.0000 0.0000 1758.9346 -7567.8706 295.6860 -9326.8052 -7562.4737 300.1695 744.3980 851.6502 30733.8109 47.3361 112.8349
TCL: Running FEP window  11: Lambda1 0.4999999999999996 Lambda2 0.4499999999999996 [dLambda -0.04999999999999999]
TCL: Setting parameter firsttimestep to 0
TCL: Setting parameter alchLambda to 0.4999999999999996
Info: NONBONDED TABLE R-SQUARED SPACING: 0.0625
Info: NONBONDED TABLE SIZE: 705 POINTS
TCL: Setting parameter alchLambda2 to 0.4499999999999996
Info: NONBONDED TABLE R-SQUARED SPACING: 0.0625
Info: NONBONDED TABLE SIZE: 705 POINTS
TCL: Running for 1500000 steps
ETITLE: TS BOND ANGLE DIHED IMPRP ELECT VDW BOUNDARY MISC KINETIC TOTAL TEMP POTENTIAL TOTALAVG TEMPAVG PRESSURE GPRESSURE VOLUME PRESSAVG GPRESSAVG
ENERGY: 0 2.8975 3.8491 5.2054 0.0000 -10916.2177 1577.3362 0.0000 0.0000 1758.0450 -7568.8846 295.5365 -9326.9296 -7568.8846 295.5365 749.6887 836.4683 30733.8109 749.6887 836.4683
ENERGY: 300000 1.4483 5.3901 2.6417 0.0000 -10926.9116 1491.0019 0.0000 0.0000 1813.7844 -7612.6453 304.9066 -9426.4297 -7572.7914 300.4284 62.8829 118.7965 30743.1517 281.4103 331.5233
ENERGY: 600000 2.4306 8.5709 2.3834 0.0000 -10678.4026 1407.4484 0.0000 0.0000 1833.2504 -7424.3189 308.1789 -9257.5692 -7548.0088 299.7723 -295.7206 -172.5927 31173.0034 111.9151 176.7753
ENERGY: 900000 1.2382 9.0050 3.1298 0.0000 -10995.1788 1544.9217 0.0000 0.0000 1800.1934 -7636.6907 302.6219 -9436.8840 -7552.9755 299.7440 432.7921 511.4602 30684.5642 102.2921 168.3462
ENERGY: 1200000 3.3460 3.1328 2.7216 0.0000 -10839.3275 1505.5406 0.0000 0.0000 1771.0541 -7553.5324 297.7234 -9324.5865 -7552.5679 299.2333 53.8509 103.4643 31259.4576 57.6503 120.7805
ENERGY: 1500000 1.0655 5.1959 5.2178 0.0000 -10740.9606 1400.7313 0.0000 0.0000 1793.5770 -7535.1732 301.5096 -9328.7502 -7554.2631 299.5224 -663.3956 -576.6702 31279.6489 -30.3151 36.0823
TCL: Running FEP window  12: Lambda1 0.4499999999999996 Lambda2 0.39999999999999963 [dLambda -0.04999999999999999]
TCL: Setting parameter firsttimestep to 0
TCL: Setting parameter alchLambda to 0.4499999999999996
Info: NONBONDED TABLE R-SQUARED SPACING: 0.0625
Info: NONBONDED TABLE SIZE: 705 POINTS
TCL: Setting parameter alchLambda2 to 0.39999999999999963
Info: NONBONDED TABLE R-SQUARED SPACING: 0.0625
Info: NONBONDED TABLE SIZE: 705 POINTS
TCL: Running for 1500000 steps
ETITLE: TS BOND ANGLE DIHED IMPRP ELECT VDW BOUNDARY MISC KINETIC TOTAL TEMP POTENTIAL TOTALAVG TEMPAVG PRESSURE GPRESSURE VOLUME PRESSAVG GPRESSAVG
ENERGY: 0 1.0655 5.1959 5.2178 0.0000 -10740.9609 1400.8673 0.0000 0.0000 1792.6782 -7535.9361 301.3585 -9328.6144 -7535.9361 301.3585 -662.6682 -581.9961 31279.6489 -662.6682 -581.9961
ENERGY: 300000 2.6377 3.8409 5.1471 0.0000 -10824.8697 1518.3253 0.0000 0.0000 1790.3056 -7504.6130 300.9597 -9294.9186 -7529.9124 299.2301 718.9427 723.4308 30630.6066 -68.9073 -31.2120
ENERGY: 600000 2.3431 4.7451 1.9293 0.0000 -10706.3430 1470.7871 0.0000 0.0000 1832.5055 -7394.0329 308.0537 -9226.5384 -7511.3513 300.4185 324.7482 406.7923 30933.2995 -67.3148 -21.6859
ENERGY: 900000 5.6129 3.5193 4.3561 0.0000 -10848.4385 1468.0787 0.0000 0.0000 1760.7226 -7606.1488 295.9866 -9366.8715 -7518.5632 301.5738 -95.1066 -85.7393 30790.3635 24.9455 71.3324
ENERGY: 1200000 2.5287 9.9585 3.7238 0.0000 -10803.9696 1449.1688 0.0000 0.0000 1813.5473 -7525.0425 304.8667 -9338.5898 -7530.7700 300.3872 -111.4443 15.2666 30578.2881 -100.8417 -44.2611
ENERGY: 1500000 3.0572 6.5092 4.3020 0.0000 -10963.1414 1511.0491 0.0000 0.0000 1721.2539 -7716.9701 289.3517 -9438.2240 -7548.2079 298.5608 187.6584 236.9676 30612.9960 -101.9137 -47.2415
TCL: Running FEP window  13: Lambda1 0.39999999999999963 Lambda2 0.34999999999999964 [dLambda -0.04999999999999999]
TCL: Setting parameter firsttimestep to 0
TCL: Setting parameter alchLambda to 0.39999999999999963
Info: NONBONDED TABLE R-SQUARED SPACING: 0.0625
Info: NONBONDED TABLE SIZE: 705 POINTS
TCL: Setting parameter alchLambda2 to 0.34999999999999964
Info: NONBONDED TABLE R-SQUARED SPACING: 0.0625
Info: NONBONDED TABLE SIZE: 705 POINTS
TCL: Running for 1500000 steps
ETITLE: TS BOND ANGLE DIHED IMPRP ELECT VDW BOUNDARY MISC KINETIC TOTAL TEMP POTENTIAL TOTALAVG TEMPAVG PRESSURE GPRESSURE VOLUME PRESSAVG GPRESSAVG
ENERGY: 0 3.0572 6.5092 4.3020 0.0000 -10963.1431 1511.4858 0.0000 0.0000 1720.3607 -7717.4283 289.2016 -9437.7890 -7717.4283 289.2016 151.6684 236.6210 30612.9960 151.6684 236.6210
ENERGY: 300000 2.1590 5.2868 3.5022 0.0000 -10764.4178 1511.5239 0.0000 0.0000 1796.7653 -7445.1806 302.0456 -9241.9459 -7583.9821 298.6520 550.7149 633.8863 30734.7540 42.6861 116.7331
ENERGY: 600000 3.7404 5.3339 4.1532 0.0000 -10774.1815 1470.7415 0.0000 0.0000 1780.2515 -7509.9611 299.2695 -9290.2125 -7562.0673 299.2901 218.3789 271.2485 30386.8767 54.4975 121.2026
ENERGY: 900000 3.6501 5.6989 4.0286 0.0000 -10837.0753 1464.9331 0.0000 0.0000 1739.0465 -7619.7181 292.3427 -9358.7646 -7566.4257 299.1185 31.6196 46.7126 30724.5354 91.2334 154.7279
ENERGY: 1200000 2.1443 9.4301 5.8928 0.0000 -10730.4108 1400.2840 0.0000 0.0000 1763.6540 -7549.0056 296.4794 -9312.6596 -7569.1211 298.3762 -490.8738 -432.5322 30921.5919 -51.1119 14.6730
ENERGY: 1500000 3.0913 4.6229 4.4353 0.0000 -10967.7079 1558.5918 0.0000 0.0000 1816.0352 -7580.9314 305.2849 -9396.9666 -7564.7388 299.3365 698.9468 854.4590 30149.9343 15.8876 82.8488
TCL: Running FEP window  14: Lambda1 0.34999999999999964 Lambda2 0.29999999999999966 [dLambda -0.04999999999999999]
TCL: Setting parameter firsttimestep to 0
TCL: Setting parameter alchLambda to 0.34999999999999964
Info: NONBONDED TABLE R-SQUARED SPACING: 0.0625
Info: NONBONDED TABLE SIZE: 705 POINTS
TCL: Setting parameter alchLambda2 to 0.29999999999999966
Info: NONBONDED TABLE R-SQUARED SPACING: 0.0625
Info: NONBONDED TABLE SIZE: 705 POINTS
TCL: Running for 1500000 steps
ETITLE: TS BOND ANGLE DIHED IMPRP ELECT VDW BOUNDARY MISC KINETIC TOTAL TEMP POTENTIAL TOTALAVG TEMPAVG PRESSURE GPRESSURE VOLUME PRESSAVG GPRESSAVG
ENERGY: 0 3.0913 4.6229 4.4353 0.0000 -10967.7080 1558.6142 0.0000 0.0000 1815.1912 -7581.7531 305.1431 -9396.9443 -7581.7531 305.1431 754.2921 848.6171 30149.9343 754.2921 848.6171
ENERGY: 300000 2.9282 4.5977 10.5787 0.0000 -10621.5000 1356.7472 0.0000 0.0000 1779.4824 -7467.1658 299.1402 -9246.6482 -7570.9956 298.3056 -806.7044 -771.9556 31039.8135 3.1271 69.0394
ENERGY: 600000 3.5042 8.0850 5.8728 0.0000 -10861.6434 1507.6438 0.0000 0.0000 1847.8288 -7488.7086 310.6296 -9336.5374 -7555.3156 300.3914 386.1373 522.2277 30363.2414 39.1200 112.4363
ENERGY: 900000 2.0877 3.7831 4.6771 0.0000 -10698.1216 1397.4826 0.0000 0.0000 1823.8515 -7466.2397 306.5989 -9290.0912 -7555.5175 299.8674 -411.1796 -339.7642 30731.2141 37.6587 100.9592
ENERGY: 1200000 4.8140 4.4907 6.6598 0.0000 -10783.5382 1462.4603 0.0000 0.0000 1764.1327 -7540.9808 296.5599 -9305.1135 -7565.4100 298.8268 197.8022 250.2097 30564.2190 -49.9012 11.4715
ENERGY: 1500000 5.1889 4.4096 2.4835 0.0000 -10832.6234 1492.8505 0.0000 0.0000 1799.5677 -7528.1232 302.5167 -9327.6910 -7565.9942 299.2345 464.5581 537.9753 30341.6041 -10.7968 41.9474
TCL: Running FEP window  15: Lambda1 0.29999999999999966 Lambda2 0.24999999999999967 [dLambda -0.04999999999999999]
TCL: Setting parameter firsttimestep to 0
TCL: Setting parameter alchLambda to 0.29999999999999966
Info: NONBONDED TABLE R-SQUARED SPACING: 0.0625
Info: NONBONDED TABLE SIZE: 705 POINTS
TCL: Setting parameter alchLambda2 to 0.24999999999999967
Info: NONBONDED TABLE R-SQUARED SPACING: 0.0625
Info: NONBONDED TABLE SIZE: 705 POINTS
TCL: Running for 1500000 steps
ETITLE: TS BOND ANGLE DIHED IMPRP ELECT VDW BOUNDARY MISC KINETIC TOTAL TEMP POTENTIAL TOTALAVG TEMPAVG PRESSURE GPRESSURE VOLUME PRESSAVG GPRESSAVG
ENERGY: 0 5.1890 4.4096 2.4835 0.0000 -10832.6237 1493.3377 0.0000 0.0000 1798.6649 -7528.5391 302.3649 -9327.2040 -7528.5391 302.3649 447.6805 533.3587 30341.6041 447.6805 533.3587
ENERGY: 300000 2.4989 5.6397 3.3868 0.0000 -10856.3310 1413.8843 0.0000 0.0000 1756.6512 -7674.2700 295.3022 -9430.9213 -7570.4147 299.1616 -709.9143 -645.5252 30798.1387 -155.1824 -89.4632
ENERGY: 600000 1.8403 5.1808 5.0009 0.0000 -10877.9621 1454.5016 0.0000 0.0000 1788.3861 -7623.0524 300.6370 -9411.4384 -7581.2776 298.4947 2.2961 74.3016 30482.6218 -77.2313 -7.7606
ENERGY: 900000 3.5922 8.7306 4.3327 0.0000 -10782.9035 1485.5411 0.0000 0.0000 1815.5585 -7465.1484 305.2048 -9280.7069 -7558.1906 299.3314 573.8374 673.8243 30417.5094 -30.1043 41.5998
ENERGY: 1200000 3.3401 10.5536 3.2903 0.0000 -10864.5145 1506.4184 0.0000 0.0000 1782.9247 -7557.9874 299.7189 -9340.9121 -7558.6500 299.9064 267.3177 357.2465 30981.9424 -5.2585 63.4440
ENERGY: 1500000 1.3285 5.6940 3.8259 0.0000 -10898.6442 1461.3490 0.0000 0.0000 1802.2062 -7624.2406 302.9602 -9426.4467 -7568.4645 300.1628 -63.2313 -29.4094 30450.9898 -50.8485 15.4016
TCL: Running FEP window  16: Lambda1 0.24999999999999967 Lambda2 0.19999999999999968 [dLambda -0.04999999999999999]
TCL: Setting parameter firsttimestep to 0
TCL: Setting parameter alchLambda to 0.24999999999999967
Info: NONBONDED TABLE R-SQUARED SPACING: 0.0625
Info: NONBONDED TABLE SIZE: 705 POINTS
TCL: Setting parameter alchLambda2 to 0.19999999999999968
Info: NONBONDED TABLE R-SQUARED SPACING: 0.0625
Info: NONBONDED TABLE SIZE: 705 POINTS
TCL: Running for 1500000 steps
ETITLE: TS BOND ANGLE DIHED IMPRP ELECT VDW BOUNDARY MISC KINETIC TOTAL TEMP POTENTIAL TOTALAVG TEMPAVG PRESSURE GPRESSURE VOLUME PRESSAVG GPRESSAVG
ENERGY: 0 1.3285 5.6940 3.8259 0.0000 -10898.6439 1461.0279 0.0000 0.0000 1801.3172 -7625.4504 302.8108 -9426.7676 -7625.4504 302.8108 -126.6399 -35.7940 30450.9898 -126.6399 -35.7940
ENERGY: 300000 1.0349 6.5667 2.5283 0.0000 -10716.1367 1423.4777 0.0000 0.0000 1821.1992 -7461.3300 306.1530 -9282.5292 -7500.8758 304.5941 114.6904 141.2528 30493.1266 -106.6431 -43.5581
ENERGY: 600000 1.9989 4.4374 3.7295 0.0000 -10760.7586 1370.4014 0.0000 0.0000 1823.7211 -7556.4703 306.5770 -9380.1914 -7519.7861 304.8560 -673.7594 -637.1643 30660.2115 -250.2380 -190.6578
ENERGY: 900000 2.1380 4.3880 2.4005 0.0000 -10844.8679 1435.3955 0.0000 0.0000 1772.7169 -7627.8290 298.0029 -9400.5459 -7529.3390 303.7140 -460.8592 -396.4853 30842.9159 -331.2606 -272.6338
ENERGY: 1200000 2.3748 10.7017 2.5606 0.0000 -10892.9163 1512.3218 0.0000 0.0000 1828.1247 -7536.8327 307.3173 -9364.9574 -7532.8949 303.8730 527.1951 551.9803 30391.1936 -263.0773 -212.1838
ENERGY: 1500000 4.0963 9.0021 3.9665 0.0000 -10639.5142 1381.1411 0.0000 0.0000 1761.0609 -7480.2473 296.0435 -9241.3082 -7540.4309 302.3936 -352.8327 -239.0050 30635.0710 -265.9328 -208.3951
TCL: Running FEP window  17: Lambda1 0.19999999999999968 Lambda2 0.1499999999999997 [dLambda -0.04999999999999999]
TCL: Setting parameter firsttimestep to 0
TCL: Setting parameter alchLambda to 0.19999999999999968
Info: NONBONDED TABLE R-SQUARED SPACING: 0.0625
Info: NONBONDED TABLE SIZE: 705 POINTS
TCL: Setting parameter alchLambda2 to 0.1499999999999997
Info: NONBONDED TABLE R-SQUARED SPACING: 0.0625
Info: NONBONDED TABLE SIZE: 705 POINTS
TCL: Running for 1500000 steps
ETITLE: TS BOND ANGLE DIHED IMPRP ELECT VDW BOUNDARY MISC KINETIC TOTAL TEMP POTENTIAL TOTALAVG TEMPAVG PRESSURE GPRESSURE VOLUME PRESSAVG GPRESSAVG
ENERGY: 0 4.0963 9.0021 3.9665 0.0000 -10639.5147 1381.6442 0.0000 0.0000 1760.1790 -7480.6266 295.8952 -9240.8056 -7480.6266 295.8952 -319.1022 -239.8638 30635.0710 -319.1022 -239.8638
ENERGY: 300000 1.8904 7.9965 2.3426 0.0000 -10850.8721 1443.3933 0.0000 0.0000 1750.9761 -7644.2732 294.3482 -9395.2493 -7556.6031 297.0350 -477.3107 -400.8513 30630.5273 -465.2218 -382.5428
ENERGY: 600000 2.4081 9.8071 5.6287 0.0000 -10906.6473 1557.4542 0.0000 0.0000 1775.0624 -7556.2868 298.3972 -9331.3492 -7546.2875 297.3093 816.8337 915.3479 30564.7437 -172.9677 -91.4319
ENERGY: 900000 4.8095 6.2210 3.4121 0.0000 -10986.3556 1547.6845 0.0000 0.0000 1780.2864 -7643.9421 299.2754 -9424.2285 -7553.9414 298.1049 389.0730 415.2520 30571.1840 -108.0620 -33.0794
ENERGY: 1200000 1.8933 5.8414 5.8287 0.0000 -10917.6297 1512.6365 0.0000 0.0000 1819.5379 -7571.8919 305.8738 -9391.4298 -7570.9300 298.3605 237.7682 313.2445 30854.8438 35.9904 102.8431
ENERGY: 1500000 2.0387 4.6256 3.1194 0.0000 -10814.7943 1486.3954 0.0000 0.0000 1741.2900 -7577.3250 292.7199 -9318.6151 -7569.9282 298.4614 372.3065 491.0200 30513.2996 145.5222 216.8960
TCL: Running FEP window  18: Lambda1 0.1499999999999997 Lambda2 0.09999999999999969 [dLambda -0.05 ]
TCL: Setting parameter firsttimestep to 0
TCL: Setting parameter alchLambda to 0.1499999999999997
Info: NONBONDED TABLE R-SQUARED SPACING: 0.0625
Info: NONBONDED TABLE SIZE: 705 POINTS
TCL: Setting parameter alchLambda2 to 0.09999999999999969
Info: NONBONDED TABLE R-SQUARED SPACING: 0.0625
Info: NONBONDED TABLE SIZE: 705 POINTS
TCL: Running for 1500000 steps
ETITLE: TS BOND ANGLE DIHED IMPRP ELECT VDW BOUNDARY MISC KINETIC TOTAL TEMP POTENTIAL TOTALAVG TEMPAVG PRESSURE GPRESSURE VOLUME PRESSAVG GPRESSAVG
ENERGY: 0 2.0388 4.6256 3.1194 0.0000 -10814.7944 1486.7825 0.0000 0.0000 1740.4001 -7577.8280 292.5703 -9318.2281 -7577.8280 292.5703 409.6628 490.9087 30513.2996 409.6628 490.9087
ENERGY: 300000 4.9040 5.8230 4.6118 0.0000 -10747.2445 1415.8728 0.0000 0.0000 1821.2459 -7494.7868 306.1609 -9316.0327 -7558.6813 299.2723 -399.9720 -331.4263 30796.7889 -230.1975 -165.8482
ENERGY: 600000 2.1165 7.5508 6.3960 0.0000 -10901.9625 1465.7265 0.0000 0.0000 1791.4026 -7628.7701 301.1441 -9420.1727 -7550.1200 299.4433 -184.3893 -109.0681 30275.7587 -154.2223 -91.3704
ENERGY: 900000 3.3270 2.7712 4.3579 0.0000 -10918.2922 1507.0763 0.0000 0.0000 1818.0538 -7582.7060 305.6243 -9400.7598 -7549.4934 299.5024 162.2964 228.1226 30355.0020 -85.1758 -15.2751
ENERGY: 1200000 1.8480 4.1570 3.5584 0.0000 -10819.0206 1479.9170 0.0000 0.0000 1811.9115 -7517.6287 304.5917 -9329.5402 -7546.6497 299.7709 134.2722 207.0643 30890.6583 -171.9380 -103.4381
ENERGY: 1500000 3.8658 4.2869 5.4195 0.0000 -10918.3511 1512.7822 0.0000 0.0000 1739.9262 -7652.0706 292.4906 -9391.9968 -7550.5781 299.4543 176.7389 244.8210 30379.6741 -133.6744 -61.5795
TCL: Running FEP window  19: Lambda1 0.09999999999999969 Lambda2 0.049999999999999684 [dLambda -0.05 ]
TCL: Setting parameter firsttimestep to 0
TCL: Setting parameter alchLambda to 0.09999999999999969
Info: NONBONDED TABLE R-SQUARED SPACING: 0.0625
Info: NONBONDED TABLE SIZE: 705 POINTS
TCL: Setting parameter alchLambda2 to 0.049999999999999684
Info: NONBONDED TABLE R-SQUARED SPACING: 0.0625
Info: NONBONDED TABLE SIZE: 705 POINTS
TCL: Running for 1500000 steps
ETITLE: TS BOND ANGLE DIHED IMPRP ELECT VDW BOUNDARY MISC KINETIC TOTAL TEMP POTENTIAL TOTALAVG TEMPAVG PRESSURE GPRESSURE VOLUME PRESSAVG GPRESSAVG
ENERGY: 0 3.8658 4.2869 5.4195 0.0000 -10918.3496 1512.4558 0.0000 0.0000 1739.0736 -7653.2481 292.3473 -9392.3217 -7653.2481 292.3473 153.8929 240.5938 30379.6741 153.8929 240.5938
ENERGY: 300000 3.5646 3.7370 4.2698 0.0000 -10584.4822 1290.6483 0.0000 0.0000 1726.1040 -7556.1586 290.1670 -9282.2625 -7586.4769 295.9320 -1251.9859 -1191.0523 31076.5017 -281.1962 -212.6615
ENERGY: 600000 3.8106 7.1143 4.0387 0.0000 -10827.3269 1449.4062 0.0000 0.0000 1779.3322 -7583.6248 299.1150 -9362.9570 -7578.5307 297.7762 -17.2375 28.0152 30639.0321 -345.4348 -269.1231
ENERGY: 900000 1.7625 2.5335 1.7568 0.0000 -10691.6415 1378.6760 0.0000 0.0000 1739.9367 -7566.9761 292.4924 -9306.9127 -7576.8303 298.3305 -431.1703 -409.8597 30518.1453 -251.0664 -192.8883
ENERGY: 1200000 3.2461 7.4541 5.0504 0.0000 -10732.5697 1461.5432 0.0000 0.0000 1746.2063 -7509.0696 293.5463 -9255.2759 -7567.9568 298.3054 -77.5152 -23.8411 31107.4738 -164.3223 -108.8283
ENERGY: 1500000 3.3060 6.3592 5.2006 0.0000 -10703.8104 1408.5286 0.0000 0.0000 1775.6969 -7504.7192 298.5039 -9280.4161 -7567.6837 298.1546 -442.9394 -355.9314 30759.8381 -136.9608 -79.3044
TCL: Running FEP window  20: Lambda1 0.049999999999999684 Lambda2 0.0    [dLambda -0.049999999999999684]
TCL: Setting parameter firsttimestep to 0
TCL: Setting parameter alchLambda to 0.049999999999999684
Info: NONBONDED TABLE R-SQUARED SPACING: 0.0625
Info: NONBONDED TABLE SIZE: 705 POINTS
TCL: Setting parameter alchLambda2 to 0.0
Info: NONBONDED TABLE R-SQUARED SPACING: 0.0625
Info: NONBONDED TABLE SIZE: 705 POINTS
TCL: Running for 1500000 steps
ETITLE: TS BOND ANGLE DIHED IMPRP ELECT VDW BOUNDARY MISC KINETIC TOTAL TEMP POTENTIAL TOTALAVG TEMPAVG PRESSURE GPRESSURE VOLUME PRESSAVG GPRESSAVG
ENERGY: 0 3.3060 6.3592 5.2006 0.0000 -10703.8098 1408.2931 0.0000 0.0000 1774.8013 -7505.8497 298.3533 -9280.6510 -7505.8497 298.3533 -446.5395 -359.6362 30759.8381 -446.5395 -359.6362
ENERGY: 300000 2.5112 4.8980 6.1760 0.0000 -10713.3700 1467.4155 0.0000 0.0000 1784.5442 -7447.8251 299.9911 -9232.3693 -7530.5616 298.9189 411.7239 485.1572 30404.8458 -214.8117 -151.0769
ENERGY: 600000 4.7900 7.2373 3.1767 0.0000 -10685.8123 1392.3109 0.0000 0.0000 1800.3459 -7477.9514 302.6475 -9278.2974 -7546.8522 299.6615 -575.5023 -505.2354 30956.0052 -67.1247 8.5492
ENERGY: 900000 3.7222 6.3288 7.5708 0.0000 -10920.0363 1517.4575 0.0000 0.0000 1775.1191 -7609.8379 298.4067 -9384.9571 -7547.3004 299.6808 387.4107 467.8295 30101.1606 84.5067 159.5031
ENERGY: 1200000 2.9048 3.9089 4.0938 0.0000 -10878.0228 1473.3700 0.0000 0.0000 1858.7019 -7535.0434 312.4574 -9393.7453 -7548.6964 300.7269 185.5119 214.3837 30632.4086 91.4906 156.8549
ENERGY: 1500000 1.8196 6.2782 5.6194 0.0000 -10754.0442 1450.8722 0.0000 0.0000 1830.6395 -7458.8154 307.7400 -9289.4549 -7541.7229 300.7133 163.4576 247.9104 30505.4660 1.5173 70.3999
TCL: Exiting due to exit command.
