Info: SIMULATION PARAMETERS:
Info: TIMESTEP               2
Info: NUMBER OF STEPS        0
Info: STEPS PER CYCLE        10
Info: PERIODIC CELL BASIS 1  30.7464 0 0
Info: PERIODIC CELL BASIS 2  0 30.1084 0
Info: PERIODIC CELL BASIS 3  0 0 32.6877
Info: PERIODIC CELL CENTER   0 0 0
Info: WRAPPING WATERS AROUND PERIODIC BOUNDARIES ON OUTPUT.
Info: WRAPPING ALL CLUSTERS AROUND PERIODIC BOUNDARIES ON OUTPUT.
Info: FIRST LDB TIMESTEP     50
Info: LAST LDB TIMESTEP     -1
Info: HOM BACKGROUND SCALING 1
Info: PME BACKGROUND SCALING 1
Info: MIN ATOMS PER PATCH    40
Info: EMPTY PATCH LOAD       40 ATOMS
Info: VELOCITY FILE          mobley_2693089_equil.vel
Info: CENTER OF MASS MOVING INITIALLY? NO
Info: DIELECTRIC             1
Info: EXCLUDE                SCALED ONE-FOUR
Info: 1-4 ELECTROSTATICS SCALED BY 0.833333
Info: MODIFIED 1-4 VDW PARAMETERS WILL BE USED
Info: DCD FILENAME           mobley_2693089_prod.dcd
Info: DCD FREQUENCY          100000
Info: DCD FIRST STEP         100000
Info: DCD FILE WILL CONTAIN UNIT CELL DATA
Info: XST FILENAME           mobley_2693089_prod.xst
Info: XST FREQUENCY          100000
Info: NO VELOCITY DCD OUTPUT
Info: NO FORCE DCD OUTPUT
Info: OUTPUT FILENAME        mobley_2693089_prod
Info: BINARY OUTPUT FILES WILL BE USED
Info: RESTART FILENAME       mobley_2693089_prod.restart
Info: RESTART FREQUENCY      100000
Info: BINARY RESTART FILES WILL BE USED
Info: CUTOFF                 9
Info: PAIRLIST DISTANCE      11
Info: PAIRLIST SHRINK RATE   0.01
Info: PAIRLIST GROW RATE     0.01
Info: PAIRLIST TRIGGER       0.3
Info: PAIRLISTS PER CYCLE    2
Info: PAIRLISTS ENABLED
Info: MARGIN                 2
Info: HYDROGEN GROUP CUTOFF  2.5
Info: PATCH DIMENSION        15.5
Info: ENERGY OUTPUT STEPS    100000
Info: ENERGY EVALUATION STEPS    100000
Info: OUTPUT ENERGY PRECISION 4
Info: CROSSTERM ENERGY INCLUDED IN DIHEDRAL
Info: TIMING OUTPUT STEPS    1000000
Info: PRESSURE OUTPUT STEPS  100000
Info: ALCHEMICAL FEP ON
Info: FEP CURRENT LAMBDA VALUE     1
Info: FEP COMPARISON LAMBDA VALUE  0.95
Info: FEP INTRA-ALCHEMICAL NON-BONDED INTERACTIONS WILL BE RETAINED
Info: FEP INTRA-ALCHEMICAL BONDED INTERACTIONS WILL BE RETAINED
Info: FEP VDW SHIFTING COEFFICIENT 5
Info: FEP ELEC. ACTIVE FOR ANNIHILATED PARTICLES BETWEEN LAMBDA = 0 AND LAMBDA = 0.5
Info: FEP ELEC. ACTIVE FOR EXNIHILATED PARTICLES BETWEEN LAMBDA = 0.5 AND LAMBDA = 1
Info: FEP VDW ACTIVE FOR ANNIHILATED PARTICLES BETWEEN LAMBDA = 0 AND LAMBDA = 1
Info: FEP VDW ACTIVE FOR EXNIHILATED PARTICLES BETWEEN LAMBDA = 0 AND LAMBDA = 1
Info: FEP BOND ACTIVE FOR ANNIHILATED PARTICLES BETWEEN LAMBDA = 1 AND LAMBDA = 1
Info: FEP BOND ACTIVE FOR EXNIHILATED PARTICLES BETWEEN LAMBDA = 0 AND LAMBDA = 0
Info: LANGEVIN DYNAMICS ACTIVE
Info: LANGEVIN TEMPERATURE   300
Info: LANGEVIN USING BBK INTEGRATOR
Info: LANGEVIN DAMPING COEFFICIENT IS 1 INVERSE PS
Info: LANGEVIN DYNAMICS APPLIED TO HYDROGENS
Info: LANGEVIN PISTON PRESSURE CONTROL ACTIVE
Info:        TARGET PRESSURE IS 1.01325 BAR
Info:     OSCILLATION PERIOD IS 50 FS
Info:             DECAY TIME IS 25 FS
Info:     PISTON TEMPERATURE IS 300 K
Info:       PRESSURE CONTROL IS GROUP-BASED
Info:    INITIAL STRAIN RATE IS -0.000652736 -0.000652736 -0.000652736
Info:       CELL FLUCTUATION IS ISOTROPIC
Info: PARTICLE MESH EWALD (PME) ACTIVE
Info: PME TOLERANCE               1e-06
Info: PME EWALD COEFFICIENT       0.348832
Info: PME INTERPOLATION ORDER     4
Info: PME GRID DIMENSIONS         32 32 36
Info: PME MAXIMUM GRID SPACING    1
Info: PME CALCULATION WILL BE PERFORMED ON GPU
Info: FULL ELECTROSTATIC EVALUATION FREQUENCY      2
Info: USING VERLET I (r-RESPA) MTS SCHEME.
Info: C1 SPLITTING OF LONG RANGE ELECTROSTATICS
Info: PLACING ATOMS IN PATCHES BY HYDROGEN GROUPS
Info: RIGID BONDS TO HYDROGEN : ALL
Info:         ERROR TOLERANCE : 1e-08
Info:          MAX ITERATIONS : 100
Info: RIGID WATER USING SETTLE ALGORITHM
Info: RANDOM NUMBER SEED     1743875402
Info: USE HYDROGEN BONDS?    NO
Info: Using AMBER format force field!
Info: AMBER PARM FILE        mobley_2693089.prmtop
Info: COORDINATE PDB         mobley_2693089.pdb
Info: Exclusions will be read from PARM file!
Info: SCNB (VDW SCALING)     2
Info: USING ARITHMETIC MEAN TO COMBINE L-J SIGMA PARAMETERS
Info: BINARY COORDINATES     mobley_2693089_equil.coor
Info: SUMMARY OF PARAMETERS:
Info: 8 BONDS
Info: 11 ANGLES
Info:   11 HARMONIC
Info:   0 COSINE-BASED
Info: 7 DIHEDRAL
Info: 0 IMPROPER
Info: 0 CROSSTERM
Info: 0 VDW
Info: 28 VDW_PAIRS
Info: 0 NBTHOLE_PAIRS
Info: To read alchdata from file: mobley_2693089.pdb
Info: To read alchflag data from column: 5
Info: STRUCTURE SUMMARY:
Info: 2962 ATOMS
Info: 2962 BONDS
Info: 38 ANGLES
Info: 53 DIHEDRALS
Info: 0 IMPROPERS
Info: 0 CROSSTERMS
Info: 3046 EXCLUSIONS
Info: 2952 RIGID BONDS
Info: ALCH: 0 ATOMS TO DISAPPEAR IN FINAL STATE
Info: ALCH: 22 ATOMS TO APPEAR IN FINAL STATE
Info: 5934 DEGREES OF FREEDOM
Info: 990 HYDROGEN GROUPS
Info: 4 ATOMS IN LARGEST HYDROGEN GROUP
Info: 990 MIGRATION GROUPS
Info: 4 ATOMS IN LARGEST MIGRATION GROUP
Info: TOTAL MASS = 17791.9 amu
Info: TOTAL CHARGE = -9.99868e-05 e
Info: MASS DENSITY = 0.976371 g/cm^3
Info: ATOM DENSITY = 0.0978856 atoms/A^3
Info: ADDED 0 IMPLICIT EXCLUSIONS
Info: NONBONDED TABLE R-SQUARED SPACING: 0.0625
Info: NONBONDED TABLE SIZE: 705 POINTS
Info: REMOVING COM VELOCITY -0.0507604 -0.024195 0.00298324
Info: Use 3D box decompostion in PME FFT.
Info: Updated CUDA force table with 4096 elements.
Info: Updated CUDA LJ table with 7 x 7 elements.
Info: Found 23 unique exclusion lists needing 76 bytes
TCL: Running for 1500000 steps
ETITLE: TS BOND ANGLE DIHED IMPRP ELECT VDW BOUNDARY MISC KINETIC TOTAL TEMP POTENTIAL TOTALAVG TEMPAVG PRESSURE GPRESSURE VOLUME PRESSAVG GPRESSAVG
ENERGY: 0 5.9399 7.2236 4.0626 0.0000 -10756.6684 1499.0341 0.0000 0.0000 1757.5248 -7482.8833 298.0879 -9240.4081 -7482.8833 298.0879 369.0167 476.9752 30259.8140 369.0167 476.9752
ENERGY: 300000 5.6325 11.5912 2.8650 0.0000 -10783.1965 1476.6527 0.0000 0.0000 1751.0613 -7535.3938 296.9916 -9286.4551 -7453.1422 298.9549 -69.1687 -8.2574 30630.1403 -155.7008 -84.2364
ENERGY: 600000 5.3091 12.4686 3.2671 0.0000 -10733.9964 1438.7339 0.0000 0.0000 1743.7397 -7530.4780 295.7498 -9274.2177 -7481.6538 297.9376 -167.6273 -56.4297 30204.8743 -22.0382 49.1448
ENERGY: 900000 6.3419 6.1305 2.6875 0.0000 -10686.8042 1394.6065 0.0000 0.0000 1768.4904 -7508.5474 299.9477 -9277.0377 -7482.5403 298.6625 -714.4191 -596.3853 30634.4110 -202.1477 -131.3626
ENERGY: 1200000 5.4148 11.1311 9.4184 0.0000 -10740.1885 1521.5896 0.0000 0.0000 1806.9135 -7385.7211 306.4645 -9192.6346 -7460.7407 299.7010 691.3924 787.1766 30180.2872 -116.9445 -48.5098
ENERGY: 1500000 3.2945 8.2214 2.1122 0.0000 -10770.0449 1557.7399 0.0000 0.0000 1718.9493 -7479.7276 291.5452 -9198.6769 -7467.3122 299.2289 986.8849 1099.9339 30196.6720 19.4631 92.8728
TCL: Running FEP window   2: Lambda1 0.95   Lambda2 0.8999999999999999 [dLambda -0.050000000000000044]
TCL: Setting parameter firsttimestep to 0
TCL: Setting parameter alchLambda to 0.95
Info: NONBONDED TABLE R-SQUARED SPACING: 0.0625
Info: NONBONDED TABLE SIZE: 705 POINTS
TCL: Setting parameter alchLambda2 to 0.8999999999999999
Info: NONBONDED TABLE R-SQUARED SPACING: 0.0625
Info: NONBONDED TABLE SIZE: 705 POINTS
TCL: Running for 1500000 steps
ETITLE: TS BOND ANGLE DIHED IMPRP ELECT VDW BOUNDARY MISC KINETIC TOTAL TEMP POTENTIAL TOTALAVG TEMPAVG PRESSURE GPRESSURE VOLUME PRESSAVG GPRESSAVG
ENERGY: 0 3.2945 8.2214 2.1122 0.0000 -10768.1182 1557.5937 0.0000 0.0000 1718.0787 -7478.8176 291.3975 -9196.8963 -7478.8176 291.3975 1011.9883 1087.9359 30196.6720 1011.9883 1087.9359
ENERGY: 300000 4.9790 6.4148 3.8224 0.0000 -10538.5175 1423.4332 0.0000 0.0000 1746.4033 -7353.4649 296.2016 -9099.8681 -7408.9798 295.9843 -341.3614 -239.4854 31198.9029 55.1203 134.2953
ENERGY: 600000 3.0337 6.5466 1.8372 0.0000 -10669.1563 1474.3932 0.0000 0.0000 1759.5112 -7423.8344 298.4248 -9183.3456 -7410.8943 297.7456 222.4969 250.7372 31036.3758 9.4123 88.0578
ENERGY: 900000 4.5773 7.4142 2.7233 0.0000 -10595.6613 1387.0609 0.0000 0.0000 1755.3476 -7438.5381 297.7186 -9193.8857 -7406.9936 299.3599 -448.9074 -369.2309 30528.1622 22.6902 92.6490
ENERGY: 1200000 3.7782 10.8963 2.9809 0.0000 -10541.0557 1395.0346 0.0000 0.0000 1768.4090 -7359.9567 299.9339 -9128.3657 -7404.8649 299.7886 -410.6090 -357.7383 31212.1888 93.7523 155.3921
ENERGY: 1500000 3.9718 10.0343 3.9675 0.0000 -10595.5216 1379.2256 0.0000 0.0000 1762.6434 -7435.6789 298.9560 -9198.3224 -7416.6448 299.3839 -687.9695 -639.6260 30697.4472 -6.2649 51.2928
TCL: Running FEP window   3: Lambda1 0.8999999999999999 Lambda2 0.8499999999999999 [dLambda -0.050000000000000044]
TCL: Setting parameter firsttimestep to 0
TCL: Setting parameter alchLambda to 0.8999999999999999
Info: NONBONDED TABLE R-SQUARED SPACING: 0.0625
Info: NONBONDED TABLE SIZE: 705 POINTS
TCL: Setting parameter alchLambda2 to 0.8499999999999999
Info: NONBONDED TABLE R-SQUARED SPACING: 0.0625
Info: NONBONDED TABLE SIZE: 705 POINTS
TCL: Running for 1500000 steps
ETITLE: TS BOND ANGLE DIHED IMPRP ELECT VDW BOUNDARY MISC KINETIC TOTAL TEMP POTENTIAL TOTALAVG TEMPAVG PRESSURE GPRESSURE VOLUME PRESSAVG GPRESSAVG
ENERGY: 0 3.9718 10.0343 3.9675 0.0000 -10593.7432 1379.2813 0.0000 0.0000 1761.7914 -7434.6969 298.8115 -9196.4882 -7434.6969 298.8115 -740.0927 -652.1353 30697.4472 -740.0927 -652.1353
ENERGY: 300000 2.9624 6.2320 4.4400 0.0000 -10609.3236 1432.5750 0.0000 0.0000 1767.6853 -7395.4290 299.8112 -9163.1143 -7448.0934 298.3813 117.1926 169.5073 30587.6437 -47.2657 15.7957
ENERGY: 600000 5.3161 10.3892 2.6909 0.0000 -10761.1674 1500.1955 0.0000 0.0000 1746.0080 -7496.5676 296.1345 -9242.5756 -7447.5476 299.0196 512.9472 577.0233 29939.6365 158.7773 222.7466
ENERGY: 900000 1.8571 6.5960 2.4820 0.0000 -10679.3266 1515.5537 0.0000 0.0000 1747.2430 -7405.5947 296.3440 -9152.8376 -7431.6825 300.0899 813.0219 867.7620 30515.1826 243.2247 304.1534
ENERGY: 1200000 5.2572 4.8694 2.5449 0.0000 -10587.7373 1452.4181 0.0000 0.0000 1731.7499 -7390.8978 293.7163 -9122.6477 -7417.2183 298.8539 117.7321 252.2910 30659.0570 172.6896 238.4830
ENERGY: 1500000 7.7539 4.2690 2.2936 0.0000 -10677.3340 1428.2301 0.0000 0.0000 1762.9579 -7471.8296 299.0094 -9234.7875 -7413.6292 299.6709 -407.5938 -361.8661 30640.4715 115.6829 179.4475
TCL: Running FEP window   4: Lambda1 0.8499999999999999 Lambda2 0.7999999999999998 [dLambda -0.050000000000000044]
TCL: Setting parameter firsttimestep to 0
TCL: Setting parameter alchLambda to 0.8499999999999999
Info: NONBONDED TABLE R-SQUARED SPACING: 0.0625
Info: NONBONDED TABLE SIZE: 705 POINTS
TCL: Setting parameter alchLambda2 to 0.7999999999999998
Info: NONBONDED TABLE R-SQUARED SPACING: 0.0625
Info: NONBONDED TABLE SIZE: 705 POINTS
TCL: Running for 1500000 steps
ETITLE: TS BOND ANGLE DIHED IMPRP ELECT VDW BOUNDARY MISC KINETIC TOTAL TEMP POTENTIAL TOTALAVG TEMPAVG PRESSURE GPRESSURE VOLUME PRESSAVG GPRESSAVG
ENERGY: 0 7.7539 4.2689 2.2935 0.0000 -10675.6650 1427.4809 0.0000 0.0000 1762.1037 -7471.7640 298.8645 -9233.8677 -7471.7640 298.8645 -473.7426 -384.1251 30640.4715 -473.7426 -384.1251
ENERGY: 300000 3.7931 6.7782 3.8957 0.0000 -10630.1339 1427.0426 0.0000 0.0000 1707.7662 -7480.8582 289.6485 -9188.6244 -7480.4153 296.3636 -190.0000 -139.3784 30647.1644 -363.0395 -290.3686
ENERGY: 600000 1.2220 10.8379 4.4357 0.0000 -10621.1292 1430.6131 0.0000 0.0000 1758.3788 -7415.6417 298.2327 -9174.0204 -7443.4006 298.6263 214.3302 318.3875 30152.7758 -188.4141 -116.7878
ENERGY: 900000 2.5300 5.6408 2.4961 0.0000 -10629.4531 1420.3439 0.0000 0.0000 1729.8494 -7468.5929 293.3939 -9198.4424 -7435.6121 298.4915 -285.0815 -229.3128 30705.0141 -150.6740 -87.1093
ENERGY: 1200000 4.0024 8.5320 2.6540 0.0000 -10481.3517 1339.9644 0.0000 0.0000 1762.3701 -7363.8288 298.9097 -9126.1989 -7430.5651 299.2401 -540.6740 -499.3454 30610.9132 -146.8231 -78.2244
ENERGY: 1500000 7.7687 10.5436 2.8197 0.0000 -10829.1877 1498.6028 0.0000 0.0000 1785.0271 -7524.4257 302.7524 -9309.4529 -7432.5262 300.1617 269.8909 409.1942 29737.3999 -112.1004 -35.2936
TCL: Running FEP window   5: Lambda1 0.7999999999999998 Lambda2 0.7499999999999998 [dLambda -0.050000000000000044]
TCL: Setting parameter firsttimestep to 0
TCL: Setting parameter alchLambda to 0.7999999999999998
Info: NONBONDED TABLE R-SQUARED SPACING: 0.0625
Info: NONBONDED TABLE SIZE: 705 POINTS
TCL: Setting parameter alchLambda2 to 0.7499999999999998
Info: NONBONDED TABLE R-SQUARED SPACING: 0.0625
Info: NONBONDED TABLE SIZE: 705 POINTS
TCL: Running for 1500000 steps
ETITLE: TS BOND ANGLE DIHED IMPRP ELECT VDW BOUNDARY MISC KINETIC TOTAL TEMP POTENTIAL TOTALAVG TEMPAVG PRESSURE GPRESSURE VOLUME PRESSAVG GPRESSAVG
ENERGY: 0 7.7688 10.5436 2.8197 0.0000 -10828.1044 1499.4532 0.0000 0.0000 1784.1186 -7523.4005 302.5984 -9307.5192 -7523.4005 302.5984 332.0267 410.6295 29737.3999 332.0267 410.6295
ENERGY: 300000 4.0810 8.5048 1.8847 0.0000 -10566.1379 1408.0262 0.0000 0.0000 1752.5762 -7391.0650 297.2486 -9143.6411 -7452.6733 301.3415 -113.9966 -40.5406 30539.0572 -220.7657 -127.9502
ENERGY: 600000 3.5543 5.9552 2.6187 0.0000 -10533.0087 1368.6327 0.0000 0.0000 1775.9943 -7376.2534 301.2204 -9152.2477 -7441.0782 302.6124 -358.3275 -290.5271 30752.2767 -30.0312 40.2032
ENERGY: 900000 1.3111 6.8978 1.7125 0.0000 -10618.2505 1451.4015 0.0000 0.0000 1823.7314 -7333.1961 309.3169 -9156.9275 -7418.7213 302.3936 214.3573 279.1601 30724.5389 19.1161 91.4217
ENERGY: 1200000 10.2377 8.0360 1.8938 0.0000 -10371.3462 1268.5505 0.0000 0.0000 1722.2887 -7360.3396 292.1116 -9082.6282 -7425.2698 301.1149 -1247.0298 -1243.4285 30570.2671 -67.6343 1.9669
ENERGY: 1500000 5.5238 9.6229 5.0474 0.0000 -10678.9096 1469.1383 0.0000 0.0000 1734.6987 -7454.8786 294.2164 -9189.5773 -7432.4223 299.8430 241.0025 348.4013 30359.5500 -29.3430 45.2523
TCL: Running FEP window   6: Lambda1 0.7499999999999998 Lambda2 0.6999999999999997 [dLambda -0.050000000000000044]
TCL: Setting parameter firsttimestep to 0
TCL: Setting parameter alchLambda to 0.7499999999999998
Info: NONBONDED TABLE R-SQUARED SPACING: 0.0625
Info: NONBONDED TABLE SIZE: 705 POINTS
TCL: Setting parameter alchLambda2 to 0.6999999999999997
Info: NONBONDED TABLE R-SQUARED SPACING: 0.0625
Info: NONBONDED TABLE SIZE: 705 POINTS
TCL: Running for 1500000 steps
ETITLE: TS BOND ANGLE DIHED IMPRP ELECT VDW BOUNDARY MISC KINETIC TOTAL TEMP POTENTIAL TOTALAVG TEMPAVG PRESSURE GPRESSURE VOLUME PRESSAVG GPRESSAVG
ENERGY: 0 5.5237 9.6229 5.0474 0.0000 -10677.2174 1468.2454 0.0000 0.0000 1733.8305 -7454.9475 294.0692 -9188.7780 -7454.9475 294.0692 253.2127 330.3539 30359.5500 253.2127 330.3539
ENERGY: 300000 6.6684 7.3174 3.1522 0.0000 -10630.7789 1431.1841 0.0000 0.0000 1785.8601 -7396.5967 302.8937 -9182.4568 -7462.0948 297.2525 96.2226 136.1299 30261.4279 -111.1279 -39.1551
ENERGY: 600000 3.0283 12.8436 4.9811 0.0000 -10758.4316 1525.7444 0.0000 0.0000 1809.0478 -7402.7865 306.8265 -9211.8343 -7451.1722 298.4942 750.4046 842.6164 30176.2651 71.2755 147.0509
ENERGY: 900000 2.6366 6.6362 2.5722 0.0000 -10607.2018 1412.5770 0.0000 0.0000 1794.6795 -7388.1004 304.3895 -9182.7798 -7440.9619 299.7461 -277.2548 -232.8526 30746.9866 -28.9912 34.1615
ENERGY: 1200000 3.6010 11.4805 2.5231 0.0000 -10641.7283 1462.6547 0.0000 0.0000 1858.0255 -7303.4436 315.1335 -9161.4690 -7421.1703 301.6626 233.2895 335.3647 30359.0455 93.6660 157.4964
ENERGY: 1500000 3.6181 11.8379 1.7950 0.0000 -10846.4140 1556.3118 0.0000 0.0000 1750.1877 -7522.6635 296.8434 -9272.8512 -7427.0558 302.0374 674.9894 704.7059 30344.7746 188.7722 248.4783
TCL: Running FEP window   7: Lambda1 0.6999999999999997 Lambda2 0.6499999999999997 [dLambda -0.050000000000000044]
TCL: Setting parameter firsttimestep to 0
TCL: Setting parameter alchLambda to 0.6999999999999997
Info: NONBONDED TABLE R-SQUARED SPACING: 0.0625
Info: NONBONDED TABLE SIZE: 705 POINTS
TCL: Setting parameter alchLambda2 to 0.6499999999999997
Info: NONBONDED TABLE R-SQUARED SPACING: 0.0625
Info: NONBONDED TABLE SIZE: 705 POINTS
TCL: Running for 1500000 steps
ETITLE: TS BOND ANGLE DIHED IMPRP ELECT VDW BOUNDARY MISC KINETIC TOTAL TEMP POTENTIAL TOTALAVG TEMPAVG PRESSURE GPRESSURE VOLUME PRESSAVG GPRESSAVG
ENERGY: 0 3.6181 11.8379 1.7950 0.0000 -10845.5188 1556.8821 0.0000 0.0000 1749.3265 -7522.0594 296.6974 -9271.3858 -7522.0594 296.6974 611.0600 701.3629 30344.7746 611.0600 701.3629
ENERGY: 300000 5.3811 10.1234 1.8875 0.0000 -10639.1944 1476.1757 0.0000 0.0000 1747.1510 -7398.4757 296.3284 -9145.6267 -7437.1627 297.5510 419.5447 506.8217 30304.0246 588.0576 661.5295
ENERGY: 600000 2.6713 7.2564 3.2745 0.0000 -10530.6640 1365.6743 0.0000 0.0000 1794.6042 -7357.1832 304.3768 -9151.7874 -7432.9982 299.3455 -369.4890 -270.8331 30237.2517 432.9373 514.9104
ENERGY: 900000 2.8910 5.7631 3.0394 0.0000 -10624.8484 1416.8624 0.0000 0.0000 1788.0172 -7408.2753 303.2596 -9196.2925 -7417.3625 300.6317 -138.3229 -84.7065 30587.4440 258.5068 336.2452
ENERGY: 1200000 4.3636 4.7234 1.9304 0.0000 -10690.7618 1468.5553 0.0000 0.0000 1780.7173 -7430.4718 302.0215 -9211.1891 -7411.3013 301.5287 522.2901 561.1104 30024.6683 196.1015 269.2239
ENERGY: 1500000 2.4508 8.4533 2.7138 0.0000 -10571.2956 1360.8689 0.0000 0.0000 1738.4941 -7458.3147 294.8601 -9196.8089 -7408.5895 301.6726 -880.1273 -745.1163 30875.9821 134.7219 209.9513
TCL: Running FEP window   8: Lambda1 0.6499999999999997 Lambda2 0.5999999999999996 [dLambda -0.050000000000000044]
TCL: Setting parameter firsttimestep to 0
TCL: Setting parameter alchLambda to 0.6499999999999997
Info: NONBONDED TABLE R-SQUARED SPACING: 0.0625
Info: NONBONDED TABLE SIZE: 705 POINTS
TCL: Setting parameter alchLambda2 to 0.5999999999999996
Info: NONBONDED TABLE R-SQUARED SPACING: 0.0625
Info: NONBONDED TABLE SIZE: 705 POINTS
TCL: Running for 1500000 steps
ETITLE: TS BOND ANGLE DIHED IMPRP ELECT VDW BOUNDARY MISC KINETIC TOTAL TEMP POTENTIAL TOTALAVG TEMPAVG PRESSURE GPRESSURE VOLUME PRESSAVG GPRESSAVG
ENERGY: 0 2.4508 8.4533 2.7138 0.0000 -10569.4776 1360.1102 0.0000 0.0000 1737.6254 -7458.1240 294.7128 -9195.7495 -7458.1240 294.7128 -851.9512 -759.2167 30875.9821 -851.9512 -759.2167
ENERGY: 300000 6.2505 9.9837 2.9258 0.0000 -10622.2856 1391.2499 0.0000 0.0000 1760.4717 -7451.4041 298.5877 -9211.8758 -7455.6361 297.2757 -641.2707 -566.5996 30682.8774 -523.5513 -454.7685
ENERGY: 600000 3.8690 9.3922 3.7723 0.0000 -10588.3315 1403.1901 0.0000 0.0000 1798.0739 -7370.0341 304.9653 -9168.1079 -7445.9085 298.8952 -237.8846 -199.8403 30406.5415 -310.1436 -250.0287
ENERGY: 900000 5.2980 7.2103 1.8250 0.0000 -10666.4672 1375.5928 0.0000 0.0000 1772.5401 -7504.0009 300.6346 -9276.5410 -7448.1985 299.3648 -768.5648 -722.4073 30488.8382 -406.7169 -343.7637
ENERGY: 1200000 2.2162 5.8024 4.2476 0.0000 -10574.1319 1362.6735 0.0000 0.0000 1772.6651 -7426.5270 300.6558 -9199.1921 -7449.1504 299.6248 -563.6236 -482.4644 30258.0528 -364.4706 -304.6599
ENERGY: 1500000 4.7834 8.2472 1.7203 0.0000 -10779.1460 1488.9415 0.0000 0.0000 1815.6781 -7459.7755 307.9511 -9275.4536 -7452.1542 300.3602 31.4675 120.9752 30269.4942 -309.8503 -249.5097
TCL: Running FEP window   9: Lambda1 0.5999999999999996 Lambda2 0.5499999999999996 [dLambda -0.050000000000000044]
TCL: Setting parameter firsttimestep to 0
TCL: Setting parameter alchLambda to 0.5999999999999996
Info: NONBONDED TABLE R-SQUARED SPACING: 0.0625
Info: NONBONDED TABLE SIZE: 705 POINTS
TCL: Setting parameter alchLambda2 to 0.5499999999999996
Info: NONBONDED TABLE R-SQUARED SPACING: 0.0625
Info: NONBONDED TABLE SIZE: 705 POINTS
TCL: Running for 1500000 steps
ETITLE: TS BOND ANGLE DIHED IMPRP ELECT VDW BOUNDARY MISC KINETIC TOTAL TEMP POTENTIAL TOTALAVG TEMPAVG PRESSURE GPRESSURE VOLUME PRESSAVG GPRESSAVG
ENERGY: 0 4.7834 8.2472 1.7203 0.0000 -10778.1441 1489.2557 0.0000 0.0000 1814.7950 -7459.3424 307.8013 -9274.1374 -7459.3424 307.8013 35.0268 113.8153 30269.4942 35.0268 113.8153
ENERGY: 300000 10.4855 8.6200 2.1367 0.0000 -10618.4252 1415.2069 0.0000 0.0000 1800.2299 -7381.7462 305.3309 -9181.9761 -7428.1919 305.5228 -44.2726 14.9821 29886.6693 -113.5695 -51.4026
ENERGY: 600000 3.2965 12.8804 2.3452 0.0000 -10709.7978 1425.6835 0.0000 0.0000 1692.4033 -7573.1890 287.0428 -9265.5923 -7478.4476 297.9891 -384.3686 -351.7704 30449.0294 -102.8866 -55.0842
ENERGY: 900000 9.6545 10.0878 1.8449 0.0000 -10608.1683 1378.6598 0.0000 0.0000 1795.0149 -7412.9064 304.4464 -9207.9213 -7452.6175 300.0070 -590.9714 -519.2937 30415.9580 -228.8616 -177.5000
ENERGY: 1200000 2.8576 11.4271 5.4996 0.0000 -10507.0490 1422.4516 0.0000 0.0000 1744.0950 -7320.7182 295.8101 -9064.8132 -7444.4233 299.1855 147.9430 215.3829 30688.0139 -180.8588 -131.3359
ENERGY: 1500000 2.9688 5.5973 2.3898 0.0000 -10597.9709 1386.4517 0.0000 0.0000 1786.6775 -7413.8857 303.0324 -9200.5633 -7440.0668 299.7857 -215.7303 -238.4174 30424.0876 -135.3578 -94.0397
TCL: Running FEP window  10: Lambda1 0.5499999999999996 Lambda2 0.4999999999999996 [dLambda -0.04999999999999999]
TCL: Setting parameter firsttimestep to 0
TCL: Setting parameter alchLambda to 0.5499999999999996
Info: NONBONDED TABLE R-SQUARED SPACING: 0.0625
Info: NONBONDED TABLE SIZE: 705 POINTS
TCL: Setting parameter alchLambda2 to 0.4999999999999996
Info: NONBONDED TABLE R-SQUARED SPACING: 0.0625
Info: NONBONDED TABLE SIZE: 705 POINTS
TCL: Running for 1500000 steps
ETITLE: TS BOND ANGLE DIHED IMPRP ELECT VDW BOUNDARY MISC KINETIC TOTAL TEMP POTENTIAL TOTALAVG TEMPAVG PRESSURE GPRESSURE VOLUME PRESSAVG GPRESSAVG
ENERGY: 0 2.9688 5.5973 2.3898 0.0000 -10597.4598 1386.7643 0.0000 0.0000 1785.8343 -7413.9053 302.8894 -9199.7396 -7413.9053 302.8894 -300.5019 -243.5659 30424.0876 -300.5019 -243.5659
ENERGY: 300000 2.5032 9.1018 1.8704 0.0000 -10613.2823 1429.5493 0.0000 0.0000 1781.1942 -7389.0633 302.1024 -9170.2576 -7414.4442 302.0127 99.1129 138.9884 30259.3350 -98.5072 -44.4328
ENERGY: 600000 2.3093 8.7017 2.8515 0.0000 -10696.6023 1489.1041 0.0000 0.0000 1785.4927 -7408.1430 302.8314 -9193.6358 -7399.1734 300.8161 511.7963 487.1748 30505.9356 120.1801 171.5096
ENERGY: 900000 2.6456 7.3970 4.5812 0.0000 -10706.5640 1468.9007 0.0000 0.0000 1752.4892 -7470.5504 297.2338 -9223.0395 -7411.0983 300.4288 225.6976 257.9196 30386.3427 131.0247 175.6154
ENERGY: 1200000 6.7327 6.4948 3.7612 0.0000 -10640.8887 1435.2120 0.0000 0.0000 1750.7580 -7437.9300 296.9402 -9188.6880 -7411.8352 300.8544 -218.3812 -112.9777 30482.6964 91.1147 146.4921
ENERGY: 1500000 4.2473 6.6365 1.6127 0.0000 -10657.1182 1516.6326 0.0000 0.0000 1737.8715 -7390.1177 294.7545 -9127.9892 -7407.7342 300.8845 794.2708 875.3066 30393.5992 213.3414 270.1563
TCL: Running FEP window  11: Lambda1 0.4999999999999996 Lambda2 0.4499999999999996 [dLambda -0.04999999999999999]
TCL: Setting parameter firsttimestep to 0
TCL: Setting parameter alchLambda to 0.4999999999999996
Info: NONBONDED TABLE R-SQUARED SPACING: 0.0625
Info: NONBONDED TABLE SIZE: 705 POINTS
TCL: Setting parameter alchLambda2 to 0.4499999999999996
Info: NONBONDED TABLE R-SQUARED SPACING: 0.0625
Info: NONBONDED TABLE SIZE: 705 POINTS
TCL: Running for 1500000 steps
ETITLE: TS BOND ANGLE DIHED IMPRP ELECT VDW BOUNDARY MISC KINETIC TOTAL TEMP POTENTIAL TOTALAVG TEMPAVG PRESSURE GPRESSURE VOLUME PRESSAVG GPRESSAVG
ENERGY: 0 4.2473 6.6365 1.6127 0.0000 -10657.5496 1516.6100 0.0000 0.0000 1737.0088 -7391.4343 294.6082 -9128.4432 -7391.4343 294.6082 777.2665 864.9866 30393.5992 777.2665 864.9866
ENERGY: 300000 3.3481 11.4414 1.2504 0.0000 -10723.6217 1488.5152 0.0000 0.0000 1717.5640 -7501.5025 291.3103 -9219.0665 -7448.1116 295.1493 476.7389 571.4217 29667.9892 -103.7083 9.8546
ENERGY: 600000 4.4169 5.9451 2.3195 0.0000 -10600.1388 1356.5527 0.0000 0.0000 1793.1491 -7437.7555 304.1300 -9230.9046 -7430.5618 298.2034 -616.8382 -583.9000 30423.0270 -240.2147 -156.9791
ENERGY: 900000 4.6224 4.2078 3.5108 0.0000 -10646.5028 1444.4004 0.0000 0.0000 1757.2719 -7432.4894 298.0450 -9189.7614 -7420.4961 300.0187 -9.9095 19.5123 30413.8074 -212.8575 -133.1656
ENERGY: 1200000 2.5202 12.0279 0.9321 0.0000 -10670.6607 1458.4024 0.0000 0.0000 1839.3468 -7357.4313 311.9654 -9196.7781 -7416.1561 301.6890 81.5232 159.3354 30564.3694 -201.6619 -122.5716
ENERGY: 1500000 2.6859 10.7880 3.5676 0.0000 -10513.4414 1365.2460 0.0000 0.0000 1759.5692 -7371.5847 298.4346 -9131.1539 -7414.9088 300.5890 -827.5574 -789.5406 31191.1180 -237.8304 -163.3943
TCL: Running FEP window  12: Lambda1 0.4499999999999996 Lambda2 0.39999999999999963 [dLambda -0.04999999999999999]
TCL: Setting parameter firsttimestep to 0
TCL: Setting parameter alchLambda to 0.4499999999999996
Info: NONBONDED TABLE R-SQUARED SPACING: 0.0625
Info: NONBONDED TABLE SIZE: 705 POINTS
TCL: Setting parameter alchLambda2 to 0.39999999999999963
Info: NONBONDED TABLE R-SQUARED SPACING: 0.0625
Info: NONBONDED TABLE SIZE: 705 POINTS
TCL: Running for 1500000 steps
ETITLE: TS BOND ANGLE DIHED IMPRP ELECT VDW BOUNDARY MISC KINETIC TOTAL TEMP POTENTIAL TOTALAVG TEMPAVG PRESSURE GPRESSURE VOLUME PRESSAVG GPRESSAVG
ENERGY: 0 2.6858 10.7880 3.5676 0.0000 -10513.4402 1365.2945 0.0000 0.0000 1758.7003 -7372.4040 298.2872 -9131.1043 -7372.4040 298.2872 -878.9286 -795.1306 31191.1180 -878.9286 -795.1306
ENERGY: 300000 3.5635 8.6911 2.1340 0.0000 -10505.1340 1341.1564 0.0000 0.0000 1755.8833 -7393.7058 297.8095 -9149.5891 -7408.9940 299.7684 -596.7120 -523.2723 30406.6269 -751.7407 -699.2493
ENERGY: 600000 3.4501 10.7330 2.8954 0.0000 -10605.7426 1387.8012 0.0000 0.0000 1763.0090 -7437.8538 299.0180 -9200.8628 -7426.2248 299.6879 -922.6201 -830.8600 31066.7395 -534.3722 -470.4077
ENERGY: 900000 2.6295 9.2458 1.2690 0.0000 -10626.9270 1467.0372 0.0000 0.0000 1722.9483 -7423.7972 292.2235 -9146.7455 -7438.6467 297.9826 119.9454 229.5447 30699.8730 -414.7164 -350.0115
ENERGY: 1200000 3.8024 9.7837 5.6224 0.0000 -10589.4324 1372.3353 0.0000 0.0000 1737.1627 -7460.7259 294.6343 -9197.8887 -7439.4717 298.0564 -786.2865 -714.3290 30544.1463 -478.7984 -414.4850
ENERGY: 1500000 2.5577 10.7865 3.4550 0.0000 -10697.9740 1495.6536 0.0000 0.0000 1839.2169 -7346.3044 311.9434 -9185.5213 -7432.5779 299.5905 663.7854 719.4803 30193.3555 -386.2944 -323.5767
TCL: Running FEP window  13: Lambda1 0.39999999999999963 Lambda2 0.34999999999999964 [dLambda -0.04999999999999999]
TCL: Setting parameter firsttimestep to 0
TCL: Setting parameter alchLambda to 0.39999999999999963
Info: NONBONDED TABLE R-SQUARED SPACING: 0.0625
Info: NONBONDED TABLE SIZE: 705 POINTS
TCL: Setting parameter alchLambda2 to 0.34999999999999964
Info: NONBONDED TABLE R-SQUARED SPACING: 0.0625
Info: NONBONDED TABLE SIZE: 705 POINTS
TCL: Running for 1500000 steps
ETITLE: TS BOND ANGLE DIHED IMPRP ELECT VDW BOUNDARY MISC KINETIC TOTAL TEMP POTENTIAL TOTALAVG TEMPAVG PRESSURE GPRESSURE VOLUME PRESSAVG GPRESSAVG
ENERGY: 0 2.5577 10.7865 3.4550 0.0000 -10697.9735 1495.9314 0.0000 0.0000 1838.3528 -7346.8902 311.7968 -9185.2430 -7346.8902 311.7968 630.7991 714.9283 30193.3555 630.7991 714.9283
ENERGY: 300000 5.5837 9.9925 4.2168 0.0000 -10465.8348 1288.3951 0.0000 0.0000 1789.7516 -7367.8950 303.5537 -9157.6466 -7365.5853 304.5779 -1397.1288 -1317.0702 30689.0583 -201.8099 -116.4904
ENERGY: 600000 1.7058 4.4602 2.5226 0.0000 -10694.7724 1435.3576 0.0000 0.0000 1701.5019 -7549.2242 288.5860 -9250.7262 -7407.1099 300.2574 -165.8543 -149.8735 30565.6365 -161.1334 -91.6557
ENERGY: 900000 3.0000 9.4157 3.6802 0.0000 -10411.4151 1271.4434 0.0000 0.0000 1710.3090 -7413.5668 290.0798 -9123.8758 -7423.2026 298.2156 -1199.0669 -1186.7752 30641.7886 -295.2132 -233.1398
ENERGY: 1200000 3.9813 9.1419 1.1200 0.0000 -10602.8611 1391.2708 0.0000 0.0000 1705.5983 -7491.7487 289.2808 -9197.3470 -7430.9976 297.9663 -300.8096 -309.3223 30214.3491 -262.6683 -206.8240
ENERGY: 1500000 5.0768 7.9808 7.0831 0.0000 -10765.2999 1451.4190 0.0000 0.0000 1761.2846 -7532.4557 298.7255 -9293.7402 -7438.1082 298.1159 -370.3713 -305.5590 30354.8359 -175.2682 -118.4613
TCL: Running FEP window  14: Lambda1 0.34999999999999964 Lambda2 0.29999999999999966 [dLambda -0.04999999999999999]
TCL: Setting parameter firsttimestep to 0
TCL: Setting parameter alchLambda to 0.34999999999999964
Info: NONBONDED TABLE R-SQUARED SPACING: 0.0625
Info: NONBONDED TABLE SIZE: 705 POINTS
TCL: Setting parameter alchLambda2 to 0.29999999999999966
Info: NONBONDED TABLE R-SQUARED SPACING: 0.0625
Info: NONBONDED TABLE SIZE: 705 POINTS
TCL: Running for 1500000 steps
ETITLE: TS BOND ANGLE DIHED IMPRP ELECT VDW BOUNDARY MISC KINETIC TOTAL TEMP POTENTIAL TOTALAVG TEMPAVG PRESSURE GPRESSURE VOLUME PRESSAVG GPRESSAVG
ENERGY: 0 5.0768 7.9808 7.0831 0.0000 -10765.2985 1451.8090 0.0000 0.0000 1760.3871 -7532.9617 298.5733 -9293.3488 -7532.9617 298.5733 -391.7264 -310.5398 30354.8359 -391.7264 -310.5398
ENERGY: 300000 3.8339 7.9157 3.5954 0.0000 -10676.0802 1475.0291 0.0000 0.0000 1722.9708 -7462.7353 292.2273 -9185.7061 -7450.5928 299.5266 376.8551 416.0629 29937.3064 284.6938 325.9475
ENERGY: 600000 3.6214 6.7884 4.2607 0.0000 -10761.1251 1547.7803 0.0000 0.0000 1750.8319 -7447.8424 296.9527 -9198.6743 -7444.5880 298.0150 525.1806 573.7554 30631.4157 241.8167 280.5686
ENERGY: 900000 3.2450 9.8504 2.5623 0.0000 -10641.6391 1455.3269 0.0000 0.0000 1731.5114 -7439.1431 293.6758 -9170.6545 -7434.2295 299.2953 221.1228 300.2525 30356.4154 166.2354 210.5360
ENERGY: 1200000 7.3261 6.8450 2.2499 0.0000 -10749.9586 1505.6967 0.0000 0.0000 1745.0080 -7482.8328 295.9649 -9227.8408 -7430.4279 299.4815 291.9395 352.8308 30363.7599 83.3453 126.9883
ENERGY: 1500000 3.6123 11.1683 2.1449 0.0000 -10683.5487 1442.4817 0.0000 0.0000 1748.2889 -7475.8527 296.5214 -9224.1416 -7440.2787 298.4723 99.6557 93.2958 30020.1602 119.0995 167.7723
TCL: Running FEP window  15: Lambda1 0.29999999999999966 Lambda2 0.24999999999999967 [dLambda -0.04999999999999999]
TCL: Setting parameter firsttimestep to 0
TCL: Setting parameter alchLambda to 0.29999999999999966
Info: NONBONDED TABLE R-SQUARED SPACING: 0.0625
Info: NONBONDED TABLE SIZE: 705 POINTS
TCL: Setting parameter alchLambda2 to 0.24999999999999967
Info: NONBONDED TABLE R-SQUARED SPACING: 0.0625
Info: NONBONDED TABLE SIZE: 705 POINTS
TCL: Running for 1500000 steps
ETITLE: TS BOND ANGLE DIHED IMPRP ELECT VDW BOUNDARY MISC KINETIC TOTAL TEMP POTENTIAL TOTALAVG TEMPAVG PRESSURE GPRESSURE VOLUME PRESSAVG GPRESSAVG
ENERGY: 0 3.6123 11.1683 2.1449 0.0000 -10683.5479 1442.5644 0.0000 0.0000 1747.4193 -7476.6388 296.3739 -9224.0581 -7476.6388 296.3739 17.4573 93.2468 30020.1602 17.4573 93.2468
ENERGY: 300000 3.1454 6.1638 3.4902 0.0000 -10695.5447 1509.4317 0.0000 0.0000 1711.7497 -7461.5639 290.3241 -9173.3137 -7444.1916 297.0361 513.2352 522.8810 30519.3861 289.3342 338.5512
ENERGY: 600000 3.4527 5.4185 3.2374 0.0000 -10713.7515 1442.4850 0.0000 0.0000 1793.4799 -7465.6781 304.1861 -9259.1580 -7441.7642 299.0998 -165.0837 -73.5902 30131.4477 203.0143 263.9439
ENERGY: 900000 3.5120 9.1116 2.4528 0.0000 -10745.3097 1563.6724 0.0000 0.0000 1763.5243 -7403.0366 299.1054 -9166.5608 -7430.8804 299.0269 1210.1177 1230.9196 29958.5647 287.1558 353.0286
ENERGY: 1200000 3.5335 10.6871 1.9413 0.0000 -10789.6034 1482.8080 0.0000 0.0000 1780.7832 -7509.8503 302.0326 -9290.6335 -7437.6605 299.4106 -111.6793 -12.6682 30176.8767 159.8709 229.8458
ENERGY: 1500000 4.6480 7.3948 1.2726 0.0000 -10472.2358 1356.6394 0.0000 0.0000 1801.2100 -7301.0709 305.4972 -9102.2809 -7425.5140 299.5448 -598.6278 -496.8195 30666.6050 73.3758 138.7084
TCL: Running FEP window  16: Lambda1 0.24999999999999967 Lambda2 0.19999999999999968 [dLambda -0.04999999999999999]
TCL: Setting parameter firsttimestep to 0
TCL: Setting parameter alchLambda to 0.24999999999999967
Info: NONBONDED TABLE R-SQUARED SPACING: 0.0625
Info: NONBONDED TABLE SIZE: 705 POINTS
TCL: Setting parameter alchLambda2 to 0.19999999999999968
Info: NONBONDED TABLE R-SQUARED SPACING: 0.0625
Info: NONBONDED TABLE SIZE: 705 POINTS
TCL: Running for 1500000 steps
ETITLE: TS BOND ANGLE DIHED IMPRP ELECT VDW BOUNDARY MISC KINETIC TOTAL TEMP POTENTIAL TOTALAVG TEMPAVG PRESSURE GPRESSURE VOLUME PRESSAVG GPRESSAVG
ENERGY: 0 4.6480 7.3948 1.2726 0.0000 -10472.2370 1357.3115 0.0000 0.0000 1800.3521 -7301.2579 305.3517 -9101.6100 -7301.2579 305.3517 -570.4741 -495.8241 30666.6050 -570.4741 -495.8241
ENERGY: 300000 2.9885 4.7376 2.8812 0.0000 -10610.1039 1427.6880 0.0000 0.0000 1689.2118 -7482.5968 286.5015 -9171.8086 -7394.8018 296.4326 -330.6659 -262.8741 30421.8934 -497.0730 -418.8841
ENERGY: 600000 2.0402 7.4605 2.5201 0.0000 -10685.4838 1479.2960 0.0000 0.0000 1790.3219 -7403.8450 303.6505 -9194.1669 -7396.5525 298.1951 342.1074 375.8714 30464.6838 -307.8654 -236.5775
ENERGY: 900000 5.4018 7.6237 2.5485 0.0000 -10682.4584 1485.2384 0.0000 0.0000 1729.8612 -7451.7848 293.3959 -9181.6460 -7411.7529 297.4194 -38.6818 53.5643 30761.0048 -236.7855 -162.8580
ENERGY: 1200000 3.8444 7.3732 1.3137 0.0000 -10698.3694 1472.5717 0.0000 0.0000 1742.4033 -7470.8632 295.5232 -9213.2664 -7415.0344 297.4272 32.8577 118.4448 30235.6467 -203.9356 -125.8189
ENERGY: 1500000 3.8073 9.0406 4.9797 0.0000 -10561.3981 1391.2466 0.0000 0.0000 1720.7240 -7431.5999 291.8462 -9152.3240 -7409.2751 298.4276 -472.5640 -431.5311 30946.5433 -190.8225 -112.2202
TCL: Running FEP window  17: Lambda1 0.19999999999999968 Lambda2 0.1499999999999997 [dLambda -0.04999999999999999]
TCL: Setting parameter firsttimestep to 0
TCL: Setting parameter alchLambda to 0.19999999999999968
Info: NONBONDED TABLE R-SQUARED SPACING: 0.0625
Info: NONBONDED TABLE SIZE: 705 POINTS
TCL: Setting parameter alchLambda2 to 0.1499999999999997
Info: NONBONDED TABLE R-SQUARED SPACING: 0.0625
Info: NONBONDED TABLE SIZE: 705 POINTS
TCL: Running for 1500000 steps
ETITLE: TS BOND ANGLE DIHED IMPRP ELECT VDW BOUNDARY MISC KINETIC TOTAL TEMP POTENTIAL TOTALAVG TEMPAVG PRESSURE GPRESSURE VOLUME PRESSAVG GPRESSAVG
ENERGY: 0 3.8073 9.0406 4.9797 0.0000 -10561.4003 1391.1906 0.0000 0.0000 1719.8201 -7432.5622 291.6929 -9152.3822 -7432.5622 291.6929 -528.9651 -436.9223 30946.5433 -528.9651 -436.9223
ENERGY: 300000 4.4510 6.8072 3.2817 0.0000 -10729.2119 1490.1521 0.0000 0.0000 1817.3671 -7407.1527 308.2375 -9224.5199 -7432.4029 299.2611 -43.0483 49.1835 30690.3340 -514.9066 -458.6479
ENERGY: 600000 4.3223 7.2157 5.7565 0.0000 -10654.8634 1420.6674 0.0000 0.0000 1801.9586 -7414.9430 305.6241 -9216.9016 -7417.0231 301.5901 -269.7645 -192.1069 30304.6476 -421.4428 -361.2049
ENERGY: 900000 3.3309 13.4949 1.7643 0.0000 -10591.3942 1407.0859 0.0000 0.0000 1778.1598 -7387.5583 301.5877 -9165.7181 -7410.1605 301.6028 -408.4816 -333.9621 30495.3989 -361.7070 -299.1966
ENERGY: 1200000 2.4019 9.2385 2.8652 0.0000 -10623.0247 1438.9212 0.0000 0.0000 1763.6375 -7405.9603 299.1246 -9169.5979 -7400.5790 302.3734 -137.7657 -79.2195 30440.9569 -284.3136 -215.1341
ENERGY: 1500000 1.5878 8.9664 2.1474 0.0000 -10634.7184 1432.1557 0.0000 0.0000 1788.8765 -7400.9846 303.4053 -9189.8612 -7399.7196 302.5447 -116.8988 -38.5579 30530.9821 -237.4503 -166.4720
TCL: Running FEP window  18: Lambda1 0.1499999999999997 Lambda2 0.09999999999999969 [dLambda -0.05 ]
TCL: Setting parameter firsttimestep to 0
TCL: Setting parameter alchLambda to 0.1499999999999997
Info: NONBONDED TABLE R-SQUARED SPACING: 0.0625
Info: NONBONDED TABLE SIZE: 705 POINTS
TCL: Setting parameter alchLambda2 to 0.09999999999999969
Info: NONBONDED TABLE R-SQUARED SPACING: 0.0625
Info: NONBONDED TABLE SIZE: 705 POINTS
TCL: Running for 1500000 steps
ETITLE: TS BOND ANGLE DIHED IMPRP ELECT VDW BOUNDARY MISC KINETIC TOTAL TEMP POTENTIAL TOTALAVG TEMPAVG PRESSURE GPRESSURE VOLUME PRESSAVG GPRESSAVG
ENERGY: 0 1.5878 8.9664 2.1474 0.0000 -10634.7176 1432.2333 0.0000 0.0000 1787.9998 -7401.7830 303.2566 -9189.7827 -7401.7830 303.2566 -119.7156 -44.1163 30530.9821 -119.7156 -44.1163
ENERGY: 300000 2.5213 6.8422 3.9400 0.0000 -10651.6813 1461.7475 0.0000 0.0000 1771.1102 -7405.5202 300.3920 -9176.6304 -7389.6845 302.7281 50.0261 109.2450 30750.5279 -279.5516 -215.9519
ENERGY: 600000 2.4409 8.9162 3.0551 0.0000 -10662.4665 1451.5320 0.0000 0.0000 1756.5640 -7439.9583 297.9249 -9196.5223 -7410.1605 300.0838 140.2891 216.6319 30245.9255 -57.3943 16.0399
ENERGY: 900000 2.7835 9.3276 3.3023 0.0000 -10755.0082 1479.6567 0.0000 0.0000 1698.8698 -7561.0682 288.1396 -9259.9380 -7428.5957 299.0730 -58.9921 -44.0663 30385.3536 61.4793 121.3634
ENERGY: 1200000 3.4089 7.3658 2.3383 0.0000 -10504.5799 1351.8353 0.0000 0.0000 1750.4512 -7389.1804 296.8881 -9139.6315 -7425.9391 299.4685 -827.4315 -772.4772 30805.7309 9.8957 68.4988
ENERGY: 1500000 3.2998 7.4443 2.9281 0.0000 -10625.7150 1419.7053 0.0000 0.0000 1740.0373 -7452.3001 295.1219 -9192.3374 -7434.5806 299.0391 -27.0636 -10.1549 29872.1554 3.3443 54.5272
TCL: Running FEP window  19: Lambda1 0.09999999999999969 Lambda2 0.049999999999999684 [dLambda -0.05 ]
TCL: Setting parameter firsttimestep to 0
TCL: Setting parameter alchLambda to 0.09999999999999969
Info: NONBONDED TABLE R-SQUARED SPACING: 0.0625
Info: NONBONDED TABLE SIZE: 705 POINTS
TCL: Setting parameter alchLambda2 to 0.049999999999999684
Info: NONBONDED TABLE R-SQUARED SPACING: 0.0625
Info: NONBONDED TABLE SIZE: 705 POINTS
TCL: Running for 1500000 steps
ETITLE: TS BOND ANGLE DIHED IMPRP ELECT VDW BOUNDARY MISC KINETIC TOTAL TEMP POTENTIAL TOTALAVG TEMPAVG PRESSURE GPRESSURE VOLUME PRESSAVG GPRESSAVG
ENERGY: 0 3.2998 7.4443 2.9281 0.0000 -10625.7153 1419.3492 0.0000 0.0000 1739.1544 -7453.5395 294.9721 -9192.6939 -7453.5395 294.9721 -107.4280 -15.0716 29872.1554 -107.4280 -15.0716
ENERGY: 300000 6.5659 10.1700 2.9164 0.0000 -10595.3437 1415.8965 0.0000 0.0000 1748.8048 -7410.9901 296.6089 -9159.7949 -7434.4049 297.7702 -306.8484 -186.6493 30450.0395 -245.4727 -158.8335
ENERGY: 600000 3.3053 8.1560 2.9591 0.0000 -10733.4942 1521.9734 0.0000 0.0000 1791.4032 -7405.6973 303.8339 -9197.1005 -7407.5390 300.2959 780.5177 820.7234 29850.9906 -134.9154 -62.3902
ENERGY: 900000 2.0782 8.8345 1.4580 0.0000 -10567.2174 1428.4900 0.0000 0.0000 1763.5108 -7362.8458 299.1031 -9126.3566 -7410.4299 299.5565 69.8374 145.8887 30089.3560 -166.6979 -89.0577
ENERGY: 1200000 3.0365 5.3232 1.3236 0.0000 -10746.4848 1514.6947 0.0000 0.0000 1829.8574 -7392.2494 310.3560 -9222.1068 -7412.3899 299.9696 348.5047 301.6651 30449.9477 -124.0358 -54.2362
ENERGY: 1500000 9.0699 9.1415 1.7347 0.0000 -10689.4064 1426.4160 0.0000 0.0000 1829.9539 -7413.0903 310.3723 -9243.0442 -7411.6477 300.1455 -227.4866 -85.7767 30003.6708 -68.5630 1.5549
TCL: Running FEP window  20: Lambda1 0.049999999999999684 Lambda2 0.0    [dLambda -0.049999999999999684]
TCL: Setting parameter firsttimestep to 0
TCL: Setting parameter alchLambda to 0.049999999999999684
Info: NONBONDED TABLE R-SQUARED SPACING: 0.0625
Info: NONBONDED TABLE SIZE: 705 POINTS
TCL: Setting parameter alchLambda2 to 0.0
Info: NONBONDED TABLE R-SQUARED SPACING: 0.0625
Info: NONBONDED TABLE SIZE: 705 POINTS
TCL: Running for 1500000 steps
ETITLE: TS BOND ANGLE DIHED IMPRP ELECT VDW BOUNDARY MISC KINETIC TOTAL TEMP POTENTIAL TOTALAVG TEMPAVG PRESSURE GPRESSURE VOLUME PRESSAVG GPRESSAVG
ENERGY: 0 9.0699 9.1416 1.7347 0.0000 -10689.4044 1424.5424 0.0000 0.0000 1829.0721 -7415.8437 310.2228 -9244.9158 -7415.8437 310.2228 -191.9219 -94.6346 30003.6708 -191.9219 -94.6346
ENERGY: 300000 1.9470 10.7767 3.4401 0.0000 -10598.1933 1449.5941 0.0000 0.0000 1796.8686 -7335.5669 304.7608 -9132.4355 -7393.1198 304.6982 286.4912 294.5825 30491.9814 -182.6575 -122.8301
ENERGY: 600000 2.2701 9.7269 2.9087 0.0000 -10703.1424 1510.5786 0.0000 0.0000 1778.2098 -7399.4482 301.5962 -9177.6581 -7421.5543 303.4871 555.7054 661.7062 30361.9301 -302.3766 -227.7374
ENERGY: 900000 2.0235 5.7083 4.6100 0.0000 -10601.4793 1458.1064 0.0000 0.0000 1810.7024 -7320.3287 307.1071 -9131.0311 -7390.0217 303.6512 64.8517 158.2560 30464.9565 -174.2507 -95.5199
ENERGY: 1200000 4.4577 6.9188 2.5362 0.0000 -10750.4296 1555.9970 0.0000 0.0000 1767.2667 -7413.2531 299.7402 -9180.5198 -7386.6163 303.4665 795.0452 962.5153 29976.8927 -85.4751 -8.7859
ENERGY: 1500000 11.9802 11.2690 5.0114 0.0000 -10727.1913 1490.2761 0.0000 0.0000 1750.4554 -7458.1993 296.8888 -9208.6546 -7396.3631 302.2246 66.8562 112.3925 29989.4093 -97.9433 -22.9823
TCL: Exiting due to exit command.
