Info: SIMULATION PARAMETERS:
Info: TIMESTEP               2
Info: NUMBER OF STEPS        0
Info: STEPS PER CYCLE        10
Info: PERIODIC CELL BASIS 1  30.5325 0 0
Info: PERIODIC CELL BASIS 2  0 30.437 0
Info: PERIODIC CELL BASIS 3  0 0 33.428
Info: PERIODIC CELL CENTER   0 0 0
Info: WRAPPING WATERS AROUND PERIODIC BOUNDARIES ON OUTPUT.
Info: WRAPPING ALL CLUSTERS AROUND PERIODIC BOUNDARIES ON OUTPUT.
Info: FIRST LDB TIMESTEP     50
Info: LAST LDB TIMESTEP     -1
Info: HOM BACKGROUND SCALING 1
Info: PME BACKGROUND SCALING 1
Info: MIN ATOMS PER PATCH    40
Info: EMPTY PATCH LOAD       40 ATOMS
Info: VELOCITY FILE          mobley_3639400_equil.vel
Info: CENTER OF MASS MOVING INITIALLY? NO
Info: DIELECTRIC             1
Info: EXCLUDE                SCALED ONE-FOUR
Info: 1-4 ELECTROSTATICS SCALED BY 0.833333
Info: MODIFIED 1-4 VDW PARAMETERS WILL BE USED
Info: DCD FILENAME           mobley_3639400_prod.dcd
Info: DCD FREQUENCY          100000
Info: DCD FIRST STEP         100000
Info: DCD FILE WILL CONTAIN UNIT CELL DATA
Info: XST FILENAME           mobley_3639400_prod.xst
Info: XST FREQUENCY          100000
Info: NO VELOCITY DCD OUTPUT
Info: NO FORCE DCD OUTPUT
Info: OUTPUT FILENAME        mobley_3639400_prod
Info: BINARY OUTPUT FILES WILL BE USED
Info: RESTART FILENAME       mobley_3639400_prod.restart
Info: RESTART FREQUENCY      100000
Info: BINARY RESTART FILES WILL BE USED
Info: CUTOFF                 9
Info: PAIRLIST DISTANCE      11
Info: PAIRLIST SHRINK RATE   0.01
Info: PAIRLIST GROW RATE     0.01
Info: PAIRLIST TRIGGER       0.3
Info: PAIRLISTS PER CYCLE    2
Info: PAIRLISTS ENABLED
Info: MARGIN                 2
Info: HYDROGEN GROUP CUTOFF  2.5
Info: PATCH DIMENSION        15.5
Info: ENERGY OUTPUT STEPS    100000
Info: ENERGY EVALUATION STEPS    100000
Info: OUTPUT ENERGY PRECISION 4
Info: CROSSTERM ENERGY INCLUDED IN DIHEDRAL
Info: TIMING OUTPUT STEPS    1000000
Info: PRESSURE OUTPUT STEPS  100000
Info: ALCHEMICAL FEP ON
Info: FEP CURRENT LAMBDA VALUE     1
Info: FEP COMPARISON LAMBDA VALUE  0.95
Info: FEP INTRA-ALCHEMICAL NON-BONDED INTERACTIONS WILL BE RETAINED
Info: FEP INTRA-ALCHEMICAL BONDED INTERACTIONS WILL BE RETAINED
Info: FEP VDW SHIFTING COEFFICIENT 5
Info: FEP ELEC. ACTIVE FOR ANNIHILATED PARTICLES BETWEEN LAMBDA = 0 AND LAMBDA = 0.5
Info: FEP ELEC. ACTIVE FOR EXNIHILATED PARTICLES BETWEEN LAMBDA = 0.5 AND LAMBDA = 1
Info: FEP VDW ACTIVE FOR ANNIHILATED PARTICLES BETWEEN LAMBDA = 0 AND LAMBDA = 1
Info: FEP VDW ACTIVE FOR EXNIHILATED PARTICLES BETWEEN LAMBDA = 0 AND LAMBDA = 1
Info: FEP BOND ACTIVE FOR ANNIHILATED PARTICLES BETWEEN LAMBDA = 1 AND LAMBDA = 1
Info: FEP BOND ACTIVE FOR EXNIHILATED PARTICLES BETWEEN LAMBDA = 0 AND LAMBDA = 0
Info: LANGEVIN DYNAMICS ACTIVE
Info: LANGEVIN TEMPERATURE   300
Info: LANGEVIN USING BBK INTEGRATOR
Info: LANGEVIN DAMPING COEFFICIENT IS 1 INVERSE PS
Info: LANGEVIN DYNAMICS APPLIED TO HYDROGENS
Info: LANGEVIN PISTON PRESSURE CONTROL ACTIVE
Info:        TARGET PRESSURE IS 1.01325 BAR
Info:     OSCILLATION PERIOD IS 50 FS
Info:             DECAY TIME IS 25 FS
Info:     PISTON TEMPERATURE IS 300 K
Info:       PRESSURE CONTROL IS GROUP-BASED
Info:    INITIAL STRAIN RATE IS 0.000929183 0.000929183 0.000929183
Info:       CELL FLUCTUATION IS ISOTROPIC
Info: PARTICLE MESH EWALD (PME) ACTIVE
Info: PME TOLERANCE               1e-06
Info: PME EWALD COEFFICIENT       0.348832
Info: PME INTERPOLATION ORDER     4
Info: PME GRID DIMENSIONS         32 32 36
Info: PME MAXIMUM GRID SPACING    1
Info: PME CALCULATION WILL BE PERFORMED ON GPU
Info: FULL ELECTROSTATIC EVALUATION FREQUENCY      2
Info: USING VERLET I (r-RESPA) MTS SCHEME.
Info: C1 SPLITTING OF LONG RANGE ELECTROSTATICS
Info: PLACING ATOMS IN PATCHES BY HYDROGEN GROUPS
Info: RIGID BONDS TO HYDROGEN : ALL
Info:         ERROR TOLERANCE : 1e-08
Info:          MAX ITERATIONS : 100
Info: RIGID WATER USING SETTLE ALGORITHM
Info: RANDOM NUMBER SEED     1743835028
Info: USE HYDROGEN BONDS?    NO
Info: Using AMBER format force field!
Info: AMBER PARM FILE        mobley_3639400.prmtop
Info: COORDINATE PDB         mobley_3639400.pdb
Info: Exclusions will be read from PARM file!
Info: SCNB (VDW SCALING)     2
Info: USING ARITHMETIC MEAN TO COMBINE L-J SIGMA PARAMETERS
Info: BINARY COORDINATES     mobley_3639400_equil.coor
Info: SUMMARY OF PARAMETERS:
Info: 6 BONDS
Info: 7 ANGLES
Info:   7 HARMONIC
Info:   0 COSINE-BASED
Info: 8 DIHEDRAL
Info: 0 IMPROPER
Info: 0 CROSSTERM
Info: 0 VDW
Info: 21 VDW_PAIRS
Info: 0 NBTHOLE_PAIRS
Info: To read alchdata from file: mobley_3639400.pdb
Info: To read alchflag data from column: 5
Info: STRUCTURE SUMMARY:
Info: 2984 ATOMS
Info: 2983 BONDS
Info: 24 ANGLES
Info: 31 DIHEDRALS
Info: 0 IMPROPERS
Info: 0 CROSSTERMS
Info: 3034 EXCLUSIONS
Info: 2979 RIGID BONDS
Info: ALCH: 0 ATOMS TO DISAPPEAR IN FINAL STATE
Info: ALCH: 14 ATOMS TO APPEAR IN FINAL STATE
Info: 5973 DEGREES OF FREEDOM
Info: 995 HYDROGEN GROUPS
Info: 4 ATOMS IN LARGEST HYDROGEN GROUP
Info: 995 MIGRATION GROUPS
Info: 4 ATOMS IN LARGEST MIGRATION GROUP
Info: TOTAL MASS = 17928.4 amu
Info: TOTAL CHARGE = 0.000200015 e
Info: MASS DENSITY = 0.958357 g/cm^3
Info: ATOM DENSITY = 0.0960562 atoms/A^3
Info: ADDED 0 IMPLICIT EXCLUSIONS
Info: NONBONDED TABLE R-SQUARED SPACING: 0.0625
Info: NONBONDED TABLE SIZE: 705 POINTS
Info: REMOVING COM VELOCITY 0.229217 0.0469275 -0.0893259
Info: Use 3D box decompostion in PME FFT.
Info: Updated CUDA force table with 4096 elements.
Info: Updated CUDA LJ table with 6 x 6 elements.
Info: Found 17 unique exclusion lists needing 36 bytes
TCL: Running for 1500000 steps
ETITLE: TS BOND ANGLE DIHED IMPRP ELECT VDW BOUNDARY MISC KINETIC TOTAL TEMP POTENTIAL TOTALAVG TEMPAVG PRESSURE GPRESSURE VOLUME PRESSAVG GPRESSAVG
ENERGY: 0 1.8358 4.4554 2.2727 0.0000 -10725.5555 1339.8453 0.0000 0.0000 1779.7583 -7597.3880 299.8879 -9377.1464 -7597.3880 299.8879 -1184.0421 -1092.6510 31065.1494 -1184.0421 -1092.6510
ENERGY: 300000 1.2181 6.1337 1.6562 0.0000 -10776.0876 1377.9380 0.0000 0.0000 1835.4720 -7553.6697 309.2756 -9389.1417 -7599.6189 298.8314 -779.7150 -687.8225 30853.4185 -497.3399 -442.3671
ENERGY: 600000 1.9575 6.7226 1.0731 0.0000 -10837.3363 1422.4248 0.0000 0.0000 1754.8591 -7650.2991 295.6924 -9405.1583 -7584.6988 299.5083 -613.2513 -557.1724 30850.6427 -445.3807 -388.5745
ENERGY: 900000 0.2777 3.8689 2.5473 0.0000 -10583.5685 1303.7631 0.0000 0.0000 1786.4477 -7486.6637 301.0150 -9273.1115 -7571.1109 299.2600 -815.7098 -763.3666 30821.4201 -506.1675 -445.8523
ENERGY: 1200000 1.0481 8.8173 2.0409 0.0000 -10718.8072 1429.1128 0.0000 0.0000 1778.4167 -7499.3714 299.6618 -9277.7881 -7558.3752 299.7008 132.7321 176.9019 30375.6323 -381.3728 -324.2345
ENERGY: 1500000 0.8476 6.8660 1.2200 0.0000 -10844.4984 1462.2915 0.0000 0.0000 1793.2897 -7579.9837 302.1679 -9373.2734 -7566.8788 299.9288 -216.7542 -133.3663 30894.0778 -361.1327 -303.0415
TCL: Running FEP window   2: Lambda1 0.95   Lambda2 0.8999999999999999 [dLambda -0.050000000000000044]
TCL: Setting parameter firsttimestep to 0
TCL: Setting parameter alchLambda to 0.95
Info: NONBONDED TABLE R-SQUARED SPACING: 0.0625
Info: NONBONDED TABLE SIZE: 705 POINTS
TCL: Setting parameter alchLambda2 to 0.8999999999999999
Info: NONBONDED TABLE R-SQUARED SPACING: 0.0625
Info: NONBONDED TABLE SIZE: 705 POINTS
TCL: Running for 1500000 steps
ETITLE: TS BOND ANGLE DIHED IMPRP ELECT VDW BOUNDARY MISC KINETIC TOTAL TEMP POTENTIAL TOTALAVG TEMPAVG PRESSURE GPRESSURE VOLUME PRESSAVG GPRESSAVG
ENERGY: 0 0.8476 6.8660 1.2200 0.0000 -10844.0985 1462.7175 0.0000 0.0000 1792.3599 -7580.0875 302.0112 -9372.4474 -7580.0875 302.0112 -227.0397 -136.6391 30894.0778 -227.0397 -136.6391
ENERGY: 300000 0.1429 4.8002 0.9637 0.0000 -10744.7436 1362.0257 0.0000 0.0000 1775.0096 -7601.8014 299.0877 -9376.8110 -7589.6247 298.7779 -897.2741 -845.6050 31061.4808 -563.8996 -483.2097
ENERGY: 600000 0.6516 11.8434 4.1008 0.0000 -10988.2525 1553.6269 0.0000 0.0000 1820.8345 -7597.1954 306.8092 -9418.0299 -7567.4187 300.9266 522.6161 594.0339 30569.6852 -244.3056 -162.0031
ENERGY: 900000 1.2564 6.7387 2.7236 0.0000 -10763.0072 1402.3713 0.0000 0.0000 1779.0719 -7570.8454 299.7722 -9349.9173 -7570.4338 300.7760 -309.7701 -248.3362 30611.8666 -284.0645 -212.7686
ENERGY: 1200000 0.1462 7.1276 1.6052 0.0000 -10787.3259 1423.6996 0.0000 0.0000 1779.1495 -7575.5979 299.7853 -9354.7473 -7578.7206 299.8426 -134.5326 -118.7429 30843.7102 -177.9144 -113.4433
ENERGY: 1500000 0.4776 4.3168 2.4394 0.0000 -10894.8987 1482.8741 0.0000 0.0000 1776.7002 -7628.0907 299.3726 -9404.7909 -7584.1313 299.4788 214.2313 247.4878 30534.3474 -65.9583 -5.3318
TCL: Running FEP window   3: Lambda1 0.8999999999999999 Lambda2 0.8499999999999999 [dLambda -0.050000000000000044]
TCL: Setting parameter firsttimestep to 0
TCL: Setting parameter alchLambda to 0.8999999999999999
Info: NONBONDED TABLE R-SQUARED SPACING: 0.0625
Info: NONBONDED TABLE SIZE: 705 POINTS
TCL: Setting parameter alchLambda2 to 0.8499999999999999
Info: NONBONDED TABLE R-SQUARED SPACING: 0.0625
Info: NONBONDED TABLE SIZE: 705 POINTS
TCL: Running for 1500000 steps
ETITLE: TS BOND ANGLE DIHED IMPRP ELECT VDW BOUNDARY MISC KINETIC TOTAL TEMP POTENTIAL TOTALAVG TEMPAVG PRESSURE GPRESSURE VOLUME PRESSAVG GPRESSAVG
ENERGY: 0 0.4776 4.3168 2.4394 0.0000 -10894.6466 1483.3074 0.0000 0.0000 1775.8009 -7628.3046 299.2210 -9404.1054 -7628.3046 299.2210 157.4648 242.8046 30534.3474 157.4648 242.8046
ENERGY: 300000 1.3816 7.0371 3.2979 0.0000 -10739.5464 1381.7456 0.0000 0.0000 1804.8996 -7541.1846 304.1242 -9346.0842 -7564.2262 301.4478 -639.7712 -634.2382 31034.6959 -236.6230 -197.6840
ENERGY: 600000 2.4183 10.0228 2.7314 0.0000 -10648.8182 1326.7325 0.0000 0.0000 1750.1500 -7556.7633 294.8989 -9306.9132 -7572.0876 299.2485 -994.7720 -968.9037 31197.8995 -470.0948 -419.6606
ENERGY: 900000 0.6639 9.5338 1.8513 0.0000 -10741.3307 1435.8925 0.0000 0.0000 1761.1638 -7532.2256 296.7547 -9293.3893 -7570.8955 299.3093 162.0991 217.2493 30404.8677 -287.3024 -238.5778
ENERGY: 1200000 1.2561 5.5243 1.2503 0.0000 -10870.1527 1490.9223 0.0000 0.0000 1776.1466 -7595.0531 299.2793 -9371.1997 -7579.3523 298.7409 237.2950 324.5119 30625.2021 -187.1967 -139.9182
ENERGY: 1500000 0.1648 7.2407 1.3360 0.0000 -10771.7938 1439.5369 0.0000 0.0000 1746.1560 -7577.3592 294.2259 -9323.5153 -7571.1138 298.5009 146.8050 182.0645 30565.5726 -310.0846 -262.6071
TCL: Running FEP window   4: Lambda1 0.8499999999999999 Lambda2 0.7999999999999998 [dLambda -0.050000000000000044]
TCL: Setting parameter firsttimestep to 0
TCL: Setting parameter alchLambda to 0.8499999999999999
Info: NONBONDED TABLE R-SQUARED SPACING: 0.0625
Info: NONBONDED TABLE SIZE: 705 POINTS
TCL: Setting parameter alchLambda2 to 0.7999999999999998
Info: NONBONDED TABLE R-SQUARED SPACING: 0.0625
Info: NONBONDED TABLE SIZE: 705 POINTS
TCL: Running for 1500000 steps
ETITLE: TS BOND ANGLE DIHED IMPRP ELECT VDW BOUNDARY MISC KINETIC TOTAL TEMP POTENTIAL TOTALAVG TEMPAVG PRESSURE GPRESSURE VOLUME PRESSAVG GPRESSAVG
ENERGY: 0 0.1648 7.2407 1.3360 0.0000 -10771.4439 1439.6497 0.0000 0.0000 1745.3045 -7577.7482 294.0824 -9323.0526 -7577.7482 294.0824 96.3972 174.7310 30565.5726 96.3972 174.7310
ENERGY: 300000 2.3903 6.9614 2.5846 0.0000 -10690.3301 1339.7324 0.0000 0.0000 1744.1762 -7594.4853 293.8923 -9338.6615 -7561.4641 294.6018 -658.8360 -697.5883 30607.1368 -231.9615 -201.9152
ENERGY: 600000 0.9720 4.7453 2.3324 0.0000 -10859.1404 1476.3390 0.0000 0.0000 1751.9404 -7622.8113 295.2006 -9374.7517 -7557.8900 296.6168 156.9799 207.6966 30513.7638 -198.5606 -148.7126
ENERGY: 900000 1.8338 4.9716 2.0896 0.0000 -10830.5299 1468.6406 0.0000 0.0000 1790.7427 -7562.2515 301.7387 -9352.9942 -7558.1653 297.0343 75.4146 122.9281 30574.2775 -135.4850 -90.9613
ENERGY: 1200000 0.9680 6.0445 2.2787 0.0000 -10820.4883 1461.7759 0.0000 0.0000 1761.0576 -7588.3636 296.7368 -9349.4213 -7570.1396 297.6668 143.9535 229.3092 30690.6524 -45.6163 -1.5387
ENERGY: 1500000 3.1228 3.9339 1.6903 0.0000 -10905.3110 1501.6797 0.0000 0.0000 1806.3788 -7588.5055 304.3734 -9394.8843 -7569.8793 298.8510 405.8319 477.7973 30185.2860 123.1481 172.2607
TCL: Running FEP window   5: Lambda1 0.7999999999999998 Lambda2 0.7499999999999998 [dLambda -0.050000000000000044]
TCL: Setting parameter firsttimestep to 0
TCL: Setting parameter alchLambda to 0.7999999999999998
Info: NONBONDED TABLE R-SQUARED SPACING: 0.0625
Info: NONBONDED TABLE SIZE: 705 POINTS
TCL: Setting parameter alchLambda2 to 0.7499999999999998
Info: NONBONDED TABLE R-SQUARED SPACING: 0.0625
Info: NONBONDED TABLE SIZE: 705 POINTS
TCL: Running for 1500000 steps
ETITLE: TS BOND ANGLE DIHED IMPRP ELECT VDW BOUNDARY MISC KINETIC TOTAL TEMP POTENTIAL TOTALAVG TEMPAVG PRESSURE GPRESSURE VOLUME PRESSAVG GPRESSAVG
ENERGY: 0 3.1228 3.9339 1.6903 0.0000 -10905.0680 1501.4801 0.0000 0.0000 1805.4855 -7589.3553 304.2229 -9394.8408 -7589.3553 304.2229 375.5217 468.7518 30185.2860 375.5217 468.7518
ENERGY: 300000 1.0044 3.0903 2.0293 0.0000 -10907.8774 1526.8317 0.0000 0.0000 1770.9992 -7603.9225 298.4120 -9374.9217 -7570.4550 303.5540 424.4275 465.8661 30435.7176 376.2919 434.3091
ENERGY: 600000 0.5811 6.2029 1.5594 0.0000 -10866.3722 1464.2921 0.0000 0.0000 1745.3579 -7648.3789 294.0914 -9393.7368 -7588.3586 300.8384 -152.7064 -38.7449 30808.7667 98.7689 170.6071
ENERGY: 900000 1.0104 6.3614 1.3749 0.0000 -10785.6741 1442.6549 0.0000 0.0000 1803.1840 -7531.0885 303.8351 -9334.2725 -7576.7915 300.2399 -252.5518 -137.2257 30895.5522 2.6583 74.3828
ENERGY: 1200000 0.9808 6.3276 1.8463 0.0000 -10862.5290 1554.4629 0.0000 0.0000 1758.8944 -7540.0169 296.3723 -9298.9113 -7580.6822 299.5951 957.0178 1083.6485 30595.4874 -62.0163 17.9495
ENERGY: 1500000 1.8625 4.8532 2.4726 0.0000 -10700.3219 1449.8610 0.0000 0.0000 1803.2907 -7437.9819 303.8531 -9241.2726 -7573.2564 299.6973 -92.5891 -41.2373 31559.5524 -30.3449 40.2744
TCL: Running FEP window   6: Lambda1 0.7499999999999998 Lambda2 0.6999999999999997 [dLambda -0.050000000000000044]
TCL: Setting parameter firsttimestep to 0
TCL: Setting parameter alchLambda to 0.7499999999999998
Info: NONBONDED TABLE R-SQUARED SPACING: 0.0625
Info: NONBONDED TABLE SIZE: 705 POINTS
TCL: Setting parameter alchLambda2 to 0.6999999999999997
Info: NONBONDED TABLE R-SQUARED SPACING: 0.0625
Info: NONBONDED TABLE SIZE: 705 POINTS
TCL: Running for 1500000 steps
ETITLE: TS BOND ANGLE DIHED IMPRP ELECT VDW BOUNDARY MISC KINETIC TOTAL TEMP POTENTIAL TOTALAVG TEMPAVG PRESSURE GPRESSURE VOLUME PRESSAVG GPRESSAVG
ENERGY: 0 1.8625 4.8532 2.4726 0.0000 -10699.8438 1449.5077 0.0000 0.0000 1802.3817 -7438.7662 303.6999 -9241.1479 -7438.7662 303.6999 -131.7974 -48.8956 31559.5524 -131.7974 -48.8956
ENERGY: 300000 0.2884 4.9314 1.9029 0.0000 -10709.4823 1369.1328 0.0000 0.0000 1787.0442 -7546.1825 301.1155 -9333.2267 -7539.8270 300.9324 -487.0523 -498.3909 30654.6498 29.7475 77.3533
ENERGY: 600000 0.6106 4.4792 0.8992 0.0000 -10592.0821 1289.2103 0.0000 0.0000 1780.8134 -7516.0695 300.0657 -9296.8829 -7550.9205 300.4467 -1159.9924 -1081.6186 30840.1786 -226.4426 -179.4697
ENERGY: 900000 0.9434 5.0050 2.1583 0.0000 -10872.2651 1510.4736 0.0000 0.0000 1784.9951 -7568.6897 300.7703 -9353.6847 -7547.7192 302.4120 420.0857 541.5093 30454.1256 -163.5764 -111.4811
ENERGY: 1200000 3.0286 5.1102 2.3440 0.0000 -10780.8862 1468.7124 0.0000 0.0000 1745.6601 -7556.0309 294.1424 -9301.6910 -7559.6447 300.5097 110.8321 148.1646 30905.0441 -148.0186 -97.5250
ENERGY: 1500000 2.4737 7.2879 2.4541 0.0000 -10766.1481 1414.6012 0.0000 0.0000 1731.0196 -7608.3116 291.6754 -9339.3313 -7559.6464 300.3805 -523.9979 -480.2607 30964.0538 -112.3758 -59.1104
TCL: Running FEP window   7: Lambda1 0.6999999999999997 Lambda2 0.6499999999999997 [dLambda -0.050000000000000044]
TCL: Setting parameter firsttimestep to 0
TCL: Setting parameter alchLambda to 0.6999999999999997
Info: NONBONDED TABLE R-SQUARED SPACING: 0.0625
Info: NONBONDED TABLE SIZE: 705 POINTS
TCL: Setting parameter alchLambda2 to 0.6499999999999997
Info: NONBONDED TABLE R-SQUARED SPACING: 0.0625
Info: NONBONDED TABLE SIZE: 705 POINTS
TCL: Running for 1500000 steps
ETITLE: TS BOND ANGLE DIHED IMPRP ELECT VDW BOUNDARY MISC KINETIC TOTAL TEMP POTENTIAL TOTALAVG TEMPAVG PRESSURE GPRESSURE VOLUME PRESSAVG GPRESSAVG
ENERGY: 0 2.4737 7.2879 2.4541 0.0000 -10765.9370 1415.1098 0.0000 0.0000 1730.1343 -7608.4773 291.5263 -9338.6116 -7608.4773 291.5263 -568.3171 -480.1004 30964.0538 -568.3171 -480.1004
ENERGY: 300000 1.3397 8.5815 2.0094 0.0000 -10770.0746 1429.7663 0.0000 0.0000 1838.8710 -7489.5066 309.8483 -9328.3776 -7514.0375 301.9651 -478.5237 -386.8237 31259.2649 -410.0862 -347.3763
ENERGY: 600000 1.4960 6.1653 1.7580 0.0000 -10840.6912 1453.6702 0.0000 0.0000 1786.6242 -7590.9775 301.0448 -9377.6017 -7521.7998 302.0371 -118.1356 -57.3012 30864.6645 -307.0802 -239.9825
ENERGY: 900000 1.2007 4.7191 1.4181 0.0000 -10811.0547 1442.4033 0.0000 0.0000 1826.2440 -7535.0695 307.7207 -9361.3135 -7547.7654 301.5148 -25.8460 -50.1897 30791.8395 -266.1752 -202.0970
ENERGY: 1200000 0.3615 6.9766 1.3085 0.0000 -10773.6232 1386.7404 0.0000 0.0000 1748.0528 -7630.1833 294.5455 -9378.2361 -7550.0544 301.0734 -560.6679 -513.4078 30670.0044 -227.9083 -172.0507
ENERGY: 1500000 3.0416 7.6319 2.0328 0.0000 -10595.6660 1372.7965 0.0000 0.0000 1766.5731 -7443.5902 297.6662 -9210.1632 -7549.0183 301.0684 -459.3896 -439.9512 30920.7041 -174.2493 -116.1581
TCL: Running FEP window   8: Lambda1 0.6499999999999997 Lambda2 0.5999999999999996 [dLambda -0.050000000000000044]
TCL: Setting parameter firsttimestep to 0
TCL: Setting parameter alchLambda to 0.6499999999999997
Info: NONBONDED TABLE R-SQUARED SPACING: 0.0625
Info: NONBONDED TABLE SIZE: 705 POINTS
TCL: Setting parameter alchLambda2 to 0.5999999999999996
Info: NONBONDED TABLE R-SQUARED SPACING: 0.0625
Info: NONBONDED TABLE SIZE: 705 POINTS
TCL: Running for 1500000 steps
ETITLE: TS BOND ANGLE DIHED IMPRP ELECT VDW BOUNDARY MISC KINETIC TOTAL TEMP POTENTIAL TOTALAVG TEMPAVG PRESSURE GPRESSURE VOLUME PRESSAVG GPRESSAVG
ENERGY: 0 3.0416 7.6319 2.0328 0.0000 -10595.7659 1373.1003 0.0000 0.0000 1765.6540 -7444.3053 297.5113 -9209.9593 -7444.3053 297.5113 -519.3183 -442.1216 30920.7041 -519.3183 -442.1216
ENERGY: 300000 0.6402 4.9843 1.0588 0.0000 -10848.8589 1475.2227 0.0000 0.0000 1823.6977 -7543.2552 307.2916 -9366.9530 -7511.8001 305.9638 134.6102 163.4397 30886.1180 -327.4598 -255.5014
ENERGY: 600000 0.5073 5.5174 2.0231 0.0000 -10735.4876 1367.2198 0.0000 0.0000 1748.9469 -7611.2730 294.6962 -9360.2200 -7532.4753 303.9490 -607.2373 -547.9324 30757.8908 -279.0420 -224.6193
ENERGY: 900000 0.8305 8.7943 2.3084 0.0000 -10823.3949 1453.9980 0.0000 0.0000 1793.3265 -7564.1372 302.1741 -9357.4637 -7543.3788 303.7477 148.3323 238.7047 30469.9909 -68.6816 -14.5926
ENERGY: 1200000 0.5393 7.7905 3.4340 0.0000 -10828.8553 1493.7811 0.0000 0.0000 1830.0288 -7493.2815 308.3584 -9323.3103 -7531.0962 304.5036 391.5900 423.0309 30795.6854 0.8904 53.8634
ENERGY: 1500000 1.0765 6.2140 1.5435 0.0000 -10875.2025 1471.2845 0.0000 0.0000 1781.5728 -7613.5111 300.1936 -9395.0840 -7551.7673 302.7343 54.3612 71.2219 30760.7132 54.8790 112.3796
TCL: Running FEP window   9: Lambda1 0.5999999999999996 Lambda2 0.5499999999999996 [dLambda -0.050000000000000044]
TCL: Setting parameter firsttimestep to 0
TCL: Setting parameter alchLambda to 0.5999999999999996
Info: NONBONDED TABLE R-SQUARED SPACING: 0.0625
Info: NONBONDED TABLE SIZE: 705 POINTS
TCL: Setting parameter alchLambda2 to 0.5499999999999996
Info: NONBONDED TABLE R-SQUARED SPACING: 0.0625
Info: NONBONDED TABLE SIZE: 705 POINTS
TCL: Running for 1500000 steps
ETITLE: TS BOND ANGLE DIHED IMPRP ELECT VDW BOUNDARY MISC KINETIC TOTAL TEMP POTENTIAL TOTALAVG TEMPAVG PRESSURE GPRESSURE VOLUME PRESSAVG GPRESSAVG
ENERGY: 0 1.0765 6.2140 1.5435 0.0000 -10875.0018 1471.7264 0.0000 0.0000 1780.6940 -7613.7474 300.0455 -9394.4414 -7613.7474 300.0455 -10.7196 72.0142 30760.7132 -10.7196 72.0142
ENERGY: 300000 1.2011 3.7264 2.9736 0.0000 -10846.5406 1493.1111 0.0000 0.0000 1786.5545 -7558.9739 301.0330 -9345.5284 -7576.0885 300.3847 252.8297 267.5133 30752.7863 341.1802 405.7338
ENERGY: 600000 1.7290 5.6197 2.0389 0.0000 -10822.9304 1405.3275 0.0000 0.0000 1830.4206 -7577.7946 308.4244 -9408.2153 -7582.8791 300.8113 -292.0555 -263.2343 30488.8708 11.5024 76.6688
ENERGY: 900000 0.1495 5.2625 1.8790 0.0000 -10841.9631 1438.1198 0.0000 0.0000 1807.2626 -7589.2897 304.5223 -9396.5523 -7590.0375 299.6159 34.5124 148.8553 30186.0354 88.1551 157.5834
ENERGY: 1200000 0.4042 8.2108 1.2489 0.0000 -10708.8815 1409.6949 0.0000 0.0000 1795.4007 -7493.9220 302.5236 -9289.3227 -7565.9441 300.2931 -214.2111 -143.2792 30511.9290 69.6496 133.9477
ENERGY: 1500000 1.0603 8.2190 1.3690 0.0000 -10646.2019 1351.1373 0.0000 0.0000 1765.0018 -7519.4144 297.4014 -9284.4163 -7569.3029 299.9517 -884.6643 -803.8707 31346.7992 -33.9658 32.4082
TCL: Running FEP window  10: Lambda1 0.5499999999999996 Lambda2 0.4999999999999996 [dLambda -0.04999999999999999]
TCL: Setting parameter firsttimestep to 0
TCL: Setting parameter alchLambda to 0.5499999999999996
Info: NONBONDED TABLE R-SQUARED SPACING: 0.0625
Info: NONBONDED TABLE SIZE: 705 POINTS
TCL: Setting parameter alchLambda2 to 0.4999999999999996
Info: NONBONDED TABLE R-SQUARED SPACING: 0.0625
Info: NONBONDED TABLE SIZE: 705 POINTS
TCL: Running for 1500000 steps
ETITLE: TS BOND ANGLE DIHED IMPRP ELECT VDW BOUNDARY MISC KINETIC TOTAL TEMP POTENTIAL TOTALAVG TEMPAVG PRESSURE GPRESSURE VOLUME PRESSAVG GPRESSAVG
ENERGY: 0 1.0603 8.2190 1.3690 0.0000 -10646.1981 1350.9903 0.0000 0.0000 1764.1041 -7520.4553 297.2501 -9284.5594 -7520.4553 297.2501 -889.0729 -813.5896 31346.7992 -889.0729 -813.5896
ENERGY: 300000 0.8444 11.4470 2.1723 0.0000 -10693.3474 1367.6832 0.0000 0.0000 1795.5945 -7515.6060 302.5563 -9311.2004 -7556.1614 297.9022 -479.1740 -417.3992 30678.3848 -285.0262 -222.0976
ENERGY: 600000 0.7072 7.1626 3.0224 0.0000 -10815.3560 1444.3691 0.0000 0.0000 1765.2149 -7594.8797 297.4373 -9360.0947 -7560.1531 298.8804 -180.9914 -178.9564 30938.8344 -104.0092 -60.3563
ENERGY: 900000 0.7013 9.1504 2.2254 0.0000 -10806.5245 1532.3701 0.0000 0.0000 1770.5548 -7491.5224 298.3371 -9262.0772 -7548.4485 299.5264 719.6074 792.9571 30822.8423 12.9953 68.0426
ENERGY: 1200000 1.9330 7.9901 1.7988 0.0000 -10928.5056 1502.5600 0.0000 0.0000 1820.4639 -7593.7598 306.7467 -9414.2237 -7553.4779 300.9676 347.3934 477.7175 30521.8277 -14.4472 49.1196
ENERGY: 1500000 0.7824 6.2209 2.0058 0.0000 -10723.8447 1417.1585 0.0000 0.0000 1749.3821 -7548.2949 294.7695 -9297.6771 -7553.5930 300.9881 -231.6013 -181.8266 30851.9090 24.3374 85.5165
TCL: Running FEP window  11: Lambda1 0.4999999999999996 Lambda2 0.4499999999999996 [dLambda -0.04999999999999999]
TCL: Setting parameter firsttimestep to 0
TCL: Setting parameter alchLambda to 0.4999999999999996
Info: NONBONDED TABLE R-SQUARED SPACING: 0.0625
Info: NONBONDED TABLE SIZE: 705 POINTS
TCL: Setting parameter alchLambda2 to 0.4499999999999996
Info: NONBONDED TABLE R-SQUARED SPACING: 0.0625
Info: NONBONDED TABLE SIZE: 705 POINTS
TCL: Running for 1500000 steps
ETITLE: TS BOND ANGLE DIHED IMPRP ELECT VDW BOUNDARY MISC KINETIC TOTAL TEMP POTENTIAL TOTALAVG TEMPAVG PRESSURE GPRESSURE VOLUME PRESSAVG GPRESSAVG
ENERGY: 0 0.7824 6.2209 2.0058 0.0000 -10723.8217 1417.2628 0.0000 0.0000 1748.4527 -7549.0971 294.6129 -9297.5497 -7549.0971 294.6129 -260.7899 -186.5326 30851.9090 -260.7899 -186.5326
ENERGY: 300000 1.2217 4.1051 1.9386 0.0000 -10781.0557 1450.1492 0.0000 0.0000 1743.7376 -7579.9036 293.8184 -9323.6412 -7583.6309 297.9888 115.4401 159.5603 30609.7388 -29.0496 30.0553
ENERGY: 600000 2.9957 6.9112 2.7524 0.0000 -10777.0173 1461.7000 0.0000 0.0000 1772.1022 -7530.5559 298.5978 -9302.6581 -7557.7256 299.5589 -92.9925 -43.9239 30887.9107 -29.1670 9.1842
ENERGY: 900000 0.5881 3.9885 1.1612 0.0000 -10784.5504 1427.3310 0.0000 0.0000 1786.8914 -7564.5901 301.0898 -9351.4815 -7545.2832 300.2878 -288.8311 -203.0268 30771.7443 -97.3545 -49.4525
ENERGY: 1200000 0.9965 5.0486 0.9325 0.0000 -10842.2041 1391.9875 0.0000 0.0000 1816.5090 -7626.7301 306.0803 -9443.2390 -7543.8547 300.8670 -696.0941 -681.5988 30654.9514 -70.2854 -30.2683
ENERGY: 1500000 0.4971 7.7013 2.2069 0.0000 -11012.2318 1523.8075 0.0000 0.0000 1797.6606 -7680.3583 302.9044 -9478.0190 -7560.7583 301.7256 374.8825 388.4619 30342.9598 -49.7723 -5.7244
TCL: Running FEP window  12: Lambda1 0.4499999999999996 Lambda2 0.39999999999999963 [dLambda -0.04999999999999999]
TCL: Setting parameter firsttimestep to 0
TCL: Setting parameter alchLambda to 0.4499999999999996
Info: NONBONDED TABLE R-SQUARED SPACING: 0.0625
Info: NONBONDED TABLE SIZE: 705 POINTS
TCL: Setting parameter alchLambda2 to 0.39999999999999963
Info: NONBONDED TABLE R-SQUARED SPACING: 0.0625
Info: NONBONDED TABLE SIZE: 705 POINTS
TCL: Running for 1500000 steps
ETITLE: TS BOND ANGLE DIHED IMPRP ELECT VDW BOUNDARY MISC KINETIC TOTAL TEMP POTENTIAL TOTALAVG TEMPAVG PRESSURE GPRESSURE VOLUME PRESSAVG GPRESSAVG
ENERGY: 0 0.4971 7.7013 2.2069 0.0000 -11012.2318 1523.8896 0.0000 0.0000 1796.7522 -7681.1847 302.7513 -9477.9369 -7681.1847 302.7513 291.5442 384.5712 30342.9598 291.5442 384.5712
ENERGY: 300000 2.5647 6.5358 1.5753 0.0000 -10860.7605 1468.7598 0.0000 0.0000 1802.6252 -7578.6997 303.7409 -9381.3249 -7612.1353 300.3332 -18.9077 67.7324 30644.9596 79.6107 177.4568
ENERGY: 600000 0.2704 6.9682 2.5900 0.0000 -10581.2102 1319.7147 0.0000 0.0000 1818.0612 -7433.6057 306.3419 -9251.6669 -7576.8584 302.0199 -813.2688 -714.4453 30555.7852 -66.0200 32.3467
ENERGY: 900000 0.6221 5.1052 1.9817 0.0000 -10833.5645 1485.7490 0.0000 0.0000 1682.7600 -7657.3466 283.5437 -9340.1066 -7585.0824 298.9603 455.3894 481.0081 30234.7081 -66.1024 16.2440
ENERGY: 1200000 0.7755 7.2631 1.4732 0.0000 -10854.2189 1456.8960 0.0000 0.0000 1745.1658 -7642.6453 294.0591 -9387.8111 -7591.0375 297.5527 -126.5995 -36.9080 30424.4895 -110.1835 -25.7525
ENERGY: 1500000 1.8315 4.6746 1.5449 0.0000 -10705.2059 1404.3861 0.0000 0.0000 1760.9275 -7531.8411 296.7149 -9292.7687 -7577.1577 297.4892 -569.2862 -510.2950 31199.7382 -141.7258 -60.3715
TCL: Running FEP window  13: Lambda1 0.39999999999999963 Lambda2 0.34999999999999964 [dLambda -0.04999999999999999]
TCL: Setting parameter firsttimestep to 0
TCL: Setting parameter alchLambda to 0.39999999999999963
Info: NONBONDED TABLE R-SQUARED SPACING: 0.0625
Info: NONBONDED TABLE SIZE: 705 POINTS
TCL: Setting parameter alchLambda2 to 0.34999999999999964
Info: NONBONDED TABLE R-SQUARED SPACING: 0.0625
Info: NONBONDED TABLE SIZE: 705 POINTS
TCL: Running for 1500000 steps
ETITLE: TS BOND ANGLE DIHED IMPRP ELECT VDW BOUNDARY MISC KINETIC TOTAL TEMP POTENTIAL TOTALAVG TEMPAVG PRESSURE GPRESSURE VOLUME PRESSAVG GPRESSAVG
ENERGY: 0 1.8315 4.6746 1.5449 0.0000 -10705.2057 1404.7272 0.0000 0.0000 1760.0267 -7532.4006 296.5631 -9292.4273 -7532.4006 296.5631 -588.7415 -512.3260 31199.7382 -588.7415 -512.3260
ENERGY: 300000 0.9442 5.5966 2.6156 0.0000 -10708.8426 1373.2541 0.0000 0.0000 1818.0451 -7508.3871 306.3392 -9326.4322 -7560.0558 297.6116 -688.7010 -613.6296 30992.5611 -316.6948 -233.8281
ENERGY: 600000 0.5057 10.3132 1.2026 0.0000 -10789.5066 1437.1300 0.0000 0.0000 1718.3614 -7621.9937 289.5425 -9340.3552 -7565.7397 298.0208 91.3481 96.9959 30262.2721 -144.9354 -76.5079
ENERGY: 900000 1.1620 6.5801 1.9764 0.0000 -10826.6558 1497.5603 0.0000 0.0000 1791.7375 -7527.6397 301.9063 -9319.3771 -7567.9011 298.8215 571.2676 671.0531 30450.5835 -157.6859 -92.4131
ENERGY: 1200000 1.3768 4.2487 1.0270 0.0000 -10818.0548 1467.9984 0.0000 0.0000 1790.6224 -7552.7814 301.7185 -9343.4038 -7550.6778 299.9516 340.6212 397.4263 30281.5430 -170.3820 -102.9818
ENERGY: 1500000 2.1176 6.9853 3.3711 0.0000 -10768.8577 1433.2814 0.0000 0.0000 1738.8739 -7584.2283 292.9989 -9323.1022 -7552.9428 299.5502 -108.0671 -44.1628 30539.5524 -196.1161 -129.5838
TCL: Running FEP window  14: Lambda1 0.34999999999999964 Lambda2 0.29999999999999966 [dLambda -0.04999999999999999]
TCL: Setting parameter firsttimestep to 0
TCL: Setting parameter alchLambda to 0.34999999999999964
Info: NONBONDED TABLE R-SQUARED SPACING: 0.0625
Info: NONBONDED TABLE SIZE: 705 POINTS
TCL: Setting parameter alchLambda2 to 0.29999999999999966
Info: NONBONDED TABLE R-SQUARED SPACING: 0.0625
Info: NONBONDED TABLE SIZE: 705 POINTS
TCL: Running for 1500000 steps
ETITLE: TS BOND ANGLE DIHED IMPRP ELECT VDW BOUNDARY MISC KINETIC TOTAL TEMP POTENTIAL TOTALAVG TEMPAVG PRESSURE GPRESSURE VOLUME PRESSAVG GPRESSAVG
ENERGY: 0 2.1176 6.9853 3.3711 0.0000 -10768.8553 1433.5017 0.0000 0.0000 1737.9978 -7584.8818 292.8513 -9322.8796 -7584.8818 292.8513 -133.8918 -45.4886 30539.5524 -133.8918 -45.4886
ENERGY: 300000 0.2870 5.3436 1.6423 0.0000 -10864.3816 1502.0275 0.0000 0.0000 1755.1766 -7599.9046 295.7459 -9355.0812 -7602.0900 293.4143 111.7118 156.1824 31226.5747 -59.8278 3.9681
ENERGY: 600000 1.0158 6.2841 2.3300 0.0000 -10891.3774 1477.9590 0.0000 0.0000 1755.0451 -7648.7436 295.7237 -9403.7886 -7615.2482 294.2030 90.0273 149.3886 30380.5572 14.7430 83.4068
ENERGY: 900000 0.4591 5.0040 1.6020 0.0000 -10760.1815 1411.1540 0.0000 0.0000 1759.7757 -7582.1867 296.5208 -9341.9624 -7610.7924 294.5222 -45.5207 -59.4282 30314.0888 29.0695 90.8422
ENERGY: 1200000 1.7822 7.6469 2.1329 0.0000 -10945.8122 1510.8748 0.0000 0.0000 1733.4137 -7689.9616 292.0788 -9423.3753 -7607.4631 295.0584 560.8832 603.8971 30070.5151 27.9476 95.3773
ENERGY: 1500000 0.8282 6.5634 2.3985 0.0000 -10767.0121 1431.2991 0.0000 0.0000 1806.2827 -7519.6402 304.3572 -9325.9229 -7591.1133 297.3908 -54.5249 22.0258 30799.2686 135.1220 201.0259
TCL: Running FEP window  15: Lambda1 0.29999999999999966 Lambda2 0.24999999999999967 [dLambda -0.04999999999999999]
TCL: Setting parameter firsttimestep to 0
TCL: Setting parameter alchLambda to 0.29999999999999966
Info: NONBONDED TABLE R-SQUARED SPACING: 0.0625
Info: NONBONDED TABLE SIZE: 705 POINTS
TCL: Setting parameter alchLambda2 to 0.24999999999999967
Info: NONBONDED TABLE R-SQUARED SPACING: 0.0625
Info: NONBONDED TABLE SIZE: 705 POINTS
TCL: Running for 1500000 steps
ETITLE: TS BOND ANGLE DIHED IMPRP ELECT VDW BOUNDARY MISC KINETIC TOTAL TEMP POTENTIAL TOTALAVG TEMPAVG PRESSURE GPRESSURE VOLUME PRESSAVG GPRESSAVG
ENERGY: 0 0.8282 6.5634 2.3985 0.0000 -10767.0145 1431.3856 0.0000 0.0000 1805.3970 -7520.4419 304.2080 -9325.8388 -7520.4419 304.2080 -74.6609 17.3118 30799.2686 -74.6609 17.3118
ENERGY: 300000 0.4895 7.8978 1.9471 0.0000 -10952.5542 1582.2451 0.0000 0.0000 1788.9790 -7570.9959 301.4415 -9359.9748 -7574.1110 299.6238 1097.9910 1249.5723 30150.8143 400.0562 477.5440
ENERGY: 600000 0.9590 6.1553 2.5137 0.0000 -10932.0060 1522.9859 0.0000 0.0000 1868.9404 -7530.4518 314.9150 -9399.3922 -7584.9005 301.3938 530.4250 511.6195 30460.7486 440.1930 488.8553
ENERGY: 900000 0.2351 6.0829 1.6891 0.0000 -10747.3338 1360.0010 0.0000 0.0000 1791.7386 -7587.5871 301.9065 -9379.3257 -7584.7284 301.3236 -871.4145 -834.2166 30810.8981 130.1539 183.4088
ENERGY: 1200000 3.6769 6.7964 4.1401 0.0000 -10887.8951 1484.0412 0.0000 0.0000 1798.8032 -7590.4373 303.0969 -9389.2404 -7580.1861 301.3361 193.3878 271.1210 30201.4595 86.5402 138.2377
ENERGY: 1500000 0.1107 4.2991 2.0985 0.0000 -10805.7637 1330.8615 0.0000 0.0000 1765.1314 -7703.2624 297.4232 -9468.3938 -7587.4868 300.6076 -1252.5384 -1172.1793 30484.6663 -81.5059 -27.1147
TCL: Running FEP window  16: Lambda1 0.24999999999999967 Lambda2 0.19999999999999968 [dLambda -0.04999999999999999]
TCL: Setting parameter firsttimestep to 0
TCL: Setting parameter alchLambda to 0.24999999999999967
Info: NONBONDED TABLE R-SQUARED SPACING: 0.0625
Info: NONBONDED TABLE SIZE: 705 POINTS
TCL: Setting parameter alchLambda2 to 0.19999999999999968
Info: NONBONDED TABLE R-SQUARED SPACING: 0.0625
Info: NONBONDED TABLE SIZE: 705 POINTS
TCL: Running for 1500000 steps
ETITLE: TS BOND ANGLE DIHED IMPRP ELECT VDW BOUNDARY MISC KINETIC TOTAL TEMP POTENTIAL TOTALAVG TEMPAVG PRESSURE GPRESSURE VOLUME PRESSAVG GPRESSAVG
ENERGY: 0 0.1107 4.2991 2.0985 0.0000 -10805.7619 1329.9414 0.0000 0.0000 1764.2175 -7705.0948 297.2693 -9469.3123 -7705.0948 297.2693 -1273.8311 -1183.5542 30484.6663 -1273.8311 -1183.5542
ENERGY: 300000 0.5597 7.6215 1.2706 0.0000 -10906.4848 1623.8490 0.0000 0.0000 1770.1689 -7503.0151 298.2721 -9273.1840 -7537.3125 301.6145 1598.2025 1731.1071 30285.2537 27.2606 121.3126
ENERGY: 600000 2.7875 8.3110 1.3750 0.0000 -10670.4277 1401.4899 0.0000 0.0000 1813.6560 -7442.8083 305.5996 -9256.4643 -7560.1981 300.7803 -496.9293 -416.0193 31111.0219 37.2643 124.9315
ENERGY: 900000 1.1565 8.8401 2.3302 0.0000 -10758.7640 1442.4276 0.0000 0.0000 1803.0283 -7500.9811 303.8088 -9304.0094 -7548.4136 301.3404 23.8003 77.3047 30661.7369 9.8449 90.5160
ENERGY: 1200000 2.4558 5.6502 2.2263 0.0000 -10794.0162 1476.9128 0.0000 0.0000 1745.4538 -7561.3173 294.1076 -9306.7711 -7561.7953 299.6937 150.2048 294.0100 30435.1256 -129.8608 -51.1474
ENERGY: 1500000 0.5099 8.4210 2.2869 0.0000 -10750.5850 1447.0128 0.0000 0.0000 1711.2722 -7581.0822 288.3480 -9292.3543 -7547.4760 299.7231 -11.2212 -31.4096 30782.8708 -85.8467 -12.6579
TCL: Running FEP window  17: Lambda1 0.19999999999999968 Lambda2 0.1499999999999997 [dLambda -0.04999999999999999]
TCL: Setting parameter firsttimestep to 0
TCL: Setting parameter alchLambda to 0.19999999999999968
Info: NONBONDED TABLE R-SQUARED SPACING: 0.0625
Info: NONBONDED TABLE SIZE: 705 POINTS
TCL: Setting parameter alchLambda2 to 0.1499999999999997
Info: NONBONDED TABLE R-SQUARED SPACING: 0.0625
Info: NONBONDED TABLE SIZE: 705 POINTS
TCL: Running for 1500000 steps
ETITLE: TS BOND ANGLE DIHED IMPRP ELECT VDW BOUNDARY MISC KINETIC TOTAL TEMP POTENTIAL TOTALAVG TEMPAVG PRESSURE GPRESSURE VOLUME PRESSAVG GPRESSAVG
ENERGY: 0 0.5099 8.4210 2.2869 0.0000 -10750.5852 1447.3360 0.0000 0.0000 1710.3345 -7581.6969 288.1900 -9292.0314 -7581.6969 288.1900 -105.2742 -30.7426 30782.8708 -105.2742 -30.7426
ENERGY: 300000 1.2499 5.2655 1.3954 0.0000 -10858.2502 1439.4673 0.0000 0.0000 1756.0167 -7654.8555 295.8874 -9410.8722 -7580.4138 296.4254 -416.7334 -291.9569 30697.1725 22.5808 98.4201
ENERGY: 600000 0.6870 6.3090 2.5796 0.0000 -10713.4655 1419.1501 0.0000 0.0000 1706.7831 -7577.9566 287.5916 -9284.7397 -7563.9451 296.2302 -129.7302 -85.0894 30770.2984 -163.2143 -83.9039
ENERGY: 900000 0.9289 8.0914 1.3594 0.0000 -10765.8406 1415.7204 0.0000 0.0000 1802.4858 -7537.2547 303.7174 -9339.7405 -7569.2157 296.4758 -236.2724 -167.0045 30732.4475 -26.4805 36.5501
ENERGY: 1200000 1.1693 5.7564 1.9793 0.0000 -10793.0014 1412.9505 0.0000 0.0000 1735.9595 -7635.1864 292.5078 -9371.1459 -7580.7346 296.1435 -432.3292 -360.8881 30621.8954 -60.0288 0.1898
ENERGY: 1500000 2.1496 6.0376 1.7373 0.0000 -10734.5263 1410.8908 0.0000 0.0000 1759.2014 -7554.5097 296.4240 -9313.7111 -7576.1478 297.3383 -264.3932 -229.9573 30582.2728 -56.1895 1.7468
TCL: Running FEP window  18: Lambda1 0.1499999999999997 Lambda2 0.09999999999999969 [dLambda -0.05 ]
TCL: Setting parameter firsttimestep to 0
TCL: Setting parameter alchLambda to 0.1499999999999997
Info: NONBONDED TABLE R-SQUARED SPACING: 0.0625
Info: NONBONDED TABLE SIZE: 705 POINTS
TCL: Setting parameter alchLambda2 to 0.09999999999999969
Info: NONBONDED TABLE R-SQUARED SPACING: 0.0625
Info: NONBONDED TABLE SIZE: 705 POINTS
TCL: Running for 1500000 steps
ETITLE: TS BOND ANGLE DIHED IMPRP ELECT VDW BOUNDARY MISC KINETIC TOTAL TEMP POTENTIAL TOTALAVG TEMPAVG PRESSURE GPRESSURE VOLUME PRESSAVG GPRESSAVG
ENERGY: 0 2.1496 6.0376 1.7373 0.0000 -10734.5278 1410.1846 0.0000 0.0000 1758.3071 -7556.1116 296.2734 -9314.4187 -7556.1116 296.2734 -320.8050 -234.4396 30582.2728 -320.8050 -234.4396
ENERGY: 300000 2.6372 4.9345 2.1474 0.0000 -10856.1719 1465.1274 0.0000 0.0000 1767.5962 -7613.7293 297.8386 -9381.3254 -7596.2893 298.4023 -60.5879 -33.3947 30427.6446 -42.5271 27.0655
ENERGY: 600000 0.7793 5.8641 0.9541 0.0000 -10856.4645 1526.4874 0.0000 0.0000 1760.9430 -7561.4366 296.7175 -9322.3796 -7573.8156 298.9279 698.4857 715.6444 30575.8530 194.3281 252.9463
ENERGY: 900000 1.6305 8.9308 1.7993 0.0000 -10639.8072 1339.0643 0.0000 0.0000 1753.5065 -7534.8758 295.4645 -9288.3823 -7587.8871 298.2585 -871.4710 -835.3893 30683.0179 22.8634 78.8135
ENERGY: 1200000 0.8451 7.2447 1.4184 0.0000 -10721.3671 1410.0921 0.0000 0.0000 1744.8323 -7556.9345 294.0029 -9301.7668 -7590.7179 298.1353 -150.3454 -72.4902 30396.5024 104.3475 162.2733
ENERGY: 1500000 2.9472 8.6507 2.3043 0.0000 -10583.6804 1326.3602 0.0000 0.0000 1792.7625 -7450.6556 302.0791 -9243.4180 -7578.6548 298.3911 -798.0136 -788.2352 30924.4178 -8.5625 47.8921
TCL: Running FEP window  19: Lambda1 0.09999999999999969 Lambda2 0.049999999999999684 [dLambda -0.05 ]
TCL: Setting parameter firsttimestep to 0
TCL: Setting parameter alchLambda to 0.09999999999999969
Info: NONBONDED TABLE R-SQUARED SPACING: 0.0625
Info: NONBONDED TABLE SIZE: 705 POINTS
TCL: Setting parameter alchLambda2 to 0.049999999999999684
Info: NONBONDED TABLE R-SQUARED SPACING: 0.0625
Info: NONBONDED TABLE SIZE: 705 POINTS
TCL: Running for 1500000 steps
ETITLE: TS BOND ANGLE DIHED IMPRP ELECT VDW BOUNDARY MISC KINETIC TOTAL TEMP POTENTIAL TOTALAVG TEMPAVG PRESSURE GPRESSURE VOLUME PRESSAVG GPRESSAVG
ENERGY: 0 2.9472 8.6507 2.3043 0.0000 -10583.6819 1325.2596 0.0000 0.0000 1791.8963 -7452.6238 301.9331 -9244.5201 -7452.6238 301.9331 -861.8056 -794.1578 30924.4178 -861.8056 -794.1578
ENERGY: 300000 0.5235 7.0356 1.4293 0.0000 -10789.8861 1454.0713 0.0000 0.0000 1724.9303 -7601.8961 290.6494 -9326.8265 -7533.4884 299.4878 13.1233 133.1530 30440.8188 -189.0320 -119.3505
ENERGY: 600000 2.0726 7.6832 1.9451 0.0000 -10604.2187 1289.1832 0.0000 0.0000 1784.7695 -7518.5652 300.7322 -9303.3347 -7546.9694 299.8736 -1373.7173 -1299.7721 30970.4127 -263.8072 -186.7886
ENERGY: 900000 0.5232 8.9794 1.5498 0.0000 -10745.1357 1447.2659 0.0000 0.0000 1848.1559 -7438.6615 311.4128 -9286.8174 -7533.9636 301.8886 222.0280 237.1927 30567.1562 -177.9354 -104.6669
ENERGY: 1200000 1.3411 4.5679 1.0539 0.0000 -10760.9201 1476.5618 0.0000 0.0000 1800.2005 -7477.1949 303.3324 -9277.3954 -7524.8450 301.6094 396.9932 433.3919 30718.7229 -156.5205 -93.7408
ENERGY: 1500000 1.1015 4.6975 2.0380 0.0000 -10754.2361 1405.6806 0.0000 0.0000 1757.0929 -7583.6256 296.0688 -9340.7185 -7535.1952 301.0566 -64.7303 22.4427 29771.7725 -4.9234 57.7862
TCL: Running FEP window  20: Lambda1 0.049999999999999684 Lambda2 0.0    [dLambda -0.049999999999999684]
TCL: Setting parameter firsttimestep to 0
TCL: Setting parameter alchLambda to 0.049999999999999684
Info: NONBONDED TABLE R-SQUARED SPACING: 0.0625
Info: NONBONDED TABLE SIZE: 705 POINTS
TCL: Setting parameter alchLambda2 to 0.0
Info: NONBONDED TABLE R-SQUARED SPACING: 0.0625
Info: NONBONDED TABLE SIZE: 705 POINTS
TCL: Running for 1500000 steps
ETITLE: TS BOND ANGLE DIHED IMPRP ELECT VDW BOUNDARY MISC KINETIC TOTAL TEMP POTENTIAL TOTALAVG TEMPAVG PRESSURE GPRESSURE VOLUME PRESSAVG GPRESSAVG
ENERGY: 0 1.1015 4.6975 2.0380 0.0000 -10754.2361 1406.0383 0.0000 0.0000 1756.2071 -7584.1537 295.9195 -9340.3608 -7584.1537 295.9195 -62.2653 23.1842 29771.7725 -62.2653 23.1842
ENERGY: 300000 0.6745 5.9219 1.2237 0.0000 -10886.9269 1507.1014 0.0000 0.0000 1827.1645 -7544.8409 307.8758 -9372.0054 -7559.7947 305.6049 462.9980 551.0082 30371.0696 130.8656 200.5786
ENERGY: 600000 1.2005 4.5768 1.8380 0.0000 -10757.1280 1436.3396 0.0000 0.0000 1787.4662 -7525.7070 301.1866 -9313.1732 -7566.9235 303.9114 -335.6829 -281.1045 31148.0857 -71.9759 -12.2875
ENERGY: 900000 0.4434 6.9528 1.8920 0.0000 -10796.2814 1451.3429 0.0000 0.0000 1793.8076 -7541.8428 302.2552 -9335.6503 -7560.1755 302.8864 -182.9103 -150.3170 30707.2100 -28.9390 29.3080
ENERGY: 1200000 1.3086 4.7129 3.5872 0.0000 -10857.1480 1481.4253 0.0000 0.0000 1807.7985 -7558.3155 304.6126 -9366.1140 -7570.3595 302.5714 512.3699 570.5815 29809.9812 69.8461 128.8746
ENERGY: 1500000 0.9941 4.6303 2.1393 0.0000 -10777.1916 1353.2590 0.0000 0.0000 1758.1276 -7658.0413 296.2431 -9416.1689 -7576.5333 301.6472 -938.9671 -917.9373 30576.4494 6.6255 66.2406
TCL: Exiting due to exit command.
