Info: SIMULATION PARAMETERS:
Info: TIMESTEP               2
Info: NUMBER OF STEPS        0
Info: STEPS PER CYCLE        10
Info: PERIODIC CELL BASIS 1  31.6486 0 0
Info: PERIODIC CELL BASIS 2  0 29.9741 0
Info: PERIODIC CELL BASIS 3  0 0 31.5536
Info: PERIODIC CELL CENTER   0 0 0
Info: WRAPPING WATERS AROUND PERIODIC BOUNDARIES ON OUTPUT.
Info: WRAPPING ALL CLUSTERS AROUND PERIODIC BOUNDARIES ON OUTPUT.
Info: FIRST LDB TIMESTEP     50
Info: LAST LDB TIMESTEP     -1
Info: HOM BACKGROUND SCALING 1
Info: PME BACKGROUND SCALING 1
Info: MIN ATOMS PER PATCH    40
Info: EMPTY PATCH LOAD       40 ATOMS
Info: VELOCITY FILE          mobley_5063386_equil.vel
Info: CENTER OF MASS MOVING INITIALLY? NO
Info: DIELECTRIC             1
Info: EXCLUDE                SCALED ONE-FOUR
Info: 1-4 ELECTROSTATICS SCALED BY 0.833333
Info: MODIFIED 1-4 VDW PARAMETERS WILL BE USED
Info: DCD FILENAME           mobley_5063386_prod.dcd
Info: DCD FREQUENCY          100000
Info: DCD FIRST STEP         100000
Info: DCD FILE WILL CONTAIN UNIT CELL DATA
Info: XST FILENAME           mobley_5063386_prod.xst
Info: XST FREQUENCY          100000
Info: NO VELOCITY DCD OUTPUT
Info: NO FORCE DCD OUTPUT
Info: OUTPUT FILENAME        mobley_5063386_prod
Info: BINARY OUTPUT FILES WILL BE USED
Info: RESTART FILENAME       mobley_5063386_prod.restart
Info: RESTART FREQUENCY      100000
Info: BINARY RESTART FILES WILL BE USED
Info: CUTOFF                 9
Info: PAIRLIST DISTANCE      11
Info: PAIRLIST SHRINK RATE   0.01
Info: PAIRLIST GROW RATE     0.01
Info: PAIRLIST TRIGGER       0.3
Info: PAIRLISTS PER CYCLE    2
Info: PAIRLISTS ENABLED
Info: MARGIN                 2
Info: HYDROGEN GROUP CUTOFF  2.5
Info: PATCH DIMENSION        15.5
Info: ENERGY OUTPUT STEPS    100000
Info: ENERGY EVALUATION STEPS    100000
Info: OUTPUT ENERGY PRECISION 4
Info: CROSSTERM ENERGY INCLUDED IN DIHEDRAL
Info: TIMING OUTPUT STEPS    1000000
Info: PRESSURE OUTPUT STEPS  100000
Info: ALCHEMICAL FEP ON
Info: FEP CURRENT LAMBDA VALUE     1
Info: FEP COMPARISON LAMBDA VALUE  0.95
Info: FEP INTRA-ALCHEMICAL NON-BONDED INTERACTIONS WILL BE RETAINED
Info: FEP INTRA-ALCHEMICAL BONDED INTERACTIONS WILL BE RETAINED
Info: FEP VDW SHIFTING COEFFICIENT 5
Info: FEP ELEC. ACTIVE FOR ANNIHILATED PARTICLES BETWEEN LAMBDA = 0 AND LAMBDA = 0.5
Info: FEP ELEC. ACTIVE FOR EXNIHILATED PARTICLES BETWEEN LAMBDA = 0.5 AND LAMBDA = 1
Info: FEP VDW ACTIVE FOR ANNIHILATED PARTICLES BETWEEN LAMBDA = 0 AND LAMBDA = 1
Info: FEP VDW ACTIVE FOR EXNIHILATED PARTICLES BETWEEN LAMBDA = 0 AND LAMBDA = 1
Info: FEP BOND ACTIVE FOR ANNIHILATED PARTICLES BETWEEN LAMBDA = 1 AND LAMBDA = 1
Info: FEP BOND ACTIVE FOR EXNIHILATED PARTICLES BETWEEN LAMBDA = 0 AND LAMBDA = 0
Info: LANGEVIN DYNAMICS ACTIVE
Info: LANGEVIN TEMPERATURE   300
Info: LANGEVIN USING BBK INTEGRATOR
Info: LANGEVIN DAMPING COEFFICIENT IS 1 INVERSE PS
Info: LANGEVIN DYNAMICS APPLIED TO HYDROGENS
Info: LANGEVIN PISTON PRESSURE CONTROL ACTIVE
Info:        TARGET PRESSURE IS 1.01325 BAR
Info:     OSCILLATION PERIOD IS 50 FS
Info:             DECAY TIME IS 25 FS
Info:     PISTON TEMPERATURE IS 300 K
Info:       PRESSURE CONTROL IS GROUP-BASED
Info:    INITIAL STRAIN RATE IS -0.000306609 -0.000306609 -0.000306609
Info:       CELL FLUCTUATION IS ISOTROPIC
Info: PARTICLE MESH EWALD (PME) ACTIVE
Info: PME TOLERANCE               1e-06
Info: PME EWALD COEFFICIENT       0.348832
Info: PME INTERPOLATION ORDER     4
Info: PME GRID DIMENSIONS         32 32 32
Info: PME MAXIMUM GRID SPACING    1
Info: PME CALCULATION WILL BE PERFORMED ON GPU
Info: FULL ELECTROSTATIC EVALUATION FREQUENCY      2
Info: USING VERLET I (r-RESPA) MTS SCHEME.
Info: C1 SPLITTING OF LONG RANGE ELECTROSTATICS
Info: PLACING ATOMS IN PATCHES BY HYDROGEN GROUPS
Info: RIGID BONDS TO HYDROGEN : ALL
Info:         ERROR TOLERANCE : 1e-08
Info:          MAX ITERATIONS : 100
Info: RIGID WATER USING SETTLE ALGORITHM
Info: RANDOM NUMBER SEED     1743749885
Info: USE HYDROGEN BONDS?    NO
Info: Using AMBER format force field!
Info: AMBER PARM FILE        mobley_5063386.prmtop
Info: COORDINATE PDB         mobley_5063386.pdb
Info: Exclusions will be read from PARM file!
Info: SCNB (VDW SCALING)     2
Info: USING ARITHMETIC MEAN TO COMBINE L-J SIGMA PARAMETERS
Info: BINARY COORDINATES     mobley_5063386_equil.coor
Info: SUMMARY OF PARAMETERS:
Info: 8 BONDS
Info: 7 ANGLES
Info:   7 HARMONIC
Info:   0 COSINE-BASED
Info: 4 DIHEDRAL
Info: 0 IMPROPER
Info: 0 CROSSTERM
Info: 0 VDW
Info: 28 VDW_PAIRS
Info: 0 NBTHOLE_PAIRS
Info: To read alchdata from file: mobley_5063386.pdb
Info: To read alchflag data from column: 5
Info: STRUCTURE SUMMARY:
Info: 2919 ATOMS
Info: 2919 BONDS
Info: 22 ANGLES
Info: 36 DIHEDRALS
Info: 0 IMPROPERS
Info: 0 CROSSTERMS
Info: 2968 EXCLUSIONS
Info: 2909 RIGID BONDS
Info: ALCH: 0 ATOMS TO DISAPPEAR IN FINAL STATE
Info: ALCH: 15 ATOMS TO APPEAR IN FINAL STATE
Info: 5848 DEGREES OF FREEDOM
Info: 978 HYDROGEN GROUPS
Info: 3 ATOMS IN LARGEST HYDROGEN GROUP
Info: 978 MIGRATION GROUPS
Info: 3 ATOMS IN LARGEST MIGRATION GROUP
Info: TOTAL MASS = 17578.6 amu
Info: TOTAL CHARGE = -9.99495e-05 e
Info: MASS DENSITY = 0.975201 g/cm^3
Info: ATOM DENSITY = 0.097518 atoms/A^3
Info: ADDED 0 IMPLICIT EXCLUSIONS
Info: NONBONDED TABLE R-SQUARED SPACING: 0.0625
Info: NONBONDED TABLE SIZE: 705 POINTS
Info: REMOVING COM VELOCITY -0.00266326 -0.0489168 0.109105
Info: Use 3D box decompostion in PME FFT.
Info: Updated CUDA force table with 4096 elements.
Info: Updated CUDA LJ table with 7 x 7 elements.
Info: Found 17 unique exclusion lists needing 36 bytes
TCL: Running for 1500000 steps
ETITLE: TS BOND ANGLE DIHED IMPRP ELECT VDW BOUNDARY MISC KINETIC TOTAL TEMP POTENTIAL TOTALAVG TEMPAVG PRESSURE GPRESSURE VOLUME PRESSAVG GPRESSAVG
ENERGY: 0 3.8275 2.0176 5.4577 0.0000 -10712.4678 1466.2818 0.0000 0.0000 1745.0389 -7489.8443 300.3227 -9234.8833 -7489.8443 300.3227 142.1860 218.1332 29932.9406 142.1860 218.1332
ENERGY: 300000 4.8000 3.1841 1.1963 0.0000 -10707.7168 1456.6188 0.0000 0.0000 1705.3068 -7536.6108 293.4848 -9241.9176 -7439.4343 298.9933 298.7557 365.8203 29549.8247 -38.4638 -3.9909
ENERGY: 600000 2.0516 4.7251 4.2329 0.0000 -10604.4392 1423.6755 0.0000 0.0000 1772.6277 -7397.1264 305.0707 -9169.7541 -7412.1386 302.0892 -41.4799 51.0429 30328.6248 -75.4418 -17.7276
ENERGY: 900000 2.2433 2.8168 7.6232 0.0000 -10642.3324 1456.8975 0.0000 0.0000 1697.9085 -7474.8430 292.2115 -9172.7516 -7430.3391 300.5101 462.3576 496.4885 29861.3718 -44.5720 8.6179
ENERGY: 1200000 2.6355 4.2100 7.4744 0.0000 -10511.1114 1363.3478 0.0000 0.0000 1747.1936 -7386.2502 300.6935 -9133.4437 -7421.5166 300.3065 -359.7272 -379.6734 30462.1664 14.9629 65.8099
ENERGY: 1500000 5.3282 3.1048 6.8786 0.0000 -10651.3832 1434.0696 0.0000 0.0000 1777.7448 -7424.2573 305.9514 -9202.0020 -7424.1191 300.1237 -49.1213 10.1548 29891.0901 -36.3121 14.7154
TCL: Running FEP window   2: Lambda1 0.95   Lambda2 0.8999999999999999 [dLambda -0.050000000000000044]
TCL: Setting parameter firsttimestep to 0
TCL: Setting parameter alchLambda to 0.95
Info: NONBONDED TABLE R-SQUARED SPACING: 0.0625
Info: NONBONDED TABLE SIZE: 705 POINTS
TCL: Setting parameter alchLambda2 to 0.8999999999999999
Info: NONBONDED TABLE R-SQUARED SPACING: 0.0625
Info: NONBONDED TABLE SIZE: 705 POINTS
TCL: Running for 1500000 steps
ETITLE: TS BOND ANGLE DIHED IMPRP ELECT VDW BOUNDARY MISC KINETIC TOTAL TEMP POTENTIAL TOTALAVG TEMPAVG PRESSURE GPRESSURE VOLUME PRESSAVG GPRESSAVG
ENERGY: 0 5.3282 3.1048 6.8786 0.0000 -10649.1107 1433.1449 0.0000 0.0000 1776.8462 -7423.8080 305.7968 -9200.6543 -7423.8080 305.7968 -84.9339 -12.9520 29891.0901 -84.9339 -12.9520
ENERGY: 300000 5.2965 3.4739 4.9000 0.0000 -10442.0763 1312.9862 0.0000 0.0000 1741.9974 -7373.4223 299.7992 -9115.4197 -7418.1570 302.4093 -942.9966 -864.5681 30646.3561 -158.5484 -100.6772
ENERGY: 600000 5.0772 4.0731 13.3003 0.0000 -10647.2855 1451.4365 0.0000 0.0000 1744.2418 -7429.1566 300.1855 -9173.3984 -7411.6868 302.4572 336.3605 372.4319 29955.6804 -5.5134 43.2207
ENERGY: 900000 3.4579 6.5513 4.6090 0.0000 -10497.4654 1368.9710 0.0000 0.0000 1716.1747 -7397.7016 295.3551 -9113.8763 -7416.7225 300.7899 -408.8245 -378.4169 30158.7552 7.7298 58.1050
ENERGY: 1200000 3.4753 4.4808 4.8756 0.0000 -10670.5852 1424.1866 0.0000 0.0000 1685.7143 -7547.8525 290.1129 -9233.5668 -7431.6061 299.4068 -521.3531 -397.6992 30373.0214 -6.8240 44.9049
ENERGY: 1500000 1.3087 6.8435 4.5352 0.0000 -10514.0434 1390.3170 0.0000 0.0000 1758.2509 -7352.7883 302.5965 -9111.0391 -7426.5317 299.5735 -211.8383 -133.8309 30316.7263 1.0796 43.9706
TCL: Running FEP window   3: Lambda1 0.8999999999999999 Lambda2 0.8499999999999999 [dLambda -0.050000000000000044]
TCL: Setting parameter firsttimestep to 0
TCL: Setting parameter alchLambda to 0.8999999999999999
Info: NONBONDED TABLE R-SQUARED SPACING: 0.0625
Info: NONBONDED TABLE SIZE: 705 POINTS
TCL: Setting parameter alchLambda2 to 0.8499999999999999
Info: NONBONDED TABLE R-SQUARED SPACING: 0.0625
Info: NONBONDED TABLE SIZE: 705 POINTS
TCL: Running for 1500000 steps
ETITLE: TS BOND ANGLE DIHED IMPRP ELECT VDW BOUNDARY MISC KINETIC TOTAL TEMP POTENTIAL TOTALAVG TEMPAVG PRESSURE GPRESSURE VOLUME PRESSAVG GPRESSAVG
ENERGY: 0 1.3087 6.8435 4.5352 0.0000 -10511.7246 1389.5206 0.0000 0.0000 1757.3641 -7352.1526 302.4439 -9109.5167 -7352.1526 302.4439 -243.5300 -149.3175 30316.7263 -243.5300 -149.3175
ENERGY: 300000 2.9379 3.0761 6.7165 0.0000 -10410.2398 1300.6175 0.0000 0.0000 1748.7145 -7348.1773 300.9553 -9096.8918 -7403.8359 297.6537 -1007.4313 -955.8779 30528.6313 -539.9115 -459.1299
ENERGY: 600000 3.1811 7.3023 2.9355 0.0000 -10513.5576 1321.8051 0.0000 0.0000 1720.3334 -7458.0004 296.0708 -9178.3337 -7425.8885 297.6636 -895.3536 -780.9974 30007.0153 -116.0450 -25.7985
ENERGY: 900000 1.3827 3.9214 6.4669 0.0000 -10613.8812 1407.7804 0.0000 0.0000 1719.7304 -7474.5995 295.9671 -9194.3299 -7421.8633 297.3101 -289.5511 -236.6850 30368.9391 -138.0377 -54.7623
ENERGY: 1200000 4.7937 2.6167 9.3943 0.0000 -10442.7429 1341.2712 0.0000 0.0000 1715.2206 -7369.4463 295.1909 -9084.6669 -7414.5944 298.3978 -547.8398 -465.4255 30077.5230 -38.4890 47.8761
ENERGY: 1500000 5.0183 2.4613 4.9385 0.0000 -10471.4308 1246.4284 0.0000 0.0000 1739.7113 -7472.8729 299.4058 -9212.5842 -7416.5235 299.0146 -1601.1847 -1446.5040 30082.9925 -171.4504 -89.8321
TCL: Running FEP window   4: Lambda1 0.8499999999999999 Lambda2 0.7999999999999998 [dLambda -0.050000000000000044]
TCL: Setting parameter firsttimestep to 0
TCL: Setting parameter alchLambda to 0.8499999999999999
Info: NONBONDED TABLE R-SQUARED SPACING: 0.0625
Info: NONBONDED TABLE SIZE: 705 POINTS
TCL: Setting parameter alchLambda2 to 0.7999999999999998
Info: NONBONDED TABLE R-SQUARED SPACING: 0.0625
Info: NONBONDED TABLE SIZE: 705 POINTS
TCL: Running for 1500000 steps
ETITLE: TS BOND ANGLE DIHED IMPRP ELECT VDW BOUNDARY MISC KINETIC TOTAL TEMP POTENTIAL TOTALAVG TEMPAVG PRESSURE GPRESSURE VOLUME PRESSAVG GPRESSAVG
ENERGY: 0 5.0183 2.4613 4.9385 0.0000 -10470.9114 1246.1569 0.0000 0.0000 1738.8145 -7473.5219 299.2515 -9212.3364 -7473.5219 299.2515 -1544.6780 -1460.1466 30082.9925 -1544.6780 -1460.1466
ENERGY: 300000 2.8191 2.6097 4.3532 0.0000 -10590.7756 1435.1256 0.0000 0.0000 1766.7098 -7379.1582 304.0523 -9145.8680 -7442.0768 301.3604 394.7234 420.7547 29812.6001 -602.8141 -549.8620
ENERGY: 600000 3.6882 4.9232 9.3629 0.0000 -10660.9279 1449.7024 0.0000 0.0000 1733.2373 -7460.0139 298.2916 -9193.2512 -7428.4157 300.6875 -55.0063 8.8498 29927.9454 -427.1250 -359.9881
ENERGY: 900000 3.2248 2.2753 4.0948 0.0000 -10750.9789 1544.7070 0.0000 0.0000 1777.2365 -7419.4404 305.8639 -9196.6770 -7421.0115 301.7426 1170.8542 1189.6112 29892.4456 -113.7602 -58.6228
ENERGY: 1200000 2.3319 3.2919 4.4474 0.0000 -10636.9648 1450.3261 0.0000 0.0000 1736.8281 -7439.7393 298.9096 -9176.5675 -7415.9166 300.8268 151.1563 205.4270 29885.5891 -46.5954 11.8920
ENERGY: 1500000 1.7361 3.3937 3.5120 0.0000 -10692.5185 1452.8508 0.0000 0.0000 1762.3520 -7468.6740 303.3023 -9231.0259 -7424.7344 300.9025 279.6111 292.6216 29687.9981 9.4879 65.9606
TCL: Running FEP window   5: Lambda1 0.7999999999999998 Lambda2 0.7499999999999998 [dLambda -0.050000000000000044]
TCL: Setting parameter firsttimestep to 0
TCL: Setting parameter alchLambda to 0.7999999999999998
Info: NONBONDED TABLE R-SQUARED SPACING: 0.0625
Info: NONBONDED TABLE SIZE: 705 POINTS
TCL: Setting parameter alchLambda2 to 0.7499999999999998
Info: NONBONDED TABLE R-SQUARED SPACING: 0.0625
Info: NONBONDED TABLE SIZE: 705 POINTS
TCL: Running for 1500000 steps
ETITLE: TS BOND ANGLE DIHED IMPRP ELECT VDW BOUNDARY MISC KINETIC TOTAL TEMP POTENTIAL TOTALAVG TEMPAVG PRESSURE GPRESSURE VOLUME PRESSAVG GPRESSAVG
ENERGY: 0 1.7361 3.3937 3.5120 0.0000 -10691.4637 1452.6806 0.0000 0.0000 1761.4978 -7468.6435 303.1553 -9230.1412 -7468.6435 303.1553 194.9792 278.9328 29687.9981 194.9792 278.9328
ENERGY: 300000 2.4448 2.9160 8.8517 0.0000 -10487.1163 1311.5195 0.0000 0.0000 1734.1212 -7427.2631 298.4437 -9161.3843 -7411.3426 302.5608 -852.8198 -798.7030 30293.0654 -298.0237 -232.2763
ENERGY: 600000 2.6358 3.2109 6.5894 0.0000 -10524.4506 1374.7501 0.0000 0.0000 1723.8656 -7413.3987 296.6787 -9137.2643 -7418.1971 301.8626 -272.8906 -245.3666 29710.0973 -167.6727 -106.4214
ENERGY: 900000 2.7605 2.8246 6.2857 0.0000 -10516.5106 1400.4397 0.0000 0.0000 1739.3485 -7364.8516 299.3434 -9104.2001 -7411.6864 300.6820 -499.2199 -402.0426 30649.2930 -215.7526 -156.2746
ENERGY: 1200000 7.4800 5.9161 4.2799 0.0000 -10519.6624 1343.7881 0.0000 0.0000 1759.0521 -7399.1463 302.7344 -9158.1984 -7409.7283 300.3833 -577.2591 -439.3185 29945.2253 -152.9869 -87.6133
ENERGY: 1500000 3.6736 5.0041 3.8357 0.0000 -10584.5794 1420.2425 0.0000 0.0000 1724.1075 -7427.7160 296.7204 -9151.8236 -7412.2423 300.4753 170.1614 205.8590 29715.7098 -116.7978 -62.6553
TCL: Running FEP window   6: Lambda1 0.7499999999999998 Lambda2 0.6999999999999997 [dLambda -0.050000000000000044]
TCL: Setting parameter firsttimestep to 0
TCL: Setting parameter alchLambda to 0.7499999999999998
Info: NONBONDED TABLE R-SQUARED SPACING: 0.0625
Info: NONBONDED TABLE SIZE: 705 POINTS
TCL: Setting parameter alchLambda2 to 0.6999999999999997
Info: NONBONDED TABLE R-SQUARED SPACING: 0.0625
Info: NONBONDED TABLE SIZE: 705 POINTS
TCL: Running for 1500000 steps
ETITLE: TS BOND ANGLE DIHED IMPRP ELECT VDW BOUNDARY MISC KINETIC TOTAL TEMP POTENTIAL TOTALAVG TEMPAVG PRESSURE GPRESSURE VOLUME PRESSAVG GPRESSAVG
ENERGY: 0 3.6736 5.0041 3.8357 0.0000 -10584.4407 1420.3022 0.0000 0.0000 1723.2050 -7428.4202 296.5650 -9151.6252 -7428.4202 296.5650 98.8479 193.4814 29715.7098 98.8479 193.4814
ENERGY: 300000 1.8459 6.4228 2.8423 0.0000 -10556.7942 1417.0341 0.0000 0.0000 1681.9405 -7446.7086 289.4634 -9128.6492 -7444.6812 296.4603 -98.0175 6.0496 30154.9531 -196.7612 -111.1662
ENERGY: 600000 2.9654 4.6019 5.5477 0.0000 -10476.8109 1325.2877 0.0000 0.0000 1754.1542 -7384.2539 301.8914 -9138.4081 -7432.5761 298.4468 -500.9306 -441.3080 29879.6498 -227.3013 -141.6319
ENERGY: 900000 1.6283 2.4605 4.6562 0.0000 -10604.7225 1404.3670 0.0000 0.0000 1779.3195 -7412.2909 306.2224 -9191.6104 -7437.7065 298.0790 -176.3844 -84.8637 29898.2859 -262.2184 -175.8199
ENERGY: 1200000 3.8129 4.9525 4.6451 0.0000 -10600.7410 1417.3467 0.0000 0.0000 1721.2434 -7448.7404 296.2275 -9169.9838 -7436.9380 298.5740 -58.2178 30.5587 29946.6137 -125.7374 -37.3431
ENERGY: 1500000 2.7437 4.2346 8.0916 0.0000 -10532.1621 1389.7706 0.0000 0.0000 1716.7991 -7410.5224 295.4626 -9127.3216 -7430.5877 298.2089 -488.8474 -465.3973 30377.7412 -180.6623 -97.6714
TCL: Running FEP window   7: Lambda1 0.6999999999999997 Lambda2 0.6499999999999997 [dLambda -0.050000000000000044]
TCL: Setting parameter firsttimestep to 0
TCL: Setting parameter alchLambda to 0.6999999999999997
Info: NONBONDED TABLE R-SQUARED SPACING: 0.0625
Info: NONBONDED TABLE SIZE: 705 POINTS
TCL: Setting parameter alchLambda2 to 0.6499999999999997
Info: NONBONDED TABLE R-SQUARED SPACING: 0.0625
Info: NONBONDED TABLE SIZE: 705 POINTS
TCL: Running for 1500000 steps
ETITLE: TS BOND ANGLE DIHED IMPRP ELECT VDW BOUNDARY MISC KINETIC TOTAL TEMP POTENTIAL TOTALAVG TEMPAVG PRESSURE GPRESSURE VOLUME PRESSAVG GPRESSAVG
ENERGY: 0 2.7437 4.2346 8.0916 0.0000 -10531.5690 1390.1505 0.0000 0.0000 1715.9466 -7410.4019 295.3159 -9126.3485 -7410.4019 295.3159 -556.6625 -468.6305 30377.7412 -556.6625 -468.6305
ENERGY: 300000 2.1268 6.9606 1.7027 0.0000 -10499.9470 1380.2868 0.0000 0.0000 1765.8586 -7343.0115 303.9058 -9108.8701 -7385.5780 304.3289 -497.8703 -364.1761 30537.3229 -216.0481 -141.7326
ENERGY: 600000 3.8025 3.2718 2.7241 0.0000 -10685.8126 1597.6003 0.0000 0.0000 1708.4849 -7369.9290 294.0317 -9078.4139 -7390.0132 301.5774 1641.6887 1662.6812 29993.2002 92.8621 147.8106
ENERGY: 900000 2.2871 5.0224 6.8699 0.0000 -10576.0267 1429.3355 0.0000 0.0000 1754.5850 -7377.9267 301.9656 -9132.5117 -7398.5181 301.0748 -7.2840 100.8478 30147.6045 46.9634 120.8525
ENERGY: 1200000 5.5784 5.4670 8.7596 0.0000 -10507.5940 1385.7454 0.0000 0.0000 1758.2453 -7343.7982 302.5955 -9102.0435 -7396.3869 300.3237 0.3401 13.2159 29796.5386 -26.1753 37.8240
ENERGY: 1500000 5.5280 5.9429 2.8568 0.0000 -10552.1270 1427.0440 0.0000 0.0000 1784.3671 -7326.3882 307.0911 -9110.7553 -7394.1714 301.0662 292.0352 308.6693 30051.0202 -134.8635 -71.1347
TCL: Running FEP window   8: Lambda1 0.6499999999999997 Lambda2 0.5999999999999996 [dLambda -0.050000000000000044]
TCL: Setting parameter firsttimestep to 0
TCL: Setting parameter alchLambda to 0.6499999999999997
Info: NONBONDED TABLE R-SQUARED SPACING: 0.0625
Info: NONBONDED TABLE SIZE: 705 POINTS
TCL: Setting parameter alchLambda2 to 0.5999999999999996
Info: NONBONDED TABLE R-SQUARED SPACING: 0.0625
Info: NONBONDED TABLE SIZE: 705 POINTS
TCL: Running for 1500000 steps
ETITLE: TS BOND ANGLE DIHED IMPRP ELECT VDW BOUNDARY MISC KINETIC TOTAL TEMP POTENTIAL TOTALAVG TEMPAVG PRESSURE GPRESSURE VOLUME PRESSAVG GPRESSAVG
ENERGY: 0 5.5280 5.9429 2.8568 0.0000 -10552.0709 1427.4946 0.0000 0.0000 1783.4396 -7326.8092 306.9315 -9110.2487 -7326.8092 306.9315 240.5695 306.5373 30051.0202 240.5695 306.5373
ENERGY: 300000 0.5551 5.0442 5.0309 0.0000 -10564.3996 1461.3190 0.0000 0.0000 1685.8237 -7406.6267 290.1317 -9092.4504 -7389.0122 302.2057 84.5442 135.8913 30920.3647 -418.6591 -345.7341
ENERGY: 600000 2.7904 4.0986 1.8513 0.0000 -10569.1185 1363.9511 0.0000 0.0000 1766.5258 -7429.9013 304.0206 -9196.4271 -7376.0135 302.9116 -648.5619 -653.3258 30497.0124 -293.2121 -235.1537
ENERGY: 900000 6.0865 3.4377 5.3541 0.0000 -10588.0925 1397.7025 0.0000 0.0000 1744.7400 -7430.7716 300.2712 -9175.5116 -7387.4454 302.8199 -451.0904 -390.7594 30000.4180 -270.0071 -211.0253
ENERGY: 1200000 2.4694 5.3800 2.7273 0.0000 -10611.2120 1497.6850 0.0000 0.0000 1722.8450 -7380.1053 296.5031 -9102.9503 -7389.4259 302.1027 923.7816 932.5720 29885.4391 -128.0562 -70.1542
ENERGY: 1500000 2.7721 4.4797 3.5898 0.0000 -10819.1536 1512.8916 0.0000 0.0000 1739.1840 -7556.2365 299.3150 -9295.4205 -7396.6882 302.1006 114.6178 193.6294 30088.6068 -82.7437 -28.1138
TCL: Running FEP window   9: Lambda1 0.5999999999999996 Lambda2 0.5499999999999996 [dLambda -0.050000000000000044]
TCL: Setting parameter firsttimestep to 0
TCL: Setting parameter alchLambda to 0.5999999999999996
Info: NONBONDED TABLE R-SQUARED SPACING: 0.0625
Info: NONBONDED TABLE SIZE: 705 POINTS
TCL: Setting parameter alchLambda2 to 0.5499999999999996
Info: NONBONDED TABLE R-SQUARED SPACING: 0.0625
Info: NONBONDED TABLE SIZE: 705 POINTS
TCL: Running for 1500000 steps
ETITLE: TS BOND ANGLE DIHED IMPRP ELECT VDW BOUNDARY MISC KINETIC TOTAL TEMP POTENTIAL TOTALAVG TEMPAVG PRESSURE GPRESSURE VOLUME PRESSAVG GPRESSAVG
ENERGY: 0 2.7721 4.4797 3.5898 0.0000 -10819.0522 1513.0490 0.0000 0.0000 1738.2823 -7556.8793 299.1599 -9295.1616 -7556.8793 299.1599 110.5984 185.3442 30088.6068 110.5984 185.3442
ENERGY: 300000 3.9477 4.9848 3.6510 0.0000 -10568.2438 1443.3001 0.0000 0.0000 1768.5583 -7343.8019 304.3704 -9112.3603 -7414.8075 303.4559 244.2372 299.3324 30158.0377 -145.9014 -90.1530
ENERGY: 600000 2.2233 2.3170 7.5886 0.0000 -10475.1955 1363.2730 0.0000 0.0000 1771.7455 -7328.0481 304.9189 -9099.7936 -7403.9688 302.5136 -203.0384 -139.5377 29751.5377 -159.0385 -99.1053
ENERGY: 900000 3.4507 5.2411 6.3984 0.0000 -10544.3586 1460.3213 0.0000 0.0000 1785.3722 -7283.5750 307.2641 -9068.9471 -7375.8784 302.8837 481.9712 542.8420 30082.3268 -107.1617 -43.0909
ENERGY: 1200000 4.8118 2.3403 3.5186 0.0000 -10575.0262 1425.6412 0.0000 0.0000 1768.3803 -7370.3341 304.3398 -9138.7144 -7372.2645 302.6340 -116.6405 -16.6212 30133.7667 -61.4790 3.0089
ENERGY: 1500000 3.7444 4.7990 3.4208 0.0000 -10544.2472 1393.6019 0.0000 0.0000 1671.8654 -7466.8157 287.7295 -9138.6811 -7377.5634 300.9798 -221.0996 -125.2458 29920.2085 -107.4375 -36.7746
TCL: Running FEP window  10: Lambda1 0.5499999999999996 Lambda2 0.4999999999999996 [dLambda -0.04999999999999999]
TCL: Setting parameter firsttimestep to 0
TCL: Setting parameter alchLambda to 0.5499999999999996
Info: NONBONDED TABLE R-SQUARED SPACING: 0.0625
Info: NONBONDED TABLE SIZE: 705 POINTS
TCL: Setting parameter alchLambda2 to 0.4999999999999996
Info: NONBONDED TABLE R-SQUARED SPACING: 0.0625
Info: NONBONDED TABLE SIZE: 705 POINTS
TCL: Running for 1500000 steps
ETITLE: TS BOND ANGLE DIHED IMPRP ELECT VDW BOUNDARY MISC KINETIC TOTAL TEMP POTENTIAL TOTALAVG TEMPAVG PRESSURE GPRESSURE VOLUME PRESSAVG GPRESSAVG
ENERGY: 0 3.7444 4.7990 3.4208 0.0000 -10544.1842 1394.0302 0.0000 0.0000 1670.9821 -7467.2077 287.5775 -9138.1898 -7467.2077 287.5775 -211.7858 -133.3493 29920.2085 -211.7858 -133.3493
ENERGY: 300000 7.6432 2.1613 4.9947 0.0000 -10599.6503 1429.4671 0.0000 0.0000 1717.8387 -7437.5453 295.6415 -9155.3840 -7397.4290 295.6333 181.1810 176.5310 29988.0884 -205.5582 -191.4611
ENERGY: 600000 2.0492 4.0960 7.5259 0.0000 -10594.0619 1394.3698 0.0000 0.0000 1768.4113 -7417.6097 304.3451 -9186.0210 -7399.4793 295.8138 -126.3265 -82.9026 30100.1288 -25.1002 -3.6688
ENERGY: 900000 4.4256 3.7264 6.4807 0.0000 -10474.5210 1344.9638 0.0000 0.0000 1747.8456 -7367.0788 300.8057 -9114.9244 -7408.6830 297.6122 -695.8760 -646.5994 30493.7431 -103.0374 -69.9818
ENERGY: 1200000 6.8220 3.0297 3.0054 0.0000 -10449.1052 1396.6884 0.0000 0.0000 1724.5463 -7315.0135 296.7959 -9039.5598 -7408.5424 297.7009 34.0425 54.8237 30149.1726 -107.3454 -72.2318
ENERGY: 1500000 3.5942 3.0154 3.7447 0.0000 -10657.7119 1451.3782 0.0000 0.0000 1731.6987 -7464.2807 298.0268 -9195.9794 -7420.8136 297.8555 -187.1777 -55.2749 30293.1654 -161.7719 -117.5109
TCL: Running FEP window  11: Lambda1 0.4999999999999996 Lambda2 0.4499999999999996 [dLambda -0.04999999999999999]
TCL: Setting parameter firsttimestep to 0
TCL: Setting parameter alchLambda to 0.4999999999999996
Info: NONBONDED TABLE R-SQUARED SPACING: 0.0625
Info: NONBONDED TABLE SIZE: 705 POINTS
TCL: Setting parameter alchLambda2 to 0.4499999999999996
Info: NONBONDED TABLE R-SQUARED SPACING: 0.0625
Info: NONBONDED TABLE SIZE: 705 POINTS
TCL: Running for 1500000 steps
ETITLE: TS BOND ANGLE DIHED IMPRP ELECT VDW BOUNDARY MISC KINETIC TOTAL TEMP POTENTIAL TOTALAVG TEMPAVG PRESSURE GPRESSURE VOLUME PRESSAVG GPRESSAVG
ENERGY: 0 3.5942 3.0154 3.7447 0.0000 -10657.1019 1451.8769 0.0000 0.0000 1730.8002 -7464.0705 297.8722 -9194.8708 -7464.0705 297.8722 -145.8375 -56.8986 30293.1654 -145.8375 -56.8986
ENERGY: 300000 4.9780 3.7042 4.1484 0.0000 -10541.6911 1430.3107 0.0000 0.0000 1753.0624 -7345.4874 301.7035 -9098.5498 -7430.1109 298.8216 -101.8005 -56.2156 30116.6249 -429.7319 -363.6043
ENERGY: 600000 2.9311 5.2045 4.6837 0.0000 -10662.6731 1450.3083 0.0000 0.0000 1793.4397 -7406.1058 308.6525 -9199.5455 -7414.4102 301.0335 -42.6242 28.5588 29973.6961 -167.4878 -102.0209
ENERGY: 900000 2.7341 3.3436 4.0969 0.0000 -10609.5617 1440.3163 0.0000 0.0000 1753.4460 -7405.6248 301.7696 -9159.0708 -7417.3981 300.3632 354.6770 388.9614 29609.4248 -40.7015 39.2654
ENERGY: 1200000 3.6744 4.1114 3.2569 0.0000 -10485.9587 1292.7952 0.0000 0.0000 1721.0367 -7461.0841 296.1919 -9182.1208 -7411.4509 299.7990 -1272.7311 -1269.2838 30472.5329 -163.4507 -95.2212
ENERGY: 1500000 3.9922 4.9155 3.8522 0.0000 -10506.9507 1370.8853 0.0000 0.0000 1747.5505 -7375.7550 300.7549 -9123.3055 -7410.8748 300.4626 -222.0946 -150.1112 29809.9620 -165.0727 -100.3587
TCL: Running FEP window  12: Lambda1 0.4499999999999996 Lambda2 0.39999999999999963 [dLambda -0.04999999999999999]
TCL: Setting parameter firsttimestep to 0
TCL: Setting parameter alchLambda to 0.4499999999999996
Info: NONBONDED TABLE R-SQUARED SPACING: 0.0625
Info: NONBONDED TABLE SIZE: 705 POINTS
TCL: Setting parameter alchLambda2 to 0.39999999999999963
Info: NONBONDED TABLE R-SQUARED SPACING: 0.0625
Info: NONBONDED TABLE SIZE: 705 POINTS
TCL: Running for 1500000 steps
ETITLE: TS BOND ANGLE DIHED IMPRP ELECT VDW BOUNDARY MISC KINETIC TOTAL TEMP POTENTIAL TOTALAVG TEMPAVG PRESSURE GPRESSURE VOLUME PRESSAVG GPRESSAVG
ENERGY: 0 3.9922 4.9155 3.8522 0.0000 -10506.9512 1370.7134 0.0000 0.0000 1746.6960 -7376.7818 300.6079 -9123.4778 -7376.7818 300.6079 -254.9919 -162.0029 29809.9620 -254.9919 -162.0029
ENERGY: 300000 2.3054 5.0700 4.4145 0.0000 -10564.0960 1451.8385 0.0000 0.0000 1816.3009 -7284.1667 312.5869 -9100.4676 -7345.5288 307.1648 448.7844 518.9726 30033.7326 348.3021 400.8623
ENERGY: 600000 2.2848 4.9668 7.5285 0.0000 -10687.9281 1504.6861 0.0000 0.0000 1756.9172 -7411.5447 302.3670 -9168.4620 -7355.0127 305.9595 480.9645 587.8229 30148.9473 328.2877 383.5152
ENERGY: 900000 6.0218 4.8090 3.6434 0.0000 -10549.6773 1337.3993 0.0000 0.0000 1768.7114 -7429.0924 304.3967 -9197.8038 -7384.1637 303.6971 -807.8436 -786.1767 30057.3380 19.3332 71.2939
ENERGY: 1200000 5.8617 2.8383 2.6309 0.0000 -10451.7271 1360.9856 0.0000 0.0000 1697.7745 -7381.6361 292.1884 -9079.4105 -7402.7832 301.0835 -432.4788 -396.4432 30287.4386 76.2258 126.4755
ENERGY: 1500000 2.8635 2.6788 6.8489 0.0000 -10377.0645 1386.1872 0.0000 0.0000 1744.7393 -7233.7468 300.2711 -8978.4860 -7393.4304 301.4885 -175.6571 -156.9203 30689.1471 87.2860 134.9836
TCL: Running FEP window  13: Lambda1 0.39999999999999963 Lambda2 0.34999999999999964 [dLambda -0.04999999999999999]
TCL: Setting parameter firsttimestep to 0
TCL: Setting parameter alchLambda to 0.39999999999999963
Info: NONBONDED TABLE R-SQUARED SPACING: 0.0625
Info: NONBONDED TABLE SIZE: 705 POINTS
TCL: Setting parameter alchLambda2 to 0.34999999999999964
Info: NONBONDED TABLE R-SQUARED SPACING: 0.0625
Info: NONBONDED TABLE SIZE: 705 POINTS
TCL: Running for 1500000 steps
ETITLE: TS BOND ANGLE DIHED IMPRP ELECT VDW BOUNDARY MISC KINETIC TOTAL TEMP POTENTIAL TOTALAVG TEMPAVG PRESSURE GPRESSURE VOLUME PRESSAVG GPRESSAVG
ENERGY: 0 2.8635 2.6788 6.8489 0.0000 -10377.0656 1386.8241 0.0000 0.0000 1743.9029 -7233.9474 300.1272 -8977.8503 -7233.9474 300.1272 -240.1305 -156.1744 30689.1471 -240.1305 -156.1744
ENERGY: 300000 3.1402 4.8642 7.6202 0.0000 -10533.3473 1380.7468 0.0000 0.0000 1753.7672 -7383.2086 301.8248 -9136.9758 -7336.2877 302.3207 -114.9923 -91.0283 29847.1711 12.6638 53.3577
ENERGY: 600000 2.5748 5.1155 5.7682 0.0000 -10649.1906 1468.7631 0.0000 0.0000 1740.1559 -7426.8131 299.4823 -9166.9691 -7369.9931 300.3787 144.4649 237.2362 29907.4039 -87.1796 -40.6835
ENERGY: 900000 5.7431 4.7109 7.7684 0.0000 -10528.9443 1346.0468 0.0000 0.0000 1737.0426 -7427.6324 298.9465 -9164.6751 -7373.4518 300.5988 -1027.9352 -952.7695 30424.1797 -197.5332 -141.7466
ENERGY: 1200000 3.4793 2.7225 3.3427 0.0000 -10523.6397 1418.9396 0.0000 0.0000 1750.6857 -7344.4700 301.2945 -9095.1556 -7379.5807 300.9058 -141.4094 -46.5112 30337.1355 -126.8499 -67.3047
ENERGY: 1500000 2.1604 2.5779 10.7936 0.0000 -10600.4859 1447.4501 0.0000 0.0000 1775.7168 -7361.7870 305.6024 -9137.5038 -7380.0455 300.3985 198.7479 244.2708 30055.7471 -128.5845 -73.5289
TCL: Running FEP window  14: Lambda1 0.34999999999999964 Lambda2 0.29999999999999966 [dLambda -0.04999999999999999]
TCL: Setting parameter firsttimestep to 0
TCL: Setting parameter alchLambda to 0.34999999999999964
Info: NONBONDED TABLE R-SQUARED SPACING: 0.0625
Info: NONBONDED TABLE SIZE: 705 POINTS
TCL: Setting parameter alchLambda2 to 0.29999999999999966
Info: NONBONDED TABLE R-SQUARED SPACING: 0.0625
Info: NONBONDED TABLE SIZE: 705 POINTS
TCL: Running for 1500000 steps
ETITLE: TS BOND ANGLE DIHED IMPRP ELECT VDW BOUNDARY MISC KINETIC TOTAL TEMP POTENTIAL TOTALAVG TEMPAVG PRESSURE GPRESSURE VOLUME PRESSAVG GPRESSAVG
ENERGY: 0 2.1604 2.5779 10.7936 0.0000 -10600.4866 1447.0676 0.0000 0.0000 1774.8352 -7363.0517 305.4507 -9137.8869 -7363.0517 305.4507 154.3050 239.8639 30055.7471 154.3050 239.8639
ENERGY: 300000 1.2142 3.4266 6.6400 0.0000 -10576.7642 1412.3352 0.0000 0.0000 1787.8803 -7365.2679 307.6957 -9153.1482 -7415.8047 299.4563 -77.4978 -16.1418 30115.7054 -133.5105 -72.1954
ENERGY: 600000 0.9007 2.7253 2.4376 0.0000 -10692.9501 1530.1808 0.0000 0.0000 1754.9200 -7401.7856 302.0232 -9156.7057 -7410.9296 300.7426 1205.0928 1248.0053 29507.8695 80.0510 136.2056
ENERGY: 900000 3.9421 4.2124 5.2769 0.0000 -10580.4805 1352.5128 0.0000 0.0000 1760.7304 -7453.8059 303.0232 -9214.5363 -7404.3685 301.2610 -744.4163 -637.8111 29835.4681 34.2084 87.6391
ENERGY: 1200000 1.1169 6.2613 5.8694 0.0000 -10500.6141 1358.3304 0.0000 0.0000 1757.8486 -7371.1875 302.5272 -9129.0361 -7387.5243 301.8745 -268.7036 -192.4539 29614.9791 64.8705 116.0209
ENERGY: 1500000 2.8971 4.0399 5.2738 0.0000 -10552.7654 1457.5796 0.0000 0.0000 1754.2418 -7328.7332 301.9065 -9082.9750 -7390.2224 301.0915 259.8620 283.6370 30326.0563 50.0500 109.1371
TCL: Running FEP window  15: Lambda1 0.29999999999999966 Lambda2 0.24999999999999967 [dLambda -0.04999999999999999]
TCL: Setting parameter firsttimestep to 0
TCL: Setting parameter alchLambda to 0.29999999999999966
Info: NONBONDED TABLE R-SQUARED SPACING: 0.0625
Info: NONBONDED TABLE SIZE: 705 POINTS
TCL: Setting parameter alchLambda2 to 0.24999999999999967
Info: NONBONDED TABLE R-SQUARED SPACING: 0.0625
Info: NONBONDED TABLE SIZE: 705 POINTS
TCL: Running for 1500000 steps
ETITLE: TS BOND ANGLE DIHED IMPRP ELECT VDW BOUNDARY MISC KINETIC TOTAL TEMP POTENTIAL TOTALAVG TEMPAVG PRESSURE GPRESSURE VOLUME PRESSAVG GPRESSAVG
ENERGY: 0 2.8971 4.0399 5.2738 0.0000 -10552.7652 1457.6765 0.0000 0.0000 1753.3868 -7329.4910 301.7594 -9082.8778 -7329.4910 301.7594 204.0491 277.8935 30326.0563 204.0491 277.8935
ENERGY: 300000 4.5094 5.8525 3.0854 0.0000 -10766.2734 1530.4910 0.0000 0.0000 1739.4484 -7482.8867 299.3606 -9222.3350 -7423.7809 301.2985 955.9101 1062.2484 29094.2792 -0.1397 69.4036
ENERGY: 600000 4.9802 6.8770 2.2214 0.0000 -10717.2828 1520.5382 0.0000 0.0000 1767.4572 -7415.2088 304.1809 -9182.6660 -7431.1825 299.7565 916.5696 916.5965 29394.9824 -70.3289 -25.6702
ENERGY: 900000 1.3914 2.4723 5.5569 0.0000 -10640.5532 1416.4222 0.0000 0.0000 1731.0938 -7483.6165 297.9227 -9214.7103 -7435.2545 299.7655 -256.5694 -174.2747 29804.9717 -118.6654 -62.8949
ENERGY: 1200000 3.0230 6.9354 4.2559 0.0000 -10495.4888 1338.8363 0.0000 0.0000 1706.1218 -7436.3163 293.6250 -9142.4382 -7419.2422 300.6234 -865.5913 -819.2931 30245.2518 -122.9098 -62.8673
ENERGY: 1500000 1.9688 4.1934 3.7550 0.0000 -10506.5883 1345.1025 0.0000 0.0000 1769.2959 -7382.2727 304.4973 -9151.5686 -7414.1301 300.6363 -483.9640 -457.6271 29975.5731 -29.9455 25.9563
TCL: Running FEP window  16: Lambda1 0.24999999999999967 Lambda2 0.19999999999999968 [dLambda -0.04999999999999999]
TCL: Setting parameter firsttimestep to 0
TCL: Setting parameter alchLambda to 0.24999999999999967
Info: NONBONDED TABLE R-SQUARED SPACING: 0.0625
Info: NONBONDED TABLE SIZE: 705 POINTS
TCL: Setting parameter alchLambda2 to 0.19999999999999968
Info: NONBONDED TABLE R-SQUARED SPACING: 0.0625
Info: NONBONDED TABLE SIZE: 705 POINTS
TCL: Running for 1500000 steps
ETITLE: TS BOND ANGLE DIHED IMPRP ELECT VDW BOUNDARY MISC KINETIC TOTAL TEMP POTENTIAL TOTALAVG TEMPAVG PRESSURE GPRESSURE VOLUME PRESSAVG GPRESSAVG
ENERGY: 0 1.9688 4.1934 3.7550 0.0000 -10506.5887 1345.4461 0.0000 0.0000 1768.3853 -7382.8402 304.3406 -9151.2255 -7382.8402 304.3406 -545.5884 -460.4581 29975.5731 -545.5884 -460.4581
ENERGY: 300000 5.9969 4.3460 3.2786 0.0000 -10614.0506 1440.7932 0.0000 0.0000 1772.2850 -7387.3509 305.0118 -9159.6359 -7361.3882 304.8055 -245.0506 -222.8329 30313.2108 25.2128 94.5385
ENERGY: 600000 4.5368 1.7367 3.5036 0.0000 -10608.2808 1505.8270 0.0000 0.0000 1765.4741 -7327.2025 303.8396 -9092.6767 -7365.8196 303.8471 826.6489 793.7672 30042.1623 296.8877 347.0951
ENERGY: 900000 3.6905 8.4423 1.4536 0.0000 -10726.0731 1550.3106 0.0000 0.0000 1728.0851 -7434.0910 297.4049 -9162.1761 -7371.8029 302.3902 853.0952 890.6006 30170.0260 306.3331 362.7540
ENERGY: 1200000 4.8328 4.5913 3.4360 0.0000 -10556.2800 1407.5565 0.0000 0.0000 1764.0208 -7371.8425 303.5895 -9135.8633 -7373.8926 301.4793 -150.7495 -63.4913 29961.0548 231.5596 298.8704
ENERGY: 1500000 4.0170 2.4309 2.3019 0.0000 -10654.7313 1415.4017 0.0000 0.0000 1730.3289 -7500.2510 297.7911 -9230.5799 -7388.9455 301.1790 -322.9760 -192.4789 29565.5862 109.7508 185.2541
TCL: Running FEP window  17: Lambda1 0.19999999999999968 Lambda2 0.1499999999999997 [dLambda -0.04999999999999999]
TCL: Setting parameter firsttimestep to 0
TCL: Setting parameter alchLambda to 0.19999999999999968
Info: NONBONDED TABLE R-SQUARED SPACING: 0.0625
Info: NONBONDED TABLE SIZE: 705 POINTS
TCL: Setting parameter alchLambda2 to 0.1499999999999997
Info: NONBONDED TABLE R-SQUARED SPACING: 0.0625
Info: NONBONDED TABLE SIZE: 705 POINTS
TCL: Running for 1500000 steps
ETITLE: TS BOND ANGLE DIHED IMPRP ELECT VDW BOUNDARY MISC KINETIC TOTAL TEMP POTENTIAL TOTALAVG TEMPAVG PRESSURE GPRESSURE VOLUME PRESSAVG GPRESSAVG
ENERGY: 0 4.0169 2.4308 2.3019 0.0000 -10654.7305 1414.8119 0.0000 0.0000 1729.4278 -7501.7411 297.6360 -9231.1689 -7501.7411 297.6360 -290.2503 -197.9162 29565.5862 -290.2503 -197.9162
ENERGY: 300000 2.5881 4.3985 3.0174 0.0000 -10628.3350 1392.1383 0.0000 0.0000 1786.8952 -7439.2975 307.5262 -9226.1927 -7429.3622 304.0463 -252.0374 -222.2668 29857.1295 -33.4549 29.6166
ENERGY: 600000 6.3171 6.4065 7.8667 0.0000 -10672.6623 1444.4316 0.0000 0.0000 1731.0465 -7476.5939 297.9146 -9207.6405 -7430.7593 302.0413 -401.6958 -341.3037 30175.7115 -0.2533 52.1728
ENERGY: 900000 4.0146 7.9004 5.6765 0.0000 -10635.7394 1457.7800 0.0000 0.0000 1747.7176 -7412.6503 300.7837 -9160.3679 -7421.8268 301.6541 178.2609 231.1187 29856.6063 -76.9090 -29.4265
ENERGY: 1200000 0.9524 2.6810 7.4574 0.0000 -10457.8729 1333.3090 0.0000 0.0000 1807.1926 -7306.2806 311.0194 -9113.4732 -7404.9580 301.9468 -640.4339 -529.8717 30371.3923 -86.5812 -29.5525
ENERGY: 1500000 2.2096 1.4214 5.6065 0.0000 -10548.4907 1343.6717 0.0000 0.0000 1762.3120 -7433.2695 303.2954 -9195.5815 -7398.5944 302.1889 -788.3463 -711.8300 29929.7687 -97.4674 -39.2328
TCL: Running FEP window  18: Lambda1 0.1499999999999997 Lambda2 0.09999999999999969 [dLambda -0.05 ]
TCL: Setting parameter firsttimestep to 0
TCL: Setting parameter alchLambda to 0.1499999999999997
Info: NONBONDED TABLE R-SQUARED SPACING: 0.0625
Info: NONBONDED TABLE SIZE: 705 POINTS
TCL: Setting parameter alchLambda2 to 0.09999999999999969
Info: NONBONDED TABLE R-SQUARED SPACING: 0.0625
Info: NONBONDED TABLE SIZE: 705 POINTS
TCL: Running for 1500000 steps
ETITLE: TS BOND ANGLE DIHED IMPRP ELECT VDW BOUNDARY MISC KINETIC TOTAL TEMP POTENTIAL TOTALAVG TEMPAVG PRESSURE GPRESSURE VOLUME PRESSAVG GPRESSAVG
ENERGY: 0 2.2096 1.4214 5.6065 0.0000 -10548.4918 1343.7571 0.0000 0.0000 1761.4467 -7434.0506 303.1465 -9195.4972 -7434.0506 303.1465 -800.9369 -714.1558 29929.7687 -800.9369 -714.1558
ENERGY: 300000 6.0811 7.6815 3.1854 0.0000 -10618.6391 1417.7782 0.0000 0.0000 1696.1097 -7487.8032 291.9019 -9183.9129 -7411.6990 300.2300 -420.4968 -401.1527 30162.4100 -496.8311 -429.0705
ENERGY: 600000 1.5843 2.5362 2.3721 0.0000 -10616.8940 1495.7102 0.0000 0.0000 1719.0978 -7395.5934 295.8582 -9114.6913 -7397.9415 300.7516 498.5405 579.9759 30049.6211 -223.1238 -139.5805
ENERGY: 900000 6.2939 2.3819 2.3555 0.0000 -10607.7581 1392.5385 0.0000 0.0000 1740.6577 -7463.5305 299.5687 -9204.1882 -7412.9746 299.5405 -230.3000 -190.0216 29737.3315 -123.6168 -41.8441
ENERGY: 1200000 1.9200 5.4292 4.8403 0.0000 -10622.8927 1481.1386 0.0000 0.0000 1700.0759 -7429.4888 292.5845 -9129.5647 -7419.2715 299.3465 414.3386 443.6230 30122.1718 -76.9972 -5.8318
ENERGY: 1500000 6.6259 2.3662 5.5138 0.0000 -10626.8123 1425.3437 0.0000 0.0000 1827.3932 -7359.5696 314.4959 -9186.9627 -7413.7450 300.7953 -126.4681 -107.1752 30004.7698 -159.2858 -100.1459
TCL: Running FEP window  19: Lambda1 0.09999999999999969 Lambda2 0.049999999999999684 [dLambda -0.05 ]
TCL: Setting parameter firsttimestep to 0
TCL: Setting parameter alchLambda to 0.09999999999999969
Info: NONBONDED TABLE R-SQUARED SPACING: 0.0625
Info: NONBONDED TABLE SIZE: 705 POINTS
TCL: Setting parameter alchLambda2 to 0.049999999999999684
Info: NONBONDED TABLE R-SQUARED SPACING: 0.0625
Info: NONBONDED TABLE SIZE: 705 POINTS
TCL: Running for 1500000 steps
ETITLE: TS BOND ANGLE DIHED IMPRP ELECT VDW BOUNDARY MISC KINETIC TOTAL TEMP POTENTIAL TOTALAVG TEMPAVG PRESSURE GPRESSURE VOLUME PRESSAVG GPRESSAVG
ENERGY: 0 6.6259 2.3662 5.5138 0.0000 -10626.8148 1425.6308 0.0000 0.0000 1826.4974 -7360.1806 314.3418 -9186.6781 -7360.1806 314.3418 -179.9026 -107.6621 30004.7698 -179.9026 -107.6621
ENERGY: 300000 4.4403 6.8600 4.3043 0.0000 -10528.9124 1416.2803 0.0000 0.0000 1758.0370 -7338.9906 302.5597 -9097.0276 -7385.5810 306.2568 -295.8849 -258.8884 30518.6344 2.5709 40.7797
ENERGY: 600000 4.0076 1.3246 4.1369 0.0000 -10690.1165 1547.6943 0.0000 0.0000 1744.1153 -7388.8377 300.1637 -9132.9530 -7393.4657 305.0340 1123.5594 1168.6667 29768.1200 -137.2105 -104.9689
ENERGY: 900000 0.8369 4.5580 2.1686 0.0000 -10641.6331 1472.0291 0.0000 0.0000 1773.6655 -7388.3749 305.2494 -9162.0405 -7390.2078 303.5701 414.5578 448.2384 29822.8602 13.4523 40.9092
ENERGY: 1200000 3.2024 3.9912 2.5708 0.0000 -10756.5580 1515.7690 0.0000 0.0000 1727.3937 -7503.6309 297.2859 -9231.0246 -7396.6464 302.3611 799.3474 882.9270 29101.0800 31.1269 67.5386
ENERGY: 1500000 2.3356 6.7023 4.4072 0.0000 -10451.2557 1374.7980 0.0000 0.0000 1709.7660 -7353.2467 294.2522 -9063.0126 -7399.2298 301.3302 -283.5836 -225.1869 30316.0185 -22.8399 20.9813
TCL: Running FEP window  20: Lambda1 0.049999999999999684 Lambda2 0.0    [dLambda -0.049999999999999684]
TCL: Setting parameter firsttimestep to 0
TCL: Setting parameter alchLambda to 0.049999999999999684
Info: NONBONDED TABLE R-SQUARED SPACING: 0.0625
Info: NONBONDED TABLE SIZE: 705 POINTS
TCL: Setting parameter alchLambda2 to 0.0
Info: NONBONDED TABLE R-SQUARED SPACING: 0.0625
Info: NONBONDED TABLE SIZE: 705 POINTS
TCL: Running for 1500000 steps
ETITLE: TS BOND ANGLE DIHED IMPRP ELECT VDW BOUNDARY MISC KINETIC TOTAL TEMP POTENTIAL TOTALAVG TEMPAVG PRESSURE GPRESSURE VOLUME PRESSAVG GPRESSAVG
ENERGY: 0 2.3356 6.7023 4.4072 0.0000 -10451.2564 1374.1252 0.0000 0.0000 1708.9284 -7354.7578 294.1080 -9063.6862 -7354.7578 294.1080 -311.8197 -226.8437 30316.0185 -311.8197 -226.8437
ENERGY: 300000 1.8730 5.7903 2.1535 0.0000 -10707.1969 1512.1226 0.0000 0.0000 1749.3962 -7435.8613 301.0726 -9185.2575 -7393.7093 301.6887 586.0901 601.4364 29996.5236 142.1485 197.2308
ENERGY: 600000 2.6489 2.1328 2.9560 0.0000 -10577.7793 1422.9746 0.0000 0.0000 1776.5152 -7370.5519 305.7398 -9147.0670 -7389.6588 302.2228 -236.9790 -131.9232 30117.3043 120.3084 198.7595
ENERGY: 900000 1.6418 2.9133 3.9292 0.0000 -10547.4746 1454.4509 0.0000 0.0000 1719.3741 -7365.1652 295.9058 -9084.5393 -7392.0198 301.0355 309.4577 434.6803 29860.1165 77.7539 166.5622
ENERGY: 1200000 5.0460 5.9165 1.3732 0.0000 -10542.0852 1377.2559 0.0000 0.0000 1743.7279 -7408.7657 300.0971 -9152.4936 -7384.3711 300.7852 -523.2029 -439.2380 30005.4001 -63.0363 14.3395
ENERGY: 1500000 5.8555 4.2252 2.1284 0.0000 -10529.5200 1465.2085 0.0000 0.0000 1726.0377 -7326.0646 297.0526 -9052.1024 -7379.8923 300.1744 712.3498 746.7393 29941.5959 36.1043 110.4402
TCL: Exiting due to exit command.
