Info: SIMULATION PARAMETERS:
Info: TIMESTEP               2
Info: NUMBER OF STEPS        0
Info: STEPS PER CYCLE        10
Info: PERIODIC CELL BASIS 1  30.1785 0 0
Info: PERIODIC CELL BASIS 2  0 28.9919 0
Info: PERIODIC CELL BASIS 3  0 0 33.8591
Info: PERIODIC CELL CENTER   0 0 0
Info: WRAPPING WATERS AROUND PERIODIC BOUNDARIES ON OUTPUT.
Info: WRAPPING ALL CLUSTERS AROUND PERIODIC BOUNDARIES ON OUTPUT.
Info: FIRST LDB TIMESTEP     50
Info: LAST LDB TIMESTEP     -1
Info: HOM BACKGROUND SCALING 1
Info: PME BACKGROUND SCALING 1
Info: MIN ATOMS PER PATCH    40
Info: EMPTY PATCH LOAD       40 ATOMS
Info: VELOCITY FILE          mobley_6843802_equil.vel
Info: CENTER OF MASS MOVING INITIALLY? NO
Info: DIELECTRIC             1
Info: EXCLUDE                SCALED ONE-FOUR
Info: 1-4 ELECTROSTATICS SCALED BY 0.833333
Info: MODIFIED 1-4 VDW PARAMETERS WILL BE USED
Info: DCD FILENAME           mobley_6843802_prod.dcd
Info: DCD FREQUENCY          100000
Info: DCD FIRST STEP         100000
Info: DCD FILE WILL CONTAIN UNIT CELL DATA
Info: XST FILENAME           mobley_6843802_prod.xst
Info: XST FREQUENCY          100000
Info: NO VELOCITY DCD OUTPUT
Info: NO FORCE DCD OUTPUT
Info: OUTPUT FILENAME        mobley_6843802_prod
Info: BINARY OUTPUT FILES WILL BE USED
Info: RESTART FILENAME       mobley_6843802_prod.restart
Info: RESTART FREQUENCY      100000
Info: BINARY RESTART FILES WILL BE USED
Info: CUTOFF                 9
Info: PAIRLIST DISTANCE      11
Info: PAIRLIST SHRINK RATE   0.01
Info: PAIRLIST GROW RATE     0.01
Info: PAIRLIST TRIGGER       0.3
Info: PAIRLISTS PER CYCLE    2
Info: PAIRLISTS ENABLED
Info: MARGIN                 2
Info: HYDROGEN GROUP CUTOFF  2.5
Info: PATCH DIMENSION        15.5
Info: ENERGY OUTPUT STEPS    100000
Info: ENERGY EVALUATION STEPS    100000
Info: OUTPUT ENERGY PRECISION 4
Info: CROSSTERM ENERGY INCLUDED IN DIHEDRAL
Info: TIMING OUTPUT STEPS    1000000
Info: PRESSURE OUTPUT STEPS  100000
Info: ALCHEMICAL FEP ON
Info: FEP CURRENT LAMBDA VALUE     0
Info: FEP COMPARISON LAMBDA VALUE  0.05
Info: FEP INTRA-ALCHEMICAL NON-BONDED INTERACTIONS WILL BE RETAINED
Info: FEP INTRA-ALCHEMICAL BONDED INTERACTIONS WILL BE RETAINED
Info: FEP VDW SHIFTING COEFFICIENT 5
Info: FEP ELEC. ACTIVE FOR ANNIHILATED PARTICLES BETWEEN LAMBDA = 0 AND LAMBDA = 0.5
Info: FEP ELEC. ACTIVE FOR EXNIHILATED PARTICLES BETWEEN LAMBDA = 0.5 AND LAMBDA = 1
Info: FEP VDW ACTIVE FOR ANNIHILATED PARTICLES BETWEEN LAMBDA = 0 AND LAMBDA = 1
Info: FEP VDW ACTIVE FOR EXNIHILATED PARTICLES BETWEEN LAMBDA = 0 AND LAMBDA = 1
Info: FEP BOND ACTIVE FOR ANNIHILATED PARTICLES BETWEEN LAMBDA = 1 AND LAMBDA = 1
Info: FEP BOND ACTIVE FOR EXNIHILATED PARTICLES BETWEEN LAMBDA = 0 AND LAMBDA = 0
Info: LANGEVIN DYNAMICS ACTIVE
Info: LANGEVIN TEMPERATURE   300
Info: LANGEVIN USING BBK INTEGRATOR
Info: LANGEVIN DAMPING COEFFICIENT IS 1 INVERSE PS
Info: LANGEVIN DYNAMICS APPLIED TO HYDROGENS
Info: LANGEVIN PISTON PRESSURE CONTROL ACTIVE
Info:        TARGET PRESSURE IS 1.01325 BAR
Info:     OSCILLATION PERIOD IS 50 FS
Info:             DECAY TIME IS 25 FS
Info:     PISTON TEMPERATURE IS 300 K
Info:       PRESSURE CONTROL IS GROUP-BASED
Info:    INITIAL STRAIN RATE IS 0.000446411 0.000446411 0.000446411
Info:       CELL FLUCTUATION IS ISOTROPIC
Info: PARTICLE MESH EWALD (PME) ACTIVE
Info: PME TOLERANCE               1e-06
Info: PME EWALD COEFFICIENT       0.348832
Info: PME INTERPOLATION ORDER     4
Info: PME GRID DIMENSIONS         32 32 36
Info: PME MAXIMUM GRID SPACING    1
Info: PME CALCULATION WILL BE PERFORMED ON GPU
Info: FULL ELECTROSTATIC EVALUATION FREQUENCY      2
Info: USING VERLET I (r-RESPA) MTS SCHEME.
Info: C1 SPLITTING OF LONG RANGE ELECTROSTATICS
Info: PLACING ATOMS IN PATCHES BY HYDROGEN GROUPS
Info: RIGID BONDS TO HYDROGEN : ALL
Info:         ERROR TOLERANCE : 1e-08
Info:          MAX ITERATIONS : 100
Info: RIGID WATER USING SETTLE ALGORITHM
Info: RANDOM NUMBER SEED     1743948420
Info: USE HYDROGEN BONDS?    NO
Info: Using AMBER format force field!
Info: AMBER PARM FILE        mobley_6843802.prmtop
Info: COORDINATE PDB         mobley_6843802.pdb
Info: Exclusions will be read from PARM file!
Info: SCNB (VDW SCALING)     2
Info: USING ARITHMETIC MEAN TO COMBINE L-J SIGMA PARAMETERS
Info: BINARY COORDINATES     mobley_6843802_equil.coor
Info: SUMMARY OF PARAMETERS:
Info: 9 BONDS
Info: 11 ANGLES
Info:   11 HARMONIC
Info:   0 COSINE-BASED
Info: 7 DIHEDRAL
Info: 0 IMPROPER
Info: 0 CROSSTERM
Info: 0 VDW
Info: 36 VDW_PAIRS
Info: 0 NBTHOLE_PAIRS
Info: To read alchdata from file: mobley_6843802.pdb
Info: To read alchflag data from column: 5
Info: STRUCTURE SUMMARY:
Info: 2902 ATOMS
Info: 2902 BONDS
Info: 31 ANGLES
Info: 46 DIHEDRALS
Info: 0 IMPROPERS
Info: 0 CROSSTERMS
Info: 2968 EXCLUSIONS
Info: 2890 RIGID BONDS
Info: ALCH: 0 ATOMS TO DISAPPEAR IN FINAL STATE
Info: ALCH: 19 ATOMS TO APPEAR IN FINAL STATE
Info: 5816 DEGREES OF FREEDOM
Info: 973 HYDROGEN GROUPS
Info: 3 ATOMS IN LARGEST HYDROGEN GROUP
Info: 973 MIGRATION GROUPS
Info: 3 ATOMS IN LARGEST MIGRATION GROUP
Info: TOTAL MASS = 17489.5 amu
Info: TOTAL CHARGE = 0.000100009 e
Info: MASS DENSITY = 0.980365 g/cm^3
Info: ATOM DENSITY = 0.0979599 atoms/A^3
Info: ADDED 0 IMPLICIT EXCLUSIONS
Info: NONBONDED TABLE R-SQUARED SPACING: 0.0625
Info: NONBONDED TABLE SIZE: 705 POINTS
Info: REMOVING COM VELOCITY 0.0901302 0.0240239 0.0333362
Info: Use 3D box decompostion in PME FFT.
Info: Updated CUDA force table with 4096 elements.
Info: Updated CUDA LJ table with 8 x 8 elements.
Info: Found 21 unique exclusion lists needing 56 bytes
TCL: Running for 1500000 steps
ETITLE: TS BOND ANGLE DIHED IMPRP ELECT VDW BOUNDARY MISC KINETIC TOTAL TEMP POTENTIAL TOTALAVG TEMPAVG PRESSURE GPRESSURE VOLUME PRESSAVG GPRESSAVG
ENERGY: 0 2.4972 5.5372 4.9959 0.0000 -10514.7903 1432.8646 0.0000 0.0000 1806.0850 -7262.8104 312.5390 -9068.8954 -7262.8104 312.5390 281.5004 357.4263 29624.3752 281.5004 357.4263
ENERGY: 300000 5.8806 7.4447 6.3522 0.0000 -10534.2838 1361.3525 0.0000 0.0000 1740.0749 -7413.1790 301.1161 -9153.2539 -7337.5445 305.5925 -484.8415 -424.6358 29508.5221 147.2666 237.9481
ENERGY: 600000 4.6166 7.5670 7.4561 0.0000 -10470.3914 1408.9977 0.0000 0.0000 1750.4979 -7291.2561 302.9197 -9041.7540 -7328.8864 305.1310 272.3104 292.7979 29585.4973 -11.5610 42.4095
ENERGY: 900000 3.6034 5.6803 10.7274 0.0000 -10389.4487 1326.9842 0.0000 0.0000 1721.7429 -7320.7106 297.9438 -9042.4535 -7329.9577 303.2714 -805.2845 -683.2350 30053.3954 -134.8216 -75.4120
ENERGY: 1200000 4.4483 7.7740 8.4249 0.0000 -10490.6116 1395.1147 0.0000 0.0000 1707.4181 -7367.4317 295.4649 -9074.8498 -7331.8369 301.4381 -381.2825 -284.6107 29605.4300 -66.7853 -5.7431
ENERGY: 1500000 5.1652 3.6776 4.6091 0.0000 -10315.8395 1356.8918 0.0000 0.0000 1760.1697 -7185.3261 304.5934 -8945.4958 -7323.9736 300.5645 -324.8666 -255.3392 30177.6181 -88.0679 -26.8918
TCL: Running FEP window   2: Lambda1 0.05   Lambda2 0.1    [dLambda 0.05  ]
TCL: Setting parameter firsttimestep to 0
TCL: Setting parameter alchLambda to 0.05
Info: NONBONDED TABLE R-SQUARED SPACING: 0.0625
Info: NONBONDED TABLE SIZE: 705 POINTS
TCL: Setting parameter alchLambda2 to 0.1
Info: NONBONDED TABLE R-SQUARED SPACING: 0.0625
Info: NONBONDED TABLE SIZE: 705 POINTS
TCL: Running for 1500000 steps
ETITLE: TS BOND ANGLE DIHED IMPRP ELECT VDW BOUNDARY MISC KINETIC TOTAL TEMP POTENTIAL TOTALAVG TEMPAVG PRESSURE GPRESSURE VOLUME PRESSAVG GPRESSAVG
ENERGY: 0 5.1652 3.6776 4.6091 0.0000 -10315.8407 1360.6887 0.0000 0.0000 1759.2968 -7182.4033 304.4424 -8941.7001 -7182.4033 304.4424 -319.8126 -245.3389 30177.6181 -319.8126 -245.3389
ENERGY: 300000 2.2016 10.2794 4.7302 0.0000 -10428.7405 1382.8314 0.0000 0.0000 1698.8726 -7329.8253 293.9861 -9028.6979 -7297.7556 296.0273 -115.6462 -74.4648 29648.0926 -316.1083 -265.2938
ENERGY: 600000 4.0060 6.0545 9.6685 0.0000 -10422.5378 1390.6776 0.0000 0.0000 1708.3750 -7303.7562 295.6305 -9012.1312 -7307.6163 294.8274 -109.4818 24.4350 30055.4391 -235.5541 -167.3532
ENERGY: 900000 5.6725 3.9074 5.5524 0.0000 -10548.4529 1397.5784 0.0000 0.0000 1710.6338 -7425.1085 296.0214 -9135.7423 -7333.2229 295.3279 -511.2607 -404.4822 29730.3730 -224.3145 -157.2485
ENERGY: 1200000 1.5046 9.4421 7.8262 0.0000 -10452.3422 1404.3338 0.0000 0.0000 1768.0785 -7261.1569 305.9620 -9029.2355 -7325.8240 297.6802 115.5998 219.2663 29522.5990 -105.9774 -47.2637
ENERGY: 1500000 3.0217 6.5774 5.4623 0.0000 -10373.1698 1379.8175 0.0000 0.0000 1759.0024 -7219.2884 304.3914 -8978.2908 -7316.5786 298.6083 -236.0282 -245.7840 30006.8175 -60.6985 -8.9593
TCL: Running FEP window   3: Lambda1 0.1    Lambda2 0.15000000000000002 [dLambda 0.05000000000000002]
TCL: Setting parameter firsttimestep to 0
TCL: Setting parameter alchLambda to 0.1
Info: NONBONDED TABLE R-SQUARED SPACING: 0.0625
Info: NONBONDED TABLE SIZE: 705 POINTS
TCL: Setting parameter alchLambda2 to 0.15000000000000002
Info: NONBONDED TABLE R-SQUARED SPACING: 0.0625
Info: NONBONDED TABLE SIZE: 705 POINTS
TCL: Running for 1500000 steps
ETITLE: TS BOND ANGLE DIHED IMPRP ELECT VDW BOUNDARY MISC KINETIC TOTAL TEMP POTENTIAL TOTALAVG TEMPAVG PRESSURE GPRESSURE VOLUME PRESSAVG GPRESSAVG
ENERGY: 0 3.0217 6.5774 5.4623 0.0000 -10373.1708 1381.1897 0.0000 0.0000 1758.1581 -7218.7616 304.2453 -8976.9197 -7218.7616 304.2453 -309.7498 -239.1422 30006.8175 -309.7498 -239.1422
ENERGY: 300000 4.0872 6.6754 9.5970 0.0000 -10560.6860 1438.9198 0.0000 0.0000 1716.8278 -7384.5788 297.0932 -9101.4066 -7313.7352 302.0953 241.7416 278.9454 29149.2195 -206.6667 -130.7370
ENERGY: 600000 4.4694 5.8779 8.0346 0.0000 -10456.5927 1370.1861 0.0000 0.0000 1739.1179 -7328.9068 300.9505 -9068.0247 -7318.8962 300.8527 -444.5218 -305.7126 29389.5717 -337.0901 -260.8173
ENERGY: 900000 5.2406 4.6864 8.7330 0.0000 -10441.4240 1381.5532 0.0000 0.0000 1740.1355 -7301.0754 301.1266 -9041.2109 -7319.2776 300.5844 -384.6578 -337.6526 30278.2545 -237.9208 -155.8370
ENERGY: 1200000 2.1684 6.7987 9.9496 0.0000 -10485.3746 1374.4803 0.0000 0.0000 1761.9796 -7329.9980 304.9066 -9091.9776 -7324.5937 301.0245 -611.4973 -484.7545 29807.2867 -273.8111 -189.2747
ENERGY: 1500000 2.1817 5.0326 8.0056 0.0000 -10335.8372 1357.7585 0.0000 0.0000 1722.9401 -7239.9187 298.1509 -8962.8589 -7316.7603 300.9179 -6.0134 -5.3881 29719.7771 -233.3349 -160.3137
TCL: Running FEP window   4: Lambda1 0.15000000000000002 Lambda2 0.2    [dLambda 0.04999999999999999]
TCL: Setting parameter firsttimestep to 0
TCL: Setting parameter alchLambda to 0.15000000000000002
Info: NONBONDED TABLE R-SQUARED SPACING: 0.0625
Info: NONBONDED TABLE SIZE: 705 POINTS
TCL: Setting parameter alchLambda2 to 0.2
Info: NONBONDED TABLE R-SQUARED SPACING: 0.0625
Info: NONBONDED TABLE SIZE: 705 POINTS
TCL: Running for 1500000 steps
ETITLE: TS BOND ANGLE DIHED IMPRP ELECT VDW BOUNDARY MISC KINETIC TOTAL TEMP POTENTIAL TOTALAVG TEMPAVG PRESSURE GPRESSURE VOLUME PRESSAVG GPRESSAVG
ENERGY: 0 2.1817 5.0326 8.0056 0.0000 -10335.8362 1358.3316 0.0000 0.0000 1722.1081 -7240.1767 298.0069 -8962.2848 -7240.1767 298.0069 -77.6496 -1.0637 29719.7771 -77.6496 -1.0637
ENERGY: 300000 2.5170 10.9494 11.7400 0.0000 -10530.0090 1437.8732 0.0000 0.0000 1751.0506 -7315.8788 303.0154 -9066.9293 -7284.5520 302.3204 192.2584 284.6059 29710.7998 -119.8289 -34.5545
ENERGY: 600000 3.7592 5.7668 5.1081 0.0000 -10475.1433 1426.0717 0.0000 0.0000 1703.8006 -7330.6369 294.8389 -9034.4375 -7307.3748 299.2940 128.1453 130.2432 29820.6740 -93.0000 -30.1950
ENERGY: 900000 2.9012 7.4014 6.2095 0.0000 -10457.5778 1401.9280 0.0000 0.0000 1725.2563 -7313.8814 298.5517 -9039.1377 -7311.0362 299.9462 -507.6395 -488.5757 30527.3946 -28.8882 26.6657
ENERGY: 1200000 6.0524 7.3151 6.2095 0.0000 -10570.2241 1476.8282 0.0000 0.0000 1733.6671 -7340.1517 300.0072 -9073.8188 -7323.1447 299.7182 517.7432 550.3485 29790.5054 -11.4763 51.3568
ENERGY: 1500000 6.5826 5.7068 8.9589 0.0000 -10467.0796 1477.7863 0.0000 0.0000 1725.7313 -7242.3138 298.6339 -8968.0451 -7320.3804 299.8745 701.3189 681.7869 29678.8591 89.4840 145.7093
TCL: Running FEP window   5: Lambda1 0.2    Lambda2 0.25   [dLambda 0.04999999999999999]
TCL: Setting parameter firsttimestep to 0
TCL: Setting parameter alchLambda to 0.2
Info: NONBONDED TABLE R-SQUARED SPACING: 0.0625
Info: NONBONDED TABLE SIZE: 705 POINTS
TCL: Setting parameter alchLambda2 to 0.25
Info: NONBONDED TABLE R-SQUARED SPACING: 0.0625
Info: NONBONDED TABLE SIZE: 705 POINTS
TCL: Running for 1500000 steps
ETITLE: TS BOND ANGLE DIHED IMPRP ELECT VDW BOUNDARY MISC KINETIC TOTAL TEMP POTENTIAL TOTALAVG TEMPAVG PRESSURE GPRESSURE VOLUME PRESSAVG GPRESSAVG
ENERGY: 0 6.5826 5.7068 8.9589 0.0000 -10467.0824 1478.1377 0.0000 0.0000 1724.8652 -7242.8312 298.4841 -8967.6964 -7242.8312 298.4841 620.6683 684.1564 29678.8591 620.6683 684.1564
ENERGY: 300000 4.2376 5.5000 5.3819 0.0000 -10609.8520 1542.0582 0.0000 0.0000 1742.9826 -7309.6917 301.6192 -9052.6743 -7286.3122 299.0463 855.4581 923.8317 29935.2111 134.0386 217.4183
ENERGY: 600000 3.4954 4.0914 4.9580 0.0000 -10512.6678 1459.1605 0.0000 0.0000 1762.4774 -7278.4850 304.9928 -9040.9625 -7305.2101 299.8907 409.7583 405.5534 29910.4165 -12.9536 42.6459
ENERGY: 900000 5.0271 7.3844 4.9245 0.0000 -10534.0268 1361.2642 0.0000 0.0000 1732.3647 -7423.0619 299.7818 -9155.4266 -7326.6054 298.6285 -863.9061 -781.1852 29720.2610 -168.2928 -106.2118
ENERGY: 1200000 4.3227 8.8525 7.9685 0.0000 -10624.9942 1501.3702 0.0000 0.0000 1767.5634 -7334.9169 305.8729 -9102.4802 -7332.4596 299.0612 874.6587 988.1574 29383.5469 -173.4821 -100.9576
ENERGY: 1500000 5.6989 9.3093 10.7678 0.0000 -10532.9025 1398.9258 0.0000 0.0000 1756.7792 -7351.4215 304.0067 -9108.2007 -7334.9458 298.8759 -253.2101 -220.8664 29512.8567 -133.3827 -59.1004
TCL: Running FEP window   6: Lambda1 0.25   Lambda2 0.3    [dLambda 0.04999999999999999]
TCL: Setting parameter firsttimestep to 0
TCL: Setting parameter alchLambda to 0.25
Info: NONBONDED TABLE R-SQUARED SPACING: 0.0625
Info: NONBONDED TABLE SIZE: 705 POINTS
TCL: Setting parameter alchLambda2 to 0.3
Info: NONBONDED TABLE R-SQUARED SPACING: 0.0625
Info: NONBONDED TABLE SIZE: 705 POINTS
TCL: Running for 1500000 steps
ETITLE: TS BOND ANGLE DIHED IMPRP ELECT VDW BOUNDARY MISC KINETIC TOTAL TEMP POTENTIAL TOTALAVG TEMPAVG PRESSURE GPRESSURE VOLUME PRESSAVG GPRESSAVG
ENERGY: 0 5.6989 9.3093 10.7678 0.0000 -10532.9026 1399.2149 0.0000 0.0000 1755.9526 -7351.9591 303.8637 -9107.9117 -7351.9591 303.8637 -293.4295 -213.4087 29512.8567 -293.4295 -213.4087
ENERGY: 300000 2.2449 7.6845 6.0102 0.0000 -10563.5114 1428.0180 0.0000 0.0000 1840.6442 -7278.9096 318.5194 -9119.5538 -7283.8138 310.1107 76.5872 98.5856 29813.3822 -75.7281 -17.4100
ENERGY: 600000 2.8937 5.5172 9.0503 0.0000 -10419.6045 1373.2330 0.0000 0.0000 1736.6544 -7292.2558 300.5242 -9028.9102 -7288.4985 305.6516 -182.0734 -194.7868 29989.1737 -292.0274 -226.2013
ENERGY: 900000 2.8987 4.3903 9.0510 0.0000 -10541.0941 1384.8294 0.0000 0.0000 1800.3125 -7339.6122 311.5400 -9139.9247 -7305.7596 304.9769 -401.9778 -351.4287 29656.1132 -237.4548 -166.0283
ENERGY: 1200000 3.3783 4.3248 7.1794 0.0000 -10476.6595 1389.4349 0.0000 0.0000 1762.2106 -7310.1316 304.9466 -9072.3421 -7300.3398 304.2481 -362.2302 -203.6487 29985.0073 -143.4769 -67.5350
ENERGY: 1500000 3.5652 6.6597 4.2611 0.0000 -10335.2484 1331.9242 0.0000 0.0000 1756.1058 -7232.7324 303.8902 -8988.8382 -7291.7692 304.6023 -543.0112 -449.8191 29878.5015 -213.4622 -134.3371
TCL: Running FEP window   7: Lambda1 0.3    Lambda2 0.35   [dLambda 0.04999999999999999]
TCL: Setting parameter firsttimestep to 0
TCL: Setting parameter alchLambda to 0.3
Info: NONBONDED TABLE R-SQUARED SPACING: 0.0625
Info: NONBONDED TABLE SIZE: 705 POINTS
TCL: Setting parameter alchLambda2 to 0.35
Info: NONBONDED TABLE R-SQUARED SPACING: 0.0625
Info: NONBONDED TABLE SIZE: 705 POINTS
TCL: Running for 1500000 steps
ETITLE: TS BOND ANGLE DIHED IMPRP ELECT VDW BOUNDARY MISC KINETIC TOTAL TEMP POTENTIAL TOTALAVG TEMPAVG PRESSURE GPRESSURE VOLUME PRESSAVG GPRESSAVG
ENERGY: 0 3.5652 6.6596 4.2611 0.0000 -10335.2483 1334.0723 0.0000 0.0000 1755.2680 -7231.4221 303.7452 -8986.6901 -7231.4221 303.7452 -506.4233 -432.5937 29878.5015 -506.4233 -432.5937
ENERGY: 300000 3.7176 7.1632 6.8695 0.0000 -10519.3538 1496.5809 0.0000 0.0000 1726.9892 -7278.0335 298.8516 -9005.0226 -7286.3995 300.1267 526.1109 595.4220 29985.0664 -178.4476 -115.5578
ENERGY: 600000 2.8036 8.0519 9.0271 0.0000 -10377.3404 1322.5637 0.0000 0.0000 1707.6223 -7327.2718 295.5002 -9034.8941 -7318.1136 298.9194 -806.7990 -764.2234 30376.8618 -237.8657 -180.9004
ENERGY: 900000 4.2333 7.0457 6.0522 0.0000 -10432.7888 1331.3672 0.0000 0.0000 1737.2610 -7346.8294 300.6291 -9084.0904 -7326.5735 299.9312 -539.1191 -464.5039 29490.4499 -102.4702 -56.4485
ENERGY: 1200000 5.4921 5.5471 3.0963 0.0000 -10553.7176 1411.9377 0.0000 0.0000 1772.1325 -7355.5119 306.6636 -9127.6444 -7322.1079 300.5382 -458.7834 -402.3116 29891.0038 -163.9241 -110.7395
ENERGY: 1500000 2.3878 8.6567 9.6748 0.0000 -10622.2371 1518.2930 0.0000 0.0000 1709.7634 -7373.4613 295.8707 -9083.2247 -7329.0714 300.1798 638.0751 646.5324 29721.8594 -32.3926 22.6116
TCL: Running FEP window   8: Lambda1 0.35   Lambda2 0.39999999999999997 [dLambda 0.04999999999999999]
TCL: Setting parameter firsttimestep to 0
TCL: Setting parameter alchLambda to 0.35
Info: NONBONDED TABLE R-SQUARED SPACING: 0.0625
Info: NONBONDED TABLE SIZE: 705 POINTS
TCL: Setting parameter alchLambda2 to 0.39999999999999997
Info: NONBONDED TABLE R-SQUARED SPACING: 0.0625
Info: NONBONDED TABLE SIZE: 705 POINTS
TCL: Running for 1500000 steps
ETITLE: TS BOND ANGLE DIHED IMPRP ELECT VDW BOUNDARY MISC KINETIC TOTAL TEMP POTENTIAL TOTALAVG TEMPAVG PRESSURE GPRESSURE VOLUME PRESSAVG GPRESSAVG
ENERGY: 0 2.3878 8.6567 9.6748 0.0000 -10622.2350 1518.0678 0.0000 0.0000 1708.9070 -7374.5409 295.7225 -9083.4479 -7374.5409 295.7225 558.9194 651.7025 29721.8594 558.9194 651.7025
ENERGY: 300000 1.8237 7.0646 8.5052 0.0000 -10492.9318 1484.7593 0.0000 0.0000 1720.4497 -7270.3292 297.7200 -8990.7790 -7256.1927 301.1637 605.0088 670.3868 29981.9582 531.1305 595.2184
ENERGY: 600000 3.8020 7.9711 10.1993 0.0000 -10424.8574 1333.0704 0.0000 0.0000 1684.5640 -7385.2506 291.5100 -9069.8146 -7283.3456 299.0081 -942.8692 -833.3883 29875.9471 178.7342 248.4406
ENERGY: 900000 4.5403 8.6061 4.7464 0.0000 -10446.0155 1305.2533 0.0000 0.0000 1758.4454 -7364.4240 304.2950 -9122.8694 -7304.4042 300.8045 -947.8884 -925.9124 29536.9208 35.9839 86.6261
ENERGY: 1200000 5.9591 5.2260 6.7367 0.0000 -10270.1203 1314.9806 0.0000 0.0000 1736.9638 -7200.2541 300.5777 -8937.2179 -7299.3415 301.2566 -414.8232 -416.9107 30177.6334 67.8067 123.1735
ENERGY: 1500000 3.1808 4.3330 12.4093 0.0000 -10580.1581 1404.8261 0.0000 0.0000 1742.1896 -7413.2193 301.4820 -9155.4089 -7313.3537 300.8471 -411.0828 -323.5638 29743.4265 31.0819 81.3319
TCL: Running FEP window   9: Lambda1 0.39999999999999997 Lambda2 0.44999999999999996 [dLambda 0.04999999999999999]
TCL: Setting parameter firsttimestep to 0
TCL: Setting parameter alchLambda to 0.39999999999999997
Info: NONBONDED TABLE R-SQUARED SPACING: 0.0625
Info: NONBONDED TABLE SIZE: 705 POINTS
TCL: Setting parameter alchLambda2 to 0.44999999999999996
Info: NONBONDED TABLE R-SQUARED SPACING: 0.0625
Info: NONBONDED TABLE SIZE: 705 POINTS
TCL: Running for 1500000 steps
ETITLE: TS BOND ANGLE DIHED IMPRP ELECT VDW BOUNDARY MISC KINETIC TOTAL TEMP POTENTIAL TOTALAVG TEMPAVG PRESSURE GPRESSURE VOLUME PRESSAVG GPRESSAVG
ENERGY: 0 3.1808 4.3330 12.4093 0.0000 -10580.1584 1405.6929 0.0000 0.0000 1741.3018 -7413.2406 301.3284 -9154.5424 -7413.2406 301.3284 -385.3146 -312.7651 29743.4265 -385.3146 -312.7651
ENERGY: 300000 5.7923 6.1588 6.8263 0.0000 -10353.8186 1322.3167 0.0000 0.0000 1699.8417 -7312.8828 294.1538 -9012.7245 -7340.1774 300.1652 -583.4697 -465.6073 29851.5736 -192.8478 -115.4377
ENERGY: 600000 4.7749 8.6816 8.6903 0.0000 -10589.8046 1560.8414 0.0000 0.0000 1786.7869 -7220.0295 309.1995 -9006.8164 -7312.7184 301.6772 1628.3324 1701.9708 29195.4581 67.5594 128.8137
ENERGY: 900000 3.6918 3.8883 5.4396 0.0000 -10417.1222 1359.5050 0.0000 0.0000 1752.0486 -7292.5489 303.1881 -9044.5975 -7304.4206 302.0136 -364.7380 -318.5655 29931.1569 33.6374 100.8959
ENERGY: 1200000 1.5646 6.6148 8.3229 0.0000 -10454.7333 1448.9456 0.0000 0.0000 1748.4823 -7240.8031 302.5710 -8989.2855 -7293.6292 302.7673 637.7880 635.4642 29564.4343 23.1473 82.0456
ENERGY: 1500000 1.9148 7.1701 12.7465 0.0000 -10588.4923 1493.3787 0.0000 0.0000 1759.0482 -7314.2340 304.3993 -9073.2822 -7295.1828 302.6943 436.8903 492.1264 30181.4626 35.6143 95.2721
TCL: Running FEP window  10: Lambda1 0.44999999999999996 Lambda2 0.49999999999999994 [dLambda 0.04999999999999999]
TCL: Setting parameter firsttimestep to 0
TCL: Setting parameter alchLambda to 0.44999999999999996
Info: NONBONDED TABLE R-SQUARED SPACING: 0.0625
Info: NONBONDED TABLE SIZE: 705 POINTS
TCL: Setting parameter alchLambda2 to 0.49999999999999994
Info: NONBONDED TABLE R-SQUARED SPACING: 0.0625
Info: NONBONDED TABLE SIZE: 705 POINTS
TCL: Running for 1500000 steps
ETITLE: TS BOND ANGLE DIHED IMPRP ELECT VDW BOUNDARY MISC KINETIC TOTAL TEMP POTENTIAL TOTALAVG TEMPAVG PRESSURE GPRESSURE VOLUME PRESSAVG GPRESSAVG
ENERGY: 0 1.9148 7.1701 12.7465 0.0000 -10588.4942 1493.1861 0.0000 0.0000 1758.1947 -7315.2820 304.2517 -9073.4767 -7315.2820 304.2517 427.0428 499.1863 30181.4626 427.0428 499.1863
ENERGY: 300000 5.3864 3.7029 7.7129 0.0000 -10385.3742 1358.8431 0.0000 0.0000 1714.8539 -7294.8750 296.7516 -9009.7288 -7333.3479 301.5027 -281.1325 -236.7928 29917.2091 114.2419 187.9908
ENERGY: 600000 3.2342 6.8106 5.9326 0.0000 -10519.1124 1392.7590 0.0000 0.0000 1766.4455 -7343.9305 305.6794 -9110.3760 -7328.9426 303.2232 -254.3114 -227.8752 29533.9655 -92.8881 -34.0409
ENERGY: 900000 6.7866 5.6654 4.5355 0.0000 -10423.7406 1340.2894 0.0000 0.0000 1712.9363 -7353.5275 296.4198 -9066.4637 -7336.2698 302.0599 -681.6940 -604.5651 29889.0663 -160.4121 -101.4600
ENERGY: 1200000 4.5475 10.7598 9.6258 0.0000 -10555.8685 1444.3161 0.0000 0.0000 1722.6318 -7363.9874 298.0976 -9086.6192 -7325.4538 302.9249 31.5434 131.8156 29582.2937 -94.1771 -36.7986
ENERGY: 1500000 5.9315 5.8860 5.4628 0.0000 -10477.7793 1453.2665 0.0000 0.0000 1777.7073 -7229.5252 307.6283 -9007.2324 -7310.7602 303.6451 749.0992 770.7527 29603.5209 -31.7718 26.1112
TCL: Running FEP window  11: Lambda1 0.49999999999999994 Lambda2 0.5499999999999999 [dLambda 0.04999999999999999]
TCL: Setting parameter firsttimestep to 0
TCL: Setting parameter alchLambda to 0.49999999999999994
Info: NONBONDED TABLE R-SQUARED SPACING: 0.0625
Info: NONBONDED TABLE SIZE: 705 POINTS
TCL: Setting parameter alchLambda2 to 0.5499999999999999
Info: NONBONDED TABLE R-SQUARED SPACING: 0.0625
Info: NONBONDED TABLE SIZE: 705 POINTS
TCL: Running for 1500000 steps
ETITLE: TS BOND ANGLE DIHED IMPRP ELECT VDW BOUNDARY MISC KINETIC TOTAL TEMP POTENTIAL TOTALAVG TEMPAVG PRESSURE GPRESSURE VOLUME PRESSAVG GPRESSAVG
ENERGY: 0 5.9316 5.8860 5.4628 0.0000 -10477.7779 1453.0773 0.0000 0.0000 1776.8024 -7230.6178 307.4717 -9007.4202 -7230.6178 307.4717 671.8951 777.4419 29603.5209 671.8951 777.4419
ENERGY: 300000 1.9302 5.8060 9.3310 0.0000 -10633.8986 1491.1877 0.0000 0.0000 1677.0929 -7448.5508 290.2172 -9125.6437 -7309.7117 303.0950 757.6820 809.3137 29340.0032 330.7756 361.7134
ENERGY: 600000 2.4312 6.8564 7.2361 0.0000 -10336.6339 1326.1662 0.0000 0.0000 1744.6751 -7249.2689 301.9121 -8993.9440 -7308.2989 302.6284 -579.0570 -499.1053 30031.3249 50.5900 115.7486
ENERGY: 900000 3.5940 4.7879 6.2988 0.0000 -10580.2955 1443.2008 0.0000 0.0000 1655.4580 -7466.9562 286.4733 -9122.4142 -7321.0711 300.8833 269.6735 333.6051 29355.2903 141.8574 196.6391
ENERGY: 1200000 2.9277 5.8555 8.7317 0.0000 -10378.0014 1288.0349 0.0000 0.0000 1789.2005 -7283.2511 309.6171 -9072.4516 -7324.5887 300.7402 -1077.5773 -1007.5591 30004.2218 56.7695 118.8949
ENERGY: 1500000 4.1314 6.8746 6.3415 0.0000 -10595.6699 1477.1835 0.0000 0.0000 1751.9918 -7349.1472 303.1783 -9101.1390 -7338.6037 300.2270 642.0593 741.6294 29602.8330 117.3804 183.9708
TCL: Running FEP window  12: Lambda1 0.5499999999999999 Lambda2 0.6    [dLambda 0.050000000000000044]
TCL: Setting parameter firsttimestep to 0
TCL: Setting parameter alchLambda to 0.5499999999999999
Info: NONBONDED TABLE R-SQUARED SPACING: 0.0625
Info: NONBONDED TABLE SIZE: 705 POINTS
TCL: Setting parameter alchLambda2 to 0.6
Info: NONBONDED TABLE R-SQUARED SPACING: 0.0625
Info: NONBONDED TABLE SIZE: 705 POINTS
TCL: Running for 1500000 steps
ETITLE: TS BOND ANGLE DIHED IMPRP ELECT VDW BOUNDARY MISC KINETIC TOTAL TEMP POTENTIAL TOTALAVG TEMPAVG PRESSURE GPRESSURE VOLUME PRESSAVG GPRESSAVG
ENERGY: 0 4.1314 6.8746 6.3415 0.0000 -10596.3718 1477.0688 0.0000 0.0000 1751.1317 -7350.8239 303.0294 -9101.9557 -7350.8239 303.0294 662.3775 750.5435 29602.8330 662.3775 750.5435
ENERGY: 300000 3.9330 7.4256 6.6487 0.0000 -10456.5749 1355.9599 0.0000 0.0000 1739.6237 -7342.9841 301.0380 -9082.6078 -7340.0075 300.1300 -586.9375 -557.4787 29870.8718 118.0864 157.7307
ENERGY: 600000 5.9143 6.1731 7.7279 0.0000 -10307.8827 1301.7185 0.0000 0.0000 1712.0370 -7274.3118 296.2642 -8986.3488 -7317.6930 300.6558 -753.5301 -771.7063 30401.5610 32.7618 84.3423
ENERGY: 900000 2.4910 5.2131 9.9796 0.0000 -10535.3717 1354.3688 0.0000 0.0000 1767.1775 -7396.1416 305.8061 -9163.3192 -7348.9466 299.2234 -607.8674 -506.9010 29493.6210 -131.3064 -65.7929
ENERGY: 1200000 5.5622 5.5157 7.0111 0.0000 -10376.9664 1315.9502 0.0000 0.0000 1740.8367 -7302.0905 301.2479 -9042.9272 -7345.9501 298.9549 -1228.3613 -1175.2583 30499.2969 -146.6688 -82.9960
ENERGY: 1500000 6.7973 6.5568 5.3192 0.0000 -10525.3709 1458.4193 0.0000 0.0000 1766.3231 -7281.9553 305.6583 -9048.2784 -7335.8299 299.1802 306.3718 338.0011 30011.5322 -100.0514 -41.0895
TCL: Running FEP window  13: Lambda1 0.6    Lambda2 0.65   [dLambda 0.050000000000000044]
TCL: Setting parameter firsttimestep to 0
TCL: Setting parameter alchLambda to 0.6
Info: NONBONDED TABLE R-SQUARED SPACING: 0.0625
Info: NONBONDED TABLE SIZE: 705 POINTS
TCL: Setting parameter alchLambda2 to 0.65
Info: NONBONDED TABLE R-SQUARED SPACING: 0.0625
Info: NONBONDED TABLE SIZE: 705 POINTS
TCL: Running for 1500000 steps
ETITLE: TS BOND ANGLE DIHED IMPRP ELECT VDW BOUNDARY MISC KINETIC TOTAL TEMP POTENTIAL TOTALAVG TEMPAVG PRESSURE GPRESSURE VOLUME PRESSAVG GPRESSAVG
ENERGY: 0 6.7973 6.5568 5.3192 0.0000 -10525.4458 1458.8767 0.0000 0.0000 1765.5047 -7282.3912 305.5166 -9047.8958 -7282.3912 305.5166 282.0297 346.7730 30011.5322 282.0297 346.7730
ENERGY: 300000 2.6615 5.4623 7.0463 0.0000 -10475.0098 1421.8992 0.0000 0.0000 1729.4904 -7308.4502 299.2844 -9037.9406 -7296.7556 302.2553 431.4452 520.2368 29293.6969 -38.6631 -0.2526
ENERGY: 600000 7.4136 7.6426 10.9179 0.0000 -10490.3785 1437.6830 0.0000 0.0000 1781.7376 -7244.9837 308.3257 -9026.7214 -7310.9622 301.6797 267.7368 335.5923 30075.7605 -15.3773 11.0226
ENERGY: 900000 1.5584 6.7145 7.1177 0.0000 -10480.9387 1369.3371 0.0000 0.0000 1731.5134 -7364.6976 299.6345 -9096.2110 -7303.8988 301.6354 -428.5413 -374.2015 29886.8500 -113.9193 -69.1145
ENERGY: 1200000 3.1678 7.0814 7.8878 0.0000 -10385.7834 1333.3988 0.0000 0.0000 1791.2524 -7242.9952 309.9722 -9034.2476 -7294.8606 303.1328 -517.0977 -524.3984 29800.8601 -161.5497 -120.8403
ENERGY: 1500000 5.8812 5.0305 6.1054 0.0000 -10558.8594 1436.6632 0.0000 0.0000 1713.0274 -7392.1517 296.4356 -9105.1791 -7304.6473 301.5697 -63.5150 98.9588 29523.2258 -169.3826 -115.1054
TCL: Running FEP window  14: Lambda1 0.65   Lambda2 0.7000000000000001 [dLambda 0.050000000000000044]
TCL: Setting parameter firsttimestep to 0
TCL: Setting parameter alchLambda to 0.65
Info: NONBONDED TABLE R-SQUARED SPACING: 0.0625
Info: NONBONDED TABLE SIZE: 705 POINTS
TCL: Setting parameter alchLambda2 to 0.7000000000000001
Info: NONBONDED TABLE R-SQUARED SPACING: 0.0625
Info: NONBONDED TABLE SIZE: 705 POINTS
TCL: Running for 1500000 steps
ETITLE: TS BOND ANGLE DIHED IMPRP ELECT VDW BOUNDARY MISC KINETIC TOTAL TEMP POTENTIAL TOTALAVG TEMPAVG PRESSURE GPRESSURE VOLUME PRESSAVG GPRESSAVG
ENERGY: 0 5.8812 5.0305 6.1054 0.0000 -10559.9959 1437.3655 0.0000 0.0000 1712.1831 -7393.4302 296.2895 -9105.6133 -7393.4302 296.2895 43.7239 112.6544 29523.2258 43.7239 112.6544
ENERGY: 300000 2.3199 6.9772 7.8607 0.0000 -10461.1752 1389.4687 0.0000 0.0000 1741.6538 -7312.8949 301.3893 -9054.5487 -7359.5008 299.0362 -154.2482 -141.2268 30183.2990 22.1297 71.8785
ENERGY: 600000 5.9744 7.2893 9.2543 0.0000 -10629.6378 1475.1990 0.0000 0.0000 1693.5760 -7438.3448 293.0695 -9131.9208 -7358.6025 296.7988 400.4484 389.9442 29453.5149 97.6256 135.3380
ENERGY: 900000 5.0870 6.4732 5.7112 0.0000 -10386.9046 1330.0978 0.0000 0.0000 1773.6376 -7265.8978 306.9240 -9039.5355 -7324.7438 300.0698 -630.0276 -569.0763 30015.2031 -33.4124 1.6412
ENERGY: 1200000 3.1574 6.9066 8.1056 0.0000 -10478.2539 1427.8548 0.0000 0.0000 1707.0956 -7325.1338 295.4091 -9032.2295 -7307.3016 300.7864 290.0032 368.5284 29581.4798 121.3159 161.5008
ENERGY: 1500000 3.0599 6.0413 6.7599 0.0000 -10596.9234 1464.7279 0.0000 0.0000 1740.1268 -7376.2074 301.1251 -9116.3343 -7313.6251 301.2246 38.2658 87.5448 29960.6877 128.5670 168.5451
TCL: Running FEP window  15: Lambda1 0.7000000000000001 Lambda2 0.7500000000000001 [dLambda 0.050000000000000044]
TCL: Setting parameter firsttimestep to 0
TCL: Setting parameter alchLambda to 0.7000000000000001
Info: NONBONDED TABLE R-SQUARED SPACING: 0.0625
Info: NONBONDED TABLE SIZE: 705 POINTS
TCL: Setting parameter alchLambda2 to 0.7500000000000001
Info: NONBONDED TABLE R-SQUARED SPACING: 0.0625
Info: NONBONDED TABLE SIZE: 705 POINTS
TCL: Running for 1500000 steps
ETITLE: TS BOND ANGLE DIHED IMPRP ELECT VDW BOUNDARY MISC KINETIC TOTAL TEMP POTENTIAL TOTALAVG TEMPAVG PRESSURE GPRESSURE VOLUME PRESSAVG GPRESSAVG
ENERGY: 0 3.0599 6.0413 6.7599 0.0000 -10597.8871 1464.7470 0.0000 0.0000 1739.1955 -7378.0834 300.9639 -9117.2789 -7378.0834 300.9639 3.0994 91.1499 29960.6877 3.0994 91.1499
ENERGY: 300000 3.7921 4.1763 6.6482 0.0000 -10429.9402 1320.6592 0.0000 0.0000 1723.9465 -7370.7178 298.3251 -9094.6643 -7344.1377 298.8635 -869.5174 -799.9403 29559.0155 -134.2557 -60.0604
ENERGY: 600000 9.1234 5.8617 3.6935 0.0000 -10434.0846 1356.0392 0.0000 0.0000 1729.8735 -7329.4932 299.3507 -9059.3668 -7320.5494 299.6676 -698.7974 -594.0971 29900.5808 -268.7098 -194.4359
ENERGY: 900000 1.8230 8.4128 9.6183 0.0000 -10337.9909 1335.2801 0.0000 0.0000 1724.9488 -7257.9079 298.4985 -8982.8567 -7314.5890 299.6459 -454.3912 -441.2341 30175.5819 -177.2308 -106.7257
ENERGY: 1200000 7.4461 8.7861 6.6036 0.0000 -10566.2417 1465.3414 0.0000 0.0000 1675.0603 -7403.0042 289.8654 -9078.0645 -7326.2605 298.3253 -144.1295 -68.0878 30245.0971 -256.4703 -184.0624
ENERGY: 1500000 4.8918 6.8605 8.8541 0.0000 -10522.0956 1430.4250 0.0000 0.0000 1736.1134 -7334.9508 300.4305 -9071.0642 -7315.3526 299.0780 274.7064 255.3458 29850.6683 -208.0091 -148.3681
TCL: Running FEP window  16: Lambda1 0.7500000000000001 Lambda2 0.8000000000000002 [dLambda 0.050000000000000044]
TCL: Setting parameter firsttimestep to 0
TCL: Setting parameter alchLambda to 0.7500000000000001
Info: NONBONDED TABLE R-SQUARED SPACING: 0.0625
Info: NONBONDED TABLE SIZE: 705 POINTS
TCL: Setting parameter alchLambda2 to 0.8000000000000002
Info: NONBONDED TABLE R-SQUARED SPACING: 0.0625
Info: NONBONDED TABLE SIZE: 705 POINTS
TCL: Running for 1500000 steps
ETITLE: TS BOND ANGLE DIHED IMPRP ELECT VDW BOUNDARY MISC KINETIC TOTAL TEMP POTENTIAL TOTALAVG TEMPAVG PRESSURE GPRESSURE VOLUME PRESSAVG GPRESSAVG
ENERGY: 0 4.8918 6.8605 8.8541 0.0000 -10522.7211 1430.1654 0.0000 0.0000 1735.2955 -7336.6538 300.2890 -9071.9492 -7336.6538 300.2890 168.9256 255.5025 29850.6683 168.9256 255.5025
ENERGY: 300000 3.4197 8.6472 8.5470 0.0000 -10427.3656 1395.8728 0.0000 0.0000 1716.8015 -7294.0774 297.0887 -9010.8789 -7285.7564 302.9579 -232.9085 -210.0648 30523.8637 -61.1970 -13.0380
ENERGY: 600000 7.2964 4.7407 7.1350 0.0000 -10421.4739 1388.5288 0.0000 0.0000 1772.3477 -7241.4253 306.7008 -9013.7730 -7268.4881 304.1630 162.0422 184.7607 29478.6740 83.7799 130.5317
ENERGY: 900000 3.1686 6.6645 4.2428 0.0000 -10570.6239 1424.2320 0.0000 0.0000 1724.6232 -7407.6928 298.4422 -9132.3160 -7300.8871 302.6675 -193.9999 -121.0804 29846.9680 -9.0825 49.0613
ENERGY: 1200000 7.7778 7.6279 8.6162 0.0000 -10363.0031 1332.1015 0.0000 0.0000 1747.8157 -7259.0640 302.4556 -9006.8797 -7302.5031 302.1920 -974.4426 -907.6198 30462.7476 -118.7442 -60.7288
ENERGY: 1500000 7.7179 8.0613 6.7137 0.0000 -10468.9841 1394.4794 0.0000 0.0000 1661.3774 -7390.6345 287.4976 -9052.0119 -7307.0951 301.6921 -357.5813 -245.9731 30000.3921 -180.0040 -115.2618
TCL: Running FEP window  17: Lambda1 0.8000000000000002 Lambda2 0.8500000000000002 [dLambda 0.050000000000000044]
TCL: Setting parameter firsttimestep to 0
TCL: Setting parameter alchLambda to 0.8000000000000002
Info: NONBONDED TABLE R-SQUARED SPACING: 0.0625
Info: NONBONDED TABLE SIZE: 705 POINTS
TCL: Setting parameter alchLambda2 to 0.8500000000000002
Info: NONBONDED TABLE R-SQUARED SPACING: 0.0625
Info: NONBONDED TABLE SIZE: 705 POINTS
TCL: Running for 1500000 steps
ETITLE: TS BOND ANGLE DIHED IMPRP ELECT VDW BOUNDARY MISC KINETIC TOTAL TEMP POTENTIAL TOTALAVG TEMPAVG PRESSURE GPRESSURE VOLUME PRESSAVG GPRESSAVG
ENERGY: 0 7.7179 8.0613 6.7137 0.0000 -10469.3039 1394.7399 0.0000 0.0000 1660.4986 -7391.5726 287.3456 -9052.0711 -7391.5726 287.3456 -305.9582 -234.2373 30000.3921 -305.9582 -234.2373
ENERGY: 300000 5.0863 6.2489 9.3043 0.0000 -10467.5406 1438.6035 0.0000 0.0000 1761.6646 -7246.6331 304.8521 -9008.2976 -7270.9926 302.5450 296.9083 380.6408 29875.6768 -137.7691 -75.3894
ENERGY: 600000 2.5492 6.6269 7.4726 0.0000 -10560.6997 1439.1397 0.0000 0.0000 1766.0609 -7338.8504 305.6129 -9104.9113 -7289.2146 301.2063 216.0109 302.8890 29961.7589 -10.5771 47.4165
ENERGY: 900000 2.7003 5.8552 9.0021 0.0000 -10454.6502 1417.8018 0.0000 0.0000 1738.6139 -7280.6768 300.8632 -9019.2908 -7300.0910 300.4610 4.5485 -8.7776 30167.4120 -89.4839 -31.2287
ENERGY: 1200000 2.3879 9.9582 6.3575 0.0000 -10368.3841 1345.4736 0.0000 0.0000 1743.6097 -7260.5972 301.7277 -9004.2069 -7303.8511 300.0896 -483.0870 -455.0588 30044.7513 -164.2955 -105.8772
ENERGY: 1500000 5.0126 6.0025 2.4629 0.0000 -10527.1726 1431.3808 0.0000 0.0000 1728.1957 -7354.1180 299.0604 -9082.3138 -7306.1450 300.2524 173.9056 242.2587 29751.0418 -179.7353 -115.7231
TCL: Running FEP window  18: Lambda1 0.8500000000000002 Lambda2 0.9000000000000002 [dLambda 0.050000000000000044]
TCL: Setting parameter firsttimestep to 0
TCL: Setting parameter alchLambda to 0.8500000000000002
Info: NONBONDED TABLE R-SQUARED SPACING: 0.0625
Info: NONBONDED TABLE SIZE: 705 POINTS
TCL: Setting parameter alchLambda2 to 0.9000000000000002
Info: NONBONDED TABLE R-SQUARED SPACING: 0.0625
Info: NONBONDED TABLE SIZE: 705 POINTS
TCL: Running for 1500000 steps
ETITLE: TS BOND ANGLE DIHED IMPRP ELECT VDW BOUNDARY MISC KINETIC TOTAL TEMP POTENTIAL TOTALAVG TEMPAVG PRESSURE GPRESSURE VOLUME PRESSAVG GPRESSAVG
ENERGY: 0 5.0126 6.0025 2.4629 0.0000 -10527.9348 1431.0701 0.0000 0.0000 1727.3377 -7356.0489 298.9119 -9083.3867 -7356.0489 298.9119 159.5755 250.3934 29751.0418 159.5755 250.3934
ENERGY: 300000 2.1206 5.0907 9.3563 0.0000 -10428.8421 1341.6467 0.0000 0.0000 1738.9471 -7331.6806 300.9209 -9070.6276 -7338.0005 299.3878 -545.7753 -457.7702 29954.0731 -209.6492 -132.5576
ENERGY: 600000 3.4680 3.9609 6.1193 0.0000 -10545.2279 1432.3857 0.0000 0.0000 1759.2834 -7340.0106 304.4401 -9099.2940 -7331.6897 300.9741 -89.4800 -27.6822 30343.8677 2.1289 69.6531
ENERGY: 900000 3.6434 5.4095 7.0194 0.0000 -10437.0401 1360.6236 0.0000 0.0000 1755.9769 -7304.3672 303.8679 -9060.3441 -7323.7158 300.2013 -374.7379 -372.6397 29946.9588 -47.6465 17.6982
ENERGY: 1200000 1.8517 6.3908 6.9711 0.0000 -10435.7064 1345.2293 0.0000 0.0000 1719.1800 -7356.0834 297.5003 -9075.2635 -7329.5826 300.1485 -503.5837 -410.7534 29958.1783 -75.3175 -10.7937
ENERGY: 1500000 3.8498 4.7059 7.8250 0.0000 -10494.2853 1411.3976 0.0000 0.0000 1732.6720 -7333.8350 299.8350 -9066.5070 -7336.2378 299.6689 -198.7898 -144.6285 30156.5237 -104.9073 -44.3217
TCL: Running FEP window  19: Lambda1 0.9000000000000002 Lambda2 0.9500000000000003 [dLambda 0.050000000000000044]
TCL: Setting parameter firsttimestep to 0
TCL: Setting parameter alchLambda to 0.9000000000000002
Info: NONBONDED TABLE R-SQUARED SPACING: 0.0625
Info: NONBONDED TABLE SIZE: 705 POINTS
TCL: Setting parameter alchLambda2 to 0.9500000000000003
Info: NONBONDED TABLE R-SQUARED SPACING: 0.0625
Info: NONBONDED TABLE SIZE: 705 POINTS
TCL: Running for 1500000 steps
ETITLE: TS BOND ANGLE DIHED IMPRP ELECT VDW BOUNDARY MISC KINETIC TOTAL TEMP POTENTIAL TOTALAVG TEMPAVG PRESSURE GPRESSURE VOLUME PRESSAVG GPRESSAVG
ENERGY: 0 3.8498 4.7059 7.8250 0.0000 -10495.5276 1412.1052 0.0000 0.0000 1731.7991 -7335.2426 299.6840 -9067.0417 -7335.2426 299.6840 -208.2020 -125.1137 30156.5237 -208.2020 -125.1137
ENERGY: 300000 5.4665 7.0710 5.1101 0.0000 -10456.8619 1446.3263 0.0000 0.0000 1755.0857 -7237.8022 303.7137 -8992.8879 -7305.8145 302.7690 362.7060 386.9294 30247.3026 -109.6213 -83.0817
ENERGY: 600000 4.1053 4.6680 5.9468 0.0000 -10544.8317 1465.4721 0.0000 0.0000 1770.9405 -7293.6991 306.4573 -9064.6395 -7305.2255 302.7575 409.4243 460.2055 29890.8528 92.3977 130.6541
ENERGY: 900000 7.9620 4.3008 3.5520 0.0000 -10475.6427 1429.7908 0.0000 0.0000 1685.6761 -7344.3611 291.7025 -9030.0372 -7316.3823 301.1755 299.9988 381.8986 29498.0361 245.5137 296.9444
ENERGY: 1200000 3.8202 4.9896 5.5887 0.0000 -10454.1306 1378.6683 0.0000 0.0000 1664.0499 -7397.0140 287.9601 -9061.0639 -7319.7249 299.4432 -421.0087 -384.5827 30437.0263 111.4751 166.3599
ENERGY: 1500000 8.0945 6.5444 9.8486 0.0000 -10456.8960 1422.7170 0.0000 0.0000 1758.9651 -7250.7264 304.3850 -9009.6915 -7310.1703 299.7481 148.9249 219.0033 29822.9175 61.5079 120.7736
TCL: Running FEP window  20: Lambda1 0.9500000000000003 Lambda2 1.0    [dLambda 0.04999999999999971]
TCL: Setting parameter firsttimestep to 0
TCL: Setting parameter alchLambda to 0.9500000000000003
Info: NONBONDED TABLE R-SQUARED SPACING: 0.0625
Info: NONBONDED TABLE SIZE: 705 POINTS
TCL: Setting parameter alchLambda2 to 1.0
Info: NONBONDED TABLE R-SQUARED SPACING: 0.0625
Info: NONBONDED TABLE SIZE: 705 POINTS
TCL: Running for 1500000 steps
ETITLE: TS BOND ANGLE DIHED IMPRP ELECT VDW BOUNDARY MISC KINETIC TOTAL TEMP POTENTIAL TOTALAVG TEMPAVG PRESSURE GPRESSURE VOLUME PRESSAVG GPRESSAVG
ENERGY: 0 8.0945 6.5444 9.8486 0.0000 -10457.8450 1423.3366 0.0000 0.0000 1758.0568 -7251.9640 304.2278 -9010.0208 -7251.9640 304.2278 157.3590 236.7739 29822.9175 157.3590 236.7739
ENERGY: 300000 3.0696 8.9726 2.4545 0.0000 -10512.7289 1419.3362 0.0000 0.0000 1713.2608 -7365.6351 296.4759 -9078.8959 -7303.6588 298.5416 72.1851 125.6410 29989.5642 -410.7126 -350.7001
ENERGY: 600000 2.3402 6.6605 9.5890 0.0000 -10488.0977 1389.7522 0.0000 0.0000 1764.2187 -7315.5370 305.2941 -9079.7558 -7296.4923 300.0811 -343.6814 -203.9868 29966.0616 -325.7476 -260.0738
ENERGY: 900000 4.6366 3.9733 7.9142 0.0000 -10459.7410 1369.9145 0.0000 0.0000 1706.0037 -7367.2986 295.2201 -9073.3023 -7312.8762 299.3462 -443.4708 -385.4900 29859.7321 -336.0673 -272.8767
ENERGY: 1200000 5.4740 3.9307 6.8156 0.0000 -10453.4297 1382.3933 0.0000 0.0000 1726.9577 -7327.8583 298.8462 -9054.8160 -7312.3968 299.8612 -481.6914 -414.4399 30057.5365 -356.2390 -289.3937
ENERGY: 1500000 1.8120 12.1724 8.2849 0.0000 -10373.6034 1404.0878 0.0000 0.0000 1723.3780 -7223.8683 298.2267 -8947.2463 -7308.7806 300.4967 144.4557 223.0741 30117.0158 -276.2961 -211.0551
TCL: Exiting due to exit command.
