Info: SIMULATION PARAMETERS:
Info: TIMESTEP               2
Info: NUMBER OF STEPS        0
Info: STEPS PER CYCLE        10
Info: PERIODIC CELL BASIS 1  30.6943 0 0
Info: PERIODIC CELL BASIS 2  0 31.39 0
Info: PERIODIC CELL BASIS 3  0 0 31.2716
Info: PERIODIC CELL CENTER   0 0 0
Info: WRAPPING WATERS AROUND PERIODIC BOUNDARIES ON OUTPUT.
Info: WRAPPING ALL CLUSTERS AROUND PERIODIC BOUNDARIES ON OUTPUT.
Info: FIRST LDB TIMESTEP     50
Info: LAST LDB TIMESTEP     -1
Info: HOM BACKGROUND SCALING 1
Info: PME BACKGROUND SCALING 1
Info: MIN ATOMS PER PATCH    40
Info: EMPTY PATCH LOAD       40 ATOMS
Info: VELOCITY FILE          mobley_5760563_equil.vel
Info: CENTER OF MASS MOVING INITIALLY? NO
Info: DIELECTRIC             1
Info: EXCLUDE                SCALED ONE-FOUR
Info: 1-4 ELECTROSTATICS SCALED BY 0.833333
Info: MODIFIED 1-4 VDW PARAMETERS WILL BE USED
Info: DCD FILENAME           mobley_5760563_prod.dcd
Info: DCD FREQUENCY          100000
Info: DCD FIRST STEP         100000
Info: DCD FILE WILL CONTAIN UNIT CELL DATA
Info: XST FILENAME           mobley_5760563_prod.xst
Info: XST FREQUENCY          100000
Info: NO VELOCITY DCD OUTPUT
Info: NO FORCE DCD OUTPUT
Info: OUTPUT FILENAME        mobley_5760563_prod
Info: BINARY OUTPUT FILES WILL BE USED
Info: RESTART FILENAME       mobley_5760563_prod.restart
Info: RESTART FREQUENCY      100000
Info: BINARY RESTART FILES WILL BE USED
Info: CUTOFF                 9
Info: PAIRLIST DISTANCE      11
Info: PAIRLIST SHRINK RATE   0.01
Info: PAIRLIST GROW RATE     0.01
Info: PAIRLIST TRIGGER       0.3
Info: PAIRLISTS PER CYCLE    2
Info: PAIRLISTS ENABLED
Info: MARGIN                 2
Info: HYDROGEN GROUP CUTOFF  2.5
Info: PATCH DIMENSION        15.5
Info: ENERGY OUTPUT STEPS    100000
Info: ENERGY EVALUATION STEPS    100000
Info: OUTPUT ENERGY PRECISION 4
Info: CROSSTERM ENERGY INCLUDED IN DIHEDRAL
Info: TIMING OUTPUT STEPS    1000000
Info: PRESSURE OUTPUT STEPS  100000
Info: ALCHEMICAL FEP ON
Info: FEP CURRENT LAMBDA VALUE     1
Info: FEP COMPARISON LAMBDA VALUE  0.95
Info: FEP INTRA-ALCHEMICAL NON-BONDED INTERACTIONS WILL BE RETAINED
Info: FEP INTRA-ALCHEMICAL BONDED INTERACTIONS WILL BE RETAINED
Info: FEP VDW SHIFTING COEFFICIENT 5
Info: FEP ELEC. ACTIVE FOR ANNIHILATED PARTICLES BETWEEN LAMBDA = 0 AND LAMBDA = 0.5
Info: FEP ELEC. ACTIVE FOR EXNIHILATED PARTICLES BETWEEN LAMBDA = 0.5 AND LAMBDA = 1
Info: FEP VDW ACTIVE FOR ANNIHILATED PARTICLES BETWEEN LAMBDA = 0 AND LAMBDA = 1
Info: FEP VDW ACTIVE FOR EXNIHILATED PARTICLES BETWEEN LAMBDA = 0 AND LAMBDA = 1
Info: FEP BOND ACTIVE FOR ANNIHILATED PARTICLES BETWEEN LAMBDA = 1 AND LAMBDA = 1
Info: FEP BOND ACTIVE FOR EXNIHILATED PARTICLES BETWEEN LAMBDA = 0 AND LAMBDA = 0
Info: LANGEVIN DYNAMICS ACTIVE
Info: LANGEVIN TEMPERATURE   300
Info: LANGEVIN USING BBK INTEGRATOR
Info: LANGEVIN DAMPING COEFFICIENT IS 1 INVERSE PS
Info: LANGEVIN DYNAMICS APPLIED TO HYDROGENS
Info: LANGEVIN PISTON PRESSURE CONTROL ACTIVE
Info:        TARGET PRESSURE IS 1.01325 BAR
Info:     OSCILLATION PERIOD IS 50 FS
Info:             DECAY TIME IS 25 FS
Info:     PISTON TEMPERATURE IS 300 K
Info:       PRESSURE CONTROL IS GROUP-BASED
Info:    INITIAL STRAIN RATE IS -0.000530462 -0.000530462 -0.000530462
Info:       CELL FLUCTUATION IS ISOTROPIC
Info: PARTICLE MESH EWALD (PME) ACTIVE
Info: PME TOLERANCE               1e-06
Info: PME EWALD COEFFICIENT       0.348832
Info: PME INTERPOLATION ORDER     4
Info: PME GRID DIMENSIONS         32 32 32
Info: PME MAXIMUM GRID SPACING    1
Info: PME CALCULATION WILL BE PERFORMED ON GPU
Info: FULL ELECTROSTATIC EVALUATION FREQUENCY      2
Info: USING VERLET I (r-RESPA) MTS SCHEME.
Info: C1 SPLITTING OF LONG RANGE ELECTROSTATICS
Info: PLACING ATOMS IN PATCHES BY HYDROGEN GROUPS
Info: RIGID BONDS TO HYDROGEN : ALL
Info:         ERROR TOLERANCE : 1e-08
Info:          MAX ITERATIONS : 100
Info: RIGID WATER USING SETTLE ALGORITHM
Info: RANDOM NUMBER SEED     1743824515
Info: USE HYDROGEN BONDS?    NO
Info: Using AMBER format force field!
Info: AMBER PARM FILE        mobley_5760563.prmtop
Info: COORDINATE PDB         mobley_5760563.pdb
Info: Exclusions will be read from PARM file!
Info: SCNB (VDW SCALING)     2
Info: USING ARITHMETIC MEAN TO COMBINE L-J SIGMA PARAMETERS
Info: BINARY COORDINATES     mobley_5760563_equil.coor
Info: SUMMARY OF PARAMETERS:
Info: 6 BONDS
Info: 6 ANGLES
Info:   6 HARMONIC
Info:   0 COSINE-BASED
Info: 2 DIHEDRAL
Info: 0 IMPROPER
Info: 0 CROSSTERM
Info: 0 VDW
Info: 28 VDW_PAIRS
Info: 0 NBTHOLE_PAIRS
Info: To read alchdata from file: mobley_5760563.pdb
Info: To read alchflag data from column: 5
Info: STRUCTURE SUMMARY:
Info: 2929 ATOMS
Info: 2928 BONDS
Info: 20 ANGLES
Info: 12 DIHEDRALS
Info: 0 IMPROPERS
Info: 0 CROSSTERMS
Info: 2960 EXCLUSIONS
Info: 2922 RIGID BONDS
Info: ALCH: 0 ATOMS TO DISAPPEAR IN FINAL STATE
Info: ALCH: 13 ATOMS TO APPEAR IN FINAL STATE
Info: 5865 DEGREES OF FREEDOM
Info: 979 HYDROGEN GROUPS
Info: 4 ATOMS IN LARGEST HYDROGEN GROUP
Info: 979 MIGRATION GROUPS
Info: 4 ATOMS IN LARGEST MIGRATION GROUP
Info: TOTAL MASS = 17637.7 amu
Info: TOTAL CHARGE = 0.000100158 e
Info: MASS DENSITY = 0.972081 g/cm^3
Info: ATOM DENSITY = 0.0972123 atoms/A^3
Info: ADDED 0 IMPLICIT EXCLUSIONS
Info: NONBONDED TABLE R-SQUARED SPACING: 0.0625
Info: NONBONDED TABLE SIZE: 705 POINTS
Info: REMOVING COM VELOCITY -0.172102 0.11399 0.0685298
Info: Use 3D box decompostion in PME FFT.
Info: Updated CUDA force table with 4096 elements.
Info: Updated CUDA LJ table with 7 x 7 elements.
Info: Found 16 unique exclusion lists needing 24 bytes
TCL: Running for 1500000 steps
ETITLE: TS BOND ANGLE DIHED IMPRP ELECT VDW BOUNDARY MISC KINETIC TOTAL TEMP POTENTIAL TOTALAVG TEMPAVG PRESSURE GPRESSURE VOLUME PRESSAVG GPRESSAVG
ENERGY: 0 1.2352 7.2108 6.7090 0.0000 -10656.2494 1445.6665 0.0000 0.0000 1735.6742 -7459.7537 297.8452 -9195.4279 -7459.7537 297.8452 276.6535 362.6400 30129.9470 276.6535 362.6400
ENERGY: 300000 1.5652 2.4925 8.9561 0.0000 -10664.6708 1365.5914 0.0000 0.0000 1761.2390 -7524.8265 302.2321 -9286.0655 -7508.3404 301.1715 -690.3702 -611.7351 30260.4288 -143.2077 -71.6236
ENERGY: 600000 2.0073 5.7449 6.9152 0.0000 -10815.0878 1461.8359 0.0000 0.0000 1703.7116 -7634.8729 292.3603 -9338.5845 -7518.4696 298.8941 -58.7869 -5.3093 30143.2382 20.4382 88.3942
ENERGY: 900000 1.1022 3.9613 8.7449 0.0000 -10755.5129 1506.4173 0.0000 0.0000 1746.3695 -7488.9177 299.6805 -9235.2872 -7511.5103 299.9584 885.7907 896.0505 29771.6146 76.7935 141.3609
ENERGY: 1200000 0.7169 4.4728 8.2002 0.0000 -10533.3976 1341.3983 0.0000 0.0000 1817.6373 -7360.9721 311.9102 -9178.6094 -7492.2355 300.6564 -503.3277 -382.7427 30063.7550 -77.4587 -10.3247
ENERGY: 1500000 2.3458 7.9358 7.4668 0.0000 -10842.7013 1510.0259 0.0000 0.0000 1744.5284 -7570.3985 299.3646 -9314.9269 -7499.6845 300.8275 718.4721 796.1716 29566.7477 -40.7603 24.8271
TCL: Running FEP window   2: Lambda1 0.95   Lambda2 0.8999999999999999 [dLambda -0.050000000000000044]
TCL: Setting parameter firsttimestep to 0
TCL: Setting parameter alchLambda to 0.95
Info: NONBONDED TABLE R-SQUARED SPACING: 0.0625
Info: NONBONDED TABLE SIZE: 705 POINTS
TCL: Setting parameter alchLambda2 to 0.8999999999999999
Info: NONBONDED TABLE R-SQUARED SPACING: 0.0625
Info: NONBONDED TABLE SIZE: 705 POINTS
TCL: Running for 1500000 steps
ETITLE: TS BOND ANGLE DIHED IMPRP ELECT VDW BOUNDARY MISC KINETIC TOTAL TEMP POTENTIAL TOTALAVG TEMPAVG PRESSURE GPRESSURE VOLUME PRESSAVG GPRESSAVG
ENERGY: 0 2.3458 7.9358 7.4668 0.0000 -10841.1329 1509.8052 0.0000 0.0000 1743.6779 -7569.9013 299.2186 -9313.5792 -7569.9013 299.2186 704.9391 782.7010 29566.7477 704.9391 782.7010
ENERGY: 300000 2.4031 4.6226 7.4600 0.0000 -10661.5170 1367.3629 0.0000 0.0000 1732.4593 -7547.2092 297.2935 -9279.6684 -7528.3035 297.6555 -604.3767 -540.0090 30154.7594 -51.9392 11.8416
ENERGY: 600000 2.0885 1.7712 6.8801 0.0000 -10675.0558 1454.0606 0.0000 0.0000 1741.9983 -7468.2572 298.9304 -9210.2555 -7509.1640 299.5353 234.4901 344.2903 30065.2216 -104.1285 -40.3075
ENERGY: 900000 3.5007 4.9391 6.8474 0.0000 -10563.1803 1351.1938 0.0000 0.0000 1796.0573 -7400.6421 308.2070 -9196.6994 -7476.6301 302.3081 -477.7198 -461.8471 30418.1582 -95.7869 -38.3351
ENERGY: 1200000 0.9465 5.3688 8.6240 0.0000 -10629.1241 1363.7155 0.0000 0.0000 1752.3370 -7498.1323 300.7046 -9250.4693 -7486.0692 300.6581 -525.7571 -473.8631 30132.8497 -37.6790 24.5208
ENERGY: 1500000 2.2561 6.6254 7.3903 0.0000 -10748.8124 1483.3607 0.0000 0.0000 1763.9349 -7485.2451 302.6948 -9249.1799 -7477.0520 301.4339 477.0288 521.0698 29950.6507 -55.7353 1.1266
TCL: Running FEP window   3: Lambda1 0.8999999999999999 Lambda2 0.8499999999999999 [dLambda -0.050000000000000044]
TCL: Setting parameter firsttimestep to 0
TCL: Setting parameter alchLambda to 0.8999999999999999
Info: NONBONDED TABLE R-SQUARED SPACING: 0.0625
Info: NONBONDED TABLE SIZE: 705 POINTS
TCL: Setting parameter alchLambda2 to 0.8499999999999999
Info: NONBONDED TABLE R-SQUARED SPACING: 0.0625
Info: NONBONDED TABLE SIZE: 705 POINTS
TCL: Running for 1500000 steps
ETITLE: TS BOND ANGLE DIHED IMPRP ELECT VDW BOUNDARY MISC KINETIC TOTAL TEMP POTENTIAL TOTALAVG TEMPAVG PRESSURE GPRESSURE VOLUME PRESSAVG GPRESSAVG
ENERGY: 0 2.2561 6.6254 7.3903 0.0000 -10746.7112 1483.2990 0.0000 0.0000 1763.0947 -7484.0457 302.5506 -9247.1404 -7484.0457 302.5506 423.2229 512.6766 29950.6507 423.2229 512.6766
ENERGY: 300000 2.4396 5.7756 7.4314 0.0000 -10653.1153 1411.8420 0.0000 0.0000 1788.2314 -7437.3954 306.8641 -9225.6268 -7474.0359 298.5496 -104.8219 -13.1977 30336.2549 290.1779 382.3932
ENERGY: 600000 1.3459 3.9575 7.2938 0.0000 -10781.3411 1489.2606 0.0000 0.0000 1747.4489 -7532.0345 299.8657 -9279.4834 -7478.9453 299.9497 117.6168 215.7876 30104.2828 232.1038 312.1292
ENERGY: 900000 2.3706 7.4950 6.9776 0.0000 -10745.1775 1459.2770 0.0000 0.0000 1798.6713 -7470.3861 308.6556 -9269.0574 -7470.9090 301.5011 654.9818 697.8143 29558.8267 290.0953 358.3096
ENERGY: 1200000 1.3154 5.8538 6.4270 0.0000 -10628.3607 1420.6159 0.0000 0.0000 1816.8308 -7377.3177 311.7718 -9194.1485 -7456.4927 301.7000 124.5286 186.8545 30054.6943 289.9411 360.8180
ENERGY: 1500000 1.1031 7.2096 6.4642 0.0000 -10715.0938 1488.6337 0.0000 0.0000 1765.8213 -7445.8618 303.0185 -9211.6832 -7455.7777 301.5682 364.1136 478.3811 30194.5186 287.1823 362.4468
TCL: Running FEP window   4: Lambda1 0.8499999999999999 Lambda2 0.7999999999999998 [dLambda -0.050000000000000044]
TCL: Setting parameter firsttimestep to 0
TCL: Setting parameter alchLambda to 0.8499999999999999
Info: NONBONDED TABLE R-SQUARED SPACING: 0.0625
Info: NONBONDED TABLE SIZE: 705 POINTS
TCL: Setting parameter alchLambda2 to 0.7999999999999998
Info: NONBONDED TABLE R-SQUARED SPACING: 0.0625
Info: NONBONDED TABLE SIZE: 705 POINTS
TCL: Running for 1500000 steps
ETITLE: TS BOND ANGLE DIHED IMPRP ELECT VDW BOUNDARY MISC KINETIC TOTAL TEMP POTENTIAL TOTALAVG TEMPAVG PRESSURE GPRESSURE VOLUME PRESSAVG GPRESSAVG
ENERGY: 0 1.1031 7.2096 6.4642 0.0000 -10712.6177 1487.7941 0.0000 0.0000 1765.0038 -7445.0430 302.8782 -9210.0467 -7445.0430 302.8782 390.5316 463.9269 30194.5186 390.5316 463.9269
ENERGY: 300000 2.1678 3.9933 6.7794 0.0000 -10717.9101 1469.2862 0.0000 0.0000 1755.8700 -7479.8134 301.3108 -9235.6833 -7445.6414 301.1256 428.7263 489.0398 29994.4645 259.4421 313.0410
ENERGY: 600000 2.9766 7.7061 6.3970 0.0000 -10689.3515 1434.9293 0.0000 0.0000 1703.7525 -7533.5900 292.3674 -9237.3425 -7475.6304 299.8906 73.1764 116.1385 30003.9585 216.4736 277.2777
ENERGY: 900000 1.9021 5.3554 6.8008 0.0000 -10693.7784 1411.5179 0.0000 0.0000 1734.9291 -7533.2731 297.7173 -9268.2022 -7492.5109 298.3615 -236.1822 -173.0907 30391.7807 168.2761 226.6193
ENERGY: 1200000 0.2664 8.7984 6.3823 0.0000 -10752.6379 1495.9453 0.0000 0.0000 1764.6814 -7476.5640 302.8229 -9241.2454 -7481.0126 300.1216 694.6666 685.9088 29782.2600 220.3851 276.1144
ENERGY: 1500000 0.1971 6.6946 6.7614 0.0000 -10747.6054 1486.7013 0.0000 0.0000 1738.5141 -7508.7369 298.3325 -9247.2511 -7487.2870 298.6620 661.1645 786.5806 29666.3952 254.0048 313.3286
TCL: Running FEP window   5: Lambda1 0.7999999999999998 Lambda2 0.7499999999999998 [dLambda -0.050000000000000044]
TCL: Setting parameter firsttimestep to 0
TCL: Setting parameter alchLambda to 0.7999999999999998
Info: NONBONDED TABLE R-SQUARED SPACING: 0.0625
Info: NONBONDED TABLE SIZE: 705 POINTS
TCL: Setting parameter alchLambda2 to 0.7499999999999998
Info: NONBONDED TABLE R-SQUARED SPACING: 0.0625
Info: NONBONDED TABLE SIZE: 705 POINTS
TCL: Running for 1500000 steps
ETITLE: TS BOND ANGLE DIHED IMPRP ELECT VDW BOUNDARY MISC KINETIC TOTAL TEMP POTENTIAL TOTALAVG TEMPAVG PRESSURE GPRESSURE VOLUME PRESSAVG GPRESSAVG
ENERGY: 0 0.1971 6.6946 6.7614 0.0000 -10745.9054 1486.9240 0.0000 0.0000 1737.6498 -7507.6786 298.1842 -9245.3284 -7507.6786 298.1842 688.5433 781.9357 29666.3952 688.5433 781.9357
ENERGY: 300000 2.4089 3.7892 9.6401 0.0000 -10596.5262 1439.8336 0.0000 0.0000 1752.9633 -7387.8911 300.8120 -9140.8544 -7490.6399 294.8710 461.7464 489.0408 30240.7960 289.2440 353.3052
ENERGY: 600000 1.5483 3.1331 6.8141 0.0000 -10700.1509 1503.8271 0.0000 0.0000 1719.6940 -7465.1344 295.1029 -9184.8283 -7471.0416 298.2360 841.3142 818.7400 30063.7205 319.1857 368.4435
ENERGY: 900000 2.4086 4.4654 8.0772 0.0000 -10648.2604 1396.4953 0.0000 0.0000 1789.1305 -7447.6834 307.0184 -9236.8139 -7478.4337 299.5798 -239.4843 -227.0350 30364.5076 239.4353 281.7529
ENERGY: 1200000 1.8860 8.1391 8.1613 0.0000 -10473.0271 1318.3080 0.0000 0.0000 1721.3707 -7415.1620 295.3907 -9136.5327 -7470.9464 299.7277 -457.4939 -364.4735 30025.0047 176.0040 222.6431
ENERGY: 1500000 1.5038 8.1635 7.0462 0.0000 -10627.2424 1413.8765 0.0000 0.0000 1758.2195 -7438.4328 301.7140 -9196.6524 -7474.6001 299.3718 -156.0093 -79.2775 30451.0871 122.3772 174.4278
TCL: Running FEP window   6: Lambda1 0.7499999999999998 Lambda2 0.6999999999999997 [dLambda -0.050000000000000044]
TCL: Setting parameter firsttimestep to 0
TCL: Setting parameter alchLambda to 0.7499999999999998
Info: NONBONDED TABLE R-SQUARED SPACING: 0.0625
Info: NONBONDED TABLE SIZE: 705 POINTS
TCL: Setting parameter alchLambda2 to 0.6999999999999997
Info: NONBONDED TABLE R-SQUARED SPACING: 0.0625
Info: NONBONDED TABLE SIZE: 705 POINTS
TCL: Running for 1500000 steps
ETITLE: TS BOND ANGLE DIHED IMPRP ELECT VDW BOUNDARY MISC KINETIC TOTAL TEMP POTENTIAL TOTALAVG TEMPAVG PRESSURE GPRESSURE VOLUME PRESSAVG GPRESSAVG
ENERGY: 0 1.5038 8.1635 7.0462 0.0000 -10624.4529 1413.0390 0.0000 0.0000 1757.3554 -7437.3450 301.5657 -9194.7004 -7437.3450 301.5657 -166.5422 -90.4990 30451.0871 -166.5422 -90.4990
ENERGY: 300000 3.4292 4.7204 7.0661 0.0000 -10626.1874 1424.5707 0.0000 0.0000 1764.0137 -7422.3873 302.7083 -9186.4010 -7449.8663 301.7229 -23.2895 59.3838 30481.5669 -288.8271 -225.2024
ENERGY: 600000 4.2579 3.8245 7.0655 0.0000 -10693.7957 1495.6582 0.0000 0.0000 1740.7311 -7442.2585 298.7130 -9182.9896 -7450.3510 300.8766 479.8239 557.6426 30149.8161 -248.4749 -182.8647
ENERGY: 900000 1.2040 5.2208 7.2040 0.0000 -10759.0944 1491.8510 0.0000 0.0000 1742.3838 -7511.2307 298.9966 -9253.6146 -7466.2748 300.4453 213.8663 271.6242 30534.9337 -111.5243 -38.6400
ENERGY: 1200000 1.6427 7.0759 6.8056 0.0000 -10611.7021 1332.7072 0.0000 0.0000 1764.5246 -7498.9462 302.7960 -9263.4707 -7475.1663 300.1580 -936.7364 -832.7610 30352.5537 -240.4258 -174.8119
ENERGY: 1500000 1.2650 7.3594 9.4020 0.0000 -10484.9431 1293.9267 0.0000 0.0000 1758.0623 -7414.9277 301.6870 -9172.9900 -7476.4819 300.1135 -778.8286 -715.8892 29890.6816 -251.4108 -180.4158
TCL: Running FEP window   7: Lambda1 0.6999999999999997 Lambda2 0.6499999999999997 [dLambda -0.050000000000000044]
TCL: Setting parameter firsttimestep to 0
TCL: Setting parameter alchLambda to 0.6999999999999997
Info: NONBONDED TABLE R-SQUARED SPACING: 0.0625
Info: NONBONDED TABLE SIZE: 705 POINTS
TCL: Setting parameter alchLambda2 to 0.6499999999999997
Info: NONBONDED TABLE R-SQUARED SPACING: 0.0625
Info: NONBONDED TABLE SIZE: 705 POINTS
TCL: Running for 1500000 steps
ETITLE: TS BOND ANGLE DIHED IMPRP ELECT VDW BOUNDARY MISC KINETIC TOTAL TEMP POTENTIAL TOTALAVG TEMPAVG PRESSURE GPRESSURE VOLUME PRESSAVG GPRESSAVG
ENERGY: 0 1.2650 7.3594 9.4020 0.0000 -10483.1366 1293.6594 0.0000 0.0000 1757.1995 -7414.2513 301.5390 -9171.4508 -7414.2513 301.5390 -807.9029 -724.8938 29890.6816 -807.9029 -724.8938
ENERGY: 300000 1.8917 2.4687 7.6495 0.0000 -10697.4489 1398.3532 0.0000 0.0000 1754.2897 -7532.7961 301.0396 -9287.0858 -7460.6367 300.6337 -508.3223 -448.4442 30338.3663 -669.8950 -611.0849
ENERGY: 600000 1.3673 9.4735 8.6419 0.0000 -10705.0436 1455.0574 0.0000 0.0000 1754.8114 -7475.6921 301.1292 -9230.5035 -7449.4146 302.4246 8.1031 95.0545 30395.1433 -233.4051 -161.4716
ENERGY: 900000 1.6258 5.9958 7.1837 0.0000 -10706.0213 1426.1614 0.0000 0.0000 1688.3418 -7576.7129 289.7228 -9265.0546 -7469.9737 300.4191 76.6044 104.9666 29806.2005 -106.6163 -34.2115
ENERGY: 1200000 1.4733 4.1289 6.5927 0.0000 -10644.5261 1432.8875 0.0000 0.0000 1674.1454 -7525.2983 287.2867 -9199.4437 -7483.4732 299.3116 43.9671 102.1744 30159.1777 -114.3752 -46.9926
ENERGY: 1500000 1.7907 4.7718 7.5608 0.0000 -10617.6606 1397.5571 0.0000 0.0000 1721.3088 -7484.6715 295.3800 -9205.9803 -7473.6308 299.7993 -418.4044 -407.8042 30653.8026 -138.0099 -69.9315
TCL: Running FEP window   8: Lambda1 0.6499999999999997 Lambda2 0.5999999999999996 [dLambda -0.050000000000000044]
TCL: Setting parameter firsttimestep to 0
TCL: Setting parameter alchLambda to 0.6499999999999997
Info: NONBONDED TABLE R-SQUARED SPACING: 0.0625
Info: NONBONDED TABLE SIZE: 705 POINTS
TCL: Setting parameter alchLambda2 to 0.5999999999999996
Info: NONBONDED TABLE R-SQUARED SPACING: 0.0625
Info: NONBONDED TABLE SIZE: 705 POINTS
TCL: Running for 1500000 steps
ETITLE: TS BOND ANGLE DIHED IMPRP ELECT VDW BOUNDARY MISC KINETIC TOTAL TEMP POTENTIAL TOTALAVG TEMPAVG PRESSURE GPRESSURE VOLUME PRESSAVG GPRESSAVG
ENERGY: 0 1.7907 4.7718 7.5608 0.0000 -10616.1935 1397.8548 0.0000 0.0000 1720.4490 -7483.7664 295.2325 -9204.2154 -7483.7664 295.2325 -489.3473 -409.8393 30653.8026 -489.3473 -409.8393
ENERGY: 300000 1.5518 3.1835 8.2921 0.0000 -10682.8280 1420.2070 0.0000 0.0000 1727.9856 -7521.6079 296.5258 -9249.5935 -7480.2290 297.3881 -97.7992 -27.4864 29779.7239 -333.8303 -262.2414
ENERGY: 600000 2.2046 3.8984 8.5129 0.0000 -10694.1622 1505.6780 0.0000 0.0000 1713.0183 -7460.8501 293.9574 -9173.8684 -7490.8734 297.5059 337.9435 476.6706 30300.0129 -221.7745 -154.6015
ENERGY: 900000 3.1878 4.0185 8.1094 0.0000 -10734.3582 1506.9759 0.0000 0.0000 1789.9537 -7422.1129 307.1596 -9212.0666 -7475.5470 297.8853 683.4671 721.9853 30183.9851 -87.7556 -29.0937
ENERGY: 1200000 2.5847 4.0620 7.2552 0.0000 -10643.0087 1437.4844 0.0000 0.0000 1754.8278 -7436.7946 301.1320 -9191.6224 -7469.8688 298.3834 301.4046 464.5467 29810.3479 -180.2106 -108.2255
ENERGY: 1500000 2.6203 5.2201 7.6791 0.0000 -10671.6410 1391.5720 0.0000 0.0000 1751.6262 -7512.9232 300.5826 -9264.5495 -7466.3918 299.4037 -186.5765 -182.8897 29884.2334 -215.9271 -148.3250
TCL: Running FEP window   9: Lambda1 0.5999999999999996 Lambda2 0.5499999999999996 [dLambda -0.050000000000000044]
TCL: Setting parameter firsttimestep to 0
TCL: Setting parameter alchLambda to 0.5999999999999996
Info: NONBONDED TABLE R-SQUARED SPACING: 0.0625
Info: NONBONDED TABLE SIZE: 705 POINTS
TCL: Setting parameter alchLambda2 to 0.5499999999999996
Info: NONBONDED TABLE R-SQUARED SPACING: 0.0625
Info: NONBONDED TABLE SIZE: 705 POINTS
TCL: Running for 1500000 steps
ETITLE: TS BOND ANGLE DIHED IMPRP ELECT VDW BOUNDARY MISC KINETIC TOTAL TEMP POTENTIAL TOTALAVG TEMPAVG PRESSURE GPRESSURE VOLUME PRESSAVG GPRESSAVG
ENERGY: 0 2.6203 5.2201 7.6791 0.0000 -10670.0492 1391.5904 0.0000 0.0000 1750.7942 -7512.1450 300.4398 -9262.9392 -7512.1450 300.4398 -270.7414 -187.2204 29884.2334 -270.7414 -187.2204
ENERGY: 300000 2.2841 4.1920 7.1509 0.0000 -10645.1133 1459.6686 0.0000 0.0000 1682.4587 -7489.3588 288.7133 -9171.8176 -7503.5641 296.9529 228.4724 314.6547 30459.0478 -23.3066 60.8858
ENERGY: 600000 3.9414 3.8379 7.7367 0.0000 -10683.0762 1440.5263 0.0000 0.0000 1749.5662 -7477.4676 300.2291 -9227.0339 -7486.2797 297.4942 268.5006 286.6178 29669.9128 -34.3432 12.6371
ENERGY: 900000 3.5951 6.5420 6.6646 0.0000 -10698.9584 1419.9879 0.0000 0.0000 1789.3434 -7472.8253 307.0549 -9262.1687 -7472.8729 299.6046 -60.4117 65.6693 30063.6760 -73.9681 -28.3887
ENERGY: 1200000 2.5810 2.2697 6.5432 0.0000 -10516.2465 1329.8039 0.0000 0.0000 1776.3822 -7398.6666 304.8308 -9175.0488 -7464.2742 299.9223 -619.1790 -570.0411 30547.4353 -170.7708 -120.9897
ENERGY: 1500000 1.8725 5.0368 8.0773 0.0000 -10677.4059 1467.0896 0.0000 0.0000 1765.5160 -7429.8137 302.9661 -9195.3298 -7469.2126 299.4413 553.4592 626.5369 30067.1684 -81.2142 -30.6700
TCL: Running FEP window  10: Lambda1 0.5499999999999996 Lambda2 0.4999999999999996 [dLambda -0.04999999999999999]
TCL: Setting parameter firsttimestep to 0
TCL: Setting parameter alchLambda to 0.5499999999999996
Info: NONBONDED TABLE R-SQUARED SPACING: 0.0625
Info: NONBONDED TABLE SIZE: 705 POINTS
TCL: Setting parameter alchLambda2 to 0.4999999999999996
Info: NONBONDED TABLE R-SQUARED SPACING: 0.0625
Info: NONBONDED TABLE SIZE: 705 POINTS
TCL: Running for 1500000 steps
ETITLE: TS BOND ANGLE DIHED IMPRP ELECT VDW BOUNDARY MISC KINETIC TOTAL TEMP POTENTIAL TOTALAVG TEMPAVG PRESSURE GPRESSURE VOLUME PRESSAVG GPRESSAVG
ENERGY: 0 1.8725 5.0368 8.0773 0.0000 -10677.3548 1467.5236 0.0000 0.0000 1764.6457 -7430.1989 302.8167 -9194.8446 -7430.1989 302.8167 548.5733 626.3798 30067.1684 548.5733 626.3798
ENERGY: 300000 2.5868 2.6613 7.6772 0.0000 -10710.7774 1467.4838 0.0000 0.0000 1746.0699 -7484.2982 299.6291 -9230.3682 -7464.0529 300.5287 378.0345 390.3768 29759.8084 434.4126 512.2879
ENERGY: 600000 1.4471 3.4722 6.3815 0.0000 -10623.0551 1381.1058 0.0000 0.0000 1783.8513 -7446.7971 306.1125 -9230.6484 -7464.8441 300.1773 -106.2166 -23.5778 29730.0782 172.3550 241.2401
ENERGY: 900000 2.8636 5.5523 6.3541 0.0000 -10728.5095 1456.5105 0.0000 0.0000 1736.8626 -7520.3663 298.0491 -9257.2289 -7463.3941 300.0741 88.7103 119.4865 29819.8057 59.0483 131.9162
ENERGY: 1200000 2.2688 2.1693 7.5059 0.0000 -10690.0281 1413.8497 0.0000 0.0000 1720.0510 -7544.1834 295.1642 -9264.2344 -7473.7302 299.9251 -469.1547 -412.2382 30688.9995 50.8347 115.5692
ENERGY: 1500000 3.3926 3.1608 7.1655 0.0000 -10602.7174 1393.3346 0.0000 0.0000 1727.5726 -7468.0914 296.4549 -9195.6640 -7468.2251 300.0398 20.1843 6.9101 29821.5577 -36.2793 14.4956
TCL: Running FEP window  11: Lambda1 0.4999999999999996 Lambda2 0.4499999999999996 [dLambda -0.04999999999999999]
TCL: Setting parameter firsttimestep to 0
TCL: Setting parameter alchLambda to 0.4999999999999996
Info: NONBONDED TABLE R-SQUARED SPACING: 0.0625
Info: NONBONDED TABLE SIZE: 705 POINTS
TCL: Setting parameter alchLambda2 to 0.4499999999999996
Info: NONBONDED TABLE R-SQUARED SPACING: 0.0625
Info: NONBONDED TABLE SIZE: 705 POINTS
TCL: Running for 1500000 steps
ETITLE: TS BOND ANGLE DIHED IMPRP ELECT VDW BOUNDARY MISC KINETIC TOTAL TEMP POTENTIAL TOTALAVG TEMPAVG PRESSURE GPRESSURE VOLUME PRESSAVG GPRESSAVG
ENERGY: 0 3.3926 3.1608 7.1655 0.0000 -10602.5216 1393.9704 0.0000 0.0000 1726.6769 -7468.1554 296.3012 -9194.8322 -7468.1554 296.3012 -64.4953 6.7797 29821.5577 -64.4953 6.7797
ENERGY: 300000 3.5284 6.3132 7.4474 0.0000 -10743.1706 1516.0490 0.0000 0.0000 1709.0348 -7500.7978 293.2738 -9209.8326 -7462.0468 296.2580 905.2417 953.0938 29769.9131 333.8896 396.1541
ENERGY: 600000 0.9756 8.4889 7.0881 0.0000 -10720.7846 1406.9231 0.0000 0.0000 1741.6094 -7555.6995 298.8637 -9297.3089 -7473.9122 297.2524 -673.4822 -625.2034 30778.3601 186.4127 242.9538
ENERGY: 900000 0.9147 7.2161 7.5705 0.0000 -10663.9532 1374.4071 0.0000 0.0000 1756.8833 -7516.9615 301.4847 -9273.8448 -7476.9454 298.4586 -527.9212 -502.1812 30161.2022 104.6907 159.6831
ENERGY: 1200000 1.5061 4.2449 6.6383 0.0000 -10463.5824 1286.0681 0.0000 0.0000 1731.8746 -7433.2505 297.1932 -9165.1251 -7468.6212 299.0524 -1268.1020 -1184.9999 30644.5750 -18.1723 36.3780
ENERGY: 1500000 2.4502 4.2276 9.1143 0.0000 -10730.0216 1456.1779 0.0000 0.0000 1744.4378 -7513.6139 299.3490 -9258.0517 -7461.9796 298.8252 242.8037 299.7505 29914.3916 -4.8708 51.1029
TCL: Running FEP window  12: Lambda1 0.4499999999999996 Lambda2 0.39999999999999963 [dLambda -0.04999999999999999]
TCL: Setting parameter firsttimestep to 0
TCL: Setting parameter alchLambda to 0.4499999999999996
Info: NONBONDED TABLE R-SQUARED SPACING: 0.0625
Info: NONBONDED TABLE SIZE: 705 POINTS
TCL: Setting parameter alchLambda2 to 0.39999999999999963
Info: NONBONDED TABLE R-SQUARED SPACING: 0.0625
Info: NONBONDED TABLE SIZE: 705 POINTS
TCL: Running for 1500000 steps
ETITLE: TS BOND ANGLE DIHED IMPRP ELECT VDW BOUNDARY MISC KINETIC TOTAL TEMP POTENTIAL TOTALAVG TEMPAVG PRESSURE GPRESSURE VOLUME PRESSAVG GPRESSAVG
ENERGY: 0 2.4502 4.2276 9.1143 0.0000 -10730.0220 1456.4505 0.0000 0.0000 1743.5363 -7514.2431 299.1943 -9257.7794 -7514.2431 299.1943 216.0796 296.3488 29914.3916 216.0796 296.3488
ENERGY: 300000 3.8394 5.5984 7.6530 0.0000 -10853.0537 1501.7796 0.0000 0.0000 1740.1798 -7594.0035 298.6183 -9334.1833 -7510.4105 301.1791 92.7449 189.8654 30099.1021 82.6412 159.5787
ENERGY: 600000 0.9947 3.9933 7.2698 0.0000 -10640.1704 1408.2100 0.0000 0.0000 1820.4808 -7399.2218 312.3982 -9219.7026 -7474.5965 301.6233 -194.6606 -94.7552 30139.0453 -2.0426 82.5359
ENERGY: 900000 1.2991 4.6772 7.8890 0.0000 -10626.9731 1441.5007 0.0000 0.0000 1749.0847 -7422.5223 300.1464 -9171.6070 -7449.0636 301.3850 316.4228 428.5229 29830.6434 105.3379 189.4473
ENERGY: 1200000 1.2783 7.1976 6.7516 0.0000 -10574.4125 1339.8440 0.0000 0.0000 1738.9708 -7480.3701 298.4109 -9219.3409 -7463.5534 299.5547 -860.4869 -798.4555 30384.4843 -15.1468 59.0846
ENERGY: 1500000 1.0879 4.8025 7.8109 0.0000 -10486.6041 1315.8560 0.0000 0.0000 1760.9057 -7396.1412 302.1749 -9157.0468 -7457.0538 300.4236 -747.6902 -701.3940 30400.1010 -9.5714 59.7666
TCL: Running FEP window  13: Lambda1 0.39999999999999963 Lambda2 0.34999999999999964 [dLambda -0.04999999999999999]
TCL: Setting parameter firsttimestep to 0
TCL: Setting parameter alchLambda to 0.39999999999999963
Info: NONBONDED TABLE R-SQUARED SPACING: 0.0625
Info: NONBONDED TABLE SIZE: 705 POINTS
TCL: Setting parameter alchLambda2 to 0.34999999999999964
Info: NONBONDED TABLE R-SQUARED SPACING: 0.0625
Info: NONBONDED TABLE SIZE: 705 POINTS
TCL: Running for 1500000 steps
ETITLE: TS BOND ANGLE DIHED IMPRP ELECT VDW BOUNDARY MISC KINETIC TOTAL TEMP POTENTIAL TOTALAVG TEMPAVG PRESSURE GPRESSURE VOLUME PRESSAVG GPRESSAVG
ENERGY: 0 1.0879 4.8025 7.8109 0.0000 -10486.6042 1316.4780 0.0000 0.0000 1760.1020 -7396.3229 302.0370 -9156.4249 -7396.3229 302.0370 -781.0197 -701.3554 30400.1010 -781.0197 -701.3554
ENERGY: 300000 0.6555 4.4212 8.0947 0.0000 -10668.3682 1460.0529 0.0000 0.0000 1783.9495 -7411.1945 306.1293 -9195.1440 -7442.6956 302.8505 238.3331 325.7689 30089.2104 -327.1493 -267.9073
ENERGY: 600000 3.4882 5.9047 6.9817 0.0000 -10852.4007 1597.4930 0.0000 0.0000 1772.1609 -7466.3722 304.1064 -9238.5331 -7454.4389 301.0631 1539.5578 1537.9528 29703.8344 -59.7702 -5.8594
ENERGY: 900000 2.2075 5.2252 7.5589 0.0000 -10657.5149 1478.4264 0.0000 0.0000 1752.5475 -7411.5494 300.7407 -9164.0969 -7454.6098 302.0739 527.5759 642.3619 29911.9299 -25.1208 33.0684
ENERGY: 1200000 0.5539 6.9633 6.4142 0.0000 -10596.8001 1408.9495 0.0000 0.0000 1795.8710 -7378.0481 308.1751 -9173.9191 -7448.9346 302.6630 4.3136 131.0475 30170.2572 -41.9487 26.6528
ENERGY: 1500000 1.6092 7.1158 7.4261 0.0000 -10535.7058 1369.0068 0.0000 0.0000 1793.7757 -7356.7722 307.8155 -9150.5479 -7442.3169 303.2160 -239.5533 -204.7905 30331.7562 -42.0350 17.7506
TCL: Running FEP window  14: Lambda1 0.34999999999999964 Lambda2 0.29999999999999966 [dLambda -0.04999999999999999]
TCL: Setting parameter firsttimestep to 0
TCL: Setting parameter alchLambda to 0.34999999999999964
Info: NONBONDED TABLE R-SQUARED SPACING: 0.0625
Info: NONBONDED TABLE SIZE: 705 POINTS
TCL: Setting parameter alchLambda2 to 0.29999999999999966
Info: NONBONDED TABLE R-SQUARED SPACING: 0.0625
Info: NONBONDED TABLE SIZE: 705 POINTS
TCL: Running for 1500000 steps
ETITLE: TS BOND ANGLE DIHED IMPRP ELECT VDW BOUNDARY MISC KINETIC TOTAL TEMP POTENTIAL TOTALAVG TEMPAVG PRESSURE GPRESSURE VOLUME PRESSAVG GPRESSAVG
ENERGY: 0 1.6092 7.1158 7.4261 0.0000 -10535.7052 1369.2219 0.0000 0.0000 1792.9118 -7357.4204 307.6673 -9150.3322 -7357.4204 307.6673 -294.4578 -206.8796 30331.7562 -294.4578 -206.8796
ENERGY: 300000 2.5346 6.5757 7.1689 0.0000 -10482.0030 1296.4637 0.0000 0.0000 1762.4522 -7406.8079 302.4403 -9169.2602 -7409.2141 306.6609 -1179.9332 -1087.5445 30344.3228 -551.2551 -475.1143
ENERGY: 600000 3.2929 9.3914 7.8457 0.0000 -10756.9395 1388.5902 0.0000 0.0000 1768.9868 -7578.8325 303.5617 -9347.8193 -7441.3951 302.0517 -680.9437 -618.7508 29827.5084 -336.4052 -256.1035
ENERGY: 900000 1.1331 6.5791 8.5903 0.0000 -10643.9692 1445.3552 0.0000 0.0000 1719.9959 -7462.3157 295.1547 -9182.3115 -7462.0021 299.7698 177.2391 181.1371 30315.2982 -470.0890 -400.8740
ENERGY: 1200000 0.5482 6.8729 6.3757 0.0000 -10728.4656 1502.8442 0.0000 0.0000 1716.8586 -7494.9660 294.6164 -9211.8247 -7465.0651 299.3880 884.7878 879.4566 29685.6436 -159.4911 -94.6873
ENERGY: 1500000 0.6178 5.8517 8.2428 0.0000 -10668.8580 1375.8009 0.0000 0.0000 1743.5638 -7534.7810 299.1991 -9278.3448 -7456.0263 300.0318 -839.1872 -722.5268 30101.0686 -193.7906 -123.2608
TCL: Running FEP window  15: Lambda1 0.29999999999999966 Lambda2 0.24999999999999967 [dLambda -0.04999999999999999]
TCL: Setting parameter firsttimestep to 0
TCL: Setting parameter alchLambda to 0.29999999999999966
Info: NONBONDED TABLE R-SQUARED SPACING: 0.0625
Info: NONBONDED TABLE SIZE: 705 POINTS
TCL: Setting parameter alchLambda2 to 0.24999999999999967
Info: NONBONDED TABLE R-SQUARED SPACING: 0.0625
Info: NONBONDED TABLE SIZE: 705 POINTS
TCL: Running for 1500000 steps
ETITLE: TS BOND ANGLE DIHED IMPRP ELECT VDW BOUNDARY MISC KINETIC TOTAL TEMP POTENTIAL TOTALAVG TEMPAVG PRESSURE GPRESSURE VOLUME PRESSAVG GPRESSAVG
ENERGY: 0 0.6178 5.8517 8.2428 0.0000 -10668.8592 1375.5773 0.0000 0.0000 1742.7289 -7535.8407 299.0558 -9278.5697 -7535.8407 299.0558 -820.1381 -730.8010 30101.0686 -820.1381 -730.8010
ENERGY: 300000 2.2006 10.5306 5.8173 0.0000 -10524.5343 1389.2516 0.0000 0.0000 1725.6410 -7391.0932 296.1235 -9116.7342 -7499.3743 295.8900 9.5507 28.9208 30156.7218 -326.8408 -258.8240
ENERGY: 600000 0.7559 4.3056 7.1341 0.0000 -10561.2660 1336.3200 0.0000 0.0000 1724.1597 -7488.5906 295.8693 -9212.7504 -7464.7812 298.1019 -628.4845 -522.6133 29803.9433 -267.1692 -193.0200
ENERGY: 900000 1.7304 4.8330 7.9715 0.0000 -10548.8125 1352.1874 0.0000 0.0000 1704.9500 -7477.1403 292.5728 -9182.0903 -7457.2106 298.1677 -700.7609 -631.4857 30386.6963 -152.0546 -86.0192
ENERGY: 1200000 3.5968 2.2632 8.1082 0.0000 -10697.4995 1445.0210 0.0000 0.0000 1711.1588 -7527.3513 293.6383 -9238.5102 -7466.5921 298.1662 34.2469 82.4510 30026.0870 -121.7363 -51.8290
ENERGY: 1500000 2.2865 5.0804 7.1143 0.0000 -10724.8662 1465.7732 0.0000 0.0000 1680.1332 -7564.4786 288.3142 -9244.6118 -7470.2402 297.1390 68.3821 165.1937 30175.3108 -120.0077 -46.6435
TCL: Running FEP window  16: Lambda1 0.24999999999999967 Lambda2 0.19999999999999968 [dLambda -0.04999999999999999]
TCL: Setting parameter firsttimestep to 0
TCL: Setting parameter alchLambda to 0.24999999999999967
Info: NONBONDED TABLE R-SQUARED SPACING: 0.0625
Info: NONBONDED TABLE SIZE: 705 POINTS
TCL: Setting parameter alchLambda2 to 0.19999999999999968
Info: NONBONDED TABLE R-SQUARED SPACING: 0.0625
Info: NONBONDED TABLE SIZE: 705 POINTS
TCL: Running for 1500000 steps
ETITLE: TS BOND ANGLE DIHED IMPRP ELECT VDW BOUNDARY MISC KINETIC TOTAL TEMP POTENTIAL TOTALAVG TEMPAVG PRESSURE GPRESSURE VOLUME PRESSAVG GPRESSAVG
ENERGY: 0 2.2865 5.0804 7.1143 0.0000 -10724.8656 1466.2204 0.0000 0.0000 1679.2400 -7564.9240 288.1610 -9244.1639 -7564.9240 288.1610 79.9247 162.7251 30175.3108 79.9247 162.7251
ENERGY: 300000 1.1829 3.8498 7.2043 0.0000 -10800.2125 1521.3429 0.0000 0.0000 1715.0603 -7551.5724 294.3078 -9266.6327 -7514.7594 297.4438 938.2735 884.2075 29694.8742 316.1288 344.8972
ENERGY: 600000 2.8856 4.7696 6.1416 0.0000 -10671.9644 1423.1351 0.0000 0.0000 1758.4694 -7476.5632 301.7569 -9235.0326 -7495.1770 299.8753 -219.4338 -168.5836 30366.7070 168.2948 218.9929
ENERGY: 900000 0.5506 4.9060 7.0870 0.0000 -10604.7113 1368.3123 0.0000 0.0000 1767.7265 -7456.1290 303.3454 -9223.8554 -7487.4348 299.8686 -819.8628 -697.0165 30510.0381 -71.4807 -9.6047
ENERGY: 1200000 0.2950 7.0563 7.2834 0.0000 -10670.0670 1438.7247 0.0000 0.0000 1749.2592 -7467.4484 300.1764 -9216.7077 -7476.5733 300.0763 152.5762 232.9433 29788.4547 41.5626 103.9706
ENERGY: 1500000 3.6991 8.1565 7.1826 0.0000 -10579.1640 1327.5505 0.0000 0.0000 1764.1974 -7468.3779 302.7398 -9232.5753 -7475.1938 300.7517 -771.4006 -711.7697 30235.6250 -2.4098 57.4848
TCL: Running FEP window  17: Lambda1 0.19999999999999968 Lambda2 0.1499999999999997 [dLambda -0.04999999999999999]
TCL: Setting parameter firsttimestep to 0
TCL: Setting parameter alchLambda to 0.19999999999999968
Info: NONBONDED TABLE R-SQUARED SPACING: 0.0625
Info: NONBONDED TABLE SIZE: 705 POINTS
TCL: Setting parameter alchLambda2 to 0.1499999999999997
Info: NONBONDED TABLE R-SQUARED SPACING: 0.0625
Info: NONBONDED TABLE SIZE: 705 POINTS
TCL: Running for 1500000 steps
ETITLE: TS BOND ANGLE DIHED IMPRP ELECT VDW BOUNDARY MISC KINETIC TOTAL TEMP POTENTIAL TOTALAVG TEMPAVG PRESSURE GPRESSURE VOLUME PRESSAVG GPRESSAVG
ENERGY: 0 3.6991 8.1565 7.1826 0.0000 -10579.1656 1328.0184 0.0000 0.0000 1763.2848 -7468.8242 302.5832 -9232.1090 -7468.8242 302.5832 -791.6060 -711.6651 30235.6250 -791.6060 -711.6651
ENERGY: 300000 1.3470 7.2949 7.1487 0.0000 -10631.6413 1419.8767 0.0000 0.0000 1813.3082 -7382.6658 311.1673 -9195.9740 -7413.0699 304.8434 33.8845 87.9157 30023.6352 -420.3253 -380.6483
ENERGY: 600000 2.0118 3.3596 8.1859 0.0000 -10690.5606 1466.7519 0.0000 0.0000 1797.4783 -7412.7732 308.4509 -9210.2515 -7416.7348 304.8169 791.1475 848.6857 29217.0392 -142.7611 -93.2406
ENERGY: 900000 3.8392 4.8405 6.9325 0.0000 -10702.7929 1493.0924 0.0000 0.0000 1789.9948 -7404.0935 307.1667 -9194.0883 -7429.1543 303.5978 541.9670 647.8390 30100.1705 -41.6367 13.5112
ENERGY: 1200000 1.5535 4.7272 6.5551 0.0000 -10691.8992 1479.3716 0.0000 0.0000 1795.3415 -7404.3503 308.0842 -9199.6918 -7437.1752 303.8872 424.2625 432.5828 30130.6580 -43.8488 4.5974
ENERGY: 1500000 0.4966 5.5863 7.3660 0.0000 -10670.3188 1418.4550 0.0000 0.0000 1710.9657 -7527.4492 293.6052 -9238.4149 -7446.7931 302.4712 -59.3413 -47.6503 30031.3792 -106.1933 -56.6503
TCL: Running FEP window  18: Lambda1 0.1499999999999997 Lambda2 0.09999999999999969 [dLambda -0.05 ]
TCL: Setting parameter firsttimestep to 0
TCL: Setting parameter alchLambda to 0.1499999999999997
Info: NONBONDED TABLE R-SQUARED SPACING: 0.0625
Info: NONBONDED TABLE SIZE: 705 POINTS
TCL: Setting parameter alchLambda2 to 0.09999999999999969
Info: NONBONDED TABLE R-SQUARED SPACING: 0.0625
Info: NONBONDED TABLE SIZE: 705 POINTS
TCL: Running for 1500000 steps
ETITLE: TS BOND ANGLE DIHED IMPRP ELECT VDW BOUNDARY MISC KINETIC TOTAL TEMP POTENTIAL TOTALAVG TEMPAVG PRESSURE GPRESSURE VOLUME PRESSAVG GPRESSAVG
ENERGY: 0 0.4966 5.5863 7.3660 0.0000 -10670.3198 1418.9466 0.0000 0.0000 1710.1090 -7527.8153 293.4581 -9237.9243 -7527.8153 293.4581 -136.6600 -46.8123 30031.3792 -136.6600 -46.8123
ENERGY: 300000 1.1361 4.7316 7.5326 0.0000 -10535.5939 1365.7152 0.0000 0.0000 1706.6108 -7449.8675 292.8578 -9156.4783 -7490.4748 298.6028 -546.4831 -514.0010 30300.1039 -44.6063 5.6535
ENERGY: 600000 2.8211 2.4949 8.5676 0.0000 -10725.8626 1485.2417 0.0000 0.0000 1736.8005 -7489.9368 298.0385 -9226.7373 -7481.9008 297.7170 458.9007 516.0407 29784.5253 102.5958 151.1597
ENERGY: 900000 0.6375 6.5216 6.4827 0.0000 -10664.0930 1430.2091 0.0000 0.0000 1751.2267 -7469.0154 300.5140 -9220.2421 -7473.0877 299.5126 -132.6934 12.2528 30118.9076 9.7501 69.6533
ENERGY: 1200000 1.2818 7.4640 6.9159 0.0000 -10559.0434 1429.8511 0.0000 0.0000 1790.9684 -7322.5622 307.3338 -9113.5306 -7464.1046 299.9058 688.8061 794.3273 29507.6246 38.0220 95.1187
ENERGY: 1500000 2.2729 3.7788 10.4526 0.0000 -10722.9594 1468.0015 0.0000 0.0000 1760.2888 -7478.1649 302.0691 -9238.4537 -7463.3974 300.0185 350.3640 492.4360 29462.0180 79.6225 135.6329
TCL: Running FEP window  19: Lambda1 0.09999999999999969 Lambda2 0.049999999999999684 [dLambda -0.05 ]
TCL: Setting parameter firsttimestep to 0
TCL: Setting parameter alchLambda to 0.09999999999999969
Info: NONBONDED TABLE R-SQUARED SPACING: 0.0625
Info: NONBONDED TABLE SIZE: 705 POINTS
TCL: Setting parameter alchLambda2 to 0.049999999999999684
Info: NONBONDED TABLE R-SQUARED SPACING: 0.0625
Info: NONBONDED TABLE SIZE: 705 POINTS
TCL: Running for 1500000 steps
ETITLE: TS BOND ANGLE DIHED IMPRP ELECT VDW BOUNDARY MISC KINETIC TOTAL TEMP POTENTIAL TOTALAVG TEMPAVG PRESSURE GPRESSURE VOLUME PRESSAVG GPRESSAVG
ENERGY: 0 2.2729 3.7788 10.4526 0.0000 -10722.9587 1468.2646 0.0000 0.0000 1759.4223 -7478.7675 301.9204 -9238.1899 -7478.7675 301.9204 398.5535 490.0592 29462.0180 398.5535 490.0592
ENERGY: 300000 0.8575 6.2422 7.2642 0.0000 -10655.0224 1396.1779 0.0000 0.0000 1776.4607 -7468.0198 304.8442 -9244.4805 -7466.7830 300.2969 -304.8065 -217.9652 29906.3244 163.2748 214.3655
ENERGY: 600000 2.5021 5.3330 9.7142 0.0000 -10798.6646 1446.5838 0.0000 0.0000 1765.9393 -7568.5923 303.0387 -9334.5316 -7487.5857 302.2532 -48.4198 -3.9412 29520.4971 52.0807 111.3094
ENERGY: 900000 1.8171 3.6884 6.8901 0.0000 -10667.5060 1355.1405 0.0000 0.0000 1746.0554 -7553.9144 299.6266 -9299.9698 -7490.8543 301.6137 -707.3317 -634.1152 29673.2895 -87.0282 -18.9336
ENERGY: 1200000 2.3200 6.0720 7.3201 0.0000 -10545.7597 1343.0669 0.0000 0.0000 1698.2559 -7488.7247 291.4241 -9186.9806 -7477.8974 301.0875 -772.2494 -677.2633 30305.2944 -99.0259 -30.7302
ENERGY: 1500000 2.3278 7.1903 8.4705 0.0000 -10738.9434 1458.6020 0.0000 0.0000 1783.1119 -7479.2408 305.9856 -9262.3527 -7475.2822 301.6850 -34.6043 10.4408 30363.6218 -87.7466 -24.4382
TCL: Running FEP window  20: Lambda1 0.049999999999999684 Lambda2 0.0    [dLambda -0.049999999999999684]
TCL: Setting parameter firsttimestep to 0
TCL: Setting parameter alchLambda to 0.049999999999999684
Info: NONBONDED TABLE R-SQUARED SPACING: 0.0625
Info: NONBONDED TABLE SIZE: 705 POINTS
TCL: Setting parameter alchLambda2 to 0.0
Info: NONBONDED TABLE R-SQUARED SPACING: 0.0625
Info: NONBONDED TABLE SIZE: 705 POINTS
TCL: Running for 1500000 steps
ETITLE: TS BOND ANGLE DIHED IMPRP ELECT VDW BOUNDARY MISC KINETIC TOTAL TEMP POTENTIAL TOTALAVG TEMPAVG PRESSURE GPRESSURE VOLUME PRESSAVG GPRESSAVG
ENERGY: 0 2.3278 7.1903 8.4705 0.0000 -10738.9431 1458.0533 0.0000 0.0000 1782.2632 -7480.6380 305.8399 -9262.9012 -7480.6380 305.8399 -65.7838 6.6387 30363.6218 -65.7838 6.6387
ENERGY: 300000 2.5200 5.8951 8.2384 0.0000 -10575.2136 1399.8785 0.0000 0.0000 1822.8815 -7335.8001 312.8101 -9158.6816 -7464.9969 299.6940 -265.6419 -208.1942 30326.2202 -220.1333 -149.9246
ENERGY: 600000 0.7641 6.1145 6.8096 0.0000 -10598.2793 1422.2743 0.0000 0.0000 1773.3250 -7388.9918 304.3061 -9162.3167 -7464.8026 300.4327 -179.0950 -113.4171 30235.7476 -203.6312 -140.0425
ENERGY: 900000 5.1252 6.9791 6.4417 0.0000 -10767.5727 1541.3673 0.0000 0.0000 1772.3536 -7435.3057 304.1394 -9207.6594 -7463.1648 301.0689 819.6250 846.0508 30249.1376 38.2469 94.0862
ENERGY: 1200000 1.1159 4.5224 7.1228 0.0000 -10666.6983 1404.0187 0.0000 0.0000 1760.2962 -7489.6223 302.0704 -9249.9185 -7487.9893 299.6852 -165.4726 -149.2313 29603.7641 42.2025 94.3997
ENERGY: 1500000 1.2785 2.3264 7.1317 0.0000 -10687.0101 1382.0381 0.0000 0.0000 1791.0224 -7503.2130 307.3430 -9294.2355 -7495.0639 299.7676 -718.1926 -640.4359 30061.2581 -35.6419 16.9440
TCL: Exiting due to exit command.
