Info: SIMULATION PARAMETERS:
Info: TIMESTEP               2
Info: NUMBER OF STEPS        0
Info: STEPS PER CYCLE        10
Info: PERIODIC CELL BASIS 1  30.3131 0 0
Info: PERIODIC CELL BASIS 2  0 29.5218 0
Info: PERIODIC CELL BASIS 3  0 0 34.0102
Info: PERIODIC CELL CENTER   0 0 0
Info: WRAPPING WATERS AROUND PERIODIC BOUNDARIES ON OUTPUT.
Info: WRAPPING ALL CLUSTERS AROUND PERIODIC BOUNDARIES ON OUTPUT.
Info: FIRST LDB TIMESTEP     50
Info: LAST LDB TIMESTEP     -1
Info: HOM BACKGROUND SCALING 1
Info: PME BACKGROUND SCALING 1
Info: MIN ATOMS PER PATCH    40
Info: EMPTY PATCH LOAD       40 ATOMS
Info: VELOCITY FILE          mobley_349850_equil.vel
Info: CENTER OF MASS MOVING INITIALLY? NO
Info: DIELECTRIC             1
Info: EXCLUDE                SCALED ONE-FOUR
Info: 1-4 ELECTROSTATICS SCALED BY 0.833333
Info: MODIFIED 1-4 VDW PARAMETERS WILL BE USED
Info: DCD FILENAME           mobley_349850_prod.dcd
Info: DCD FREQUENCY          100000
Info: DCD FIRST STEP         100000
Info: DCD FILE WILL CONTAIN UNIT CELL DATA
Info: XST FILENAME           mobley_349850_prod.xst
Info: XST FREQUENCY          100000
Info: NO VELOCITY DCD OUTPUT
Info: NO FORCE DCD OUTPUT
Info: OUTPUT FILENAME        mobley_349850_prod
Info: BINARY OUTPUT FILES WILL BE USED
Info: RESTART FILENAME       mobley_349850_prod.restart
Info: RESTART FREQUENCY      100000
Info: BINARY RESTART FILES WILL BE USED
Info: CUTOFF                 9
Info: PAIRLIST DISTANCE      11
Info: PAIRLIST SHRINK RATE   0.01
Info: PAIRLIST GROW RATE     0.01
Info: PAIRLIST TRIGGER       0.3
Info: PAIRLISTS PER CYCLE    2
Info: PAIRLISTS ENABLED
Info: MARGIN                 2
Info: HYDROGEN GROUP CUTOFF  2.5
Info: PATCH DIMENSION        15.5
Info: ENERGY OUTPUT STEPS    100000
Info: ENERGY EVALUATION STEPS    100000
Info: OUTPUT ENERGY PRECISION 4
Info: CROSSTERM ENERGY INCLUDED IN DIHEDRAL
Info: TIMING OUTPUT STEPS    1000000
Info: PRESSURE OUTPUT STEPS  100000
Info: ALCHEMICAL FEP ON
Info: FEP CURRENT LAMBDA VALUE     1
Info: FEP COMPARISON LAMBDA VALUE  0.95
Info: FEP INTRA-ALCHEMICAL NON-BONDED INTERACTIONS WILL BE RETAINED
Info: FEP INTRA-ALCHEMICAL BONDED INTERACTIONS WILL BE RETAINED
Info: FEP VDW SHIFTING COEFFICIENT 5
Info: FEP ELEC. ACTIVE FOR ANNIHILATED PARTICLES BETWEEN LAMBDA = 0 AND LAMBDA = 0.5
Info: FEP ELEC. ACTIVE FOR EXNIHILATED PARTICLES BETWEEN LAMBDA = 0.5 AND LAMBDA = 1
Info: FEP VDW ACTIVE FOR ANNIHILATED PARTICLES BETWEEN LAMBDA = 0 AND LAMBDA = 1
Info: FEP VDW ACTIVE FOR EXNIHILATED PARTICLES BETWEEN LAMBDA = 0 AND LAMBDA = 1
Info: FEP BOND ACTIVE FOR ANNIHILATED PARTICLES BETWEEN LAMBDA = 1 AND LAMBDA = 1
Info: FEP BOND ACTIVE FOR EXNIHILATED PARTICLES BETWEEN LAMBDA = 0 AND LAMBDA = 0
Info: LANGEVIN DYNAMICS ACTIVE
Info: LANGEVIN TEMPERATURE   300
Info: LANGEVIN USING BBK INTEGRATOR
Info: LANGEVIN DAMPING COEFFICIENT IS 1 INVERSE PS
Info: LANGEVIN DYNAMICS APPLIED TO HYDROGENS
Info: LANGEVIN PISTON PRESSURE CONTROL ACTIVE
Info:        TARGET PRESSURE IS 1.01325 BAR
Info:     OSCILLATION PERIOD IS 50 FS
Info:             DECAY TIME IS 25 FS
Info:     PISTON TEMPERATURE IS 300 K
Info:       PRESSURE CONTROL IS GROUP-BASED
Info:    INITIAL STRAIN RATE IS -2.41942e-05 -2.41942e-05 -2.41942e-05
Info:       CELL FLUCTUATION IS ISOTROPIC
Info: PARTICLE MESH EWALD (PME) ACTIVE
Info: PME TOLERANCE               1e-06
Info: PME EWALD COEFFICIENT       0.348832
Info: PME INTERPOLATION ORDER     4
Info: PME GRID DIMENSIONS         32 32 36
Info: PME MAXIMUM GRID SPACING    1
Info: PME CALCULATION WILL BE PERFORMED ON GPU
Info: FULL ELECTROSTATIC EVALUATION FREQUENCY      2
Info: USING VERLET I (r-RESPA) MTS SCHEME.
Info: C1 SPLITTING OF LONG RANGE ELECTROSTATICS
Info: PLACING ATOMS IN PATCHES BY HYDROGEN GROUPS
Info: RIGID BONDS TO HYDROGEN : ALL
Info:         ERROR TOLERANCE : 1e-08
Info:          MAX ITERATIONS : 100
Info: RIGID WATER USING SETTLE ALGORITHM
Info: RANDOM NUMBER SEED     1743784092
Info: USE HYDROGEN BONDS?    NO
Info: Using AMBER format force field!
Info: AMBER PARM FILE        mobley_349850.prmtop
Info: COORDINATE PDB         mobley_349850.pdb
Info: Exclusions will be read from PARM file!
Info: SCNB (VDW SCALING)     2
Info: USING ARITHMETIC MEAN TO COMBINE L-J SIGMA PARAMETERS
Info: BINARY COORDINATES     mobley_349850_equil.coor
Info: SUMMARY OF PARAMETERS:
Info: 9 BONDS
Info: 10 ANGLES
Info:   10 HARMONIC
Info:   0 COSINE-BASED
Info: 8 DIHEDRAL
Info: 0 IMPROPER
Info: 0 CROSSTERM
Info: 0 VDW
Info: 28 VDW_PAIRS
Info: 0 NBTHOLE_PAIRS
Info: To read alchdata from file: mobley_349850.pdb
Info: To read alchflag data from column: 5
Info: STRUCTURE SUMMARY:
Info: 2924 ATOMS
Info: 2924 BONDS
Info: 33 ANGLES
Info: 53 DIHEDRALS
Info: 0 IMPROPERS
Info: 0 CROSSTERMS
Info: 2994 EXCLUSIONS
Info: 2914 RIGID BONDS
Info: ALCH: 0 ATOMS TO DISAPPEAR IN FINAL STATE
Info: ALCH: 20 ATOMS TO APPEAR IN FINAL STATE
Info: 5858 DEGREES OF FREEDOM
Info: 978 HYDROGEN GROUPS
Info: 4 ATOMS IN LARGEST HYDROGEN GROUP
Info: 978 MIGRATION GROUPS
Info: 4 ATOMS IN LARGEST MIGRATION GROUP
Info: TOTAL MASS = 17573.7 amu
Info: TOTAL CHARGE = -0.000100061 e
Info: MASS DENSITY = 0.958825 g/cm^3
Info: ATOM DENSITY = 0.0960717 atoms/A^3
Info: ADDED 0 IMPLICIT EXCLUSIONS
Info: NONBONDED TABLE R-SQUARED SPACING: 0.0625
Info: NONBONDED TABLE SIZE: 705 POINTS
Info: REMOVING COM VELOCITY -0.053036 -0.0396543 0.0150275
Info: Use 3D box decompostion in PME FFT.
Info: Updated CUDA force table with 4096 elements.
Info: Updated CUDA LJ table with 7 x 7 elements.
Info: Found 22 unique exclusion lists needing 60 bytes
TCL: Running for 1500000 steps
ETITLE: TS BOND ANGLE DIHED IMPRP ELECT VDW BOUNDARY MISC KINETIC TOTAL TEMP POTENTIAL TOTALAVG TEMPAVG PRESSURE GPRESSURE VOLUME PRESSAVG GPRESSAVG
ENERGY: 0 2.2011 4.4212 4.3715 0.0000 -10578.1672 1411.4199 0.0000 0.0000 1714.0812 -7441.6722 294.4913 -9155.7534 -7441.6722 294.4913 -197.5173 -114.7866 30435.6044 -197.5173 -114.7866
ENERGY: 300000 4.5217 5.7418 5.5591 0.0000 -10461.4463 1332.6367 0.0000 0.0000 1773.8076 -7339.1796 304.7527 -9112.9872 -7413.0118 301.2965 -792.0062 -766.4840 30370.5942 -232.4444 -187.9563
ENERGY: 600000 1.7801 6.3591 4.4627 0.0000 -10519.4263 1386.2044 0.0000 0.0000 1757.2811 -7363.3388 301.9133 -9120.6199 -7402.7158 300.6093 -62.5365 -85.1732 30224.4619 -90.8002 -50.7535
ENERGY: 900000 4.7634 7.8190 7.1493 0.0000 -10479.3333 1303.9576 0.0000 0.0000 1752.7574 -7402.8866 301.1361 -9155.6440 -7410.2712 299.9038 -760.8774 -756.1417 29946.4944 -196.7382 -154.6769
ENERGY: 1200000 2.4350 4.2036 3.4336 0.0000 -10636.5631 1463.8631 0.0000 0.0000 1742.1787 -7420.4490 299.3186 -9162.6277 -7418.9739 298.8527 435.1345 525.5285 29797.7793 -148.7634 -98.6631
ENERGY: 1500000 2.5467 8.5677 8.1469 0.0000 -10498.0263 1421.0625 0.0000 0.0000 1784.5041 -7273.1985 306.5904 -9057.7026 -7397.7420 299.5350 272.0047 300.3126 30304.8234 -148.2053 -94.5671
TCL: Running FEP window   2: Lambda1 0.95   Lambda2 0.8999999999999999 [dLambda -0.050000000000000044]
TCL: Setting parameter firsttimestep to 0
TCL: Setting parameter alchLambda to 0.95
Info: NONBONDED TABLE R-SQUARED SPACING: 0.0625
Info: NONBONDED TABLE SIZE: 705 POINTS
TCL: Setting parameter alchLambda2 to 0.8999999999999999
Info: NONBONDED TABLE R-SQUARED SPACING: 0.0625
Info: NONBONDED TABLE SIZE: 705 POINTS
TCL: Running for 1500000 steps
ETITLE: TS BOND ANGLE DIHED IMPRP ELECT VDW BOUNDARY MISC KINETIC TOTAL TEMP POTENTIAL TOTALAVG TEMPAVG PRESSURE GPRESSURE VOLUME PRESSAVG GPRESSAVG
ENERGY: 0 2.5467 8.5677 8.1469 0.0000 -10497.3117 1421.1065 0.0000 0.0000 1783.6719 -7273.2720 306.4474 -9056.9439 -7273.2720 306.4474 208.0899 288.5715 30304.8234 208.0899 288.5715
ENERGY: 300000 2.9800 8.3814 4.2974 0.0000 -10612.0638 1470.2363 0.0000 0.0000 1754.8878 -7371.2808 301.5021 -9126.1686 -7383.2279 300.6206 661.8128 712.8503 30267.2540 126.3498 171.3398
ENERGY: 600000 2.6182 7.0472 4.6883 0.0000 -10672.8097 1464.7374 0.0000 0.0000 1732.2394 -7461.4792 297.6110 -9193.7186 -7399.7454 299.2425 342.3491 412.4743 29800.2770 56.0508 106.8019
ENERGY: 900000 6.8718 8.3180 9.2038 0.0000 -10702.7660 1495.0173 0.0000 0.0000 1772.4680 -7410.8871 304.5225 -9183.3551 -7396.0272 301.1271 960.3262 984.9305 29374.6866 171.6142 215.8322
ENERGY: 1200000 4.6532 11.3911 3.9971 0.0000 -10656.7333 1417.5777 0.0000 0.0000 1734.5382 -7484.5759 298.0059 -9219.1141 -7403.6231 300.3636 -167.8553 -56.1624 30268.5318 148.7575 197.5605
ENERGY: 1500000 1.1263 6.8157 6.7604 0.0000 -10611.0834 1424.5295 0.0000 0.0000 1788.8641 -7382.9874 307.3395 -9171.8515 -7399.2501 300.0790 161.1568 181.6048 29946.2643 68.0949 117.4513
TCL: Running FEP window   3: Lambda1 0.8999999999999999 Lambda2 0.8499999999999999 [dLambda -0.050000000000000044]
TCL: Setting parameter firsttimestep to 0
TCL: Setting parameter alchLambda to 0.8999999999999999
Info: NONBONDED TABLE R-SQUARED SPACING: 0.0625
Info: NONBONDED TABLE SIZE: 705 POINTS
TCL: Setting parameter alchLambda2 to 0.8499999999999999
Info: NONBONDED TABLE R-SQUARED SPACING: 0.0625
Info: NONBONDED TABLE SIZE: 705 POINTS
TCL: Running for 1500000 steps
ETITLE: TS BOND ANGLE DIHED IMPRP ELECT VDW BOUNDARY MISC KINETIC TOTAL TEMP POTENTIAL TOTALAVG TEMPAVG PRESSURE GPRESSURE VOLUME PRESSAVG GPRESSAVG
ENERGY: 0 1.1263 6.8157 6.7604 0.0000 -10609.9624 1424.4808 0.0000 0.0000 1788.0328 -7382.7465 307.1967 -9170.7792 -7382.7465 307.1967 78.9416 164.7144 29946.2643 78.9416 164.7144
ENERGY: 300000 1.8278 8.2346 6.6018 0.0000 -10476.8407 1409.4302 0.0000 0.0000 1803.1969 -7247.5495 309.8020 -9050.7463 -7348.0565 304.6461 295.2725 324.2216 30215.8416 201.2574 247.9741
ENERGY: 600000 4.2277 6.9554 7.1489 0.0000 -10662.1265 1453.6491 0.0000 0.0000 1692.7715 -7497.3739 290.8301 -9190.1454 -7389.2733 299.4766 82.0226 97.6496 29981.8112 148.5089 203.9444
ENERGY: 900000 4.5125 7.8865 6.5367 0.0000 -10533.5970 1427.4154 0.0000 0.0000 1711.5004 -7375.7455 294.0479 -9087.2459 -7398.5472 298.7887 222.1951 306.6303 30038.2575 181.1711 235.0412
ENERGY: 1200000 2.8657 11.3663 6.9362 0.0000 -10691.1692 1442.1287 0.0000 0.0000 1753.3460 -7474.5263 301.2372 -9227.8722 -7402.1555 298.7607 166.9400 221.7905 29593.0131 160.1992 205.7050
ENERGY: 1500000 3.8198 4.3501 6.0745 0.0000 -10732.3008 1514.2442 0.0000 0.0000 1740.6846 -7463.1275 299.0619 -9203.8122 -7399.0267 299.2074 668.2077 742.3843 29814.7172 212.8904 255.3652
TCL: Running FEP window   4: Lambda1 0.8499999999999999 Lambda2 0.7999999999999998 [dLambda -0.050000000000000044]
TCL: Setting parameter firsttimestep to 0
TCL: Setting parameter alchLambda to 0.8499999999999999
Info: NONBONDED TABLE R-SQUARED SPACING: 0.0625
Info: NONBONDED TABLE SIZE: 705 POINTS
TCL: Setting parameter alchLambda2 to 0.7999999999999998
Info: NONBONDED TABLE R-SQUARED SPACING: 0.0625
Info: NONBONDED TABLE SIZE: 705 POINTS
TCL: Running for 1500000 steps
ETITLE: TS BOND ANGLE DIHED IMPRP ELECT VDW BOUNDARY MISC KINETIC TOTAL TEMP POTENTIAL TOTALAVG TEMPAVG PRESSURE GPRESSURE VOLUME PRESSAVG GPRESSAVG
ENERGY: 0 3.8199 4.3501 6.0745 0.0000 -10731.3696 1513.6881 0.0000 0.0000 1739.8294 -7463.6076 298.9150 -9203.4370 -7463.6076 298.9150 641.7401 723.4749 29814.7172 641.7401 723.4749
ENERGY: 300000 4.2115 6.5395 5.6032 0.0000 -10503.4353 1394.4786 0.0000 0.0000 1730.6480 -7361.9545 297.3376 -9092.6026 -7409.6626 299.8179 -257.9756 -167.8050 30326.4584 337.1253 391.3990
ENERGY: 600000 2.8247 7.0231 9.0949 0.0000 -10573.3851 1420.2763 0.0000 0.0000 1695.1104 -7439.0557 291.2319 -9134.1661 -7410.0938 297.2090 145.3078 178.1435 29861.5213 27.4149 87.1170
ENERGY: 900000 5.5264 8.0528 4.6523 0.0000 -10460.8927 1355.3725 0.0000 0.0000 1769.0521 -7318.2366 303.9356 -9087.2887 -7400.2816 299.5784 -768.4622 -735.7805 30630.3340 -109.5714 -54.9566
ENERGY: 1200000 4.5209 9.1119 7.6636 0.0000 -10609.3977 1425.7656 0.0000 0.0000 1742.3504 -7419.9852 299.3481 -9162.3356 -7397.1346 299.7981 -105.0102 -52.1043 30333.2383 -104.5967 -50.2179
ENERGY: 1500000 5.2822 9.8890 4.1313 0.0000 -10541.8675 1381.2624 0.0000 0.0000 1700.1764 -7441.1261 292.1023 -9141.3026 -7395.2102 299.1147 -522.1006 -423.7639 30380.8190 -34.3173 20.8413
TCL: Running FEP window   5: Lambda1 0.7999999999999998 Lambda2 0.7499999999999998 [dLambda -0.050000000000000044]
TCL: Setting parameter firsttimestep to 0
TCL: Setting parameter alchLambda to 0.7999999999999998
Info: NONBONDED TABLE R-SQUARED SPACING: 0.0625
Info: NONBONDED TABLE SIZE: 705 POINTS
TCL: Setting parameter alchLambda2 to 0.7499999999999998
Info: NONBONDED TABLE R-SQUARED SPACING: 0.0625
Info: NONBONDED TABLE SIZE: 705 POINTS
TCL: Running for 1500000 steps
ETITLE: TS BOND ANGLE DIHED IMPRP ELECT VDW BOUNDARY MISC KINETIC TOTAL TEMP POTENTIAL TOTALAVG TEMPAVG PRESSURE GPRESSURE VOLUME PRESSAVG GPRESSAVG
ENERGY: 0 5.2822 9.8890 4.1313 0.0000 -10541.0049 1381.1264 0.0000 0.0000 1699.2929 -7441.2830 291.9505 -9140.5760 -7441.2830 291.9505 -527.3895 -437.1058 30380.8190 -527.3895 -437.1058
ENERGY: 300000 9.2374 7.8188 5.5570 0.0000 -10639.3446 1435.4624 0.0000 0.0000 1682.5827 -7498.6863 289.0796 -9181.2690 -7420.1890 298.1499 46.3054 139.9701 29824.0944 -194.4839 -80.2998
ENERGY: 600000 2.5938 7.1366 6.1343 0.0000 -10461.8389 1330.4300 0.0000 0.0000 1740.6597 -7374.8845 299.0576 -9115.5442 -7415.4362 298.0677 -577.9793 -491.0087 29894.9472 -137.6240 -46.8138
ENERGY: 900000 2.7354 3.9165 4.3669 0.0000 -10571.4764 1445.4342 0.0000 0.0000 1695.7255 -7419.2979 291.3376 -9115.0233 -7393.9928 299.0625 107.8088 92.1026 30445.7218 -210.6934 -136.8772
ENERGY: 1200000 6.7335 5.0191 5.1360 0.0000 -10536.6973 1412.4983 0.0000 0.0000 1776.6610 -7330.6493 305.2429 -9107.3104 -7389.0055 299.2846 90.5718 163.9352 30271.6440 -241.9503 -173.3590
ENERGY: 1500000 3.1746 5.8418 6.8658 0.0000 -10476.8733 1361.0258 0.0000 0.0000 1805.0711 -7294.8941 310.1240 -9099.9652 -7373.9567 300.6979 -533.8141 -426.4739 30249.2855 -212.7258 -146.3612
TCL: Running FEP window   6: Lambda1 0.7499999999999998 Lambda2 0.6999999999999997 [dLambda -0.050000000000000044]
TCL: Setting parameter firsttimestep to 0
TCL: Setting parameter alchLambda to 0.7499999999999998
Info: NONBONDED TABLE R-SQUARED SPACING: 0.0625
Info: NONBONDED TABLE SIZE: 705 POINTS
TCL: Setting parameter alchLambda2 to 0.6999999999999997
Info: NONBONDED TABLE R-SQUARED SPACING: 0.0625
Info: NONBONDED TABLE SIZE: 705 POINTS
TCL: Running for 1500000 steps
ETITLE: TS BOND ANGLE DIHED IMPRP ELECT VDW BOUNDARY MISC KINETIC TOTAL TEMP POTENTIAL TOTALAVG TEMPAVG PRESSURE GPRESSURE VOLUME PRESSAVG GPRESSAVG
ENERGY: 0 3.1746 5.8418 6.8658 0.0000 -10475.6953 1360.7481 0.0000 0.0000 1804.1882 -7294.8768 309.9723 -9099.0650 -7294.8768 309.9723 -524.2326 -440.4168 30249.2855 -524.2326 -440.4168
ENERGY: 300000 3.6721 3.0102 3.5082 0.0000 -10579.4150 1380.6595 0.0000 0.0000 1724.7025 -7463.8624 296.3161 -9188.5649 -7374.7447 305.6475 -516.0844 -443.4971 29820.8754 -478.6625 -405.5752
ENERGY: 600000 3.6321 10.2148 4.8969 0.0000 -10504.1737 1385.7754 0.0000 0.0000 1771.1887 -7328.4658 304.3027 -9099.6545 -7383.0016 302.3236 -249.8738 -144.5533 30005.8829 -168.4781 -108.2017
ENERGY: 900000 1.2374 5.7894 6.6680 0.0000 -10700.4552 1452.2012 0.0000 0.0000 1754.1756 -7480.3837 301.3798 -9234.5592 -7392.4914 301.9632 -103.9382 17.9788 29968.8827 -201.1510 -129.2440
ENERGY: 1200000 3.2631 8.2857 7.5913 0.0000 -10604.5369 1428.3188 0.0000 0.0000 1743.8860 -7413.1919 299.6119 -9157.0779 -7389.5350 300.7379 91.7815 150.6769 29686.5331 -180.5686 -117.4557
ENERGY: 1500000 2.8617 10.1141 5.4034 0.0000 -10728.8829 1509.8140 0.0000 0.0000 1776.5976 -7424.0920 305.2320 -9200.6896 -7387.5555 301.5363 499.9217 528.0158 30102.9774 -90.7648 -25.9140
TCL: Running FEP window   7: Lambda1 0.6999999999999997 Lambda2 0.6499999999999997 [dLambda -0.050000000000000044]
TCL: Setting parameter firsttimestep to 0
TCL: Setting parameter alchLambda to 0.6999999999999997
Info: NONBONDED TABLE R-SQUARED SPACING: 0.0625
Info: NONBONDED TABLE SIZE: 705 POINTS
TCL: Setting parameter alchLambda2 to 0.6499999999999997
Info: NONBONDED TABLE R-SQUARED SPACING: 0.0625
Info: NONBONDED TABLE SIZE: 705 POINTS
TCL: Running for 1500000 steps
ETITLE: TS BOND ANGLE DIHED IMPRP ELECT VDW BOUNDARY MISC KINETIC TOTAL TEMP POTENTIAL TOTALAVG TEMPAVG PRESSURE GPRESSURE VOLUME PRESSAVG GPRESSAVG
ENERGY: 0 2.8617 10.1142 5.4034 0.0000 -10728.0004 1510.4863 0.0000 0.0000 1775.7361 -7423.3988 305.0840 -9199.1348 -7423.3988 305.0840 445.7244 525.0303 30102.9774 445.7244 525.0303
ENERGY: 300000 1.0952 3.8604 4.8436 0.0000 -10399.9039 1307.0925 0.0000 0.0000 1746.9978 -7336.0143 300.1466 -9083.0121 -7396.9096 301.8515 -824.9337 -774.7910 30572.2797 -201.7594 -142.6799
ENERGY: 600000 2.3207 7.0230 5.8455 0.0000 -10641.0536 1469.9680 0.0000 0.0000 1705.1391 -7450.7573 292.9549 -9155.8965 -7419.5877 299.9414 336.0991 419.7739 29939.7198 14.1405 71.1200
ENERGY: 900000 3.0556 6.6083 5.5163 0.0000 -10550.2292 1376.0041 0.0000 0.0000 1736.8927 -7422.1523 298.4104 -9159.0450 -7397.7939 299.8153 -408.4152 -399.0915 30157.7723 -92.0753 -41.7835
ENERGY: 1200000 2.5505 7.0451 6.9480 0.0000 -10521.9181 1307.6721 0.0000 0.0000 1764.4532 -7433.2491 303.1455 -9197.7023 -7383.5242 300.7285 -1040.1295 -1010.1020 30377.0070 -165.6088 -117.1160
ENERGY: 1500000 3.6774 8.5652 6.1197 0.0000 -10652.7503 1441.1634 0.0000 0.0000 1790.8049 -7402.4198 307.6729 -9193.2247 -7382.7521 301.3279 101.1873 154.5860 29824.1910 -125.6851 -84.2416
TCL: Running FEP window   8: Lambda1 0.6499999999999997 Lambda2 0.5999999999999996 [dLambda -0.050000000000000044]
TCL: Setting parameter firsttimestep to 0
TCL: Setting parameter alchLambda to 0.6499999999999997
Info: NONBONDED TABLE R-SQUARED SPACING: 0.0625
Info: NONBONDED TABLE SIZE: 705 POINTS
TCL: Setting parameter alchLambda2 to 0.5999999999999996
Info: NONBONDED TABLE R-SQUARED SPACING: 0.0625
Info: NONBONDED TABLE SIZE: 705 POINTS
TCL: Running for 1500000 steps
ETITLE: TS BOND ANGLE DIHED IMPRP ELECT VDW BOUNDARY MISC KINETIC TOTAL TEMP POTENTIAL TOTALAVG TEMPAVG PRESSURE GPRESSURE VOLUME PRESSAVG GPRESSAVG
ENERGY: 0 3.6774 8.5652 6.1197 0.0000 -10652.6266 1440.7064 0.0000 0.0000 1789.9070 -7403.6509 307.5187 -9193.5579 -7403.6509 307.5187 64.0609 140.0271 29824.1910 64.0609 140.0271
ENERGY: 300000 3.0075 7.5202 8.8342 0.0000 -10408.6500 1341.6566 0.0000 0.0000 1769.9925 -7277.6390 304.0972 -9047.6315 -7375.6105 303.4384 -456.9792 -335.5438 30165.9079 -352.6302 -259.5248
ENERGY: 600000 2.0599 8.3200 6.0846 0.0000 -10721.9032 1507.4059 0.0000 0.0000 1772.2173 -7425.8155 304.4795 -9198.0328 -7388.2132 303.5971 818.7701 813.5856 29865.9219 -131.0485 -55.7929
ENERGY: 900000 7.2908 4.2276 4.7181 0.0000 -10532.8706 1347.4887 0.0000 0.0000 1740.6304 -7428.5150 299.0526 -9169.1454 -7401.1355 302.9101 -894.0442 -850.3211 30229.8661 -48.1263 35.3703
ENERGY: 1200000 3.8172 4.3010 6.7508 0.0000 -10586.3230 1430.7015 0.0000 0.0000 1728.9683 -7411.7842 297.0490 -9140.7525 -7396.2326 302.6016 -326.0399 -146.3045 30274.5495 -48.8984 40.4004
ENERGY: 1500000 3.7448 6.8144 7.3568 0.0000 -10456.8740 1342.4621 0.0000 0.0000 1783.6017 -7312.8942 306.4354 -9096.4959 -7394.1903 303.1645 -584.9328 -568.7051 30152.9556 -126.0234 -46.0723
TCL: Running FEP window   9: Lambda1 0.5999999999999996 Lambda2 0.5499999999999996 [dLambda -0.050000000000000044]
TCL: Setting parameter firsttimestep to 0
TCL: Setting parameter alchLambda to 0.5999999999999996
Info: NONBONDED TABLE R-SQUARED SPACING: 0.0625
Info: NONBONDED TABLE SIZE: 705 POINTS
TCL: Setting parameter alchLambda2 to 0.5499999999999996
Info: NONBONDED TABLE R-SQUARED SPACING: 0.0625
Info: NONBONDED TABLE SIZE: 705 POINTS
TCL: Running for 1500000 steps
ETITLE: TS BOND ANGLE DIHED IMPRP ELECT VDW BOUNDARY MISC KINETIC TOTAL TEMP POTENTIAL TOTALAVG TEMPAVG PRESSURE GPRESSURE VOLUME PRESSAVG GPRESSAVG
ENERGY: 0 3.7448 6.8144 7.3568 0.0000 -10456.1792 1342.8664 0.0000 0.0000 1782.7835 -7312.6133 306.2948 -9095.3968 -7312.6133 306.2948 -645.4584 -574.4605 30152.9556 -645.4584 -574.4605
ENERGY: 300000 6.9701 7.0534 6.0047 0.0000 -10671.8740 1465.0623 0.0000 0.0000 1684.2500 -7502.5335 289.3660 -9186.7835 -7410.7419 298.8103 -47.7457 57.3311 29976.6195 -241.1685 -197.9113
ENERGY: 600000 3.0588 10.3542 5.2077 0.0000 -10731.2834 1512.4288 0.0000 0.0000 1810.5240 -7389.7099 311.0608 -9200.2339 -7396.2610 300.1055 496.9027 505.6236 30175.2820 -163.6201 -112.4369
ENERGY: 900000 6.8500 4.3269 8.1602 0.0000 -10654.0960 1464.4872 0.0000 0.0000 1757.5655 -7412.7063 301.9622 -9170.2718 -7389.6798 301.9497 38.0579 101.9121 30267.7140 -191.1670 -135.6825
ENERGY: 1200000 5.9672 3.9164 6.1139 0.0000 -10487.1750 1362.7817 0.0000 0.0000 1693.2412 -7415.1546 290.9108 -9108.3958 -7389.5008 300.7443 -609.2960 -536.7586 30131.9114 -357.1254 -304.0534
ENERGY: 1500000 1.5964 4.4318 6.5223 0.0000 -10574.5035 1397.3722 0.0000 0.0000 1739.2498 -7425.3310 298.8154 -9164.5808 -7395.9623 299.9170 -349.3409 -303.6113 30362.6314 -398.1533 -335.3653
TCL: Running FEP window  10: Lambda1 0.5499999999999996 Lambda2 0.4999999999999996 [dLambda -0.04999999999999999]
TCL: Setting parameter firsttimestep to 0
TCL: Setting parameter alchLambda to 0.5499999999999996
Info: NONBONDED TABLE R-SQUARED SPACING: 0.0625
Info: NONBONDED TABLE SIZE: 705 POINTS
TCL: Setting parameter alchLambda2 to 0.4999999999999996
Info: NONBONDED TABLE R-SQUARED SPACING: 0.0625
Info: NONBONDED TABLE SIZE: 705 POINTS
TCL: Running for 1500000 steps
ETITLE: TS BOND ANGLE DIHED IMPRP ELECT VDW BOUNDARY MISC KINETIC TOTAL TEMP POTENTIAL TOTALAVG TEMPAVG PRESSURE GPRESSURE VOLUME PRESSAVG GPRESSAVG
ENERGY: 0 1.5964 4.4318 6.5223 0.0000 -10574.3309 1397.5203 0.0000 0.0000 1738.3884 -7425.8718 298.6674 -9164.2602 -7425.8718 298.6674 -397.1515 -311.8669 30362.6314 -397.1515 -311.8669
ENERGY: 300000 2.1481 4.2672 6.2619 0.0000 -10472.4842 1408.7931 0.0000 0.0000 1716.1125 -7334.9013 294.8403 -9051.0138 -7381.6257 296.9835 60.5711 79.8403 30326.0498 -68.9280 -13.6279
ENERGY: 600000 2.8002 10.7501 3.8836 0.0000 -10473.1776 1389.1684 0.0000 0.0000 1757.7519 -7308.8234 301.9942 -9066.5753 -7363.8547 301.2728 -410.7945 -308.8664 30693.4477 -146.4631 -81.6859
ENERGY: 900000 3.4253 6.7823 4.5014 0.0000 -10412.2684 1322.6172 0.0000 0.0000 1731.9212 -7343.0210 297.5563 -9074.9422 -7358.5929 301.2588 -721.9610 -671.6861 30610.3075 -202.6865 -140.1935
ENERGY: 1200000 5.5363 5.2108 8.5475 0.0000 -10686.0939 1454.3665 0.0000 0.0000 1715.0823 -7497.3505 294.6633 -9212.4328 -7376.3646 300.1650 274.7808 314.3268 29749.4276 -14.0099 46.4632
ENERGY: 1500000 1.2562 6.5860 5.6510 0.0000 -10539.3750 1435.4559 0.0000 0.0000 1729.0180 -7361.4078 297.0575 -9090.4258 -7375.3919 299.9018 249.8051 296.5602 30059.8102 20.8096 83.4151
TCL: Running FEP window  11: Lambda1 0.4999999999999996 Lambda2 0.4499999999999996 [dLambda -0.04999999999999999]
TCL: Setting parameter firsttimestep to 0
TCL: Setting parameter alchLambda to 0.4999999999999996
Info: NONBONDED TABLE R-SQUARED SPACING: 0.0625
Info: NONBONDED TABLE SIZE: 705 POINTS
TCL: Setting parameter alchLambda2 to 0.4499999999999996
Info: NONBONDED TABLE R-SQUARED SPACING: 0.0625
Info: NONBONDED TABLE SIZE: 705 POINTS
TCL: Running for 1500000 steps
ETITLE: TS BOND ANGLE DIHED IMPRP ELECT VDW BOUNDARY MISC KINETIC TOTAL TEMP POTENTIAL TOTALAVG TEMPAVG PRESSURE GPRESSURE VOLUME PRESSAVG GPRESSAVG
ENERGY: 0 1.2562 6.5860 5.6510 0.0000 -10539.9187 1435.7675 0.0000 0.0000 1728.1342 -7362.5237 296.9057 -9090.6579 -7362.5237 296.9057 207.1543 292.2383 30059.8102 207.1543 292.2383
ENERGY: 300000 5.2874 7.9877 7.9274 0.0000 -10719.0801 1467.6162 0.0000 0.0000 1717.2792 -7512.9820 295.0407 -9230.2613 -7429.9833 296.2491 184.6292 260.2541 29953.3595 20.0527 96.1310
ENERGY: 600000 1.9736 5.7467 10.6912 0.0000 -10582.8065 1439.0179 0.0000 0.0000 1770.8547 -7354.5225 304.2453 -9125.3772 -7405.2660 298.8038 455.9776 495.2475 29644.1788 361.8252 409.2784
ENERGY: 900000 1.6395 10.5186 4.2620 0.0000 -10506.1279 1416.3106 0.0000 0.0000 1747.4019 -7325.9952 300.2160 -9073.3971 -7388.4177 299.8271 45.7384 156.7765 30201.0534 217.8847 278.2522
ENERGY: 1200000 4.1873 7.9667 8.7894 0.0000 -10544.9001 1365.2770 0.0000 0.0000 1727.2237 -7431.4560 296.7492 -9158.6797 -7401.7652 299.0702 -722.7213 -653.2981 30187.6923 62.3607 121.5775
ENERGY: 1500000 6.2480 5.3232 4.2973 0.0000 -10597.9104 1408.5290 0.0000 0.0000 1757.1074 -7416.4056 301.8835 -9173.5130 -7402.6828 299.4838 -659.1742 -567.2855 30365.9451 48.5482 111.5435
TCL: Running FEP window  12: Lambda1 0.4499999999999996 Lambda2 0.39999999999999963 [dLambda -0.04999999999999999]
TCL: Setting parameter firsttimestep to 0
TCL: Setting parameter alchLambda to 0.4499999999999996
Info: NONBONDED TABLE R-SQUARED SPACING: 0.0625
Info: NONBONDED TABLE SIZE: 705 POINTS
TCL: Setting parameter alchLambda2 to 0.39999999999999963
Info: NONBONDED TABLE R-SQUARED SPACING: 0.0625
Info: NONBONDED TABLE SIZE: 705 POINTS
TCL: Running for 1500000 steps
ETITLE: TS BOND ANGLE DIHED IMPRP ELECT VDW BOUNDARY MISC KINETIC TOTAL TEMP POTENTIAL TOTALAVG TEMPAVG PRESSURE GPRESSURE VOLUME PRESSAVG GPRESSAVG
ENERGY: 0 6.2480 5.3232 4.2973 0.0000 -10597.9109 1408.9212 0.0000 0.0000 1756.2657 -7416.8556 301.7388 -9173.1212 -7416.8556 301.7388 -664.2186 -571.5017 30365.9451 -664.2186 -571.5017
ENERGY: 300000 2.5958 8.7156 6.6257 0.0000 -10598.1407 1386.4890 0.0000 0.0000 1737.6286 -7456.0860 298.5369 -9193.7146 -7402.4248 302.0582 -584.5321 -456.9760 29989.6411 -465.3954 -378.3169
ENERGY: 600000 7.0412 5.0748 5.2597 0.0000 -10499.6927 1412.6538 0.0000 0.0000 1730.3871 -7339.2760 297.2927 -9069.6632 -7381.5221 300.9525 -296.1470 -229.9135 30236.2314 -291.0115 -231.3662
ENERGY: 900000 2.2851 9.6518 7.5368 0.0000 -10703.2739 1547.9273 0.0000 0.0000 1709.8683 -7426.0045 293.7674 -9135.8728 -7377.6554 302.0476 1033.2597 1049.6040 29856.3980 -186.6658 -138.9652
ENERGY: 1200000 1.5818 6.7983 4.5071 0.0000 -10704.2331 1509.7360 0.0000 0.0000 1831.5010 -7350.1089 314.6648 -9181.6099 -7381.7025 302.6257 708.0813 764.8331 29742.9014 -161.9078 -107.7160
ENERGY: 1500000 1.7699 9.6489 4.9409 0.0000 -10503.2181 1411.0188 0.0000 0.0000 1749.6575 -7326.1822 300.6035 -9075.8397 -7375.6087 301.8042 187.0942 247.4155 29860.2025 -117.1962 -60.5372
TCL: Running FEP window  13: Lambda1 0.39999999999999963 Lambda2 0.34999999999999964 [dLambda -0.04999999999999999]
TCL: Setting parameter firsttimestep to 0
TCL: Setting parameter alchLambda to 0.39999999999999963
Info: NONBONDED TABLE R-SQUARED SPACING: 0.0625
Info: NONBONDED TABLE SIZE: 705 POINTS
TCL: Setting parameter alchLambda2 to 0.34999999999999964
Info: NONBONDED TABLE R-SQUARED SPACING: 0.0625
Info: NONBONDED TABLE SIZE: 705 POINTS
TCL: Running for 1500000 steps
ETITLE: TS BOND ANGLE DIHED IMPRP ELECT VDW BOUNDARY MISC KINETIC TOTAL TEMP POTENTIAL TOTALAVG TEMPAVG PRESSURE GPRESSURE VOLUME PRESSAVG GPRESSAVG
ENERGY: 0 1.7699 9.6489 4.9409 0.0000 -10503.2197 1411.3737 0.0000 0.0000 1748.7898 -7326.6965 300.4544 -9075.4863 -7326.6965 300.4544 158.9306 242.0642 29860.2025 158.9306 242.0642
ENERGY: 300000 3.3819 7.3675 5.1614 0.0000 -10445.6708 1337.7026 0.0000 0.0000 1704.7598 -7387.2975 292.8898 -9092.0573 -7386.3115 297.0771 -561.5961 -541.7414 29854.1676 265.8258 304.3372
ENERGY: 600000 3.0543 3.7955 4.7111 0.0000 -10601.1487 1440.4544 0.0000 0.0000 1681.8647 -7467.2687 288.9562 -9149.1335 -7382.4164 298.6975 -22.1937 8.9337 30185.8035 -8.9460 33.7700
ENERGY: 900000 1.9002 5.5505 4.5196 0.0000 -10484.2724 1348.7996 0.0000 0.0000 1813.6799 -7309.8226 311.6030 -9123.5026 -7366.1905 301.0345 -568.1695 -498.9895 30154.8110 2.3006 44.2291
ENERGY: 1200000 4.6098 6.3078 4.2052 0.0000 -10499.3920 1405.1794 0.0000 0.0000 1772.3805 -7306.7093 304.5075 -9079.0898 -7359.6215 301.6980 31.4908 24.9981 30245.1445 2.2854 35.7739
ENERGY: 1500000 4.9410 8.1828 4.8667 0.0000 -10668.4817 1457.5803 0.0000 0.0000 1725.5520 -7467.3590 296.4620 -9192.9110 -7370.9034 301.8143 263.7939 350.4355 29783.2054 -25.3693 14.7522
TCL: Running FEP window  14: Lambda1 0.34999999999999964 Lambda2 0.29999999999999966 [dLambda -0.04999999999999999]
TCL: Setting parameter firsttimestep to 0
TCL: Setting parameter alchLambda to 0.34999999999999964
Info: NONBONDED TABLE R-SQUARED SPACING: 0.0625
Info: NONBONDED TABLE SIZE: 705 POINTS
TCL: Setting parameter alchLambda2 to 0.29999999999999966
Info: NONBONDED TABLE R-SQUARED SPACING: 0.0625
Info: NONBONDED TABLE SIZE: 705 POINTS
TCL: Running for 1500000 steps
ETITLE: TS BOND ANGLE DIHED IMPRP ELECT VDW BOUNDARY MISC KINETIC TOTAL TEMP POTENTIAL TOTALAVG TEMPAVG PRESSURE GPRESSURE VOLUME PRESSAVG GPRESSAVG
ENERGY: 0 4.9410 8.1828 4.8667 0.0000 -10668.4815 1458.0632 0.0000 0.0000 1724.6736 -7467.7542 296.3111 -9192.4278 -7467.7542 296.3111 257.9628 346.5925 29783.2054 257.9628 346.5925
ENERGY: 300000 2.8419 13.5452 5.1647 0.0000 -10452.4803 1333.6704 0.0000 0.0000 1734.4544 -7362.8037 297.9915 -9097.2581 -7389.8038 300.6303 -524.6897 -441.2809 29833.3385 214.2665 280.7046
ENERGY: 600000 2.0182 9.8513 5.7413 0.0000 -10606.4450 1470.8549 0.0000 0.0000 1727.7954 -7390.1840 296.8474 -9117.9794 -7397.3957 299.3504 367.3401 428.5472 29778.4898 189.8085 253.9772
ENERGY: 900000 3.9132 6.4147 5.1834 0.0000 -10536.2030 1412.3991 0.0000 0.0000 1702.0778 -7406.2148 292.4290 -9108.2926 -7402.1925 298.4783 -378.7438 -209.7127 30256.0436 52.3192 129.7992
ENERGY: 1200000 1.5093 6.8147 7.7623 0.0000 -10546.2189 1410.9181 0.0000 0.0000 1704.4379 -7414.7765 292.8345 -9119.2144 -7395.0775 299.5431 -368.4723 -290.6760 30438.6188 70.1564 150.6602
ENERGY: 1500000 3.4800 8.4913 5.1236 0.0000 -10456.3887 1355.0655 0.0000 0.0000 1717.0317 -7367.1966 294.9982 -9084.2283 -7394.6166 298.7672 -498.4152 -437.8825 30082.1027 -33.8298 42.4555
TCL: Running FEP window  15: Lambda1 0.29999999999999966 Lambda2 0.24999999999999967 [dLambda -0.04999999999999999]
TCL: Setting parameter firsttimestep to 0
TCL: Setting parameter alchLambda to 0.29999999999999966
Info: NONBONDED TABLE R-SQUARED SPACING: 0.0625
Info: NONBONDED TABLE SIZE: 705 POINTS
TCL: Setting parameter alchLambda2 to 0.24999999999999967
Info: NONBONDED TABLE R-SQUARED SPACING: 0.0625
Info: NONBONDED TABLE SIZE: 705 POINTS
TCL: Running for 1500000 steps
ETITLE: TS BOND ANGLE DIHED IMPRP ELECT VDW BOUNDARY MISC KINETIC TOTAL TEMP POTENTIAL TOTALAVG TEMPAVG PRESSURE GPRESSURE VOLUME PRESSAVG GPRESSAVG
ENERGY: 0 3.4800 8.4913 5.1236 0.0000 -10456.3906 1355.5081 0.0000 0.0000 1716.1660 -7367.6216 294.8494 -9083.7876 -7367.6216 294.8494 -519.6893 -442.1070 30082.1027 -519.6893 -442.1070
ENERGY: 300000 3.7299 6.5126 4.8316 0.0000 -10620.3485 1481.3727 0.0000 0.0000 1727.6440 -7396.2577 296.8214 -9123.9017 -7348.3739 298.2276 547.4982 623.1904 29651.4879 -185.3350 -113.3924
ENERGY: 600000 3.8804 6.5536 7.2470 0.0000 -10468.2263 1369.4388 0.0000 0.0000 1713.2433 -7367.8632 294.3473 -9081.1065 -7370.1864 298.1162 -599.6628 -542.4042 30144.0697 -47.0849 22.8875
ENERGY: 900000 2.2677 4.1442 10.1802 0.0000 -10738.0348 1518.8139 0.0000 0.0000 1761.0973 -7441.5317 302.5690 -9202.6289 -7389.5094 298.8114 562.4597 624.3849 30083.5427 -64.8492 -5.4092
ENERGY: 1200000 3.4942 5.2895 4.2115 0.0000 -10426.8721 1379.8714 0.0000 0.0000 1777.6655 -7256.3400 305.4155 -9034.0056 -7372.9222 300.3724 68.3354 120.4341 29795.2652 -15.7532 46.5870
ENERGY: 1500000 2.1028 5.7970 4.6862 0.0000 -10567.1714 1436.2402 0.0000 0.0000 1713.9558 -7404.3893 294.4697 -9118.3451 -7370.4270 300.2097 97.0195 144.7061 29877.7787 -12.1337 53.2081
TCL: Running FEP window  16: Lambda1 0.24999999999999967 Lambda2 0.19999999999999968 [dLambda -0.04999999999999999]
TCL: Setting parameter firsttimestep to 0
TCL: Setting parameter alchLambda to 0.24999999999999967
Info: NONBONDED TABLE R-SQUARED SPACING: 0.0625
Info: NONBONDED TABLE SIZE: 705 POINTS
TCL: Setting parameter alchLambda2 to 0.19999999999999968
Info: NONBONDED TABLE R-SQUARED SPACING: 0.0625
Info: NONBONDED TABLE SIZE: 705 POINTS
TCL: Running for 1500000 steps
ETITLE: TS BOND ANGLE DIHED IMPRP ELECT VDW BOUNDARY MISC KINETIC TOTAL TEMP POTENTIAL TOTALAVG TEMPAVG PRESSURE GPRESSURE VOLUME PRESSAVG GPRESSAVG
ENERGY: 0 2.1028 5.7970 4.6862 0.0000 -10567.1709 1436.6544 0.0000 0.0000 1713.0945 -7404.8360 294.3217 -9117.9305 -7404.8360 294.3217 57.7681 144.7138 29877.7787 57.7681 144.7138
ENERGY: 300000 4.4053 6.8460 8.9992 0.0000 -10530.6907 1412.1157 0.0000 0.0000 1753.0430 -7345.2814 301.1852 -9098.3244 -7373.0195 299.5015 -190.4158 -131.5548 30187.0376 -97.8317 -45.3216
ENERGY: 600000 3.2400 6.1195 5.1540 0.0000 -10553.0077 1360.1587 0.0000 0.0000 1773.9148 -7404.4208 304.7711 -9178.3356 -7351.4121 301.4532 -675.1296 -626.5251 29911.7788 -266.9888 -220.3257
ENERGY: 900000 1.9998 9.6212 6.6736 0.0000 -10566.1084 1391.0980 0.0000 0.0000 1709.8265 -7446.8892 293.7603 -9156.7157 -7366.3716 301.4535 -243.2343 -168.4981 29931.7499 -162.8314 -103.5614
ENERGY: 1200000 2.7804 6.9276 4.4775 0.0000 -10423.9941 1321.2440 0.0000 0.0000 1778.5756 -7309.9890 305.5718 -9088.5645 -7364.1051 300.7859 -690.3371 -639.7808 29897.4863 -190.9317 -135.7945
ENERGY: 1500000 5.9771 7.9149 6.9848 0.0000 -10652.4423 1497.6968 0.0000 0.0000 1753.8730 -7379.9957 301.3278 -9133.8687 -7364.0556 300.1825 295.7712 423.4340 29924.7614 -230.0104 -171.1463
TCL: Running FEP window  17: Lambda1 0.19999999999999968 Lambda2 0.1499999999999997 [dLambda -0.04999999999999999]
TCL: Setting parameter firsttimestep to 0
TCL: Setting parameter alchLambda to 0.19999999999999968
Info: NONBONDED TABLE R-SQUARED SPACING: 0.0625
Info: NONBONDED TABLE SIZE: 705 POINTS
TCL: Setting parameter alchLambda2 to 0.1499999999999997
Info: NONBONDED TABLE R-SQUARED SPACING: 0.0625
Info: NONBONDED TABLE SIZE: 705 POINTS
TCL: Running for 1500000 steps
ETITLE: TS BOND ANGLE DIHED IMPRP ELECT VDW BOUNDARY MISC KINETIC TOTAL TEMP POTENTIAL TOTALAVG TEMPAVG PRESSURE GPRESSURE VOLUME PRESSAVG GPRESSAVG
ENERGY: 0 5.9771 7.9149 6.9848 0.0000 -10652.4429 1497.8332 0.0000 0.0000 1753.0182 -7380.7148 301.1809 -9133.7330 -7380.7148 301.1809 344.1568 422.7063 29924.7614 344.1568 422.7063
ENERGY: 300000 3.1385 6.8898 5.8391 0.0000 -10470.5387 1303.3186 0.0000 0.0000 1759.5801 -7391.7727 302.3083 -9151.3528 -7359.4781 302.1835 -752.2363 -736.8331 29925.5474 -311.0880 -235.0102
ENERGY: 600000 5.5822 4.5513 10.4560 0.0000 -10567.2873 1439.8568 0.0000 0.0000 1711.5801 -7395.2607 294.0616 -9106.8409 -7356.8038 300.0660 -87.6788 41.8290 29940.1106 -278.9893 -205.4442
ENERGY: 900000 6.8480 4.8004 4.4880 0.0000 -10662.2068 1481.8282 0.0000 0.0000 1766.2656 -7397.9765 303.4569 -9164.2421 -7374.3502 300.3899 191.3937 260.2206 30085.0447 -64.5465 14.8808
ENERGY: 1200000 3.4964 4.9219 6.4298 0.0000 -10754.7035 1540.7740 0.0000 0.0000 1751.4002 -7447.6812 300.9029 -9199.0814 -7390.4989 299.7287 843.6202 859.3179 29641.7841 -69.5567 -3.0921
ENERGY: 1500000 2.1734 7.2880 6.5273 0.0000 -10628.2620 1490.7458 0.0000 0.0000 1714.3298 -7407.1976 294.5340 -9121.5274 -7380.5117 299.5930 701.8387 739.7086 29480.8977 3.0964 71.5047
TCL: Running FEP window  18: Lambda1 0.1499999999999997 Lambda2 0.09999999999999969 [dLambda -0.05 ]
TCL: Setting parameter firsttimestep to 0
TCL: Setting parameter alchLambda to 0.1499999999999997
Info: NONBONDED TABLE R-SQUARED SPACING: 0.0625
Info: NONBONDED TABLE SIZE: 705 POINTS
TCL: Setting parameter alchLambda2 to 0.09999999999999969
Info: NONBONDED TABLE R-SQUARED SPACING: 0.0625
Info: NONBONDED TABLE SIZE: 705 POINTS
TCL: Running for 1500000 steps
ETITLE: TS BOND ANGLE DIHED IMPRP ELECT VDW BOUNDARY MISC KINETIC TOTAL TEMP POTENTIAL TOTALAVG TEMPAVG PRESSURE GPRESSURE VOLUME PRESSAVG GPRESSAVG
ENERGY: 0 2.1734 7.2880 6.5273 0.0000 -10628.2597 1490.7098 0.0000 0.0000 1713.4333 -7408.1278 294.3800 -9121.5611 -7408.1278 294.3800 643.5736 733.0228 29480.8977 643.5736 733.0228
ENERGY: 300000 4.3588 7.4352 4.8231 0.0000 -10743.3606 1519.3014 0.0000 0.0000 1745.2235 -7462.2186 299.8417 -9207.4421 -7382.8227 297.8097 573.8195 645.7356 29806.6985 151.2496 265.6208
ENERGY: 600000 4.1264 9.6988 5.6312 0.0000 -10566.9174 1433.5949 0.0000 0.0000 1769.3425 -7344.5236 303.9855 -9113.8661 -7382.1574 297.6614 -19.7425 25.3048 30336.4769 118.3658 189.5689
ENERGY: 900000 2.7053 7.7403 7.5289 0.0000 -10529.2279 1429.0273 0.0000 0.0000 1773.8570 -7308.3689 304.7612 -9082.2260 -7379.5460 299.9548 95.1635 177.4103 30049.6569 92.2588 158.3039
ENERGY: 1200000 3.5620 6.8169 5.8804 0.0000 -10660.4792 1488.6272 0.0000 0.0000 1782.8821 -7372.7106 306.3117 -9155.5927 -7381.3108 299.9845 532.2990 627.9688 29753.4698 74.9655 140.8744
ENERGY: 1500000 2.7241 5.3695 5.8738 0.0000 -10467.6327 1375.0363 0.0000 0.0000 1689.1177 -7389.5113 290.2024 -9078.6291 -7391.4119 298.1827 -557.3088 -480.0082 30338.2198 31.5892 94.2924
TCL: Running FEP window  19: Lambda1 0.09999999999999969 Lambda2 0.049999999999999684 [dLambda -0.05 ]
TCL: Setting parameter firsttimestep to 0
TCL: Setting parameter alchLambda to 0.09999999999999969
Info: NONBONDED TABLE R-SQUARED SPACING: 0.0625
Info: NONBONDED TABLE SIZE: 705 POINTS
TCL: Setting parameter alchLambda2 to 0.049999999999999684
Info: NONBONDED TABLE R-SQUARED SPACING: 0.0625
Info: NONBONDED TABLE SIZE: 705 POINTS
TCL: Running for 1500000 steps
ETITLE: TS BOND ANGLE DIHED IMPRP ELECT VDW BOUNDARY MISC KINETIC TOTAL TEMP POTENTIAL TOTALAVG TEMPAVG PRESSURE GPRESSURE VOLUME PRESSAVG GPRESSAVG
ENERGY: 0 2.7241 5.3695 5.8738 0.0000 -10467.6318 1374.8186 0.0000 0.0000 1688.2177 -7390.6281 290.0477 -9078.8459 -7390.6281 290.0477 -570.8072 -479.7624 30338.2198 -570.8072 -479.7624
ENERGY: 300000 2.9058 6.4842 8.8681 0.0000 -10659.4201 1503.3852 0.0000 0.0000 1762.4514 -7375.3253 302.8016 -9137.7767 -7366.2986 299.1067 390.0071 467.2591 29952.1892 -100.4277 -42.7212
ENERGY: 600000 1.8191 6.0423 8.9734 0.0000 -10658.1230 1444.2286 0.0000 0.0000 1745.4789 -7451.5808 299.8856 -9197.0597 -7398.3890 299.3980 110.9267 90.4353 29730.6424 -18.5628 29.2240
ENERGY: 900000 1.8743 5.4320 6.8755 0.0000 -10561.9564 1455.9494 0.0000 0.0000 1784.3113 -7307.5139 306.5573 -9091.8252 -7386.5560 301.6274 476.0322 557.9505 30044.2711 10.9765 62.5383
ENERGY: 1200000 2.5948 7.6765 3.8713 0.0000 -10718.8101 1483.9447 0.0000 0.0000 1724.8134 -7495.9095 296.3351 -9220.7228 -7390.8715 301.1455 319.4989 317.5252 29528.7577 -84.2042 -32.6760
ENERGY: 1500000 4.3788 8.1549 7.4285 0.0000 -10620.0916 1447.7322 0.0000 0.0000 1780.9645 -7371.4326 305.9823 -9152.3971 -7388.8068 301.3568 -13.5372 86.0301 29864.3061 -5.8399 52.2195
TCL: Running FEP window  20: Lambda1 0.049999999999999684 Lambda2 0.0    [dLambda -0.049999999999999684]
TCL: Setting parameter firsttimestep to 0
TCL: Setting parameter alchLambda to 0.049999999999999684
Info: NONBONDED TABLE R-SQUARED SPACING: 0.0625
Info: NONBONDED TABLE SIZE: 705 POINTS
TCL: Setting parameter alchLambda2 to 0.0
Info: NONBONDED TABLE R-SQUARED SPACING: 0.0625
Info: NONBONDED TABLE SIZE: 705 POINTS
TCL: Running for 1500000 steps
ETITLE: TS BOND ANGLE DIHED IMPRP ELECT VDW BOUNDARY MISC KINETIC TOTAL TEMP POTENTIAL TOTALAVG TEMPAVG PRESSURE GPRESSURE VOLUME PRESSAVG GPRESSAVG
ENERGY: 0 4.3788 8.1549 7.4285 0.0000 -10620.0936 1447.1270 0.0000 0.0000 1780.0965 -7372.9078 305.8331 -9153.0043 -7372.9078 305.8331 -18.6064 79.2687 29864.3061 -18.6064 79.2687
ENERGY: 300000 1.2163 5.8206 5.6973 0.0000 -10501.0481 1414.7136 0.0000 0.0000 1759.3949 -7314.2055 302.2765 -9073.6004 -7380.4912 301.9697 117.8076 204.4054 29828.9468 104.8132 174.0276
ENERGY: 600000 2.6709 4.5039 5.3285 0.0000 -10652.5838 1435.3737 0.0000 0.0000 1738.3009 -7466.4059 298.6524 -9204.7069 -7390.3910 300.1542 241.3053 280.3219 29149.4935 95.1334 153.9627
ENERGY: 900000 1.5660 8.2198 5.7506 0.0000 -10687.2366 1437.6648 0.0000 0.0000 1784.6636 -7449.3718 306.6178 -9234.0353 -7384.3871 300.5061 73.2331 106.3197 29546.7429 -26.6370 21.5056
ENERGY: 1200000 6.2903 5.0400 5.4516 0.0000 -10608.0485 1478.7965 0.0000 0.0000 1730.4168 -7382.0533 297.2978 -9112.4701 -7387.5252 299.5337 571.5389 644.1453 29644.6185 8.7512 67.7271
ENERGY: 1500000 3.5290 6.2642 5.2561 0.0000 -10501.8329 1399.2815 0.0000 0.0000 1745.6129 -7341.8892 299.9086 -9087.5021 -7383.2902 299.4294 -393.2698 -366.6767 30636.8895 -86.9867 -27.4167
TCL: Exiting due to exit command.
