Info: SIMULATION PARAMETERS:
Info: TIMESTEP               2
Info: NUMBER OF STEPS        0
Info: STEPS PER CYCLE        10
Info: PERIODIC CELL BASIS 1  31.1317 0 0
Info: PERIODIC CELL BASIS 2  0 31.433 0
Info: PERIODIC CELL BASIS 3  0 0 30.7082
Info: PERIODIC CELL CENTER   0 0 0
Info: WRAPPING WATERS AROUND PERIODIC BOUNDARIES ON OUTPUT.
Info: WRAPPING ALL CLUSTERS AROUND PERIODIC BOUNDARIES ON OUTPUT.
Info: FIRST LDB TIMESTEP     50
Info: LAST LDB TIMESTEP     -1
Info: HOM BACKGROUND SCALING 1
Info: PME BACKGROUND SCALING 1
Info: MIN ATOMS PER PATCH    40
Info: EMPTY PATCH LOAD       40 ATOMS
Info: VELOCITY FILE          mobley_967099_equil.vel
Info: CENTER OF MASS MOVING INITIALLY? NO
Info: DIELECTRIC             1
Info: EXCLUDE                SCALED ONE-FOUR
Info: 1-4 ELECTROSTATICS SCALED BY 0.833333
Info: MODIFIED 1-4 VDW PARAMETERS WILL BE USED
Info: DCD FILENAME           mobley_967099_prod.dcd
Info: DCD FREQUENCY          100000
Info: DCD FIRST STEP         100000
Info: DCD FILE WILL CONTAIN UNIT CELL DATA
Info: XST FILENAME           mobley_967099_prod.xst
Info: XST FREQUENCY          100000
Info: NO VELOCITY DCD OUTPUT
Info: NO FORCE DCD OUTPUT
Info: OUTPUT FILENAME        mobley_967099_prod
Info: BINARY OUTPUT FILES WILL BE USED
Info: RESTART FILENAME       mobley_967099_prod.restart
Info: RESTART FREQUENCY      100000
Info: BINARY RESTART FILES WILL BE USED
Info: CUTOFF                 9
Info: PAIRLIST DISTANCE      11
Info: PAIRLIST SHRINK RATE   0.01
Info: PAIRLIST GROW RATE     0.01
Info: PAIRLIST TRIGGER       0.3
Info: PAIRLISTS PER CYCLE    2
Info: PAIRLISTS ENABLED
Info: MARGIN                 2
Info: HYDROGEN GROUP CUTOFF  2.5
Info: PATCH DIMENSION        15.5
Info: ENERGY OUTPUT STEPS    100000
Info: ENERGY EVALUATION STEPS    100000
Info: OUTPUT ENERGY PRECISION 4
Info: CROSSTERM ENERGY INCLUDED IN DIHEDRAL
Info: TIMING OUTPUT STEPS    1000000
Info: PRESSURE OUTPUT STEPS  100000
Info: ALCHEMICAL FEP ON
Info: FEP CURRENT LAMBDA VALUE     1
Info: FEP COMPARISON LAMBDA VALUE  0.95
Info: FEP INTRA-ALCHEMICAL NON-BONDED INTERACTIONS WILL BE RETAINED
Info: FEP INTRA-ALCHEMICAL BONDED INTERACTIONS WILL BE RETAINED
Info: FEP VDW SHIFTING COEFFICIENT 5
Info: FEP ELEC. ACTIVE FOR ANNIHILATED PARTICLES BETWEEN LAMBDA = 0 AND LAMBDA = 0.5
Info: FEP ELEC. ACTIVE FOR EXNIHILATED PARTICLES BETWEEN LAMBDA = 0.5 AND LAMBDA = 1
Info: FEP VDW ACTIVE FOR ANNIHILATED PARTICLES BETWEEN LAMBDA = 0 AND LAMBDA = 1
Info: FEP VDW ACTIVE FOR EXNIHILATED PARTICLES BETWEEN LAMBDA = 0 AND LAMBDA = 1
Info: FEP BOND ACTIVE FOR ANNIHILATED PARTICLES BETWEEN LAMBDA = 1 AND LAMBDA = 1
Info: FEP BOND ACTIVE FOR EXNIHILATED PARTICLES BETWEEN LAMBDA = 0 AND LAMBDA = 0
Info: LANGEVIN DYNAMICS ACTIVE
Info: LANGEVIN TEMPERATURE   300
Info: LANGEVIN USING BBK INTEGRATOR
Info: LANGEVIN DAMPING COEFFICIENT IS 1 INVERSE PS
Info: LANGEVIN DYNAMICS APPLIED TO HYDROGENS
Info: LANGEVIN PISTON PRESSURE CONTROL ACTIVE
Info:        TARGET PRESSURE IS 1.01325 BAR
Info:     OSCILLATION PERIOD IS 50 FS
Info:             DECAY TIME IS 25 FS
Info:     PISTON TEMPERATURE IS 300 K
Info:       PRESSURE CONTROL IS GROUP-BASED
Info:    INITIAL STRAIN RATE IS 0.00040962 0.00040962 0.00040962
Info:       CELL FLUCTUATION IS ISOTROPIC
Info: PARTICLE MESH EWALD (PME) ACTIVE
Info: PME TOLERANCE               1e-06
Info: PME EWALD COEFFICIENT       0.348832
Info: PME INTERPOLATION ORDER     4
Info: PME GRID DIMENSIONS         32 32 32
Info: PME MAXIMUM GRID SPACING    1
Info: PME CALCULATION WILL BE PERFORMED ON GPU
Info: FULL ELECTROSTATIC EVALUATION FREQUENCY      2
Info: USING VERLET I (r-RESPA) MTS SCHEME.
Info: C1 SPLITTING OF LONG RANGE ELECTROSTATICS
Info: PLACING ATOMS IN PATCHES BY HYDROGEN GROUPS
Info: RIGID BONDS TO HYDROGEN : ALL
Info:         ERROR TOLERANCE : 1e-08
Info:          MAX ITERATIONS : 100
Info: RIGID WATER USING SETTLE ALGORITHM
Info: RANDOM NUMBER SEED     1743736123
Info: USE HYDROGEN BONDS?    NO
Info: Using AMBER format force field!
Info: AMBER PARM FILE        mobley_967099.prmtop
Info: COORDINATE PDB         mobley_967099.pdb
Info: Exclusions will be read from PARM file!
Info: SCNB (VDW SCALING)     2
Info: USING ARITHMETIC MEAN TO COMBINE L-J SIGMA PARAMETERS
Info: BINARY COORDINATES     mobley_967099_equil.coor
Info: SUMMARY OF PARAMETERS:
Info: 7 BONDS
Info: 8 ANGLES
Info:   8 HARMONIC
Info:   0 COSINE-BASED
Info: 3 DIHEDRAL
Info: 0 IMPROPER
Info: 0 CROSSTERM
Info: 0 VDW
Info: 28 VDW_PAIRS
Info: 0 NBTHOLE_PAIRS
Info: To read alchdata from file: mobley_967099.pdb
Info: To read alchflag data from column: 5
Info: STRUCTURE SUMMARY:
Info: 2926 ATOMS
Info: 2925 BONDS
Info: 21 ANGLES
Info: 24 DIHEDRALS
Info: 0 IMPROPERS
Info: 0 CROSSTERMS
Info: 2970 EXCLUSIONS
Info: 2920 RIGID BONDS
Info: ALCH: 0 ATOMS TO DISAPPEAR IN FINAL STATE
Info: ALCH: 13 ATOMS TO APPEAR IN FINAL STATE
Info: 5858 DEGREES OF FREEDOM
Info: 977 HYDROGEN GROUPS
Info: 4 ATOMS IN LARGEST HYDROGEN GROUP
Info: 977 MIGRATION GROUPS
Info: 4 ATOMS IN LARGEST MIGRATION GROUP
Info: TOTAL MASS = 17582.6 amu
Info: TOTAL CHARGE = 0.000400003 e
Info: MASS DENSITY = 0.971629 g/cm^3
Info: ATOM DENSITY = 0.0973715 atoms/A^3
Info: ADDED 0 IMPLICIT EXCLUSIONS
Info: NONBONDED TABLE R-SQUARED SPACING: 0.0625
Info: NONBONDED TABLE SIZE: 705 POINTS
Info: REDUCING NUMBER OF PATCHES TO IMPROVE LOAD BALANCE
Info: REMOVING COM VELOCITY -0.100904 -0.0901101 -0.0199433
Info: Use 3D box decompostion in PME FFT.
Info: Updated CUDA force table with 4096 elements.
Info: Updated CUDA LJ table with 7 x 7 elements.
Info: Found 16 unique exclusion lists needing 32 bytes
TCL: Running for 1500000 steps
ETITLE: TS BOND ANGLE DIHED IMPRP ELECT VDW BOUNDARY MISC KINETIC TOTAL TEMP POTENTIAL TOTALAVG TEMPAVG PRESSURE GPRESSURE VOLUME PRESSAVG GPRESSAVG
ENERGY: 0 1.0784 3.9792 0.2377 0.0000 -10552.3204 1365.7490 0.0000 0.0000 1799.4515 -7381.8246 309.1585 -9181.2761 -7381.8246 309.1585 -366.1501 -291.3822 30049.8695 -366.1501 -291.3822
ENERGY: 300000 0.6596 10.8368 1.5606 0.0000 -10557.2590 1435.0709 0.0000 0.0000 1710.7633 -7398.3677 293.9212 -9109.1310 -7411.0609 301.6500 150.7978 216.2540 30141.6458 -137.3661 -67.1964
ENERGY: 600000 1.1462 3.7495 0.2993 0.0000 -10651.9889 1452.1804 0.0000 0.0000 1775.1709 -7419.4427 304.9869 -9194.6135 -7433.5532 299.1909 131.0254 136.9620 30244.1450 -125.5627 -66.8112
ENERGY: 900000 2.0722 5.2605 0.1563 0.0000 -10628.2655 1449.9731 0.0000 0.0000 1744.9088 -7425.8946 299.7877 -9170.8034 -7433.3551 300.0231 301.7983 379.1593 30073.6968 -127.4081 -64.2296
ENERGY: 1200000 0.5051 4.6128 0.9582 0.0000 -10524.7818 1413.8995 0.0000 0.0000 1806.4300 -7298.3763 310.3574 -9104.8062 -7429.7294 301.1800 90.6235 134.3205 30342.1370 -27.8442 29.2769
ENERGY: 1500000 2.5476 4.7521 0.0471 0.0000 -10730.1979 1522.0209 0.0000 0.0000 1753.6856 -7447.1447 301.2956 -9200.8302 -7431.6678 301.0121 601.6518 657.6805 30190.1666 53.3048 113.0927
TCL: Running FEP window   2: Lambda1 0.95   Lambda2 0.8999999999999999 [dLambda -0.050000000000000044]
TCL: Setting parameter firsttimestep to 0
TCL: Setting parameter alchLambda to 0.95
Info: NONBONDED TABLE R-SQUARED SPACING: 0.0625
Info: NONBONDED TABLE SIZE: 705 POINTS
TCL: Setting parameter alchLambda2 to 0.8999999999999999
Info: NONBONDED TABLE R-SQUARED SPACING: 0.0625
Info: NONBONDED TABLE SIZE: 705 POINTS
TCL: Running for 1500000 steps
ETITLE: TS BOND ANGLE DIHED IMPRP ELECT VDW BOUNDARY MISC KINETIC TOTAL TEMP POTENTIAL TOTALAVG TEMPAVG PRESSURE GPRESSURE VOLUME PRESSAVG GPRESSAVG
ENERGY: 0 2.5476 4.7521 0.0471 0.0000 -10729.5181 1522.5075 0.0000 0.0000 1752.8286 -7446.8353 301.1483 -9199.6639 -7446.8353 301.1483 580.9397 657.4569 30190.1666 580.9397 657.4569
ENERGY: 300000 1.6660 4.6258 0.3031 0.0000 -10702.4755 1489.3474 0.0000 0.0000 1730.6763 -7475.8570 297.3424 -9206.5333 -7445.7809 299.5849 843.3217 841.8465 29545.4371 57.0815 113.7772
ENERGY: 600000 0.8248 3.7406 0.9125 0.0000 -10563.6054 1399.6417 0.0000 0.0000 1795.4408 -7363.0451 308.4694 -9158.4859 -7431.0559 302.3073 -226.2232 -156.7196 30506.0911 -91.2531 -24.5470
ENERGY: 900000 0.7969 4.4824 0.3177 0.0000 -10519.6659 1387.4184 0.0000 0.0000 1735.5853 -7391.0651 298.1858 -9126.6504 -7427.3077 302.0884 -110.2195 -14.5795 30207.2916 -78.3639 -13.1777
ENERGY: 1200000 1.0483 6.1101 1.5331 0.0000 -10614.4572 1410.9186 0.0000 0.0000 1759.1490 -7435.6982 302.2342 -9194.8472 -7429.2575 301.2093 -220.3199 -275.7655 30704.6134 -46.2941 10.4133
ENERGY: 1500000 0.8196 7.1200 0.5513 0.0000 -10492.1080 1379.8647 0.0000 0.0000 1802.1395 -7301.6130 309.6203 -9103.7524 -7427.5009 301.0916 -281.4482 -237.0771 30706.6337 -40.5254 11.0979
TCL: Running FEP window   3: Lambda1 0.8999999999999999 Lambda2 0.8499999999999999 [dLambda -0.050000000000000044]
TCL: Setting parameter firsttimestep to 0
TCL: Setting parameter alchLambda to 0.8999999999999999
Info: NONBONDED TABLE R-SQUARED SPACING: 0.0625
Info: NONBONDED TABLE SIZE: 705 POINTS
TCL: Setting parameter alchLambda2 to 0.8499999999999999
Info: NONBONDED TABLE R-SQUARED SPACING: 0.0625
Info: NONBONDED TABLE SIZE: 705 POINTS
TCL: Running for 1500000 steps
ETITLE: TS BOND ANGLE DIHED IMPRP ELECT VDW BOUNDARY MISC KINETIC TOTAL TEMP POTENTIAL TOTALAVG TEMPAVG PRESSURE GPRESSURE VOLUME PRESSAVG GPRESSAVG
ENERGY: 0 0.8196 7.1200 0.5513 0.0000 -10491.5294 1379.9487 0.0000 0.0000 1801.2125 -7301.8773 309.4610 -9103.0898 -7301.8773 309.4610 -322.5885 -243.4637 30706.6337 -322.5885 -243.4637
ENERGY: 300000 3.1941 4.0570 1.2818 0.0000 -10582.7944 1431.7576 0.0000 0.0000 1788.3942 -7354.1097 307.2588 -9142.5039 -7364.4987 306.0832 24.8265 96.8126 30290.3891 -305.0755 -216.6896
ENERGY: 600000 1.6994 5.4345 0.4992 0.0000 -10633.3463 1417.3154 0.0000 0.0000 1758.6228 -7449.7750 302.1438 -9208.3978 -7408.0911 304.1402 -5.4504 63.4113 30088.9074 -185.9561 -90.7018
ENERGY: 900000 0.5872 5.5666 0.6759 0.0000 -10650.9272 1448.6371 0.0000 0.0000 1792.7148 -7402.7456 308.0011 -9195.4604 -7403.0637 303.5946 31.1546 140.6906 30378.2967 -49.7472 40.1912
ENERGY: 1200000 4.7651 4.8765 0.4314 0.0000 -10707.5478 1516.2570 0.0000 0.0000 1775.4834 -7405.7343 305.0406 -9181.2177 -7407.9661 303.7142 630.6201 687.3314 30057.4721 24.2454 106.4285
ENERGY: 1500000 2.1784 3.6863 0.3118 0.0000 -10780.0489 1483.3609 0.0000 0.0000 1758.0858 -7532.4257 302.0516 -9290.5114 -7426.2436 303.6378 -6.9951 47.2225 30523.2905 12.6797 84.4031
TCL: Running FEP window   4: Lambda1 0.8499999999999999 Lambda2 0.7999999999999998 [dLambda -0.050000000000000044]
TCL: Setting parameter firsttimestep to 0
TCL: Setting parameter alchLambda to 0.8499999999999999
Info: NONBONDED TABLE R-SQUARED SPACING: 0.0625
Info: NONBONDED TABLE SIZE: 705 POINTS
TCL: Setting parameter alchLambda2 to 0.7999999999999998
Info: NONBONDED TABLE R-SQUARED SPACING: 0.0625
Info: NONBONDED TABLE SIZE: 705 POINTS
TCL: Running for 1500000 steps
ETITLE: TS BOND ANGLE DIHED IMPRP ELECT VDW BOUNDARY MISC KINETIC TOTAL TEMP POTENTIAL TOTALAVG TEMPAVG PRESSURE GPRESSURE VOLUME PRESSAVG GPRESSAVG
ENERGY: 0 2.1784 3.6863 0.3118 0.0000 -10779.3920 1483.7035 0.0000 0.0000 1757.2138 -7532.2982 301.9017 -9289.5120 -7532.2982 301.9017 -53.5744 44.1128 30523.2905 -53.5744 44.1128
ENERGY: 300000 0.2807 6.9396 1.2492 0.0000 -10530.4620 1380.9876 0.0000 0.0000 1762.9181 -7378.0868 302.8818 -9141.0049 -7439.7450 304.4532 -358.7059 -317.7359 30124.7708 -60.1683 6.4008
ENERGY: 600000 0.9084 5.8424 0.1769 0.0000 -10632.1643 1450.2869 0.0000 0.0000 1686.7842 -7488.1654 289.8014 -9174.9496 -7448.5853 299.5467 318.4700 349.1151 29864.4348 122.2020 184.8218
ENERGY: 900000 0.4744 4.9631 2.8829 0.0000 -10600.5548 1455.1974 0.0000 0.0000 1719.3313 -7417.7058 295.3933 -9137.0370 -7435.7472 300.0251 509.6010 522.8134 29933.3508 102.2371 162.2479
ENERGY: 1200000 2.1176 3.2489 0.2521 0.0000 -10543.6438 1376.0056 0.0000 0.0000 1709.4682 -7452.5514 293.6987 -9162.0196 -7426.2646 300.2979 -187.6753 -133.8013 29840.5868 133.2771 192.6997
ENERGY: 1500000 2.1458 4.0007 0.4113 0.0000 -10589.8217 1414.8505 0.0000 0.0000 1756.6348 -7411.7786 301.8023 -9168.4134 -7422.4316 300.5023 61.6452 127.4861 29684.3215 179.5387 238.2753
TCL: Running FEP window   5: Lambda1 0.7999999999999998 Lambda2 0.7499999999999998 [dLambda -0.050000000000000044]
TCL: Setting parameter firsttimestep to 0
TCL: Setting parameter alchLambda to 0.7999999999999998
Info: NONBONDED TABLE R-SQUARED SPACING: 0.0625
Info: NONBONDED TABLE SIZE: 705 POINTS
TCL: Setting parameter alchLambda2 to 0.7499999999999998
Info: NONBONDED TABLE R-SQUARED SPACING: 0.0625
Info: NONBONDED TABLE SIZE: 705 POINTS
TCL: Running for 1500000 steps
ETITLE: TS BOND ANGLE DIHED IMPRP ELECT VDW BOUNDARY MISC KINETIC TOTAL TEMP POTENTIAL TOTALAVG TEMPAVG PRESSURE GPRESSURE VOLUME PRESSAVG GPRESSAVG
ENERGY: 0 2.1458 4.0007 0.4113 0.0000 -10589.3970 1414.7228 0.0000 0.0000 1755.7218 -7412.3946 301.6454 -9168.1163 -7412.3946 301.6454 44.5568 118.9270 29684.3215 44.5568 118.9270
ENERGY: 300000 4.1232 6.1943 0.1925 0.0000 -10451.8783 1383.2821 0.0000 0.0000 1730.8242 -7327.2619 297.3678 -9058.0862 -7389.2787 299.2802 -220.2649 -145.1555 30470.4758 -63.6359 2.0128
ENERGY: 600000 0.7844 4.0491 0.0951 0.0000 -10668.9411 1461.8904 0.0000 0.0000 1738.8874 -7463.2347 298.7531 -9202.1222 -7415.7083 299.3653 623.6535 700.0429 29574.5982 40.5850 106.3461
ENERGY: 900000 2.5864 4.4803 1.3702 0.0000 -10692.3761 1506.7539 0.0000 0.0000 1837.8886 -7339.2967 315.7622 -9177.1853 -7403.8580 301.1009 773.9175 748.6717 29872.6985 162.7006 220.5951
ENERGY: 1200000 1.5992 2.8144 0.3686 0.0000 -10732.9055 1492.0420 0.0000 0.0000 1699.9505 -7536.1308 292.0635 -9236.0813 -7425.4829 299.1782 656.7303 723.7385 29453.6339 177.2579 232.3686
ENERGY: 1500000 0.6895 5.9492 0.2386 0.0000 -10609.7021 1400.0037 0.0000 0.0000 1760.9775 -7441.8436 302.5484 -9202.8211 -7429.1982 298.8507 -338.6342 -255.7023 30230.1976 100.5814 157.8557
TCL: Running FEP window   6: Lambda1 0.7499999999999998 Lambda2 0.6999999999999997 [dLambda -0.050000000000000044]
TCL: Setting parameter firsttimestep to 0
TCL: Setting parameter alchLambda to 0.7499999999999998
Info: NONBONDED TABLE R-SQUARED SPACING: 0.0625
Info: NONBONDED TABLE SIZE: 705 POINTS
TCL: Setting parameter alchLambda2 to 0.6999999999999997
Info: NONBONDED TABLE R-SQUARED SPACING: 0.0625
Info: NONBONDED TABLE SIZE: 705 POINTS
TCL: Running for 1500000 steps
ETITLE: TS BOND ANGLE DIHED IMPRP ELECT VDW BOUNDARY MISC KINETIC TOTAL TEMP POTENTIAL TOTALAVG TEMPAVG PRESSURE GPRESSURE VOLUME PRESSAVG GPRESSAVG
ENERGY: 0 0.6895 5.9492 0.2386 0.0000 -10609.2736 1399.6152 0.0000 0.0000 1760.1246 -7442.6565 302.4018 -9202.7812 -7442.6565 302.4018 -351.9118 -268.6410 30230.1976 -351.9118 -268.6410
ENERGY: 300000 0.2343 5.3788 1.3978 0.0000 -10573.7896 1474.7055 0.0000 0.0000 1746.6205 -7345.4527 300.0817 -9092.0732 -7410.5711 299.6137 586.5296 611.0280 30285.1161 -16.7895 20.3741
ENERGY: 600000 1.9368 5.0453 0.1931 0.0000 -10514.9082 1327.6734 0.0000 0.0000 1722.0087 -7458.0509 295.8533 -9180.0596 -7420.1312 301.0447 -483.7883 -405.4028 29728.5418 -70.7876 -27.1594
ENERGY: 900000 0.6794 5.2119 0.1062 0.0000 -10593.2541 1363.5526 0.0000 0.0000 1794.5176 -7429.1863 308.3108 -9223.7040 -7423.7167 301.6142 -433.2985 -393.8565 30109.1717 6.3101 50.8000
ENERGY: 1200000 2.2669 2.4464 0.2626 0.0000 -10725.3217 1514.9557 0.0000 0.0000 1746.3841 -7459.0059 300.0411 -9205.3900 -7421.9878 302.2268 949.3390 1023.1170 29378.2754 22.0472 71.7954
ENERGY: 1500000 0.9373 4.2906 0.6000 0.0000 -10498.1155 1336.8066 0.0000 0.0000 1762.5168 -7392.9643 302.8128 -9155.4810 -7426.3183 302.0184 -739.0493 -655.0067 30189.0241 0.3970 61.3978
TCL: Running FEP window   7: Lambda1 0.6999999999999997 Lambda2 0.6499999999999997 [dLambda -0.050000000000000044]
TCL: Setting parameter firsttimestep to 0
TCL: Setting parameter alchLambda to 0.6999999999999997
Info: NONBONDED TABLE R-SQUARED SPACING: 0.0625
Info: NONBONDED TABLE SIZE: 705 POINTS
TCL: Setting parameter alchLambda2 to 0.6499999999999997
Info: NONBONDED TABLE R-SQUARED SPACING: 0.0625
Info: NONBONDED TABLE SIZE: 705 POINTS
TCL: Running for 1500000 steps
ETITLE: TS BOND ANGLE DIHED IMPRP ELECT VDW BOUNDARY MISC KINETIC TOTAL TEMP POTENTIAL TOTALAVG TEMPAVG PRESSURE GPRESSURE VOLUME PRESSAVG GPRESSAVG
ENERGY: 0 0.9373 4.2906 0.6000 0.0000 -10498.0948 1337.1887 0.0000 0.0000 1761.6728 -7393.4053 302.6678 -9155.0781 -7393.4053 302.6678 -744.4876 -659.7575 30189.0241 -744.4876 -659.7575
ENERGY: 300000 3.2513 3.9721 0.2303 0.0000 -10573.9288 1448.6715 0.0000 0.0000 1727.7345 -7390.0692 296.8370 -9117.8037 -7403.5311 300.1318 -91.3655 -50.8613 30506.9274 -362.2199 -300.2902
ENERGY: 600000 1.6367 5.3039 0.6170 0.0000 -10554.0196 1398.2531 0.0000 0.0000 1759.1895 -7389.0193 302.2412 -9148.2088 -7412.2077 300.2496 -302.9298 -288.0948 30356.2376 -259.2558 -197.1675
ENERGY: 900000 0.4230 5.3314 0.8384 0.0000 -10527.1626 1436.8097 0.0000 0.0000 1766.6838 -7317.0763 303.5288 -9083.7601 -7413.8058 300.2616 107.7311 243.9070 30319.1919 -201.2114 -137.8992
ENERGY: 1200000 1.6279 10.9978 0.4995 0.0000 -10594.7310 1442.8804 0.0000 0.0000 1719.2083 -7419.5171 295.3721 -9138.7254 -7418.1235 299.3568 157.0880 205.7494 30181.0155 -229.3025 -165.3650
ENERGY: 1500000 2.1416 6.9317 1.0051 0.0000 -10479.6850 1351.3135 0.0000 0.0000 1753.9319 -7364.3612 301.3379 -9118.2931 -7417.3586 299.9617 -550.0928 -464.2253 30579.5943 -251.6093 -186.4787
TCL: Running FEP window   8: Lambda1 0.6499999999999997 Lambda2 0.5999999999999996 [dLambda -0.050000000000000044]
TCL: Setting parameter firsttimestep to 0
TCL: Setting parameter alchLambda to 0.6499999999999997
Info: NONBONDED TABLE R-SQUARED SPACING: 0.0625
Info: NONBONDED TABLE SIZE: 705 POINTS
TCL: Setting parameter alchLambda2 to 0.5999999999999996
Info: NONBONDED TABLE R-SQUARED SPACING: 0.0625
Info: NONBONDED TABLE SIZE: 705 POINTS
TCL: Running for 1500000 steps
ETITLE: TS BOND ANGLE DIHED IMPRP ELECT VDW BOUNDARY MISC KINETIC TOTAL TEMP POTENTIAL TOTALAVG TEMPAVG PRESSURE GPRESSURE VOLUME PRESSAVG GPRESSAVG
ENERGY: 0 2.1416 6.9317 1.0051 0.0000 -10479.3705 1351.8046 0.0000 0.0000 1753.0731 -7364.4145 301.1903 -9117.4876 -7364.4145 301.1903 -561.2587 -465.5781 30579.5943 -561.2587 -465.5781
ENERGY: 300000 2.2366 4.4026 0.5652 0.0000 -10542.9356 1360.6469 0.0000 0.0000 1775.2976 -7399.7866 305.0087 -9175.0842 -7374.0848 302.3692 -338.2211 -250.3171 29862.4851 -188.3066 -106.0035
ENERGY: 600000 0.6775 7.9014 1.4558 0.0000 -10758.3917 1501.5871 0.0000 0.0000 1758.3261 -7488.4439 302.0928 -9246.7699 -7402.9521 300.9422 604.1079 636.5013 29590.5377 -78.6228 -10.4476
ENERGY: 900000 0.6322 8.4832 0.2299 0.0000 -10695.5643 1514.2401 0.0000 0.0000 1741.2422 -7430.7368 299.1577 -9171.9790 -7408.5087 300.9655 929.8781 1000.5110 29458.9345 99.7319 158.4576
ENERGY: 1200000 0.6002 2.6371 0.0995 0.0000 -10513.4236 1400.0768 0.0000 0.0000 1787.4453 -7322.5647 307.0957 -9110.0100 -7405.0018 301.6106 231.7699 250.8054 29997.2643 82.3712 144.3548
ENERGY: 1500000 2.3180 4.1706 0.0902 0.0000 -10645.0568 1447.6344 0.0000 0.0000 1785.4070 -7405.4366 306.7455 -9190.8437 -7401.5238 302.2690 166.6995 236.2019 29916.3936 61.3226 124.3833
TCL: Running FEP window   9: Lambda1 0.5999999999999996 Lambda2 0.5499999999999996 [dLambda -0.050000000000000044]
TCL: Setting parameter firsttimestep to 0
TCL: Setting parameter alchLambda to 0.5999999999999996
Info: NONBONDED TABLE R-SQUARED SPACING: 0.0625
Info: NONBONDED TABLE SIZE: 705 POINTS
TCL: Setting parameter alchLambda2 to 0.5499999999999996
Info: NONBONDED TABLE R-SQUARED SPACING: 0.0625
Info: NONBONDED TABLE SIZE: 705 POINTS
TCL: Running for 1500000 steps
ETITLE: TS BOND ANGLE DIHED IMPRP ELECT VDW BOUNDARY MISC KINETIC TOTAL TEMP POTENTIAL TOTALAVG TEMPAVG PRESSURE GPRESSURE VOLUME PRESSAVG GPRESSAVG
ENERGY: 0 2.3180 4.1706 0.0902 0.0000 -10644.7483 1448.2362 0.0000 0.0000 1784.5344 -7405.3989 306.5956 -9189.9333 -7405.3989 306.5956 147.8723 236.2731 29916.3936 147.8723 236.2731
ENERGY: 300000 0.3659 7.5669 0.2159 0.0000 -10717.9458 1490.2025 0.0000 0.0000 1714.6029 -7504.9918 294.5809 -9219.5947 -7415.8914 299.1912 237.9498 301.8888 30260.5554 -69.2644 -23.2504
ENERGY: 600000 2.0921 4.1866 1.9451 0.0000 -10515.9108 1354.6328 0.0000 0.0000 1723.6114 -7429.4428 296.1286 -9153.0542 -7439.2195 299.1773 -596.3109 -602.0491 30156.8633 -152.2728 -122.4317
ENERGY: 900000 3.0257 4.1677 0.6695 0.0000 -10552.4467 1461.2775 0.0000 0.0000 1742.4155 -7340.8908 299.3593 -9083.3063 -7420.3257 298.5237 461.9068 542.3449 30111.8705 79.1621 115.9671
ENERGY: 1200000 1.2234 3.3398 1.5701 0.0000 -10502.6668 1379.5398 0.0000 0.0000 1737.4760 -7379.5176 298.5106 -9116.9936 -7412.3528 299.0465 -312.6285 -266.7303 30408.8275 21.7565 60.8435
ENERGY: 1500000 4.5744 6.6005 0.6505 0.0000 -10505.8715 1380.8552 0.0000 0.0000 1771.9495 -7341.2414 304.4334 -9113.1909 -7408.7880 299.7502 -394.1916 -388.2199 30491.6899 -104.4369 -57.3923
TCL: Running FEP window  10: Lambda1 0.5499999999999996 Lambda2 0.4999999999999996 [dLambda -0.04999999999999999]
TCL: Setting parameter firsttimestep to 0
TCL: Setting parameter alchLambda to 0.5499999999999996
Info: NONBONDED TABLE R-SQUARED SPACING: 0.0625
Info: NONBONDED TABLE SIZE: 705 POINTS
TCL: Setting parameter alchLambda2 to 0.4999999999999996
Info: NONBONDED TABLE R-SQUARED SPACING: 0.0625
Info: NONBONDED TABLE SIZE: 705 POINTS
TCL: Running for 1500000 steps
ETITLE: TS BOND ANGLE DIHED IMPRP ELECT VDW BOUNDARY MISC KINETIC TOTAL TEMP POTENTIAL TOTALAVG TEMPAVG PRESSURE GPRESSURE VOLUME PRESSAVG GPRESSAVG
ENERGY: 0 4.5744 6.6005 0.6505 0.0000 -10505.8699 1381.1758 0.0000 0.0000 1771.0625 -7341.8063 304.2810 -9112.8688 -7341.8063 304.2810 -462.6383 -391.7795 30491.6899 -462.6383 -391.7795
ENERGY: 300000 1.2135 4.8880 0.6359 0.0000 -10652.8144 1507.7857 0.0000 0.0000 1726.0883 -7412.2029 296.5542 -9138.2912 -7386.7623 299.3008 885.8564 934.3793 29814.9479 78.2709 152.3892
ENERGY: 600000 2.1651 4.1377 0.1845 0.0000 -10687.1330 1492.8779 0.0000 0.0000 1753.2327 -7434.5351 301.2178 -9187.7678 -7404.7843 301.5204 962.3188 951.3053 29441.3093 135.1438 208.9564
ENERGY: 900000 0.7433 7.2823 0.3054 0.0000 -10549.7193 1403.2196 0.0000 0.0000 1734.2425 -7403.9263 297.9551 -9138.1687 -7417.7833 300.8292 -59.4214 -75.8362 30070.4116 -79.7392 -12.5514
ENERGY: 1200000 0.4929 4.8420 0.6224 0.0000 -10578.6262 1438.8736 0.0000 0.0000 1741.7604 -7392.0348 299.2467 -9133.7952 -7428.2227 299.8472 354.0969 392.3536 30191.0681 -144.9367 -75.4458
ENERGY: 1500000 2.4838 2.9878 0.8244 0.0000 -10572.5786 1408.3244 0.0000 0.0000 1703.5328 -7454.4254 292.6790 -9157.9582 -7433.6915 299.3333 -141.1398 -88.0090 30063.4697 -110.5675 -43.6305
TCL: Running FEP window  11: Lambda1 0.4999999999999996 Lambda2 0.4499999999999996 [dLambda -0.04999999999999999]
TCL: Setting parameter firsttimestep to 0
TCL: Setting parameter alchLambda to 0.4999999999999996
Info: NONBONDED TABLE R-SQUARED SPACING: 0.0625
Info: NONBONDED TABLE SIZE: 705 POINTS
TCL: Setting parameter alchLambda2 to 0.4499999999999996
Info: NONBONDED TABLE R-SQUARED SPACING: 0.0625
Info: NONBONDED TABLE SIZE: 705 POINTS
TCL: Running for 1500000 steps
ETITLE: TS BOND ANGLE DIHED IMPRP ELECT VDW BOUNDARY MISC KINETIC TOTAL TEMP POTENTIAL TOTALAVG TEMPAVG PRESSURE GPRESSURE VOLUME PRESSAVG GPRESSAVG
ENERGY: 0 2.4838 2.9878 0.8244 0.0000 -10572.3391 1408.7788 0.0000 0.0000 1702.6231 -7454.6412 292.5227 -9157.2643 -7454.6412 292.5227 -174.7011 -87.0118 30063.4697 -174.7011 -87.0118
ENERGY: 300000 0.7691 4.7879 0.1842 0.0000 -10551.3564 1375.0927 0.0000 0.0000 1723.1352 -7447.3873 296.0468 -9170.5225 -7448.9457 297.9537 -622.4097 -550.9794 30442.1102 -203.5972 -132.6800
ENERGY: 600000 0.8076 3.8744 2.1546 0.0000 -10674.6273 1464.7163 0.0000 0.0000 1702.0912 -7500.9832 292.4313 -9203.0744 -7430.3188 298.4777 123.3413 196.1640 30448.3489 -97.4566 -28.8913
ENERGY: 900000 1.1532 4.7279 0.0776 0.0000 -10626.9338 1432.8246 0.0000 0.0000 1772.2866 -7415.8639 304.4914 -9188.1505 -7428.4321 299.2847 -92.1658 -30.5674 30256.6453 -121.1243 -54.1629
ENERGY: 1200000 1.1122 6.1704 0.3360 0.0000 -10642.9353 1441.3909 0.0000 0.0000 1781.9508 -7411.9749 306.1517 -9193.9258 -7421.6151 299.7603 -8.5250 68.7770 29993.0339 -146.5195 -81.7042
ENERGY: 1500000 0.9343 4.7339 1.0520 0.0000 -10409.4012 1298.8800 0.0000 0.0000 1797.3476 -7306.4534 308.7970 -9103.8009 -7411.0866 300.8187 -710.7346 -655.3693 30176.1609 -176.9572 -109.0801
TCL: Running FEP window  12: Lambda1 0.4499999999999996 Lambda2 0.39999999999999963 [dLambda -0.04999999999999999]
TCL: Setting parameter firsttimestep to 0
TCL: Setting parameter alchLambda to 0.4499999999999996
Info: NONBONDED TABLE R-SQUARED SPACING: 0.0625
Info: NONBONDED TABLE SIZE: 705 POINTS
TCL: Setting parameter alchLambda2 to 0.39999999999999963
Info: NONBONDED TABLE R-SQUARED SPACING: 0.0625
Info: NONBONDED TABLE SIZE: 705 POINTS
TCL: Running for 1500000 steps
ETITLE: TS BOND ANGLE DIHED IMPRP ELECT VDW BOUNDARY MISC KINETIC TOTAL TEMP POTENTIAL TOTALAVG TEMPAVG PRESSURE GPRESSURE VOLUME PRESSAVG GPRESSAVG
ENERGY: 0 0.9343 4.7339 1.0520 0.0000 -10409.4027 1298.6237 0.0000 0.0000 1796.4512 -7307.6076 308.6430 -9104.0588 -7307.6076 308.6430 -744.6276 -661.3776 30176.1609 -744.6276 -661.3776
ENERGY: 300000 2.0128 7.0114 0.2641 0.0000 -10676.2390 1495.1807 0.0000 0.0000 1779.3820 -7392.3880 305.7104 -9171.7701 -7427.3235 300.3646 782.2710 804.8274 29384.4226 199.4820 268.3629
ENERGY: 600000 0.5090 3.0333 0.8586 0.0000 -10682.8703 1523.1768 0.0000 0.0000 1760.1065 -7395.1862 302.3987 -9155.2927 -7435.1233 298.8993 451.4092 566.8270 30602.0979 119.3636 191.5871
ENERGY: 900000 1.2142 5.4968 0.1633 0.0000 -10554.9810 1361.1442 0.0000 0.0000 1720.5356 -7466.4269 295.6002 -9186.9625 -7423.5206 299.4096 -560.1942 -493.4315 30043.8177 40.4671 109.2884
ENERGY: 1200000 1.4498 6.2138 0.8857 0.0000 -10563.7835 1397.7705 0.0000 0.0000 1675.0485 -7482.4150 287.7852 -9157.4636 -7443.1702 297.0565 -227.9870 -168.0593 29953.8383 26.2700 92.4471
ENERGY: 1500000 1.8198 5.7821 1.1931 0.0000 -10619.0794 1431.0551 0.0000 0.0000 1734.0087 -7445.2207 297.9149 -9179.2294 -7448.6437 297.5205 149.6144 197.5466 29590.7157 12.1030 77.0813
TCL: Running FEP window  13: Lambda1 0.39999999999999963 Lambda2 0.34999999999999964 [dLambda -0.04999999999999999]
TCL: Setting parameter firsttimestep to 0
TCL: Setting parameter alchLambda to 0.39999999999999963
Info: NONBONDED TABLE R-SQUARED SPACING: 0.0625
Info: NONBONDED TABLE SIZE: 705 POINTS
TCL: Setting parameter alchLambda2 to 0.34999999999999964
Info: NONBONDED TABLE R-SQUARED SPACING: 0.0625
Info: NONBONDED TABLE SIZE: 705 POINTS
TCL: Running for 1500000 steps
ETITLE: TS BOND ANGLE DIHED IMPRP ELECT VDW BOUNDARY MISC KINETIC TOTAL TEMP POTENTIAL TOTALAVG TEMPAVG PRESSURE GPRESSURE VOLUME PRESSAVG GPRESSAVG
ENERGY: 0 1.8198 5.7821 1.1931 0.0000 -10619.0796 1431.4213 0.0000 0.0000 1733.1307 -7445.7326 297.7641 -9178.8633 -7445.7326 297.7641 109.2831 197.5553 29590.7157 109.2831 197.5553
ENERGY: 300000 1.2261 7.4563 0.2171 0.0000 -10683.0025 1539.3432 0.0000 0.0000 1740.7584 -7394.0014 299.0746 -9134.7599 -7436.3599 298.0308 1058.7381 1109.7603 29868.8870 212.0491 314.6186
ENERGY: 600000 1.5674 4.7139 0.3643 0.0000 -10552.1363 1410.2586 0.0000 0.0000 1719.5456 -7415.6866 295.4301 -9135.2322 -7433.9951 296.8728 -90.2654 17.2027 29993.7354 327.8089 405.4534
ENERGY: 900000 2.6940 3.3979 0.9352 0.0000 -10548.3250 1384.4433 0.0000 0.0000 1767.3590 -7389.4956 303.6448 -9156.8546 -7446.6209 296.9692 -265.8220 -243.9100 30189.4304 279.7491 349.0617
ENERGY: 1200000 1.3550 8.6932 0.6380 0.0000 -10627.8190 1431.4614 0.0000 0.0000 1689.9318 -7495.7395 290.3422 -9185.6713 -7446.9938 297.5184 -181.4045 -90.4346 29982.3317 193.1098 256.4249
ENERGY: 1500000 0.9216 7.7855 0.1479 0.0000 -10714.6271 1515.5121 0.0000 0.0000 1732.5190 -7457.7410 297.6590 -9190.2600 -7441.2334 298.5788 509.0195 582.6893 30155.3512 295.6130 360.1345
TCL: Running FEP window  14: Lambda1 0.34999999999999964 Lambda2 0.29999999999999966 [dLambda -0.04999999999999999]
TCL: Setting parameter firsttimestep to 0
TCL: Setting parameter alchLambda to 0.34999999999999964
Info: NONBONDED TABLE R-SQUARED SPACING: 0.0625
Info: NONBONDED TABLE SIZE: 705 POINTS
TCL: Setting parameter alchLambda2 to 0.29999999999999966
Info: NONBONDED TABLE R-SQUARED SPACING: 0.0625
Info: NONBONDED TABLE SIZE: 705 POINTS
TCL: Running for 1500000 steps
ETITLE: TS BOND ANGLE DIHED IMPRP ELECT VDW BOUNDARY MISC KINETIC TOTAL TEMP POTENTIAL TOTALAVG TEMPAVG PRESSURE GPRESSURE VOLUME PRESSAVG GPRESSAVG
ENERGY: 0 0.9216 7.7855 0.1479 0.0000 -10714.6281 1515.6107 0.0000 0.0000 1731.6632 -7458.4993 297.5120 -9190.1625 -7458.4993 297.5120 493.2698 576.6685 30155.3512 493.2698 576.6685
ENERGY: 300000 0.5699 3.6189 0.6433 0.0000 -10617.1102 1428.5847 0.0000 0.0000 1729.5352 -7454.1583 297.1464 -9183.6935 -7442.5144 299.5879 -146.2375 -126.6630 30315.3392 -212.1146 -161.8719
ENERGY: 600000 0.9446 6.2300 0.4193 0.0000 -10618.4196 1453.0855 0.0000 0.0000 1808.5956 -7349.1446 310.7295 -9157.7402 -7427.4270 300.9283 323.7980 357.5443 30032.3996 -60.8015 0.7828
ENERGY: 900000 2.7039 2.9513 0.0805 0.0000 -10562.2196 1419.3682 0.0000 0.0000 1716.7166 -7420.3992 294.9440 -9137.1158 -7429.1177 300.8791 -31.6644 8.3863 30010.3946 -60.8794 9.3085
ENERGY: 1200000 0.9312 5.1388 0.3980 0.0000 -10551.7552 1415.6705 0.0000 0.0000 1712.7058 -7416.9110 294.2550 -9129.6168 -7412.8445 300.4634 41.8260 152.7305 29819.5364 -45.2215 22.8991
ENERGY: 1500000 1.5083 6.2425 0.2331 0.0000 -10437.3807 1355.8592 0.0000 0.0000 1736.2395 -7337.2980 298.2982 -9073.5375 -7411.0463 300.3232 -323.8550 -318.9798 30298.6166 -24.8720 44.3480
TCL: Running FEP window  15: Lambda1 0.29999999999999966 Lambda2 0.24999999999999967 [dLambda -0.04999999999999999]
TCL: Setting parameter firsttimestep to 0
TCL: Setting parameter alchLambda to 0.29999999999999966
Info: NONBONDED TABLE R-SQUARED SPACING: 0.0625
Info: NONBONDED TABLE SIZE: 705 POINTS
TCL: Setting parameter alchLambda2 to 0.24999999999999967
Info: NONBONDED TABLE R-SQUARED SPACING: 0.0625
Info: NONBONDED TABLE SIZE: 705 POINTS
TCL: Running for 1500000 steps
ETITLE: TS BOND ANGLE DIHED IMPRP ELECT VDW BOUNDARY MISC KINETIC TOTAL TEMP POTENTIAL TOTALAVG TEMPAVG PRESSURE GPRESSURE VOLUME PRESSAVG GPRESSAVG
ENERGY: 0 1.5083 6.2425 0.2331 0.0000 -10437.3807 1355.3655 0.0000 0.0000 1735.3421 -7338.6892 298.1440 -9074.0313 -7338.6892 298.1440 -416.1365 -328.1049 30298.6166 -416.1365 -328.1049
ENERGY: 300000 1.7906 9.8565 0.2806 0.0000 -10573.5677 1396.4504 0.0000 0.0000 1782.4612 -7382.7284 306.2394 -9165.1896 -7396.3162 301.5408 -299.6667 -225.6339 30117.1295 -60.8926 12.2521
ENERGY: 600000 0.1316 7.9019 1.7432 0.0000 -10626.8312 1437.4605 0.0000 0.0000 1745.9737 -7433.6203 299.9706 -9179.5940 -7395.0023 300.7557 196.6550 195.5513 29822.0989 158.1452 214.5349
ENERGY: 900000 0.8569 5.0387 1.4113 0.0000 -10605.2093 1432.6632 0.0000 0.0000 1677.3994 -7487.8398 288.1891 -9165.2392 -7399.8286 300.4086 72.1780 102.6602 29784.8567 81.4570 142.9745
ENERGY: 1200000 2.1504 4.5239 0.1360 0.0000 -10645.1327 1428.6841 0.0000 0.0000 1778.1911 -7431.4473 305.5058 -9209.6383 -7412.2284 300.4353 -147.8894 -186.2505 30333.6925 -0.0056 49.8909
ENERGY: 1500000 1.7056 6.4909 0.8646 0.0000 -10625.8430 1455.0348 0.0000 0.0000 1739.7572 -7421.9898 298.9026 -9161.7470 -7418.1467 300.3057 211.6200 227.5515 30343.2798 18.3024 70.7908
TCL: Running FEP window  16: Lambda1 0.24999999999999967 Lambda2 0.19999999999999968 [dLambda -0.04999999999999999]
TCL: Setting parameter firsttimestep to 0
TCL: Setting parameter alchLambda to 0.24999999999999967
Info: NONBONDED TABLE R-SQUARED SPACING: 0.0625
Info: NONBONDED TABLE SIZE: 705 POINTS
TCL: Setting parameter alchLambda2 to 0.19999999999999968
Info: NONBONDED TABLE R-SQUARED SPACING: 0.0625
Info: NONBONDED TABLE SIZE: 705 POINTS
TCL: Running for 1500000 steps
ETITLE: TS BOND ANGLE DIHED IMPRP ELECT VDW BOUNDARY MISC KINETIC TOTAL TEMP POTENTIAL TOTALAVG TEMPAVG PRESSURE GPRESSURE VOLUME PRESSAVG GPRESSAVG
ENERGY: 0 1.7056 6.4909 0.8646 0.0000 -10625.8414 1455.4684 0.0000 0.0000 1738.8736 -7422.4383 298.7508 -9161.3118 -7422.4383 298.7508 156.0703 225.5182 30343.2798 156.0703 225.5182
ENERGY: 300000 2.0063 6.8431 0.7751 0.0000 -10631.7653 1401.4821 0.0000 0.0000 1732.9072 -7487.7515 297.7257 -9220.6587 -7409.4443 301.2198 -587.5151 -477.5531 30118.5474 -251.5811 -180.3773
ENERGY: 600000 0.5865 4.1614 0.9953 0.0000 -10814.5365 1534.3276 0.0000 0.0000 1770.0251 -7504.4406 304.1028 -9274.4658 -7418.8608 302.7188 880.5128 989.7052 29518.7392 71.5662 137.8109
ENERGY: 900000 2.2720 5.4170 0.9603 0.0000 -10602.5669 1389.1265 0.0000 0.0000 1715.8949 -7488.8961 294.8029 -9204.7911 -7430.7807 302.1758 -465.5871 -464.8674 30193.9865 65.9202 120.5461
ENERGY: 1200000 0.8105 6.0351 2.8063 0.0000 -10799.2528 1533.9595 0.0000 0.0000 1745.1966 -7510.4448 299.8371 -9255.6414 -7445.5400 301.0809 425.9681 526.9891 30029.3048 30.7599 89.9515
ENERGY: 1500000 2.5661 3.8076 0.2600 0.0000 -10522.6145 1377.4739 0.0000 0.0000 1740.5790 -7397.9279 299.0438 -9138.5069 -7443.8260 301.2110 -612.1179 -547.6370 30400.9630 37.8845 105.3431
TCL: Running FEP window  17: Lambda1 0.19999999999999968 Lambda2 0.1499999999999997 [dLambda -0.04999999999999999]
TCL: Setting parameter firsttimestep to 0
TCL: Setting parameter alchLambda to 0.19999999999999968
Info: NONBONDED TABLE R-SQUARED SPACING: 0.0625
Info: NONBONDED TABLE SIZE: 705 POINTS
TCL: Setting parameter alchLambda2 to 0.1499999999999997
Info: NONBONDED TABLE R-SQUARED SPACING: 0.0625
Info: NONBONDED TABLE SIZE: 705 POINTS
TCL: Running for 1500000 steps
ETITLE: TS BOND ANGLE DIHED IMPRP ELECT VDW BOUNDARY MISC KINETIC TOTAL TEMP POTENTIAL TOTALAVG TEMPAVG PRESSURE GPRESSURE VOLUME PRESSAVG GPRESSAVG
ENERGY: 0 2.5661 3.8076 0.2600 0.0000 -10522.6137 1377.4268 0.0000 0.0000 1739.6887 -7398.8645 298.8908 -9138.5532 -7398.8645 298.8908 -626.8921 -552.2086 30400.9630 -626.8921 -552.2086
ENERGY: 300000 2.3521 4.1777 0.3086 0.0000 -10551.7040 1374.4218 0.0000 0.0000 1729.2472 -7441.1967 297.0969 -9170.4439 -7389.5017 301.7755 -775.5898 -687.0497 30340.1886 -119.6379 -40.1938
ENERGY: 600000 2.0751 4.0250 0.8176 0.0000 -10509.5773 1371.6005 0.0000 0.0000 1734.0956 -7396.9635 297.9299 -9131.0591 -7399.0417 300.8070 -341.9190 -316.1216 30146.9114 -221.7562 -149.0351
ENERGY: 900000 1.1508 4.3790 1.0364 0.0000 -10517.0635 1374.2690 0.0000 0.0000 1739.6981 -7396.5302 298.8924 -9136.2283 -7414.9234 300.1304 -388.4546 -344.3777 30147.5433 -322.2176 -250.4737
ENERGY: 1200000 1.4305 4.2681 0.5988 0.0000 -10624.1860 1453.4318 0.0000 0.0000 1741.1631 -7423.2937 299.1441 -9164.4568 -7414.8082 300.2615 283.9135 356.7676 30033.0907 -288.3557 -225.5896
ENERGY: 1500000 2.5562 4.1546 0.2027 0.0000 -10653.3851 1467.7965 0.0000 0.0000 1745.1277 -7433.5474 299.8253 -9178.6751 -7417.5850 300.5463 259.6047 260.0634 29980.4601 -330.5096 -274.3897
TCL: Running FEP window  18: Lambda1 0.1499999999999997 Lambda2 0.09999999999999969 [dLambda -0.05 ]
TCL: Setting parameter firsttimestep to 0
TCL: Setting parameter alchLambda to 0.1499999999999997
Info: NONBONDED TABLE R-SQUARED SPACING: 0.0625
Info: NONBONDED TABLE SIZE: 705 POINTS
TCL: Setting parameter alchLambda2 to 0.09999999999999969
Info: NONBONDED TABLE R-SQUARED SPACING: 0.0625
Info: NONBONDED TABLE SIZE: 705 POINTS
TCL: Running for 1500000 steps
ETITLE: TS BOND ANGLE DIHED IMPRP ELECT VDW BOUNDARY MISC KINETIC TOTAL TEMP POTENTIAL TOTALAVG TEMPAVG PRESSURE GPRESSURE VOLUME PRESSAVG GPRESSAVG
ENERGY: 0 2.5562 4.1546 0.2027 0.0000 -10653.3859 1468.0940 0.0000 0.0000 1744.2401 -7434.1383 299.6728 -9178.3783 -7434.1383 299.6728 173.7959 258.7402 29980.4601 173.7959 258.7402
ENERGY: 300000 0.7659 6.2958 0.1515 0.0000 -10407.7959 1295.6089 0.0000 0.0000 1796.4206 -7308.5533 308.6377 -9104.9738 -7375.7469 300.1882 -785.7107 -695.6165 29855.7526 -230.7351 -166.2252
ENERGY: 600000 1.8062 3.1805 0.6958 0.0000 -10646.4758 1446.9305 0.0000 0.0000 1688.8952 -7504.9676 290.1641 -9193.8628 -7398.2407 297.4240 149.0537 197.9850 29634.3287 -180.1381 -118.8519
ENERGY: 900000 0.7699 7.3924 0.3192 0.0000 -10559.1154 1366.5548 0.0000 0.0000 1754.2395 -7429.8396 301.3907 -9184.0791 -7416.3424 298.5572 -693.3638 -622.1293 30262.8818 -348.9673 -288.9707
ENERGY: 1200000 0.3935 7.1162 0.3643 0.0000 -10530.7131 1369.2109 0.0000 0.0000 1776.9585 -7376.6697 305.2940 -9153.6282 -7406.8277 300.6597 -418.2201 -317.0998 29927.6866 -284.7286 -218.0775
ENERGY: 1500000 0.2605 5.6081 0.1113 0.0000 -10634.2604 1435.0902 0.0000 0.0000 1738.1088 -7455.0815 298.6194 -9193.1902 -7417.7695 299.5040 111.6826 139.3875 29753.5854 -230.6223 -169.8039
TCL: Running FEP window  19: Lambda1 0.09999999999999969 Lambda2 0.049999999999999684 [dLambda -0.05 ]
TCL: Setting parameter firsttimestep to 0
TCL: Setting parameter alchLambda to 0.09999999999999969
Info: NONBONDED TABLE R-SQUARED SPACING: 0.0625
Info: NONBONDED TABLE SIZE: 705 POINTS
TCL: Setting parameter alchLambda2 to 0.049999999999999684
Info: NONBONDED TABLE R-SQUARED SPACING: 0.0625
Info: NONBONDED TABLE SIZE: 705 POINTS
TCL: Running for 1500000 steps
ETITLE: TS BOND ANGLE DIHED IMPRP ELECT VDW BOUNDARY MISC KINETIC TOTAL TEMP POTENTIAL TOTALAVG TEMPAVG PRESSURE GPRESSURE VOLUME PRESSAVG GPRESSAVG
ENERGY: 0 0.2605 5.6081 0.1113 0.0000 -10634.2602 1435.0417 0.0000 0.0000 1737.2448 -7455.9937 298.4709 -9193.2385 -7455.9937 298.4709 57.2253 137.0970 29753.5854 57.2253 137.0970
ENERGY: 300000 0.4240 5.3432 0.3599 0.0000 -10591.0997 1406.2300 0.0000 0.0000 1727.9629 -7450.7797 296.8762 -9178.7426 -7460.6304 299.1470 -23.9590 49.0842 29802.4261 230.6086 314.4607
ENERGY: 600000 0.1507 5.3046 0.6509 0.0000 -10719.6704 1499.2895 0.0000 0.0000 1717.6199 -7496.6548 295.0992 -9214.2747 -7457.1620 298.4199 552.7735 580.0783 29790.6248 371.1518 446.5935
ENERGY: 900000 3.8228 4.1541 1.2425 0.0000 -10492.3011 1374.5679 0.0000 0.0000 1761.9952 -7346.5186 302.7232 -9108.5138 -7450.8331 298.2168 -366.8223 -349.8848 30488.0052 242.3580 308.8768
ENERGY: 1200000 1.4369 2.8627 0.4500 0.0000 -10718.8161 1487.5326 0.0000 0.0000 1703.1641 -7523.3698 292.6156 -9226.5339 -7451.3944 298.7637 528.9408 611.4652 29510.3711 246.5414 310.0197
ENERGY: 1500000 1.7057 1.9894 0.6431 0.0000 -10540.2729 1390.1895 0.0000 0.0000 1760.1174 -7385.6278 302.4006 -9145.7452 -7446.1437 299.3304 -338.7606 -269.4985 30257.1247 216.8242 278.3369
TCL: Running FEP window  20: Lambda1 0.049999999999999684 Lambda2 0.0    [dLambda -0.049999999999999684]
TCL: Setting parameter firsttimestep to 0
TCL: Setting parameter alchLambda to 0.049999999999999684
Info: NONBONDED TABLE R-SQUARED SPACING: 0.0625
Info: NONBONDED TABLE SIZE: 705 POINTS
TCL: Setting parameter alchLambda2 to 0.0
Info: NONBONDED TABLE R-SQUARED SPACING: 0.0625
Info: NONBONDED TABLE SIZE: 705 POINTS
TCL: Running for 1500000 steps
ETITLE: TS BOND ANGLE DIHED IMPRP ELECT VDW BOUNDARY MISC KINETIC TOTAL TEMP POTENTIAL TOTALAVG TEMPAVG PRESSURE GPRESSURE VOLUME PRESSAVG GPRESSAVG
ENERGY: 0 1.7057 1.9894 0.6431 0.0000 -10540.2725 1390.1878 0.0000 0.0000 1759.2124 -7386.5340 302.2451 -9145.7464 -7386.5340 302.2451 -355.0655 -271.9827 30257.1247 -355.0655 -271.9827
ENERGY: 300000 2.2408 4.1380 0.9808 0.0000 -10629.4726 1453.0363 0.0000 0.0000 1748.3110 -7420.7657 300.3722 -9169.0768 -7371.9590 305.0197 -12.3975 121.3526 30001.3183 57.3105 126.3943
ENERGY: 600000 1.4110 6.4739 0.7286 0.0000 -10608.1280 1401.5349 0.0000 0.0000 1726.6993 -7471.2804 296.6591 -9197.9797 -7403.9813 300.9410 -286.4120 -234.1261 29976.7351 20.5347 91.6874
ENERGY: 900000 0.8439 6.4158 0.8885 0.0000 -10628.7171 1455.8421 0.0000 0.0000 1772.6121 -7392.1148 304.5473 -9164.7268 -7406.7996 299.9738 501.8817 611.3735 29352.6206 74.2353 151.1306
ENERGY: 1200000 0.7616 5.6435 1.2577 0.0000 -10534.5684 1361.0133 0.0000 0.0000 1719.7363 -7446.1560 295.4628 -9165.8922 -7410.0359 300.4279 -505.6680 -495.7949 30172.6217 55.7890 124.0945
ENERGY: 1500000 3.1590 5.7613 0.2375 0.0000 -10520.7007 1387.7843 0.0000 0.0000 1714.4866 -7409.2720 294.5609 -9123.7586 -7413.3637 299.6801 -258.5093 -216.9925 30493.0020 170.4665 235.3169
TCL: Exiting due to exit command.
