Info: SIMULATION PARAMETERS:
Info: TIMESTEP               2
Info: NUMBER OF STEPS        0
Info: STEPS PER CYCLE        10
Info: PERIODIC CELL BASIS 1  30.2167 0 0
Info: PERIODIC CELL BASIS 2  0 30.2635 0
Info: PERIODIC CELL BASIS 3  0 0 33.0822
Info: PERIODIC CELL CENTER   0 0 0
Info: WRAPPING WATERS AROUND PERIODIC BOUNDARIES ON OUTPUT.
Info: WRAPPING ALL CLUSTERS AROUND PERIODIC BOUNDARIES ON OUTPUT.
Info: FIRST LDB TIMESTEP     50
Info: LAST LDB TIMESTEP     -1
Info: HOM BACKGROUND SCALING 1
Info: PME BACKGROUND SCALING 1
Info: MIN ATOMS PER PATCH    40
Info: EMPTY PATCH LOAD       40 ATOMS
Info: VELOCITY FILE          mobley_6988468_equil.vel
Info: CENTER OF MASS MOVING INITIALLY? NO
Info: DIELECTRIC             1
Info: EXCLUDE                SCALED ONE-FOUR
Info: 1-4 ELECTROSTATICS SCALED BY 0.833333
Info: MODIFIED 1-4 VDW PARAMETERS WILL BE USED
Info: DCD FILENAME           mobley_6988468_prod.dcd
Info: DCD FREQUENCY          100000
Info: DCD FIRST STEP         100000
Info: DCD FILE WILL CONTAIN UNIT CELL DATA
Info: XST FILENAME           mobley_6988468_prod.xst
Info: XST FREQUENCY          100000
Info: NO VELOCITY DCD OUTPUT
Info: NO FORCE DCD OUTPUT
Info: OUTPUT FILENAME        mobley_6988468_prod
Info: BINARY OUTPUT FILES WILL BE USED
Info: RESTART FILENAME       mobley_6988468_prod.restart
Info: RESTART FREQUENCY      100000
Info: BINARY RESTART FILES WILL BE USED
Info: CUTOFF                 9
Info: PAIRLIST DISTANCE      11
Info: PAIRLIST SHRINK RATE   0.01
Info: PAIRLIST GROW RATE     0.01
Info: PAIRLIST TRIGGER       0.3
Info: PAIRLISTS PER CYCLE    2
Info: PAIRLISTS ENABLED
Info: MARGIN                 2
Info: HYDROGEN GROUP CUTOFF  2.5
Info: PATCH DIMENSION        15.5
Info: ENERGY OUTPUT STEPS    100000
Info: ENERGY EVALUATION STEPS    100000
Info: OUTPUT ENERGY PRECISION 4
Info: CROSSTERM ENERGY INCLUDED IN DIHEDRAL
Info: TIMING OUTPUT STEPS    1000000
Info: PRESSURE OUTPUT STEPS  100000
Info: ALCHEMICAL FEP ON
Info: FEP CURRENT LAMBDA VALUE     0
Info: FEP COMPARISON LAMBDA VALUE  0.05
Info: FEP INTRA-ALCHEMICAL NON-BONDED INTERACTIONS WILL BE RETAINED
Info: FEP INTRA-ALCHEMICAL BONDED INTERACTIONS WILL BE RETAINED
Info: FEP VDW SHIFTING COEFFICIENT 5
Info: FEP ELEC. ACTIVE FOR ANNIHILATED PARTICLES BETWEEN LAMBDA = 0 AND LAMBDA = 0.5
Info: FEP ELEC. ACTIVE FOR EXNIHILATED PARTICLES BETWEEN LAMBDA = 0.5 AND LAMBDA = 1
Info: FEP VDW ACTIVE FOR ANNIHILATED PARTICLES BETWEEN LAMBDA = 0 AND LAMBDA = 1
Info: FEP VDW ACTIVE FOR EXNIHILATED PARTICLES BETWEEN LAMBDA = 0 AND LAMBDA = 1
Info: FEP BOND ACTIVE FOR ANNIHILATED PARTICLES BETWEEN LAMBDA = 1 AND LAMBDA = 1
Info: FEP BOND ACTIVE FOR EXNIHILATED PARTICLES BETWEEN LAMBDA = 0 AND LAMBDA = 0
Info: LANGEVIN DYNAMICS ACTIVE
Info: LANGEVIN TEMPERATURE   300
Info: LANGEVIN USING BBK INTEGRATOR
Info: LANGEVIN DAMPING COEFFICIENT IS 1 INVERSE PS
Info: LANGEVIN DYNAMICS APPLIED TO HYDROGENS
Info: LANGEVIN PISTON PRESSURE CONTROL ACTIVE
Info:        TARGET PRESSURE IS 1.01325 BAR
Info:     OSCILLATION PERIOD IS 50 FS
Info:             DECAY TIME IS 25 FS
Info:     PISTON TEMPERATURE IS 300 K
Info:       PRESSURE CONTROL IS GROUP-BASED
Info:    INITIAL STRAIN RATE IS -0.000306128 -0.000306128 -0.000306128
Info:       CELL FLUCTUATION IS ISOTROPIC
Info: PARTICLE MESH EWALD (PME) ACTIVE
Info: PME TOLERANCE               1e-06
Info: PME EWALD COEFFICIENT       0.348832
Info: PME INTERPOLATION ORDER     4
Info: PME GRID DIMENSIONS         32 32 36
Info: PME MAXIMUM GRID SPACING    1
Info: PME CALCULATION WILL BE PERFORMED ON GPU
Info: FULL ELECTROSTATIC EVALUATION FREQUENCY      2
Info: USING VERLET I (r-RESPA) MTS SCHEME.
Info: C1 SPLITTING OF LONG RANGE ELECTROSTATICS
Info: PLACING ATOMS IN PATCHES BY HYDROGEN GROUPS
Info: RIGID BONDS TO HYDROGEN : ALL
Info:         ERROR TOLERANCE : 1e-08
Info:          MAX ITERATIONS : 100
Info: RIGID WATER USING SETTLE ALGORITHM
Info: RANDOM NUMBER SEED     1743770000
Info: USE HYDROGEN BONDS?    NO
Info: Using AMBER format force field!
Info: AMBER PARM FILE        mobley_6988468.prmtop
Info: COORDINATE PDB         mobley_6988468.pdb
Info: Exclusions will be read from PARM file!
Info: SCNB (VDW SCALING)     2
Info: USING ARITHMETIC MEAN TO COMBINE L-J SIGMA PARAMETERS
Info: BINARY COORDINATES     mobley_6988468_equil.coor
Info: SUMMARY OF PARAMETERS:
Info: 9 BONDS
Info: 12 ANGLES
Info:   12 HARMONIC
Info:   0 COSINE-BASED
Info: 6 DIHEDRAL
Info: 0 IMPROPER
Info: 0 CROSSTERM
Info: 0 VDW
Info: 36 VDW_PAIRS
Info: 0 NBTHOLE_PAIRS
Info: To read alchdata from file: mobley_6988468.pdb
Info: To read alchflag data from column: 5
Info: STRUCTURE SUMMARY:
Info: 2963 ATOMS
Info: 2963 BONDS
Info: 28 ANGLES
Info: 40 DIHEDRALS
Info: 0 IMPROPERS
Info: 0 CROSSTERMS
Info: 3023 EXCLUSIONS
Info: 2955 RIGID BONDS
Info: ALCH: 0 ATOMS TO DISAPPEAR IN FINAL STATE
Info: ALCH: 17 ATOMS TO APPEAR IN FINAL STATE
Info: 5934 DEGREES OF FREEDOM
Info: 990 HYDROGEN GROUPS
Info: 4 ATOMS IN LARGEST HYDROGEN GROUP
Info: 990 MIGRATION GROUPS
Info: 4 ATOMS IN LARGEST MIGRATION GROUP
Info: TOTAL MASS = 17798.9 amu
Info: TOTAL CHARGE = 0.000199962 e
Info: MASS DENSITY = 0.976993 g/cm^3
Info: ATOM DENSITY = 0.0979426 atoms/A^3
Info: ADDED 0 IMPLICIT EXCLUSIONS
Info: NONBONDED TABLE R-SQUARED SPACING: 0.0625
Info: NONBONDED TABLE SIZE: 705 POINTS
Info: REMOVING COM VELOCITY 0.190582 0.0673476 0.0508951
Info: Use 3D box decompostion in PME FFT.
Info: Updated CUDA force table with 4096 elements.
Info: Updated CUDA LJ table with 8 x 8 elements.
Info: Found 16 unique exclusion lists needing 40 bytes
TCL: Running for 1500000 steps
ETITLE: TS BOND ANGLE DIHED IMPRP ELECT VDW BOUNDARY MISC KINETIC TOTAL TEMP POTENTIAL TOTALAVG TEMPAVG PRESSURE GPRESSURE VOLUME PRESSAVG GPRESSAVG
ENERGY: 0 0.4289 4.7454 2.3549 0.0000 -10735.8650 1428.8542 0.0000 0.0000 1809.7295 -7489.7521 306.9421 -9299.4817 -7489.7521 306.9421 102.3992 196.2502 30252.4161 102.3992 196.2502
ENERGY: 300000 2.7129 5.5660 1.2071 0.0000 -10687.8460 1376.2466 0.0000 0.0000 1814.7197 -7487.3936 307.7885 -9302.1133 -7515.2709 304.2071 -576.1072 -521.3499 30483.9986 30.1400 93.0065
ENERGY: 600000 1.9347 5.5286 2.1312 0.0000 -10686.3281 1357.0992 0.0000 0.0000 1787.6289 -7532.0056 303.1937 -9319.6345 -7503.4345 302.5794 -862.5312 -810.1328 30403.4162 -220.8064 -150.4634
ENERGY: 900000 1.3005 5.8610 4.6196 0.0000 -10799.9678 1483.4433 0.0000 0.0000 1684.6596 -7620.0838 285.7294 -9304.7434 -7519.7243 300.7123 146.4425 193.0067 29955.8557 -193.7862 -133.7666
ENERGY: 1200000 5.8614 6.7038 4.3439 0.0000 -10600.9234 1415.4133 0.0000 0.0000 1753.6049 -7414.9960 297.4230 -9168.6010 -7519.3121 299.8689 -34.9757 -7.0708 30515.5272 -237.2813 -178.3052
ENERGY: 1500000 3.3036 5.6460 2.7702 0.0000 -10787.9427 1489.5402 0.0000 0.0000 1764.4133 -7522.2695 299.2562 -9286.6828 -7518.2197 299.9076 215.1953 318.8625 30324.2627 -203.4047 -136.2435
TCL: Running FEP window   2: Lambda1 0.05   Lambda2 0.1    [dLambda 0.05  ]
TCL: Setting parameter firsttimestep to 0
TCL: Setting parameter alchLambda to 0.05
Info: NONBONDED TABLE R-SQUARED SPACING: 0.0625
Info: NONBONDED TABLE SIZE: 705 POINTS
TCL: Setting parameter alchLambda2 to 0.1
Info: NONBONDED TABLE R-SQUARED SPACING: 0.0625
Info: NONBONDED TABLE SIZE: 705 POINTS
TCL: Running for 1500000 steps
ETITLE: TS BOND ANGLE DIHED IMPRP ELECT VDW BOUNDARY MISC KINETIC TOTAL TEMP POTENTIAL TOTALAVG TEMPAVG PRESSURE GPRESSURE VOLUME PRESSAVG GPRESSAVG
ENERGY: 0 3.3036 5.6460 2.7702 0.0000 -10787.9428 1493.0852 0.0000 0.0000 1763.5286 -7519.6093 299.1062 -9283.1379 -7519.6093 299.1062 236.8619 329.6047 30324.2627 236.8619 329.6047
ENERGY: 300000 1.3136 3.0492 5.1927 0.0000 -10704.5989 1413.6102 0.0000 0.0000 1745.8802 -7535.5530 296.1129 -9281.4332 -7527.4104 300.1155 -467.4914 -370.9007 30666.6355 -160.7700 -97.8837
ENERGY: 600000 4.9657 6.9017 6.8789 0.0000 -10882.6794 1525.6633 0.0000 0.0000 1798.8292 -7539.4405 305.0934 -9338.2697 -7527.9765 301.2737 90.2802 161.3080 30466.2266 39.8685 105.7326
ENERGY: 900000 2.7897 4.7720 2.8474 0.0000 -10636.4959 1382.3543 0.0000 0.0000 1743.2950 -7500.4375 295.6744 -9243.7325 -7522.5260 301.3867 -374.5829 -327.4796 30397.4402 -8.6743 52.3786
ENERGY: 1200000 2.9044 6.9770 2.1248 0.0000 -10787.2452 1412.1447 0.0000 0.0000 1753.7425 -7609.3518 297.4464 -9363.0942 -7525.6061 301.0513 -655.0451 -538.4442 30362.0645 -56.3397 11.2562
ENERGY: 1500000 3.4497 4.0262 3.1650 0.0000 -10794.6515 1475.7434 0.0000 0.0000 1741.9006 -7566.3665 295.4379 -9308.2671 -7530.3822 300.0622 -17.4645 0.7607 30693.7646 -48.5455 15.5190
TCL: Running FEP window   3: Lambda1 0.1    Lambda2 0.15000000000000002 [dLambda 0.05000000000000002]
TCL: Setting parameter firsttimestep to 0
TCL: Setting parameter alchLambda to 0.1
Info: NONBONDED TABLE R-SQUARED SPACING: 0.0625
Info: NONBONDED TABLE SIZE: 705 POINTS
TCL: Setting parameter alchLambda2 to 0.15000000000000002
Info: NONBONDED TABLE R-SQUARED SPACING: 0.0625
Info: NONBONDED TABLE SIZE: 705 POINTS
TCL: Running for 1500000 steps
ETITLE: TS BOND ANGLE DIHED IMPRP ELECT VDW BOUNDARY MISC KINETIC TOTAL TEMP POTENTIAL TOTALAVG TEMPAVG PRESSURE GPRESSURE VOLUME PRESSAVG GPRESSAVG
ENERGY: 0 3.4497 4.0262 3.1650 0.0000 -10794.6529 1477.0410 0.0000 0.0000 1741.0172 -7565.9537 295.2881 -9306.9709 -7565.9537 295.2881 -86.5429 6.9615 30693.7646 -86.5429 6.9615
ENERGY: 300000 2.6212 4.1507 1.6196 0.0000 -10568.9586 1385.8150 0.0000 0.0000 1791.7745 -7382.9776 303.8968 -9174.7522 -7504.3900 300.8218 -503.0968 -423.9263 31218.7232 -23.2927 35.4494
ENERGY: 600000 2.4713 6.2446 5.3742 0.0000 -10793.6426 1509.2718 0.0000 0.0000 1710.7190 -7559.5617 290.1493 -9270.2807 -7503.9466 299.4224 690.2191 763.3971 29917.4512 162.0812 220.6842
ENERGY: 900000 2.6291 4.0217 1.3344 0.0000 -10789.0619 1426.0606 0.0000 0.0000 1749.9129 -7605.1033 296.7968 -9355.0161 -7518.1654 300.0060 -276.6563 -193.6709 30164.3204 47.8391 116.3502
ENERGY: 1200000 1.4041 4.5942 2.7135 0.0000 -10741.0062 1444.8108 0.0000 0.0000 1821.5270 -7465.9564 308.9431 -9287.4834 -7509.8855 302.5358 -20.9513 59.3059 30531.5408 72.0977 141.3348
ENERGY: 1500000 3.7104 10.1711 2.5716 0.0000 -10828.4096 1496.3067 0.0000 0.0000 1740.5894 -7575.0603 295.2155 -9315.6497 -7512.0952 301.9143 329.3455 410.2742 30049.5636 87.9488 155.3675
TCL: Running FEP window   4: Lambda1 0.15000000000000002 Lambda2 0.2    [dLambda 0.04999999999999999]
TCL: Setting parameter firsttimestep to 0
TCL: Setting parameter alchLambda to 0.15000000000000002
Info: NONBONDED TABLE R-SQUARED SPACING: 0.0625
Info: NONBONDED TABLE SIZE: 705 POINTS
TCL: Setting parameter alchLambda2 to 0.2
Info: NONBONDED TABLE R-SQUARED SPACING: 0.0625
Info: NONBONDED TABLE SIZE: 705 POINTS
TCL: Running for 1500000 steps
ETITLE: TS BOND ANGLE DIHED IMPRP ELECT VDW BOUNDARY MISC KINETIC TOTAL TEMP POTENTIAL TOTALAVG TEMPAVG PRESSURE GPRESSURE VOLUME PRESSAVG GPRESSAVG
ENERGY: 0 3.7104 10.1711 2.5716 0.0000 -10828.4088 1496.8881 0.0000 0.0000 1739.7446 -7575.3228 295.0722 -9315.0675 -7575.3228 295.0722 330.7026 416.3558 30049.5636 330.7026 416.3558
ENERGY: 300000 2.2699 4.6111 2.7586 0.0000 -10654.5663 1358.5179 0.0000 0.0000 1729.2961 -7557.1126 293.3001 -9286.4087 -7498.4966 299.6262 -907.1200 -778.1554 30886.5761 -173.7027 -69.5205
ENERGY: 600000 2.1963 2.8669 2.4658 0.0000 -10843.9983 1520.4156 0.0000 0.0000 1758.0349 -7558.0188 298.1744 -9316.0537 -7513.3670 300.4674 489.3171 529.6582 30272.4652 34.0921 107.8517
ENERGY: 900000 2.3281 6.0569 1.4160 0.0000 -10629.9659 1402.8571 0.0000 0.0000 1752.1681 -7465.1398 297.1793 -9217.3079 -7497.0927 300.3723 -159.0156 -37.4153 30118.8302 22.6107 97.3827
ENERGY: 1200000 1.2850 3.7455 3.2557 0.0000 -10607.9446 1405.9898 0.0000 0.0000 1723.1274 -7470.5412 292.2539 -9193.6686 -7492.7779 299.9852 -337.8739 -218.0325 30783.4797 46.3038 125.0320
ENERGY: 1500000 2.5484 7.4763 2.0207 0.0000 -10799.7934 1528.0697 0.0000 0.0000 1816.1287 -7443.5496 308.0275 -9259.6782 -7486.8672 301.1466 877.3518 859.6139 29929.5198 82.2732 156.8536
TCL: Running FEP window   5: Lambda1 0.2    Lambda2 0.25   [dLambda 0.04999999999999999]
TCL: Setting parameter firsttimestep to 0
TCL: Setting parameter alchLambda to 0.2
Info: NONBONDED TABLE R-SQUARED SPACING: 0.0625
Info: NONBONDED TABLE SIZE: 705 POINTS
TCL: Setting parameter alchLambda2 to 0.25
Info: NONBONDED TABLE R-SQUARED SPACING: 0.0625
Info: NONBONDED TABLE SIZE: 705 POINTS
TCL: Running for 1500000 steps
ETITLE: TS BOND ANGLE DIHED IMPRP ELECT VDW BOUNDARY MISC KINETIC TOTAL TEMP POTENTIAL TOTALAVG TEMPAVG PRESSURE GPRESSURE VOLUME PRESSAVG GPRESSAVG
ENERGY: 0 2.5484 7.4763 2.0207 0.0000 -10799.7931 1528.6337 0.0000 0.0000 1815.2369 -7443.8770 307.8762 -9259.1139 -7443.8770 307.8762 783.7442 863.8575 29929.5198 783.7442 863.8575
ENERGY: 300000 1.1361 3.1096 1.6546 0.0000 -10826.0112 1538.3958 0.0000 0.0000 1773.8118 -7507.9034 300.8503 -9281.7152 -7484.0280 304.1053 780.6608 928.7146 30114.8261 336.0350 413.6852
ENERGY: 600000 4.2608 3.8924 6.3389 0.0000 -10737.9789 1481.3688 0.0000 0.0000 1774.0031 -7468.1149 300.8827 -9242.1180 -7497.4775 302.9257 603.7707 769.0487 29989.7377 263.9807 337.2477
ENERGY: 900000 2.0388 2.2021 1.5944 0.0000 -10850.0309 1517.5756 0.0000 0.0000 1740.1573 -7586.4627 295.1422 -9326.6200 -7514.0789 301.0096 628.9122 671.0350 29969.9370 193.4116 257.7280
ENERGY: 1200000 3.4838 5.8128 3.5464 0.0000 -10730.2881 1378.1544 0.0000 0.0000 1732.0719 -7607.2189 293.7709 -9339.2908 -7527.1379 299.7018 -694.3896 -671.9414 30285.3261 86.2805 140.8455
ENERGY: 1500000 4.1028 3.7483 3.5929 0.0000 -10671.8579 1353.2691 0.0000 0.0000 1756.6534 -7550.4914 297.9401 -9307.1447 -7523.4492 300.0985 -743.9432 -613.2457 29898.8767 45.9202 104.3023
TCL: Running FEP window   6: Lambda1 0.25   Lambda2 0.3    [dLambda 0.04999999999999999]
TCL: Setting parameter firsttimestep to 0
TCL: Setting parameter alchLambda to 0.25
Info: NONBONDED TABLE R-SQUARED SPACING: 0.0625
Info: NONBONDED TABLE SIZE: 705 POINTS
TCL: Setting parameter alchLambda2 to 0.3
Info: NONBONDED TABLE R-SQUARED SPACING: 0.0625
Info: NONBONDED TABLE SIZE: 705 POINTS
TCL: Running for 1500000 steps
ETITLE: TS BOND ANGLE DIHED IMPRP ELECT VDW BOUNDARY MISC KINETIC TOTAL TEMP POTENTIAL TOTALAVG TEMPAVG PRESSURE GPRESSURE VOLUME PRESSAVG GPRESSAVG
ENERGY: 0 4.1028 3.7483 3.5929 0.0000 -10671.8571 1353.6439 0.0000 0.0000 1755.7576 -7551.0116 297.7881 -9306.7691 -7551.0116 297.7881 -708.9779 -610.3560 29898.8767 -708.9779 -610.3560
ENERGY: 300000 3.1052 3.8732 2.1157 0.0000 -10911.3878 1533.6061 0.0000 0.0000 1823.1559 -7545.5316 309.2193 -9368.6875 -7533.4489 304.4204 597.6034 673.3726 29774.5073 -280.5288 -177.4082
ENERGY: 600000 4.1245 2.7696 3.2603 0.0000 -10935.4035 1525.7044 0.0000 0.0000 1779.1631 -7620.3817 301.7579 -9399.5448 -7521.3897 305.5603 395.1475 514.9909 30420.2636 -21.6832 87.4287
ENERGY: 900000 3.2965 4.2492 3.3618 0.0000 -10794.2239 1516.3869 0.0000 0.0000 1801.2090 -7465.7205 305.4970 -9266.9295 -7511.4285 304.3177 611.9996 688.6231 30455.6506 56.7147 160.0729
ENERGY: 1200000 3.5049 4.9765 3.5198 0.0000 -10783.1013 1509.8204 0.0000 0.0000 1722.6099 -7538.6696 292.1661 -9261.2796 -7526.4328 302.6022 688.4571 706.5709 30242.3587 57.0385 146.7712
ENERGY: 1500000 3.2088 6.4822 4.3395 0.0000 -10838.0505 1516.1473 0.0000 0.0000 1762.8520 -7545.0208 298.9914 -9307.8728 -7533.3790 301.1573 471.9541 487.6005 30377.4068 136.4250 220.1726
TCL: Running FEP window   7: Lambda1 0.3    Lambda2 0.35   [dLambda 0.04999999999999999]
TCL: Setting parameter firsttimestep to 0
TCL: Setting parameter alchLambda to 0.3
Info: NONBONDED TABLE R-SQUARED SPACING: 0.0625
Info: NONBONDED TABLE SIZE: 705 POINTS
TCL: Setting parameter alchLambda2 to 0.35
Info: NONBONDED TABLE R-SQUARED SPACING: 0.0625
Info: NONBONDED TABLE SIZE: 705 POINTS
TCL: Running for 1500000 steps
ETITLE: TS BOND ANGLE DIHED IMPRP ELECT VDW BOUNDARY MISC KINETIC TOTAL TEMP POTENTIAL TOTALAVG TEMPAVG PRESSURE GPRESSURE VOLUME PRESSAVG GPRESSAVG
ENERGY: 0 3.2088 6.4822 4.3395 0.0000 -10838.0499 1516.8719 0.0000 0.0000 1761.9412 -7545.2063 298.8369 -9307.1475 -7545.2063 298.8369 423.3034 494.4817 30377.4068 423.3034 494.4817
ENERGY: 300000 2.8040 5.2070 3.6436 0.0000 -10607.2165 1372.2183 0.0000 0.0000 1773.4330 -7449.9107 300.7860 -9223.3436 -7493.2735 302.0919 -460.2827 -372.3426 30470.4329 -149.4070 -94.5385
ENERGY: 600000 3.6953 3.6383 3.2089 0.0000 -10808.8195 1489.0500 0.0000 0.0000 1785.1747 -7524.0524 302.7775 -9309.2271 -7519.2820 299.8382 327.8374 384.6135 30050.2375 -63.0867 -5.5255
ENERGY: 900000 2.0545 6.0852 2.2466 0.0000 -10756.4359 1448.3636 0.0000 0.0000 1769.5055 -7528.1804 300.1199 -9297.6859 -7524.3246 299.2632 122.6138 139.7759 30118.1886 -47.6492 -3.6449
ENERGY: 1200000 2.7175 8.0347 1.5440 0.0000 -10646.6587 1346.1394 0.0000 0.0000 1799.8971 -7488.3259 305.2745 -9288.2230 -7514.4248 300.7780 -569.2385 -483.8875 29941.9986 -101.5706 -49.1892
ENERGY: 1500000 2.6498 5.3984 1.1365 0.0000 -10725.5096 1438.4443 0.0000 0.0000 1815.0132 -7462.8673 307.8383 -9277.8805 -7514.8824 300.7795 -165.9391 -66.3536 30476.5384 -105.7650 -46.9900
TCL: Running FEP window   8: Lambda1 0.35   Lambda2 0.39999999999999997 [dLambda 0.04999999999999999]
TCL: Setting parameter firsttimestep to 0
TCL: Setting parameter alchLambda to 0.35
Info: NONBONDED TABLE R-SQUARED SPACING: 0.0625
Info: NONBONDED TABLE SIZE: 705 POINTS
TCL: Setting parameter alchLambda2 to 0.39999999999999997
Info: NONBONDED TABLE R-SQUARED SPACING: 0.0625
Info: NONBONDED TABLE SIZE: 705 POINTS
TCL: Running for 1500000 steps
ETITLE: TS BOND ANGLE DIHED IMPRP ELECT VDW BOUNDARY MISC KINETIC TOTAL TEMP POTENTIAL TOTALAVG TEMPAVG PRESSURE GPRESSURE VOLUME PRESSAVG GPRESSAVG
ENERGY: 0 2.6498 5.3984 1.1365 0.0000 -10725.5086 1438.2554 0.0000 0.0000 1814.1421 -7463.9263 307.6905 -9278.0684 -7463.9263 307.6905 -148.0336 -60.9206 30476.5384 -148.0336 -60.9206
ENERGY: 300000 3.6893 7.1693 2.0379 0.0000 -10727.0246 1476.5035 0.0000 0.0000 1749.6586 -7487.9660 296.7537 -9237.6246 -7485.9354 301.5611 269.2783 288.9733 30641.4227 138.3040 210.1065
ENERGY: 600000 5.4955 5.7950 1.7423 0.0000 -10639.8952 1385.6907 0.0000 0.0000 1745.6102 -7495.5615 296.0671 -9241.1716 -7494.9662 299.8511 -580.4602 -526.0686 30380.1092 -157.4032 -75.0583
ENERGY: 900000 1.6533 5.8318 3.1697 0.0000 -10784.1654 1457.1314 0.0000 0.0000 1774.3160 -7542.0633 300.9358 -9316.3792 -7498.5946 299.5481 -422.7135 -304.8277 30733.9028 -22.9905 65.2761
ENERGY: 1200000 3.1862 4.5368 3.0489 0.0000 -10577.5707 1387.7712 0.0000 0.0000 1776.1143 -7402.9133 301.2408 -9179.0275 -7486.3488 300.2527 -142.4701 -133.1533 30706.5186 -65.9744 18.7021
ENERGY: 1500000 0.9747 6.4348 1.7014 0.0000 -10648.1708 1389.3403 0.0000 0.0000 1748.6588 -7501.0608 296.5841 -9249.7196 -7496.2609 299.1983 -253.8959 -231.6185 30479.0559 -62.6650 11.7952
TCL: Running FEP window   9: Lambda1 0.39999999999999997 Lambda2 0.44999999999999996 [dLambda 0.04999999999999999]
TCL: Setting parameter firsttimestep to 0
TCL: Setting parameter alchLambda to 0.39999999999999997
Info: NONBONDED TABLE R-SQUARED SPACING: 0.0625
Info: NONBONDED TABLE SIZE: 705 POINTS
TCL: Setting parameter alchLambda2 to 0.44999999999999996
Info: NONBONDED TABLE R-SQUARED SPACING: 0.0625
Info: NONBONDED TABLE SIZE: 705 POINTS
TCL: Running for 1500000 steps
ETITLE: TS BOND ANGLE DIHED IMPRP ELECT VDW BOUNDARY MISC KINETIC TOTAL TEMP POTENTIAL TOTALAVG TEMPAVG PRESSURE GPRESSURE VOLUME PRESSAVG GPRESSAVG
ENERGY: 0 0.9747 6.4348 1.7014 0.0000 -10648.1725 1389.2247 0.0000 0.0000 1747.7405 -7502.0963 296.4284 -9249.8368 -7502.0963 296.4284 -303.5087 -228.0947 30479.0559 -303.5087 -228.0947
ENERGY: 300000 1.3582 3.8508 2.8408 0.0000 -10765.6360 1472.6468 0.0000 0.0000 1728.9205 -7556.0190 293.2364 -9284.9395 -7510.7501 298.9391 265.0162 322.2760 30125.5144 -139.2760 -88.0344
ENERGY: 600000 3.6349 7.7411 2.6023 0.0000 -10760.0362 1455.5848 0.0000 0.0000 1773.9971 -7516.4760 300.8817 -9290.4731 -7521.0253 299.1493 192.4728 254.3518 30303.0791 -61.6015 -7.4377
ENERGY: 900000 1.4458 5.1197 3.0080 0.0000 -10709.5676 1427.0005 0.0000 0.0000 1767.9642 -7505.0293 299.8585 -9272.9935 -7504.0842 300.1489 110.7135 164.1244 30091.1921 -154.5709 -101.4420
ENERGY: 1200000 1.6806 4.6809 1.8035 0.0000 -10683.2493 1409.7778 0.0000 0.0000 1764.7119 -7500.5946 299.3068 -9265.3065 -7508.1585 300.3901 -397.3123 -280.6290 30648.7530 -20.4935 37.7524
ENERGY: 1500000 1.8005 7.1546 3.8929 0.0000 -10683.2996 1424.2052 0.0000 0.0000 1764.8775 -7481.3690 299.3349 -9246.2465 -7511.1093 299.0808 174.3816 197.6995 30214.7267 0.9282 51.7849
TCL: Running FEP window  10: Lambda1 0.44999999999999996 Lambda2 0.49999999999999994 [dLambda 0.04999999999999999]
TCL: Setting parameter firsttimestep to 0
TCL: Setting parameter alchLambda to 0.44999999999999996
Info: NONBONDED TABLE R-SQUARED SPACING: 0.0625
Info: NONBONDED TABLE SIZE: 705 POINTS
TCL: Setting parameter alchLambda2 to 0.49999999999999994
Info: NONBONDED TABLE R-SQUARED SPACING: 0.0625
Info: NONBONDED TABLE SIZE: 705 POINTS
TCL: Running for 1500000 steps
ETITLE: TS BOND ANGLE DIHED IMPRP ELECT VDW BOUNDARY MISC KINETIC TOTAL TEMP POTENTIAL TOTALAVG TEMPAVG PRESSURE GPRESSURE VOLUME PRESSAVG GPRESSAVG
ENERGY: 0 1.8005 7.1546 3.8929 0.0000 -10683.3015 1425.4924 0.0000 0.0000 1763.9764 -7480.9848 299.1821 -9244.9611 -7480.9848 299.1821 134.3235 213.8109 30214.7267 134.3235 213.8109
ENERGY: 300000 3.8280 7.7389 4.5631 0.0000 -10822.8777 1450.2321 0.0000 0.0000 1718.1596 -7638.3559 291.4113 -9356.5155 -7524.6899 297.7007 -293.4064 -261.8761 30719.8878 -127.1511 -76.3752
ENERGY: 600000 1.5551 7.7535 2.0116 0.0000 -10683.0198 1452.7546 0.0000 0.0000 1701.6482 -7517.2967 288.6108 -9218.9449 -7522.8581 297.2133 88.0146 84.9978 30910.6802 -114.7155 -71.3605
ENERGY: 900000 0.4459 2.8562 3.6675 0.0000 -10740.7828 1403.3012 0.0000 0.0000 1748.7955 -7581.7165 296.6073 -9330.5120 -7533.1872 297.1256 -324.8853 -271.4362 30133.6751 -247.3574 -203.8592
ENERGY: 1200000 4.1007 5.7751 2.5476 0.0000 -10774.6535 1455.5337 0.0000 0.0000 1748.3525 -7558.3441 296.5322 -9306.6965 -7537.9077 297.4637 346.8999 405.4694 30268.2687 -152.6356 -109.2361
ENERGY: 1500000 4.5112 4.9044 3.1716 0.0000 -10797.7947 1468.2609 0.0000 0.0000 1745.3917 -7571.5550 296.0300 -9316.9466 -7538.6247 297.6661 202.2104 208.1787 30112.7129 -141.1869 -97.3112
TCL: Running FEP window  11: Lambda1 0.49999999999999994 Lambda2 0.5499999999999999 [dLambda 0.04999999999999999]
TCL: Setting parameter firsttimestep to 0
TCL: Setting parameter alchLambda to 0.49999999999999994
Info: NONBONDED TABLE R-SQUARED SPACING: 0.0625
Info: NONBONDED TABLE SIZE: 705 POINTS
TCL: Setting parameter alchLambda2 to 0.5499999999999999
Info: NONBONDED TABLE R-SQUARED SPACING: 0.0625
Info: NONBONDED TABLE SIZE: 705 POINTS
TCL: Running for 1500000 steps
ETITLE: TS BOND ANGLE DIHED IMPRP ELECT VDW BOUNDARY MISC KINETIC TOTAL TEMP POTENTIAL TOTALAVG TEMPAVG PRESSURE GPRESSURE VOLUME PRESSAVG GPRESSAVG
ENERGY: 0 4.5112 4.9044 3.1716 0.0000 -10797.7945 1469.0134 0.0000 0.0000 1744.5199 -7571.6740 295.8822 -9316.1939 -7571.6740 295.8822 155.8489 218.9154 30112.7129 155.8489 218.9154
ENERGY: 300000 3.3761 3.6494 3.2057 0.0000 -10679.9313 1377.0482 0.0000 0.0000 1797.3986 -7495.2533 304.8507 -9292.6519 -7507.2468 304.9522 -697.8391 -573.5169 30576.7646 39.5970 110.8098
ENERGY: 600000 2.5205 7.1423 2.0941 0.0000 -10685.1251 1388.1625 0.0000 0.0000 1765.7054 -7519.5003 299.4754 -9285.2057 -7503.2780 302.4440 -636.9995 -586.9111 30740.9616 -218.7579 -170.5060
ENERGY: 900000 1.1723 3.2351 2.1780 0.0000 -10709.5275 1400.7535 0.0000 0.0000 1777.8089 -7524.3798 301.5282 -9302.1887 -7519.2237 300.8336 -249.5963 -162.3712 30329.0447 -192.2356 -142.3294
ENERGY: 1200000 2.7177 5.4715 2.7111 0.0000 -10503.3500 1338.3709 0.0000 0.0000 1723.8722 -7430.2067 292.3802 -9154.0789 -7514.7597 299.7685 -997.5993 -926.8731 31708.5718 -238.3683 -181.1797
ENERGY: 1500000 3.7860 6.8491 2.3720 0.0000 -10734.3465 1424.5400 0.0000 0.0000 1814.6344 -7482.1650 307.7740 -9296.7994 -7509.8161 299.9648 -268.4116 -222.8071 30426.9046 -230.1351 -175.9070
TCL: Running FEP window  12: Lambda1 0.5499999999999999 Lambda2 0.6    [dLambda 0.050000000000000044]
TCL: Setting parameter firsttimestep to 0
TCL: Setting parameter alchLambda to 0.5499999999999999
Info: NONBONDED TABLE R-SQUARED SPACING: 0.0625
Info: NONBONDED TABLE SIZE: 705 POINTS
TCL: Setting parameter alchLambda2 to 0.6
Info: NONBONDED TABLE R-SQUARED SPACING: 0.0625
Info: NONBONDED TABLE SIZE: 705 POINTS
TCL: Running for 1500000 steps
ETITLE: TS BOND ANGLE DIHED IMPRP ELECT VDW BOUNDARY MISC KINETIC TOTAL TEMP POTENTIAL TOTALAVG TEMPAVG PRESSURE GPRESSURE VOLUME PRESSAVG GPRESSAVG
ENERGY: 0 3.7860 6.8491 2.3720 0.0000 -10734.2302 1424.3318 0.0000 0.0000 1813.7806 -7483.1107 307.6292 -9296.8913 -7483.1107 307.6292 -307.2979 -218.2967 30426.9046 -307.2979 -218.2967
ENERGY: 300000 1.7507 7.7076 1.7364 0.0000 -10879.7754 1491.6239 0.0000 0.0000 1817.3330 -7559.6238 308.2317 -9376.9568 -7524.5471 302.8467 176.0806 221.2509 30279.5418 -182.6355 -107.0140
ENERGY: 600000 2.9049 4.9927 1.1911 0.0000 -10701.2954 1390.9768 0.0000 0.0000 1838.2689 -7462.9609 311.7826 -9301.2299 -7518.4747 303.9800 -367.8718 -300.4957 30313.9919 -456.8585 -389.1490
ENERGY: 900000 1.5454 4.8566 3.6606 0.0000 -10630.1351 1403.7113 0.0000 0.0000 1759.6865 -7456.6746 298.4545 -9216.3611 -7508.6558 302.4824 -23.2219 76.9925 30383.4261 -348.2993 -279.9726
ENERGY: 1200000 2.7351 9.4219 2.6480 0.0000 -10807.2601 1464.2293 0.0000 0.0000 1735.3858 -7592.8400 294.3329 -9328.2258 -7511.8253 301.4161 -132.6787 -102.9707 30397.3615 -237.2666 -175.9642
ENERGY: 1500000 1.3091 5.9637 2.4172 0.0000 -10835.8817 1540.1346 0.0000 0.0000 1725.8743 -7560.1828 292.7197 -9286.0571 -7516.9443 300.1864 570.5770 610.3553 30940.8028 -183.6556 -118.5485
TCL: Running FEP window  13: Lambda1 0.6    Lambda2 0.65   [dLambda 0.050000000000000044]
TCL: Setting parameter firsttimestep to 0
TCL: Setting parameter alchLambda to 0.6
Info: NONBONDED TABLE R-SQUARED SPACING: 0.0625
Info: NONBONDED TABLE SIZE: 705 POINTS
TCL: Setting parameter alchLambda2 to 0.65
Info: NONBONDED TABLE R-SQUARED SPACING: 0.0625
Info: NONBONDED TABLE SIZE: 705 POINTS
TCL: Running for 1500000 steps
ETITLE: TS BOND ANGLE DIHED IMPRP ELECT VDW BOUNDARY MISC KINETIC TOTAL TEMP POTENTIAL TOTALAVG TEMPAVG PRESSURE GPRESSURE VOLUME PRESSAVG GPRESSAVG
ENERGY: 0 1.3091 5.9637 2.4172 0.0000 -10836.4127 1540.0099 0.0000 0.0000 1724.9849 -7561.7278 292.5689 -9286.7128 -7561.7278 292.5689 540.9747 613.8989 30940.8028 540.9747 613.8989
ENERGY: 300000 4.9276 5.5944 2.7671 0.0000 -10823.2620 1462.1393 0.0000 0.0000 1843.8375 -7503.9961 312.7271 -9347.8336 -7559.2016 300.5580 97.8505 148.4040 30143.1750 -83.2182 -15.9211
ENERGY: 600000 5.0357 1.9640 3.7115 0.0000 -10723.9532 1443.0647 0.0000 0.0000 1754.4091 -7515.7682 297.5594 -9270.1772 -7541.8081 299.1066 -111.8475 -52.8807 30676.6562 -58.5684 9.7250
ENERGY: 900000 2.2674 11.0862 0.9933 0.0000 -10733.5102 1455.6942 0.0000 0.0000 1779.9531 -7483.5159 301.8919 -9263.4690 -7547.2674 298.7698 421.0605 427.7069 30195.6606 -14.9495 45.9333
ENERGY: 1200000 0.4864 6.8000 3.5679 0.0000 -10632.6909 1358.9776 0.0000 0.0000 1702.5228 -7560.3363 288.7592 -9262.8591 -7538.9270 298.4128 -834.3047 -810.5358 30810.2154 -85.5061 -31.6487
ENERGY: 1500000 6.7050 5.9479 3.7214 0.0000 -10819.3200 1476.4878 0.0000 0.0000 1778.0677 -7548.3902 301.5721 -9326.4579 -7534.4493 299.1579 250.1838 271.4379 30298.5107 -78.4689 -23.1911
TCL: Running FEP window  14: Lambda1 0.65   Lambda2 0.7000000000000001 [dLambda 0.050000000000000044]
TCL: Setting parameter firsttimestep to 0
TCL: Setting parameter alchLambda to 0.65
Info: NONBONDED TABLE R-SQUARED SPACING: 0.0625
Info: NONBONDED TABLE SIZE: 705 POINTS
TCL: Setting parameter alchLambda2 to 0.7000000000000001
Info: NONBONDED TABLE R-SQUARED SPACING: 0.0625
Info: NONBONDED TABLE SIZE: 705 POINTS
TCL: Running for 1500000 steps
ETITLE: TS BOND ANGLE DIHED IMPRP ELECT VDW BOUNDARY MISC KINETIC TOTAL TEMP POTENTIAL TOTALAVG TEMPAVG PRESSURE GPRESSURE VOLUME PRESSAVG GPRESSAVG
ENERGY: 0 6.7050 5.9479 3.7214 0.0000 -10819.3939 1476.9442 0.0000 0.0000 1777.1795 -7548.8960 301.4214 -9326.0755 -7548.8960 301.4214 198.4540 281.6310 30298.5107 198.4540 281.6310
ENERGY: 300000 1.4923 6.9103 2.0163 0.0000 -10679.6431 1422.3744 0.0000 0.0000 1739.8206 -7507.0291 295.0851 -9246.8497 -7508.8202 298.8999 -57.4533 19.6221 30292.0760 -87.5684 -37.5381
ENERGY: 600000 1.6414 3.5081 3.5430 0.0000 -10850.8838 1532.8108 0.0000 0.0000 1814.6077 -7494.7729 307.7695 -9309.3806 -7492.3618 301.9921 645.4889 701.7968 30395.0644 102.7958 144.4125
ENERGY: 900000 3.8752 6.5170 2.2594 0.0000 -10709.1301 1461.0256 0.0000 0.0000 1747.4380 -7488.0148 296.3771 -9235.4529 -7501.5290 301.1749 433.5410 466.1842 30333.1773 79.3400 120.5453
ENERGY: 1200000 2.0439 5.0968 2.9556 0.0000 -10929.9012 1576.2636 0.0000 0.0000 1768.9909 -7574.5505 300.0326 -9343.5413 -7514.7486 300.8257 813.6081 879.9911 30379.0148 58.9995 108.2695
ENERGY: 1500000 2.2859 6.3335 1.4569 0.0000 -10744.9058 1411.8189 0.0000 0.0000 1787.9829 -7535.0277 303.2538 -9323.0106 -7523.6869 300.5308 -542.5876 -442.6486 30662.7281 28.6822 87.8920
TCL: Running FEP window  15: Lambda1 0.7000000000000001 Lambda2 0.7500000000000001 [dLambda 0.050000000000000044]
TCL: Setting parameter firsttimestep to 0
TCL: Setting parameter alchLambda to 0.7000000000000001
Info: NONBONDED TABLE R-SQUARED SPACING: 0.0625
Info: NONBONDED TABLE SIZE: 705 POINTS
TCL: Setting parameter alchLambda2 to 0.7500000000000001
Info: NONBONDED TABLE R-SQUARED SPACING: 0.0625
Info: NONBONDED TABLE SIZE: 705 POINTS
TCL: Running for 1500000 steps
ETITLE: TS BOND ANGLE DIHED IMPRP ELECT VDW BOUNDARY MISC KINETIC TOTAL TEMP POTENTIAL TOTALAVG TEMPAVG PRESSURE GPRESSURE VOLUME PRESSAVG GPRESSAVG
ENERGY: 0 2.2859 6.3335 1.4569 0.0000 -10745.1290 1411.4098 0.0000 0.0000 1787.1014 -7536.5416 303.1043 -9323.6430 -7536.5416 303.1043 -515.2135 -441.8094 30662.7281 -515.2135 -441.8094
ENERGY: 300000 1.8697 6.1847 4.3834 0.0000 -10709.7271 1437.3051 0.0000 0.0000 1796.7637 -7463.2206 304.7430 -9259.9843 -7510.2306 302.5062 8.3134 58.8750 30637.5712 -183.0120 -114.2620
ENERGY: 600000 2.6323 5.8396 2.7170 0.0000 -10906.2921 1507.8731 0.0000 0.0000 1780.6091 -7606.6210 302.0031 -9387.2300 -7520.3406 301.6137 358.6714 456.3168 29913.4221 -166.0349 -94.6403
ENERGY: 900000 3.7167 8.5019 0.9285 0.0000 -10804.7402 1490.0041 0.0000 0.0000 1784.2085 -7517.3806 302.6136 -9301.5891 -7523.5093 301.0583 174.5034 245.9734 30533.4214 -157.6834 -99.4594
ENERGY: 1200000 1.9452 4.9298 3.5443 0.0000 -10776.2619 1481.7990 0.0000 0.0000 1783.1520 -7500.8915 302.4344 -9284.0435 -7522.1952 301.4839 29.8257 133.2641 30838.1353 -204.0128 -138.2944
ENERGY: 1500000 4.5183 8.8059 5.1231 0.0000 -10800.3310 1500.0729 0.0000 0.0000 1758.2791 -7523.5317 298.2158 -9281.8108 -7512.8458 301.9876 342.9346 451.6800 30517.9557 -121.7162 -53.6131
TCL: Running FEP window  16: Lambda1 0.7500000000000001 Lambda2 0.8000000000000002 [dLambda 0.050000000000000044]
TCL: Setting parameter firsttimestep to 0
TCL: Setting parameter alchLambda to 0.7500000000000001
Info: NONBONDED TABLE R-SQUARED SPACING: 0.0625
Info: NONBONDED TABLE SIZE: 705 POINTS
TCL: Setting parameter alchLambda2 to 0.8000000000000002
Info: NONBONDED TABLE R-SQUARED SPACING: 0.0625
Info: NONBONDED TABLE SIZE: 705 POINTS
TCL: Running for 1500000 steps
ETITLE: TS BOND ANGLE DIHED IMPRP ELECT VDW BOUNDARY MISC KINETIC TOTAL TEMP POTENTIAL TOTALAVG TEMPAVG PRESSURE GPRESSURE VOLUME PRESSAVG GPRESSAVG
ENERGY: 0 4.5183 8.8059 5.1231 0.0000 -10800.2713 1499.9284 0.0000 0.0000 1757.4530 -7524.4426 298.0757 -9281.8956 -7524.4426 298.0757 366.5836 458.4587 30517.9557 366.5836 458.4587
ENERGY: 300000 0.5184 4.4972 1.4724 0.0000 -10803.9405 1500.0523 0.0000 0.0000 1840.0723 -7457.3280 312.0885 -9297.4002 -7524.0201 302.8670 702.9144 776.2236 30230.5547 302.7299 405.3348
ENERGY: 600000 2.1848 7.7889 3.6087 0.0000 -10779.1263 1467.7474 0.0000 0.0000 1739.4739 -7558.3226 295.0263 -9297.7966 -7533.6852 301.8634 342.8220 366.7864 30058.1130 222.2908 300.7318
ENERGY: 900000 2.2785 3.8287 3.7206 0.0000 -10851.5876 1477.0191 0.0000 0.0000 1790.3129 -7574.4278 303.6489 -9364.7407 -7537.2306 301.1180 68.4316 142.7154 30518.3727 204.8649 263.2843
ENERGY: 1200000 1.2029 8.9902 1.5767 0.0000 -10851.2039 1496.1878 0.0000 0.0000 1758.5627 -7584.6837 298.2639 -9343.2464 -7541.8849 300.9374 115.4269 168.9290 30653.4158 111.5498 172.0481
ENERGY: 1500000 6.9443 7.3896 1.9031 0.0000 -10658.0451 1362.7429 0.0000 0.0000 1761.1026 -7517.9626 298.6947 -9279.0652 -7533.9656 301.2552 -962.0489 -876.1221 30761.3340 56.8496 117.0650
TCL: Running FEP window  17: Lambda1 0.8000000000000002 Lambda2 0.8500000000000002 [dLambda 0.050000000000000044]
TCL: Setting parameter firsttimestep to 0
TCL: Setting parameter alchLambda to 0.8000000000000002
Info: NONBONDED TABLE R-SQUARED SPACING: 0.0625
Info: NONBONDED TABLE SIZE: 705 POINTS
TCL: Setting parameter alchLambda2 to 0.8500000000000002
Info: NONBONDED TABLE R-SQUARED SPACING: 0.0625
Info: NONBONDED TABLE SIZE: 705 POINTS
TCL: Running for 1500000 steps
ETITLE: TS BOND ANGLE DIHED IMPRP ELECT VDW BOUNDARY MISC KINETIC TOTAL TEMP POTENTIAL TOTALAVG TEMPAVG PRESSURE GPRESSURE VOLUME PRESSAVG GPRESSAVG
ENERGY: 0 6.9443 7.3896 1.9031 0.0000 -10658.4311 1362.4150 0.0000 0.0000 1760.1893 -7519.5898 298.5398 -9279.7791 -7519.5898 298.5398 -960.2562 -873.4283 30761.3340 -960.2562 -873.4283
ENERGY: 300000 3.5216 7.6396 3.9596 0.0000 -10687.5539 1391.6254 0.0000 0.0000 1776.9703 -7503.8373 301.3860 -9280.8077 -7548.4426 295.5513 -128.9323 -63.3098 30186.4538 -253.7290 -202.3862
ENERGY: 600000 4.3986 5.1250 0.6684 0.0000 -10807.6262 1509.6352 0.0000 0.0000 1814.3504 -7473.4486 307.7259 -9287.7990 -7521.0606 299.1463 258.9996 418.7658 30671.2366 -135.0057 -65.0788
ENERGY: 900000 5.7526 6.4188 5.5811 0.0000 -10811.6380 1461.1669 0.0000 0.0000 1812.3061 -7520.4125 307.3791 -9332.7186 -7534.7961 299.8947 -434.0762 -342.4186 30856.3516 -146.6960 -73.0483
ENERGY: 1200000 1.5090 9.5359 3.5749 0.0000 -10902.4511 1555.1846 0.0000 0.0000 1766.3277 -7566.3190 299.5809 -9332.6467 -7542.4589 299.9565 643.2933 627.5683 30782.0017 -26.5675 34.8601
ENERGY: 1500000 3.2159 3.8193 4.0624 0.0000 -10870.5267 1510.2283 0.0000 0.0000 1827.0549 -7522.1458 309.8806 -9349.2007 -7540.4427 300.4361 352.0372 301.7901 30699.2967 3.2798 59.4178
TCL: Running FEP window  18: Lambda1 0.8500000000000002 Lambda2 0.9000000000000002 [dLambda 0.050000000000000044]
TCL: Setting parameter firsttimestep to 0
TCL: Setting parameter alchLambda to 0.8500000000000002
Info: NONBONDED TABLE R-SQUARED SPACING: 0.0625
Info: NONBONDED TABLE SIZE: 705 POINTS
TCL: Setting parameter alchLambda2 to 0.9000000000000002
Info: NONBONDED TABLE R-SQUARED SPACING: 0.0625
Info: NONBONDED TABLE SIZE: 705 POINTS
TCL: Running for 1500000 steps
ETITLE: TS BOND ANGLE DIHED IMPRP ELECT VDW BOUNDARY MISC KINETIC TOTAL TEMP POTENTIAL TOTALAVG TEMPAVG PRESSURE GPRESSURE VOLUME PRESSAVG GPRESSAVG
ENERGY: 0 3.2159 3.8193 4.0624 0.0000 -10871.4659 1511.1337 0.0000 0.0000 1826.1924 -7523.0421 309.7343 -9349.2344 -7523.0421 309.7343 248.7003 321.7030 30699.2967 248.7003 321.7030
ENERGY: 300000 3.6335 6.9365 2.2120 0.0000 -10817.8296 1411.4386 0.0000 0.0000 1721.7255 -7671.8834 292.0161 -9393.6089 -7537.1462 300.8537 -405.1505 -266.8994 30229.7449 177.3178 253.4937
ENERGY: 600000 1.7976 6.3137 1.7127 0.0000 -10934.7956 1555.4333 0.0000 0.0000 1753.7035 -7615.8348 297.4397 -9369.5383 -7553.3299 298.3698 1096.8917 1149.8727 29606.7449 191.2716 264.0736
ENERGY: 900000 6.2161 6.0779 1.9731 0.0000 -10662.0633 1450.9386 0.0000 0.0000 1766.4294 -7430.4281 299.5982 -9196.8575 -7538.0779 298.0711 254.6664 391.4379 31054.0493 122.6442 200.8084
ENERGY: 1200000 0.7893 7.2949 0.8111 0.0000 -10758.6337 1423.6673 0.0000 0.0000 1708.8698 -7617.2013 289.8357 -9326.0711 -7535.2024 298.2874 -435.5070 -368.4886 30811.2653 29.8409 107.3695
ENERGY: 1500000 2.2753 4.2894 3.5961 0.0000 -10749.4360 1443.3329 0.0000 0.0000 1803.8557 -7492.0866 305.9459 -9295.9422 -7534.0433 298.2236 190.3317 272.7804 30265.1471 40.8985 111.6532
TCL: Running FEP window  19: Lambda1 0.9000000000000002 Lambda2 0.9500000000000003 [dLambda 0.050000000000000044]
TCL: Setting parameter firsttimestep to 0
TCL: Setting parameter alchLambda to 0.9000000000000002
Info: NONBONDED TABLE R-SQUARED SPACING: 0.0625
Info: NONBONDED TABLE SIZE: 705 POINTS
TCL: Setting parameter alchLambda2 to 0.9500000000000003
Info: NONBONDED TABLE R-SQUARED SPACING: 0.0625
Info: NONBONDED TABLE SIZE: 705 POINTS
TCL: Running for 1500000 steps
ETITLE: TS BOND ANGLE DIHED IMPRP ELECT VDW BOUNDARY MISC KINETIC TOTAL TEMP POTENTIAL TOTALAVG TEMPAVG PRESSURE GPRESSURE VOLUME PRESSAVG GPRESSAVG
ENERGY: 0 2.2753 4.2894 3.5961 0.0000 -10750.5112 1443.4257 0.0000 0.0000 1802.9899 -7493.9347 305.7991 -9296.9247 -7493.9347 305.7991 191.4512 285.8538 30265.1471 191.4512 285.8538
ENERGY: 300000 3.7400 4.3052 4.1302 0.0000 -10698.1014 1403.8451 0.0000 0.0000 1765.5959 -7516.4850 299.4568 -9282.0808 -7488.6841 304.3303 -355.3335 -259.3742 30679.8582 297.2392 368.3494
ENERGY: 600000 2.7870 6.2390 3.7422 0.0000 -10623.2812 1369.6941 0.0000 0.0000 1730.0278 -7510.7911 293.4242 -9240.8190 -7505.6313 302.2996 -584.0986 -435.4840 30761.1172 21.5341 82.4687
ENERGY: 900000 2.2663 9.6941 2.9957 0.0000 -10830.9038 1480.6622 0.0000 0.0000 1774.7770 -7560.5086 301.0140 -9335.2856 -7520.7135 300.8383 509.3265 571.2212 29940.7069 -39.5151 5.6210
ENERGY: 1200000 1.9938 5.0649 3.6678 0.0000 -10716.7065 1461.5412 0.0000 0.0000 1799.5882 -7444.8506 305.2221 -9244.4388 -7526.7870 300.4045 121.7637 144.4188 30924.2526 -123.0301 -77.1694
ENERGY: 1500000 1.5455 6.0233 1.3986 0.0000 -10597.8067 1299.8420 0.0000 0.0000 1835.3143 -7453.6831 311.2815 -9288.9974 -7527.9083 300.9119 -1083.1037 -1026.3074 30740.7140 -171.8445 -121.5174
TCL: Running FEP window  20: Lambda1 0.9500000000000003 Lambda2 1.0    [dLambda 0.04999999999999971]
TCL: Setting parameter firsttimestep to 0
TCL: Setting parameter alchLambda to 0.9500000000000003
Info: NONBONDED TABLE R-SQUARED SPACING: 0.0625
Info: NONBONDED TABLE SIZE: 705 POINTS
TCL: Setting parameter alchLambda2 to 1.0
Info: NONBONDED TABLE R-SQUARED SPACING: 0.0625
Info: NONBONDED TABLE SIZE: 705 POINTS
TCL: Running for 1500000 steps
ETITLE: TS BOND ANGLE DIHED IMPRP ELECT VDW BOUNDARY MISC KINETIC TOTAL TEMP POTENTIAL TOTALAVG TEMPAVG PRESSURE GPRESSURE VOLUME PRESSAVG GPRESSAVG
ENERGY: 0 1.5455 6.0233 1.3986 0.0000 -10598.7338 1299.7364 0.0000 0.0000 1834.4212 -7455.6088 311.1300 -9290.0300 -7455.6088 311.1300 -1099.3258 -1018.1434 30740.7140 -1099.3258 -1018.1434
ENERGY: 300000 2.1886 4.8892 1.4751 0.0000 -10871.4775 1505.5932 0.0000 0.0000 1741.3094 -7616.0220 295.3376 -9357.3314 -7522.7271 303.9063 787.4971 815.3815 29910.1987 -316.7540 -256.7926
ENERGY: 600000 1.1710 4.6710 1.1516 0.0000 -10722.6434 1420.1810 0.0000 0.0000 1734.5182 -7560.9506 294.1858 -9295.4689 -7528.2125 302.1807 -331.1335 -304.0010 30980.5812 -96.8838 -53.0997
ENERGY: 900000 1.3384 5.5701 1.2806 0.0000 -10717.4137 1368.5340 0.0000 0.0000 1806.9945 -7533.6961 306.4783 -9340.6906 -7519.0807 302.5811 -818.3976 -746.5652 30708.8150 -145.9012 -92.5459
ENERGY: 1200000 2.7609 6.3887 2.1276 0.0000 -10763.5945 1420.0581 0.0000 0.0000 1763.7323 -7568.5268 299.1407 -9332.2592 -7527.0687 301.7731 -459.4240 -322.4401 30779.9885 -251.7915 -192.8891
ENERGY: 1500000 4.8851 7.3997 7.3149 0.0000 -10659.3771 1366.9446 0.0000 0.0000 1802.8351 -7469.9976 305.7728 -9272.8327 -7522.9334 301.8837 -690.7434 -606.5642 30594.8360 -214.2360 -155.8048
TCL: Exiting due to exit command.
