Info: SIMULATION PARAMETERS:
Info: TIMESTEP               2
Info: NUMBER OF STEPS        0
Info: STEPS PER CYCLE        10
Info: PERIODIC CELL BASIS 1  30.5494 0 0
Info: PERIODIC CELL BASIS 2  0 31.8287 0
Info: PERIODIC CELL BASIS 3  0 0 31.124
Info: PERIODIC CELL CENTER   0 0 0
Info: WRAPPING WATERS AROUND PERIODIC BOUNDARIES ON OUTPUT.
Info: WRAPPING ALL CLUSTERS AROUND PERIODIC BOUNDARIES ON OUTPUT.
Info: FIRST LDB TIMESTEP     50
Info: LAST LDB TIMESTEP     -1
Info: HOM BACKGROUND SCALING 1
Info: PME BACKGROUND SCALING 1
Info: MIN ATOMS PER PATCH    40
Info: EMPTY PATCH LOAD       40 ATOMS
Info: VELOCITY FILE          mobley_2213823_equil.vel
Info: CENTER OF MASS MOVING INITIALLY? NO
Info: DIELECTRIC             1
Info: EXCLUDE                SCALED ONE-FOUR
Info: 1-4 ELECTROSTATICS SCALED BY 0.833333
Info: MODIFIED 1-4 VDW PARAMETERS WILL BE USED
Info: DCD FILENAME           mobley_2213823_prod.dcd
Info: DCD FREQUENCY          100000
Info: DCD FIRST STEP         100000
Info: DCD FILE WILL CONTAIN UNIT CELL DATA
Info: XST FILENAME           mobley_2213823_prod.xst
Info: XST FREQUENCY          100000
Info: NO VELOCITY DCD OUTPUT
Info: NO FORCE DCD OUTPUT
Info: OUTPUT FILENAME        mobley_2213823_prod
Info: BINARY OUTPUT FILES WILL BE USED
Info: RESTART FILENAME       mobley_2213823_prod.restart
Info: RESTART FREQUENCY      100000
Info: BINARY RESTART FILES WILL BE USED
Info: CUTOFF                 9
Info: PAIRLIST DISTANCE      11
Info: PAIRLIST SHRINK RATE   0.01
Info: PAIRLIST GROW RATE     0.01
Info: PAIRLIST TRIGGER       0.3
Info: PAIRLISTS PER CYCLE    2
Info: PAIRLISTS ENABLED
Info: MARGIN                 2
Info: HYDROGEN GROUP CUTOFF  2.5
Info: PATCH DIMENSION        15.5
Info: ENERGY OUTPUT STEPS    100000
Info: ENERGY EVALUATION STEPS    100000
Info: OUTPUT ENERGY PRECISION 4
Info: CROSSTERM ENERGY INCLUDED IN DIHEDRAL
Info: TIMING OUTPUT STEPS    1000000
Info: PRESSURE OUTPUT STEPS  100000
Info: ALCHEMICAL FEP ON
Info: FEP CURRENT LAMBDA VALUE     0
Info: FEP COMPARISON LAMBDA VALUE  0.05
Info: FEP INTRA-ALCHEMICAL NON-BONDED INTERACTIONS WILL BE RETAINED
Info: FEP INTRA-ALCHEMICAL BONDED INTERACTIONS WILL BE RETAINED
Info: FEP VDW SHIFTING COEFFICIENT 5
Info: FEP ELEC. ACTIVE FOR ANNIHILATED PARTICLES BETWEEN LAMBDA = 0 AND LAMBDA = 0.5
Info: FEP ELEC. ACTIVE FOR EXNIHILATED PARTICLES BETWEEN LAMBDA = 0.5 AND LAMBDA = 1
Info: FEP VDW ACTIVE FOR ANNIHILATED PARTICLES BETWEEN LAMBDA = 0 AND LAMBDA = 1
Info: FEP VDW ACTIVE FOR EXNIHILATED PARTICLES BETWEEN LAMBDA = 0 AND LAMBDA = 1
Info: FEP BOND ACTIVE FOR ANNIHILATED PARTICLES BETWEEN LAMBDA = 1 AND LAMBDA = 1
Info: FEP BOND ACTIVE FOR EXNIHILATED PARTICLES BETWEEN LAMBDA = 0 AND LAMBDA = 0
Info: LANGEVIN DYNAMICS ACTIVE
Info: LANGEVIN TEMPERATURE   300
Info: LANGEVIN USING BBK INTEGRATOR
Info: LANGEVIN DAMPING COEFFICIENT IS 1 INVERSE PS
Info: LANGEVIN DYNAMICS APPLIED TO HYDROGENS
Info: LANGEVIN PISTON PRESSURE CONTROL ACTIVE
Info:        TARGET PRESSURE IS 1.01325 BAR
Info:     OSCILLATION PERIOD IS 50 FS
Info:             DECAY TIME IS 25 FS
Info:     PISTON TEMPERATURE IS 300 K
Info:       PRESSURE CONTROL IS GROUP-BASED
Info:    INITIAL STRAIN RATE IS -0.000189819 -0.000189819 -0.000189819
Info:       CELL FLUCTUATION IS ISOTROPIC
Info: PARTICLE MESH EWALD (PME) ACTIVE
Info: PME TOLERANCE               1e-06
Info: PME EWALD COEFFICIENT       0.348832
Info: PME INTERPOLATION ORDER     4
Info: PME GRID DIMENSIONS         32 32 32
Info: PME MAXIMUM GRID SPACING    1
Info: PME CALCULATION WILL BE PERFORMED ON GPU
Info: FULL ELECTROSTATIC EVALUATION FREQUENCY      2
Info: USING VERLET I (r-RESPA) MTS SCHEME.
Info: C1 SPLITTING OF LONG RANGE ELECTROSTATICS
Info: PLACING ATOMS IN PATCHES BY HYDROGEN GROUPS
Info: RIGID BONDS TO HYDROGEN : ALL
Info:         ERROR TOLERANCE : 1e-08
Info:          MAX ITERATIONS : 100
Info: RIGID WATER USING SETTLE ALGORITHM
Info: RANDOM NUMBER SEED     1743858449
Info: USE HYDROGEN BONDS?    NO
Info: Using AMBER format force field!
Info: AMBER PARM FILE        mobley_2213823.prmtop
Info: COORDINATE PDB         mobley_2213823.pdb
Info: Exclusions will be read from PARM file!
Info: SCNB (VDW SCALING)     2
Info: USING ARITHMETIC MEAN TO COMBINE L-J SIGMA PARAMETERS
Info: BINARY COORDINATES     mobley_2213823_equil.coor
Info: SUMMARY OF PARAMETERS:
Info: 4 BONDS
Info: 3 ANGLES
Info:   3 HARMONIC
Info:   0 COSINE-BASED
Info: 5 DIHEDRAL
Info: 0 IMPROPER
Info: 0 CROSSTERM
Info: 0 VDW
Info: 10 VDW_PAIRS
Info: 0 NBTHOLE_PAIRS
Info: To read alchdata from file: mobley_2213823.pdb
Info: To read alchflag data from column: 5
Info: STRUCTURE SUMMARY:
Info: 2954 ATOMS
Info: 2953 BONDS
Info: 36 ANGLES
Info: 53 DIHEDRALS
Info: 0 IMPROPERS
Info: 0 CROSSTERMS
Info: 3034 EXCLUSIONS
Info: 2948 RIGID BONDS
Info: ALCH: 0 ATOMS TO DISAPPEAR IN FINAL STATE
Info: ALCH: 20 ATOMS TO APPEAR IN FINAL STATE
Info: 5914 DEGREES OF FREEDOM
Info: 984 HYDROGEN GROUPS
Info: 4 ATOMS IN LARGEST HYDROGEN GROUP
Info: 984 MIGRATION GROUPS
Info: 4 ATOMS IN LARGEST MIGRATION GROUP
Info: TOTAL MASS = 17705.8 amu
Info: TOTAL CHARGE = 0.000100002 e
Info: MASS DENSITY = 0.971534 g/cm^3
Info: ATOM DENSITY = 0.0976098 atoms/A^3
Info: ADDED 0 IMPLICIT EXCLUSIONS
Info: NONBONDED TABLE R-SQUARED SPACING: 0.0625
Info: NONBONDED TABLE SIZE: 705 POINTS
Info: REMOVING COM VELOCITY 0.0113727 0.149511 -0.0500198
Info: Use 3D box decompostion in PME FFT.
Info: Updated CUDA force table with 4096 elements.
Info: Updated CUDA LJ table with 4 x 4 elements.
Info: Found 23 unique exclusion lists needing 64 bytes
TCL: Running for 1500000 steps
ETITLE: TS BOND ANGLE DIHED IMPRP ELECT VDW BOUNDARY MISC KINETIC TOTAL TEMP POTENTIAL TOTALAVG TEMPAVG PRESSURE GPRESSURE VOLUME PRESSAVG GPRESSAVG
ENERGY: 0 0.6581 9.7106 3.2722 0.0000 -10789.9452 1519.2683 0.0000 0.0000 1743.2137 -7513.8223 296.6605 -9257.0359 -7513.8223 296.6605 527.8145 601.7309 30263.3658 527.8145 601.7309
ENERGY: 300000 2.9898 8.2712 3.2858 0.0000 -10797.9356 1482.0602 0.0000 0.0000 1734.5847 -7566.7439 295.1920 -9301.3286 -7499.2982 297.9645 -197.4503 -101.9228 30446.3047 -77.6831 -3.6784
ENERGY: 600000 2.0050 9.8810 2.9572 0.0000 -10739.3721 1492.5974 0.0000 0.0000 1808.1769 -7423.7547 307.7159 -9231.9316 -7487.9685 298.8633 476.7274 515.7674 30215.0090 15.2496 74.6337
ENERGY: 900000 2.2287 5.7177 2.2217 0.0000 -10794.0882 1530.9304 0.0000 0.0000 1780.0511 -7472.9386 302.9295 -9252.9897 -7480.7495 300.2525 958.7513 987.9695 29783.8997 163.1332 215.7429
ENERGY: 1200000 0.1422 9.7617 3.8988 0.0000 -10752.8598 1479.3854 0.0000 0.0000 1803.2162 -7456.4555 306.8717 -9259.6717 -7482.8719 300.1714 273.3490 348.9956 30177.0346 93.7788 149.1939
ENERGY: 1500000 3.1832 11.9956 3.3195 0.0000 -10916.1087 1597.4309 0.0000 0.0000 1774.4734 -7525.7061 301.9803 -9300.1795 -7484.2565 299.6463 914.0890 967.8281 30043.9340 88.0459 142.9646
TCL: Running FEP window   2: Lambda1 0.05   Lambda2 0.1    [dLambda 0.05  ]
TCL: Setting parameter firsttimestep to 0
TCL: Setting parameter alchLambda to 0.05
Info: NONBONDED TABLE R-SQUARED SPACING: 0.0625
Info: NONBONDED TABLE SIZE: 705 POINTS
TCL: Setting parameter alchLambda2 to 0.1
Info: NONBONDED TABLE R-SQUARED SPACING: 0.0625
Info: NONBONDED TABLE SIZE: 705 POINTS
TCL: Running for 1500000 steps
ETITLE: TS BOND ANGLE DIHED IMPRP ELECT VDW BOUNDARY MISC KINETIC TOTAL TEMP POTENTIAL TOTALAVG TEMPAVG PRESSURE GPRESSURE VOLUME PRESSAVG GPRESSAVG
ENERGY: 0 3.1832 11.9956 3.3195 0.0000 -10916.1096 1599.5459 0.0000 0.0000 1773.6028 -7524.4626 301.8321 -9298.0653 -7524.4626 301.8321 883.6210 971.1526 30043.9340 883.6210 971.1526
ENERGY: 300000 4.5079 7.3304 4.8568 0.0000 -10552.5282 1426.6879 0.0000 0.0000 1731.6119 -7377.5333 294.6861 -9109.1452 -7485.3140 295.2392 223.5600 256.5376 30182.4911 135.6856 181.9122
ENERGY: 600000 1.4701 10.9433 2.6425 0.0000 -10793.0172 1444.7551 0.0000 0.0000 1808.5642 -7524.6419 307.7818 -9333.2061 -7463.5828 301.6772 -180.0186 -110.3456 30178.1761 277.6040 333.9365
ENERGY: 900000 4.3962 9.3300 3.9420 0.0000 -10708.3143 1433.8997 0.0000 0.0000 1763.2166 -7493.5298 300.0646 -9256.7464 -7457.8649 300.4048 -274.4683 -229.7947 30122.8546 91.7636 140.4804
ENERGY: 1200000 1.0879 8.4614 3.4474 0.0000 -10597.7390 1396.3800 0.0000 0.0000 1700.9035 -7487.4588 289.4601 -9188.3623 -7458.6593 300.0864 -268.4803 -227.1566 30358.3246 23.5538 76.9785
ENERGY: 1500000 0.6615 12.9648 3.9631 0.0000 -10652.4622 1426.6655 0.0000 0.0000 1810.7130 -7397.4943 308.1475 -9208.2073 -7457.8768 300.9263 -8.1613 -0.2015 30306.7737 -11.4620 35.3330
TCL: Running FEP window   3: Lambda1 0.1    Lambda2 0.15000000000000002 [dLambda 0.05000000000000002]
TCL: Setting parameter firsttimestep to 0
TCL: Setting parameter alchLambda to 0.1
Info: NONBONDED TABLE R-SQUARED SPACING: 0.0625
Info: NONBONDED TABLE SIZE: 705 POINTS
TCL: Setting parameter alchLambda2 to 0.15000000000000002
Info: NONBONDED TABLE R-SQUARED SPACING: 0.0625
Info: NONBONDED TABLE SIZE: 705 POINTS
TCL: Running for 1500000 steps
ETITLE: TS BOND ANGLE DIHED IMPRP ELECT VDW BOUNDARY MISC KINETIC TOTAL TEMP POTENTIAL TOTALAVG TEMPAVG PRESSURE GPRESSURE VOLUME PRESSAVG GPRESSAVG
ENERGY: 0 0.6615 12.9648 3.9631 0.0000 -10652.4624 1427.4357 0.0000 0.0000 1809.8813 -7397.5560 308.0060 -9207.4372 -7397.5560 308.0060 -61.7757 7.9451 30306.7737 -61.7757 7.9451
ENERGY: 300000 0.5838 10.2540 2.9942 0.0000 -10720.2691 1475.9646 0.0000 0.0000 1788.6393 -7441.8330 304.3910 -9230.4724 -7462.6004 300.7228 408.1533 409.7627 30324.3080 113.7503 183.7654
ENERGY: 600000 2.3609 9.1627 2.6238 0.0000 -10640.4893 1366.4600 0.0000 0.0000 1803.5208 -7456.3610 306.9236 -9259.8818 -7473.4989 300.5538 -872.2084 -743.9307 30622.2703 -5.5289 69.4539
ENERGY: 900000 2.0202 17.3806 3.2874 0.0000 -10966.9468 1614.0907 0.0000 0.0000 1773.5293 -7556.6385 301.8196 -9330.1678 -7463.3842 302.1913 1114.7009 1192.3772 29723.0004 28.9011 105.2403
ENERGY: 1200000 2.1312 7.4965 5.0330 0.0000 -10638.9179 1410.8124 0.0000 0.0000 1715.8104 -7497.6345 291.9970 -9213.4448 -7463.7714 300.7265 -64.7271 -57.2388 29922.8923 -43.0676 31.3977
ENERGY: 1500000 0.5951 8.4496 4.0793 0.0000 -10841.3807 1538.6808 0.0000 0.0000 1752.4364 -7537.1395 298.2300 -9289.5758 -7472.0769 300.3999 798.5427 840.0296 29893.2269 -23.3698 45.8604
TCL: Running FEP window   4: Lambda1 0.15000000000000002 Lambda2 0.2    [dLambda 0.04999999999999999]
TCL: Setting parameter firsttimestep to 0
TCL: Setting parameter alchLambda to 0.15000000000000002
Info: NONBONDED TABLE R-SQUARED SPACING: 0.0625
Info: NONBONDED TABLE SIZE: 705 POINTS
TCL: Setting parameter alchLambda2 to 0.2
Info: NONBONDED TABLE R-SQUARED SPACING: 0.0625
Info: NONBONDED TABLE SIZE: 705 POINTS
TCL: Running for 1500000 steps
ETITLE: TS BOND ANGLE DIHED IMPRP ELECT VDW BOUNDARY MISC KINETIC TOTAL TEMP POTENTIAL TOTALAVG TEMPAVG PRESSURE GPRESSURE VOLUME PRESSAVG GPRESSAVG
ENERGY: 0 0.5951 8.4496 4.0793 0.0000 -10841.3814 1540.9960 0.0000 0.0000 1751.5636 -7535.6979 298.0815 -9287.2615 -7535.6979 298.0815 754.1731 847.2265 29893.2269 754.1731 847.2265
ENERGY: 300000 1.3319 8.3484 2.8800 0.0000 -10690.0213 1469.3723 0.0000 0.0000 1802.3868 -7405.7020 306.7306 -9208.0888 -7463.1788 305.1066 351.3064 395.4251 30282.1346 387.5050 430.6198
ENERGY: 600000 2.0111 9.2206 2.6598 0.0000 -10773.8246 1526.1729 0.0000 0.0000 1753.3614 -7480.3988 298.3874 -9233.7602 -7450.5034 303.5381 313.9986 416.4030 30526.9561 284.1927 344.4573
ENERGY: 900000 1.6608 8.8085 6.1772 0.0000 -10599.9062 1458.6513 0.0000 0.0000 1738.4506 -7386.1578 295.8499 -9124.6084 -7445.3536 301.2545 255.3875 320.1201 30544.5959 238.5248 299.7423
ENERGY: 1200000 2.6065 11.6099 3.6670 0.0000 -10829.3119 1493.5093 0.0000 0.0000 1723.7897 -7594.1294 293.3549 -9317.9191 -7448.2610 301.2059 300.1783 343.8588 29936.7582 332.5964 398.3381
ENERGY: 1500000 2.2880 5.9092 3.8298 0.0000 -10619.0385 1450.3259 0.0000 0.0000 1751.3604 -7405.3252 298.0469 -9156.6856 -7453.8196 300.5756 317.4886 278.9707 30415.3004 200.9231 260.5991
TCL: Running FEP window   5: Lambda1 0.2    Lambda2 0.25   [dLambda 0.04999999999999999]
TCL: Setting parameter firsttimestep to 0
TCL: Setting parameter alchLambda to 0.2
Info: NONBONDED TABLE R-SQUARED SPACING: 0.0625
Info: NONBONDED TABLE SIZE: 705 POINTS
TCL: Setting parameter alchLambda2 to 0.25
Info: NONBONDED TABLE R-SQUARED SPACING: 0.0625
Info: NONBONDED TABLE SIZE: 705 POINTS
TCL: Running for 1500000 steps
ETITLE: TS BOND ANGLE DIHED IMPRP ELECT VDW BOUNDARY MISC KINETIC TOTAL TEMP POTENTIAL TOTALAVG TEMPAVG PRESSURE GPRESSURE VOLUME PRESSAVG GPRESSAVG
ENERGY: 0 2.2880 5.9092 3.8298 0.0000 -10619.0403 1450.9424 0.0000 0.0000 1750.4852 -7405.5858 297.8979 -9156.0710 -7405.5858 297.8979 201.6157 284.0389 30415.3004 201.6157 284.0389
ENERGY: 300000 1.5393 15.8998 3.1761 0.0000 -10708.1410 1486.8314 0.0000 0.0000 1778.6267 -7422.0678 302.6871 -9200.6945 -7430.1676 301.7581 526.9990 545.3119 30000.7234 -199.4478 -138.1049
ENERGY: 600000 2.2013 8.4781 3.3119 0.0000 -10519.3553 1323.6954 0.0000 0.0000 1804.0778 -7377.5908 307.0183 -9181.6686 -7415.9433 303.0489 -745.8425 -632.5540 30513.5337 -218.1913 -153.5672
ENERGY: 900000 3.0138 10.6126 4.0396 0.0000 -10723.5040 1468.1247 0.0000 0.0000 1802.3782 -7435.3351 306.7291 -9237.7133 -7418.0568 303.5237 67.0078 93.4386 30462.7048 -199.1958 -140.7114
ENERGY: 1200000 1.9312 9.6116 3.8371 0.0000 -10642.7939 1443.2437 0.0000 0.0000 1751.1018 -7433.0687 298.0029 -9184.1704 -7427.8795 302.5098 -116.2640 -50.6044 30747.0345 -226.7197 -168.6502
ENERGY: 1500000 1.9756 14.3397 2.4975 0.0000 -10675.8971 1440.6283 0.0000 0.0000 1753.0314 -7463.4246 298.3313 -9216.4561 -7436.5113 301.8665 -107.4040 -48.4806 30398.2058 -260.0025 -204.3588
TCL: Running FEP window   6: Lambda1 0.25   Lambda2 0.3    [dLambda 0.04999999999999999]
TCL: Setting parameter firsttimestep to 0
TCL: Setting parameter alchLambda to 0.25
Info: NONBONDED TABLE R-SQUARED SPACING: 0.0625
Info: NONBONDED TABLE SIZE: 705 POINTS
TCL: Setting parameter alchLambda2 to 0.3
Info: NONBONDED TABLE R-SQUARED SPACING: 0.0625
Info: NONBONDED TABLE SIZE: 705 POINTS
TCL: Running for 1500000 steps
ETITLE: TS BOND ANGLE DIHED IMPRP ELECT VDW BOUNDARY MISC KINETIC TOTAL TEMP POTENTIAL TOTALAVG TEMPAVG PRESSURE GPRESSURE VOLUME PRESSAVG GPRESSAVG
ENERGY: 0 1.9756 14.3397 2.4975 0.0000 -10675.8976 1441.7438 0.0000 0.0000 1752.1898 -7463.1513 298.1880 -9215.3411 -7463.1513 298.1880 -117.6190 -34.6519 30398.2058 -117.6190 -34.6519
ENERGY: 300000 1.2753 8.4043 4.7188 0.0000 -10576.6963 1394.6009 0.0000 0.0000 1766.1638 -7401.5332 300.5661 -9167.6970 -7429.4004 302.6298 -158.3910 -106.7489 30275.3031 -119.7604 -51.4531
ENERGY: 600000 0.8772 10.8097 3.0701 0.0000 -10733.1841 1457.0904 0.0000 0.0000 1819.3629 -7441.9738 309.6196 -9261.3366 -7421.9051 303.9503 289.2966 322.9997 29811.9694 -138.5242 -72.4392
ENERGY: 900000 0.8562 10.8172 3.3204 0.0000 -10529.7985 1355.4520 0.0000 0.0000 1762.9406 -7396.4121 300.0176 -9159.3527 -7421.2660 302.5134 -578.4890 -574.5579 30885.9930 -161.9719 -96.5939
ENERGY: 1200000 2.0801 6.3852 2.5701 0.0000 -10682.1692 1409.1993 0.0000 0.0000 1792.1459 -7469.7885 304.9878 -9261.9345 -7433.8932 302.0567 -431.1350 -339.7489 30257.7065 -190.5467 -123.7288
ENERGY: 1500000 2.9386 11.5518 2.4808 0.0000 -10609.3237 1391.9154 0.0000 0.0000 1785.9898 -7414.4473 303.9401 -9200.4371 -7433.2503 301.8377 -625.2968 -583.0150 30633.4567 -226.4714 -160.9632
TCL: Running FEP window   7: Lambda1 0.3    Lambda2 0.35   [dLambda 0.04999999999999999]
TCL: Setting parameter firsttimestep to 0
TCL: Setting parameter alchLambda to 0.3
Info: NONBONDED TABLE R-SQUARED SPACING: 0.0625
Info: NONBONDED TABLE SIZE: 705 POINTS
TCL: Setting parameter alchLambda2 to 0.35
Info: NONBONDED TABLE R-SQUARED SPACING: 0.0625
Info: NONBONDED TABLE SIZE: 705 POINTS
TCL: Running for 1500000 steps
ETITLE: TS BOND ANGLE DIHED IMPRP ELECT VDW BOUNDARY MISC KINETIC TOTAL TEMP POTENTIAL TOTALAVG TEMPAVG PRESSURE GPRESSURE VOLUME PRESSAVG GPRESSAVG
ENERGY: 0 2.9385 11.5518 2.4808 0.0000 -10609.3226 1394.2844 0.0000 0.0000 1785.1312 -7412.9359 303.7940 -9198.0670 -7412.9359 303.7940 -635.8356 -563.3271 30633.4567 -635.8356 -563.3271
ENERGY: 300000 2.0883 8.1226 3.5048 0.0000 -10698.9225 1404.8310 0.0000 0.0000 1785.6789 -7494.6968 303.8872 -9280.3758 -7443.0849 300.7405 -125.5569 -122.7258 29997.5078 93.1512 144.1438
ENERGY: 600000 1.1056 9.7977 3.3945 0.0000 -10688.5005 1459.2774 0.0000 0.0000 1780.6528 -7434.2724 303.0319 -9214.9252 -7439.0330 301.1770 200.7776 254.2369 30325.7862 79.3503 133.3566
ENERGY: 900000 2.8114 8.2553 2.8324 0.0000 -10600.9422 1360.1533 0.0000 0.0000 1675.9594 -7550.9306 285.2151 -9226.8900 -7451.3826 299.3294 -937.6847 -951.9622 30911.8392 2.6513 51.6619
ENERGY: 1200000 0.9013 9.1124 2.8161 0.0000 -10535.3206 1347.3949 0.0000 0.0000 1731.3418 -7443.7541 294.6401 -9175.0959 -7455.3905 299.2676 -720.9750 -623.8376 30500.0400 3.4118 58.2301
ENERGY: 1500000 3.1179 10.8668 3.7447 0.0000 -10697.0590 1392.3569 0.0000 0.0000 1702.3882 -7584.5845 289.7128 -9286.9727 -7460.1080 298.9427 -635.2265 -637.2003 30551.6607 -116.9699 -63.8144
TCL: Running FEP window   8: Lambda1 0.35   Lambda2 0.39999999999999997 [dLambda 0.04999999999999999]
TCL: Setting parameter firsttimestep to 0
TCL: Setting parameter alchLambda to 0.35
Info: NONBONDED TABLE R-SQUARED SPACING: 0.0625
Info: NONBONDED TABLE SIZE: 705 POINTS
TCL: Setting parameter alchLambda2 to 0.39999999999999997
Info: NONBONDED TABLE R-SQUARED SPACING: 0.0625
Info: NONBONDED TABLE SIZE: 705 POINTS
TCL: Running for 1500000 steps
ETITLE: TS BOND ANGLE DIHED IMPRP ELECT VDW BOUNDARY MISC KINETIC TOTAL TEMP POTENTIAL TOTALAVG TEMPAVG PRESSURE GPRESSURE VOLUME PRESSAVG GPRESSAVG
ENERGY: 0 3.1179 10.8668 3.7447 0.0000 -10697.0576 1394.0933 0.0000 0.0000 1701.5017 -7583.7333 289.5619 -9285.2350 -7583.7333 289.5619 -688.3648 -624.5686 30551.6607 -688.3648 -624.5686
ENERGY: 300000 1.1500 14.4184 5.0626 0.0000 -10684.3730 1434.6307 0.0000 0.0000 1771.4995 -7457.6119 301.4742 -9229.1114 -7501.8528 295.5131 119.4028 131.3558 30260.2538 -184.1426 -158.8735
ENERGY: 600000 0.9928 10.0809 4.2075 0.0000 -10703.1288 1412.0299 0.0000 0.0000 1768.6647 -7507.1531 300.9917 -9275.8178 -7490.0479 297.3964 -687.6651 -575.4198 30977.5592 -182.3174 -138.2485
ENERGY: 900000 2.0973 11.8770 2.8324 0.0000 -10635.5752 1383.5873 0.0000 0.0000 1770.5497 -7464.6316 301.3125 -9235.1813 -7470.9701 298.1651 -675.5803 -486.2944 30393.1306 -263.7138 -202.7373
ENERGY: 1200000 1.9376 10.2482 6.1259 0.0000 -10679.6660 1394.5455 0.0000 0.0000 1757.1209 -7509.6878 299.0272 -9266.8087 -7463.3575 298.5928 -112.0257 -82.3435 29738.1533 -197.2733 -134.3714
ENERGY: 1500000 1.2893 8.6730 2.7340 0.0000 -10639.5374 1510.3820 0.0000 0.0000 1778.9791 -7337.4798 302.7471 -9116.4590 -7460.8541 299.3233 917.9037 990.0922 30501.4525 -83.4637 -17.7111
TCL: Running FEP window   9: Lambda1 0.39999999999999997 Lambda2 0.44999999999999996 [dLambda 0.04999999999999999]
TCL: Setting parameter firsttimestep to 0
TCL: Setting parameter alchLambda to 0.39999999999999997
Info: NONBONDED TABLE R-SQUARED SPACING: 0.0625
Info: NONBONDED TABLE SIZE: 705 POINTS
TCL: Setting parameter alchLambda2 to 0.44999999999999996
Info: NONBONDED TABLE R-SQUARED SPACING: 0.0625
Info: NONBONDED TABLE SIZE: 705 POINTS
TCL: Running for 1500000 steps
ETITLE: TS BOND ANGLE DIHED IMPRP ELECT VDW BOUNDARY MISC KINETIC TOTAL TEMP POTENTIAL TOTALAVG TEMPAVG PRESSURE GPRESSURE VOLUME PRESSAVG GPRESSAVG
ENERGY: 0 1.2893 8.6730 2.7340 0.0000 -10639.5370 1511.7937 0.0000 0.0000 1778.0815 -7336.9654 302.5943 -9115.0469 -7336.9654 302.5943 918.4061 1003.5153 30501.4525 918.4061 1003.5153
ENERGY: 300000 1.3059 11.5289 4.0876 0.0000 -10730.6329 1465.3081 0.0000 0.0000 1691.2893 -7557.1131 287.8240 -9248.4024 -7427.8353 300.3796 186.8930 280.5896 29813.1785 215.5704 298.7109
ENERGY: 600000 1.9879 7.8440 3.4015 0.0000 -10742.9912 1515.8435 0.0000 0.0000 1787.4869 -7426.4274 304.1949 -9213.9143 -7456.8554 298.5644 537.1478 632.0246 30371.1576 59.6105 141.4922
ENERGY: 900000 6.3642 11.7948 4.5520 0.0000 -10709.2024 1408.4511 0.0000 0.0000 1798.1702 -7479.8702 306.0130 -9278.0403 -7460.5373 300.8522 -259.2885 -163.5085 29977.1655 -60.9664 13.2178
ENERGY: 1200000 0.5702 9.7658 4.2418 0.0000 -10747.4921 1515.0098 0.0000 0.0000 1840.0856 -7377.8189 313.1462 -9217.9045 -7464.4869 301.0504 770.2240 776.2421 30337.9602 -164.3197 -94.5757
ENERGY: 1500000 4.1540 11.7906 3.5343 0.0000 -10702.6914 1443.7150 0.0000 0.0000 1756.4791 -7483.0184 298.9180 -9239.4975 -7464.1423 301.5369 -172.8883 -131.6258 30384.8698 -160.0149 -93.9748
TCL: Running FEP window  10: Lambda1 0.44999999999999996 Lambda2 0.49999999999999994 [dLambda 0.04999999999999999]
TCL: Setting parameter firsttimestep to 0
TCL: Setting parameter alchLambda to 0.44999999999999996
Info: NONBONDED TABLE R-SQUARED SPACING: 0.0625
Info: NONBONDED TABLE SIZE: 705 POINTS
TCL: Setting parameter alchLambda2 to 0.49999999999999994
Info: NONBONDED TABLE R-SQUARED SPACING: 0.0625
Info: NONBONDED TABLE SIZE: 705 POINTS
TCL: Running for 1500000 steps
ETITLE: TS BOND ANGLE DIHED IMPRP ELECT VDW BOUNDARY MISC KINETIC TOTAL TEMP POTENTIAL TOTALAVG TEMPAVG PRESSURE GPRESSURE VOLUME PRESSAVG GPRESSAVG
ENERGY: 0 4.1540 11.7906 3.5343 0.0000 -10702.6905 1443.9939 0.0000 0.0000 1755.5773 -7483.6405 298.7645 -9239.2178 -7483.6405 298.7645 -191.2266 -122.3009 30384.8698 -191.2266 -122.3009
ENERGY: 300000 1.6817 11.0618 3.3089 0.0000 -10669.5826 1410.1302 0.0000 0.0000 1725.5940 -7517.8059 293.6619 -9243.3999 -7465.6341 299.3790 -410.2436 -332.9933 30741.9150 -9.6110 62.1735
ENERGY: 600000 0.2359 8.2507 4.5191 0.0000 -10807.0048 1503.5287 0.0000 0.0000 1791.3046 -7499.1657 304.8446 -9290.4704 -7458.0709 300.1481 290.4361 355.4320 30289.2466 -29.0989 32.9758
ENERGY: 900000 1.5275 9.4046 3.2763 0.0000 -10685.9706 1394.4361 0.0000 0.0000 1753.7735 -7523.5526 298.4576 -9277.3261 -7477.4961 300.0157 -792.6459 -708.1169 30746.7189 -154.7967 -91.4982
ENERGY: 1200000 2.7174 11.3093 5.2296 0.0000 -10636.7814 1464.3376 0.0000 0.0000 1750.1730 -7403.0145 297.8448 -9153.1876 -7484.9779 298.9719 620.8788 724.1957 29966.1394 -125.0088 -62.7624
ENERGY: 1500000 1.0889 15.4921 4.0238 0.0000 -10576.8581 1399.8393 0.0000 0.0000 1801.4504 -7354.9635 306.5712 -9156.4139 -7482.9193 298.9056 -164.4644 -123.4019 30490.8700 -30.1172 29.6289
TCL: Running FEP window  11: Lambda1 0.49999999999999994 Lambda2 0.5499999999999999 [dLambda 0.04999999999999999]
TCL: Setting parameter firsttimestep to 0
TCL: Setting parameter alchLambda to 0.49999999999999994
Info: NONBONDED TABLE R-SQUARED SPACING: 0.0625
Info: NONBONDED TABLE SIZE: 705 POINTS
TCL: Setting parameter alchLambda2 to 0.5499999999999999
Info: NONBONDED TABLE R-SQUARED SPACING: 0.0625
Info: NONBONDED TABLE SIZE: 705 POINTS
TCL: Running for 1500000 steps
ETITLE: TS BOND ANGLE DIHED IMPRP ELECT VDW BOUNDARY MISC KINETIC TOTAL TEMP POTENTIAL TOTALAVG TEMPAVG PRESSURE GPRESSURE VOLUME PRESSAVG GPRESSAVG
ENERGY: 0 1.0889 15.4921 4.0238 0.0000 -10576.8573 1399.4573 0.0000 0.0000 1800.5488 -7356.2463 306.4178 -9156.7951 -7356.2463 306.4178 -197.7329 -120.1911 30490.8700 -197.7329 -120.1911
ENERGY: 300000 0.7212 10.8446 4.2313 0.0000 -10596.7393 1364.0238 0.0000 0.0000 1691.1693 -7525.7491 287.8035 -9216.9184 -7421.2458 298.4912 -437.7425 -430.9575 30194.2730 -313.2204 -255.1794
ENERGY: 600000 0.1739 6.8517 4.6653 0.0000 -10683.9721 1432.5745 0.0000 0.0000 1725.1709 -7514.5359 293.5900 -9239.7068 -7437.6238 299.0517 -175.9028 -78.3480 30677.1587 -309.3270 -251.9103
ENERGY: 900000 1.7512 11.1693 3.8774 0.0000 -10625.8935 1395.9412 0.0000 0.0000 1797.1841 -7415.9704 305.8452 -9213.1544 -7434.8728 299.4180 -152.7732 -122.7218 30459.5677 -278.9587 -220.3193
ENERGY: 1200000 1.9694 7.7519 2.7468 0.0000 -10660.0179 1480.2526 0.0000 0.0000 1794.9505 -7372.3467 305.4651 -9167.2972 -7425.9927 299.7830 555.3444 607.9087 30309.6615 -166.1975 -107.0920
ENERGY: 1500000 2.3950 12.9944 3.4280 0.0000 -10558.0402 1366.1838 0.0000 0.0000 1784.0595 -7388.9796 303.6116 -9173.0391 -7424.3356 300.6777 -250.3177 -191.8741 30112.4719 -150.7187 -95.7874
TCL: Running FEP window  12: Lambda1 0.5499999999999999 Lambda2 0.6    [dLambda 0.050000000000000044]
TCL: Setting parameter firsttimestep to 0
TCL: Setting parameter alchLambda to 0.5499999999999999
Info: NONBONDED TABLE R-SQUARED SPACING: 0.0625
Info: NONBONDED TABLE SIZE: 705 POINTS
TCL: Setting parameter alchLambda2 to 0.6
Info: NONBONDED TABLE R-SQUARED SPACING: 0.0625
Info: NONBONDED TABLE SIZE: 705 POINTS
TCL: Running for 1500000 steps
ETITLE: TS BOND ANGLE DIHED IMPRP ELECT VDW BOUNDARY MISC KINETIC TOTAL TEMP POTENTIAL TOTALAVG TEMPAVG PRESSURE GPRESSURE VOLUME PRESSAVG GPRESSAVG
ENERGY: 0 2.3950 12.9944 3.4280 0.0000 -10558.0329 1366.1555 0.0000 0.0000 1783.2176 -7389.8424 303.4684 -9173.0600 -7389.8424 303.4684 -255.2173 -182.2308 30112.4719 -255.2173 -182.2308
ENERGY: 300000 2.1586 9.5196 2.4134 0.0000 -10678.4969 1441.6104 0.0000 0.0000 1735.6944 -7487.1005 295.3808 -9222.7949 -7474.0364 299.9048 -52.9822 24.0413 30565.1556 71.9641 147.8876
ENERGY: 600000 1.8499 11.1008 4.6223 0.0000 -10642.7220 1415.4026 0.0000 0.0000 1786.1954 -7423.5512 303.9751 -9209.7465 -7453.5677 300.2010 -390.3846 -296.8385 30981.6231 -138.1376 -61.9019
ENERGY: 900000 1.8967 11.7840 3.6911 0.0000 -10792.7018 1555.0053 0.0000 0.0000 1771.8470 -7448.4777 301.5333 -9220.3247 -7463.8219 300.5073 1120.7815 1118.0589 29918.0431 -62.0025 7.6605
ENERGY: 1200000 1.7503 9.4358 4.5139 0.0000 -10811.3866 1541.8042 0.0000 0.0000 1770.5554 -7483.3270 301.3135 -9253.8824 -7466.2274 300.8693 989.2630 958.8863 30226.2794 -61.4335 -2.4074
ENERGY: 1500000 2.3970 7.0142 3.0384 0.0000 -10700.7912 1464.9445 0.0000 0.0000 1762.6210 -7460.7762 299.9632 -9223.3972 -7467.8476 301.0800 229.2975 279.6891 30270.8090 -78.3614 -17.0303
TCL: Running FEP window  13: Lambda1 0.6    Lambda2 0.65   [dLambda 0.050000000000000044]
TCL: Setting parameter firsttimestep to 0
TCL: Setting parameter alchLambda to 0.6
Info: NONBONDED TABLE R-SQUARED SPACING: 0.0625
Info: NONBONDED TABLE SIZE: 705 POINTS
TCL: Setting parameter alchLambda2 to 0.65
Info: NONBONDED TABLE R-SQUARED SPACING: 0.0625
Info: NONBONDED TABLE SIZE: 705 POINTS
TCL: Running for 1500000 steps
ETITLE: TS BOND ANGLE DIHED IMPRP ELECT VDW BOUNDARY MISC KINETIC TOTAL TEMP POTENTIAL TOTALAVG TEMPAVG PRESSURE GPRESSURE VOLUME PRESSAVG GPRESSAVG
ENERGY: 0 2.3970 7.0142 3.0384 0.0000 -10700.6553 1465.5696 0.0000 0.0000 1761.7401 -7460.8961 299.8133 -9222.6362 -7460.8961 299.8133 223.4294 292.3143 30270.8090 223.4294 292.3143
ENERGY: 300000 1.1769 10.8416 2.9047 0.0000 -10648.8802 1391.0608 0.0000 0.0000 1785.8945 -7457.0017 303.9239 -9242.8962 -7456.2957 303.7367 -417.3608 -264.7122 30269.2086 -201.5565 -128.9613
ENERGY: 600000 1.6866 8.7394 2.3041 0.0000 -10738.5771 1459.2810 0.0000 0.0000 1753.8449 -7512.7211 298.4697 -9266.5660 -7471.2134 302.5185 51.8509 154.2254 30189.3676 -159.8038 -95.9970
ENERGY: 900000 0.3159 10.4574 4.7651 0.0000 -10790.3096 1551.2675 0.0000 0.0000 1745.4270 -7478.0766 297.0371 -9223.5036 -7467.7408 301.7359 846.2484 897.0577 30465.0417 -77.2841 -14.7588
ENERGY: 1200000 1.8761 13.0900 3.7172 0.0000 -10653.5940 1420.9791 0.0000 0.0000 1782.1145 -7431.8172 303.2806 -9213.9317 -7456.1228 301.5883 -262.5833 -177.1557 30229.8497 -123.8655 -62.8515
ENERGY: 1500000 0.7855 8.7510 4.4626 0.0000 -10762.1619 1444.9114 0.0000 0.0000 1759.8604 -7543.3910 299.4934 -9303.2514 -7470.6614 301.8644 -224.8149 -79.1165 30269.0856 -106.9998 -46.5362
TCL: Running FEP window  14: Lambda1 0.65   Lambda2 0.7000000000000001 [dLambda 0.050000000000000044]
TCL: Setting parameter firsttimestep to 0
TCL: Setting parameter alchLambda to 0.65
Info: NONBONDED TABLE R-SQUARED SPACING: 0.0625
Info: NONBONDED TABLE SIZE: 705 POINTS
TCL: Setting parameter alchLambda2 to 0.7000000000000001
Info: NONBONDED TABLE R-SQUARED SPACING: 0.0625
Info: NONBONDED TABLE SIZE: 705 POINTS
TCL: Running for 1500000 steps
ETITLE: TS BOND ANGLE DIHED IMPRP ELECT VDW BOUNDARY MISC KINETIC TOTAL TEMP POTENTIAL TOTALAVG TEMPAVG PRESSURE GPRESSURE VOLUME PRESSAVG GPRESSAVG
ENERGY: 0 0.7855 8.7510 4.4626 0.0000 -10762.1948 1446.0332 0.0000 0.0000 1758.9976 -7543.1649 299.3466 -9302.1625 -7543.1649 299.3466 -136.7582 -58.7410 30269.0856 -136.7582 -58.7410
ENERGY: 300000 0.8585 10.2436 2.7914 0.0000 -10683.2847 1423.0182 0.0000 0.0000 1801.6813 -7444.6917 306.6105 -9246.3730 -7439.8825 300.6516 -197.6043 -124.2736 30459.0345 -180.4231 -128.8310
ENERGY: 600000 2.0939 11.0555 3.1757 0.0000 -10657.4848 1419.0533 0.0000 0.0000 1782.5494 -7439.5571 303.3546 -9222.1065 -7454.9399 300.1597 -221.4767 -173.6037 30689.9377 -299.1069 -239.1536
ENERGY: 900000 2.4272 17.3034 3.6423 0.0000 -10694.1945 1418.9056 0.0000 0.0000 1772.0326 -7479.8834 301.5649 -9251.9161 -7467.1698 299.9650 -529.8949 -452.5812 30604.3579 -314.5504 -251.3988
ENERGY: 1200000 1.8530 6.7274 6.6332 0.0000 -10757.7040 1443.2912 0.0000 0.0000 1733.9639 -7565.2353 295.0863 -9299.1992 -7475.9398 299.4344 -322.5751 -374.7320 30668.2038 -257.5983 -209.8496
ENERGY: 1500000 2.1636 6.3736 3.3291 0.0000 -10577.2275 1437.2008 0.0000 0.0000 1818.1276 -7310.0328 309.4093 -9128.1604 -7462.8130 299.6506 351.5701 400.9049 30498.0048 -135.4704 -83.7289
TCL: Running FEP window  15: Lambda1 0.7000000000000001 Lambda2 0.7500000000000001 [dLambda 0.050000000000000044]
TCL: Setting parameter firsttimestep to 0
TCL: Setting parameter alchLambda to 0.7000000000000001
Info: NONBONDED TABLE R-SQUARED SPACING: 0.0625
Info: NONBONDED TABLE SIZE: 705 POINTS
TCL: Setting parameter alchLambda2 to 0.7500000000000001
Info: NONBONDED TABLE R-SQUARED SPACING: 0.0625
Info: NONBONDED TABLE SIZE: 705 POINTS
TCL: Running for 1500000 steps
ETITLE: TS BOND ANGLE DIHED IMPRP ELECT VDW BOUNDARY MISC KINETIC TOTAL TEMP POTENTIAL TOTALAVG TEMPAVG PRESSURE GPRESSURE VOLUME PRESSAVG GPRESSAVG
ENERGY: 0 2.1636 6.3736 3.3291 0.0000 -10577.1827 1440.0869 0.0000 0.0000 1817.2462 -7307.9834 309.2593 -9125.2296 -7307.9834 309.2593 366.1966 444.9505 30498.0048 366.1966 444.9505
ENERGY: 300000 2.6131 9.4159 2.9753 0.0000 -10684.9890 1441.6582 0.0000 0.0000 1747.8294 -7480.4970 297.4460 -9228.3264 -7401.5858 302.8329 14.8111 70.7258 30170.8488 44.0562 133.3956
ENERGY: 600000 2.8577 12.9411 2.3965 0.0000 -10484.5273 1334.7133 0.0000 0.0000 1741.0444 -7390.5743 296.2913 -9131.6188 -7431.2967 299.5122 -443.8079 -393.2122 30603.1847 64.9715 135.7050
ENERGY: 900000 1.6602 5.6729 3.9084 0.0000 -10716.5556 1475.1404 0.0000 0.0000 1789.4443 -7440.7293 304.5280 -9230.1736 -7437.6743 300.9464 376.9622 413.9376 30301.6178 4.6881 68.7164
ENERGY: 1200000 4.0142 10.0349 2.7949 0.0000 -10679.8623 1429.6486 0.0000 0.0000 1787.4226 -7445.9470 304.1840 -9233.3696 -7438.7664 301.4058 116.5342 154.0664 30170.7354 48.8367 112.4702
ENERGY: 1500000 1.1573 13.5797 2.7067 0.0000 -10690.9289 1453.5058 0.0000 0.0000 1768.6634 -7451.3160 300.9915 -9219.9794 -7441.7854 301.1701 71.8173 152.5483 30343.5081 15.9516 85.3102
TCL: Running FEP window  16: Lambda1 0.7500000000000001 Lambda2 0.8000000000000002 [dLambda 0.050000000000000044]
TCL: Setting parameter firsttimestep to 0
TCL: Setting parameter alchLambda to 0.7500000000000001
Info: NONBONDED TABLE R-SQUARED SPACING: 0.0625
Info: NONBONDED TABLE SIZE: 705 POINTS
TCL: Setting parameter alchLambda2 to 0.8000000000000002
Info: NONBONDED TABLE R-SQUARED SPACING: 0.0625
Info: NONBONDED TABLE SIZE: 705 POINTS
TCL: Running for 1500000 steps
ETITLE: TS BOND ANGLE DIHED IMPRP ELECT VDW BOUNDARY MISC KINETIC TOTAL TEMP POTENTIAL TOTALAVG TEMPAVG PRESSURE GPRESSURE VOLUME PRESSAVG GPRESSAVG
ENERGY: 0 1.1573 13.5797 2.7067 0.0000 -10690.9385 1453.8984 0.0000 0.0000 1767.7905 -7451.8059 300.8430 -9219.5964 -7451.8059 300.8430 86.9570 168.1811 30343.5081 86.9570 168.1811
ENERGY: 300000 1.0982 9.5162 4.0844 0.0000 -10547.4213 1379.9829 0.0000 0.0000 1761.8221 -7390.9175 299.8273 -9152.7396 -7473.4968 298.3432 -151.5431 -116.2828 30574.3167 252.0156 298.4208
ENERGY: 600000 1.5209 7.1577 3.3321 0.0000 -10641.1766 1414.1499 0.0000 0.0000 1672.8527 -7542.1634 284.6864 -9215.0160 -7490.5927 295.6844 -264.3360 -167.2381 30329.0330 217.6732 285.4962
ENERGY: 900000 3.6649 11.1189 3.2493 0.0000 -10659.8001 1440.4616 0.0000 0.0000 1746.2558 -7455.0497 297.1782 -9201.3055 -7497.4502 295.2826 256.2639 274.7252 30341.4726 179.8559 249.9511
ENERGY: 1200000 2.0420 10.5524 5.9630 0.0000 -10773.3132 1512.3290 0.0000 0.0000 1750.0331 -7492.3937 297.8210 -9242.4268 -7493.7881 296.7701 198.5446 264.6676 30745.2126 115.1528 185.0298
ENERGY: 1500000 0.3753 6.5249 3.3354 0.0000 -10729.0494 1412.9009 0.0000 0.0000 1741.8504 -7564.0625 296.4285 -9305.9129 -7497.4903 297.1651 -383.5126 -365.5283 30457.8830 30.4628 94.0225
TCL: Running FEP window  17: Lambda1 0.8000000000000002 Lambda2 0.8500000000000002 [dLambda 0.050000000000000044]
TCL: Setting parameter firsttimestep to 0
TCL: Setting parameter alchLambda to 0.8000000000000002
Info: NONBONDED TABLE R-SQUARED SPACING: 0.0625
Info: NONBONDED TABLE SIZE: 705 POINTS
TCL: Setting parameter alchLambda2 to 0.8500000000000002
Info: NONBONDED TABLE R-SQUARED SPACING: 0.0625
Info: NONBONDED TABLE SIZE: 705 POINTS
TCL: Running for 1500000 steps
ETITLE: TS BOND ANGLE DIHED IMPRP ELECT VDW BOUNDARY MISC KINETIC TOTAL TEMP POTENTIAL TOTALAVG TEMPAVG PRESSURE GPRESSURE VOLUME PRESSAVG GPRESSAVG
ENERGY: 0 0.3753 6.5249 3.3354 0.0000 -10729.0433 1412.9818 0.0000 0.0000 1740.9796 -7564.8464 296.2803 -9305.8259 -7564.8464 296.2803 -441.0725 -354.1813 30457.8830 -441.0725 -354.1813
ENERGY: 300000 2.2302 4.8292 4.2059 0.0000 -10776.4687 1542.2219 0.0000 0.0000 1804.5529 -7418.4285 307.0992 -9222.9814 -7503.6109 301.8467 1099.9250 1145.2184 30103.6578 253.9209 338.7045
ENERGY: 600000 1.2418 9.1725 4.0999 0.0000 -10859.4232 1553.4511 0.0000 0.0000 1769.1078 -7522.3501 301.0671 -9291.4579 -7475.1366 301.6652 702.4329 816.7998 30373.6554 83.2493 168.1895
ENERGY: 900000 1.1058 11.9399 3.9198 0.0000 -10726.9694 1506.0073 0.0000 0.0000 1789.1224 -7414.8743 304.4732 -9203.9966 -7448.8172 301.9627 758.0490 840.0296 30083.4079 309.2346 394.0143
ENERGY: 1200000 1.1356 9.7295 2.5349 0.0000 -10585.8403 1393.3107 0.0000 0.0000 1803.3033 -7375.8263 306.8865 -9179.1296 -7444.4504 301.6599 -237.6449 -163.6624 30651.3475 179.8828 262.7254
ENERGY: 1500000 0.6847 9.8329 3.1118 0.0000 -10669.8213 1413.1525 0.0000 0.0000 1684.7520 -7558.2874 286.7115 -9243.0394 -7452.5965 300.3359 -378.9067 -342.2371 30425.7202 74.7185 158.6807
TCL: Running FEP window  18: Lambda1 0.8500000000000002 Lambda2 0.9000000000000002 [dLambda 0.050000000000000044]
TCL: Setting parameter firsttimestep to 0
TCL: Setting parameter alchLambda to 0.8500000000000002
Info: NONBONDED TABLE R-SQUARED SPACING: 0.0625
Info: NONBONDED TABLE SIZE: 705 POINTS
TCL: Setting parameter alchLambda2 to 0.9000000000000002
Info: NONBONDED TABLE R-SQUARED SPACING: 0.0625
Info: NONBONDED TABLE SIZE: 705 POINTS
TCL: Running for 1500000 steps
ETITLE: TS BOND ANGLE DIHED IMPRP ELECT VDW BOUNDARY MISC KINETIC TOTAL TEMP POTENTIAL TOTALAVG TEMPAVG PRESSURE GPRESSURE VOLUME PRESSAVG GPRESSAVG
ENERGY: 0 0.6847 9.8329 3.1118 0.0000 -10669.8191 1412.9273 0.0000 0.0000 1683.8946 -7559.3679 286.5655 -9243.2625 -7559.3679 286.5655 -428.1360 -335.3144 30425.7202 -428.1360 -335.3144
ENERGY: 300000 2.6029 7.2514 3.6318 0.0000 -10789.6416 1485.2686 0.0000 0.0000 1790.6656 -7500.2212 304.7359 -9290.8869 -7475.0798 297.6851 181.5988 217.5373 30256.7038 -284.1509 -203.2765
ENERGY: 600000 2.1192 6.0449 3.6092 0.0000 -10709.4566 1489.0423 0.0000 0.0000 1754.0385 -7454.6024 298.5027 -9208.6410 -7474.5241 298.1780 299.0248 327.4208 30557.4979 -98.5848 -19.8824
ENERGY: 900000 2.3363 7.5515 2.6918 0.0000 -10856.1575 1527.0663 0.0000 0.0000 1775.6296 -7540.8820 302.1770 -9316.5115 -7492.4247 298.0085 516.8157 550.2407 30187.5817 74.4888 151.2317
ENERGY: 1200000 2.2287 14.1454 3.0305 0.0000 -10745.3688 1476.9385 0.0000 0.0000 1763.8344 -7485.1913 300.1697 -9249.0258 -7484.4943 297.7724 90.4979 152.0093 30605.6737 167.6919 236.9593
ENERGY: 1500000 3.4436 12.0358 3.0807 0.0000 -10661.6853 1414.7500 0.0000 0.0000 1758.1191 -7470.2560 299.1971 -9228.3751 -7470.8980 298.7453 -71.6029 -0.2671 30280.0088 94.1458 167.3769
TCL: Running FEP window  19: Lambda1 0.9000000000000002 Lambda2 0.9500000000000003 [dLambda 0.050000000000000044]
TCL: Setting parameter firsttimestep to 0
TCL: Setting parameter alchLambda to 0.9000000000000002
Info: NONBONDED TABLE R-SQUARED SPACING: 0.0625
Info: NONBONDED TABLE SIZE: 705 POINTS
TCL: Setting parameter alchLambda2 to 0.9500000000000003
Info: NONBONDED TABLE R-SQUARED SPACING: 0.0625
Info: NONBONDED TABLE SIZE: 705 POINTS
TCL: Running for 1500000 steps
ETITLE: TS BOND ANGLE DIHED IMPRP ELECT VDW BOUNDARY MISC KINETIC TOTAL TEMP POTENTIAL TOTALAVG TEMPAVG PRESSURE GPRESSURE VOLUME PRESSAVG GPRESSAVG
ENERGY: 0 3.4436 12.0358 3.0807 0.0000 -10661.6775 1414.4960 0.0000 0.0000 1757.2646 -7471.3568 299.0517 -9228.6214 -7471.3568 299.0517 -82.1242 7.0805 30280.0088 -82.1242 7.0805
ENERGY: 300000 2.8669 9.3258 2.5317 0.0000 -10649.2369 1429.8700 0.0000 0.0000 1791.0327 -7413.6099 304.7983 -9204.6426 -7461.4059 298.3627 125.0263 154.2287 30243.1543 50.5701 120.4533
ENERGY: 600000 1.0352 6.6986 2.7209 0.0000 -10649.4086 1357.4092 0.0000 0.0000 1712.0760 -7569.4688 291.3615 -9281.5448 -7472.9061 298.4314 -865.6672 -766.9507 30431.7246 -298.2161 -244.0600
ENERGY: 900000 2.3171 11.1823 3.1871 0.0000 -10611.4406 1415.5906 0.0000 0.0000 1715.9762 -7463.1873 292.0252 -9179.1636 -7472.4436 299.2329 -112.3769 -52.3302 30616.1405 -257.8229 -203.0819
ENERGY: 1200000 1.9852 9.8935 3.4524 0.0000 -10542.4517 1389.4841 0.0000 0.0000 1756.2561 -7381.3804 298.8800 -9137.6365 -7474.8746 299.6233 -273.3524 -252.1403 31075.4308 -205.5710 -156.4162
ENERGY: 1500000 2.4792 10.7014 4.3907 0.0000 -10759.2280 1485.0925 0.0000 0.0000 1788.7644 -7467.7998 304.4123 -9256.5643 -7475.9007 300.1963 88.6694 259.8487 30612.3354 -248.3254 -187.8309
TCL: Running FEP window  20: Lambda1 0.9500000000000003 Lambda2 1.0    [dLambda 0.04999999999999971]
TCL: Setting parameter firsttimestep to 0
TCL: Setting parameter alchLambda to 0.9500000000000003
Info: NONBONDED TABLE R-SQUARED SPACING: 0.0625
Info: NONBONDED TABLE SIZE: 705 POINTS
TCL: Setting parameter alchLambda2 to 1.0
Info: NONBONDED TABLE R-SQUARED SPACING: 0.0625
Info: NONBONDED TABLE SIZE: 705 POINTS
TCL: Running for 1500000 steps
ETITLE: TS BOND ANGLE DIHED IMPRP ELECT VDW BOUNDARY MISC KINETIC TOTAL TEMP POTENTIAL TOTALAVG TEMPAVG PRESSURE GPRESSURE VOLUME PRESSAVG GPRESSAVG
ENERGY: 0 2.4792 10.7014 4.3907 0.0000 -10759.2294 1485.2129 0.0000 0.0000 1787.8945 -7468.5508 304.2643 -9256.4453 -7468.5508 304.2643 180.4149 274.2070 30612.3354 180.4149 274.2070
ENERGY: 300000 1.3799 10.6961 3.1464 0.0000 -10704.2705 1462.1506 0.0000 0.0000 1844.4399 -7382.4576 313.8872 -9226.8976 -7447.7305 303.2370 176.1320 258.0938 30526.2952 251.3992 351.1257
ENERGY: 600000 2.6977 16.2731 3.7903 0.0000 -10685.9760 1488.8043 0.0000 0.0000 1762.8526 -7411.5579 300.0026 -9174.4105 -7435.6986 301.1529 499.3672 542.1917 30522.4967 260.5337 345.5714
ENERGY: 900000 0.6765 8.7926 3.4181 0.0000 -10802.2336 1550.4204 0.0000 0.0000 1782.9593 -7455.9667 303.4244 -9238.9260 -7420.4104 302.1449 734.6683 786.2044 30679.9472 314.4358 382.0611
ENERGY: 1200000 1.4042 8.6848 2.8707 0.0000 -10623.2572 1365.6785 0.0000 0.0000 1793.4328 -7451.1861 305.2068 -9244.6189 -7442.0891 301.6470 -623.3197 -531.7657 30456.0972 158.3968 223.9629
ENERGY: 1500000 4.0275 11.2621 3.3948 0.0000 -10731.0353 1426.7687 0.0000 0.0000 1806.3222 -7479.2600 307.4003 -9285.5822 -7440.5353 302.3222 -273.4701 -287.2874 30473.6295 186.6798 244.1096
TCL: Exiting due to exit command.
