Info: SIMULATION PARAMETERS:
Info: TIMESTEP               2
Info: NUMBER OF STEPS        0
Info: STEPS PER CYCLE        10
Info: PERIODIC CELL BASIS 1  31.5737 0 0
Info: PERIODIC CELL BASIS 2  0 31.476 0
Info: PERIODIC CELL BASIS 3  0 0 30.7503
Info: PERIODIC CELL CENTER   0 0 0
Info: WRAPPING WATERS AROUND PERIODIC BOUNDARIES ON OUTPUT.
Info: WRAPPING ALL CLUSTERS AROUND PERIODIC BOUNDARIES ON OUTPUT.
Info: FIRST LDB TIMESTEP     50
Info: LAST LDB TIMESTEP     -1
Info: HOM BACKGROUND SCALING 1
Info: PME BACKGROUND SCALING 1
Info: MIN ATOMS PER PATCH    40
Info: EMPTY PATCH LOAD       40 ATOMS
Info: VELOCITY FILE          mobley_6303022_equil.vel
Info: CENTER OF MASS MOVING INITIALLY? NO
Info: DIELECTRIC             1
Info: EXCLUDE                SCALED ONE-FOUR
Info: 1-4 ELECTROSTATICS SCALED BY 0.833333
Info: MODIFIED 1-4 VDW PARAMETERS WILL BE USED
Info: DCD FILENAME           mobley_6303022_prod.dcd
Info: DCD FREQUENCY          100000
Info: DCD FIRST STEP         100000
Info: DCD FILE WILL CONTAIN UNIT CELL DATA
Info: XST FILENAME           mobley_6303022_prod.xst
Info: XST FREQUENCY          100000
Info: NO VELOCITY DCD OUTPUT
Info: NO FORCE DCD OUTPUT
Info: OUTPUT FILENAME        mobley_6303022_prod
Info: BINARY OUTPUT FILES WILL BE USED
Info: RESTART FILENAME       mobley_6303022_prod.restart
Info: RESTART FREQUENCY      100000
Info: BINARY RESTART FILES WILL BE USED
Info: CUTOFF                 9
Info: PAIRLIST DISTANCE      11
Info: PAIRLIST SHRINK RATE   0.01
Info: PAIRLIST GROW RATE     0.01
Info: PAIRLIST TRIGGER       0.3
Info: PAIRLISTS PER CYCLE    2
Info: PAIRLISTS ENABLED
Info: MARGIN                 2
Info: HYDROGEN GROUP CUTOFF  2.5
Info: PATCH DIMENSION        15.5
Info: ENERGY OUTPUT STEPS    100000
Info: ENERGY EVALUATION STEPS    100000
Info: OUTPUT ENERGY PRECISION 4
Info: CROSSTERM ENERGY INCLUDED IN DIHEDRAL
Info: TIMING OUTPUT STEPS    1000000
Info: PRESSURE OUTPUT STEPS  100000
Info: ALCHEMICAL FEP ON
Info: FEP CURRENT LAMBDA VALUE     1
Info: FEP COMPARISON LAMBDA VALUE  0.95
Info: FEP INTRA-ALCHEMICAL NON-BONDED INTERACTIONS WILL BE RETAINED
Info: FEP INTRA-ALCHEMICAL BONDED INTERACTIONS WILL BE RETAINED
Info: FEP VDW SHIFTING COEFFICIENT 5
Info: FEP ELEC. ACTIVE FOR ANNIHILATED PARTICLES BETWEEN LAMBDA = 0 AND LAMBDA = 0.5
Info: FEP ELEC. ACTIVE FOR EXNIHILATED PARTICLES BETWEEN LAMBDA = 0.5 AND LAMBDA = 1
Info: FEP VDW ACTIVE FOR ANNIHILATED PARTICLES BETWEEN LAMBDA = 0 AND LAMBDA = 1
Info: FEP VDW ACTIVE FOR EXNIHILATED PARTICLES BETWEEN LAMBDA = 0 AND LAMBDA = 1
Info: FEP BOND ACTIVE FOR ANNIHILATED PARTICLES BETWEEN LAMBDA = 1 AND LAMBDA = 1
Info: FEP BOND ACTIVE FOR EXNIHILATED PARTICLES BETWEEN LAMBDA = 0 AND LAMBDA = 0
Info: LANGEVIN DYNAMICS ACTIVE
Info: LANGEVIN TEMPERATURE   300
Info: LANGEVIN USING BBK INTEGRATOR
Info: LANGEVIN DAMPING COEFFICIENT IS 1 INVERSE PS
Info: LANGEVIN DYNAMICS APPLIED TO HYDROGENS
Info: LANGEVIN PISTON PRESSURE CONTROL ACTIVE
Info:        TARGET PRESSURE IS 1.01325 BAR
Info:     OSCILLATION PERIOD IS 50 FS
Info:             DECAY TIME IS 25 FS
Info:     PISTON TEMPERATURE IS 300 K
Info:       PRESSURE CONTROL IS GROUP-BASED
Info:    INITIAL STRAIN RATE IS 0.000121744 0.000121744 0.000121744
Info:       CELL FLUCTUATION IS ISOTROPIC
Info: PARTICLE MESH EWALD (PME) ACTIVE
Info: PME TOLERANCE               1e-06
Info: PME EWALD COEFFICIENT       0.348832
Info: PME INTERPOLATION ORDER     4
Info: PME GRID DIMENSIONS         32 32 32
Info: PME MAXIMUM GRID SPACING    1
Info: PME CALCULATION WILL BE PERFORMED ON GPU
Info: FULL ELECTROSTATIC EVALUATION FREQUENCY      2
Info: USING VERLET I (r-RESPA) MTS SCHEME.
Info: C1 SPLITTING OF LONG RANGE ELECTROSTATICS
Info: PLACING ATOMS IN PATCHES BY HYDROGEN GROUPS
Info: RIGID BONDS TO HYDROGEN : ALL
Info:         ERROR TOLERANCE : 1e-08
Info:          MAX ITERATIONS : 100
Info: RIGID WATER USING SETTLE ALGORITHM
Info: RANDOM NUMBER SEED     1743767823
Info: USE HYDROGEN BONDS?    NO
Info: Using AMBER format force field!
Info: AMBER PARM FILE        mobley_6303022.prmtop
Info: COORDINATE PDB         mobley_6303022.pdb
Info: Exclusions will be read from PARM file!
Info: SCNB (VDW SCALING)     2
Info: USING ARITHMETIC MEAN TO COMBINE L-J SIGMA PARAMETERS
Info: BINARY COORDINATES     mobley_6303022_equil.coor
Info: SUMMARY OF PARAMETERS:
Info: 9 BONDS
Info: 11 ANGLES
Info:   11 HARMONIC
Info:   0 COSINE-BASED
Info: 6 DIHEDRAL
Info: 0 IMPROPER
Info: 0 CROSSTERM
Info: 0 VDW
Info: 36 VDW_PAIRS
Info: 0 NBTHOLE_PAIRS
Info: To read alchdata from file: mobley_6303022.pdb
Info: To read alchflag data from column: 5
Info: STRUCTURE SUMMARY:
Info: 2951 ATOMS
Info: 2951 BONDS
Info: 28 ANGLES
Info: 40 DIHEDRALS
Info: 0 IMPROPERS
Info: 0 CROSSTERMS
Info: 3011 EXCLUSIONS
Info: 2943 RIGID BONDS
Info: ALCH: 0 ATOMS TO DISAPPEAR IN FINAL STATE
Info: ALCH: 17 ATOMS TO APPEAR IN FINAL STATE
Info: 5910 DEGREES OF FREEDOM
Info: 986 HYDROGEN GROUPS
Info: 4 ATOMS IN LARGEST HYDROGEN GROUP
Info: 986 MIGRATION GROUPS
Info: 4 ATOMS IN LARGEST MIGRATION GROUP
Info: TOTAL MASS = 17726.8 amu
Info: TOTAL CHARGE = -7.45058e-09 e
Info: MASS DENSITY = 0.963241 g/cm^3
Info: ATOM DENSITY = 0.0965639 atoms/A^3
Info: ADDED 0 IMPLICIT EXCLUSIONS
Info: NONBONDED TABLE R-SQUARED SPACING: 0.0625
Info: NONBONDED TABLE SIZE: 705 POINTS
Info: REDUCING NUMBER OF PATCHES TO IMPROVE LOAD BALANCE
Info: REMOVING COM VELOCITY -0.107469 -0.0592025 -0.00935218
Info: Use 3D box decompostion in PME FFT.
Info: Updated CUDA force table with 4096 elements.
Info: Updated CUDA LJ table with 8 x 8 elements.
Info: Found 18 unique exclusion lists needing 44 bytes
TCL: Running for 1500000 steps
ETITLE: TS BOND ANGLE DIHED IMPRP ELECT VDW BOUNDARY MISC KINETIC TOTAL TEMP POTENTIAL TOTALAVG TEMPAVG PRESSURE GPRESSURE VOLUME PRESSAVG GPRESSAVG
ENERGY: 0 3.1590 4.1720 1.3979 0.0000 -10735.0247 1454.1978 0.0000 0.0000 1810.6912 -7461.4070 308.3524 -9272.0982 -7461.4070 308.3524 57.5917 146.7959 30560.0840 57.5917 146.7959
ENERGY: 300000 1.7229 6.6807 3.0870 0.0000 -10885.8637 1592.7915 0.0000 0.0000 1673.5178 -7608.0638 284.9924 -9281.5816 -7555.7705 295.6923 1212.0359 1271.9814 30477.6323 -30.8472 46.7220
ENERGY: 600000 3.0501 5.4863 1.9996 0.0000 -10798.3629 1479.2025 0.0000 0.0000 1770.1485 -7538.4759 301.4481 -9308.6244 -7536.5725 299.3014 279.2100 245.3586 30330.5870 -27.6530 33.2463
ENERGY: 900000 2.6780 5.9147 1.4509 0.0000 -10720.1676 1442.3645 0.0000 0.0000 1744.7695 -7522.9900 297.1262 -9267.7596 -7514.6604 300.7966 -40.5735 38.4829 30920.7574 126.8158 190.6034
ENERGY: 1200000 1.4954 9.4624 3.3400 0.0000 -10606.3359 1356.0399 0.0000 0.0000 1726.3621 -7509.6361 293.9915 -9235.9982 -7510.5032 300.4662 -860.6424 -809.8258 30971.3922 -10.3015 53.6971
ENERGY: 1500000 4.8191 6.6746 2.0255 0.0000 -10733.1242 1474.0324 0.0000 0.0000 1764.9214 -7480.6512 300.5580 -9245.5727 -7504.1596 300.5770 275.9316 312.6634 30207.7049 57.6194 121.5426
TCL: Running FEP window   2: Lambda1 0.95   Lambda2 0.8999999999999999 [dLambda -0.050000000000000044]
TCL: Setting parameter firsttimestep to 0
TCL: Setting parameter alchLambda to 0.95
Info: NONBONDED TABLE R-SQUARED SPACING: 0.0625
Info: NONBONDED TABLE SIZE: 705 POINTS
TCL: Setting parameter alchLambda2 to 0.8999999999999999
Info: NONBONDED TABLE R-SQUARED SPACING: 0.0625
Info: NONBONDED TABLE SIZE: 705 POINTS
TCL: Running for 1500000 steps
ETITLE: TS BOND ANGLE DIHED IMPRP ELECT VDW BOUNDARY MISC KINETIC TOTAL TEMP POTENTIAL TOTALAVG TEMPAVG PRESSURE GPRESSURE VOLUME PRESSAVG GPRESSAVG
ENERGY: 0 4.8191 6.6746 2.0255 0.0000 -10732.0537 1474.3529 0.0000 0.0000 1764.0261 -7480.1556 300.4055 -9244.1816 -7480.1556 300.4055 223.0029 302.5674 30207.7049 223.0029 302.5674
ENERGY: 300000 3.7688 8.2100 1.8041 0.0000 -10679.7541 1351.5400 0.0000 0.0000 1773.0251 -7541.4061 301.9380 -9314.4313 -7556.0901 298.5997 -767.8783 -693.6294 30370.0127 -310.5240 -234.0943
ENERGY: 600000 6.4197 5.6972 2.1504 0.0000 -10665.2529 1395.9471 0.0000 0.0000 1790.0791 -7464.9595 304.8422 -9255.0386 -7543.0481 297.8677 -608.5621 -602.7491 30866.9426 -108.0780 -47.1933
ENERGY: 900000 5.4115 7.6936 1.5415 0.0000 -10782.6581 1487.8729 0.0000 0.0000 1789.7431 -7490.3956 304.7850 -9280.1386 -7526.6317 299.3624 225.9378 314.9839 30392.1176 -34.8511 22.8422
ENERGY: 1200000 1.9420 6.1878 1.3654 0.0000 -10549.7027 1301.3509 0.0000 0.0000 1747.8299 -7491.0267 297.6474 -9238.8566 -7515.1615 298.9906 -989.1948 -974.2193 30640.4130 -115.5022 -64.1360
ENERGY: 1500000 1.0345 6.0104 0.9131 0.0000 -10789.0612 1508.1885 0.0000 0.0000 1808.7592 -7464.1553 308.0234 -9272.9146 -7514.6066 299.0427 646.2664 699.9542 30494.8933 -77.3594 -29.8981
TCL: Running FEP window   3: Lambda1 0.8999999999999999 Lambda2 0.8499999999999999 [dLambda -0.050000000000000044]
TCL: Setting parameter firsttimestep to 0
TCL: Setting parameter alchLambda to 0.8999999999999999
Info: NONBONDED TABLE R-SQUARED SPACING: 0.0625
Info: NONBONDED TABLE SIZE: 705 POINTS
TCL: Setting parameter alchLambda2 to 0.8499999999999999
Info: NONBONDED TABLE R-SQUARED SPACING: 0.0625
Info: NONBONDED TABLE SIZE: 705 POINTS
TCL: Running for 1500000 steps
ETITLE: TS BOND ANGLE DIHED IMPRP ELECT VDW BOUNDARY MISC KINETIC TOTAL TEMP POTENTIAL TOTALAVG TEMPAVG PRESSURE GPRESSURE VOLUME PRESSAVG GPRESSAVG
ENERGY: 0 1.0345 6.0104 0.9131 0.0000 -10788.8464 1508.4560 0.0000 0.0000 1807.8329 -7464.5995 307.8656 -9272.4324 -7464.5995 307.8656 616.8473 691.3957 30494.8933 616.8473 691.3957
ENERGY: 300000 2.6740 6.2133 3.0145 0.0000 -10649.3980 1438.6564 0.0000 0.0000 1778.5817 -7420.2580 302.8843 -9198.8397 -7448.8003 305.0465 35.0051 30.9549 30781.8737 50.6741 90.9084
ENERGY: 600000 3.4628 4.7339 2.6872 0.0000 -10687.3761 1398.2360 0.0000 0.0000 1767.1245 -7511.1317 300.9332 -9278.2562 -7488.7920 303.1184 -319.9287 -258.6639 29895.4366 49.5950 104.9597
ENERGY: 900000 2.0288 6.1445 2.9862 0.0000 -10768.3488 1447.2442 0.0000 0.0000 1814.7729 -7495.1722 309.0475 -9309.9451 -7478.4137 303.1532 -71.8649 -26.7751 30535.8563 -6.3332 52.7543
ENERGY: 1200000 2.1547 2.5764 3.8402 0.0000 -10810.0993 1551.3991 0.0000 0.0000 1752.4175 -7497.7114 298.4286 -9250.1289 -7477.7965 302.5621 763.3409 833.4284 30471.6535 -31.8578 30.1444
ENERGY: 1500000 0.3380 5.5173 2.0235 0.0000 -10609.2701 1345.1119 0.0000 0.0000 1805.2658 -7451.0135 307.4285 -9256.2793 -7482.8347 302.2185 -704.2554 -654.6366 30539.0101 -104.5697 -43.4635
TCL: Running FEP window   4: Lambda1 0.8499999999999999 Lambda2 0.7999999999999998 [dLambda -0.050000000000000044]
TCL: Setting parameter firsttimestep to 0
TCL: Setting parameter alchLambda to 0.8499999999999999
Info: NONBONDED TABLE R-SQUARED SPACING: 0.0625
Info: NONBONDED TABLE SIZE: 705 POINTS
TCL: Setting parameter alchLambda2 to 0.7999999999999998
Info: NONBONDED TABLE R-SQUARED SPACING: 0.0625
Info: NONBONDED TABLE SIZE: 705 POINTS
TCL: Running for 1500000 steps
ETITLE: TS BOND ANGLE DIHED IMPRP ELECT VDW BOUNDARY MISC KINETIC TOTAL TEMP POTENTIAL TOTALAVG TEMPAVG PRESSURE GPRESSURE VOLUME PRESSAVG GPRESSAVG
ENERGY: 0 0.3380 5.5173 2.0235 0.0000 -10608.3376 1344.9656 0.0000 0.0000 1804.4224 -7451.0708 307.2848 -9255.4932 -7451.0708 307.2848 -748.2620 -667.9171 30539.0101 -748.2620 -667.9171
ENERGY: 300000 6.2037 6.1908 3.7663 0.0000 -10686.0124 1441.3435 0.0000 0.0000 1778.5938 -7449.9143 302.8863 -9228.5081 -7439.3526 304.4910 59.2601 163.6681 30270.7632 -374.4939 -275.9850
ENERGY: 600000 1.5378 8.6137 1.4625 0.0000 -10737.1013 1504.3878 0.0000 0.0000 1765.7623 -7455.3372 300.7012 -9221.0995 -7457.6112 302.4837 839.9398 871.9541 29951.1072 -96.4530 -27.0365
ENERGY: 900000 4.0265 5.6371 1.8242 0.0000 -10726.8543 1419.9195 0.0000 0.0000 1765.0304 -7530.4166 300.5766 -9295.4470 -7490.1172 300.9939 -621.4470 -529.3830 30747.5334 -133.5524 -64.4640
ENERGY: 1200000 3.7915 6.6553 1.7807 0.0000 -10828.4322 1502.0959 0.0000 0.0000 1724.4887 -7589.6200 293.6725 -9314.1087 -7498.9259 300.3487 351.8324 430.5747 30506.8964 -99.5448 -26.7327
ENERGY: 1500000 1.5247 5.5040 2.4905 0.0000 -10630.9917 1390.6771 0.0000 0.0000 1770.8914 -7459.9040 301.5747 -9230.7954 -7492.9705 300.9899 -367.8713 -327.7707 30564.2215 -77.4122 -3.7255
TCL: Running FEP window   5: Lambda1 0.7999999999999998 Lambda2 0.7499999999999998 [dLambda -0.050000000000000044]
TCL: Setting parameter firsttimestep to 0
TCL: Setting parameter alchLambda to 0.7999999999999998
Info: NONBONDED TABLE R-SQUARED SPACING: 0.0625
Info: NONBONDED TABLE SIZE: 705 POINTS
TCL: Setting parameter alchLambda2 to 0.7499999999999998
Info: NONBONDED TABLE R-SQUARED SPACING: 0.0625
Info: NONBONDED TABLE SIZE: 705 POINTS
TCL: Running for 1500000 steps
ETITLE: TS BOND ANGLE DIHED IMPRP ELECT VDW BOUNDARY MISC KINETIC TOTAL TEMP POTENTIAL TOTALAVG TEMPAVG PRESSURE GPRESSURE VOLUME PRESSAVG GPRESSAVG
ENERGY: 0 1.5247 5.5040 2.4905 0.0000 -10629.7563 1389.4548 0.0000 0.0000 1770.0493 -7460.7330 301.4312 -9230.7823 -7460.7330 301.4312 -435.6093 -350.3241 30564.2215 -435.6093 -350.3241
ENERGY: 300000 2.0482 6.8800 2.9333 0.0000 -10584.6607 1337.8980 0.0000 0.0000 1793.2592 -7441.6418 305.3838 -9234.9011 -7465.6435 299.1335 -797.6542 -785.7036 30712.5009 -308.5809 -259.1423
ENERGY: 600000 3.7673 3.3645 1.4912 0.0000 -10643.0308 1465.9828 0.0000 0.0000 1772.4812 -7395.9438 301.8454 -9168.4250 -7472.6780 299.2456 575.5646 633.0481 30248.3733 -129.0214 -82.0383
ENERGY: 900000 2.0490 4.9478 3.2452 0.0000 -10591.2892 1381.6236 0.0000 0.0000 1753.9997 -7445.4240 298.6981 -9199.4237 -7470.9480 300.4270 -356.3597 -286.3936 30557.6532 -54.3109 -12.4858
ENERGY: 1200000 1.9097 5.1766 7.0694 0.0000 -10734.7292 1464.4142 0.0000 0.0000 1728.1070 -7528.0523 294.2887 -9256.1593 -7474.7142 300.8917 271.7122 341.0990 30222.0512 -17.6627 27.3858
ENERGY: 1500000 2.1413 5.5351 4.7664 0.0000 -10693.6239 1419.7567 0.0000 0.0000 1812.7802 -7448.6442 308.7081 -9261.4244 -7480.7948 300.6439 267.9696 360.2457 29971.6243 29.2159 78.6184
TCL: Running FEP window   6: Lambda1 0.7499999999999998 Lambda2 0.6999999999999997 [dLambda -0.050000000000000044]
TCL: Setting parameter firsttimestep to 0
TCL: Setting parameter alchLambda to 0.7499999999999998
Info: NONBONDED TABLE R-SQUARED SPACING: 0.0625
Info: NONBONDED TABLE SIZE: 705 POINTS
TCL: Setting parameter alchLambda2 to 0.6999999999999997
Info: NONBONDED TABLE R-SQUARED SPACING: 0.0625
Info: NONBONDED TABLE SIZE: 705 POINTS
TCL: Running for 1500000 steps
ETITLE: TS BOND ANGLE DIHED IMPRP ELECT VDW BOUNDARY MISC KINETIC TOTAL TEMP POTENTIAL TOTALAVG TEMPAVG PRESSURE GPRESSURE VOLUME PRESSAVG GPRESSAVG
ENERGY: 0 2.1413 5.5351 4.7664 0.0000 -10692.7722 1419.7805 0.0000 0.0000 1811.8972 -7448.6517 308.5577 -9260.5489 -7448.6517 308.5577 264.7609 353.6542 29971.6243 264.7609 353.6542
ENERGY: 300000 2.9559 5.7936 2.4368 0.0000 -10617.7264 1377.7379 0.0000 0.0000 1731.7987 -7497.0035 294.9173 -9228.8022 -7480.9778 301.8280 -497.8348 -435.5828 30436.8319 -190.5414 -110.0225
ENERGY: 600000 4.1667 6.0910 3.7895 0.0000 -10559.0844 1322.6220 0.0000 0.0000 1733.1026 -7489.3126 295.1394 -9222.4151 -7492.5358 300.1407 -911.9309 -880.4619 30703.0598 -159.2663 -98.4702
ENERGY: 900000 2.9722 6.9172 4.8905 0.0000 -10813.4506 1424.3300 0.0000 0.0000 1777.6104 -7596.7303 302.7189 -9374.3407 -7511.6081 299.1580 -207.4528 -129.0235 30084.4392 -162.0331 -97.4033
ENERGY: 1200000 3.2368 8.7211 2.5259 0.0000 -10660.3294 1388.3279 0.0000 0.0000 1786.0658 -7471.4518 304.1588 -9257.5176 -7509.3007 299.2036 -444.1776 -377.0038 30309.6769 -209.3357 -143.6655
ENERGY: 1500000 1.0939 8.4906 1.6687 0.0000 -10779.9305 1497.0170 0.0000 0.0000 1771.7937 -7499.8666 301.7283 -9271.6603 -7511.6937 299.4181 418.9939 455.3056 30374.2816 -180.1424 -111.9193
TCL: Running FEP window   7: Lambda1 0.6999999999999997 Lambda2 0.6499999999999997 [dLambda -0.050000000000000044]
TCL: Setting parameter firsttimestep to 0
TCL: Setting parameter alchLambda to 0.6999999999999997
Info: NONBONDED TABLE R-SQUARED SPACING: 0.0625
Info: NONBONDED TABLE SIZE: 705 POINTS
TCL: Setting parameter alchLambda2 to 0.6499999999999997
Info: NONBONDED TABLE R-SQUARED SPACING: 0.0625
Info: NONBONDED TABLE SIZE: 705 POINTS
TCL: Running for 1500000 steps
ETITLE: TS BOND ANGLE DIHED IMPRP ELECT VDW BOUNDARY MISC KINETIC TOTAL TEMP POTENTIAL TOTALAVG TEMPAVG PRESSURE GPRESSURE VOLUME PRESSAVG GPRESSAVG
ENERGY: 0 1.0939 8.4906 1.6687 0.0000 -10779.3534 1496.9788 0.0000 0.0000 1770.9287 -7500.1927 301.5810 -9271.1215 -7500.1927 301.5810 359.0470 442.7500 30374.2816 359.0470 442.7500
ENERGY: 300000 2.6487 6.3530 2.9601 0.0000 -10650.0562 1427.7397 0.0000 0.0000 1809.5997 -7400.7551 308.1665 -9210.3548 -7437.5438 302.4167 9.5321 19.4393 30745.0801 38.7501 104.2838
ENERGY: 600000 4.7070 8.6180 1.9974 0.0000 -10708.4562 1492.5487 0.0000 0.0000 1759.1453 -7441.4399 299.5743 -9200.5852 -7423.8895 303.6876 524.9847 480.7793 30164.2101 155.1298 201.0780
ENERGY: 900000 1.8552 2.6349 0.9033 0.0000 -10791.5607 1474.5276 0.0000 0.0000 1738.8121 -7572.8275 296.1117 -9311.6395 -7451.2735 302.1354 113.7379 102.8948 30494.1560 86.5025 124.7599
ENERGY: 1200000 2.8652 4.9281 3.2576 0.0000 -10743.2564 1444.8751 0.0000 0.0000 1704.5908 -7582.7397 290.2840 -9287.3305 -7471.2454 300.8703 -142.3736 -101.1852 30218.3847 71.3225 115.5145
ENERGY: 1500000 2.7700 6.0084 1.6522 0.0000 -10695.7187 1417.7834 0.0000 0.0000 1754.0026 -7513.5021 298.6986 -9267.5047 -7460.0287 301.7108 -423.1033 -298.4555 30435.3526 7.2865 61.3603
TCL: Running FEP window   8: Lambda1 0.6499999999999997 Lambda2 0.5999999999999996 [dLambda -0.050000000000000044]
TCL: Setting parameter firsttimestep to 0
TCL: Setting parameter alchLambda to 0.6499999999999997
Info: NONBONDED TABLE R-SQUARED SPACING: 0.0625
Info: NONBONDED TABLE SIZE: 705 POINTS
TCL: Setting parameter alchLambda2 to 0.5999999999999996
Info: NONBONDED TABLE R-SQUARED SPACING: 0.0625
Info: NONBONDED TABLE SIZE: 705 POINTS
TCL: Running for 1500000 steps
ETITLE: TS BOND ANGLE DIHED IMPRP ELECT VDW BOUNDARY MISC KINETIC TOTAL TEMP POTENTIAL TOTALAVG TEMPAVG PRESSURE GPRESSURE VOLUME PRESSAVG GPRESSAVG
ENERGY: 0 2.7700 6.0084 1.6522 0.0000 -10694.9736 1417.8983 0.0000 0.0000 1753.1300 -7513.5147 298.5500 -9266.6447 -7513.5147 298.5500 -387.1515 -304.4903 30435.3526 -387.1515 -304.4903
ENERGY: 300000 3.0775 9.7852 1.4080 0.0000 -10588.7195 1371.8901 0.0000 0.0000 1752.9554 -7449.6034 298.5202 -9202.5588 -7468.2525 302.3098 -394.8789 -310.9966 30326.7144 -29.0312 40.4068
ENERGY: 600000 2.7016 8.0080 5.2422 0.0000 -10789.1743 1499.6728 0.0000 0.0000 1793.1139 -7480.4357 305.3590 -9273.5496 -7490.2722 301.8849 319.7224 378.2172 30559.8766 -62.2487 11.9343
ENERGY: 900000 1.5324 5.3883 2.0873 0.0000 -10749.8821 1440.2074 0.0000 0.0000 1758.0563 -7542.6105 299.3889 -9300.6668 -7499.3675 300.7447 -57.6454 13.8610 30321.3736 -37.6302 27.8654
ENERGY: 1200000 2.8830 7.8190 2.6812 0.0000 -10582.6523 1349.9782 0.0000 0.0000 1801.4616 -7417.8293 306.7806 -9219.2909 -7495.7247 301.0815 -618.4268 -504.2475 30367.3838 -71.1375 -0.7668
ENERGY: 1500000 2.0102 4.1161 3.9656 0.0000 -10656.4068 1407.4567 0.0000 0.0000 1793.7920 -7445.0662 305.4745 -9238.8582 -7482.1010 301.7227 -55.3321 21.8560 30242.1524 14.4648 84.4408
TCL: Running FEP window   9: Lambda1 0.5999999999999996 Lambda2 0.5499999999999996 [dLambda -0.050000000000000044]
TCL: Setting parameter firsttimestep to 0
TCL: Setting parameter alchLambda to 0.5999999999999996
Info: NONBONDED TABLE R-SQUARED SPACING: 0.0625
Info: NONBONDED TABLE SIZE: 705 POINTS
TCL: Setting parameter alchLambda2 to 0.5499999999999996
Info: NONBONDED TABLE R-SQUARED SPACING: 0.0625
Info: NONBONDED TABLE SIZE: 705 POINTS
TCL: Running for 1500000 steps
ETITLE: TS BOND ANGLE DIHED IMPRP ELECT VDW BOUNDARY MISC KINETIC TOTAL TEMP POTENTIAL TOTALAVG TEMPAVG PRESSURE GPRESSURE VOLUME PRESSAVG GPRESSAVG
ENERGY: 0 2.0102 4.1161 3.9656 0.0000 -10655.8673 1407.7514 0.0000 0.0000 1792.9422 -7445.0817 305.3298 -9238.0240 -7445.0817 305.3298 -63.6026 21.0216 30242.1524 -63.6026 21.0216
ENERGY: 300000 2.7744 9.2244 2.8499 0.0000 -10616.6843 1416.9650 0.0000 0.0000 1769.9565 -7414.9141 301.4154 -9184.8706 -7455.9278 301.9461 -101.4273 -66.7282 30625.3300 -147.9837 -65.0311
ENERGY: 600000 0.9726 7.5570 2.2874 0.0000 -10764.2346 1443.3280 0.0000 0.0000 1759.8234 -7550.2662 299.6898 -9310.0896 -7499.6728 301.2497 -231.7597 -145.7105 30410.8635 -314.2108 -244.5720
ENERGY: 900000 3.0589 3.8293 3.5692 0.0000 -10763.4125 1434.0394 0.0000 0.0000 1752.2103 -7566.7054 298.3934 -9318.9157 -7501.1818 299.9463 -231.1127 -102.6712 30167.5737 -291.0488 -212.9826
ENERGY: 1200000 4.4429 5.6465 2.0186 0.0000 -10716.4784 1426.6260 0.0000 0.0000 1795.9633 -7481.7810 305.8443 -9277.7443 -7497.4873 300.6092 48.7837 133.9103 29800.0794 -278.5189 -205.2752
ENERGY: 1500000 2.0855 5.5968 2.8732 0.0000 -10666.8554 1459.8704 0.0000 0.0000 1769.4296 -7426.9999 301.3257 -9196.4296 -7484.8874 300.5326 439.8130 471.3433 30316.5152 -125.5158 -55.2367
TCL: Running FEP window  10: Lambda1 0.5499999999999996 Lambda2 0.4999999999999996 [dLambda -0.04999999999999999]
TCL: Setting parameter firsttimestep to 0
TCL: Setting parameter alchLambda to 0.5499999999999996
Info: NONBONDED TABLE R-SQUARED SPACING: 0.0625
Info: NONBONDED TABLE SIZE: 705 POINTS
TCL: Setting parameter alchLambda2 to 0.4999999999999996
Info: NONBONDED TABLE R-SQUARED SPACING: 0.0625
Info: NONBONDED TABLE SIZE: 705 POINTS
TCL: Running for 1500000 steps
ETITLE: TS BOND ANGLE DIHED IMPRP ELECT VDW BOUNDARY MISC KINETIC TOTAL TEMP POTENTIAL TOTALAVG TEMPAVG PRESSURE GPRESSURE VOLUME PRESSAVG GPRESSAVG
ENERGY: 0 2.0855 5.5968 2.8732 0.0000 -10666.3398 1460.3768 0.0000 0.0000 1768.5248 -7426.8828 301.1716 -9195.4076 -7426.8828 301.1716 386.5079 471.1475 30316.5152 386.5079 471.1475
ENERGY: 300000 1.4319 6.5708 3.1963 0.0000 -10656.9851 1394.1161 0.0000 0.0000 1748.6384 -7503.0316 297.7851 -9251.6700 -7504.6231 298.5875 -136.1068 -74.1227 29878.6958 -185.4795 -130.2604
ENERGY: 600000 2.2690 7.3439 5.3033 0.0000 -10714.9268 1415.2841 0.0000 0.0000 1761.2683 -7523.4582 299.9359 -9284.7266 -7515.4958 297.4330 -414.5620 -322.3080 30593.5234 -354.5506 -294.9461
ENERGY: 900000 4.0670 5.0143 1.0279 0.0000 -10686.4497 1394.3730 0.0000 0.0000 1774.1834 -7507.7842 302.1353 -9281.9676 -7507.3116 298.1668 -604.0050 -483.5992 30628.4213 -310.9105 -244.3089
ENERGY: 1200000 1.4767 4.5106 2.0309 0.0000 -10735.0705 1406.6706 0.0000 0.0000 1734.2949 -7586.0868 295.3424 -9320.3817 -7514.6793 297.7260 -270.7975 -230.7846 30076.3476 -232.9849 -167.3740
ENERGY: 1500000 1.6784 4.4757 2.1001 0.0000 -10576.5218 1404.2627 0.0000 0.0000 1782.7865 -7381.2184 303.6003 -9164.0049 -7498.0229 298.8397 21.9391 74.0743 30198.1193 -227.4235 -167.1879
TCL: Running FEP window  11: Lambda1 0.4999999999999996 Lambda2 0.4499999999999996 [dLambda -0.04999999999999999]
TCL: Setting parameter firsttimestep to 0
TCL: Setting parameter alchLambda to 0.4999999999999996
Info: NONBONDED TABLE R-SQUARED SPACING: 0.0625
Info: NONBONDED TABLE SIZE: 705 POINTS
TCL: Setting parameter alchLambda2 to 0.4499999999999996
Info: NONBONDED TABLE R-SQUARED SPACING: 0.0625
Info: NONBONDED TABLE SIZE: 705 POINTS
TCL: Running for 1500000 steps
ETITLE: TS BOND ANGLE DIHED IMPRP ELECT VDW BOUNDARY MISC KINETIC TOTAL TEMP POTENTIAL TOTALAVG TEMPAVG PRESSURE GPRESSURE VOLUME PRESSAVG GPRESSAVG
ENERGY: 0 1.6784 4.4757 2.1001 0.0000 -10576.3068 1404.6151 0.0000 0.0000 1781.9174 -7381.5202 303.4523 -9163.4376 -7381.5202 303.4523 -8.3586 68.4256 30198.1193 -8.3586 68.4256
ENERGY: 300000 1.7271 4.4671 3.1799 0.0000 -10781.5328 1434.8684 0.0000 0.0000 1755.3687 -7581.9216 298.9312 -9337.2903 -7492.5438 303.0064 -128.7365 -83.8130 29971.2395 121.6366 178.6915
ENERGY: 600000 2.2571 7.2092 2.1741 0.0000 -10737.4011 1454.5297 0.0000 0.0000 1760.9116 -7510.3195 299.8751 -9271.2311 -7495.5537 301.5661 208.0166 249.1780 30277.4031 -48.1915 9.1976
ENERGY: 900000 3.2159 4.6401 2.5241 0.0000 -10636.7164 1369.7702 0.0000 0.0000 1763.7789 -7492.7871 300.3634 -9256.5660 -7495.3055 300.5135 -611.4985 -603.7212 30698.5504 -201.1691 -144.9068
ENERGY: 1200000 3.9334 2.7031 3.6467 0.0000 -10656.1690 1403.8592 0.0000 0.0000 1761.5002 -7480.5264 299.9754 -9242.0266 -7487.9004 300.0181 -415.6996 -355.3661 30632.4505 -260.4042 -195.4225
ENERGY: 1500000 3.9953 5.5671 1.4763 0.0000 -10684.1778 1415.4480 0.0000 0.0000 1740.0670 -7517.6240 296.3254 -9257.6911 -7492.2221 299.4431 -7.8755 -13.5644 30180.2132 -202.1826 -144.2182
TCL: Running FEP window  12: Lambda1 0.4499999999999996 Lambda2 0.39999999999999963 [dLambda -0.04999999999999999]
TCL: Setting parameter firsttimestep to 0
TCL: Setting parameter alchLambda to 0.4499999999999996
Info: NONBONDED TABLE R-SQUARED SPACING: 0.0625
Info: NONBONDED TABLE SIZE: 705 POINTS
TCL: Setting parameter alchLambda2 to 0.39999999999999963
Info: NONBONDED TABLE R-SQUARED SPACING: 0.0625
Info: NONBONDED TABLE SIZE: 705 POINTS
TCL: Running for 1500000 steps
ETITLE: TS BOND ANGLE DIHED IMPRP ELECT VDW BOUNDARY MISC KINETIC TOTAL TEMP POTENTIAL TOTALAVG TEMPAVG PRESSURE GPRESSURE VOLUME PRESSAVG GPRESSAVG
ENERGY: 0 3.9953 5.5671 1.4763 0.0000 -10684.1762 1415.5663 0.0000 0.0000 1739.2440 -7518.3271 296.1852 -9257.5711 -7518.3271 296.1852 -115.9550 -18.9006 30180.2132 -115.9550 -18.9006
ENERGY: 300000 4.6959 5.5441 3.7324 0.0000 -10819.5373 1474.2129 0.0000 0.0000 1803.0778 -7528.2742 307.0558 -9331.3520 -7521.8638 299.2511 437.6155 535.0815 29681.8243 155.1840 233.7853
ENERGY: 600000 4.9217 8.6662 2.0468 0.0000 -10533.3801 1335.7768 0.0000 0.0000 1761.9733 -7419.9952 300.0559 -9181.9685 -7500.7680 299.7028 -661.6410 -691.2672 30426.9486 80.9172 146.3633
ENERGY: 900000 1.7537 8.5791 2.8719 0.0000 -10809.6741 1468.7866 0.0000 0.0000 1782.9351 -7544.7476 303.6256 -9327.6828 -7514.4911 300.2751 48.2835 122.6281 30092.7418 65.2268 125.2714
ENERGY: 1200000 2.0118 4.2420 2.9437 0.0000 -10723.5199 1474.9058 0.0000 0.0000 1766.6173 -7472.7994 300.8468 -9239.4166 -7512.1918 300.4436 729.3356 749.9029 30065.1947 151.2354 207.8324
ENERGY: 1500000 2.6052 6.3139 1.2641 0.0000 -10696.2646 1421.9536 0.0000 0.0000 1742.9089 -7521.2188 296.8094 -9264.1277 -7503.9023 300.1503 -353.7022 -287.6156 30815.6538 100.3854 156.9346
TCL: Running FEP window  13: Lambda1 0.39999999999999963 Lambda2 0.34999999999999964 [dLambda -0.04999999999999999]
TCL: Setting parameter firsttimestep to 0
TCL: Setting parameter alchLambda to 0.39999999999999963
Info: NONBONDED TABLE R-SQUARED SPACING: 0.0625
Info: NONBONDED TABLE SIZE: 705 POINTS
TCL: Setting parameter alchLambda2 to 0.34999999999999964
Info: NONBONDED TABLE R-SQUARED SPACING: 0.0625
Info: NONBONDED TABLE SIZE: 705 POINTS
TCL: Running for 1500000 steps
ETITLE: TS BOND ANGLE DIHED IMPRP ELECT VDW BOUNDARY MISC KINETIC TOTAL TEMP POTENTIAL TOTALAVG TEMPAVG PRESSURE GPRESSURE VOLUME PRESSAVG GPRESSAVG
ENERGY: 0 2.6052 6.3139 1.2641 0.0000 -10696.2651 1422.0577 0.0000 0.0000 1742.0528 -7521.9714 296.6636 -9264.0242 -7521.9714 296.6636 -376.5454 -291.0344 30815.6538 -376.5454 -291.0344
ENERGY: 300000 0.8228 3.8587 2.1225 0.0000 -10737.7787 1476.4044 0.0000 0.0000 1761.2814 -7493.2889 299.9381 -9254.5703 -7515.2266 297.9994 95.8955 197.5935 30692.8680 -320.5670 -256.6844
ENERGY: 600000 1.2434 4.1669 3.4349 0.0000 -10710.2711 1435.5436 0.0000 0.0000 1750.8761 -7515.0062 298.1661 -9265.8823 -7493.0555 298.4365 -240.0676 -194.1058 30752.5228 -343.9741 -293.7841
ENERGY: 900000 3.3476 6.1661 2.7827 0.0000 -10618.7125 1349.2200 0.0000 0.0000 1743.2652 -7513.9309 296.8700 -9257.1962 -7497.1785 297.3813 -590.5370 -572.5198 30299.9790 -212.0833 -155.6274
ENERGY: 1200000 2.3404 5.1309 3.8311 0.0000 -10662.8930 1433.3069 0.0000 0.0000 1696.7161 -7521.5675 288.9429 -9218.2836 -7497.2535 297.2575 -134.0177 -89.0719 30366.6889 -190.3210 -138.2261
ENERGY: 1500000 3.1181 7.3763 4.0457 0.0000 -10871.8489 1497.9888 0.0000 0.0000 1743.3765 -7615.9435 296.8890 -9359.3200 -7504.4815 297.9139 66.9326 127.4124 30029.2498 -128.2844 -70.1295
TCL: Running FEP window  14: Lambda1 0.34999999999999964 Lambda2 0.29999999999999966 [dLambda -0.04999999999999999]
TCL: Setting parameter firsttimestep to 0
TCL: Setting parameter alchLambda to 0.34999999999999964
Info: NONBONDED TABLE R-SQUARED SPACING: 0.0625
Info: NONBONDED TABLE SIZE: 705 POINTS
TCL: Setting parameter alchLambda2 to 0.29999999999999966
Info: NONBONDED TABLE R-SQUARED SPACING: 0.0625
Info: NONBONDED TABLE SIZE: 705 POINTS
TCL: Running for 1500000 steps
ETITLE: TS BOND ANGLE DIHED IMPRP ELECT VDW BOUNDARY MISC KINETIC TOTAL TEMP POTENTIAL TOTALAVG TEMPAVG PRESSURE GPRESSURE VOLUME PRESSAVG GPRESSAVG
ENERGY: 0 3.1181 7.3763 4.0457 0.0000 -10871.8499 1497.7944 0.0000 0.0000 1742.5187 -7616.9966 296.7429 -9359.5153 -7616.9966 296.7429 28.8272 123.2327 30029.2498 28.8272 123.2327
ENERGY: 300000 2.0339 6.8900 1.2474 0.0000 -10579.4550 1385.5433 0.0000 0.0000 1746.7326 -7437.0078 297.4605 -9183.7403 -7529.2440 300.2445 -157.1605 -74.7674 30162.2645 -160.6692 -91.7294
ENERGY: 600000 2.3108 3.5451 4.6885 0.0000 -10797.4068 1499.7117 0.0000 0.0000 1752.5964 -7534.5544 298.4591 -9287.1508 -7515.8450 300.6463 261.5044 278.5245 30473.2883 121.0457 168.7695
ENERGY: 900000 1.9334 4.1235 3.0887 0.0000 -10709.5400 1489.4816 0.0000 0.0000 1735.0530 -7475.8599 295.4715 -9210.9129 -7513.9683 299.4727 56.1708 136.7341 31059.5253 -11.1081 40.2579
ENERGY: 1200000 1.4118 5.6470 2.1012 0.0000 -10563.2715 1316.6312 0.0000 0.0000 1777.9472 -7459.5330 302.7762 -9237.4802 -7518.9008 299.5938 -1230.4908 -1145.0572 31056.1170 -62.4899 -8.8370
ENERGY: 1500000 1.1600 5.1867 3.7386 0.0000 -10611.9464 1372.5267 0.0000 0.0000 1771.3451 -7457.9894 301.6519 -9229.3344 -7510.0175 299.8186 -443.7854 -388.8840 30491.7253 -106.8244 -53.8587
TCL: Running FEP window  15: Lambda1 0.29999999999999966 Lambda2 0.24999999999999967 [dLambda -0.04999999999999999]
TCL: Setting parameter firsttimestep to 0
TCL: Setting parameter alchLambda to 0.29999999999999966
Info: NONBONDED TABLE R-SQUARED SPACING: 0.0625
Info: NONBONDED TABLE SIZE: 705 POINTS
TCL: Setting parameter alchLambda2 to 0.24999999999999967
Info: NONBONDED TABLE R-SQUARED SPACING: 0.0625
Info: NONBONDED TABLE SIZE: 705 POINTS
TCL: Running for 1500000 steps
ETITLE: TS BOND ANGLE DIHED IMPRP ELECT VDW BOUNDARY MISC KINETIC TOTAL TEMP POTENTIAL TOTALAVG TEMPAVG PRESSURE GPRESSURE VOLUME PRESSAVG GPRESSAVG
ENERGY: 0 1.1600 5.1867 3.7386 0.0000 -10611.9461 1373.0956 0.0000 0.0000 1770.4626 -7458.3026 301.5016 -9228.7652 -7458.3026 301.5016 -480.7401 -389.3333 30491.7253 -480.7401 -389.3333
ENERGY: 300000 1.3484 4.6957 1.6416 0.0000 -10568.7891 1292.4780 0.0000 0.0000 1753.4466 -7515.1787 298.6039 -9268.6253 -7460.4848 301.6841 -1140.1331 -1054.3298 30159.8420 -631.4376 -548.2703
ENERGY: 600000 1.7469 5.0979 2.0338 0.0000 -10621.9783 1361.9675 0.0000 0.0000 1727.6778 -7523.4544 294.2156 -9251.1322 -7486.8560 299.2200 -869.0375 -718.2875 30299.1462 -580.6972 -496.4826
ENERGY: 900000 1.7982 4.7061 1.6753 0.0000 -10823.2007 1524.1675 0.0000 0.0000 1747.3446 -7543.5090 297.5647 -9290.8536 -7498.6723 299.1842 441.7065 482.9193 30370.2627 -398.5273 -326.1121
ENERGY: 1200000 1.6701 4.5799 1.5075 0.0000 -10774.7861 1444.9556 0.0000 0.0000 1797.9096 -7524.1633 306.1757 -9322.0730 -7507.5796 299.2277 -326.5350 -194.0223 30353.2459 -285.9942 -213.4342
ENERGY: 1500000 2.1617 3.1636 2.5297 0.0000 -10837.7091 1523.9031 0.0000 0.0000 1740.8155 -7565.1356 296.4529 -9305.9511 -7507.9589 300.0017 443.8852 483.5316 30380.3789 -101.6251 -32.4936
TCL: Running FEP window  16: Lambda1 0.24999999999999967 Lambda2 0.19999999999999968 [dLambda -0.04999999999999999]
TCL: Setting parameter firsttimestep to 0
TCL: Setting parameter alchLambda to 0.24999999999999967
Info: NONBONDED TABLE R-SQUARED SPACING: 0.0625
Info: NONBONDED TABLE SIZE: 705 POINTS
TCL: Setting parameter alchLambda2 to 0.19999999999999968
Info: NONBONDED TABLE R-SQUARED SPACING: 0.0625
Info: NONBONDED TABLE SIZE: 705 POINTS
TCL: Running for 1500000 steps
ETITLE: TS BOND ANGLE DIHED IMPRP ELECT VDW BOUNDARY MISC KINETIC TOTAL TEMP POTENTIAL TOTALAVG TEMPAVG PRESSURE GPRESSURE VOLUME PRESSAVG GPRESSAVG
ENERGY: 0 2.1617 3.1636 2.5297 0.0000 -10837.7094 1524.1117 0.0000 0.0000 1739.9465 -7565.7962 296.3049 -9305.7427 -7565.7962 296.3049 398.1274 479.8057 30380.3789 398.1274 479.8057
ENERGY: 300000 2.5811 3.4786 2.1646 0.0000 -10557.6245 1353.1640 0.0000 0.0000 1737.6281 -7458.6081 295.9101 -9196.2362 -7497.4456 295.1479 -988.4780 -907.1063 31147.0928 -297.7109 -252.6945
ENERGY: 600000 5.6840 4.6529 1.5823 0.0000 -10651.6188 1435.7504 0.0000 0.0000 1739.6323 -7464.3170 296.2514 -9203.9492 -7500.5744 297.2757 277.7322 284.9767 30237.7038 -180.6088 -145.9755
ENERGY: 900000 3.4945 3.7095 3.7015 0.0000 -10553.9934 1317.2609 0.0000 0.0000 1716.6949 -7509.1321 292.3452 -9225.8271 -7510.8879 296.2817 -695.7552 -716.5109 30253.7503 -57.7358 -30.0356
ENERGY: 1200000 2.2529 4.7802 3.4980 0.0000 -10789.3624 1544.5072 0.0000 0.0000 1775.6635 -7458.6605 302.3873 -9234.3240 -7501.7136 297.5585 1121.5091 1198.3071 29925.4146 60.4540 88.8313
ENERGY: 1500000 1.9614 4.1507 2.2443 0.0000 -10686.8343 1407.7410 0.0000 0.0000 1729.2990 -7541.4380 294.4917 -9270.7370 -7497.4855 297.9383 -258.6934 -161.9648 30144.3520 62.8554 95.2131
TCL: Running FEP window  17: Lambda1 0.19999999999999968 Lambda2 0.1499999999999997 [dLambda -0.04999999999999999]
TCL: Setting parameter firsttimestep to 0
TCL: Setting parameter alchLambda to 0.19999999999999968
Info: NONBONDED TABLE R-SQUARED SPACING: 0.0625
Info: NONBONDED TABLE SIZE: 705 POINTS
TCL: Setting parameter alchLambda2 to 0.1499999999999997
Info: NONBONDED TABLE R-SQUARED SPACING: 0.0625
Info: NONBONDED TABLE SIZE: 705 POINTS
TCL: Running for 1500000 steps
ETITLE: TS BOND ANGLE DIHED IMPRP ELECT VDW BOUNDARY MISC KINETIC TOTAL TEMP POTENTIAL TOTALAVG TEMPAVG PRESSURE GPRESSURE VOLUME PRESSAVG GPRESSAVG
ENERGY: 0 1.9614 4.1507 2.2443 0.0000 -10686.8343 1408.0600 0.0000 0.0000 1728.4339 -7541.9840 294.3443 -9270.4179 -7541.9840 294.3443 -234.7667 -162.0484 30144.3520 -234.7667 -162.0484
ENERGY: 300000 3.7183 6.2841 2.7042 0.0000 -10703.2137 1423.1084 0.0000 0.0000 1769.9498 -7497.4489 301.4143 -9267.3988 -7485.3501 304.0621 -91.3947 -59.8276 30043.2842 30.5400 70.6268
ENERGY: 600000 4.6687 7.0251 1.6194 0.0000 -10800.7659 1499.8653 0.0000 0.0000 1769.8869 -7517.7004 301.4036 -9287.5873 -7486.8045 302.7872 441.7419 453.1088 30253.4096 -87.5565 -33.7284
ENERGY: 900000 5.2051 3.6714 5.1334 0.0000 -10742.4924 1439.9930 0.0000 0.0000 1759.8022 -7528.6873 299.6862 -9288.4895 -7490.0899 302.6947 -443.1825 -409.1539 30508.2304 -103.8041 -51.6158
ENERGY: 1200000 2.2646 5.2165 3.4345 0.0000 -10741.6852 1465.1798 0.0000 0.0000 1777.3112 -7488.2786 302.6679 -9265.5898 -7487.4397 302.5738 124.4785 191.5471 30196.3253 -170.1649 -120.4295
ENERGY: 1500000 2.7437 2.6998 3.0886 0.0000 -10817.8883 1494.0579 0.0000 0.0000 1702.1862 -7613.1121 289.8745 -9315.2983 -7496.2452 302.0363 240.6647 245.1246 30083.8326 -102.7453 -56.0632
TCL: Running FEP window  18: Lambda1 0.1499999999999997 Lambda2 0.09999999999999969 [dLambda -0.05 ]
TCL: Setting parameter firsttimestep to 0
TCL: Setting parameter alchLambda to 0.1499999999999997
Info: NONBONDED TABLE R-SQUARED SPACING: 0.0625
Info: NONBONDED TABLE SIZE: 705 POINTS
TCL: Setting parameter alchLambda2 to 0.09999999999999969
Info: NONBONDED TABLE R-SQUARED SPACING: 0.0625
Info: NONBONDED TABLE SIZE: 705 POINTS
TCL: Running for 1500000 steps
ETITLE: TS BOND ANGLE DIHED IMPRP ELECT VDW BOUNDARY MISC KINETIC TOTAL TEMP POTENTIAL TOTALAVG TEMPAVG PRESSURE GPRESSURE VOLUME PRESSAVG GPRESSAVG
ENERGY: 0 2.7437 2.6998 3.0886 0.0000 -10817.8870 1493.8371 0.0000 0.0000 1701.3184 -7614.1993 289.7267 -9315.5177 -7614.1993 289.7267 156.0128 241.3267 30083.8326 156.0128 241.3267
ENERGY: 300000 4.0351 6.3739 2.3481 0.0000 -10491.2909 1322.2478 0.0000 0.0000 1737.6626 -7418.6234 295.9159 -9156.2860 -7503.7201 297.1052 -836.8199 -804.0930 30518.7411 -48.7442 20.9311
ENERGY: 600000 4.7257 3.3904 1.6994 0.0000 -10848.3394 1573.3593 0.0000 0.0000 1773.0671 -7492.0975 301.9452 -9265.1647 -7488.2327 300.2937 1058.2131 1099.2757 29825.8392 188.1263 252.2280
ENERGY: 900000 5.6928 9.2817 4.7620 0.0000 -10630.5069 1396.2617 0.0000 0.0000 1818.8434 -7395.6652 309.7407 -9214.5086 -7481.7193 300.5493 -548.5105 -528.5871 30463.6731 47.4504 109.5265
ENERGY: 1200000 2.5490 2.3792 4.0827 0.0000 -10591.3143 1352.5257 0.0000 0.0000 1727.1970 -7502.5807 294.1337 -9229.7777 -7480.0659 300.6616 -959.3873 -936.8165 30952.3952 111.8332 165.5899
ENERGY: 1500000 2.0012 4.3380 3.2218 0.0000 -10754.7267 1465.9286 0.0000 0.0000 1775.0668 -7504.1703 302.2857 -9279.2371 -7485.0423 300.6512 257.2879 282.6200 30103.9206 209.3378 252.3217
TCL: Running FEP window  19: Lambda1 0.09999999999999969 Lambda2 0.049999999999999684 [dLambda -0.05 ]
TCL: Setting parameter firsttimestep to 0
TCL: Setting parameter alchLambda to 0.09999999999999969
Info: NONBONDED TABLE R-SQUARED SPACING: 0.0625
Info: NONBONDED TABLE SIZE: 705 POINTS
TCL: Setting parameter alchLambda2 to 0.049999999999999684
Info: NONBONDED TABLE R-SQUARED SPACING: 0.0625
Info: NONBONDED TABLE SIZE: 705 POINTS
TCL: Running for 1500000 steps
ETITLE: TS BOND ANGLE DIHED IMPRP ELECT VDW BOUNDARY MISC KINETIC TOTAL TEMP POTENTIAL TOTALAVG TEMPAVG PRESSURE GPRESSURE VOLUME PRESSAVG GPRESSAVG
ENERGY: 0 2.0012 4.3380 3.2218 0.0000 -10754.7273 1466.2768 0.0000 0.0000 1774.2307 -7504.6588 302.1433 -9278.8894 -7504.6588 302.1433 201.2753 281.0920 30103.9206 201.2753 281.0920
ENERGY: 300000 2.0297 3.3528 2.1589 0.0000 -10860.7798 1508.2164 0.0000 0.0000 1794.8401 -7550.1819 305.6530 -9345.0220 -7501.0009 304.1533 173.0967 251.9709 30315.3152 89.6830 173.4476
ENERGY: 600000 1.5981 6.1709 2.6297 0.0000 -10798.6699 1493.2430 0.0000 0.0000 1745.0993 -7549.9288 297.1824 -9295.0281 -7524.0064 302.7041 133.2931 210.9133 30449.7207 95.5562 169.8435
ENERGY: 900000 2.9031 2.9779 1.5774 0.0000 -10612.5588 1378.5898 0.0000 0.0000 1752.7607 -7473.7499 298.4871 -9226.5106 -7521.6356 300.5424 -684.6068 -603.9728 30822.3182 -40.3246 24.8289
ENERGY: 1200000 2.7012 7.5130 2.7078 0.0000 -10759.8300 1425.3865 0.0000 0.0000 1788.0282 -7533.4933 304.4930 -9321.5214 -7523.8660 300.1274 -196.6027 -136.9749 29903.2817 -79.6078 -15.6769
ENERGY: 1500000 2.7815 5.6806 1.9178 0.0000 -10597.6527 1312.2922 0.0000 0.0000 1731.9136 -7543.0669 294.9369 -9274.9806 -7526.6569 298.4652 -1324.5587 -1334.5518 30687.2720 -217.3362 -156.2790
TCL: Running FEP window  20: Lambda1 0.049999999999999684 Lambda2 0.0    [dLambda -0.049999999999999684]
TCL: Setting parameter firsttimestep to 0
TCL: Setting parameter alchLambda to 0.049999999999999684
Info: NONBONDED TABLE R-SQUARED SPACING: 0.0625
Info: NONBONDED TABLE SIZE: 705 POINTS
TCL: Setting parameter alchLambda2 to 0.0
Info: NONBONDED TABLE R-SQUARED SPACING: 0.0625
Info: NONBONDED TABLE SIZE: 705 POINTS
TCL: Running for 1500000 steps
ETITLE: TS BOND ANGLE DIHED IMPRP ELECT VDW BOUNDARY MISC KINETIC TOTAL TEMP POTENTIAL TOTALAVG TEMPAVG PRESSURE GPRESSURE VOLUME PRESSAVG GPRESSAVG
ENERGY: 0 2.7815 5.6806 1.9178 0.0000 -10597.6514 1312.2276 0.0000 0.0000 1731.0618 -7543.9821 294.7918 -9275.0439 -7543.9821 294.7918 -1416.6798 -1336.8411 30687.2720 -1416.6798 -1336.8411
ENERGY: 300000 2.5562 8.4008 1.9926 0.0000 -10691.2929 1445.0795 0.0000 0.0000 1812.3780 -7420.8857 308.6396 -9233.2637 -7495.1466 302.2563 288.1746 355.5223 29876.5807 -204.1928 -139.7971
ENERGY: 600000 3.4505 7.6166 2.7004 0.0000 -10565.4372 1392.9839 0.0000 0.0000 1748.1740 -7410.5118 297.7060 -9158.6858 -7473.9744 303.3227 -142.8898 -97.9527 30280.2602 -298.3232 -233.6752
ENERGY: 900000 0.6537 6.7111 2.2727 0.0000 -10616.9436 1414.1529 0.0000 0.0000 1768.2655 -7424.8877 301.1275 -9193.1533 -7479.5940 302.9236 -25.0485 20.8892 30224.9979 -156.9620 -95.3854
ENERGY: 1200000 2.0796 4.6716 2.9475 0.0000 -10780.0440 1478.2433 0.0000 0.0000 1709.8816 -7582.2204 291.1850 -9292.1021 -7485.7713 302.3844 92.4426 201.2082 30160.9011 -130.3327 -60.4451
ENERGY: 1500000 2.1327 3.5911 3.8173 0.0000 -10732.6738 1438.7409 0.0000 0.0000 1786.3740 -7498.0178 304.2113 -9284.3918 -7492.8513 301.4701 -49.7286 -5.7390 30049.4165 -88.8775 -25.3810
TCL: Exiting due to exit command.
