Info: SIMULATION PARAMETERS:
Info: TIMESTEP               2
Info: NUMBER OF STEPS        0
Info: STEPS PER CYCLE        10
Info: PERIODIC CELL BASIS 1  34.1852 0 0
Info: PERIODIC CELL BASIS 2  0 29.997 0
Info: PERIODIC CELL BASIS 3  0 0 29.9178
Info: PERIODIC CELL CENTER   0 0 0
Info: WRAPPING WATERS AROUND PERIODIC BOUNDARIES ON OUTPUT.
Info: WRAPPING ALL CLUSTERS AROUND PERIODIC BOUNDARIES ON OUTPUT.
Info: FIRST LDB TIMESTEP     50
Info: LAST LDB TIMESTEP     -1
Info: HOM BACKGROUND SCALING 1
Info: PME BACKGROUND SCALING 1
Info: MIN ATOMS PER PATCH    40
Info: EMPTY PATCH LOAD       40 ATOMS
Info: VELOCITY FILE          mobley_7142697_equil.vel
Info: CENTER OF MASS MOVING INITIALLY? NO
Info: DIELECTRIC             1
Info: EXCLUDE                SCALED ONE-FOUR
Info: 1-4 ELECTROSTATICS SCALED BY 0.833333
Info: MODIFIED 1-4 VDW PARAMETERS WILL BE USED
Info: DCD FILENAME           mobley_7142697_prod.dcd
Info: DCD FREQUENCY          100000
Info: DCD FIRST STEP         100000
Info: DCD FILE WILL CONTAIN UNIT CELL DATA
Info: XST FILENAME           mobley_7142697_prod.xst
Info: XST FREQUENCY          100000
Info: NO VELOCITY DCD OUTPUT
Info: NO FORCE DCD OUTPUT
Info: OUTPUT FILENAME        mobley_7142697_prod
Info: BINARY OUTPUT FILES WILL BE USED
Info: RESTART FILENAME       mobley_7142697_prod.restart
Info: RESTART FREQUENCY      100000
Info: BINARY RESTART FILES WILL BE USED
Info: CUTOFF                 9
Info: PAIRLIST DISTANCE      11
Info: PAIRLIST SHRINK RATE   0.01
Info: PAIRLIST GROW RATE     0.01
Info: PAIRLIST TRIGGER       0.3
Info: PAIRLISTS PER CYCLE    2
Info: PAIRLISTS ENABLED
Info: MARGIN                 2
Info: HYDROGEN GROUP CUTOFF  2.5
Info: PATCH DIMENSION        15.5
Info: ENERGY OUTPUT STEPS    100000
Info: ENERGY EVALUATION STEPS    100000
Info: OUTPUT ENERGY PRECISION 4
Info: CROSSTERM ENERGY INCLUDED IN DIHEDRAL
Info: TIMING OUTPUT STEPS    1000000
Info: PRESSURE OUTPUT STEPS  100000
Info: ALCHEMICAL FEP ON
Info: FEP CURRENT LAMBDA VALUE     1
Info: FEP COMPARISON LAMBDA VALUE  0.95
Info: FEP INTRA-ALCHEMICAL NON-BONDED INTERACTIONS WILL BE RETAINED
Info: FEP INTRA-ALCHEMICAL BONDED INTERACTIONS WILL BE RETAINED
Info: FEP VDW SHIFTING COEFFICIENT 5
Info: FEP ELEC. ACTIVE FOR ANNIHILATED PARTICLES BETWEEN LAMBDA = 0 AND LAMBDA = 0.5
Info: FEP ELEC. ACTIVE FOR EXNIHILATED PARTICLES BETWEEN LAMBDA = 0.5 AND LAMBDA = 1
Info: FEP VDW ACTIVE FOR ANNIHILATED PARTICLES BETWEEN LAMBDA = 0 AND LAMBDA = 1
Info: FEP VDW ACTIVE FOR EXNIHILATED PARTICLES BETWEEN LAMBDA = 0 AND LAMBDA = 1
Info: FEP BOND ACTIVE FOR ANNIHILATED PARTICLES BETWEEN LAMBDA = 1 AND LAMBDA = 1
Info: FEP BOND ACTIVE FOR EXNIHILATED PARTICLES BETWEEN LAMBDA = 0 AND LAMBDA = 0
Info: LANGEVIN DYNAMICS ACTIVE
Info: LANGEVIN TEMPERATURE   300
Info: LANGEVIN USING BBK INTEGRATOR
Info: LANGEVIN DAMPING COEFFICIENT IS 1 INVERSE PS
Info: LANGEVIN DYNAMICS APPLIED TO HYDROGENS
Info: LANGEVIN PISTON PRESSURE CONTROL ACTIVE
Info:        TARGET PRESSURE IS 1.01325 BAR
Info:     OSCILLATION PERIOD IS 50 FS
Info:             DECAY TIME IS 25 FS
Info:     PISTON TEMPERATURE IS 300 K
Info:       PRESSURE CONTROL IS GROUP-BASED
Info:    INITIAL STRAIN RATE IS -0.000112123 -0.000112123 -0.000112123
Info:       CELL FLUCTUATION IS ISOTROPIC
Info: PARTICLE MESH EWALD (PME) ACTIVE
Info: PME TOLERANCE               1e-06
Info: PME EWALD COEFFICIENT       0.348832
Info: PME INTERPOLATION ORDER     4
Info: PME GRID DIMENSIONS         36 32 32
Info: PME MAXIMUM GRID SPACING    1
Info: PME CALCULATION WILL BE PERFORMED ON GPU
Info: FULL ELECTROSTATIC EVALUATION FREQUENCY      2
Info: USING VERLET I (r-RESPA) MTS SCHEME.
Info: C1 SPLITTING OF LONG RANGE ELECTROSTATICS
Info: PLACING ATOMS IN PATCHES BY HYDROGEN GROUPS
Info: RIGID BONDS TO HYDROGEN : ALL
Info:         ERROR TOLERANCE : 1e-08
Info:          MAX ITERATIONS : 100
Info: RIGID WATER USING SETTLE ALGORITHM
Info: RANDOM NUMBER SEED     1743986014
Info: USE HYDROGEN BONDS?    NO
Info: Using AMBER format force field!
Info: AMBER PARM FILE        mobley_7142697.prmtop
Info: COORDINATE PDB         mobley_7142697.pdb
Info: Exclusions will be read from PARM file!
Info: SCNB (VDW SCALING)     2
Info: USING ARITHMETIC MEAN TO COMBINE L-J SIGMA PARAMETERS
Info: BINARY COORDINATES     mobley_7142697_equil.coor
Info: SUMMARY OF PARAMETERS:
Info: 7 BONDS
Info: 9 ANGLES
Info:   9 HARMONIC
Info:   0 COSINE-BASED
Info: 7 DIHEDRAL
Info: 0 IMPROPER
Info: 0 CROSSTERM
Info: 0 VDW
Info: 28 VDW_PAIRS
Info: 0 NBTHOLE_PAIRS
Info: To read alchdata from file: mobley_7142697.pdb
Info: To read alchflag data from column: 5
Info: STRUCTURE SUMMARY:
Info: 2998 ATOMS
Info: 2997 BONDS
Info: 33 ANGLES
Info: 46 DIHEDRALS
Info: 0 IMPROPERS
Info: 0 CROSSTERMS
Info: 3072 EXCLUSIONS
Info: 2992 RIGID BONDS
Info: ALCH: 0 ATOMS TO DISAPPEAR IN FINAL STATE
Info: ALCH: 19 ATOMS TO APPEAR IN FINAL STATE
Info: 6002 DEGREES OF FREEDOM
Info: 999 HYDROGEN GROUPS
Info: 4 ATOMS IN LARGEST HYDROGEN GROUP
Info: 999 MIGRATION GROUPS
Info: 4 ATOMS IN LARGEST MIGRATION GROUP
Info: TOTAL MASS = 17977.1 amu
Info: TOTAL CHARGE = -0.000300042 e
Info: MASS DENSITY = 0.973043 g/cm^3
Info: ATOM DENSITY = 0.0977206 atoms/A^3
Info: ADDED 0 IMPLICIT EXCLUSIONS
Info: NONBONDED TABLE R-SQUARED SPACING: 0.0625
Info: NONBONDED TABLE SIZE: 705 POINTS
Info: REMOVING COM VELOCITY -0.0341765 0.196784 -0.0728255
Info: Use 3D box decompostion in PME FFT.
Info: Updated CUDA force table with 4096 elements.
Info: Updated CUDA LJ table with 7 x 7 elements.
Info: Found 22 unique exclusion lists needing 60 bytes
TCL: Running for 1500000 steps
ETITLE: TS BOND ANGLE DIHED IMPRP ELECT VDW BOUNDARY MISC KINETIC TOTAL TEMP POTENTIAL TOTALAVG TEMPAVG PRESSURE GPRESSURE VOLUME PRESSAVG GPRESSAVG
ENERGY: 0 2.1693 11.0188 3.3097 0.0000 -10898.4098 1459.4039 0.0000 0.0000 1774.0917 -7648.4164 297.4887 -9422.5081 -7648.4164 297.4887 61.2119 133.7010 30679.3113 61.2119 133.7010
ENERGY: 300000 2.3215 9.0091 1.2698 0.0000 -10874.0403 1443.9441 0.0000 0.0000 1804.9688 -7612.5271 302.6663 -9417.4959 -7632.2226 298.1613 -227.9064 -144.2093 30763.0644 -96.9521 -34.3981
ENERGY: 600000 1.2562 11.1026 4.2881 0.0000 -10862.3599 1487.7948 0.0000 0.0000 1784.0055 -7573.9128 299.1511 -9357.9183 -7620.4855 297.5139 336.6660 339.4205 30776.0919 -95.6270 -45.5202
ENERGY: 900000 1.3201 9.7956 2.2087 0.0000 -10867.9086 1520.9582 0.0000 0.0000 1752.6523 -7580.9737 293.8936 -9333.6260 -7612.9951 298.1718 600.4145 660.8632 30612.2086 120.3870 170.8370
ENERGY: 1200000 0.8832 7.2785 1.4137 0.0000 -10960.0246 1472.9407 0.0000 0.0000 1797.1685 -7680.3400 301.3583 -9477.5085 -7608.1169 299.3203 101.2032 99.7523 30486.6318 -43.0892 6.3657
ENERGY: 1500000 1.2498 9.5879 3.4066 0.0000 -10923.0146 1518.6578 0.0000 0.0000 1761.7155 -7628.3969 295.4134 -9390.1124 -7614.4087 298.9976 611.5132 566.7291 30815.0242 12.6478 56.5234
TCL: Running FEP window   2: Lambda1 0.95   Lambda2 0.8999999999999999 [dLambda -0.050000000000000044]
TCL: Setting parameter firsttimestep to 0
TCL: Setting parameter alchLambda to 0.95
Info: NONBONDED TABLE R-SQUARED SPACING: 0.0625
Info: NONBONDED TABLE SIZE: 705 POINTS
TCL: Setting parameter alchLambda2 to 0.8999999999999999
Info: NONBONDED TABLE R-SQUARED SPACING: 0.0625
Info: NONBONDED TABLE SIZE: 705 POINTS
TCL: Running for 1500000 steps
ETITLE: TS BOND ANGLE DIHED IMPRP ELECT VDW BOUNDARY MISC KINETIC TOTAL TEMP POTENTIAL TOTALAVG TEMPAVG PRESSURE GPRESSURE VOLUME PRESSAVG GPRESSAVG
ENERGY: 0 1.2498 9.5879 3.4066 0.0000 -10921.6461 1517.8220 0.0000 0.0000 1760.7829 -7628.7968 295.2570 -9389.5797 -7628.7968 295.2570 481.7435 546.7958 30815.0242 481.7435 546.7958
ENERGY: 300000 2.5626 9.7498 3.5142 0.0000 -10821.0502 1396.9198 0.0000 0.0000 1746.6903 -7661.6135 292.8939 -9408.3038 -7598.4402 299.3630 -650.8066 -531.7319 30785.2626 -83.7734 -10.5725
ENERGY: 600000 1.0455 8.8487 3.1181 0.0000 -10855.9202 1420.5981 0.0000 0.0000 1805.9182 -7616.3916 302.8255 -9422.3099 -7611.6041 300.8575 -547.0221 -456.7054 31015.4363 -241.2981 -183.8984
ENERGY: 900000 1.0627 10.7927 1.8885 0.0000 -10826.8114 1482.5015 0.0000 0.0000 1777.1082 -7553.4577 297.9945 -9330.5659 -7612.9221 299.6889 126.6484 227.5705 31236.1723 -40.6555 26.0252
ENERGY: 1200000 1.0840 9.4847 1.7819 0.0000 -10877.3714 1499.1210 0.0000 0.0000 1798.0355 -7567.8644 301.5037 -9365.8999 -7592.8694 300.9960 352.4251 369.5427 30776.2454 -80.2418 -23.3957
ENERGY: 1500000 3.2349 5.8500 3.0294 0.0000 -11013.5946 1554.9060 0.0000 0.0000 1796.1563 -7650.4180 301.1886 -9446.5744 -7599.6990 300.7184 863.8504 972.0563 30069.1093 -43.8632 15.4329
TCL: Running FEP window   3: Lambda1 0.8999999999999999 Lambda2 0.8499999999999999 [dLambda -0.050000000000000044]
TCL: Setting parameter firsttimestep to 0
TCL: Setting parameter alchLambda to 0.8999999999999999
Info: NONBONDED TABLE R-SQUARED SPACING: 0.0625
Info: NONBONDED TABLE SIZE: 705 POINTS
TCL: Setting parameter alchLambda2 to 0.8499999999999999
Info: NONBONDED TABLE R-SQUARED SPACING: 0.0625
Info: NONBONDED TABLE SIZE: 705 POINTS
TCL: Running for 1500000 steps
ETITLE: TS BOND ANGLE DIHED IMPRP ELECT VDW BOUNDARY MISC KINETIC TOTAL TEMP POTENTIAL TOTALAVG TEMPAVG PRESSURE GPRESSURE VOLUME PRESSAVG GPRESSAVG
ENERGY: 0 3.2349 5.8500 3.0294 0.0000 -11012.2395 1554.8147 0.0000 0.0000 1795.2883 -7650.0221 301.0430 -9445.3104 -7650.0221 301.0430 866.7347 962.8037 30069.1093 866.7347 962.8037
ENERGY: 300000 0.4881 8.6299 3.2178 0.0000 -11035.1401 1545.8025 0.0000 0.0000 1813.2851 -7663.7166 304.0608 -9477.0018 -7644.2973 301.0871 480.4495 617.8219 30612.9245 319.3067 397.9825
ENERGY: 600000 3.0030 8.4224 2.3103 0.0000 -10953.0245 1535.0376 0.0000 0.0000 1830.4700 -7573.7813 306.9425 -9404.2512 -7609.7032 301.3884 436.6189 545.0295 30737.3157 262.7703 337.7332
ENERGY: 900000 6.3121 5.7767 3.3512 0.0000 -10812.4768 1389.0726 0.0000 0.0000 1779.8659 -7628.0984 298.4569 -9407.9642 -7593.4950 301.9897 -893.7703 -817.0184 31291.0001 94.3473 164.6240
ENERGY: 1200000 1.9975 10.1989 1.3915 0.0000 -10987.4381 1537.4267 0.0000 0.0000 1791.7756 -7644.6479 300.4540 -9436.4235 -7608.5555 300.5987 420.7632 557.1256 30372.5865 41.4835 120.3709
ENERGY: 1500000 0.7725 9.8722 2.8853 0.0000 -10881.0717 1492.0166 0.0000 0.0000 1769.1207 -7606.4043 296.6551 -9375.5250 -7602.4772 300.7092 688.8774 750.3894 30137.6681 52.6545 122.7562
TCL: Running FEP window   4: Lambda1 0.8499999999999999 Lambda2 0.7999999999999998 [dLambda -0.050000000000000044]
TCL: Setting parameter firsttimestep to 0
TCL: Setting parameter alchLambda to 0.8499999999999999
Info: NONBONDED TABLE R-SQUARED SPACING: 0.0625
Info: NONBONDED TABLE SIZE: 705 POINTS
TCL: Setting parameter alchLambda2 to 0.7999999999999998
Info: NONBONDED TABLE R-SQUARED SPACING: 0.0625
Info: NONBONDED TABLE SIZE: 705 POINTS
TCL: Running for 1500000 steps
ETITLE: TS BOND ANGLE DIHED IMPRP ELECT VDW BOUNDARY MISC KINETIC TOTAL TEMP POTENTIAL TOTALAVG TEMPAVG PRESSURE GPRESSURE VOLUME PRESSAVG GPRESSAVG
ENERGY: 0 0.7725 9.8722 2.8853 0.0000 -10879.9117 1490.8480 0.0000 0.0000 1768.2427 -7607.2909 296.5079 -9375.5336 -7607.2909 296.5079 642.0221 726.3741 30137.6681 642.0221 726.3741
ENERGY: 300000 0.9175 7.5287 3.4306 0.0000 -10725.1495 1389.1431 0.0000 0.0000 1780.8657 -7543.2639 298.6246 -9324.1297 -7530.5791 301.3252 -158.8088 -126.1087 30895.4822 45.1741 112.8036
ENERGY: 600000 0.4106 11.9954 1.8144 0.0000 -10744.6914 1426.8004 0.0000 0.0000 1768.3910 -7535.2796 296.5328 -9303.6706 -7548.2161 299.6209 -312.6876 -250.3183 31485.7477 6.7026 71.1440
ENERGY: 900000 0.3261 6.8235 1.9151 0.0000 -10754.7496 1442.0492 0.0000 0.0000 1853.7976 -7449.8381 310.8542 -9303.6357 -7563.1544 299.5916 294.6976 393.8419 30474.1795 29.1600 97.2402
ENERGY: 1200000 0.9992 8.7382 1.9522 0.0000 -10843.0193 1416.8214 0.0000 0.0000 1787.8131 -7626.6953 299.7896 -9414.5084 -7572.1866 299.3650 -403.0539 -266.2198 30797.0240 -109.2168 -39.8866
ENERGY: 1500000 1.0798 7.9882 2.3724 0.0000 -10918.4268 1482.0099 0.0000 0.0000 1809.9606 -7615.0160 303.5034 -9424.9766 -7571.4836 300.7686 326.5088 396.8386 30519.1514 -86.6161 -21.9316
TCL: Running FEP window   5: Lambda1 0.7999999999999998 Lambda2 0.7499999999999998 [dLambda -0.050000000000000044]
TCL: Setting parameter firsttimestep to 0
TCL: Setting parameter alchLambda to 0.7999999999999998
Info: NONBONDED TABLE R-SQUARED SPACING: 0.0625
Info: NONBONDED TABLE SIZE: 705 POINTS
TCL: Setting parameter alchLambda2 to 0.7499999999999998
Info: NONBONDED TABLE R-SQUARED SPACING: 0.0625
Info: NONBONDED TABLE SIZE: 705 POINTS
TCL: Running for 1500000 steps
ETITLE: TS BOND ANGLE DIHED IMPRP ELECT VDW BOUNDARY MISC KINETIC TOTAL TEMP POTENTIAL TOTALAVG TEMPAVG PRESSURE GPRESSURE VOLUME PRESSAVG GPRESSAVG
ENERGY: 0 1.0798 7.9882 2.3724 0.0000 -10916.7469 1481.9604 0.0000 0.0000 1809.0563 -7614.2898 303.3517 -9423.3461 -7614.2898 303.3517 314.2771 388.7018 30519.1514 314.2771 388.7018
ENERGY: 300000 0.6482 9.2251 2.5227 0.0000 -10881.4259 1506.4971 0.0000 0.0000 1782.2589 -7580.2739 298.8582 -9362.5327 -7573.3408 300.6616 583.4694 600.1202 30499.8110 20.0977 68.9793
ENERGY: 600000 0.9169 6.7781 3.3771 0.0000 -10728.9049 1399.3477 0.0000 0.0000 1820.2643 -7498.2208 305.2311 -9318.4851 -7575.1217 299.7777 -345.4446 -249.3125 30956.4002 -39.4736 14.0298
ENERGY: 900000 1.4031 7.2238 3.9561 0.0000 -10695.2852 1361.6170 0.0000 0.0000 1795.7387 -7525.3464 301.1186 -9321.0851 -7571.1094 300.0531 -624.5356 -559.0346 31153.1011 -146.9600 -89.0337
ENERGY: 1200000 1.3561 6.5349 2.9364 0.0000 -10733.8582 1344.2120 0.0000 0.0000 1798.5189 -7580.3000 301.5848 -9378.8189 -7574.1490 300.3807 -730.3757 -618.5747 30550.7081 -225.0327 -163.0492
ENERGY: 1500000 0.3124 10.7487 2.0937 0.0000 -10851.5256 1437.7653 0.0000 0.0000 1790.0408 -7610.5648 300.1631 -9400.6055 -7575.6617 300.1061 -100.1947 -114.2182 30629.7515 -245.8060 -192.0115
TCL: Running FEP window   6: Lambda1 0.7499999999999998 Lambda2 0.6999999999999997 [dLambda -0.050000000000000044]
TCL: Setting parameter firsttimestep to 0
TCL: Setting parameter alchLambda to 0.7499999999999998
Info: NONBONDED TABLE R-SQUARED SPACING: 0.0625
Info: NONBONDED TABLE SIZE: 705 POINTS
TCL: Setting parameter alchLambda2 to 0.6999999999999997
Info: NONBONDED TABLE R-SQUARED SPACING: 0.0625
Info: NONBONDED TABLE SIZE: 705 POINTS
TCL: Running for 1500000 steps
ETITLE: TS BOND ANGLE DIHED IMPRP ELECT VDW BOUNDARY MISC KINETIC TOTAL TEMP POTENTIAL TOTALAVG TEMPAVG PRESSURE GPRESSURE VOLUME PRESSAVG GPRESSAVG
ENERGY: 0 0.3124 10.7486 2.0937 0.0000 -10849.9609 1437.5878 0.0000 0.0000 1789.1412 -7610.0771 300.0123 -9399.2183 -7610.0771 300.0123 -190.9722 -119.6355 30629.7515 -190.9722 -119.6355
ENERGY: 300000 3.3050 9.5857 2.2530 0.0000 -10708.0014 1414.9093 0.0000 0.0000 1818.4961 -7459.4521 304.9346 -9277.9483 -7593.1863 298.5219 -372.4015 -299.4628 31524.8500 37.3470 129.3008
ENERGY: 600000 2.8454 11.6169 3.4625 0.0000 -10825.2558 1438.6520 0.0000 0.0000 1762.0001 -7606.6789 295.4611 -9368.6789 -7590.7917 299.7478 -338.0478 -246.1419 31005.0671 86.1233 160.5106
ENERGY: 900000 3.6467 7.1267 4.0338 0.0000 -10908.0043 1490.9035 0.0000 0.0000 1751.0815 -7651.2121 293.6302 -9402.2936 -7597.0725 299.4376 189.0350 251.8159 30730.9589 28.0009 98.0015
ENERGY: 1200000 1.4645 6.8679 1.8386 0.0000 -10844.6658 1499.3000 0.0000 0.0000 1805.0700 -7530.1248 302.6833 -9335.1948 -7584.7766 299.5959 431.6351 460.6022 30777.2698 75.4172 144.7786
ENERGY: 1500000 0.7460 4.2634 4.2219 0.0000 -10950.8330 1507.0834 0.0000 0.0000 1817.6154 -7616.9029 304.7870 -9434.5184 -7585.4578 300.4074 313.1420 357.9748 30631.5714 101.8261 169.0285
TCL: Running FEP window   7: Lambda1 0.6999999999999997 Lambda2 0.6499999999999997 [dLambda -0.050000000000000044]
TCL: Setting parameter firsttimestep to 0
TCL: Setting parameter alchLambda to 0.6999999999999997
Info: NONBONDED TABLE R-SQUARED SPACING: 0.0625
Info: NONBONDED TABLE SIZE: 705 POINTS
TCL: Setting parameter alchLambda2 to 0.6499999999999997
Info: NONBONDED TABLE R-SQUARED SPACING: 0.0625
Info: NONBONDED TABLE SIZE: 705 POINTS
TCL: Running for 1500000 steps
ETITLE: TS BOND ANGLE DIHED IMPRP ELECT VDW BOUNDARY MISC KINETIC TOTAL TEMP POTENTIAL TOTALAVG TEMPAVG PRESSURE GPRESSURE VOLUME PRESSAVG GPRESSAVG
ENERGY: 0 0.7460 4.2634 4.2219 0.0000 -10948.8572 1506.3249 0.0000 0.0000 1816.7623 -7616.5387 304.6439 -9433.3010 -7616.5387 304.6439 273.0219 346.3771 30631.5714 273.0219 346.3771
ENERGY: 300000 3.3860 8.7137 1.8657 0.0000 -10876.3422 1461.9410 0.0000 0.0000 1819.7473 -7580.6885 305.1445 -9400.4358 -7571.7680 306.8408 222.6354 243.6068 30448.7688 -60.4148 -7.4361
ENERGY: 600000 1.5939 12.3224 2.1154 0.0000 -10923.9661 1490.9062 0.0000 0.0000 1864.1109 -7552.9171 312.5836 -9417.0281 -7585.4233 305.7445 91.8296 212.2194 30796.3858 58.2393 120.1173
ENERGY: 900000 1.2177 10.6679 2.8482 0.0000 -10987.4472 1541.3941 0.0000 0.0000 1750.8256 -7680.4937 293.5873 -9431.3193 -7572.5449 304.7774 536.5355 671.3629 30443.0511 67.9969 144.0187
ENERGY: 1200000 1.5168 7.5664 2.1039 0.0000 -10742.1657 1371.3315 0.0000 0.0000 1811.9945 -7547.6524 303.8444 -9359.6469 -7571.0499 303.2117 -677.7807 -643.3278 30827.2181 29.9793 101.9722
ENERGY: 1500000 1.9779 9.1953 1.1224 0.0000 -10827.0402 1417.4384 0.0000 0.0000 1720.9886 -7676.3176 288.5841 -9397.3062 -7577.2770 302.2311 -532.4220 -430.2022 31172.8466 39.6475 112.9236
TCL: Running FEP window   8: Lambda1 0.6499999999999997 Lambda2 0.5999999999999996 [dLambda -0.050000000000000044]
TCL: Setting parameter firsttimestep to 0
TCL: Setting parameter alchLambda to 0.6499999999999997
Info: NONBONDED TABLE R-SQUARED SPACING: 0.0625
Info: NONBONDED TABLE SIZE: 705 POINTS
TCL: Setting parameter alchLambda2 to 0.5999999999999996
Info: NONBONDED TABLE R-SQUARED SPACING: 0.0625
Info: NONBONDED TABLE SIZE: 705 POINTS
TCL: Running for 1500000 steps
ETITLE: TS BOND ANGLE DIHED IMPRP ELECT VDW BOUNDARY MISC KINETIC TOTAL TEMP POTENTIAL TOTALAVG TEMPAVG PRESSURE GPRESSURE VOLUME PRESSAVG GPRESSAVG
ENERGY: 0 1.9779 9.1953 1.1224 0.0000 -10825.9473 1417.7948 0.0000 0.0000 1720.0645 -7675.7924 288.4291 -9395.8569 -7675.7924 288.4291 -515.4139 -431.5735 31172.8466 -515.4139 -431.5735
ENERGY: 300000 1.3118 7.3775 2.6045 0.0000 -10724.8236 1369.2689 0.0000 0.0000 1775.1120 -7569.1489 297.6598 -9344.2608 -7607.1842 296.6353 -568.8159 -472.8687 30990.1612 -431.8591 -363.0910
ENERGY: 600000 0.7266 6.8034 1.6697 0.0000 -10774.4382 1411.7461 0.0000 0.0000 1802.8321 -7550.6604 302.3080 -9353.4925 -7588.9984 299.2150 -692.2783 -600.6136 31409.5010 -399.7220 -318.4914
ENERGY: 900000 1.2929 8.2296 1.9519 0.0000 -10857.3482 1434.5414 0.0000 0.0000 1802.1462 -7609.1860 302.1930 -9411.3323 -7603.1316 298.5175 -189.2708 -131.0249 30334.9224 -367.0544 -301.2917
ENERGY: 1200000 1.0044 7.9550 1.9265 0.0000 -10776.1609 1400.6237 0.0000 0.0000 1715.2918 -7649.3596 287.6288 -9364.6514 -7608.3980 297.7385 -556.3609 -495.2912 30697.2989 -325.2155 -261.4616
ENERGY: 1500000 3.1611 5.4540 2.2874 0.0000 -10798.9178 1442.2138 0.0000 0.0000 1779.7950 -7566.0065 298.4451 -9345.8016 -7602.5872 297.3850 -16.9125 29.0641 30755.0480 -236.6811 -175.0226
TCL: Running FEP window   9: Lambda1 0.5999999999999996 Lambda2 0.5499999999999996 [dLambda -0.050000000000000044]
TCL: Setting parameter firsttimestep to 0
TCL: Setting parameter alchLambda to 0.5999999999999996
Info: NONBONDED TABLE R-SQUARED SPACING: 0.0625
Info: NONBONDED TABLE SIZE: 705 POINTS
TCL: Setting parameter alchLambda2 to 0.5499999999999996
Info: NONBONDED TABLE R-SQUARED SPACING: 0.0625
Info: NONBONDED TABLE SIZE: 705 POINTS
TCL: Running for 1500000 steps
ETITLE: TS BOND ANGLE DIHED IMPRP ELECT VDW BOUNDARY MISC KINETIC TOTAL TEMP POTENTIAL TOTALAVG TEMPAVG PRESSURE GPRESSURE VOLUME PRESSAVG GPRESSAVG
ENERGY: 0 3.1611 5.4540 2.2874 0.0000 -10798.4200 1442.4330 0.0000 0.0000 1778.9131 -7566.1714 298.2972 -9345.0845 -7566.1714 298.2972 -43.6612 26.3857 30755.0480 -43.6612 26.3857
ENERGY: 300000 2.4282 9.2809 2.8265 0.0000 -10809.5409 1399.3725 0.0000 0.0000 1776.9431 -7618.6898 297.9668 -9395.6329 -7566.5586 301.9807 -677.9144 -574.1266 30947.4352 -152.8629 -76.1431
ENERGY: 600000 0.2993 6.8801 2.4750 0.0000 -10781.1894 1407.7192 0.0000 0.0000 1801.3259 -7562.4898 302.0555 -9363.8156 -7571.0785 300.9125 -463.2574 -397.3442 30767.2751 -202.3313 -130.2421
ENERGY: 900000 0.3163 8.0184 4.5079 0.0000 -10818.5958 1460.5082 0.0000 0.0000 1784.7746 -7560.4704 299.2801 -9345.2450 -7584.1121 298.4479 -4.6221 85.7195 30900.4680 -151.7809 -80.7054
ENERGY: 1200000 0.9116 8.6064 2.7914 0.0000 -10895.7058 1444.1648 0.0000 0.0000 1733.4808 -7705.7508 290.6789 -9439.2317 -7587.2152 299.2585 -432.1293 -363.8856 31008.0561 -181.7797 -114.8258
ENERGY: 1500000 2.0253 8.3805 2.8448 0.0000 -10880.9847 1481.3134 0.0000 0.0000 1757.7385 -7628.6823 294.7465 -9386.4208 -7587.7527 299.5203 344.8562 389.3176 30336.9036 -106.9562 -49.7103
TCL: Running FEP window  10: Lambda1 0.5499999999999996 Lambda2 0.4999999999999996 [dLambda -0.04999999999999999]
TCL: Setting parameter firsttimestep to 0
TCL: Setting parameter alchLambda to 0.5499999999999996
Info: NONBONDED TABLE R-SQUARED SPACING: 0.0625
Info: NONBONDED TABLE SIZE: 705 POINTS
TCL: Setting parameter alchLambda2 to 0.4999999999999996
Info: NONBONDED TABLE R-SQUARED SPACING: 0.0625
Info: NONBONDED TABLE SIZE: 705 POINTS
TCL: Running for 1500000 steps
ETITLE: TS BOND ANGLE DIHED IMPRP ELECT VDW BOUNDARY MISC KINETIC TOTAL TEMP POTENTIAL TOTALAVG TEMPAVG PRESSURE GPRESSURE VOLUME PRESSAVG GPRESSAVG
ENERGY: 0 2.0253 8.3805 2.8448 0.0000 -10880.9080 1481.4825 0.0000 0.0000 1756.8314 -7629.3435 294.5944 -9386.1749 -7629.3435 294.5944 302.3570 383.0126 30336.9036 302.3570 383.0126
ENERGY: 300000 2.7133 9.0637 2.6090 0.0000 -10774.5792 1420.4666 0.0000 0.0000 1723.9506 -7615.7761 289.0808 -9339.7267 -7620.1645 296.5281 -222.3362 -72.1290 30655.4682 -88.9705 -5.1128
ENERGY: 600000 2.0066 9.7534 2.4746 0.0000 -10801.0972 1430.9807 0.0000 0.0000 1805.5795 -7550.3024 302.7687 -9355.8819 -7597.9021 300.0181 -435.3657 -386.7452 31269.1670 -313.4443 -240.1287
ENERGY: 900000 1.5053 6.9415 1.9836 0.0000 -10849.4680 1464.0894 0.0000 0.0000 1821.0060 -7553.9422 305.3555 -9374.9483 -7598.2248 300.1338 35.3202 105.9538 30687.8571 -232.3424 -169.4440
ENERGY: 1200000 0.4426 11.1633 1.3175 0.0000 -10810.8600 1477.0721 0.0000 0.0000 1812.1192 -7508.7453 303.8653 -9320.8645 -7585.2390 300.3029 279.9811 296.1905 30981.8578 -113.0864 -52.1738
ENERGY: 1500000 1.2334 6.4471 3.1757 0.0000 -10822.3168 1461.0374 0.0000 0.0000 1796.2705 -7554.1526 301.2077 -9350.4231 -7581.5798 300.9092 3.9192 118.4400 30774.7947 -60.5509 1.7723
TCL: Running FEP window  11: Lambda1 0.4999999999999996 Lambda2 0.4499999999999996 [dLambda -0.04999999999999999]
TCL: Setting parameter firsttimestep to 0
TCL: Setting parameter alchLambda to 0.4999999999999996
Info: NONBONDED TABLE R-SQUARED SPACING: 0.0625
Info: NONBONDED TABLE SIZE: 705 POINTS
TCL: Setting parameter alchLambda2 to 0.4499999999999996
Info: NONBONDED TABLE R-SQUARED SPACING: 0.0625
Info: NONBONDED TABLE SIZE: 705 POINTS
TCL: Running for 1500000 steps
ETITLE: TS BOND ANGLE DIHED IMPRP ELECT VDW BOUNDARY MISC KINETIC TOTAL TEMP POTENTIAL TOTALAVG TEMPAVG PRESSURE GPRESSURE VOLUME PRESSAVG GPRESSAVG
ENERGY: 0 1.2334 6.4471 3.1757 0.0000 -10822.2216 1461.0663 0.0000 0.0000 1795.3640 -7554.9350 301.0557 -9350.2990 -7554.9350 301.0557 23.0402 112.1865 30774.7947 23.0402 112.1865
ENERGY: 300000 0.9357 9.8865 3.3893 0.0000 -10840.3915 1386.5375 0.0000 0.0000 1778.4200 -7661.2225 298.2145 -9439.6425 -7599.5306 299.2201 -934.2818 -821.8095 30984.5341 -397.6298 -315.2236
ENERGY: 600000 1.5281 9.2922 3.7680 0.0000 -10738.6140 1329.4267 0.0000 0.0000 1792.4594 -7602.1395 300.5687 -9394.5989 -7592.8636 299.4157 -991.3130 -872.1881 30615.1286 -429.9875 -362.0524
ENERGY: 900000 0.7674 6.4412 4.1303 0.0000 -10840.2884 1438.8451 0.0000 0.0000 1777.1546 -7612.9499 298.0023 -9390.1045 -7585.0137 299.5121 -87.6019 -15.9900 30551.9199 -340.1651 -265.8002
ENERGY: 1200000 1.0990 7.2019 2.4721 0.0000 -10902.4147 1484.9427 0.0000 0.0000 1814.6878 -7592.0112 304.2961 -9406.6990 -7586.7696 300.1724 207.3800 239.9740 30630.9090 -239.5419 -168.1230
ENERGY: 1500000 0.7979 9.6719 1.8845 0.0000 -10922.8912 1514.3143 0.0000 0.0000 1832.5262 -7563.6964 307.2873 -9396.2226 -7589.0652 300.4215 505.7282 534.0079 30504.5275 -232.9429 -165.2496
TCL: Running FEP window  12: Lambda1 0.4499999999999996 Lambda2 0.39999999999999963 [dLambda -0.04999999999999999]
TCL: Setting parameter firsttimestep to 0
TCL: Setting parameter alchLambda to 0.4499999999999996
Info: NONBONDED TABLE R-SQUARED SPACING: 0.0625
Info: NONBONDED TABLE SIZE: 705 POINTS
TCL: Setting parameter alchLambda2 to 0.39999999999999963
Info: NONBONDED TABLE R-SQUARED SPACING: 0.0625
Info: NONBONDED TABLE SIZE: 705 POINTS
TCL: Running for 1500000 steps
ETITLE: TS BOND ANGLE DIHED IMPRP ELECT VDW BOUNDARY MISC KINETIC TOTAL TEMP POTENTIAL TOTALAVG TEMPAVG PRESSURE GPRESSURE VOLUME PRESSAVG GPRESSAVG
ENERGY: 0 0.7979 9.6719 1.8845 0.0000 -10922.8917 1514.5406 0.0000 0.0000 1831.6408 -7564.3560 307.1388 -9395.9968 -7564.3560 307.1388 432.9926 530.5804 30504.5275 432.9926 530.5804
ENERGY: 300000 0.7613 8.2288 3.4396 0.0000 -10837.1722 1384.8006 0.0000 0.0000 1762.1247 -7677.8173 295.4820 -9439.9420 -7616.8980 301.6018 -815.1913 -787.6443 30844.0353 -318.4551 -259.6229
ENERGY: 600000 0.8830 7.6899 2.8891 0.0000 -10881.4927 1453.6613 0.0000 0.0000 1813.2542 -7603.1152 304.0557 -9416.3694 -7605.9401 299.9116 12.4803 73.9542 30541.2442 -177.5025 -128.9553
ENERGY: 900000 4.1987 8.1956 1.4131 0.0000 -10840.6143 1472.1576 0.0000 0.0000 1747.0217 -7607.6276 292.9494 -9354.6493 -7603.7429 299.4179 -68.2515 -96.2844 31130.4927 -197.9454 -162.1712
ENERGY: 1200000 1.7030 7.6794 1.9519 0.0000 -10733.9020 1337.6126 0.0000 0.0000 1808.0131 -7576.9419 303.1768 -9384.9550 -7597.2020 300.3533 -1064.3658 -940.7893 31085.6950 -215.8377 -171.1580
ENERGY: 1500000 1.8450 8.2178 3.0397 0.0000 -10962.3327 1508.1696 0.0000 0.0000 1825.5969 -7615.4638 306.1253 -9441.0608 -7591.2785 301.0536 514.3432 539.6802 30271.3487 -164.7152 -115.1597
TCL: Running FEP window  13: Lambda1 0.39999999999999963 Lambda2 0.34999999999999964 [dLambda -0.04999999999999999]
TCL: Setting parameter firsttimestep to 0
TCL: Setting parameter alchLambda to 0.39999999999999963
Info: NONBONDED TABLE R-SQUARED SPACING: 0.0625
Info: NONBONDED TABLE SIZE: 705 POINTS
TCL: Setting parameter alchLambda2 to 0.34999999999999964
Info: NONBONDED TABLE R-SQUARED SPACING: 0.0625
Info: NONBONDED TABLE SIZE: 705 POINTS
TCL: Running for 1500000 steps
ETITLE: TS BOND ANGLE DIHED IMPRP ELECT VDW BOUNDARY MISC KINETIC TOTAL TEMP POTENTIAL TOTALAVG TEMPAVG PRESSURE GPRESSURE VOLUME PRESSAVG GPRESSAVG
ENERGY: 0 1.8449 8.2178 3.0397 0.0000 -10962.3313 1508.3526 0.0000 0.0000 1824.6812 -7616.1951 305.9718 -9440.8763 -7616.1951 305.9718 459.9922 536.5537 30271.3487 459.9922 536.5537
ENERGY: 300000 1.8896 7.0409 4.8975 0.0000 -10833.6762 1462.2416 0.0000 0.0000 1766.8070 -7590.7997 296.2672 -9357.6068 -7562.9626 299.8350 -231.5412 -125.3332 31056.2627 -165.2975 -53.9797
ENERGY: 600000 0.8472 8.3220 3.5047 0.0000 -10624.0016 1306.2461 0.0000 0.0000 1733.5753 -7571.5062 290.6947 -9305.0816 -7577.3141 298.8080 -1070.2644 -967.0302 30849.8935 -218.8647 -114.0319
ENERGY: 900000 1.2556 10.7361 2.2802 0.0000 -10711.7953 1303.5551 0.0000 0.0000 1797.6751 -7596.2933 301.4433 -9393.9684 -7593.0652 297.7132 -1404.1597 -1322.9306 31194.6207 -238.7909 -159.0482
ENERGY: 1200000 1.7916 14.2068 3.5028 0.0000 -10856.0206 1491.1490 0.0000 0.0000 1766.4493 -7578.9210 296.2072 -9345.3703 -7586.0657 297.9043 64.0146 145.8134 31160.2703 -218.4014 -136.1114
ENERGY: 1500000 0.8963 5.1405 4.8682 0.0000 -10854.7069 1474.9086 0.0000 0.0000 1817.4086 -7551.4848 304.7523 -9368.8934 -7576.1115 299.5853 198.0745 260.3846 30460.7239 -104.8244 -26.8779
TCL: Running FEP window  14: Lambda1 0.34999999999999964 Lambda2 0.29999999999999966 [dLambda -0.04999999999999999]
TCL: Setting parameter firsttimestep to 0
TCL: Setting parameter alchLambda to 0.34999999999999964
Info: NONBONDED TABLE R-SQUARED SPACING: 0.0625
Info: NONBONDED TABLE SIZE: 705 POINTS
TCL: Setting parameter alchLambda2 to 0.29999999999999966
Info: NONBONDED TABLE R-SQUARED SPACING: 0.0625
Info: NONBONDED TABLE SIZE: 705 POINTS
TCL: Running for 1500000 steps
ETITLE: TS BOND ANGLE DIHED IMPRP ELECT VDW BOUNDARY MISC KINETIC TOTAL TEMP POTENTIAL TOTALAVG TEMPAVG PRESSURE GPRESSURE VOLUME PRESSAVG GPRESSAVG
ENERGY: 0 0.8963 5.1405 4.8682 0.0000 -10854.7058 1474.9556 0.0000 0.0000 1816.5307 -7552.3145 304.6051 -9368.8452 -7552.3145 304.6051 162.5081 252.0102 30460.7239 162.5081 252.0102
ENERGY: 300000 0.3540 8.0116 1.7823 0.0000 -10942.9801 1564.4238 0.0000 0.0000 1819.0975 -7549.3110 305.0355 -9368.4085 -7591.7650 302.2981 822.5288 953.8206 30607.1147 5.8745 80.8971
ENERGY: 600000 2.1400 8.7413 4.6178 0.0000 -10785.0627 1428.1674 0.0000 0.0000 1792.7453 -7548.6509 300.6166 -9341.3962 -7565.5047 303.3571 -123.4404 4.6684 30835.5060 27.5373 104.0753
ENERGY: 900000 1.2339 9.6587 1.9979 0.0000 -10787.7728 1380.6988 0.0000 0.0000 1830.6996 -7563.4838 306.9810 -9394.1834 -7556.5230 303.4576 -645.6060 -579.0474 30878.5740 -180.5238 -98.9231
ENERGY: 1200000 2.6513 8.2072 4.7805 0.0000 -10839.0428 1442.6292 0.0000 0.0000 1832.2018 -7548.5729 307.2329 -9380.7747 -7552.1222 303.2804 -170.2482 -75.6543 30681.7069 -134.6310 -58.1589
ENERGY: 1500000 3.0258 12.0753 1.4804 0.0000 -10774.8985 1427.7381 0.0000 0.0000 1794.2561 -7536.3227 300.8700 -9330.5788 -7557.2773 302.1726 -220.3891 -136.5120 31043.9809 -153.8011 -83.1605
TCL: Running FEP window  15: Lambda1 0.29999999999999966 Lambda2 0.24999999999999967 [dLambda -0.04999999999999999]
TCL: Setting parameter firsttimestep to 0
TCL: Setting parameter alchLambda to 0.29999999999999966
Info: NONBONDED TABLE R-SQUARED SPACING: 0.0625
Info: NONBONDED TABLE SIZE: 705 POINTS
TCL: Setting parameter alchLambda2 to 0.24999999999999967
Info: NONBONDED TABLE R-SQUARED SPACING: 0.0625
Info: NONBONDED TABLE SIZE: 705 POINTS
TCL: Running for 1500000 steps
ETITLE: TS BOND ANGLE DIHED IMPRP ELECT VDW BOUNDARY MISC KINETIC TOTAL TEMP POTENTIAL TOTALAVG TEMPAVG PRESSURE GPRESSURE VOLUME PRESSAVG GPRESSAVG
ENERGY: 0 3.0258 12.0753 1.4804 0.0000 -10774.8982 1427.1364 0.0000 0.0000 1793.3632 -7537.8170 300.7202 -9331.1802 -7537.8170 300.7202 -235.2883 -146.9809 31043.9809 -235.2883 -146.9809
ENERGY: 300000 2.0937 8.2198 2.8359 0.0000 -10900.2298 1533.4792 0.0000 0.0000 1789.0463 -7564.5550 299.9964 -9353.6012 -7548.1351 302.2390 528.5677 611.4505 30607.8317 -4.6890 56.5764
ENERGY: 600000 1.9602 10.5023 1.9461 0.0000 -10773.5316 1444.8816 0.0000 0.0000 1825.8700 -7488.3714 306.1711 -9314.2414 -7534.8495 302.5255 235.7626 234.1708 30579.2619 -78.8595 -31.4346
ENERGY: 900000 0.7570 4.8049 1.7371 0.0000 -10841.0347 1452.6671 0.0000 0.0000 1817.4477 -7563.6208 304.7588 -9381.0685 -7540.4973 301.4315 -65.9324 -24.4790 30884.4087 -76.5643 -20.5267
ENERGY: 1200000 2.0110 9.9297 3.5356 0.0000 -10809.9273 1431.9674 0.0000 0.0000 1785.1250 -7577.3587 299.3388 -9362.4837 -7547.5029 300.5312 -263.4662 -202.3763 30852.1429 -52.0983 0.8273
ENERGY: 1500000 2.9654 5.3802 1.9467 0.0000 -10802.6573 1441.4282 0.0000 0.0000 1750.7980 -7600.1388 293.5827 -9350.9369 -7560.3978 299.9319 -394.3469 -290.1968 30935.0343 13.3479 71.9471
TCL: Running FEP window  16: Lambda1 0.24999999999999967 Lambda2 0.19999999999999968 [dLambda -0.04999999999999999]
TCL: Setting parameter firsttimestep to 0
TCL: Setting parameter alchLambda to 0.24999999999999967
Info: NONBONDED TABLE R-SQUARED SPACING: 0.0625
Info: NONBONDED TABLE SIZE: 705 POINTS
TCL: Setting parameter alchLambda2 to 0.19999999999999968
Info: NONBONDED TABLE R-SQUARED SPACING: 0.0625
Info: NONBONDED TABLE SIZE: 705 POINTS
TCL: Running for 1500000 steps
ETITLE: TS BOND ANGLE DIHED IMPRP ELECT VDW BOUNDARY MISC KINETIC TOTAL TEMP POTENTIAL TOTALAVG TEMPAVG PRESSURE GPRESSURE VOLUME PRESSAVG GPRESSAVG
ENERGY: 0 2.9654 5.3802 1.9467 0.0000 -10802.6557 1441.6623 0.0000 0.0000 1749.8926 -7600.8085 293.4309 -9350.7011 -7600.8085 293.4309 -383.3763 -292.4327 30935.0343 -383.3763 -292.4327
ENERGY: 300000 0.4393 4.9847 2.2187 0.0000 -10984.8619 1602.2375 0.0000 0.0000 1790.6969 -7584.2848 300.2731 -9374.9817 -7580.3883 298.5391 1041.0442 1022.1692 31043.4876 183.2078 236.2599
ENERGY: 600000 2.0271 12.3662 3.9665 0.0000 -10828.7655 1415.8975 0.0000 0.0000 1771.4129 -7623.0954 297.0395 -9394.5083 -7581.8472 299.4620 -679.1233 -598.9301 31015.5752 55.5230 103.1821
ENERGY: 900000 2.5685 5.1970 2.5296 0.0000 -10824.1631 1516.2348 0.0000 0.0000 1793.6844 -7503.9488 300.7741 -9297.6332 -7562.5520 298.4563 567.1297 661.0794 30912.4770 52.3611 100.6252
ENERGY: 1200000 3.6056 8.4919 2.3064 0.0000 -10909.4893 1509.6983 0.0000 0.0000 1789.7758 -7595.6112 300.1187 -9385.3870 -7556.2991 299.6399 168.9083 229.1789 30586.0120 -11.6449 42.0557
ENERGY: 1500000 0.4816 8.0261 1.4535 0.0000 -10967.1010 1561.7133 0.0000 0.0000 1822.2712 -7573.1553 305.5677 -9395.4265 -7557.9906 300.1153 798.5682 831.2795 30547.2196 48.9952 105.6810
TCL: Running FEP window  17: Lambda1 0.19999999999999968 Lambda2 0.1499999999999997 [dLambda -0.04999999999999999]
TCL: Setting parameter firsttimestep to 0
TCL: Setting parameter alchLambda to 0.19999999999999968
Info: NONBONDED TABLE R-SQUARED SPACING: 0.0625
Info: NONBONDED TABLE SIZE: 705 POINTS
TCL: Setting parameter alchLambda2 to 0.1499999999999997
Info: NONBONDED TABLE R-SQUARED SPACING: 0.0625
Info: NONBONDED TABLE SIZE: 705 POINTS
TCL: Running for 1500000 steps
ETITLE: TS BOND ANGLE DIHED IMPRP ELECT VDW BOUNDARY MISC KINETIC TOTAL TEMP POTENTIAL TOTALAVG TEMPAVG PRESSURE GPRESSURE VOLUME PRESSAVG GPRESSAVG
ENERGY: 0 0.4816 8.0261 1.4535 0.0000 -10967.0993 1561.9148 0.0000 0.0000 1821.4216 -7573.8018 305.4252 -9395.2233 -7573.8018 305.4252 763.1090 829.4374 30547.2196 763.1090 829.4374
ENERGY: 300000 1.7075 7.7276 2.1324 0.0000 -10738.4391 1363.1192 0.0000 0.0000 1741.4737 -7622.2786 292.0191 -9363.7523 -7586.3136 298.7081 -805.6616 -745.5035 30818.9809 -95.2722 -11.5084
ENERGY: 600000 1.3313 7.7798 1.5155 0.0000 -10844.2536 1428.2641 0.0000 0.0000 1882.9882 -7522.3749 315.7490 -9405.3631 -7569.2102 303.1056 -185.4774 -155.8500 30741.0735 45.2283 109.2603
ENERGY: 900000 0.4484 7.3132 2.0223 0.0000 -10742.7538 1402.9939 0.0000 0.0000 1801.9985 -7527.9775 302.1682 -9329.9760 -7561.4262 303.1808 -571.8470 -543.4107 31114.8134 -57.9862 -7.4936
ENERGY: 1200000 0.9650 5.7821 2.8011 0.0000 -10687.1688 1336.3590 0.0000 0.0000 1847.9457 -7493.3159 309.8729 -9341.2616 -7555.5336 304.1618 -891.0411 -848.8377 31138.9588 -169.1552 -117.0997
ENERGY: 1500000 0.9743 5.4192 1.1619 0.0000 -10768.8884 1434.1360 0.0000 0.0000 1852.1115 -7475.0855 310.5714 -9327.1970 -7554.5642 303.6168 108.9929 107.2270 30878.1224 -112.3121 -61.0031
TCL: Running FEP window  18: Lambda1 0.1499999999999997 Lambda2 0.09999999999999969 [dLambda -0.05 ]
TCL: Setting parameter firsttimestep to 0
TCL: Setting parameter alchLambda to 0.1499999999999997
Info: NONBONDED TABLE R-SQUARED SPACING: 0.0625
Info: NONBONDED TABLE SIZE: 705 POINTS
TCL: Setting parameter alchLambda2 to 0.09999999999999969
Info: NONBONDED TABLE R-SQUARED SPACING: 0.0625
Info: NONBONDED TABLE SIZE: 705 POINTS
TCL: Running for 1500000 steps
ETITLE: TS BOND ANGLE DIHED IMPRP ELECT VDW BOUNDARY MISC KINETIC TOTAL TEMP POTENTIAL TOTALAVG TEMPAVG PRESSURE GPRESSURE VOLUME PRESSAVG GPRESSAVG
ENERGY: 0 0.9743 5.4192 1.1619 0.0000 -10768.8866 1433.1294 0.0000 0.0000 1851.2015 -7477.0002 310.4188 -9328.2017 -7477.0002 310.4188 25.1387 101.7327 30878.1224 25.1387 101.7327
ENERGY: 300000 1.1197 10.3299 1.6736 0.0000 -10776.0534 1415.3131 0.0000 0.0000 1793.5000 -7554.1172 300.7432 -9347.6171 -7552.3057 304.1612 -400.3313 -266.4527 30930.5716 -157.3493 -63.7114
ENERGY: 600000 1.2914 9.5145 4.2713 0.0000 -10767.8999 1423.6025 0.0000 0.0000 1806.0062 -7523.2139 302.8403 -9329.2201 -7568.4564 303.7161 -148.9770 -111.4101 30965.3612 -111.5038 -46.9232
ENERGY: 900000 0.5789 8.1468 1.7688 0.0000 -10882.1532 1483.6363 0.0000 0.0000 1751.7131 -7636.3093 293.7361 -9388.0224 -7568.2098 302.0379 53.9352 116.6017 30803.2915 -81.7888 -25.6464
ENERGY: 1200000 1.9770 14.4660 4.1726 0.0000 -10960.4076 1583.2356 0.0000 0.0000 1793.9095 -7562.6470 300.8118 -9356.5565 -7570.4085 301.9173 1221.7081 1261.8759 30078.3912 27.1991 87.1799
ENERGY: 1500000 2.0454 7.0136 1.8525 0.0000 -10853.0654 1464.3220 0.0000 0.0000 1774.4756 -7603.3562 297.5531 -9377.8318 -7570.5789 302.1566 -414.8500 -367.8864 31308.0518 -83.1640 -23.6836
TCL: Running FEP window  19: Lambda1 0.09999999999999969 Lambda2 0.049999999999999684 [dLambda -0.05 ]
TCL: Setting parameter firsttimestep to 0
TCL: Setting parameter alchLambda to 0.09999999999999969
Info: NONBONDED TABLE R-SQUARED SPACING: 0.0625
Info: NONBONDED TABLE SIZE: 705 POINTS
TCL: Setting parameter alchLambda2 to 0.049999999999999684
Info: NONBONDED TABLE R-SQUARED SPACING: 0.0625
Info: NONBONDED TABLE SIZE: 705 POINTS
TCL: Running for 1500000 steps
ETITLE: TS BOND ANGLE DIHED IMPRP ELECT VDW BOUNDARY MISC KINETIC TOTAL TEMP POTENTIAL TOTALAVG TEMPAVG PRESSURE GPRESSURE VOLUME PRESSAVG GPRESSAVG
ENERGY: 0 2.0454 7.0136 1.8525 0.0000 -10853.0659 1464.5132 0.0000 0.0000 1773.6124 -7604.0288 297.4083 -9377.6412 -7604.0288 297.4083 -451.3046 -369.9614 31308.0518 -451.3046 -369.9614
ENERGY: 300000 1.3195 9.4318 3.5448 0.0000 -10911.7687 1478.1254 0.0000 0.0000 1831.7777 -7587.5696 307.1618 -9419.3472 -7580.6848 300.3257 112.3031 109.5029 30548.0393 -134.6631 -71.9608
ENERGY: 600000 3.3659 8.7585 4.1986 0.0000 -10947.4048 1518.6985 0.0000 0.0000 1778.8320 -7633.5513 298.2836 -9412.3833 -7603.9549 300.5882 -52.6314 48.6915 31099.3394 -255.4431 -199.8065
ENERGY: 900000 1.7505 9.2161 1.8608 0.0000 -10946.7746 1570.2735 0.0000 0.0000 1848.5503 -7515.1234 309.9743 -9363.6737 -7591.9052 300.9230 1046.6118 1027.4608 30605.3440 25.3229 70.0634
ENERGY: 1200000 2.5200 9.1081 1.8720 0.0000 -10846.9130 1469.2846 0.0000 0.0000 1762.9250 -7601.2033 295.6162 -9364.1283 -7591.0614 300.8294 209.8081 274.5567 30428.1439 20.2750 68.4839
ENERGY: 1500000 3.5530 9.7179 2.5261 0.0000 -10933.9889 1448.7026 0.0000 0.0000 1777.5301 -7691.9592 298.0653 -9469.4893 -7598.1895 299.9156 -433.8792 -355.3798 30670.7441 35.2547 81.1744
TCL: Running FEP window  20: Lambda1 0.049999999999999684 Lambda2 0.0    [dLambda -0.049999999999999684]
TCL: Setting parameter firsttimestep to 0
TCL: Setting parameter alchLambda to 0.049999999999999684
Info: NONBONDED TABLE R-SQUARED SPACING: 0.0625
Info: NONBONDED TABLE SIZE: 705 POINTS
TCL: Setting parameter alchLambda2 to 0.0
Info: NONBONDED TABLE R-SQUARED SPACING: 0.0625
Info: NONBONDED TABLE SIZE: 705 POINTS
TCL: Running for 1500000 steps
ETITLE: TS BOND ANGLE DIHED IMPRP ELECT VDW BOUNDARY MISC KINETIC TOTAL TEMP POTENTIAL TOTALAVG TEMPAVG PRESSURE GPRESSURE VOLUME PRESSAVG GPRESSAVG
ENERGY: 0 3.5530 9.7179 2.5261 0.0000 -10933.9892 1448.2815 0.0000 0.0000 1776.6258 -7693.2848 297.9136 -9469.9106 -7693.2848 297.9136 -437.2231 -359.4884 30670.7441 -437.2231 -359.4884
ENERGY: 300000 0.2339 12.7801 4.8329 0.0000 -10859.0731 1424.0608 0.0000 0.0000 1826.1425 -7591.0230 306.2168 -9417.1654 -7610.9452 300.0797 -170.2692 -85.5267 30009.3214 -125.8724 -42.4227
ENERGY: 600000 1.6329 6.2080 2.5070 0.0000 -10961.0481 1488.8138 0.0000 0.0000 1799.0208 -7662.8655 301.6689 -9461.8863 -7616.3459 299.2442 1.6686 117.1341 30428.5652 -12.3638 71.5665
ENERGY: 900000 0.6271 7.9621 2.3190 0.0000 -10836.1974 1451.8438 0.0000 0.0000 1741.8974 -7631.5480 292.0902 -9373.4454 -7606.9059 298.7121 75.1631 182.4632 30164.2149 -18.0201 68.7642
ENERGY: 1200000 1.6803 11.3176 2.3390 0.0000 -10745.6364 1452.6081 0.0000 0.0000 1823.3557 -7454.3358 305.7495 -9277.6915 -7577.9354 300.0903 280.7865 302.6942 30938.6498 -33.3805 51.5362
ENERGY: 1500000 1.8513 4.7743 1.4775 0.0000 -10870.8929 1534.9182 0.0000 0.0000 1843.1355 -7484.7361 309.0663 -9327.8717 -7565.5170 301.2026 1018.1499 1098.7431 30023.1682 20.7432 105.9370
TCL: Exiting due to exit command.
