Info: SIMULATION PARAMETERS:
Info: TIMESTEP               2
Info: NUMBER OF STEPS        0
Info: STEPS PER CYCLE        10
Info: PERIODIC CELL BASIS 1  31.9084 0 0
Info: PERIODIC CELL BASIS 2  0 30.131 0
Info: PERIODIC CELL BASIS 3  0 0 31.3482
Info: PERIODIC CELL CENTER   0 0 0
Info: WRAPPING WATERS AROUND PERIODIC BOUNDARIES ON OUTPUT.
Info: WRAPPING ALL CLUSTERS AROUND PERIODIC BOUNDARIES ON OUTPUT.
Info: FIRST LDB TIMESTEP     50
Info: LAST LDB TIMESTEP     -1
Info: HOM BACKGROUND SCALING 1
Info: PME BACKGROUND SCALING 1
Info: MIN ATOMS PER PATCH    40
Info: EMPTY PATCH LOAD       40 ATOMS
Info: VELOCITY FILE          mobley_9838013_equil.vel
Info: CENTER OF MASS MOVING INITIALLY? NO
Info: DIELECTRIC             1
Info: EXCLUDE                SCALED ONE-FOUR
Info: 1-4 ELECTROSTATICS SCALED BY 0.833333
Info: MODIFIED 1-4 VDW PARAMETERS WILL BE USED
Info: DCD FILENAME           mobley_9838013_prod.dcd
Info: DCD FREQUENCY          100000
Info: DCD FIRST STEP         100000
Info: DCD FILE WILL CONTAIN UNIT CELL DATA
Info: XST FILENAME           mobley_9838013_prod.xst
Info: XST FREQUENCY          100000
Info: NO VELOCITY DCD OUTPUT
Info: NO FORCE DCD OUTPUT
Info: OUTPUT FILENAME        mobley_9838013_prod
Info: BINARY OUTPUT FILES WILL BE USED
Info: RESTART FILENAME       mobley_9838013_prod.restart
Info: RESTART FREQUENCY      100000
Info: BINARY RESTART FILES WILL BE USED
Info: CUTOFF                 9
Info: PAIRLIST DISTANCE      11
Info: PAIRLIST SHRINK RATE   0.01
Info: PAIRLIST GROW RATE     0.01
Info: PAIRLIST TRIGGER       0.3
Info: PAIRLISTS PER CYCLE    2
Info: PAIRLISTS ENABLED
Info: MARGIN                 2
Info: HYDROGEN GROUP CUTOFF  2.5
Info: PATCH DIMENSION        15.5
Info: ENERGY OUTPUT STEPS    100000
Info: ENERGY EVALUATION STEPS    100000
Info: OUTPUT ENERGY PRECISION 4
Info: CROSSTERM ENERGY INCLUDED IN DIHEDRAL
Info: TIMING OUTPUT STEPS    1000000
Info: PRESSURE OUTPUT STEPS  100000
Info: ALCHEMICAL FEP ON
Info: FEP CURRENT LAMBDA VALUE     0
Info: FEP COMPARISON LAMBDA VALUE  0.05
Info: FEP INTRA-ALCHEMICAL NON-BONDED INTERACTIONS WILL BE RETAINED
Info: FEP INTRA-ALCHEMICAL BONDED INTERACTIONS WILL BE RETAINED
Info: FEP VDW SHIFTING COEFFICIENT 5
Info: FEP ELEC. ACTIVE FOR ANNIHILATED PARTICLES BETWEEN LAMBDA = 0 AND LAMBDA = 0.5
Info: FEP ELEC. ACTIVE FOR EXNIHILATED PARTICLES BETWEEN LAMBDA = 0.5 AND LAMBDA = 1
Info: FEP VDW ACTIVE FOR ANNIHILATED PARTICLES BETWEEN LAMBDA = 0 AND LAMBDA = 1
Info: FEP VDW ACTIVE FOR EXNIHILATED PARTICLES BETWEEN LAMBDA = 0 AND LAMBDA = 1
Info: FEP BOND ACTIVE FOR ANNIHILATED PARTICLES BETWEEN LAMBDA = 1 AND LAMBDA = 1
Info: FEP BOND ACTIVE FOR EXNIHILATED PARTICLES BETWEEN LAMBDA = 0 AND LAMBDA = 0
Info: LANGEVIN DYNAMICS ACTIVE
Info: LANGEVIN TEMPERATURE   300
Info: LANGEVIN USING BBK INTEGRATOR
Info: LANGEVIN DAMPING COEFFICIENT IS 1 INVERSE PS
Info: LANGEVIN DYNAMICS APPLIED TO HYDROGENS
Info: LANGEVIN PISTON PRESSURE CONTROL ACTIVE
Info:        TARGET PRESSURE IS 1.01325 BAR
Info:     OSCILLATION PERIOD IS 50 FS
Info:             DECAY TIME IS 25 FS
Info:     PISTON TEMPERATURE IS 300 K
Info:       PRESSURE CONTROL IS GROUP-BASED
Info:    INITIAL STRAIN RATE IS -0.000315591 -0.000315591 -0.000315591
Info:       CELL FLUCTUATION IS ISOTROPIC
Info: PARTICLE MESH EWALD (PME) ACTIVE
Info: PME TOLERANCE               1e-06
Info: PME EWALD COEFFICIENT       0.348832
Info: PME INTERPOLATION ORDER     4
Info: PME GRID DIMENSIONS         32 32 32
Info: PME MAXIMUM GRID SPACING    1
Info: PME CALCULATION WILL BE PERFORMED ON GPU
Info: FULL ELECTROSTATIC EVALUATION FREQUENCY      2
Info: USING VERLET I (r-RESPA) MTS SCHEME.
Info: C1 SPLITTING OF LONG RANGE ELECTROSTATICS
Info: PLACING ATOMS IN PATCHES BY HYDROGEN GROUPS
Info: RIGID BONDS TO HYDROGEN : ALL
Info:         ERROR TOLERANCE : 1e-08
Info:          MAX ITERATIONS : 100
Info: RIGID WATER USING SETTLE ALGORITHM
Info: RANDOM NUMBER SEED     1743783196
Info: USE HYDROGEN BONDS?    NO
Info: Using AMBER format force field!
Info: AMBER PARM FILE        mobley_9838013.prmtop
Info: COORDINATE PDB         mobley_9838013.pdb
Info: Exclusions will be read from PARM file!
Info: SCNB (VDW SCALING)     2
Info: USING ARITHMETIC MEAN TO COMBINE L-J SIGMA PARAMETERS
Info: BINARY COORDINATES     mobley_9838013_equil.coor
Info: SUMMARY OF PARAMETERS:
Info: 6 BONDS
Info: 5 ANGLES
Info:   5 HARMONIC
Info:   0 COSINE-BASED
Info: 8 DIHEDRAL
Info: 0 IMPROPER
Info: 0 CROSSTERM
Info: 0 VDW
Info: 15 VDW_PAIRS
Info: 0 NBTHOLE_PAIRS
Info: To read alchdata from file: mobley_9838013.pdb
Info: To read alchflag data from column: 5
Info: STRUCTURE SUMMARY:
Info: 2916 ATOMS
Info: 2915 BONDS
Info: 31 ANGLES
Info: 54 DIHEDRALS
Info: 0 IMPROPERS
Info: 0 CROSSTERMS
Info: 2985 EXCLUSIONS
Info: 2910 RIGID BONDS
Info: ALCH: 0 ATOMS TO DISAPPEAR IN FINAL STATE
Info: ALCH: 18 ATOMS TO APPEAR IN FINAL STATE
Info: 5838 DEGREES OF FREEDOM
Info: 972 HYDROGEN GROUPS
Info: 4 ATOMS IN LARGEST HYDROGEN GROUP
Info: 972 MIGRATION GROUPS
Info: 4 ATOMS IN LARGEST MIGRATION GROUP
Info: TOTAL MASS = 17491.6 amu
Info: TOTAL CHARGE = 3.72529e-08 e
Info: MASS DENSITY = 0.963738 g/cm^3
Info: ATOM DENSITY = 0.0967515 atoms/A^3
Info: ADDED 0 IMPLICIT EXCLUSIONS
Info: NONBONDED TABLE R-SQUARED SPACING: 0.0625
Info: NONBONDED TABLE SIZE: 705 POINTS
Info: REMOVING COM VELOCITY -0.0196506 -0.0507171 0.0295393
Info: Use 3D box decompostion in PME FFT.
Info: Updated CUDA force table with 4096 elements.
Info: Updated CUDA LJ table with 5 x 5 elements.
Info: Found 21 unique exclusion lists needing 52 bytes
TCL: Running for 1500000 steps
ETITLE: TS BOND ANGLE DIHED IMPRP ELECT VDW BOUNDARY MISC KINETIC TOTAL TEMP POTENTIAL TOTALAVG TEMPAVG PRESSURE GPRESSURE VOLUME PRESSAVG GPRESSAVG
ENERGY: 0 1.5195 8.8425 4.8575 0.0000 -10620.9976 1494.5624 0.0000 0.0000 1709.4655 -7401.7503 294.7044 -9111.2158 -7401.7503 294.7044 370.5999 478.4776 30139.0739 370.5999 478.4776
ENERGY: 300000 2.4604 7.6906 6.3989 0.0000 -10599.2306 1391.8292 0.0000 0.0000 1764.2621 -7426.5894 304.1511 -9190.8515 -7366.7616 302.6162 -203.7081 -154.1689 29357.5921 -117.0635 -48.0098
ENERGY: 600000 1.1377 8.6454 4.2074 0.0000 -10618.6068 1446.4359 0.0000 0.0000 1805.1913 -7352.9890 311.2071 -9158.1804 -7361.3431 304.5020 -302.9710 -204.8810 30603.0969 -334.1110 -251.9876
ENERGY: 900000 1.6360 9.1196 4.5285 0.0000 -10611.1357 1475.4178 0.0000 0.0000 1762.0502 -7358.3836 303.7698 -9120.4338 -7365.0015 302.6285 308.1628 378.9546 29754.2343 -279.4769 -202.0540
ENERGY: 1200000 1.2592 8.4902 5.0678 0.0000 -10520.3104 1420.0840 0.0000 0.0000 1760.6373 -7324.7719 303.5262 -9085.4093 -7357.9339 303.5143 -7.5413 124.5932 30069.1082 -159.6056 -84.1026
ENERGY: 1500000 1.3414 6.8570 4.1356 0.0000 -10558.4901 1405.5839 0.0000 0.0000 1770.5470 -7370.0252 305.2346 -9140.5722 -7362.7863 303.1528 -214.1339 -139.3388 29818.8988 -87.5962 -11.2389
TCL: Running FEP window   2: Lambda1 0.05   Lambda2 0.1    [dLambda 0.05  ]
TCL: Setting parameter firsttimestep to 0
TCL: Setting parameter alchLambda to 0.05
Info: NONBONDED TABLE R-SQUARED SPACING: 0.0625
Info: NONBONDED TABLE SIZE: 705 POINTS
TCL: Setting parameter alchLambda2 to 0.1
Info: NONBONDED TABLE R-SQUARED SPACING: 0.0625
Info: NONBONDED TABLE SIZE: 705 POINTS
TCL: Running for 1500000 steps
ETITLE: TS BOND ANGLE DIHED IMPRP ELECT VDW BOUNDARY MISC KINETIC TOTAL TEMP POTENTIAL TOTALAVG TEMPAVG PRESSURE GPRESSURE VOLUME PRESSAVG GPRESSAVG
ENERGY: 0 1.3414 6.8570 4.1356 0.0000 -10558.4897 1406.6652 0.0000 0.0000 1769.7057 -7369.7848 305.0896 -9139.4905 -7369.7848 305.0896 -218.5700 -138.0872 29818.8988 -218.5700 -138.0872
ENERGY: 300000 0.1486 9.8311 4.6420 0.0000 -10581.7441 1403.4389 0.0000 0.0000 1792.4026 -7371.2808 309.0024 -9163.6834 -7346.6989 302.8673 -108.9329 -13.9488 29882.3165 -186.5611 -120.0650
ENERGY: 600000 1.9485 10.0757 4.8233 0.0000 -10477.7796 1375.1428 0.0000 0.0000 1744.4144 -7341.3750 300.7294 -9085.7894 -7356.9640 302.4202 -563.1115 -435.2496 30217.5354 -214.0194 -143.5442
ENERGY: 900000 1.5466 8.0015 4.2623 0.0000 -10547.9510 1400.7170 0.0000 0.0000 1704.5342 -7428.8894 293.8543 -9133.4236 -7364.9275 302.3526 -422.5711 -351.0852 29918.4388 -150.8615 -79.4482
ENERGY: 1200000 1.7896 9.8291 4.9135 0.0000 -10563.1181 1448.9463 0.0000 0.0000 1753.6392 -7344.0003 302.3198 -9097.6396 -7365.7726 302.0335 156.4065 212.4519 30231.3992 -132.0803 -60.6490
ENERGY: 1500000 2.7811 9.4463 3.9286 0.0000 -10592.9702 1413.7525 0.0000 0.0000 1779.4494 -7383.6124 306.7693 -9163.0618 -7370.8161 302.0482 -320.4084 -299.6291 30053.3540 -119.5107 -53.7009
TCL: Running FEP window   3: Lambda1 0.1    Lambda2 0.15000000000000002 [dLambda 0.05000000000000002]
TCL: Setting parameter firsttimestep to 0
TCL: Setting parameter alchLambda to 0.1
Info: NONBONDED TABLE R-SQUARED SPACING: 0.0625
Info: NONBONDED TABLE SIZE: 705 POINTS
TCL: Setting parameter alchLambda2 to 0.15000000000000002
Info: NONBONDED TABLE R-SQUARED SPACING: 0.0625
Info: NONBONDED TABLE SIZE: 705 POINTS
TCL: Running for 1500000 steps
ETITLE: TS BOND ANGLE DIHED IMPRP ELECT VDW BOUNDARY MISC KINETIC TOTAL TEMP POTENTIAL TOTALAVG TEMPAVG PRESSURE GPRESSURE VOLUME PRESSAVG GPRESSAVG
ENERGY: 0 2.7811 9.4463 3.9286 0.0000 -10592.9702 1414.5629 0.0000 0.0000 1778.5633 -7383.6880 306.6166 -9162.2513 -7383.6880 306.6166 -380.3800 -293.4287 30053.3540 -380.3800 -293.4287
ENERGY: 300000 1.4290 8.5614 4.3712 0.0000 -10507.9014 1409.7579 0.0000 0.0000 1723.0222 -7360.7598 297.0415 -9083.7819 -7368.6987 301.3408 -18.1271 41.8064 29892.6879 -85.8601 -15.5497
ENERGY: 600000 0.4425 9.0706 4.2175 0.0000 -10549.8312 1409.1616 0.0000 0.0000 1757.5167 -7369.4223 302.9882 -9126.9390 -7386.0112 300.3913 45.9435 81.9827 29590.4003 -206.6613 -149.6399
ENERGY: 900000 1.7972 5.6257 5.0931 0.0000 -10387.5482 1330.3383 0.0000 0.0000 1729.5832 -7315.1106 298.1726 -9044.6938 -7370.8688 300.6643 -558.3727 -463.3097 30070.8320 -184.4470 -121.5496
ENERGY: 1200000 2.2586 10.6354 4.6346 0.0000 -10564.4126 1379.5017 0.0000 0.0000 1764.0030 -7403.3792 304.1064 -9167.3822 -7378.4058 300.7281 -512.6161 -432.9243 30055.3507 -166.3111 -103.0653
ENERGY: 1500000 3.3952 11.7002 5.8422 0.0000 -10639.0845 1494.5250 0.0000 0.0000 1709.2837 -7414.3383 294.6731 -9123.6220 -7378.9080 300.5174 407.0244 434.6735 30008.2212 -75.8522 -13.9953
TCL: Running FEP window   4: Lambda1 0.15000000000000002 Lambda2 0.2    [dLambda 0.04999999999999999]
TCL: Setting parameter firsttimestep to 0
TCL: Setting parameter alchLambda to 0.15000000000000002
Info: NONBONDED TABLE R-SQUARED SPACING: 0.0625
Info: NONBONDED TABLE SIZE: 705 POINTS
TCL: Setting parameter alchLambda2 to 0.2
Info: NONBONDED TABLE R-SQUARED SPACING: 0.0625
Info: NONBONDED TABLE SIZE: 705 POINTS
TCL: Running for 1500000 steps
ETITLE: TS BOND ANGLE DIHED IMPRP ELECT VDW BOUNDARY MISC KINETIC TOTAL TEMP POTENTIAL TOTALAVG TEMPAVG PRESSURE GPRESSURE VOLUME PRESSAVG GPRESSAVG
ENERGY: 0 3.3952 11.7002 5.8422 0.0000 -10639.0853 1495.4141 0.0000 0.0000 1708.4108 -7414.3228 294.5226 -9122.7336 -7414.3228 294.5226 363.8879 439.2344 30008.2212 363.8879 439.2344
ENERGY: 300000 3.9838 6.8582 4.6111 0.0000 -10649.8454 1439.9854 0.0000 0.0000 1763.1739 -7431.2329 303.9635 -9194.4068 -7373.3497 302.2775 -176.2203 -122.3841 29967.2649 124.5072 189.2165
ENERGY: 600000 1.4915 8.1616 4.2990 0.0000 -10603.4621 1451.2784 0.0000 0.0000 1786.1606 -7352.0709 307.9263 -9138.2315 -7373.5037 301.3786 73.2322 126.1053 30367.3081 118.4441 183.5871
ENERGY: 900000 0.8958 7.2261 4.9617 0.0000 -10437.2871 1358.3476 0.0000 0.0000 1798.1428 -7267.7131 309.9920 -9065.8559 -7391.8083 301.0839 -335.1862 -261.5086 30119.9167 107.8241 173.3498
ENERGY: 1200000 2.0439 11.1576 5.6435 0.0000 -10757.8489 1498.8576 0.0000 0.0000 1753.4517 -7486.6947 302.2874 -9240.1463 -7405.0113 300.3821 47.7296 92.8021 29838.4141 65.4894 126.3147
ENERGY: 1500000 0.6561 11.4006 5.0295 0.0000 -10610.4742 1462.2368 0.0000 0.0000 1677.8387 -7453.3125 289.2521 -9131.1512 -7404.8622 299.6749 310.5166 388.2205 29622.3692 17.4782 84.4281
TCL: Running FEP window   5: Lambda1 0.2    Lambda2 0.25   [dLambda 0.04999999999999999]
TCL: Setting parameter firsttimestep to 0
TCL: Setting parameter alchLambda to 0.2
Info: NONBONDED TABLE R-SQUARED SPACING: 0.0625
Info: NONBONDED TABLE SIZE: 705 POINTS
TCL: Setting parameter alchLambda2 to 0.25
Info: NONBONDED TABLE R-SQUARED SPACING: 0.0625
Info: NONBONDED TABLE SIZE: 705 POINTS
TCL: Running for 1500000 steps
ETITLE: TS BOND ANGLE DIHED IMPRP ELECT VDW BOUNDARY MISC KINETIC TOTAL TEMP POTENTIAL TOTALAVG TEMPAVG PRESSURE GPRESSURE VOLUME PRESSAVG GPRESSAVG
ENERGY: 0 0.6561 11.4006 5.0295 0.0000 -10610.4740 1462.0794 0.0000 0.0000 1676.9651 -7454.3432 289.1015 -9131.3083 -7454.3432 289.1015 299.9192 392.5228 29622.3692 299.9192 392.5228
ENERGY: 300000 1.3425 10.3149 7.3186 0.0000 -10604.7828 1497.0244 0.0000 0.0000 1724.5043 -7364.2780 297.2970 -9088.7823 -7381.9235 301.4442 795.1307 897.4650 29604.2068 410.1625 497.3455
ENERGY: 600000 0.7315 7.2062 4.4284 0.0000 -10674.3292 1467.4962 0.0000 0.0000 1717.2745 -7477.1924 296.0506 -9194.4669 -7412.3462 299.2737 330.5842 375.8775 29450.9242 219.3734 279.4602
ENERGY: 900000 0.9877 8.8311 5.4271 0.0000 -10559.2660 1465.2570 0.0000 0.0000 1729.6460 -7349.1171 298.1834 -9078.7631 -7400.9188 298.2743 275.5837 317.9969 29862.7180 153.8587 204.0354
ENERGY: 1200000 3.1264 10.9448 5.0357 0.0000 -10507.6369 1339.6997 0.0000 0.0000 1748.9094 -7399.9209 301.5044 -9148.8303 -7397.8152 297.9355 -1000.0485 -922.9667 30278.2412 18.8094 61.5266
ENERGY: 1500000 2.3474 8.1351 5.0635 0.0000 -10523.9532 1370.9378 0.0000 0.0000 1737.5478 -7399.9216 299.5457 -9137.4694 -7395.5538 298.2350 -645.2893 -569.2391 30170.9431 -8.6292 35.1759
TCL: Running FEP window   6: Lambda1 0.25   Lambda2 0.3    [dLambda 0.04999999999999999]
TCL: Setting parameter firsttimestep to 0
TCL: Setting parameter alchLambda to 0.25
Info: NONBONDED TABLE R-SQUARED SPACING: 0.0625
Info: NONBONDED TABLE SIZE: 705 POINTS
TCL: Setting parameter alchLambda2 to 0.3
Info: NONBONDED TABLE R-SQUARED SPACING: 0.0625
Info: NONBONDED TABLE SIZE: 705 POINTS
TCL: Running for 1500000 steps
ETITLE: TS BOND ANGLE DIHED IMPRP ELECT VDW BOUNDARY MISC KINETIC TOTAL TEMP POTENTIAL TOTALAVG TEMPAVG PRESSURE GPRESSURE VOLUME PRESSAVG GPRESSAVG
ENERGY: 0 2.3474 8.1351 5.0635 0.0000 -10523.9533 1370.7073 0.0000 0.0000 1736.7404 -7400.9595 299.4065 -9137.7000 -7400.9595 299.4065 -632.2169 -568.5898 30170.9431 -632.2169 -568.5898
ENERGY: 300000 2.7454 6.6177 5.4987 0.0000 -10484.1647 1401.1845 0.0000 0.0000 1720.0601 -7348.0583 296.5309 -9068.1184 -7382.1597 298.8015 22.7610 1.0145 29973.7541 -249.5854 -212.1772
ENERGY: 600000 0.7211 10.6424 4.8678 0.0000 -10521.3523 1430.1508 0.0000 0.0000 1746.9149 -7328.0553 301.1605 -9074.9701 -7399.7959 298.0813 207.8753 245.3546 29745.7118 -139.5175 -99.3147
ENERGY: 900000 2.8197 4.7122 5.2585 0.0000 -10574.2092 1425.4133 0.0000 0.0000 1755.0327 -7380.9728 302.5600 -9136.0055 -7387.0362 298.9279 2.1377 106.2098 29843.9781 -124.5874 -73.9874
ENERGY: 1200000 0.7818 9.5200 4.7368 0.0000 -10589.4747 1478.8725 0.0000 0.0000 1789.0250 -7306.5387 308.4201 -9095.5637 -7392.3960 299.8934 649.9916 729.3121 29748.1983 -70.6923 -19.6102
ENERGY: 1500000 0.9397 8.2258 4.4591 0.0000 -10688.9412 1527.0385 0.0000 0.0000 1772.7801 -7375.4980 305.6196 -9148.2781 -7392.6403 300.1951 743.1583 839.7524 29783.3807 -5.6397 46.7608
TCL: Running FEP window   7: Lambda1 0.3    Lambda2 0.35   [dLambda 0.04999999999999999]
TCL: Setting parameter firsttimestep to 0
TCL: Setting parameter alchLambda to 0.3
Info: NONBONDED TABLE R-SQUARED SPACING: 0.0625
Info: NONBONDED TABLE SIZE: 705 POINTS
TCL: Setting parameter alchLambda2 to 0.35
Info: NONBONDED TABLE R-SQUARED SPACING: 0.0625
Info: NONBONDED TABLE SIZE: 705 POINTS
TCL: Running for 1500000 steps
ETITLE: TS BOND ANGLE DIHED IMPRP ELECT VDW BOUNDARY MISC KINETIC TOTAL TEMP POTENTIAL TOTALAVG TEMPAVG PRESSURE GPRESSURE VOLUME PRESSAVG GPRESSAVG
ENERGY: 0 0.9397 8.2258 4.4591 0.0000 -10688.9411 1526.9004 0.0000 0.0000 1771.9339 -7376.4821 305.4737 -9148.4160 -7376.4821 305.4737 750.9679 842.9264 29783.3807 750.9679 842.9264
ENERGY: 300000 1.6215 10.6558 6.3275 0.0000 -10623.9289 1370.0803 0.0000 0.0000 1748.7860 -7486.4578 301.4831 -9235.2438 -7395.1900 305.2883 -805.0118 -740.6685 29838.7413 299.9609 384.2652
ENERGY: 600000 0.2580 7.9568 5.8446 0.0000 -10469.4389 1365.7198 0.0000 0.0000 1787.3688 -7302.2909 308.1346 -9089.6597 -7387.7230 303.8778 -533.2082 -390.1376 30362.3316 140.6573 235.7801
ENERGY: 900000 0.2073 13.6113 3.9833 0.0000 -10569.4693 1400.5134 0.0000 0.0000 1745.6657 -7405.4883 300.9452 -9151.1540 -7391.7486 303.4429 -205.0854 -202.9283 29946.4770 105.1138 187.5555
ENERGY: 1200000 1.1322 7.6672 4.0062 0.0000 -10544.2545 1428.2193 0.0000 0.0000 1691.3575 -7411.8720 291.5827 -9103.2295 -7404.0192 301.1575 -221.5418 -194.8994 30563.5590 66.2912 135.9017
ENERGY: 1500000 3.6226 6.4970 5.4439 0.0000 -10571.6338 1431.5242 0.0000 0.0000 1823.5889 -7300.9571 314.3788 -9124.5460 -7390.9730 302.3430 35.1216 124.1248 29771.4775 -16.4973 60.3855
TCL: Running FEP window   8: Lambda1 0.35   Lambda2 0.39999999999999997 [dLambda 0.04999999999999999]
TCL: Setting parameter firsttimestep to 0
TCL: Setting parameter alchLambda to 0.35
Info: NONBONDED TABLE R-SQUARED SPACING: 0.0625
Info: NONBONDED TABLE SIZE: 705 POINTS
TCL: Setting parameter alchLambda2 to 0.39999999999999997
Info: NONBONDED TABLE R-SQUARED SPACING: 0.0625
Info: NONBONDED TABLE SIZE: 705 POINTS
TCL: Running for 1500000 steps
ETITLE: TS BOND ANGLE DIHED IMPRP ELECT VDW BOUNDARY MISC KINETIC TOTAL TEMP POTENTIAL TOTALAVG TEMPAVG PRESSURE GPRESSURE VOLUME PRESSAVG GPRESSAVG
ENERGY: 0 3.6226 6.4970 5.4439 0.0000 -10571.6346 1431.5754 0.0000 0.0000 1822.7435 -7301.7522 314.2330 -9124.4957 -7301.7522 314.2330 42.8913 127.2644 29771.4775 42.8913 127.2644
ENERGY: 300000 0.6783 10.0284 5.6974 0.0000 -10489.6604 1343.0701 0.0000 0.0000 1726.0038 -7404.1824 297.5555 -9130.1862 -7366.1072 304.1879 -883.4964 -771.1888 30329.4140 113.7034 177.5653
ENERGY: 600000 3.3775 8.9868 4.9004 0.0000 -10515.3353 1396.2375 0.0000 0.0000 1750.2255 -7351.6077 301.7313 -9101.8332 -7386.7424 300.2056 -112.8695 -121.4919 29994.5405 -176.5377 -120.7937
ENERGY: 900000 1.2445 9.9026 5.4938 0.0000 -10632.9815 1447.6304 0.0000 0.0000 1741.8571 -7426.8532 300.2886 -9168.7102 -7404.4855 299.3889 315.2498 369.9366 29665.2498 45.8029 101.4920
ENERGY: 1200000 2.7368 6.8806 6.1260 0.0000 -10406.5129 1347.7913 0.0000 0.0000 1805.3890 -7237.5893 311.2412 -9042.9783 -7396.9301 299.7704 -471.8126 -433.4940 30045.4844 -80.6724 -22.5784
ENERGY: 1500000 1.0984 11.3056 5.5291 0.0000 -10611.0938 1451.9072 0.0000 0.0000 1699.1536 -7442.0999 292.9267 -9141.2536 -7394.1140 299.7775 121.3818 182.6392 29751.2988 -96.2747 -42.0935
TCL: Running FEP window   9: Lambda1 0.39999999999999997 Lambda2 0.44999999999999996 [dLambda 0.04999999999999999]
TCL: Setting parameter firsttimestep to 0
TCL: Setting parameter alchLambda to 0.39999999999999997
Info: NONBONDED TABLE R-SQUARED SPACING: 0.0625
Info: NONBONDED TABLE SIZE: 705 POINTS
TCL: Setting parameter alchLambda2 to 0.44999999999999996
Info: NONBONDED TABLE R-SQUARED SPACING: 0.0625
Info: NONBONDED TABLE SIZE: 705 POINTS
TCL: Running for 1500000 steps
ETITLE: TS BOND ANGLE DIHED IMPRP ELECT VDW BOUNDARY MISC KINETIC TOTAL TEMP POTENTIAL TOTALAVG TEMPAVG PRESSURE GPRESSURE VOLUME PRESSAVG GPRESSAVG
ENERGY: 0 1.0984 11.3056 5.5291 0.0000 -10611.0946 1452.0162 0.0000 0.0000 1698.3109 -7442.8345 292.7814 -9141.1454 -7442.8345 292.7814 100.1354 186.0932 29751.2988 100.1354 186.0932
ENERGY: 300000 0.7915 11.6230 5.6639 0.0000 -10652.1586 1467.1901 0.0000 0.0000 1783.2020 -7383.6881 307.4163 -9166.8900 -7419.9685 300.6757 275.2308 298.9936 30083.1004 56.8509 108.1829
ENERGY: 600000 3.1345 11.1583 5.2284 0.0000 -10512.1361 1377.7590 0.0000 0.0000 1663.8381 -7451.0179 286.8385 -9114.8560 -7417.7778 298.3700 -799.5124 -737.0845 30303.6425 -54.8271 -3.1420
ENERGY: 900000 1.2832 15.0561 5.2065 0.0000 -10560.2687 1384.9297 0.0000 0.0000 1735.6579 -7418.1353 299.2199 -9153.7932 -7410.6745 299.1561 -325.8083 -269.2144 30024.3322 -67.0982 -7.3302
ENERGY: 1200000 1.0641 7.8426 4.4882 0.0000 -10529.5470 1439.6418 0.0000 0.0000 1785.2343 -7291.2759 307.7666 -9076.5103 -7400.4330 299.8566 314.9318 399.1948 29824.7039 -26.1836 33.9984
ENERGY: 1500000 1.5018 6.9374 5.6906 0.0000 -10637.4978 1495.9546 0.0000 0.0000 1731.3890 -7396.0244 298.4839 -9127.4134 -7398.5352 299.7440 608.5008 608.1008 29988.3100 -50.9612 4.0293
TCL: Running FEP window  10: Lambda1 0.44999999999999996 Lambda2 0.49999999999999994 [dLambda 0.04999999999999999]
TCL: Setting parameter firsttimestep to 0
TCL: Setting parameter alchLambda to 0.44999999999999996
Info: NONBONDED TABLE R-SQUARED SPACING: 0.0625
Info: NONBONDED TABLE SIZE: 705 POINTS
TCL: Setting parameter alchLambda2 to 0.49999999999999994
Info: NONBONDED TABLE R-SQUARED SPACING: 0.0625
Info: NONBONDED TABLE SIZE: 705 POINTS
TCL: Running for 1500000 steps
ETITLE: TS BOND ANGLE DIHED IMPRP ELECT VDW BOUNDARY MISC KINETIC TOTAL TEMP POTENTIAL TOTALAVG TEMPAVG PRESSURE GPRESSURE VOLUME PRESSAVG GPRESSAVG
ENERGY: 0 1.5018 6.9374 5.6906 0.0000 -10637.4973 1495.8467 0.0000 0.0000 1730.5595 -7396.9613 298.3409 -9127.5208 -7396.9613 298.3409 530.2595 610.9474 29988.3100 530.2595 610.9474
ENERGY: 300000 1.7294 8.3322 4.3565 0.0000 -10363.6741 1259.9522 0.0000 0.0000 1667.9678 -7421.3359 287.5504 -9089.3037 -7368.4886 296.2779 -1260.7385 -1241.1550 29965.4910 -216.8888 -171.9641
ENERGY: 600000 1.1075 9.6462 5.2621 0.0000 -10497.0715 1409.5122 0.0000 0.0000 1750.3048 -7321.2387 301.7449 -9071.5435 -7380.6703 297.2111 -233.4444 -175.7012 30418.4447 -343.6678 -303.3445
ENERGY: 900000 1.8420 8.6369 3.9911 0.0000 -10550.8094 1378.3470 0.0000 0.0000 1743.7139 -7414.2784 300.6087 -9157.9924 -7374.8861 299.6202 -447.5795 -407.8862 30012.6802 -264.6647 -210.9877
ENERGY: 1200000 2.5437 4.7965 3.7790 0.0000 -10542.2058 1366.7333 0.0000 0.0000 1725.9452 -7438.4082 297.5454 -9164.3534 -7392.6757 299.6818 -473.8998 -542.7463 29976.5888 -266.2503 -219.8210
ENERGY: 1500000 0.4041 9.4857 4.6878 0.0000 -10599.2666 1392.4261 0.0000 0.0000 1704.4192 -7487.8436 293.8344 -9192.2628 -7396.2406 299.6656 -545.6904 -450.6164 30107.4760 -234.9486 -187.7382
TCL: Running FEP window  11: Lambda1 0.49999999999999994 Lambda2 0.5499999999999999 [dLambda 0.04999999999999999]
TCL: Setting parameter firsttimestep to 0
TCL: Setting parameter alchLambda to 0.49999999999999994
Info: NONBONDED TABLE R-SQUARED SPACING: 0.0625
Info: NONBONDED TABLE SIZE: 705 POINTS
TCL: Setting parameter alchLambda2 to 0.5499999999999999
Info: NONBONDED TABLE R-SQUARED SPACING: 0.0625
Info: NONBONDED TABLE SIZE: 705 POINTS
TCL: Running for 1500000 steps
ETITLE: TS BOND ANGLE DIHED IMPRP ELECT VDW BOUNDARY MISC KINETIC TOTAL TEMP POTENTIAL TOTALAVG TEMPAVG PRESSURE GPRESSURE VOLUME PRESSAVG GPRESSAVG
ENERGY: 0 0.4041 9.4857 4.6878 0.0000 -10599.2671 1392.2467 0.0000 0.0000 1703.5417 -7488.9010 293.6832 -9192.4428 -7488.9010 293.6832 -530.5767 -446.9327 30107.4760 -530.5767 -446.9327
ENERGY: 300000 1.2261 8.5286 4.4454 0.0000 -10405.1344 1297.2734 0.0000 0.0000 1744.0726 -7349.5884 300.6705 -9093.6610 -7398.0564 300.0639 -892.2353 -867.7123 30075.0910 -541.0041 -474.5100
ENERGY: 600000 1.0793 7.6867 3.7802 0.0000 -10554.1769 1400.4964 0.0000 0.0000 1761.2112 -7379.9231 303.6251 -9141.1343 -7399.7118 300.2691 -302.1386 -258.1106 30262.3062 -430.6671 -378.1481
ENERGY: 900000 2.6917 10.5022 4.1868 0.0000 -10427.5615 1373.5848 0.0000 0.0000 1793.6993 -7242.8967 309.2260 -9036.5961 -7374.1571 301.1825 85.9406 114.1090 29618.5223 -320.9413 -269.4546
ENERGY: 1200000 3.5584 7.2587 6.6420 0.0000 -10568.0633 1462.6100 0.0000 0.0000 1717.5567 -7370.4375 296.0993 -9087.9942 -7386.3211 299.2371 339.6926 394.1699 30088.7607 -278.2337 -230.0300
ENERGY: 1500000 2.7530 7.9403 4.5103 0.0000 -10361.4020 1312.0765 0.0000 0.0000 1736.9543 -7297.1676 299.4434 -9034.1219 -7361.7662 300.1483 -536.8472 -486.3699 30044.5246 -269.5278 -224.0607
TCL: Running FEP window  12: Lambda1 0.5499999999999999 Lambda2 0.6    [dLambda 0.050000000000000044]
TCL: Setting parameter firsttimestep to 0
TCL: Setting parameter alchLambda to 0.5499999999999999
Info: NONBONDED TABLE R-SQUARED SPACING: 0.0625
Info: NONBONDED TABLE SIZE: 705 POINTS
TCL: Setting parameter alchLambda2 to 0.6
Info: NONBONDED TABLE R-SQUARED SPACING: 0.0625
Info: NONBONDED TABLE SIZE: 705 POINTS
TCL: Running for 1500000 steps
ETITLE: TS BOND ANGLE DIHED IMPRP ELECT VDW BOUNDARY MISC KINETIC TOTAL TEMP POTENTIAL TOTALAVG TEMPAVG PRESSURE GPRESSURE VOLUME PRESSAVG GPRESSAVG
ENERGY: 0 2.7530 7.9403 4.5103 0.0000 -10360.7491 1311.8989 0.0000 0.0000 1736.0925 -7297.5541 299.2948 -9033.6467 -7297.5541 299.2948 -569.8184 -478.8793 30044.5246 -569.8184 -478.8793
ENERGY: 300000 0.9950 11.5069 5.0522 0.0000 -10502.7744 1386.3281 0.0000 0.0000 1786.1374 -7312.7548 307.9223 -9098.8922 -7326.4127 304.1801 -322.4012 -275.2019 30395.8778 -51.7231 -4.3867
ENERGY: 600000 0.8117 7.6628 4.2379 0.0000 -10539.4667 1350.3487 0.0000 0.0000 1793.7171 -7382.6885 309.2290 -9176.4056 -7349.7332 303.4213 -693.8406 -610.6276 30173.9756 -177.5141 -115.2512
ENERGY: 900000 4.0221 7.3401 5.4216 0.0000 -10447.6326 1375.2385 0.0000 0.0000 1769.7415 -7285.8688 305.0957 -9055.6103 -7353.9733 302.7148 -249.0765 -158.0683 30019.3672 -181.5673 -112.0967
ENERGY: 1200000 1.5415 15.6826 5.4665 0.0000 -10539.7366 1416.8252 0.0000 0.0000 1734.1299 -7366.0909 298.9564 -9100.2208 -7355.4872 302.2047 164.9692 241.9061 29879.2623 -135.8402 -60.2351
ENERGY: 1500000 2.7923 11.6372 4.5312 0.0000 -10647.9462 1411.3688 0.0000 0.0000 1774.8815 -7442.7353 305.9818 -9217.6168 -7365.3396 300.9100 -226.8346 -109.3579 29439.5857 -176.3654 -101.5097
TCL: Running FEP window  13: Lambda1 0.6    Lambda2 0.65   [dLambda 0.050000000000000044]
TCL: Setting parameter firsttimestep to 0
TCL: Setting parameter alchLambda to 0.6
Info: NONBONDED TABLE R-SQUARED SPACING: 0.0625
Info: NONBONDED TABLE SIZE: 705 POINTS
TCL: Setting parameter alchLambda2 to 0.65
Info: NONBONDED TABLE R-SQUARED SPACING: 0.0625
Info: NONBONDED TABLE SIZE: 705 POINTS
TCL: Running for 1500000 steps
ETITLE: TS BOND ANGLE DIHED IMPRP ELECT VDW BOUNDARY MISC KINETIC TOTAL TEMP POTENTIAL TOTALAVG TEMPAVG PRESSURE GPRESSURE VOLUME PRESSAVG GPRESSAVG
ENERGY: 0 2.7923 11.6372 4.5312 0.0000 -10649.0156 1411.9481 0.0000 0.0000 1774.0147 -7444.0921 305.8324 -9218.1067 -7444.0921 305.8324 -185.4889 -101.0056 29439.5857 -185.4889 -101.0056
ENERGY: 300000 3.0327 12.5947 4.7481 0.0000 -10689.8801 1474.2435 0.0000 0.0000 1749.6190 -7445.6420 301.6267 -9195.2610 -7411.2308 304.0933 581.1683 586.2698 29500.0277 444.2330 486.1308
ENERGY: 600000 1.6746 9.2037 4.4185 0.0000 -10626.1883 1483.3332 0.0000 0.0000 1757.3152 -7370.2432 302.9535 -9127.5584 -7386.8853 303.9327 529.7870 602.8665 29780.6717 383.8287 451.8688
ENERGY: 900000 2.8179 8.5308 4.9285 0.0000 -10486.3283 1365.0885 0.0000 0.0000 1808.7043 -7296.2583 311.8127 -9104.9626 -7379.3619 304.0994 -253.4183 -170.6558 29807.2188 250.3105 322.8643
ENERGY: 1200000 1.5016 7.6245 4.0792 0.0000 -10479.1307 1369.4594 0.0000 0.0000 1752.1357 -7344.3303 302.0606 -9096.4660 -7374.6520 302.5763 -614.3804 -524.3426 30388.0063 209.9455 276.8887
ENERGY: 1500000 1.5480 6.8692 4.1572 0.0000 -10561.3636 1470.0149 0.0000 0.0000 1740.4247 -7338.3496 300.0416 -9078.7743 -7380.6315 301.5328 530.0103 574.5624 29824.4612 118.4035 187.2885
TCL: Running FEP window  14: Lambda1 0.65   Lambda2 0.7000000000000001 [dLambda 0.050000000000000044]
TCL: Setting parameter firsttimestep to 0
TCL: Setting parameter alchLambda to 0.65
Info: NONBONDED TABLE R-SQUARED SPACING: 0.0625
Info: NONBONDED TABLE SIZE: 705 POINTS
TCL: Setting parameter alchLambda2 to 0.7000000000000001
Info: NONBONDED TABLE R-SQUARED SPACING: 0.0625
Info: NONBONDED TABLE SIZE: 705 POINTS
TCL: Running for 1500000 steps
ETITLE: TS BOND ANGLE DIHED IMPRP ELECT VDW BOUNDARY MISC KINETIC TOTAL TEMP POTENTIAL TOTALAVG TEMPAVG PRESSURE GPRESSURE VOLUME PRESSAVG GPRESSAVG
ENERGY: 0 1.5481 6.8692 4.1572 0.0000 -10561.2410 1469.7118 0.0000 0.0000 1739.5916 -7339.3631 299.8980 -9078.9547 -7339.3631 299.8980 494.2724 581.0605 29824.4612 494.2724 581.0605
ENERGY: 300000 4.8927 3.6361 5.2074 0.0000 -10639.1117 1460.7444 0.0000 0.0000 1679.0575 -7485.5735 289.4622 -9164.6310 -7439.4534 294.1790 -309.1489 -217.7747 30354.3164 -129.0389 -38.5661
ENERGY: 600000 1.8979 11.8105 4.6537 0.0000 -10591.8091 1445.0271 0.0000 0.0000 1731.7210 -7396.6990 298.5412 -9128.4200 -7421.3886 297.2507 277.4567 342.9682 30005.7572 -17.7390 61.5253
ENERGY: 900000 0.1150 7.0980 5.5236 0.0000 -10461.5336 1352.3354 0.0000 0.0000 1728.2373 -7368.2244 297.9406 -9096.4616 -7391.6544 298.3543 -571.4311 -524.4492 30256.4716 -3.1282 66.7712
ENERGY: 1200000 1.2432 16.3306 4.3422 0.0000 -10466.4375 1381.3414 0.0000 0.0000 1743.5757 -7319.6043 300.5849 -9063.1801 -7387.4496 298.7320 -474.4681 -423.1892 30560.1876 -57.9187 14.4804
ENERGY: 1500000 0.6261 7.9927 4.4337 0.0000 -10705.6742 1518.7798 0.0000 0.0000 1724.8120 -7449.0298 297.3501 -9173.8419 -7399.4932 298.4053 891.3234 939.4283 29517.6438 -101.3578 -21.9676
TCL: Running FEP window  15: Lambda1 0.7000000000000001 Lambda2 0.7500000000000001 [dLambda 0.050000000000000044]
TCL: Setting parameter firsttimestep to 0
TCL: Setting parameter alchLambda to 0.7000000000000001
Info: NONBONDED TABLE R-SQUARED SPACING: 0.0625
Info: NONBONDED TABLE SIZE: 705 POINTS
TCL: Setting parameter alchLambda2 to 0.7500000000000001
Info: NONBONDED TABLE R-SQUARED SPACING: 0.0625
Info: NONBONDED TABLE SIZE: 705 POINTS
TCL: Running for 1500000 steps
ETITLE: TS BOND ANGLE DIHED IMPRP ELECT VDW BOUNDARY MISC KINETIC TOTAL TEMP POTENTIAL TOTALAVG TEMPAVG PRESSURE GPRESSURE VOLUME PRESSAVG GPRESSAVG
ENERGY: 0 0.6261 7.9927 4.4337 0.0000 -10705.8335 1518.9380 0.0000 0.0000 1723.9620 -7449.8810 297.2035 -9173.8430 -7449.8810 297.2035 880.4703 951.9083 29517.6438 880.4703 951.9083
ENERGY: 300000 1.9592 11.1369 4.5275 0.0000 -10446.5812 1353.4204 0.0000 0.0000 1737.1480 -7338.3893 299.4768 -9075.5373 -7397.3198 299.0288 -755.0368 -600.3624 30475.5892 -83.2815 2.3439
ENERGY: 600000 0.7146 9.5098 4.0720 0.0000 -10640.4596 1432.0460 0.0000 0.0000 1643.3824 -7550.7349 283.3120 -9194.1173 -7401.1990 297.3734 -81.9628 -22.7000 29743.1422 -72.6514 1.2482
ENERGY: 900000 0.3701 8.6968 4.8008 0.0000 -10644.7011 1494.8514 0.0000 0.0000 1760.1660 -7375.8160 303.4450 -9135.9820 -7398.4376 298.2223 688.2975 705.6626 29723.0475 -92.1534 -14.6314
ENERGY: 1200000 2.2280 4.9749 3.8033 0.0000 -10470.4250 1359.5193 0.0000 0.0000 1713.3934 -7386.5060 295.3816 -9099.8994 -7400.4953 297.9428 -283.6618 -212.5826 30042.7857 -96.3696 -26.0065
ENERGY: 1500000 3.8298 12.3925 5.2135 0.0000 -10634.0221 1439.7872 0.0000 0.0000 1725.3570 -7447.4421 297.4440 -9172.7991 -7405.8622 298.3407 118.6079 87.3673 29708.6700 -83.9234 -17.3460
TCL: Running FEP window  16: Lambda1 0.7500000000000001 Lambda2 0.8000000000000002 [dLambda 0.050000000000000044]
TCL: Setting parameter firsttimestep to 0
TCL: Setting parameter alchLambda to 0.7500000000000001
Info: NONBONDED TABLE R-SQUARED SPACING: 0.0625
Info: NONBONDED TABLE SIZE: 705 POINTS
TCL: Setting parameter alchLambda2 to 0.8000000000000002
Info: NONBONDED TABLE R-SQUARED SPACING: 0.0625
Info: NONBONDED TABLE SIZE: 705 POINTS
TCL: Running for 1500000 steps
ETITLE: TS BOND ANGLE DIHED IMPRP ELECT VDW BOUNDARY MISC KINETIC TOTAL TEMP POTENTIAL TOTALAVG TEMPAVG PRESSURE GPRESSURE VOLUME PRESSAVG GPRESSAVG
ENERGY: 0 3.8298 12.3925 5.2135 0.0000 -10634.4276 1439.9808 0.0000 0.0000 1724.4535 -7448.5575 297.2883 -9173.0111 -7448.5575 297.2883 19.3946 95.4981 29708.6700 19.3946 95.4981
ENERGY: 300000 3.7784 5.0114 5.1145 0.0000 -10519.0981 1431.1531 0.0000 0.0000 1761.4054 -7312.6353 303.6586 -9074.0407 -7387.2664 299.6672 -4.7286 58.7026 30244.7286 176.3325 253.6385
ENERGY: 600000 0.7688 6.9313 4.9896 0.0000 -10610.6029 1446.5706 0.0000 0.0000 1756.0460 -7395.2966 302.7347 -9151.3426 -7402.3226 301.2548 326.9076 443.6350 29680.1130 183.8141 264.7110
ENERGY: 900000 0.6820 7.8060 4.7664 0.0000 -10614.1276 1403.2961 0.0000 0.0000 1705.3452 -7492.2320 293.9941 -9197.5772 -7404.1600 301.3606 -293.6060 -195.6980 29902.1832 -3.8834 78.4850
ENERGY: 1200000 4.6205 7.7773 4.7838 0.0000 -10642.6556 1488.8235 0.0000 0.0000 1720.7375 -7415.9130 296.6477 -9136.6505 -7408.3169 300.2289 523.3743 589.7547 29612.3286 -10.8572 66.8622
ENERGY: 1500000 1.1727 7.5200 4.5040 0.0000 -10763.2538 1507.6323 0.0000 0.0000 1706.7240 -7535.7008 294.2318 -9242.4248 -7423.7956 299.7487 427.7644 473.2157 29736.8675 88.6336 169.6129
TCL: Running FEP window  17: Lambda1 0.8000000000000002 Lambda2 0.8500000000000002 [dLambda 0.050000000000000044]
TCL: Setting parameter firsttimestep to 0
TCL: Setting parameter alchLambda to 0.8000000000000002
Info: NONBONDED TABLE R-SQUARED SPACING: 0.0625
Info: NONBONDED TABLE SIZE: 705 POINTS
TCL: Setting parameter alchLambda2 to 0.8500000000000002
Info: NONBONDED TABLE R-SQUARED SPACING: 0.0625
Info: NONBONDED TABLE SIZE: 705 POINTS
TCL: Running for 1500000 steps
ETITLE: TS BOND ANGLE DIHED IMPRP ELECT VDW BOUNDARY MISC KINETIC TOTAL TEMP POTENTIAL TOTALAVG TEMPAVG PRESSURE GPRESSURE VOLUME PRESSAVG GPRESSAVG
ENERGY: 0 1.1727 7.5200 4.5040 0.0000 -10765.0976 1508.4030 0.0000 0.0000 1705.8606 -7537.6373 294.0829 -9243.4978 -7537.6373 294.0829 421.4688 487.7987 29736.8675 421.4688 487.7987
ENERGY: 300000 1.8652 6.0295 5.7817 0.0000 -10554.0717 1389.2116 0.0000 0.0000 1778.5979 -7372.5858 306.6225 -9151.1837 -7439.2019 301.4418 -525.6942 -444.8710 30505.8095 -19.0077 39.8464
ENERGY: 600000 1.6421 5.5334 3.7670 0.0000 -10537.3973 1425.1963 0.0000 0.0000 1718.7017 -7382.5568 296.2967 -9101.2586 -7417.3335 300.3582 9.4852 98.1445 30240.2173 -112.4523 -54.9124
ENERGY: 900000 4.0012 12.0004 3.9802 0.0000 -10678.8505 1493.6195 0.0000 0.0000 1776.8905 -7388.3587 306.3282 -9165.2493 -7410.9299 300.3422 785.2138 882.7486 29374.7603 4.0247 75.8584
ENERGY: 1200000 3.2599 9.6156 4.3574 0.0000 -10557.0518 1416.8092 0.0000 0.0000 1794.3198 -7328.6899 309.3329 -9123.0097 -7400.0229 300.9931 -181.7372 -98.7934 29982.8746 -156.1066 -86.2378
ENERGY: 1500000 2.8313 9.3501 5.0744 0.0000 -10360.4489 1240.1657 0.0000 0.0000 1727.9964 -7375.0310 297.8991 -9103.0274 -7406.5847 300.0742 -1269.9271 -1228.1055 30235.8591 -226.6725 -159.1753
TCL: Running FEP window  18: Lambda1 0.8500000000000002 Lambda2 0.9000000000000002 [dLambda 0.050000000000000044]
TCL: Setting parameter firsttimestep to 0
TCL: Setting parameter alchLambda to 0.8500000000000002
Info: NONBONDED TABLE R-SQUARED SPACING: 0.0625
Info: NONBONDED TABLE SIZE: 705 POINTS
TCL: Setting parameter alchLambda2 to 0.9000000000000002
Info: NONBONDED TABLE R-SQUARED SPACING: 0.0625
Info: NONBONDED TABLE SIZE: 705 POINTS
TCL: Running for 1500000 steps
ETITLE: TS BOND ANGLE DIHED IMPRP ELECT VDW BOUNDARY MISC KINETIC TOTAL TEMP POTENTIAL TOTALAVG TEMPAVG PRESSURE GPRESSURE VOLUME PRESSAVG GPRESSAVG
ENERGY: 0 2.8313 9.3501 5.0744 0.0000 -10361.7715 1240.2263 0.0000 0.0000 1727.1600 -7377.1295 297.7549 -9104.2894 -7377.1295 297.7549 -1300.1667 -1219.5276 30235.8591 -1300.1667 -1219.5276
ENERGY: 300000 3.4340 10.1038 6.2978 0.0000 -10496.2208 1386.6536 0.0000 0.0000 1784.8479 -7304.8837 307.7000 -9089.7316 -7364.0752 302.7447 -10.3597 11.1273 30043.9142 -611.0630 -560.1217
ENERGY: 600000 1.1551 10.8848 5.5004 0.0000 -10622.6700 1483.3014 0.0000 0.0000 1754.6524 -7367.1760 302.4944 -9121.8283 -7366.8441 302.2336 516.5429 534.9302 30232.5641 -366.2948 -334.9682
ENERGY: 900000 1.0637 6.0786 4.6357 0.0000 -10676.9675 1505.8035 0.0000 0.0000 1696.1176 -7463.2684 292.4033 -9159.3860 -7384.3920 299.8713 843.2932 839.2858 29590.5503 -11.1935 21.3299
ENERGY: 1200000 1.3446 12.4884 5.0523 0.0000 -10563.7895 1353.6933 0.0000 0.0000 1753.1145 -7438.0964 302.2293 -9191.2110 -7390.8079 300.1146 -567.9481 -477.6108 29893.4709 -78.3789 -38.5703
ENERGY: 1500000 4.8295 12.0650 5.0550 0.0000 -10718.0377 1498.0932 0.0000 0.0000 1695.8023 -7502.1926 292.3489 -9197.9950 -7399.7168 300.0129 639.5037 642.8505 29411.8594 -96.8428 -65.3976
TCL: Running FEP window  19: Lambda1 0.9000000000000002 Lambda2 0.9500000000000003 [dLambda 0.050000000000000044]
TCL: Setting parameter firsttimestep to 0
TCL: Setting parameter alchLambda to 0.9000000000000002
Info: NONBONDED TABLE R-SQUARED SPACING: 0.0625
Info: NONBONDED TABLE SIZE: 705 POINTS
TCL: Setting parameter alchLambda2 to 0.9500000000000003
Info: NONBONDED TABLE R-SQUARED SPACING: 0.0625
Info: NONBONDED TABLE SIZE: 705 POINTS
TCL: Running for 1500000 steps
ETITLE: TS BOND ANGLE DIHED IMPRP ELECT VDW BOUNDARY MISC KINETIC TOTAL TEMP POTENTIAL TOTALAVG TEMPAVG PRESSURE GPRESSURE VOLUME PRESSAVG GPRESSAVG
ENERGY: 0 4.8295 12.0650 5.0550 0.0000 -10718.7195 1497.9294 0.0000 0.0000 1694.9167 -7503.9239 292.1963 -9198.8406 -7503.9239 292.1963 554.4956 648.0227 29411.8594 554.4956 648.0227
ENERGY: 300000 1.0521 9.0279 4.6726 0.0000 -10534.3598 1408.1519 0.0000 0.0000 1778.4934 -7332.9619 306.6045 -9111.4553 -7400.2035 294.4348 87.4961 173.5311 30079.0823 315.6632 407.9145
ENERGY: 600000 2.0713 7.2642 4.6550 0.0000 -10620.6954 1443.3452 0.0000 0.0000 1760.5341 -7402.8256 303.5084 -9163.3597 -7391.4831 299.7837 158.2922 198.9942 29963.5182 199.3767 286.8097
ENERGY: 900000 1.0460 7.5902 5.1013 0.0000 -10662.7953 1440.1349 0.0000 0.0000 1722.8321 -7486.0908 297.0088 -9208.9229 -7405.4909 299.3360 -115.1475 -4.7116 30078.6528 60.6295 139.8348
ENERGY: 1200000 3.2968 9.4639 4.9826 0.0000 -10544.7200 1385.4124 0.0000 0.0000 1758.0034 -7383.5610 303.0721 -9141.5644 -7396.5139 299.5950 -412.2721 -325.7111 30211.2747 52.3908 131.4954
ENERGY: 1500000 2.1165 8.5887 4.1423 0.0000 -10415.9853 1284.6666 0.0000 0.0000 1770.2295 -7346.2417 305.1799 -9116.4712 -7385.8702 301.1723 -1088.0109 -986.0564 30062.7655 -60.9019 14.9337
TCL: Running FEP window  20: Lambda1 0.9500000000000003 Lambda2 1.0    [dLambda 0.04999999999999971]
TCL: Setting parameter firsttimestep to 0
TCL: Setting parameter alchLambda to 0.9500000000000003
Info: NONBONDED TABLE R-SQUARED SPACING: 0.0625
Info: NONBONDED TABLE SIZE: 705 POINTS
TCL: Setting parameter alchLambda2 to 1.0
Info: NONBONDED TABLE R-SQUARED SPACING: 0.0625
Info: NONBONDED TABLE SIZE: 705 POINTS
TCL: Running for 1500000 steps
ETITLE: TS BOND ANGLE DIHED IMPRP ELECT VDW BOUNDARY MISC KINETIC TOTAL TEMP POTENTIAL TOTALAVG TEMPAVG PRESSURE GPRESSURE VOLUME PRESSAVG GPRESSAVG
ENERGY: 0 2.1165 8.5887 4.1423 0.0000 -10416.9897 1284.3124 0.0000 0.0000 1769.3854 -7348.4444 305.0343 -9117.8298 -7348.4444 305.0343 -1074.6586 -985.1498 30062.7655 -1074.6586 -985.1498
ENERGY: 300000 0.3964 8.0024 4.7069 0.0000 -10435.2655 1373.8376 0.0000 0.0000 1753.1908 -7295.1314 302.2425 -9048.3222 -7355.9072 302.3905 -258.5231 -189.8890 30462.2553 -252.6260 -173.0814
ENERGY: 600000 0.7801 9.7203 4.3606 0.0000 -10560.7730 1435.9997 0.0000 0.0000 1702.7092 -7407.2031 293.5397 -9109.9123 -7358.6135 302.1610 173.4357 260.5640 30169.8822 -204.0548 -126.6337
ENERGY: 900000 1.4296 11.1060 4.6644 0.0000 -10570.7285 1351.7087 0.0000 0.0000 1698.4932 -7503.3267 292.8128 -9201.8198 -7375.0384 301.0190 -721.0493 -687.7082 29869.4918 -282.0320 -216.0405
ENERGY: 1200000 1.3879 7.7583 5.6019 0.0000 -10561.5710 1436.7808 0.0000 0.0000 1722.1658 -7387.8763 296.8939 -9110.0422 -7380.6478 299.3841 263.7311 338.1233 30159.4113 -198.0468 -136.0277
ENERGY: 1500000 2.2372 7.7376 4.8603 0.0000 -10398.0462 1338.7048 0.0000 0.0000 1715.7122 -7328.7940 295.7813 -9044.5062 -7374.7699 300.1519 -376.7624 -275.4112 30125.7929 -254.9937 -190.3561
TCL: Exiting due to exit command.
