Info: SIMULATION PARAMETERS:
Info: TIMESTEP               2
Info: NUMBER OF STEPS        0
Info: STEPS PER CYCLE        10
Info: PERIODIC CELL BASIS 1  32.7503 0 0
Info: PERIODIC CELL BASIS 2  0 31.5561 0
Info: PERIODIC CELL BASIS 3  0 0 29.8777
Info: PERIODIC CELL CENTER   0 0 0
Info: WRAPPING WATERS AROUND PERIODIC BOUNDARIES ON OUTPUT.
Info: WRAPPING ALL CLUSTERS AROUND PERIODIC BOUNDARIES ON OUTPUT.
Info: FIRST LDB TIMESTEP     50
Info: LAST LDB TIMESTEP     -1
Info: HOM BACKGROUND SCALING 1
Info: PME BACKGROUND SCALING 1
Info: MIN ATOMS PER PATCH    40
Info: EMPTY PATCH LOAD       40 ATOMS
Info: VELOCITY FILE          mobley_2487143_equil.vel
Info: CENTER OF MASS MOVING INITIALLY? NO
Info: DIELECTRIC             1
Info: EXCLUDE                SCALED ONE-FOUR
Info: 1-4 ELECTROSTATICS SCALED BY 0.833333
Info: MODIFIED 1-4 VDW PARAMETERS WILL BE USED
Info: DCD FILENAME           mobley_2487143_prod.dcd
Info: DCD FREQUENCY          100000
Info: DCD FIRST STEP         100000
Info: DCD FILE WILL CONTAIN UNIT CELL DATA
Info: XST FILENAME           mobley_2487143_prod.xst
Info: XST FREQUENCY          100000
Info: NO VELOCITY DCD OUTPUT
Info: NO FORCE DCD OUTPUT
Info: OUTPUT FILENAME        mobley_2487143_prod
Info: BINARY OUTPUT FILES WILL BE USED
Info: RESTART FILENAME       mobley_2487143_prod.restart
Info: RESTART FREQUENCY      100000
Info: BINARY RESTART FILES WILL BE USED
Info: CUTOFF                 9
Info: PAIRLIST DISTANCE      11
Info: PAIRLIST SHRINK RATE   0.01
Info: PAIRLIST GROW RATE     0.01
Info: PAIRLIST TRIGGER       0.3
Info: PAIRLISTS PER CYCLE    2
Info: PAIRLISTS ENABLED
Info: MARGIN                 2
Info: HYDROGEN GROUP CUTOFF  2.5
Info: PATCH DIMENSION        15.5
Info: ENERGY OUTPUT STEPS    100000
Info: ENERGY EVALUATION STEPS    100000
Info: OUTPUT ENERGY PRECISION 4
Info: CROSSTERM ENERGY INCLUDED IN DIHEDRAL
Info: TIMING OUTPUT STEPS    1000000
Info: PRESSURE OUTPUT STEPS  100000
Info: ALCHEMICAL FEP ON
Info: FEP CURRENT LAMBDA VALUE     0
Info: FEP COMPARISON LAMBDA VALUE  0.05
Info: FEP INTRA-ALCHEMICAL NON-BONDED INTERACTIONS WILL BE RETAINED
Info: FEP INTRA-ALCHEMICAL BONDED INTERACTIONS WILL BE RETAINED
Info: FEP VDW SHIFTING COEFFICIENT 5
Info: FEP ELEC. ACTIVE FOR ANNIHILATED PARTICLES BETWEEN LAMBDA = 0 AND LAMBDA = 0.5
Info: FEP ELEC. ACTIVE FOR EXNIHILATED PARTICLES BETWEEN LAMBDA = 0.5 AND LAMBDA = 1
Info: FEP VDW ACTIVE FOR ANNIHILATED PARTICLES BETWEEN LAMBDA = 0 AND LAMBDA = 1
Info: FEP VDW ACTIVE FOR EXNIHILATED PARTICLES BETWEEN LAMBDA = 0 AND LAMBDA = 1
Info: FEP BOND ACTIVE FOR ANNIHILATED PARTICLES BETWEEN LAMBDA = 1 AND LAMBDA = 1
Info: FEP BOND ACTIVE FOR EXNIHILATED PARTICLES BETWEEN LAMBDA = 0 AND LAMBDA = 0
Info: LANGEVIN DYNAMICS ACTIVE
Info: LANGEVIN TEMPERATURE   300
Info: LANGEVIN USING BBK INTEGRATOR
Info: LANGEVIN DAMPING COEFFICIENT IS 1 INVERSE PS
Info: LANGEVIN DYNAMICS APPLIED TO HYDROGENS
Info: LANGEVIN PISTON PRESSURE CONTROL ACTIVE
Info:        TARGET PRESSURE IS 1.01325 BAR
Info:     OSCILLATION PERIOD IS 50 FS
Info:             DECAY TIME IS 25 FS
Info:     PISTON TEMPERATURE IS 300 K
Info:       PRESSURE CONTROL IS GROUP-BASED
Info:    INITIAL STRAIN RATE IS -0.0006499 -0.0006499 -0.0006499
Info:       CELL FLUCTUATION IS ISOTROPIC
Info: PARTICLE MESH EWALD (PME) ACTIVE
Info: PME TOLERANCE               1e-06
Info: PME EWALD COEFFICIENT       0.348832
Info: PME INTERPOLATION ORDER     4
Info: PME GRID DIMENSIONS         36 32 32
Info: PME MAXIMUM GRID SPACING    1
Info: PME CALCULATION WILL BE PERFORMED ON GPU
Info: FULL ELECTROSTATIC EVALUATION FREQUENCY      2
Info: USING VERLET I (r-RESPA) MTS SCHEME.
Info: C1 SPLITTING OF LONG RANGE ELECTROSTATICS
Info: PLACING ATOMS IN PATCHES BY HYDROGEN GROUPS
Info: RIGID BONDS TO HYDROGEN : ALL
Info:         ERROR TOLERANCE : 1e-08
Info:          MAX ITERATIONS : 100
Info: RIGID WATER USING SETTLE ALGORITHM
Info: RANDOM NUMBER SEED     1743922602
Info: USE HYDROGEN BONDS?    NO
Info: Using AMBER format force field!
Info: AMBER PARM FILE        mobley_2487143.prmtop
Info: COORDINATE PDB         mobley_2487143.pdb
Info: Exclusions will be read from PARM file!
Info: SCNB (VDW SCALING)     2
Info: USING ARITHMETIC MEAN TO COMBINE L-J SIGMA PARAMETERS
Info: BINARY COORDINATES     mobley_2487143_equil.coor
Info: SUMMARY OF PARAMETERS:
Info: 6 BONDS
Info: 7 ANGLES
Info:   7 HARMONIC
Info:   0 COSINE-BASED
Info: 11 DIHEDRAL
Info: 0 IMPROPER
Info: 0 CROSSTERM
Info: 0 VDW
Info: 21 VDW_PAIRS
Info: 0 NBTHOLE_PAIRS
Info: To read alchdata from file: mobley_2487143.pdb
Info: To read alchflag data from column: 5
Info: STRUCTURE SUMMARY:
Info: 2983 ATOMS
Info: 2982 BONDS
Info: 33 ANGLES
Info: 52 DIHEDRALS
Info: 0 IMPROPERS
Info: 0 CROSSTERMS
Info: 3054 EXCLUSIONS
Info: 2976 RIGID BONDS
Info: ALCH: 0 ATOMS TO DISAPPEAR IN FINAL STATE
Info: ALCH: 19 ATOMS TO APPEAR IN FINAL STATE
Info: 5973 DEGREES OF FREEDOM
Info: 995 HYDROGEN GROUPS
Info: 4 ATOMS IN LARGEST HYDROGEN GROUP
Info: 995 MIGRATION GROUPS
Info: 4 ATOMS IN LARGEST MIGRATION GROUP
Info: TOTAL MASS = 17900 amu
Info: TOTAL CHARGE = -1.49012e-08 e
Info: MASS DENSITY = 0.962647 g/cm^3
Info: ATOM DENSITY = 0.0966071 atoms/A^3
Info: ADDED 0 IMPLICIT EXCLUSIONS
Info: NONBONDED TABLE R-SQUARED SPACING: 0.0625
Info: NONBONDED TABLE SIZE: 705 POINTS
Info: REDUCING NUMBER OF PATCHES TO IMPROVE LOAD BALANCE
Info: REMOVING COM VELOCITY 0.00868887 -0.177534 0.105421
Info: Use 3D box decompostion in PME FFT.
Info: Updated CUDA force table with 4096 elements.
Info: Updated CUDA LJ table with 6 x 6 elements.
Info: Found 22 unique exclusion lists needing 56 bytes
TCL: Running for 1500000 steps
ETITLE: TS BOND ANGLE DIHED IMPRP ELECT VDW BOUNDARY MISC KINETIC TOTAL TEMP POTENTIAL TOTALAVG TEMPAVG PRESSURE GPRESSURE VOLUME PRESSAVG GPRESSAVG
ENERGY: 0 3.8355 7.2546 6.4717 0.0000 -10774.5929 1435.3760 0.0000 0.0000 1741.2610 -7580.3941 293.4011 -9321.6551 -7580.3941 293.4011 -239.4799 -154.0343 30877.6628 -239.4799 -154.0343
ENERGY: 300000 1.0286 8.1115 4.8505 0.0000 -10766.4655 1394.6791 0.0000 0.0000 1775.0958 -7582.7000 299.1022 -9357.7957 -7585.5419 297.4445 -625.9179 -563.2134 30484.0558 -304.7331 -237.5136
ENERGY: 600000 5.4703 9.1189 4.9707 0.0000 -10830.1340 1430.5933 0.0000 0.0000 1797.2027 -7582.7782 302.8272 -9379.9808 -7598.4804 297.2158 -379.6364 -288.6244 30534.9775 -198.0969 -132.5381
ENERGY: 900000 6.1839 6.8654 4.5969 0.0000 -10699.7598 1427.6695 0.0000 0.0000 1751.6880 -7502.7562 295.1580 -9254.4442 -7582.8830 298.5899 -243.0357 -134.3012 30794.4967 -156.6895 -83.3716
ENERGY: 1200000 0.5595 6.7256 3.8677 0.0000 -10798.0286 1448.8170 0.0000 0.0000 1793.1953 -7544.8635 302.1520 -9338.0588 -7577.0140 299.2669 -116.4562 12.8027 30742.1219 -118.0908 -46.6032
ENERGY: 1500000 1.4125 6.9066 5.0527 0.0000 -10825.7665 1497.9023 0.0000 0.0000 1836.6315 -7477.8607 309.4710 -9314.4922 -7581.6692 298.9605 283.9921 368.4996 30635.3030 -140.7279 -63.6781
TCL: Running FEP window   2: Lambda1 0.05   Lambda2 0.1    [dLambda 0.05  ]
TCL: Setting parameter firsttimestep to 0
TCL: Setting parameter alchLambda to 0.05
Info: NONBONDED TABLE R-SQUARED SPACING: 0.0625
Info: NONBONDED TABLE SIZE: 705 POINTS
TCL: Setting parameter alchLambda2 to 0.1
Info: NONBONDED TABLE R-SQUARED SPACING: 0.0625
Info: NONBONDED TABLE SIZE: 705 POINTS
TCL: Running for 1500000 steps
ETITLE: TS BOND ANGLE DIHED IMPRP ELECT VDW BOUNDARY MISC KINETIC TOTAL TEMP POTENTIAL TOTALAVG TEMPAVG PRESSURE GPRESSURE VOLUME PRESSAVG GPRESSAVG
ENERGY: 0 1.4125 6.9066 5.0527 0.0000 -10825.7649 1500.5366 0.0000 0.0000 1835.7172 -7476.1392 309.3169 -9311.8564 -7476.1392 309.3169 283.7199 375.9053 30635.3030 283.7199 375.9053
ENERGY: 300000 3.4293 14.0615 5.0500 0.0000 -10658.8632 1373.2819 0.0000 0.0000 1816.9143 -7446.1262 306.1486 -9263.0405 -7511.7652 301.7971 -447.5870 -386.8286 30468.5930 -148.7129 -79.7325
ENERGY: 600000 1.3250 6.0417 4.3651 0.0000 -10866.9207 1566.8995 0.0000 0.0000 1748.8634 -7539.4261 294.6821 -9288.2894 -7526.8231 300.6231 955.4734 1019.9554 30296.4908 48.7014 112.3913
ENERGY: 900000 3.0422 8.0225 6.8415 0.0000 -10817.2636 1478.0054 0.0000 0.0000 1780.1815 -7541.1706 299.9592 -9321.3521 -7530.4276 300.9470 166.3352 247.4290 30666.2255 119.5031 183.5649
ENERGY: 1200000 1.3815 7.3980 7.0755 0.0000 -10786.8706 1470.3285 0.0000 0.0000 1766.7004 -7533.9867 297.6876 -9300.6871 -7537.1330 300.8799 156.9728 221.5772 30667.5395 112.6149 173.4837
ENERGY: 1500000 2.2740 10.0562 5.7901 0.0000 -10870.1484 1518.2131 0.0000 0.0000 1880.4024 -7453.4125 316.8463 -9333.8150 -7535.0030 301.7252 533.6212 620.4457 30596.0656 160.3385 222.3701
TCL: Running FEP window   3: Lambda1 0.1    Lambda2 0.15000000000000002 [dLambda 0.05000000000000002]
TCL: Setting parameter firsttimestep to 0
TCL: Setting parameter alchLambda to 0.1
Info: NONBONDED TABLE R-SQUARED SPACING: 0.0625
Info: NONBONDED TABLE SIZE: 705 POINTS
TCL: Setting parameter alchLambda2 to 0.15000000000000002
Info: NONBONDED TABLE R-SQUARED SPACING: 0.0625
Info: NONBONDED TABLE SIZE: 705 POINTS
TCL: Running for 1500000 steps
ETITLE: TS BOND ANGLE DIHED IMPRP ELECT VDW BOUNDARY MISC KINETIC TOTAL TEMP POTENTIAL TOTALAVG TEMPAVG PRESSURE GPRESSURE VOLUME PRESSAVG GPRESSAVG
ENERGY: 0 2.2739 10.0562 5.7901 0.0000 -10870.1489 1518.8948 0.0000 0.0000 1879.5337 -7453.6002 316.6999 -9333.1338 -7453.6002 316.6999 537.5182 624.1473 30596.0656 537.5182 624.1473
ENERGY: 300000 0.9012 12.2959 7.9367 0.0000 -10777.6499 1438.7175 0.0000 0.0000 1856.7669 -7461.0316 312.8638 -9317.7986 -7499.1213 309.5940 -40.5375 -1.8683 30633.9585 376.4193 433.8319
ENERGY: 600000 2.2195 9.7916 3.7659 0.0000 -10941.6314 1468.1386 0.0000 0.0000 1807.0808 -7650.6350 304.4917 -9457.7158 -7531.7388 305.6385 -263.5017 -231.2492 30375.5099 135.1099 193.6269
ENERGY: 900000 5.6060 7.8025 6.6218 0.0000 -10735.7210 1384.5128 0.0000 0.0000 1869.7707 -7461.4072 315.0549 -9331.1779 -7517.9129 304.7778 -504.1543 -444.9161 30437.4960 -28.5282 27.5471
ENERGY: 1200000 2.6113 4.9685 7.6084 0.0000 -10698.8427 1373.2408 0.0000 0.0000 1790.2730 -7520.1408 301.6596 -9310.4138 -7513.6389 303.8571 -432.8438 -384.1548 30563.8894 -119.0978 -69.5455
ENERGY: 1500000 1.7544 6.2789 6.1257 0.0000 -10801.9731 1474.2778 0.0000 0.0000 1741.8402 -7571.6961 293.4987 -9313.5363 -7522.7504 302.8082 -78.7627 -0.5044 30708.1367 -171.5407 -115.8302
TCL: Running FEP window   4: Lambda1 0.15000000000000002 Lambda2 0.2    [dLambda 0.04999999999999999]
TCL: Setting parameter firsttimestep to 0
TCL: Setting parameter alchLambda to 0.15000000000000002
Info: NONBONDED TABLE R-SQUARED SPACING: 0.0625
Info: NONBONDED TABLE SIZE: 705 POINTS
TCL: Setting parameter alchLambda2 to 0.2
Info: NONBONDED TABLE R-SQUARED SPACING: 0.0625
Info: NONBONDED TABLE SIZE: 705 POINTS
TCL: Running for 1500000 steps
ETITLE: TS BOND ANGLE DIHED IMPRP ELECT VDW BOUNDARY MISC KINETIC TOTAL TEMP POTENTIAL TOTALAVG TEMPAVG PRESSURE GPRESSURE VOLUME PRESSAVG GPRESSAVG
ENERGY: 0 1.7544 6.2789 6.1257 0.0000 -10801.9713 1477.4194 0.0000 0.0000 1740.9573 -7569.4356 293.3499 -9310.3929 -7569.4356 293.3499 -69.3705 13.5605 30708.1367 -69.3705 13.5605
ENERGY: 300000 0.6122 8.5875 5.1702 0.0000 -10832.8343 1538.5131 0.0000 0.0000 1775.1982 -7504.7531 299.1195 -9279.9513 -7561.0416 295.1239 554.2986 663.7399 30870.7328 -67.5736 -1.1190
ENERGY: 600000 3.2731 8.8666 4.7789 0.0000 -10910.0582 1564.9923 0.0000 0.0000 1715.1526 -7612.9947 289.0019 -9328.1474 -7557.4683 297.7821 926.1820 950.7636 30221.2947 -110.1213 -56.9804
ENERGY: 900000 2.8140 7.7837 5.8285 0.0000 -10819.0925 1435.0156 0.0000 0.0000 1823.1393 -7544.5113 307.1975 -9367.6506 -7552.0883 298.6438 -174.4885 -83.2267 30506.5002 -81.8139 -14.6962
ENERGY: 1200000 1.8125 7.3360 5.9865 0.0000 -10665.6981 1366.5474 0.0000 0.0000 1768.0035 -7516.0121 297.9072 -9284.0156 -7543.0558 299.3954 -894.6581 -861.4323 31070.2932 -138.2528 -81.1127
ENERGY: 1500000 4.2379 6.6082 4.5347 0.0000 -10681.3213 1417.6035 0.0000 0.0000 1758.9724 -7489.3647 296.3855 -9248.3371 -7538.0460 300.5904 -428.7762 -349.0173 30909.7816 -85.1106 -27.7217
TCL: Running FEP window   5: Lambda1 0.2    Lambda2 0.25   [dLambda 0.04999999999999999]
TCL: Setting parameter firsttimestep to 0
TCL: Setting parameter alchLambda to 0.2
Info: NONBONDED TABLE R-SQUARED SPACING: 0.0625
Info: NONBONDED TABLE SIZE: 705 POINTS
TCL: Setting parameter alchLambda2 to 0.25
Info: NONBONDED TABLE R-SQUARED SPACING: 0.0625
Info: NONBONDED TABLE SIZE: 705 POINTS
TCL: Running for 1500000 steps
ETITLE: TS BOND ANGLE DIHED IMPRP ELECT VDW BOUNDARY MISC KINETIC TOTAL TEMP POTENTIAL TOTALAVG TEMPAVG PRESSURE GPRESSURE VOLUME PRESSAVG GPRESSAVG
ENERGY: 0 4.2379 6.6082 4.5347 0.0000 -10681.3218 1418.0848 0.0000 0.0000 1758.1169 -7489.7394 296.2413 -9247.8563 -7489.7394 296.2413 -423.4250 -347.9542 30909.7816 -423.4250 -347.9542
ENERGY: 300000 2.1036 7.5089 5.8467 0.0000 -10854.2243 1505.1375 0.0000 0.0000 1724.2053 -7609.4222 290.5272 -9333.6275 -7553.3189 296.8772 635.8175 737.3232 29928.2521 -81.4149 5.8886
ENERGY: 600000 1.3112 7.4758 5.3974 0.0000 -10751.5434 1434.1761 0.0000 0.0000 1798.6730 -7504.5100 303.0750 -9303.1830 -7520.1240 301.1439 101.5013 142.8583 30275.8079 -112.7407 -45.9042
ENERGY: 900000 2.8997 9.0330 6.0516 0.0000 -10777.7113 1453.8696 0.0000 0.0000 1789.6648 -7516.1925 301.5571 -9305.8574 -7535.0729 300.7625 -38.9844 37.2337 30427.8356 -183.0437 -119.7985
ENERGY: 1200000 1.9815 10.8139 5.0038 0.0000 -10779.6601 1364.2130 0.0000 0.0000 1829.1128 -7568.5351 308.2041 -9397.6479 -7541.0912 301.4598 -834.6342 -783.8880 30592.2276 -273.0408 -204.1339
ENERGY: 1500000 0.8077 8.1775 4.7343 0.0000 -10919.1784 1523.7337 0.0000 0.0000 1782.4722 -7599.2530 300.3452 -9381.7252 -7547.0536 300.3330 549.5375 565.2727 30316.8038 -214.7018 -148.2449
TCL: Running FEP window   6: Lambda1 0.25   Lambda2 0.3    [dLambda 0.04999999999999999]
TCL: Setting parameter firsttimestep to 0
TCL: Setting parameter alchLambda to 0.25
Info: NONBONDED TABLE R-SQUARED SPACING: 0.0625
Info: NONBONDED TABLE SIZE: 705 POINTS
TCL: Setting parameter alchLambda2 to 0.3
Info: NONBONDED TABLE R-SQUARED SPACING: 0.0625
Info: NONBONDED TABLE SIZE: 705 POINTS
TCL: Running for 1500000 steps
ETITLE: TS BOND ANGLE DIHED IMPRP ELECT VDW BOUNDARY MISC KINETIC TOTAL TEMP POTENTIAL TOTALAVG TEMPAVG PRESSURE GPRESSURE VOLUME PRESSAVG GPRESSAVG
ENERGY: 0 0.8077 8.1775 4.7343 0.0000 -10919.1781 1524.5265 0.0000 0.0000 1781.5585 -7599.3736 300.1912 -9380.9320 -7599.3736 300.1912 487.5052 574.0736 30316.8038 487.5052 574.0736
ENERGY: 300000 1.9410 13.7487 5.5378 0.0000 -10680.0305 1321.1711 0.0000 0.0000 1772.4049 -7565.2269 298.6488 -9337.6319 -7519.4698 302.6939 -1248.3463 -1175.5395 31236.6347 -455.9283 -375.7287
ENERGY: 600000 0.7154 9.9345 6.4561 0.0000 -10851.1642 1511.3018 0.0000 0.0000 1818.6360 -7504.1205 306.4387 -9322.7564 -7539.2424 299.9542 342.8585 457.4276 30777.7742 -197.2548 -109.9062
ENERGY: 900000 3.9490 10.2436 5.0318 0.0000 -10618.7365 1269.9147 0.0000 0.0000 1785.1898 -7544.4075 300.8031 -9329.5973 -7538.2361 300.1898 -1574.5241 -1525.6851 30782.1842 -290.8825 -220.8452
ENERGY: 1200000 1.0052 7.1511 5.4671 0.0000 -10762.9551 1382.4028 0.0000 0.0000 1855.5088 -7511.4202 312.6518 -9366.9290 -7534.8417 300.3645 -473.5116 -440.4300 30373.6404 -285.6935 -216.6549
ENERGY: 1500000 0.5551 9.9338 5.2791 0.0000 -10817.8014 1414.0403 0.0000 0.0000 1733.7775 -7654.2155 292.1401 -9387.9931 -7543.5624 299.3681 -429.4461 -370.4523 30353.7676 -308.1081 -237.3972
TCL: Running FEP window   7: Lambda1 0.3    Lambda2 0.35   [dLambda 0.04999999999999999]
TCL: Setting parameter firsttimestep to 0
TCL: Setting parameter alchLambda to 0.3
Info: NONBONDED TABLE R-SQUARED SPACING: 0.0625
Info: NONBONDED TABLE SIZE: 705 POINTS
TCL: Setting parameter alchLambda2 to 0.35
Info: NONBONDED TABLE R-SQUARED SPACING: 0.0625
Info: NONBONDED TABLE SIZE: 705 POINTS
TCL: Running for 1500000 steps
ETITLE: TS BOND ANGLE DIHED IMPRP ELECT VDW BOUNDARY MISC KINETIC TOTAL TEMP POTENTIAL TOTALAVG TEMPAVG PRESSURE GPRESSURE VOLUME PRESSAVG GPRESSAVG
ENERGY: 0 0.5551 9.9338 5.2791 0.0000 -10817.8007 1415.3651 0.0000 0.0000 1732.8938 -7653.7738 291.9912 -9386.6676 -7653.7738 291.9912 -438.6221 -360.4316 30353.7676 -438.6221 -360.4316
ENERGY: 300000 3.2330 7.0650 4.2233 0.0000 -10812.6655 1404.8024 0.0000 0.0000 1784.7825 -7608.5594 300.7344 -9393.3418 -7612.5640 296.7724 -791.9392 -672.1515 30765.0525 -131.8235 -73.8302
ENERGY: 600000 4.2483 10.7674 5.7029 0.0000 -10732.9641 1365.9597 0.0000 0.0000 1812.1627 -7534.1231 305.3480 -9346.2858 -7580.3191 297.4070 -718.2401 -650.8601 30460.4367 -17.3164 34.3121
ENERGY: 900000 0.8885 11.7511 7.0011 0.0000 -10928.9573 1492.1773 0.0000 0.0000 1793.5857 -7623.5536 302.2178 -9417.1393 -7574.2473 298.2888 193.6336 288.7883 30432.3377 -131.5898 -72.0312
ENERGY: 1200000 2.3218 5.3737 5.1753 0.0000 -10842.0984 1479.4671 0.0000 0.0000 1749.3733 -7600.3873 294.7680 -9349.7606 -7574.2892 298.4608 194.4619 279.3654 30347.1426 -141.1991 -75.5882
ENERGY: 1500000 1.6951 6.8957 6.2802 0.0000 -10697.5742 1463.8068 0.0000 0.0000 1814.0712 -7404.8252 305.6696 -9218.8964 -7561.1372 299.2668 370.0305 432.0027 30774.2378 -156.0758 -91.7918
TCL: Running FEP window   8: Lambda1 0.35   Lambda2 0.39999999999999997 [dLambda 0.04999999999999999]
TCL: Setting parameter firsttimestep to 0
TCL: Setting parameter alchLambda to 0.35
Info: NONBONDED TABLE R-SQUARED SPACING: 0.0625
Info: NONBONDED TABLE SIZE: 705 POINTS
TCL: Setting parameter alchLambda2 to 0.39999999999999997
Info: NONBONDED TABLE R-SQUARED SPACING: 0.0625
Info: NONBONDED TABLE SIZE: 705 POINTS
TCL: Running for 1500000 steps
ETITLE: TS BOND ANGLE DIHED IMPRP ELECT VDW BOUNDARY MISC KINETIC TOTAL TEMP POTENTIAL TOTALAVG TEMPAVG PRESSURE GPRESSURE VOLUME PRESSAVG GPRESSAVG
ENERGY: 0 1.6951 6.8957 6.2802 0.0000 -10697.5756 1463.5082 0.0000 0.0000 1813.1290 -7406.0674 305.5108 -9219.1964 -7406.0674 305.5108 355.1785 435.1780 30774.2378 355.1785 435.1780
ENERGY: 300000 2.3642 6.5750 5.2695 0.0000 -10863.8251 1516.7358 0.0000 0.0000 1799.4651 -7533.4155 303.2084 -9332.8806 -7514.0408 304.8904 407.9803 479.8124 30515.1987 240.7964 323.8226
ENERGY: 600000 3.0406 8.3728 5.5849 0.0000 -10813.9102 1516.2310 0.0000 0.0000 1757.2262 -7523.4547 296.0912 -9280.6809 -7512.6560 302.7237 880.6491 924.0216 30441.5838 178.9811 251.1379
ENERGY: 900000 3.7789 9.9834 4.6884 0.0000 -10751.0645 1401.2028 0.0000 0.0000 1763.5442 -7567.8668 297.1558 -9331.4110 -7530.5016 301.2159 -435.8372 -406.1969 30674.9930 160.6809 232.2573
ENERGY: 1200000 3.2689 10.6769 5.3239 0.0000 -10668.0322 1377.6207 0.0000 0.0000 1740.1198 -7531.0219 293.2088 -9271.1417 -7531.3872 300.5963 -748.2092 -716.8465 31030.1422 57.4663 126.8934
ENERGY: 1500000 3.0839 6.3520 6.6049 0.0000 -10857.7137 1508.4799 0.0000 0.0000 1765.8985 -7567.2945 297.5525 -9333.1930 -7538.0230 300.0296 275.7292 295.3014 30782.2606 59.4076 122.9193
TCL: Running FEP window   9: Lambda1 0.39999999999999997 Lambda2 0.44999999999999996 [dLambda 0.04999999999999999]
TCL: Setting parameter firsttimestep to 0
TCL: Setting parameter alchLambda to 0.39999999999999997
Info: NONBONDED TABLE R-SQUARED SPACING: 0.0625
Info: NONBONDED TABLE SIZE: 705 POINTS
TCL: Setting parameter alchLambda2 to 0.44999999999999996
Info: NONBONDED TABLE R-SQUARED SPACING: 0.0625
Info: NONBONDED TABLE SIZE: 705 POINTS
TCL: Running for 1500000 steps
ETITLE: TS BOND ANGLE DIHED IMPRP ELECT VDW BOUNDARY MISC KINETIC TOTAL TEMP POTENTIAL TOTALAVG TEMPAVG PRESSURE GPRESSURE VOLUME PRESSAVG GPRESSAVG
ENERGY: 0 3.0839 6.3520 6.6049 0.0000 -10857.7128 1508.3050 0.0000 0.0000 1765.0240 -7568.3430 297.4051 -9333.3670 -7568.3430 297.4051 215.9564 298.7198 30782.2606 215.9564 298.7198
ENERGY: 300000 1.7314 9.5930 6.7053 0.0000 -10778.9133 1451.2923 0.0000 0.0000 1758.1658 -7551.4255 296.2496 -9309.5913 -7582.7281 296.4589 157.4429 275.9433 30442.3989 169.6803 219.4477
ENERGY: 600000 2.2316 8.7355 6.5053 0.0000 -10903.0927 1484.0732 0.0000 0.0000 1714.7409 -7686.8062 288.9325 -9401.5471 -7583.6419 296.9300 147.4742 209.5896 30319.0940 -23.2219 22.8765
ENERGY: 900000 1.2146 6.9938 4.9480 0.0000 -10966.6620 1536.0161 0.0000 0.0000 1821.1276 -7596.3619 306.8586 -9417.4895 -7569.4289 297.9887 594.5353 553.7271 30626.3954 8.5112 45.8719
ENERGY: 1200000 3.8295 11.7526 4.0835 0.0000 -10767.0611 1399.8057 0.0000 0.0000 1740.6330 -7606.9568 293.2953 -9347.5899 -7568.5267 297.6099 -605.7641 -546.5051 30718.0557 -86.7523 -54.6279
ENERGY: 1500000 0.9114 8.5355 5.5838 0.0000 -10613.2269 1281.3105 0.0000 0.0000 1761.2702 -7555.6155 296.7726 -9316.8857 -7561.5940 297.4061 -1204.3389 -1193.9539 30987.4415 -108.8960 -81.4929
TCL: Running FEP window  10: Lambda1 0.44999999999999996 Lambda2 0.49999999999999994 [dLambda 0.04999999999999999]
TCL: Setting parameter firsttimestep to 0
TCL: Setting parameter alchLambda to 0.44999999999999996
Info: NONBONDED TABLE R-SQUARED SPACING: 0.0625
Info: NONBONDED TABLE SIZE: 705 POINTS
TCL: Setting parameter alchLambda2 to 0.49999999999999994
Info: NONBONDED TABLE R-SQUARED SPACING: 0.0625
Info: NONBONDED TABLE SIZE: 705 POINTS
TCL: Running for 1500000 steps
ETITLE: TS BOND ANGLE DIHED IMPRP ELECT VDW BOUNDARY MISC KINETIC TOTAL TEMP POTENTIAL TOTALAVG TEMPAVG PRESSURE GPRESSURE VOLUME PRESSAVG GPRESSAVG
ENERGY: 0 0.9114 8.5355 5.5838 0.0000 -10613.2276 1281.8349 0.0000 0.0000 1760.4252 -7555.9368 296.6303 -9316.3620 -7555.9368 296.6303 -1266.4292 -1182.2365 30987.4415 -1266.4292 -1182.2365
ENERGY: 300000 2.9831 9.1704 4.5422 0.0000 -10856.5377 1467.0366 0.0000 0.0000 1753.9264 -7618.8790 295.5352 -9372.8054 -7606.3450 295.1485 -214.6214 -142.9605 30473.7457 -320.2263 -249.1663
ENERGY: 600000 1.8465 12.6933 5.4958 0.0000 -10748.9265 1343.6888 0.0000 0.0000 1768.9816 -7616.2205 298.0720 -9385.2020 -7589.6275 298.8672 -1051.8654 -998.1182 30684.2851 -342.3342 -277.1161
ENERGY: 900000 2.3619 10.2948 7.1537 0.0000 -10940.9051 1566.9680 0.0000 0.0000 1823.4501 -7530.6766 307.2499 -9354.1266 -7578.2900 299.9762 1100.3235 1155.3105 30008.9636 -166.9752 -95.6740
ENERGY: 1200000 1.1511 6.2267 5.7973 0.0000 -10963.0001 1529.5620 0.0000 0.0000 1780.3980 -7639.8649 299.9957 -9420.2629 -7576.8483 299.9994 674.2125 711.7993 30116.5160 -53.3529 15.8890
ENERGY: 1500000 1.4914 9.2984 5.2453 0.0000 -10809.6093 1475.2322 0.0000 0.0000 1785.2687 -7533.0733 300.8164 -9318.3420 -7570.9979 301.2303 91.2095 189.2548 30829.1332 -10.9621 49.2669
TCL: Running FEP window  11: Lambda1 0.49999999999999994 Lambda2 0.5499999999999999 [dLambda 0.04999999999999999]
TCL: Setting parameter firsttimestep to 0
TCL: Setting parameter alchLambda to 0.49999999999999994
Info: NONBONDED TABLE R-SQUARED SPACING: 0.0625
Info: NONBONDED TABLE SIZE: 705 POINTS
TCL: Setting parameter alchLambda2 to 0.5499999999999999
Info: NONBONDED TABLE R-SQUARED SPACING: 0.0625
Info: NONBONDED TABLE SIZE: 705 POINTS
TCL: Running for 1500000 steps
ETITLE: TS BOND ANGLE DIHED IMPRP ELECT VDW BOUNDARY MISC KINETIC TOTAL TEMP POTENTIAL TOTALAVG TEMPAVG PRESSURE GPRESSURE VOLUME PRESSAVG GPRESSAVG
ENERGY: 0 1.4914 9.2984 5.2453 0.0000 -10809.6071 1475.3432 0.0000 0.0000 1784.3291 -7533.8996 300.6580 -9318.2287 -7533.8996 300.6580 116.6032 196.3552 30829.1332 116.6032 196.3552
ENERGY: 300000 0.7758 7.2900 5.9761 0.0000 -10818.6101 1461.5912 0.0000 0.0000 1801.5211 -7541.4559 303.5549 -9342.9770 -7527.3377 302.4027 225.6303 283.0045 30685.7449 -166.1858 -97.1466
ENERGY: 600000 1.5761 4.8466 5.8701 0.0000 -10818.5975 1486.6350 0.0000 0.0000 1767.7856 -7551.8840 297.8705 -9319.6696 -7539.3952 299.4785 463.9854 552.8938 30214.2119 21.9656 95.5846
ENERGY: 900000 1.7555 8.0349 6.3044 0.0000 -10891.8235 1497.2951 0.0000 0.0000 1775.3224 -7603.1112 299.1404 -9378.4336 -7555.9583 299.7967 211.4923 356.5440 30684.5292 84.2874 154.0758
ENERGY: 1200000 3.6010 10.4900 4.2946 0.0000 -10738.3660 1392.8356 0.0000 0.0000 1762.0196 -7565.1253 296.8989 -9327.1449 -7553.4486 299.9156 -507.3610 -405.7500 31043.4536 -51.1204 14.1232
ENERGY: 1500000 1.3243 7.7524 5.4456 0.0000 -11091.5075 1585.1115 0.0000 0.0000 1760.3609 -7731.5129 296.6194 -9491.8738 -7565.9301 299.5393 674.5936 770.2750 30404.5881 -76.1790 -10.8874
TCL: Running FEP window  12: Lambda1 0.5499999999999999 Lambda2 0.6    [dLambda 0.050000000000000044]
TCL: Setting parameter firsttimestep to 0
TCL: Setting parameter alchLambda to 0.5499999999999999
Info: NONBONDED TABLE R-SQUARED SPACING: 0.0625
Info: NONBONDED TABLE SIZE: 705 POINTS
TCL: Setting parameter alchLambda2 to 0.6
Info: NONBONDED TABLE R-SQUARED SPACING: 0.0625
Info: NONBONDED TABLE SIZE: 705 POINTS
TCL: Running for 1500000 steps
ETITLE: TS BOND ANGLE DIHED IMPRP ELECT VDW BOUNDARY MISC KINETIC TOTAL TEMP POTENTIAL TOTALAVG TEMPAVG PRESSURE GPRESSURE VOLUME PRESSAVG GPRESSAVG
ENERGY: 0 1.3243 7.7524 5.4456 0.0000 -11091.0274 1585.8248 0.0000 0.0000 1759.4302 -7731.2501 296.4626 -9490.6803 -7731.2501 296.4626 704.2334 786.0071 30404.5881 704.2334 786.0071
ENERGY: 300000 1.0012 12.0368 5.4072 0.0000 -10738.6998 1374.3249 0.0000 0.0000 1842.2989 -7503.6308 310.4259 -9345.9298 -7595.8353 301.6671 -818.2609 -789.1452 31240.0056 -195.5000 -147.9453
ENERGY: 600000 3.6405 9.3320 5.6152 0.0000 -10770.9147 1403.3814 0.0000 0.0000 1837.8825 -7511.0630 309.6817 -9348.9455 -7570.5805 301.6425 -220.6534 -141.5929 30490.6860 -77.0047 -19.4926
ENERGY: 900000 1.1223 9.3357 4.8281 0.0000 -10889.8744 1492.3037 0.0000 0.0000 1780.6223 -7601.6623 300.0335 -9382.2846 -7561.8370 301.1119 98.5080 170.9039 30648.6592 -144.1381 -82.7485
ENERGY: 1200000 0.6562 6.9318 5.6045 0.0000 -10938.1424 1542.4588 0.0000 0.0000 1739.3667 -7643.1244 293.0819 -9382.4911 -7556.9878 300.8008 545.4340 560.3486 30695.0422 -66.7794 -12.0946
ENERGY: 1500000 1.8456 5.3579 6.2610 0.0000 -10799.2704 1430.0899 0.0000 0.0000 1785.6647 -7570.0513 300.8831 -9355.7160 -7556.2408 300.7322 -125.6358 -96.8608 30482.1042 -77.5985 -18.3051
TCL: Running FEP window  13: Lambda1 0.6    Lambda2 0.65   [dLambda 0.050000000000000044]
TCL: Setting parameter firsttimestep to 0
TCL: Setting parameter alchLambda to 0.6
Info: NONBONDED TABLE R-SQUARED SPACING: 0.0625
Info: NONBONDED TABLE SIZE: 705 POINTS
TCL: Setting parameter alchLambda2 to 0.65
Info: NONBONDED TABLE R-SQUARED SPACING: 0.0625
Info: NONBONDED TABLE SIZE: 705 POINTS
TCL: Running for 1500000 steps
ETITLE: TS BOND ANGLE DIHED IMPRP ELECT VDW BOUNDARY MISC KINETIC TOTAL TEMP POTENTIAL TOTALAVG TEMPAVG PRESSURE GPRESSURE VOLUME PRESSAVG GPRESSAVG
ENERGY: 0 1.8455 5.3579 6.2610 0.0000 -10799.3678 1429.9426 0.0000 0.0000 1784.8074 -7571.1533 300.7386 -9355.9607 -7571.1533 300.7386 -167.8949 -88.1093 30482.1042 -167.8949 -88.1093
ENERGY: 300000 2.5503 8.2378 4.6500 0.0000 -10864.7549 1442.5757 0.0000 0.0000 1764.3236 -7642.4176 297.2871 -9406.7412 -7569.4275 301.1886 -288.4452 -217.5203 30571.4190 -44.2558 30.1080
ENERGY: 600000 1.0840 9.9908 5.2442 0.0000 -10595.4996 1290.4432 0.0000 0.0000 1753.9051 -7534.8322 295.5316 -9288.7374 -7564.0870 300.8715 -1225.8066 -1173.3825 30892.7169 -189.8510 -118.6079
ENERGY: 900000 0.5572 10.2598 4.6636 0.0000 -10822.5517 1504.6846 0.0000 0.0000 1774.8241 -7527.5625 299.0565 -9302.3866 -7564.7243 300.1742 423.2358 455.8184 30857.8886 -46.0440 18.0452
ENERGY: 1200000 4.1270 13.8602 6.2388 0.0000 -10749.0980 1466.3454 0.0000 0.0000 1762.1212 -7496.4054 296.9160 -9258.5266 -7561.3514 300.0924 267.4210 241.4310 30535.0709 3.7854 64.1058
ENERGY: 1500000 0.9182 5.6505 5.3385 0.0000 -10923.8653 1520.9257 0.0000 0.0000 1777.9993 -7613.0331 299.5915 -9391.0324 -7561.6517 300.3725 440.4127 476.3746 30446.1943 6.3891 64.5044
TCL: Running FEP window  14: Lambda1 0.65   Lambda2 0.7000000000000001 [dLambda 0.050000000000000044]
TCL: Setting parameter firsttimestep to 0
TCL: Setting parameter alchLambda to 0.65
Info: NONBONDED TABLE R-SQUARED SPACING: 0.0625
Info: NONBONDED TABLE SIZE: 705 POINTS
TCL: Setting parameter alchLambda2 to 0.7000000000000001
Info: NONBONDED TABLE R-SQUARED SPACING: 0.0625
Info: NONBONDED TABLE SIZE: 705 POINTS
TCL: Running for 1500000 steps
ETITLE: TS BOND ANGLE DIHED IMPRP ELECT VDW BOUNDARY MISC KINETIC TOTAL TEMP POTENTIAL TOTALAVG TEMPAVG PRESSURE GPRESSURE VOLUME PRESSAVG GPRESSAVG
ENERGY: 0 0.9182 5.6505 5.3385 0.0000 -10924.1888 1520.8812 0.0000 0.0000 1777.0817 -7614.3187 299.4369 -9391.4004 -7614.3187 299.4369 402.4272 485.4339 30446.1943 402.4272 485.4339
ENERGY: 300000 0.8774 13.5761 4.6012 0.0000 -10861.8447 1462.9313 0.0000 0.0000 1799.3126 -7580.5461 303.1828 -9379.8588 -7550.4093 301.0357 71.8156 81.1748 30543.5419 -154.6783 -106.8129
ENERGY: 600000 3.9520 6.3221 4.7158 0.0000 -10781.9839 1440.4549 0.0000 0.0000 1816.4431 -7510.0961 306.0692 -9326.5392 -7533.8492 300.8923 6.9096 57.6799 30306.2695 -18.4197 39.0431
ENERGY: 900000 1.4925 5.1840 4.9290 0.0000 -10776.2349 1489.3071 0.0000 0.0000 1821.1176 -7454.2047 306.8569 -9275.3224 -7534.4007 300.8940 360.0884 436.4292 30808.3130 175.9993 241.0254
ENERGY: 1200000 1.8512 6.2428 4.9851 0.0000 -10707.8674 1436.2757 0.0000 0.0000 1761.0370 -7497.4757 296.7333 -9258.5127 -7539.5397 301.3974 -163.8562 -138.1064 31143.0430 126.4983 183.4097
ENERGY: 1500000 3.7713 7.2006 3.9331 0.0000 -10785.5797 1442.0278 0.0000 0.0000 1752.9934 -7575.6535 295.3780 -9328.6469 -7548.1656 300.4503 28.8991 26.0513 30614.6703 87.1130 144.9997
TCL: Running FEP window  15: Lambda1 0.7000000000000001 Lambda2 0.7500000000000001 [dLambda 0.050000000000000044]
TCL: Setting parameter firsttimestep to 0
TCL: Setting parameter alchLambda to 0.7000000000000001
Info: NONBONDED TABLE R-SQUARED SPACING: 0.0625
Info: NONBONDED TABLE SIZE: 705 POINTS
TCL: Setting parameter alchLambda2 to 0.7500000000000001
Info: NONBONDED TABLE R-SQUARED SPACING: 0.0625
Info: NONBONDED TABLE SIZE: 705 POINTS
TCL: Running for 1500000 steps
ETITLE: TS BOND ANGLE DIHED IMPRP ELECT VDW BOUNDARY MISC KINETIC TOTAL TEMP POTENTIAL TOTALAVG TEMPAVG PRESSURE GPRESSURE VOLUME PRESSAVG GPRESSAVG
ENERGY: 0 3.7713 7.2006 3.9331 0.0000 -10786.2125 1442.8360 0.0000 0.0000 1752.0765 -7576.3951 295.2235 -9328.4716 -7576.3951 295.2235 -49.8057 42.3816 30614.6703 -49.8057 42.3816
ENERGY: 300000 1.3116 11.3398 4.8569 0.0000 -10866.7545 1496.8796 0.0000 0.0000 1729.3960 -7622.9705 291.4019 -9352.3666 -7566.4596 297.8502 148.0373 306.0925 30797.7079 -302.6127 -204.1236
ENERGY: 600000 3.1224 11.4877 6.0854 0.0000 -10713.1409 1388.3139 0.0000 0.0000 1748.1438 -7555.9878 294.5608 -9304.1316 -7532.4184 300.1001 -790.4133 -734.7957 31054.3871 -307.1926 -228.6462
ENERGY: 900000 4.2340 10.1663 5.3532 0.0000 -10831.3859 1506.4726 0.0000 0.0000 1777.9145 -7527.2454 299.5772 -9305.1599 -7541.7064 299.9608 593.1719 628.7480 30545.7514 -169.1061 -97.2019
ENERGY: 1200000 3.3887 6.7197 3.8307 0.0000 -10900.5162 1475.3098 0.0000 0.0000 1756.0886 -7655.1788 295.8995 -9411.2674 -7550.8882 300.3284 80.5969 153.5363 30453.9758 -143.4660 -75.9231
ENERGY: 1500000 4.1414 7.5324 5.3861 0.0000 -10891.5583 1512.3828 0.0000 0.0000 1750.0153 -7612.1004 294.8762 -9362.1156 -7556.8683 300.6204 161.8701 204.2477 31051.8130 -91.6992 -26.5874
TCL: Running FEP window  16: Lambda1 0.7500000000000001 Lambda2 0.8000000000000002 [dLambda 0.050000000000000044]
TCL: Setting parameter firsttimestep to 0
TCL: Setting parameter alchLambda to 0.7500000000000001
Info: NONBONDED TABLE R-SQUARED SPACING: 0.0625
Info: NONBONDED TABLE SIZE: 705 POINTS
TCL: Setting parameter alchLambda2 to 0.8000000000000002
Info: NONBONDED TABLE R-SQUARED SPACING: 0.0625
Info: NONBONDED TABLE SIZE: 705 POINTS
TCL: Running for 1500000 steps
ETITLE: TS BOND ANGLE DIHED IMPRP ELECT VDW BOUNDARY MISC KINETIC TOTAL TEMP POTENTIAL TOTALAVG TEMPAVG PRESSURE GPRESSURE VOLUME PRESSAVG GPRESSAVG
ENERGY: 0 4.1414 7.5324 5.3861 0.0000 -10892.5749 1512.6994 0.0000 0.0000 1749.1187 -7613.6969 294.7251 -9362.8156 -7613.6969 294.7251 133.4403 213.2154 31051.8130 133.4403 213.2154
ENERGY: 300000 1.5366 12.9219 4.8144 0.0000 -10805.3340 1472.0460 0.0000 0.0000 1754.6280 -7559.3871 295.6534 -9314.0151 -7583.2380 298.1129 79.3176 129.1844 31182.2910 244.4745 280.8980
ENERGY: 600000 6.2289 9.0081 5.7484 0.0000 -10780.1829 1471.1518 0.0000 0.0000 1764.2133 -7523.8324 297.2685 -9288.0457 -7574.9525 298.1906 295.8991 440.3261 30503.0035 -13.4438 45.2004
ENERGY: 900000 1.5025 9.5863 4.4176 0.0000 -10720.0095 1404.2714 0.0000 0.0000 1805.7901 -7494.4416 304.2742 -9300.2317 -7577.5393 298.3234 -459.0134 -456.9158 31111.9429 -24.4455 24.1846
ENERGY: 1200000 1.1408 11.0710 4.7661 0.0000 -10756.3106 1413.2930 0.0000 0.0000 1805.1264 -7520.9134 304.1624 -9326.0398 -7573.3893 299.9163 -191.4699 -155.3371 30564.3630 -92.5679 -38.6258
ENERGY: 1500000 2.6803 8.9498 5.3104 0.0000 -10818.0637 1420.4957 0.0000 0.0000 1776.6264 -7604.0011 299.3601 -9380.6275 -7578.3782 299.7337 -331.7174 -272.4738 30767.7842 -122.3414 -70.3475
TCL: Running FEP window  17: Lambda1 0.8000000000000002 Lambda2 0.8500000000000002 [dLambda 0.050000000000000044]
TCL: Setting parameter firsttimestep to 0
TCL: Setting parameter alchLambda to 0.8000000000000002
Info: NONBONDED TABLE R-SQUARED SPACING: 0.0625
Info: NONBONDED TABLE SIZE: 705 POINTS
TCL: Setting parameter alchLambda2 to 0.8500000000000002
Info: NONBONDED TABLE R-SQUARED SPACING: 0.0625
Info: NONBONDED TABLE SIZE: 705 POINTS
TCL: Running for 1500000 steps
ETITLE: TS BOND ANGLE DIHED IMPRP ELECT VDW BOUNDARY MISC KINETIC TOTAL TEMP POTENTIAL TOTALAVG TEMPAVG PRESSURE GPRESSURE VOLUME PRESSAVG GPRESSAVG
ENERGY: 0 2.6803 8.9498 5.3104 0.0000 -10819.3566 1420.7306 0.0000 0.0000 1775.7179 -7605.9676 299.2071 -9381.6855 -7605.9676 299.2071 -342.3917 -263.0150 30767.7842 -342.3917 -263.0150
ENERGY: 300000 1.5853 5.9087 4.0387 0.0000 -10835.7891 1489.1295 0.0000 0.0000 1800.4936 -7534.6334 303.3817 -9335.1270 -7538.3466 301.1699 456.6230 502.9717 30732.9573 379.6296 453.1747
ENERGY: 600000 2.1860 4.8771 5.9838 0.0000 -10710.2448 1380.9508 0.0000 0.0000 1809.9257 -7506.3213 304.9711 -9316.2470 -7549.8743 302.7478 -876.7075 -786.6553 31356.3389 198.2935 283.5748
ENERGY: 900000 1.8783 8.4030 5.1580 0.0000 -10780.0048 1475.2399 0.0000 0.0000 1786.4856 -7502.8401 301.0214 -9289.3257 -7553.6040 302.3485 416.8430 485.1921 30625.7378 241.2247 316.8859
ENERGY: 1200000 1.5120 10.7114 4.6287 0.0000 -10807.7547 1418.0187 0.0000 0.0000 1767.3312 -7605.5528 297.7939 -9372.8839 -7556.0208 301.6672 -156.0952 -108.6506 30356.0623 169.4978 241.0851
ENERGY: 1500000 0.8520 12.5412 5.3073 0.0000 -10746.0632 1400.4561 0.0000 0.0000 1824.9915 -7501.9150 307.5096 -9326.9066 -7547.1116 302.0584 -524.0517 -393.8537 30992.4660 171.1913 247.2811
TCL: Running FEP window  18: Lambda1 0.8500000000000002 Lambda2 0.9000000000000002 [dLambda 0.050000000000000044]
TCL: Setting parameter firsttimestep to 0
TCL: Setting parameter alchLambda to 0.8500000000000002
Info: NONBONDED TABLE R-SQUARED SPACING: 0.0625
Info: NONBONDED TABLE SIZE: 705 POINTS
TCL: Setting parameter alchLambda2 to 0.9000000000000002
Info: NONBONDED TABLE R-SQUARED SPACING: 0.0625
Info: NONBONDED TABLE SIZE: 705 POINTS
TCL: Running for 1500000 steps
ETITLE: TS BOND ANGLE DIHED IMPRP ELECT VDW BOUNDARY MISC KINETIC TOTAL TEMP POTENTIAL TOTALAVG TEMPAVG PRESSURE GPRESSURE VOLUME PRESSAVG GPRESSAVG
ENERGY: 0 0.8520 12.5412 5.3073 0.0000 -10746.5759 1400.1685 0.0000 0.0000 1824.1074 -7503.5996 307.3607 -9327.7069 -7503.5996 307.3607 -467.0415 -389.2971 30992.4660 -467.0415 -389.2971
ENERGY: 300000 2.5326 9.5481 4.8682 0.0000 -10811.3388 1429.8245 0.0000 0.0000 1779.6969 -7584.8685 299.8775 -9364.5654 -7513.5940 302.3833 -419.9384 -364.7557 30936.1753 -511.6211 -446.6970
ENERGY: 600000 1.8737 10.8971 5.7278 0.0000 -10826.1691 1392.4697 0.0000 0.0000 1790.3453 -7624.8554 301.6718 -9415.2007 -7536.1720 302.4963 -744.0651 -758.0847 30930.5404 -430.7485 -386.3512
ENERGY: 900000 0.8404 7.2931 6.2705 0.0000 -10976.6649 1599.5566 0.0000 0.0000 1810.2037 -7552.5007 305.0179 -9362.7043 -7542.9361 301.7997 1166.0714 1159.7663 30432.3660 -350.4081 -309.4027
ENERGY: 1200000 0.8822 9.0343 6.1430 0.0000 -10879.3535 1466.8876 0.0000 0.0000 1821.6816 -7574.7248 306.9519 -9396.4064 -7554.7893 301.3019 216.7237 205.6599 30605.9675 -273.6990 -235.9666
ENERGY: 1500000 1.3587 5.8485 4.9451 0.0000 -10779.5343 1430.7021 0.0000 0.0000 1827.5976 -7509.0823 307.9488 -9336.6799 -7550.0756 301.5428 -162.3384 -79.0722 30644.2952 -220.0745 -177.6649
TCL: Running FEP window  19: Lambda1 0.9000000000000002 Lambda2 0.9500000000000003 [dLambda 0.050000000000000044]
TCL: Setting parameter firsttimestep to 0
TCL: Setting parameter alchLambda to 0.9000000000000002
Info: NONBONDED TABLE R-SQUARED SPACING: 0.0625
Info: NONBONDED TABLE SIZE: 705 POINTS
TCL: Setting parameter alchLambda2 to 0.9500000000000003
Info: NONBONDED TABLE R-SQUARED SPACING: 0.0625
Info: NONBONDED TABLE SIZE: 705 POINTS
TCL: Running for 1500000 steps
ETITLE: TS BOND ANGLE DIHED IMPRP ELECT VDW BOUNDARY MISC KINETIC TOTAL TEMP POTENTIAL TOTALAVG TEMPAVG PRESSURE GPRESSURE VOLUME PRESSAVG GPRESSAVG
ENERGY: 0 1.3587 5.8485 4.9451 0.0000 -10780.6533 1430.7930 0.0000 0.0000 1826.7741 -7510.9339 307.8100 -9337.7080 -7510.9339 307.8100 -151.8617 -71.8914 30644.2952 -151.8617 -71.8914
ENERGY: 300000 4.5410 5.2743 6.0435 0.0000 -10983.8857 1513.7151 0.0000 0.0000 1781.4248 -7672.8870 300.1687 -9454.3118 -7599.9759 299.7401 212.0889 279.5576 30628.2853 86.5225 137.3902
ENERGY: 600000 3.5699 6.3461 5.0029 0.0000 -10731.6625 1424.6727 0.0000 0.0000 1808.5027 -7483.5683 304.7313 -9292.0710 -7570.1481 301.7045 1.8836 30.0314 30674.3497 8.3859 71.9469
ENERGY: 900000 1.9689 9.5329 5.1253 0.0000 -10823.6497 1446.4205 0.0000 0.0000 1732.1787 -7628.4233 291.8707 -9360.6020 -7574.6607 300.4602 -238.3411 -157.2170 30927.4864 -67.1301 -4.4126
ENERGY: 1200000 1.7758 11.4714 4.2819 0.0000 -10884.4511 1499.7373 0.0000 0.0000 1755.4198 -7611.7649 295.7868 -9367.1847 -7575.2513 300.7575 507.6742 579.7569 30433.5242 -5.4400 52.8708
ENERGY: 1500000 2.1774 9.6376 4.5968 0.0000 -10752.3843 1462.5055 0.0000 0.0000 1798.4345 -7475.0324 303.0348 -9273.4669 -7565.9956 301.3173 427.6974 449.0337 30656.8346 14.6201 71.2764
TCL: Running FEP window  20: Lambda1 0.9500000000000003 Lambda2 1.0    [dLambda 0.04999999999999971]
TCL: Setting parameter firsttimestep to 0
TCL: Setting parameter alchLambda to 0.9500000000000003
Info: NONBONDED TABLE R-SQUARED SPACING: 0.0625
Info: NONBONDED TABLE SIZE: 705 POINTS
TCL: Setting parameter alchLambda2 to 1.0
Info: NONBONDED TABLE R-SQUARED SPACING: 0.0625
Info: NONBONDED TABLE SIZE: 705 POINTS
TCL: Running for 1500000 steps
ETITLE: TS BOND ANGLE DIHED IMPRP ELECT VDW BOUNDARY MISC KINETIC TOTAL TEMP POTENTIAL TOTALAVG TEMPAVG PRESSURE GPRESSURE VOLUME PRESSAVG GPRESSAVG
ENERGY: 0 2.1774 9.6376 4.5968 0.0000 -10753.2840 1463.0641 0.0000 0.0000 1797.5307 -7476.2773 302.8825 -9273.8081 -7476.2773 302.8825 387.1620 465.1453 30656.8346 387.1620 465.1453
ENERGY: 300000 1.2868 6.7362 6.6928 0.0000 -10788.5642 1402.2873 0.0000 0.0000 1767.9202 -7603.6409 297.8932 -9371.5611 -7589.8508 298.5097 -466.3585 -365.5787 30722.0510 -30.8723 24.1349
ENERGY: 600000 0.7526 7.1489 5.9263 0.0000 -10842.7323 1410.5963 0.0000 0.0000 1796.1288 -7622.1793 302.6463 -9418.3081 -7614.7089 298.2108 -305.4427 -278.5417 30371.5155 -41.6655 3.4668
ENERGY: 900000 2.4912 9.3462 6.3037 0.0000 -10714.6764 1332.8119 0.0000 0.0000 1820.3343 -7543.3891 306.7249 -9363.7233 -7598.6016 299.3378 -851.4289 -812.7743 30602.7757 -206.9278 -156.4980
ENERGY: 1200000 2.4348 9.4005 4.6830 0.0000 -10759.4085 1386.1955 0.0000 0.0000 1765.2648 -7591.4299 297.4457 -9356.6947 -7583.7635 298.4667 -568.4478 -481.8420 30645.9166 -282.3469 -225.8733
ENERGY: 1500000 3.4012 10.1935 4.6098 0.0000 -10827.5979 1401.6803 0.0000 0.0000 1712.2298 -7695.4834 288.5094 -9407.7132 -7597.8119 297.3737 -662.4142 -569.9392 30671.3466 -231.8842 -174.2596
TCL: Exiting due to exit command.
