Info: SIMULATION PARAMETERS:
Info: TIMESTEP               2
Info: NUMBER OF STEPS        0
Info: STEPS PER CYCLE        10
Info: PERIODIC CELL BASIS 1  31.1769 0 0
Info: PERIODIC CELL BASIS 2  0 29.7422 0
Info: PERIODIC CELL BASIS 3  0 0 33.3506
Info: PERIODIC CELL CENTER   0 0 0
Info: WRAPPING WATERS AROUND PERIODIC BOUNDARIES ON OUTPUT.
Info: WRAPPING ALL CLUSTERS AROUND PERIODIC BOUNDARIES ON OUTPUT.
Info: FIRST LDB TIMESTEP     50
Info: LAST LDB TIMESTEP     -1
Info: HOM BACKGROUND SCALING 1
Info: PME BACKGROUND SCALING 1
Info: MIN ATOMS PER PATCH    40
Info: EMPTY PATCH LOAD       40 ATOMS
Info: VELOCITY FILE          mobley_3266352_equil.vel
Info: CENTER OF MASS MOVING INITIALLY? NO
Info: DIELECTRIC             1
Info: EXCLUDE                SCALED ONE-FOUR
Info: 1-4 ELECTROSTATICS SCALED BY 0.833333
Info: MODIFIED 1-4 VDW PARAMETERS WILL BE USED
Info: DCD FILENAME           mobley_3266352_prod.dcd
Info: DCD FREQUENCY          100000
Info: DCD FIRST STEP         100000
Info: DCD FILE WILL CONTAIN UNIT CELL DATA
Info: XST FILENAME           mobley_3266352_prod.xst
Info: XST FREQUENCY          100000
Info: NO VELOCITY DCD OUTPUT
Info: NO FORCE DCD OUTPUT
Info: OUTPUT FILENAME        mobley_3266352_prod
Info: BINARY OUTPUT FILES WILL BE USED
Info: RESTART FILENAME       mobley_3266352_prod.restart
Info: RESTART FREQUENCY      100000
Info: BINARY RESTART FILES WILL BE USED
Info: CUTOFF                 9
Info: PAIRLIST DISTANCE      11
Info: PAIRLIST SHRINK RATE   0.01
Info: PAIRLIST GROW RATE     0.01
Info: PAIRLIST TRIGGER       0.3
Info: PAIRLISTS PER CYCLE    2
Info: PAIRLISTS ENABLED
Info: MARGIN                 2
Info: HYDROGEN GROUP CUTOFF  2.5
Info: PATCH DIMENSION        15.5
Info: ENERGY OUTPUT STEPS    100000
Info: ENERGY EVALUATION STEPS    100000
Info: OUTPUT ENERGY PRECISION 4
Info: CROSSTERM ENERGY INCLUDED IN DIHEDRAL
Info: TIMING OUTPUT STEPS    1000000
Info: PRESSURE OUTPUT STEPS  100000
Info: ALCHEMICAL FEP ON
Info: FEP CURRENT LAMBDA VALUE     0
Info: FEP COMPARISON LAMBDA VALUE  0.05
Info: FEP INTRA-ALCHEMICAL NON-BONDED INTERACTIONS WILL BE RETAINED
Info: FEP INTRA-ALCHEMICAL BONDED INTERACTIONS WILL BE RETAINED
Info: FEP VDW SHIFTING COEFFICIENT 5
Info: FEP ELEC. ACTIVE FOR ANNIHILATED PARTICLES BETWEEN LAMBDA = 0 AND LAMBDA = 0.5
Info: FEP ELEC. ACTIVE FOR EXNIHILATED PARTICLES BETWEEN LAMBDA = 0.5 AND LAMBDA = 1
Info: FEP VDW ACTIVE FOR ANNIHILATED PARTICLES BETWEEN LAMBDA = 0 AND LAMBDA = 1
Info: FEP VDW ACTIVE FOR EXNIHILATED PARTICLES BETWEEN LAMBDA = 0 AND LAMBDA = 1
Info: FEP BOND ACTIVE FOR ANNIHILATED PARTICLES BETWEEN LAMBDA = 1 AND LAMBDA = 1
Info: FEP BOND ACTIVE FOR EXNIHILATED PARTICLES BETWEEN LAMBDA = 0 AND LAMBDA = 0
Info: LANGEVIN DYNAMICS ACTIVE
Info: LANGEVIN TEMPERATURE   300
Info: LANGEVIN USING BBK INTEGRATOR
Info: LANGEVIN DAMPING COEFFICIENT IS 1 INVERSE PS
Info: LANGEVIN DYNAMICS APPLIED TO HYDROGENS
Info: LANGEVIN PISTON PRESSURE CONTROL ACTIVE
Info:        TARGET PRESSURE IS 1.01325 BAR
Info:     OSCILLATION PERIOD IS 50 FS
Info:             DECAY TIME IS 25 FS
Info:     PISTON TEMPERATURE IS 300 K
Info:       PRESSURE CONTROL IS GROUP-BASED
Info:    INITIAL STRAIN RATE IS 0.000449939 0.000449939 0.000449939
Info:       CELL FLUCTUATION IS ISOTROPIC
Info: PARTICLE MESH EWALD (PME) ACTIVE
Info: PME TOLERANCE               1e-06
Info: PME EWALD COEFFICIENT       0.348832
Info: PME INTERPOLATION ORDER     4
Info: PME GRID DIMENSIONS         32 32 36
Info: PME MAXIMUM GRID SPACING    1
Info: PME CALCULATION WILL BE PERFORMED ON GPU
Info: FULL ELECTROSTATIC EVALUATION FREQUENCY      2
Info: USING VERLET I (r-RESPA) MTS SCHEME.
Info: C1 SPLITTING OF LONG RANGE ELECTROSTATICS
Info: PLACING ATOMS IN PATCHES BY HYDROGEN GROUPS
Info: RIGID BONDS TO HYDROGEN : ALL
Info:         ERROR TOLERANCE : 1e-08
Info:          MAX ITERATIONS : 100
Info: RIGID WATER USING SETTLE ALGORITHM
Info: RANDOM NUMBER SEED     1743894253
Info: USE HYDROGEN BONDS?    NO
Info: Using AMBER format force field!
Info: AMBER PARM FILE        mobley_3266352.prmtop
Info: COORDINATE PDB         mobley_3266352.pdb
Info: Exclusions will be read from PARM file!
Info: SCNB (VDW SCALING)     2
Info: USING ARITHMETIC MEAN TO COMBINE L-J SIGMA PARAMETERS
Info: BINARY COORDINATES     mobley_3266352_equil.coor
Info: SUMMARY OF PARAMETERS:
Info: 9 BONDS
Info: 11 ANGLES
Info:   11 HARMONIC
Info:   0 COSINE-BASED
Info: 7 DIHEDRAL
Info: 0 IMPROPER
Info: 0 CROSSTERM
Info: 0 VDW
Info: 36 VDW_PAIRS
Info: 0 NBTHOLE_PAIRS
Info: To read alchdata from file: mobley_3266352.pdb
Info: To read alchflag data from column: 5
Info: STRUCTURE SUMMARY:
Info: 2981 ATOMS
Info: 2981 BONDS
Info: 39 ANGLES
Info: 62 DIHEDRALS
Info: 0 IMPROPERS
Info: 0 CROSSTERMS
Info: 3066 EXCLUSIONS
Info: 2968 RIGID BONDS
Info: ALCH: 0 ATOMS TO DISAPPEAR IN FINAL STATE
Info: ALCH: 23 ATOMS TO APPEAR IN FINAL STATE
Info: 5975 DEGREES OF FREEDOM
Info: 999 HYDROGEN GROUPS
Info: 4 ATOMS IN LARGEST HYDROGEN GROUP
Info: 999 MIGRATION GROUPS
Info: 4 ATOMS IN LARGEST MIGRATION GROUP
Info: TOTAL MASS = 17953 amu
Info: TOTAL CHARGE = 0.00010002 e
Info: MASS DENSITY = 0.964018 g/cm^3
Info: ATOM DENSITY = 0.0963945 atoms/A^3
Info: ADDED 0 IMPLICIT EXCLUSIONS
Info: NONBONDED TABLE R-SQUARED SPACING: 0.0625
Info: NONBONDED TABLE SIZE: 705 POINTS
Info: REMOVING COM VELOCITY 0.0220572 -0.0667795 0.0361706
Info: Use 3D box decompostion in PME FFT.
Info: Updated CUDA force table with 4096 elements.
Info: Updated CUDA LJ table with 8 x 8 elements.
Info: Found 22 unique exclusion lists needing 64 bytes
TCL: Running for 1500000 steps
ETITLE: TS BOND ANGLE DIHED IMPRP ELECT VDW BOUNDARY MISC KINETIC TOTAL TEMP POTENTIAL TOTALAVG TEMPAVG PRESSURE GPRESSURE VOLUME PRESSAVG GPRESSAVG
ENERGY: 0 8.2311 9.8555 5.6686 0.0000 -10609.5561 1411.5628 0.0000 0.0000 1833.6594 -7340.5788 308.8667 -9174.2382 -7340.5788 308.8667 -459.1112 -377.0829 30925.0145 -459.1112 -377.0829
ENERGY: 300000 3.3810 11.5602 5.5033 0.0000 -10686.6653 1373.8886 0.0000 0.0000 1775.5546 -7516.7776 299.0794 -9292.3322 -7471.3077 299.2423 -823.4170 -722.6200 30747.7570 -112.4651 -33.3568
ENERGY: 600000 1.1683 7.5482 10.2109 0.0000 -10695.2310 1425.9013 0.0000 0.0000 1757.9434 -7492.4589 296.1129 -9250.4022 -7475.3042 300.6731 -274.0303 -264.1658 30900.7919 26.8489 85.7104
ENERGY: 900000 4.7375 5.3360 8.1756 0.0000 -10727.3959 1450.4960 0.0000 0.0000 1772.9728 -7485.6781 298.6445 -9258.6508 -7475.3155 301.2362 -147.1806 -39.5596 30634.3227 178.5080 248.9184
ENERGY: 1200000 3.1462 8.5479 9.1362 0.0000 -10699.4204 1398.9361 0.0000 0.0000 1827.6389 -7452.0150 307.8526 -9279.6539 -7470.9013 302.2163 -584.8198 -560.8455 30869.3677 46.1977 112.7716
ENERGY: 1500000 3.8598 6.8397 7.4282 0.0000 -10843.5504 1559.7984 0.0000 0.0000 1819.0399 -7446.5845 306.4042 -9265.6244 -7465.6441 302.4798 929.9109 1043.3354 30500.2925 107.9861 170.5410
TCL: Running FEP window   2: Lambda1 0.05   Lambda2 0.1    [dLambda 0.05  ]
TCL: Setting parameter firsttimestep to 0
TCL: Setting parameter alchLambda to 0.05
Info: NONBONDED TABLE R-SQUARED SPACING: 0.0625
Info: NONBONDED TABLE SIZE: 705 POINTS
TCL: Setting parameter alchLambda2 to 0.1
Info: NONBONDED TABLE R-SQUARED SPACING: 0.0625
Info: NONBONDED TABLE SIZE: 705 POINTS
TCL: Running for 1500000 steps
ETITLE: TS BOND ANGLE DIHED IMPRP ELECT VDW BOUNDARY MISC KINETIC TOTAL TEMP POTENTIAL TOTALAVG TEMPAVG PRESSURE GPRESSURE VOLUME PRESSAVG GPRESSAVG
ENERGY: 0 3.8598 6.8397 7.4282 0.0000 -10843.5500 1560.1931 0.0000 0.0000 1818.1842 -7447.0449 306.2601 -9265.2292 -7447.0449 306.2601 959.1755 1045.6549 30500.2925 959.1755 1045.6549
ENERGY: 300000 5.6355 10.7114 13.9935 0.0000 -10859.8957 1461.9202 0.0000 0.0000 1838.7252 -7528.9099 309.7200 -9367.6351 -7455.9388 303.7661 -255.2326 -177.8229 30321.9213 276.5160 358.0190
ENERGY: 600000 8.1610 8.8773 6.6379 0.0000 -10731.5422 1421.6781 0.0000 0.0000 1835.6352 -7450.5526 309.1996 -9286.1878 -7476.7624 302.1110 -84.7526 -32.9084 30281.3009 152.8769 216.7463
ENERGY: 900000 1.7350 14.6218 6.0280 0.0000 -10894.3712 1562.6298 0.0000 0.0000 1754.7791 -7554.5774 295.5799 -9309.3565 -7493.1518 301.3259 961.6066 1080.3172 30028.3315 293.3924 366.4011
ENERGY: 1200000 3.2500 10.1241 12.2748 0.0000 -10716.3542 1470.7178 0.0000 0.0000 1780.3711 -7439.6164 299.8907 -9219.9875 -7482.4592 301.6152 -21.2811 52.7923 31001.3577 293.6568 359.7116
ENERGY: 1500000 8.5578 9.1350 6.5335 0.0000 -10731.6722 1476.9608 0.0000 0.0000 1818.3457 -7412.1394 306.2873 -9230.4851 -7482.8269 301.4328 225.9557 281.2200 30451.5744 229.0432 291.4917
TCL: Running FEP window   3: Lambda1 0.1    Lambda2 0.15000000000000002 [dLambda 0.05000000000000002]
TCL: Setting parameter firsttimestep to 0
TCL: Setting parameter alchLambda to 0.1
Info: NONBONDED TABLE R-SQUARED SPACING: 0.0625
Info: NONBONDED TABLE SIZE: 705 POINTS
TCL: Setting parameter alchLambda2 to 0.15000000000000002
Info: NONBONDED TABLE R-SQUARED SPACING: 0.0625
Info: NONBONDED TABLE SIZE: 705 POINTS
TCL: Running for 1500000 steps
ETITLE: TS BOND ANGLE DIHED IMPRP ELECT VDW BOUNDARY MISC KINETIC TOTAL TEMP POTENTIAL TOTALAVG TEMPAVG PRESSURE GPRESSURE VOLUME PRESSAVG GPRESSAVG
ENERGY: 0 8.5578 9.1350 6.5335 0.0000 -10731.6719 1478.5048 0.0000 0.0000 1817.4626 -7411.4782 306.1385 -9228.9408 -7411.4782 306.1385 205.2719 287.3136 30451.5744 205.2719 287.3136
ENERGY: 300000 4.8854 10.0211 4.5436 0.0000 -10744.5235 1446.8198 0.0000 0.0000 1783.2707 -7494.9828 300.3791 -9278.2536 -7495.0246 300.5509 -140.2183 -38.6697 30457.1291 250.8259 289.7302
ENERGY: 600000 3.1319 13.3100 9.5568 0.0000 -10671.9479 1407.4744 0.0000 0.0000 1735.1164 -7503.3585 292.2679 -9238.4749 -7509.2416 298.0561 -407.5375 -273.5500 30225.3985 105.6001 163.1050
ENERGY: 900000 2.1741 9.7261 9.2400 0.0000 -10654.4756 1428.0631 0.0000 0.0000 1790.3370 -7414.9352 301.5694 -9205.2722 -7484.6572 297.7063 46.3285 54.5091 30730.6622 209.0036 255.1865
ENERGY: 1200000 4.4535 9.2670 4.3506 0.0000 -10701.1092 1410.7970 0.0000 0.0000 1801.9438 -7470.2972 303.5245 -9272.2411 -7488.6643 298.2863 -559.9118 -443.5998 30914.8715 70.0917 120.4061
ENERGY: 1500000 2.9993 10.3514 11.7890 0.0000 -10712.2590 1471.7778 0.0000 0.0000 1748.8358 -7466.5056 294.5788 -9215.3415 -7481.7572 297.9954 443.2336 479.6934 30846.9455 -22.3925 27.1469
TCL: Running FEP window   4: Lambda1 0.15000000000000002 Lambda2 0.2    [dLambda 0.04999999999999999]
TCL: Setting parameter firsttimestep to 0
TCL: Setting parameter alchLambda to 0.15000000000000002
Info: NONBONDED TABLE R-SQUARED SPACING: 0.0625
Info: NONBONDED TABLE SIZE: 705 POINTS
TCL: Setting parameter alchLambda2 to 0.2
Info: NONBONDED TABLE R-SQUARED SPACING: 0.0625
Info: NONBONDED TABLE SIZE: 705 POINTS
TCL: Running for 1500000 steps
ETITLE: TS BOND ANGLE DIHED IMPRP ELECT VDW BOUNDARY MISC KINETIC TOTAL TEMP POTENTIAL TOTALAVG TEMPAVG PRESSURE GPRESSURE VOLUME PRESSAVG GPRESSAVG
ENERGY: 0 2.9994 10.3514 11.7890 0.0000 -10712.2582 1472.1285 0.0000 0.0000 1747.9758 -7467.0141 294.4340 -9214.9899 -7467.0141 294.4340 390.9013 484.7497 30846.9455 390.9013 484.7497
ENERGY: 300000 5.4993 10.0872 2.8454 0.0000 -10774.5348 1485.2402 0.0000 0.0000 1843.2760 -7427.5868 310.4866 -9270.8628 -7480.4099 299.5034 235.3650 316.8367 30556.9345 -22.1482 38.9620
ENERGY: 600000 7.6662 4.8565 4.7170 0.0000 -10745.9810 1489.6254 0.0000 0.0000 1800.9549 -7438.1610 303.3579 -9239.1160 -7482.1985 300.1501 148.9148 183.9807 30940.8320 -246.8850 -184.1630
ENERGY: 900000 2.8142 6.0659 4.2438 0.0000 -10818.1592 1508.0634 0.0000 0.0000 1825.2256 -7471.7464 307.4461 -9296.9720 -7481.2918 300.4108 380.6336 441.0004 30466.7525 -18.2923 43.8641
ENERGY: 1200000 6.9106 7.0852 6.3823 0.0000 -10823.0742 1475.8860 0.0000 0.0000 1794.7084 -7532.1018 302.3057 -9326.8102 -7490.7553 300.6169 -190.4908 -77.6996 30817.2072 76.8110 136.1487
ENERGY: 1500000 4.6622 11.4592 12.2928 0.0000 -10809.1547 1518.1142 0.0000 0.0000 1795.0587 -7467.5676 302.3647 -9262.6263 -7484.6287 301.0160 684.5388 740.5826 30116.5093 102.3675 166.0569
TCL: Running FEP window   5: Lambda1 0.2    Lambda2 0.25   [dLambda 0.04999999999999999]
TCL: Setting parameter firsttimestep to 0
TCL: Setting parameter alchLambda to 0.2
Info: NONBONDED TABLE R-SQUARED SPACING: 0.0625
Info: NONBONDED TABLE SIZE: 705 POINTS
TCL: Setting parameter alchLambda2 to 0.25
Info: NONBONDED TABLE R-SQUARED SPACING: 0.0625
Info: NONBONDED TABLE SIZE: 705 POINTS
TCL: Running for 1500000 steps
ETITLE: TS BOND ANGLE DIHED IMPRP ELECT VDW BOUNDARY MISC KINETIC TOTAL TEMP POTENTIAL TOTALAVG TEMPAVG PRESSURE GPRESSURE VOLUME PRESSAVG GPRESSAVG
ENERGY: 0 4.6622 11.4592 12.2928 0.0000 -10809.1551 1518.7332 0.0000 0.0000 1794.1922 -7467.8155 302.2188 -9262.0077 -7467.8155 302.2188 675.6642 748.8901 30116.5093 675.6642 748.8901
ENERGY: 300000 7.8490 10.0174 5.1720 0.0000 -10701.8912 1360.7071 0.0000 0.0000 1761.3472 -7556.7986 296.6863 -9318.1458 -7532.0267 297.0290 -973.1374 -853.0482 30321.5727 -51.7872 3.5840
ENERGY: 600000 5.0973 10.6997 8.2628 0.0000 -10860.4520 1486.0410 0.0000 0.0000 1808.8985 -7541.4527 304.6959 -9350.3512 -7518.7254 299.4718 268.6479 339.4185 30068.8721 -30.0074 36.3943
ENERGY: 900000 4.1215 10.1050 12.6470 0.0000 -10785.4632 1476.2437 0.0000 0.0000 1825.7669 -7456.5791 307.5373 -9282.3460 -7507.1172 301.0176 173.5731 206.0197 30795.1961 6.7915 60.0247
ENERGY: 1200000 3.5036 9.2960 4.3550 0.0000 -10766.1075 1433.5390 0.0000 0.0000 1801.8256 -7513.5882 303.5046 -9315.4138 -7503.9686 300.5719 -640.1249 -576.6544 30946.8407 18.2381 75.8005
ENERGY: 1500000 3.8773 9.7241 10.2011 0.0000 -10674.8027 1456.9918 0.0000 0.0000 1809.4160 -7384.5925 304.7831 -9194.0085 -7490.0724 301.8689 245.6714 355.7678 30817.6448 112.5844 173.1543
TCL: Running FEP window   6: Lambda1 0.25   Lambda2 0.3    [dLambda 0.04999999999999999]
TCL: Setting parameter firsttimestep to 0
TCL: Setting parameter alchLambda to 0.25
Info: NONBONDED TABLE R-SQUARED SPACING: 0.0625
Info: NONBONDED TABLE SIZE: 705 POINTS
TCL: Setting parameter alchLambda2 to 0.3
Info: NONBONDED TABLE R-SQUARED SPACING: 0.0625
Info: NONBONDED TABLE SIZE: 705 POINTS
TCL: Running for 1500000 steps
ETITLE: TS BOND ANGLE DIHED IMPRP ELECT VDW BOUNDARY MISC KINETIC TOTAL TEMP POTENTIAL TOTALAVG TEMPAVG PRESSURE GPRESSURE VOLUME PRESSAVG GPRESSAVG
ENERGY: 0 3.8773 9.7241 10.2011 0.0000 -10674.8015 1457.3015 0.0000 0.0000 1808.5299 -7385.1677 304.6339 -9193.6976 -7385.1677 304.6339 287.5126 361.1545 30817.6448 287.5126 361.1545
ENERGY: 300000 8.1784 8.4487 7.5785 0.0000 -10809.4087 1440.4457 0.0000 0.0000 1758.7350 -7586.0224 296.2463 -9344.7574 -7489.0484 299.6922 -374.7223 -293.7970 30626.8669 -160.0401 -83.5748
ENERGY: 600000 5.4536 13.4451 10.2312 0.0000 -10729.2476 1470.0323 0.0000 0.0000 1793.0673 -7437.0182 302.0293 -9230.0855 -7471.2887 300.3849 275.3779 351.6197 30718.2002 -76.2043 -3.3175
ENERGY: 900000 7.1061 12.5382 5.1900 0.0000 -10619.5238 1370.0956 0.0000 0.0000 1775.3719 -7449.2220 299.0486 -9224.5939 -7469.2127 299.8616 -443.8196 -372.6064 30625.6133 -51.0677 23.0550
ENERGY: 1200000 3.3915 7.5439 7.6002 0.0000 -10793.2936 1449.8278 0.0000 0.0000 1792.7488 -7532.1815 301.9756 -9324.9302 -7465.8322 301.2053 61.9776 174.9677 30209.6453 -41.2028 32.0283
ENERGY: 1500000 5.6081 10.0396 3.6374 0.0000 -10754.7657 1409.3555 0.0000 0.0000 1805.1993 -7520.9258 304.0728 -9326.1252 -7473.9300 301.2681 -686.4052 -664.4582 31084.4696 -7.1776 68.9298
TCL: Running FEP window   7: Lambda1 0.3    Lambda2 0.35   [dLambda 0.04999999999999999]
TCL: Setting parameter firsttimestep to 0
TCL: Setting parameter alchLambda to 0.3
Info: NONBONDED TABLE R-SQUARED SPACING: 0.0625
Info: NONBONDED TABLE SIZE: 705 POINTS
TCL: Setting parameter alchLambda2 to 0.35
Info: NONBONDED TABLE R-SQUARED SPACING: 0.0625
Info: NONBONDED TABLE SIZE: 705 POINTS
TCL: Running for 1500000 steps
ETITLE: TS BOND ANGLE DIHED IMPRP ELECT VDW BOUNDARY MISC KINETIC TOTAL TEMP POTENTIAL TOTALAVG TEMPAVG PRESSURE GPRESSURE VOLUME PRESSAVG GPRESSAVG
ENERGY: 0 5.6081 10.0396 3.6374 0.0000 -10754.7641 1408.9576 0.0000 0.0000 1804.2870 -7522.2345 303.9192 -9326.5215 -7522.2345 303.9192 -741.7671 -661.1407 31084.4696 -741.7671 -661.1407
ENERGY: 300000 1.7754 5.7780 10.6145 0.0000 -10854.0916 1521.6521 0.0000 0.0000 1818.4820 -7495.7895 306.3102 -9314.2716 -7504.8905 304.7408 726.2923 862.1620 29983.2592 -62.9737 17.2214
ENERGY: 600000 3.8639 10.8629 7.4120 0.0000 -10677.3966 1392.0134 0.0000 0.0000 1806.4421 -7456.8024 304.2822 -9263.2445 -7510.8517 301.3007 -635.7692 -529.7818 30547.9663 -65.7875 0.3137
ENERGY: 900000 4.8083 5.6538 8.2018 0.0000 -10767.0900 1515.5752 0.0000 0.0000 1775.5709 -7457.2799 299.0822 -9232.8508 -7501.5011 301.3688 1055.9581 1071.1765 29924.1774 124.6533 184.8566
ENERGY: 1200000 4.1559 10.4919 7.6250 0.0000 -10786.8805 1447.0449 0.0000 0.0000 1846.5843 -7470.9786 311.0438 -9317.5628 -7501.9333 301.9395 34.4194 35.7770 30016.1080 172.2573 220.1793
ENERGY: 1500000 3.2768 6.8668 10.5093 0.0000 -10772.2396 1497.8820 0.0000 0.0000 1767.5329 -7486.1717 297.7282 -9253.7046 -7502.6418 300.7922 415.3822 513.9852 30284.0794 115.9313 168.3295
TCL: Running FEP window   8: Lambda1 0.35   Lambda2 0.39999999999999997 [dLambda 0.04999999999999999]
TCL: Setting parameter firsttimestep to 0
TCL: Setting parameter alchLambda to 0.35
Info: NONBONDED TABLE R-SQUARED SPACING: 0.0625
Info: NONBONDED TABLE SIZE: 705 POINTS
TCL: Setting parameter alchLambda2 to 0.39999999999999997
Info: NONBONDED TABLE R-SQUARED SPACING: 0.0625
Info: NONBONDED TABLE SIZE: 705 POINTS
TCL: Running for 1500000 steps
ETITLE: TS BOND ANGLE DIHED IMPRP ELECT VDW BOUNDARY MISC KINETIC TOTAL TEMP POTENTIAL TOTALAVG TEMPAVG PRESSURE GPRESSURE VOLUME PRESSAVG GPRESSAVG
ENERGY: 0 3.2768 6.8668 10.5093 0.0000 -10772.2388 1500.4763 0.0000 0.0000 1766.6781 -7484.4315 297.5842 -9251.1096 -7484.4315 297.5842 465.8953 533.8225 30284.0794 465.8953 533.8225
ENERGY: 300000 5.3932 6.1759 6.2952 0.0000 -10803.1490 1425.2562 0.0000 0.0000 1732.9743 -7627.0544 291.9071 -9360.0286 -7510.0767 298.4664 -595.0887 -511.9620 30478.2677 -290.3606 -223.6582
ENERGY: 600000 5.2353 8.6579 6.1583 0.0000 -10764.5770 1479.8402 0.0000 0.0000 1827.8660 -7436.8193 307.8909 -9264.6853 -7502.0487 299.3744 592.7691 653.6368 30086.9183 -144.6517 -78.9663
ENERGY: 900000 4.5515 8.3773 7.4367 0.0000 -10701.0366 1476.6704 0.0000 0.0000 1816.8054 -7387.1953 306.0278 -9204.0007 -7488.8639 300.3222 439.4626 498.5536 30481.2602 -142.7598 -77.2421
ENERGY: 1200000 3.5078 7.7834 6.5242 0.0000 -10654.1724 1421.3101 0.0000 0.0000 1788.8905 -7426.1564 301.3257 -9215.0469 -7468.6026 301.4788 -155.1938 -87.7073 30870.8372 -105.8239 -44.9341
ENERGY: 1500000 7.7261 8.1000 8.2014 0.0000 -10755.6802 1396.0228 0.0000 0.0000 1783.4103 -7552.2197 300.4026 -9335.6300 -7476.0613 301.5721 -810.5622 -721.4704 30673.3867 -219.3309 -156.2298
TCL: Running FEP window   9: Lambda1 0.39999999999999997 Lambda2 0.44999999999999996 [dLambda 0.04999999999999999]
TCL: Setting parameter firsttimestep to 0
TCL: Setting parameter alchLambda to 0.39999999999999997
Info: NONBONDED TABLE R-SQUARED SPACING: 0.0625
Info: NONBONDED TABLE SIZE: 705 POINTS
TCL: Setting parameter alchLambda2 to 0.44999999999999996
Info: NONBONDED TABLE R-SQUARED SPACING: 0.0625
Info: NONBONDED TABLE SIZE: 705 POINTS
TCL: Running for 1500000 steps
ETITLE: TS BOND ANGLE DIHED IMPRP ELECT VDW BOUNDARY MISC KINETIC TOTAL TEMP POTENTIAL TOTALAVG TEMPAVG PRESSURE GPRESSURE VOLUME PRESSAVG GPRESSAVG
ENERGY: 0 7.7261 8.1000 8.2014 0.0000 -10755.6805 1397.3572 0.0000 0.0000 1782.5465 -7551.7493 300.2571 -9334.2959 -7551.7493 300.2571 -791.6178 -702.7509 30673.3867 -791.6178 -702.7509
ENERGY: 300000 6.2045 5.4990 6.0920 0.0000 -10833.0977 1455.8945 0.0000 0.0000 1793.4487 -7565.9591 302.0935 -9359.4077 -7511.7196 301.9893 -146.7121 -65.3019 30458.2898 -259.8613 -172.5532
ENERGY: 600000 3.6570 7.1500 6.4372 0.0000 -10660.2387 1397.7862 0.0000 0.0000 1783.1671 -7462.0412 300.3617 -9245.2083 -7481.5788 301.0666 -212.5522 -147.6944 30435.8525 -390.4720 -325.8708
ENERGY: 900000 5.1623 6.0444 7.5956 0.0000 -10864.7572 1534.1869 0.0000 0.0000 1761.3231 -7550.4449 296.6822 -9311.7680 -7498.6093 299.6250 672.1982 724.3809 30240.3770 -305.6050 -238.9267
ENERGY: 1200000 4.6171 13.3709 6.3102 0.0000 -10663.9347 1337.2934 0.0000 0.0000 1807.9414 -7494.4017 304.5347 -9302.3431 -7496.1602 299.3029 -1304.1195 -1237.4428 30992.9720 -286.9398 -214.5505
ENERGY: 1500000 5.9096 6.9301 11.3003 0.0000 -10628.0352 1430.0923 0.0000 0.0000 1744.6255 -7429.1773 293.8696 -9173.8028 -7488.9019 298.7891 135.3284 153.2579 30474.4204 -289.0172 -218.4829
TCL: Running FEP window  10: Lambda1 0.44999999999999996 Lambda2 0.49999999999999994 [dLambda 0.04999999999999999]
TCL: Setting parameter firsttimestep to 0
TCL: Setting parameter alchLambda to 0.44999999999999996
Info: NONBONDED TABLE R-SQUARED SPACING: 0.0625
Info: NONBONDED TABLE SIZE: 705 POINTS
TCL: Setting parameter alchLambda2 to 0.49999999999999994
Info: NONBONDED TABLE R-SQUARED SPACING: 0.0625
Info: NONBONDED TABLE SIZE: 705 POINTS
TCL: Running for 1500000 steps
ETITLE: TS BOND ANGLE DIHED IMPRP ELECT VDW BOUNDARY MISC KINETIC TOTAL TEMP POTENTIAL TOTALAVG TEMPAVG PRESSURE GPRESSURE VOLUME PRESSAVG GPRESSAVG
ENERGY: 0 5.9095 6.9301 11.3004 0.0000 -10628.0354 1429.7044 0.0000 0.0000 1743.7190 -7430.4720 293.7169 -9174.1909 -7430.4720 293.7169 68.4712 156.0729 30474.4204 68.4712 156.0729
ENERGY: 300000 6.1384 11.6313 9.5491 0.0000 -10676.5742 1413.9606 0.0000 0.0000 1788.2481 -7447.0468 301.2175 -9235.2949 -7461.9505 300.4853 -72.7879 -8.0356 30902.8748 188.5609 258.1125
ENERGY: 600000 6.4142 13.1163 10.7023 0.0000 -10766.2049 1482.5905 0.0000 0.0000 1742.1352 -7511.2463 293.4502 -9253.3816 -7463.8893 300.5064 205.9709 236.0909 30554.2857 148.8719 206.0267
ENERGY: 900000 3.9121 6.3206 3.5498 0.0000 -10714.4021 1465.4427 0.0000 0.0000 1843.9121 -7391.2648 310.5937 -9235.1768 -7466.3841 300.2055 281.6565 310.1020 30738.3775 74.7751 125.5154
ENERGY: 1200000 2.7274 13.0738 2.5201 0.0000 -10680.6093 1399.4908 0.0000 0.0000 1798.7230 -7464.0743 302.9820 -9262.7973 -7478.5418 300.3995 -420.3754 -362.5336 30784.1197 61.7544 108.9607
ENERGY: 1500000 3.0524 8.4367 7.6678 0.0000 -10645.1584 1416.1188 0.0000 0.0000 1815.5684 -7394.3142 305.8194 -9209.8827 -7475.7846 299.8246 -145.4462 -70.4990 30613.4320 -11.4203 37.0223
TCL: Running FEP window  11: Lambda1 0.49999999999999994 Lambda2 0.5499999999999999 [dLambda 0.04999999999999999]
TCL: Setting parameter firsttimestep to 0
TCL: Setting parameter alchLambda to 0.49999999999999994
Info: NONBONDED TABLE R-SQUARED SPACING: 0.0625
Info: NONBONDED TABLE SIZE: 705 POINTS
TCL: Setting parameter alchLambda2 to 0.5499999999999999
Info: NONBONDED TABLE R-SQUARED SPACING: 0.0625
Info: NONBONDED TABLE SIZE: 705 POINTS
TCL: Running for 1500000 steps
ETITLE: TS BOND ANGLE DIHED IMPRP ELECT VDW BOUNDARY MISC KINETIC TOTAL TEMP POTENTIAL TOTALAVG TEMPAVG PRESSURE GPRESSURE VOLUME PRESSAVG GPRESSAVG
ENERGY: 0 3.0524 8.4367 7.6678 0.0000 -10645.1600 1416.5590 0.0000 0.0000 1814.6620 -7394.7821 305.6668 -9209.4441 -7394.7821 305.6668 -138.8772 -63.5304 30613.4320 -138.8772 -63.5304
ENERGY: 300000 7.4547 13.0572 6.1488 0.0000 -10935.6950 1539.0716 0.0000 0.0000 1785.9291 -7584.0337 300.8269 -9369.9627 -7495.2458 300.1645 696.8327 685.3296 30309.5877 54.6543 107.9653
ENERGY: 600000 5.2998 9.1114 9.0390 0.0000 -10715.2938 1405.8844 0.0000 0.0000 1819.6702 -7466.2889 306.5104 -9285.9592 -7485.6815 302.1963 -589.4303 -466.8242 30660.6148 -121.9011 -48.3398
ENERGY: 900000 4.1237 12.0377 5.1725 0.0000 -10904.4167 1507.5173 0.0000 0.0000 1768.1233 -7607.4423 297.8277 -9375.5656 -7505.0168 301.5456 315.5457 341.4710 30480.7166 67.6188 134.5670
ENERGY: 1200000 4.4798 5.8991 5.8343 0.0000 -10701.7803 1384.1620 0.0000 0.0000 1734.1814 -7567.2236 292.1104 -9301.4050 -7502.1652 301.6549 -474.1654 -406.8619 30625.9775 10.3210 75.9008
ENERGY: 1500000 5.3462 4.8828 2.8613 0.0000 -10888.5798 1533.2812 0.0000 0.0000 1772.9843 -7569.2239 298.6464 -9342.2082 -7512.0439 301.3224 694.4844 694.2706 30004.5436 34.4174 93.3893
TCL: Running FEP window  12: Lambda1 0.5499999999999999 Lambda2 0.6    [dLambda 0.050000000000000044]
TCL: Setting parameter firsttimestep to 0
TCL: Setting parameter alchLambda to 0.5499999999999999
Info: NONBONDED TABLE R-SQUARED SPACING: 0.0625
Info: NONBONDED TABLE SIZE: 705 POINTS
TCL: Setting parameter alchLambda2 to 0.6
Info: NONBONDED TABLE R-SQUARED SPACING: 0.0625
Info: NONBONDED TABLE SIZE: 705 POINTS
TCL: Running for 1500000 steps
ETITLE: TS BOND ANGLE DIHED IMPRP ELECT VDW BOUNDARY MISC KINETIC TOTAL TEMP POTENTIAL TOTALAVG TEMPAVG PRESSURE GPRESSURE VOLUME PRESSAVG GPRESSAVG
ENERGY: 0 5.3462 4.8828 2.8613 0.0000 -10888.6781 1533.7084 0.0000 0.0000 1772.0744 -7569.8050 298.4932 -9341.8794 -7569.8050 298.4932 643.5181 707.3231 30004.5436 643.5181 707.3231
ENERGY: 300000 5.5135 8.6696 6.7180 0.0000 -10761.7098 1423.0511 0.0000 0.0000 1793.5043 -7524.2534 302.1029 -9317.7577 -7537.7950 298.9901 -461.9694 -352.5584 30784.3599 229.6234 307.7597
ENERGY: 600000 3.5574 9.8739 9.5237 0.0000 -10660.0939 1377.3456 0.0000 0.0000 1797.9639 -7461.8293 302.8541 -9259.7933 -7510.7604 299.5302 -282.2550 -162.5911 30231.7701 153.5570 244.6633
ENERGY: 900000 6.9551 9.3800 8.7220 0.0000 -10706.7152 1422.0296 0.0000 0.0000 1758.7640 -7500.8644 296.2512 -9259.6285 -7499.6141 299.9384 -349.8384 -307.4249 30388.9322 -107.1525 -28.4882
ENERGY: 1200000 3.5695 7.0426 7.5204 0.0000 -10680.4635 1433.4433 0.0000 0.0000 1765.2883 -7463.5993 297.3501 -9228.8876 -7506.1454 298.8951 -498.0755 -456.0285 31608.1883 -157.8924 -86.0509
ENERGY: 1500000 4.1313 12.3736 6.9476 0.0000 -10862.7306 1552.8128 0.0000 0.0000 1760.3212 -7526.1440 296.5135 -9286.4652 -7503.3849 298.8202 738.6367 753.9509 30525.6184 -88.7021 -19.2655
TCL: Running FEP window  13: Lambda1 0.6    Lambda2 0.65   [dLambda 0.050000000000000044]
TCL: Setting parameter firsttimestep to 0
TCL: Setting parameter alchLambda to 0.6
Info: NONBONDED TABLE R-SQUARED SPACING: 0.0625
Info: NONBONDED TABLE SIZE: 705 POINTS
TCL: Setting parameter alchLambda2 to 0.65
Info: NONBONDED TABLE R-SQUARED SPACING: 0.0625
Info: NONBONDED TABLE SIZE: 705 POINTS
TCL: Running for 1500000 steps
ETITLE: TS BOND ANGLE DIHED IMPRP ELECT VDW BOUNDARY MISC KINETIC TOTAL TEMP POTENTIAL TOTALAVG TEMPAVG PRESSURE GPRESSURE VOLUME PRESSAVG GPRESSAVG
ENERGY: 0 4.1313 12.3736 6.9476 0.0000 -10862.7421 1553.1987 0.0000 0.0000 1759.4769 -7526.6140 296.3712 -9286.0908 -7526.6140 296.3712 669.4219 765.5558 30525.6184 669.4219 765.5558
ENERGY: 300000 5.9827 8.6015 11.5913 0.0000 -10639.3330 1370.7850 0.0000 0.0000 1802.5186 -7439.8539 303.6213 -9242.3726 -7468.8030 300.2961 -481.5874 -428.9165 30833.3482 -3.1332 57.5544
ENERGY: 600000 2.5808 6.8628 13.4385 0.0000 -10604.0360 1357.2999 0.0000 0.0000 1798.4232 -7425.4308 302.9315 -9223.8540 -7455.7719 300.2238 -557.6431 -557.0860 30704.5661 48.2304 100.1366
ENERGY: 900000 3.5081 11.4540 6.1541 0.0000 -10768.5078 1443.9140 0.0000 0.0000 1835.1059 -7468.3717 309.1104 -9303.4777 -7459.4116 301.3491 -150.3990 -101.8785 30831.9445 96.2894 145.3809
ENERGY: 1200000 4.9258 5.9552 9.7972 0.0000 -10679.9049 1363.9878 0.0000 0.0000 1773.2880 -7521.9509 298.6976 -9295.2389 -7463.5805 300.9207 -890.3436 -820.7725 30565.5350 36.4236 91.0751
ENERGY: 1500000 6.8309 11.8375 6.4641 0.0000 -10838.0665 1478.4127 0.0000 0.0000 1767.0055 -7567.5158 297.6394 -9334.5213 -7474.5934 300.7414 -13.5764 75.0611 30696.8394 72.7132 129.0694
TCL: Running FEP window  14: Lambda1 0.65   Lambda2 0.7000000000000001 [dLambda 0.050000000000000044]
TCL: Setting parameter firsttimestep to 0
TCL: Setting parameter alchLambda to 0.65
Info: NONBONDED TABLE R-SQUARED SPACING: 0.0625
Info: NONBONDED TABLE SIZE: 705 POINTS
TCL: Setting parameter alchLambda2 to 0.7000000000000001
Info: NONBONDED TABLE R-SQUARED SPACING: 0.0625
Info: NONBONDED TABLE SIZE: 705 POINTS
TCL: Running for 1500000 steps
ETITLE: TS BOND ANGLE DIHED IMPRP ELECT VDW BOUNDARY MISC KINETIC TOTAL TEMP POTENTIAL TOTALAVG TEMPAVG PRESSURE GPRESSURE VOLUME PRESSAVG GPRESSAVG
ENERGY: 0 6.8309 11.8375 6.4641 0.0000 -10838.9250 1478.0287 0.0000 0.0000 1766.1342 -7569.6297 297.4926 -9335.7638 -7569.6297 297.4926 -7.9913 75.8098 30696.8394 -7.9913 75.8098
ENERGY: 300000 7.6060 8.4264 5.6388 0.0000 -10613.2430 1293.9766 0.0000 0.0000 1732.7987 -7564.7966 291.8775 -9297.5952 -7564.6406 295.3601 -1517.4146 -1389.8319 31021.7555 -322.4252 -229.5546
ENERGY: 600000 5.1464 13.9590 10.3811 0.0000 -10700.5674 1424.6046 0.0000 0.0000 1809.0616 -7437.4147 304.7234 -9246.4763 -7518.9529 298.3867 -150.3643 -74.7309 31027.0669 -419.3882 -330.8766
ENERGY: 900000 3.9655 7.4022 8.2551 0.0000 -10759.7630 1418.7717 0.0000 0.0000 1794.3392 -7527.0292 302.2435 -9321.3684 -7514.9443 298.9943 -237.6821 -225.4207 30674.8804 -396.9554 -322.8468
ENERGY: 1200000 2.7844 8.6900 9.6716 0.0000 -10665.6985 1376.9343 0.0000 0.0000 1809.2188 -7458.3995 304.7499 -9267.6183 -7507.4862 299.6459 -590.2447 -530.8311 30934.2572 -347.7653 -282.8719
ENERGY: 1500000 3.0161 5.5868 9.9469 0.0000 -10851.8750 1494.6405 0.0000 0.0000 1768.0209 -7570.6638 297.8104 -9338.6847 -7519.3870 299.1049 567.2106 627.4422 29968.4118 -247.5784 -176.9007
TCL: Running FEP window  15: Lambda1 0.7000000000000001 Lambda2 0.7500000000000001 [dLambda 0.050000000000000044]
TCL: Setting parameter firsttimestep to 0
TCL: Setting parameter alchLambda to 0.7000000000000001
Info: NONBONDED TABLE R-SQUARED SPACING: 0.0625
Info: NONBONDED TABLE SIZE: 705 POINTS
TCL: Setting parameter alchLambda2 to 0.7500000000000001
Info: NONBONDED TABLE R-SQUARED SPACING: 0.0625
Info: NONBONDED TABLE SIZE: 705 POINTS
TCL: Running for 1500000 steps
ETITLE: TS BOND ANGLE DIHED IMPRP ELECT VDW BOUNDARY MISC KINETIC TOTAL TEMP POTENTIAL TOTALAVG TEMPAVG PRESSURE GPRESSURE VOLUME PRESSAVG GPRESSAVG
ENERGY: 0 3.0161 5.5868 9.9469 0.0000 -10852.4350 1494.5063 0.0000 0.0000 1767.1197 -7572.2591 297.6586 -9339.3789 -7572.2591 297.6586 558.5260 636.3494 29968.4118 558.5260 636.3494
ENERGY: 300000 7.4049 9.0912 5.3436 0.0000 -10595.4068 1378.0465 0.0000 0.0000 1762.6547 -7432.8659 296.9065 -9195.5207 -7524.3530 296.7714 -610.8573 -485.3426 30986.6828 149.0608 198.6110
ENERGY: 600000 3.3315 8.5289 13.3710 0.0000 -10820.5499 1470.9669 0.0000 0.0000 1795.5134 -7528.8382 302.4413 -9324.3516 -7516.4285 300.3979 173.0920 258.5408 30358.6290 36.7186 87.4853
ENERGY: 900000 8.3354 9.1420 8.9896 0.0000 -10833.3876 1480.8072 0.0000 0.0000 1756.7396 -7569.3738 295.9101 -9326.1134 -7522.9014 300.0101 280.6071 386.7744 30319.7920 2.3783 68.5658
ENERGY: 1200000 4.2374 8.5789 9.9693 0.0000 -10681.4543 1362.9307 0.0000 0.0000 1750.8108 -7544.9273 294.9115 -9295.7380 -7523.5604 299.4752 -670.6035 -615.6178 30766.0073 -88.0715 -25.3465
ENERGY: 1500000 8.3515 10.4861 5.6600 0.0000 -10802.8756 1424.4736 0.0000 0.0000 1774.0362 -7579.8683 298.8236 -9353.9044 -7518.5049 299.7175 -427.8373 -296.5952 30497.9131 -126.1029 -54.6534
TCL: Running FEP window  16: Lambda1 0.7500000000000001 Lambda2 0.8000000000000002 [dLambda 0.050000000000000044]
TCL: Setting parameter firsttimestep to 0
TCL: Setting parameter alchLambda to 0.7500000000000001
Info: NONBONDED TABLE R-SQUARED SPACING: 0.0625
Info: NONBONDED TABLE SIZE: 705 POINTS
TCL: Setting parameter alchLambda2 to 0.8000000000000002
Info: NONBONDED TABLE R-SQUARED SPACING: 0.0625
Info: NONBONDED TABLE SIZE: 705 POINTS
TCL: Running for 1500000 steps
ETITLE: TS BOND ANGLE DIHED IMPRP ELECT VDW BOUNDARY MISC KINETIC TOTAL TEMP POTENTIAL TOTALAVG TEMPAVG PRESSURE GPRESSURE VOLUME PRESSAVG GPRESSAVG
ENERGY: 0 8.3515 10.4862 5.6600 0.0000 -10804.7027 1425.1482 0.0000 0.0000 1773.1506 -7581.9062 298.6745 -9355.0568 -7581.9062 298.6745 -352.0780 -279.9502 30497.9131 -352.0780 -279.9502
ENERGY: 300000 3.6725 8.8329 7.5419 0.0000 -10636.5950 1373.5492 0.0000 0.0000 1753.8139 -7489.1847 295.4173 -9242.9987 -7525.1159 297.7076 -825.0367 -718.6241 31049.4980 -209.5200 -114.7233
ENERGY: 600000 5.8414 13.7418 8.3602 0.0000 -10552.9652 1298.5089 0.0000 0.0000 1759.8019 -7466.7110 296.4260 -9226.5129 -7507.4459 299.2478 -844.8971 -763.4780 30776.2620 -285.1593 -186.9325
ENERGY: 900000 4.1762 14.6752 4.1944 0.0000 -10670.1951 1414.5121 0.0000 0.0000 1785.4992 -7447.1381 300.7545 -9232.6373 -7506.0561 299.9997 -92.7906 -77.8413 30824.4313 -169.8543 -81.5163
ENERGY: 1200000 4.2704 11.8793 7.7671 0.0000 -10671.7853 1374.3484 0.0000 0.0000 1709.4574 -7564.0626 287.9458 -9273.5201 -7506.8452 298.8163 -639.9836 -588.5092 30926.3203 -248.9782 -167.9953
ENERGY: 1500000 2.6135 9.2371 8.6319 0.0000 -10671.6659 1408.7869 0.0000 0.0000 1760.0130 -7482.3835 296.4615 -9242.3965 -7501.2437 299.8529 -32.8396 44.2935 30653.3423 -208.2426 -125.2375
TCL: Running FEP window  17: Lambda1 0.8000000000000002 Lambda2 0.8500000000000002 [dLambda 0.050000000000000044]
TCL: Setting parameter firsttimestep to 0
TCL: Setting parameter alchLambda to 0.8000000000000002
Info: NONBONDED TABLE R-SQUARED SPACING: 0.0625
Info: NONBONDED TABLE SIZE: 705 POINTS
TCL: Setting parameter alchLambda2 to 0.8500000000000002
Info: NONBONDED TABLE R-SQUARED SPACING: 0.0625
Info: NONBONDED TABLE SIZE: 705 POINTS
TCL: Running for 1500000 steps
ETITLE: TS BOND ANGLE DIHED IMPRP ELECT VDW BOUNDARY MISC KINETIC TOTAL TEMP POTENTIAL TOTALAVG TEMPAVG PRESSURE GPRESSURE VOLUME PRESSAVG GPRESSAVG
ENERGY: 0 2.6135 9.2371 8.6319 0.0000 -10672.6502 1410.4221 0.0000 0.0000 1759.1043 -7482.6414 296.3085 -9241.7457 -7482.6414 296.3085 -1.8668 76.2765 30653.3423 -1.8668 76.2765
ENERGY: 300000 8.4077 12.5458 4.3133 0.0000 -10748.8907 1476.7138 0.0000 0.0000 1789.8563 -7457.0539 301.4884 -9246.9102 -7522.6269 300.9090 346.4789 371.5629 30779.2533 236.4235 291.0067
ENERGY: 600000 9.8942 7.7455 8.5829 0.0000 -10895.4431 1557.0002 0.0000 0.0000 1739.1300 -7573.0904 292.9439 -9312.2203 -7527.8214 299.4657 399.3873 453.7945 30778.9088 99.8846 162.5095
ENERGY: 900000 2.2027 8.9789 4.7925 0.0000 -10804.0338 1482.3711 0.0000 0.0000 1769.6097 -7536.0789 298.0780 -9305.6887 -7524.9913 298.3346 212.9709 291.2391 30584.2691 -14.3795 52.1019
ENERGY: 1200000 5.8614 10.6436 5.6272 0.0000 -10489.8845 1278.1842 0.0000 0.0000 1739.2471 -7450.3210 292.9637 -9189.5681 -7516.8375 297.8938 -1114.7779 -1132.3568 31016.8641 -148.9207 -106.8277
ENERGY: 1500000 5.0264 11.4567 7.2369 0.0000 -10730.8511 1462.3802 0.0000 0.0000 1812.4776 -7432.2731 305.2988 -9244.7507 -7507.2594 298.6840 -195.0452 -53.6149 30850.3172 -99.6744 -44.5940
TCL: Running FEP window  18: Lambda1 0.8500000000000002 Lambda2 0.9000000000000002 [dLambda 0.050000000000000044]
TCL: Setting parameter firsttimestep to 0
TCL: Setting parameter alchLambda to 0.8500000000000002
Info: NONBONDED TABLE R-SQUARED SPACING: 0.0625
Info: NONBONDED TABLE SIZE: 705 POINTS
TCL: Setting parameter alchLambda2 to 0.9000000000000002
Info: NONBONDED TABLE R-SQUARED SPACING: 0.0625
Info: NONBONDED TABLE SIZE: 705 POINTS
TCL: Running for 1500000 steps
ETITLE: TS BOND ANGLE DIHED IMPRP ELECT VDW BOUNDARY MISC KINETIC TOTAL TEMP POTENTIAL TOTALAVG TEMPAVG PRESSURE GPRESSURE VOLUME PRESSAVG GPRESSAVG
ENERGY: 0 5.0264 11.4567 7.2369 0.0000 -10731.6236 1461.9632 0.0000 0.0000 1811.5880 -7434.3524 305.1490 -9245.9403 -7434.3524 305.1490 -142.3928 -48.8831 30850.3172 -142.3928 -48.8831
ENERGY: 300000 4.0459 7.6830 12.7259 0.0000 -10701.7448 1353.1874 0.0000 0.0000 1819.9963 -7504.1063 306.5653 -9324.1026 -7499.5290 303.2939 -1037.2382 -935.1900 30927.9192 3.1197 65.1919
ENERGY: 600000 4.9123 10.2539 6.5673 0.0000 -10819.8892 1527.1105 0.0000 0.0000 1814.7966 -7456.2487 305.6894 -9271.0453 -7496.8780 302.2059 700.9174 833.1888 30392.3486 5.0571 70.6794
ENERGY: 900000 9.1793 7.1599 9.9471 0.0000 -10680.5099 1378.0992 0.0000 0.0000 1792.6675 -7483.4569 301.9619 -9276.1244 -7493.0854 302.1555 -843.9915 -764.9396 31170.5375 -112.0564 -43.6160
ENERGY: 1200000 5.6521 8.8494 7.7323 0.0000 -10632.1259 1370.2553 0.0000 0.0000 1769.0593 -7470.5774 297.9853 -9239.6367 -7499.6713 302.1675 -654.2126 -586.4132 30898.1963 -90.7603 -20.0182
ENERGY: 1500000 6.9077 9.8239 8.5270 0.0000 -10675.0047 1335.4863 0.0000 0.0000 1807.2093 -7507.0504 304.4114 -9314.2597 -7493.9100 302.4479 -1115.9061 -1022.8462 30695.0470 -151.7071 -80.6981
TCL: Running FEP window  19: Lambda1 0.9000000000000002 Lambda2 0.9500000000000003 [dLambda 0.050000000000000044]
TCL: Setting parameter firsttimestep to 0
TCL: Setting parameter alchLambda to 0.9000000000000002
Info: NONBONDED TABLE R-SQUARED SPACING: 0.0625
Info: NONBONDED TABLE SIZE: 705 POINTS
TCL: Setting parameter alchLambda2 to 0.9500000000000003
Info: NONBONDED TABLE R-SQUARED SPACING: 0.0625
Info: NONBONDED TABLE SIZE: 705 POINTS
TCL: Running for 1500000 steps
ETITLE: TS BOND ANGLE DIHED IMPRP ELECT VDW BOUNDARY MISC KINETIC TOTAL TEMP POTENTIAL TOTALAVG TEMPAVG PRESSURE GPRESSURE VOLUME PRESSAVG GPRESSAVG
ENERGY: 0 6.9077 9.8239 8.5270 0.0000 -10675.6863 1335.7581 0.0000 0.0000 1806.3391 -7508.3304 304.2648 -9314.6695 -7508.3304 304.2648 -1098.9850 -1011.7941 30695.0470 -1098.9850 -1011.7941
ENERGY: 300000 3.9519 10.3293 5.4041 0.0000 -10671.5959 1513.0782 0.0000 0.0000 1807.1200 -7331.7123 304.3964 -9138.8323 -7455.2136 302.8210 983.4826 1021.4338 30863.6781 -205.2165 -159.9001
ENERGY: 600000 4.6055 7.7882 12.2493 0.0000 -10750.1263 1408.5309 0.0000 0.0000 1784.5287 -7532.4237 300.5910 -9316.9524 -7471.0509 301.3841 -331.6732 -280.5151 30457.5743 -275.2245 -237.9478
ENERGY: 900000 4.5672 6.4270 8.1843 0.0000 -10775.5275 1431.9922 0.0000 0.0000 1737.1839 -7587.1730 292.6161 -9324.3568 -7492.8296 299.9257 -367.3888 -312.8380 30822.9253 -199.8309 -154.9288
ENERGY: 1200000 3.9773 7.2093 5.6506 0.0000 -10892.3862 1566.9779 0.0000 0.0000 1784.7509 -7523.8203 300.6284 -9308.5712 -7506.9368 299.3124 1245.2277 1221.5784 30160.1128 -69.3072 -24.9811
ENERGY: 1500000 5.2143 12.5378 7.2683 0.0000 -10593.3156 1410.2729 0.0000 0.0000 1765.8803 -7392.1419 297.4498 -9158.0223 -7495.5167 299.4847 -162.1905 -164.0321 31178.5985 -4.5823 39.7542
TCL: Running FEP window  20: Lambda1 0.9500000000000003 Lambda2 1.0    [dLambda 0.04999999999999971]
TCL: Setting parameter firsttimestep to 0
TCL: Setting parameter alchLambda to 0.9500000000000003
Info: NONBONDED TABLE R-SQUARED SPACING: 0.0625
Info: NONBONDED TABLE SIZE: 705 POINTS
TCL: Setting parameter alchLambda2 to 1.0
Info: NONBONDED TABLE R-SQUARED SPACING: 0.0625
Info: NONBONDED TABLE SIZE: 705 POINTS
TCL: Running for 1500000 steps
ETITLE: TS BOND ANGLE DIHED IMPRP ELECT VDW BOUNDARY MISC KINETIC TOTAL TEMP POTENTIAL TOTALAVG TEMPAVG PRESSURE GPRESSURE VOLUME PRESSAVG GPRESSAVG
ENERGY: 0 5.2143 12.5378 7.2683 0.0000 -10594.6252 1410.0208 0.0000 0.0000 1764.9795 -7394.6046 297.2981 -9159.5841 -7394.6046 297.2981 -251.6828 -157.8134 31178.5985 -251.6828 -157.8134
ENERGY: 300000 9.1766 11.9546 6.6852 0.0000 -10777.9486 1440.5628 0.0000 0.0000 1769.7935 -7539.7760 298.1090 -9309.5694 -7472.7465 298.1539 -313.5965 -293.6165 31013.5022 -468.5939 -394.7928
ENERGY: 600000 5.9097 7.0164 8.5762 0.0000 -10718.5076 1438.4507 0.0000 0.0000 1793.2933 -7465.2613 302.0674 -9258.5546 -7499.4028 298.9419 274.9540 297.3529 30678.7421 -167.4170 -105.5122
ENERGY: 900000 3.4591 8.5439 2.7064 0.0000 -10799.8013 1517.6061 0.0000 0.0000 1805.6884 -7461.7975 304.1552 -9267.4858 -7488.7205 300.3420 821.7247 819.5894 30486.5099 -78.1423 -25.1907
ENERGY: 1200000 4.6568 10.5055 8.7521 0.0000 -10834.2419 1475.5133 0.0000 0.0000 1777.4020 -7557.4122 299.3906 -9334.8143 -7499.9500 300.7332 -17.9861 69.9273 30579.9136 -31.2233 22.4207
ENERGY: 1500000 2.8615 5.6612 7.5859 0.0000 -10796.3446 1485.8343 0.0000 0.0000 1727.5606 -7566.8411 290.9952 -9294.4017 -7505.8874 300.0274 485.1020 510.7435 30450.7964 -3.8783 48.3965
TCL: Exiting due to exit command.
