Info: SIMULATION PARAMETERS:
Info: TIMESTEP               2
Info: NUMBER OF STEPS        0
Info: STEPS PER CYCLE        10
Info: PERIODIC CELL BASIS 1  30.5081 0 0
Info: PERIODIC CELL BASIS 2  0 29.915 0
Info: PERIODIC CELL BASIS 3  0 0 33.173
Info: PERIODIC CELL CENTER   0 0 0
Info: WRAPPING WATERS AROUND PERIODIC BOUNDARIES ON OUTPUT.
Info: WRAPPING ALL CLUSTERS AROUND PERIODIC BOUNDARIES ON OUTPUT.
Info: FIRST LDB TIMESTEP     50
Info: LAST LDB TIMESTEP     -1
Info: HOM BACKGROUND SCALING 1
Info: PME BACKGROUND SCALING 1
Info: MIN ATOMS PER PATCH    40
Info: EMPTY PATCH LOAD       40 ATOMS
Info: VELOCITY FILE          mobley_1046331_equil.vel
Info: CENTER OF MASS MOVING INITIALLY? NO
Info: DIELECTRIC             1
Info: EXCLUDE                SCALED ONE-FOUR
Info: 1-4 ELECTROSTATICS SCALED BY 0.833333
Info: MODIFIED 1-4 VDW PARAMETERS WILL BE USED
Info: DCD FILENAME           mobley_1046331_prod.dcd
Info: DCD FREQUENCY          100000
Info: DCD FIRST STEP         100000
Info: DCD FILE WILL CONTAIN UNIT CELL DATA
Info: XST FILENAME           mobley_1046331_prod.xst
Info: XST FREQUENCY          100000
Info: NO VELOCITY DCD OUTPUT
Info: NO FORCE DCD OUTPUT
Info: OUTPUT FILENAME        mobley_1046331_prod
Info: BINARY OUTPUT FILES WILL BE USED
Info: RESTART FILENAME       mobley_1046331_prod.restart
Info: RESTART FREQUENCY      100000
Info: BINARY RESTART FILES WILL BE USED
Info: CUTOFF                 9
Info: PAIRLIST DISTANCE      11
Info: PAIRLIST SHRINK RATE   0.01
Info: PAIRLIST GROW RATE     0.01
Info: PAIRLIST TRIGGER       0.3
Info: PAIRLISTS PER CYCLE    2
Info: PAIRLISTS ENABLED
Info: MARGIN                 2
Info: HYDROGEN GROUP CUTOFF  2.5
Info: PATCH DIMENSION        15.5
Info: ENERGY OUTPUT STEPS    100000
Info: ENERGY EVALUATION STEPS    100000
Info: OUTPUT ENERGY PRECISION 4
Info: CROSSTERM ENERGY INCLUDED IN DIHEDRAL
Info: TIMING OUTPUT STEPS    1000000
Info: PRESSURE OUTPUT STEPS  100000
Info: ALCHEMICAL FEP ON
Info: FEP CURRENT LAMBDA VALUE     1
Info: FEP COMPARISON LAMBDA VALUE  0.95
Info: FEP INTRA-ALCHEMICAL NON-BONDED INTERACTIONS WILL BE RETAINED
Info: FEP INTRA-ALCHEMICAL BONDED INTERACTIONS WILL BE RETAINED
Info: FEP VDW SHIFTING COEFFICIENT 5
Info: FEP ELEC. ACTIVE FOR ANNIHILATED PARTICLES BETWEEN LAMBDA = 0 AND LAMBDA = 0.5
Info: FEP ELEC. ACTIVE FOR EXNIHILATED PARTICLES BETWEEN LAMBDA = 0.5 AND LAMBDA = 1
Info: FEP VDW ACTIVE FOR ANNIHILATED PARTICLES BETWEEN LAMBDA = 0 AND LAMBDA = 1
Info: FEP VDW ACTIVE FOR EXNIHILATED PARTICLES BETWEEN LAMBDA = 0 AND LAMBDA = 1
Info: FEP BOND ACTIVE FOR ANNIHILATED PARTICLES BETWEEN LAMBDA = 1 AND LAMBDA = 1
Info: FEP BOND ACTIVE FOR EXNIHILATED PARTICLES BETWEEN LAMBDA = 0 AND LAMBDA = 0
Info: LANGEVIN DYNAMICS ACTIVE
Info: LANGEVIN TEMPERATURE   300
Info: LANGEVIN USING BBK INTEGRATOR
Info: LANGEVIN DAMPING COEFFICIENT IS 1 INVERSE PS
Info: LANGEVIN DYNAMICS APPLIED TO HYDROGENS
Info: LANGEVIN PISTON PRESSURE CONTROL ACTIVE
Info:        TARGET PRESSURE IS 1.01325 BAR
Info:     OSCILLATION PERIOD IS 50 FS
Info:             DECAY TIME IS 25 FS
Info:     PISTON TEMPERATURE IS 300 K
Info:       PRESSURE CONTROL IS GROUP-BASED
Info:    INITIAL STRAIN RATE IS -4.76992e-05 -4.76992e-05 -4.76992e-05
Info:       CELL FLUCTUATION IS ISOTROPIC
Info: PARTICLE MESH EWALD (PME) ACTIVE
Info: PME TOLERANCE               1e-06
Info: PME EWALD COEFFICIENT       0.348832
Info: PME INTERPOLATION ORDER     4
Info: PME GRID DIMENSIONS         32 32 36
Info: PME MAXIMUM GRID SPACING    1
Info: PME CALCULATION WILL BE PERFORMED ON GPU
Info: FULL ELECTROSTATIC EVALUATION FREQUENCY      2
Info: USING VERLET I (r-RESPA) MTS SCHEME.
Info: C1 SPLITTING OF LONG RANGE ELECTROSTATICS
Info: PLACING ATOMS IN PATCHES BY HYDROGEN GROUPS
Info: RIGID BONDS TO HYDROGEN : ALL
Info:         ERROR TOLERANCE : 1e-08
Info:          MAX ITERATIONS : 100
Info: RIGID WATER USING SETTLE ALGORITHM
Info: RANDOM NUMBER SEED     1743839309
Info: USE HYDROGEN BONDS?    NO
Info: Using AMBER format force field!
Info: AMBER PARM FILE        mobley_1046331.prmtop
Info: COORDINATE PDB         mobley_1046331.pdb
Info: Exclusions will be read from PARM file!
Info: SCNB (VDW SCALING)     2
Info: USING ARITHMETIC MEAN TO COMBINE L-J SIGMA PARAMETERS
Info: BINARY COORDINATES     mobley_1046331_equil.coor
Info: SUMMARY OF PARAMETERS:
Info: 8 BONDS
Info: 7 ANGLES
Info:   7 HARMONIC
Info:   0 COSINE-BASED
Info: 4 DIHEDRAL
Info: 0 IMPROPER
Info: 0 CROSSTERM
Info: 0 VDW
Info: 28 VDW_PAIRS
Info: 0 NBTHOLE_PAIRS
Info: To read alchdata from file: mobley_1046331.pdb
Info: To read alchflag data from column: 5
Info: STRUCTURE SUMMARY:
Info: 2925 ATOMS
Info: 2925 BONDS
Info: 22 ANGLES
Info: 35 DIHEDRALS
Info: 0 IMPROPERS
Info: 0 CROSSTERMS
Info: 2972 EXCLUSIONS
Info: 2916 RIGID BONDS
Info: ALCH: 0 ATOMS TO DISAPPEAR IN FINAL STATE
Info: ALCH: 15 ATOMS TO APPEAR IN FINAL STATE
Info: 5859 DEGREES OF FREEDOM
Info: 979 HYDROGEN GROUPS
Info: 3 ATOMS IN LARGEST HYDROGEN GROUP
Info: 979 MIGRATION GROUPS
Info: 3 ATOMS IN LARGEST MIGRATION GROUP
Info: TOTAL MASS = 17597.6 amu
Info: TOTAL CHARGE = 0.000100024 e
Info: MASS DENSITY = 0.965218 g/cm^3
Info: ATOM DENSITY = 0.0966135 atoms/A^3
Info: ADDED 0 IMPLICIT EXCLUSIONS
Info: NONBONDED TABLE R-SQUARED SPACING: 0.0625
Info: NONBONDED TABLE SIZE: 705 POINTS
Info: REMOVING COM VELOCITY 0.140836 0.332912 0.0852727
Info: Use 3D box decompostion in PME FFT.
Info: Updated CUDA force table with 4096 elements.
Info: Updated CUDA LJ table with 7 x 7 elements.
Info: Found 17 unique exclusion lists needing 36 bytes
TCL: Running for 1500000 steps
ETITLE: TS BOND ANGLE DIHED IMPRP ELECT VDW BOUNDARY MISC KINETIC TOTAL TEMP POTENTIAL TOTALAVG TEMPAVG PRESSURE GPRESSURE VOLUME PRESSAVG GPRESSAVG
ENERGY: 0 1.9824 1.4484 6.0935 0.0000 -10646.6972 1445.5970 0.0000 0.0000 1693.7738 -7497.8022 290.9526 -9191.5760 -7497.8022 290.9526 -92.1141 -6.4245 30275.2774 -92.1141 -6.4245
ENERGY: 300000 2.3050 4.7988 6.2431 0.0000 -10791.8864 1539.8028 0.0000 0.0000 1754.9937 -7483.7430 301.4688 -9238.7367 -7506.2418 298.1998 710.1256 748.0876 29849.4840 60.4020 139.4060
ENERGY: 600000 9.3428 4.2478 5.2789 0.0000 -10655.0313 1436.5598 0.0000 0.0000 1779.0680 -7420.5341 305.6043 -9199.6021 -7467.1150 299.5064 -261.7639 -183.8157 30014.1323 -191.9015 -113.7416
ENERGY: 900000 2.4689 3.4951 5.7415 0.0000 -10500.4218 1388.0331 0.0000 0.0000 1715.5163 -7385.1669 294.6875 -9100.6832 -7450.2776 299.9531 -367.1496 -333.1701 30485.2184 -122.1097 -44.3173
ENERGY: 1200000 2.4031 5.4962 3.8627 0.0000 -10538.1756 1393.3842 0.0000 0.0000 1768.7839 -7364.2456 303.8377 -9133.0295 -7440.8319 300.0199 57.2673 173.0424 30094.6556 -139.8192 -67.8543
ENERGY: 1500000 4.2038 3.8237 9.0883 0.0000 -10527.3448 1396.4580 0.0000 0.0000 1784.6159 -7329.1550 306.5573 -9113.7710 -7432.1500 300.7779 45.2170 85.7223 30139.8102 -177.2215 -106.0699
TCL: Running FEP window   2: Lambda1 0.95   Lambda2 0.8999999999999999 [dLambda -0.050000000000000044]
TCL: Setting parameter firsttimestep to 0
TCL: Setting parameter alchLambda to 0.95
Info: NONBONDED TABLE R-SQUARED SPACING: 0.0625
Info: NONBONDED TABLE SIZE: 705 POINTS
TCL: Setting parameter alchLambda2 to 0.8999999999999999
Info: NONBONDED TABLE R-SQUARED SPACING: 0.0625
Info: NONBONDED TABLE SIZE: 705 POINTS
TCL: Running for 1500000 steps
ETITLE: TS BOND ANGLE DIHED IMPRP ELECT VDW BOUNDARY MISC KINETIC TOTAL TEMP POTENTIAL TOTALAVG TEMPAVG PRESSURE GPRESSURE VOLUME PRESSAVG GPRESSAVG
ENERGY: 0 4.2038 3.8237 9.0883 0.0000 -10526.0246 1396.6057 0.0000 0.0000 1783.7483 -7328.5548 306.4082 -9112.3031 -7328.5548 306.4082 16.6724 80.9187 30139.8102 16.6724 80.9187
ENERGY: 300000 1.2060 5.4583 4.5701 0.0000 -10693.7944 1446.3672 0.0000 0.0000 1701.1520 -7535.0408 292.2200 -9236.1927 -7432.4714 298.6423 -48.3778 -7.8491 29874.1589 -225.3806 -161.9540
ENERGY: 600000 0.5364 3.2924 5.6904 0.0000 -10689.8993 1501.7632 0.0000 0.0000 1760.4407 -7418.1762 302.4045 -9178.6169 -7430.1789 297.9340 709.7558 708.5518 30084.9700 -142.8313 -85.4928
ENERGY: 900000 1.4981 4.3752 3.7366 0.0000 -10511.7619 1372.9582 0.0000 0.0000 1705.2312 -7423.9626 292.9208 -9129.1937 -7437.9458 298.7965 -475.5806 -413.4690 30498.6948 -156.7672 -93.5930
ENERGY: 1200000 3.2180 6.1060 5.9907 0.0000 -10519.9576 1391.0578 0.0000 0.0000 1699.8686 -7413.7165 291.9996 -9113.5851 -7440.6554 297.9649 -113.8262 -81.4902 30216.7162 -65.2732 -1.7859
ENERGY: 1500000 2.2974 3.5290 6.0402 0.0000 -10747.0234 1549.8018 0.0000 0.0000 1745.5151 -7439.8400 299.8406 -9185.3550 -7443.8641 297.6725 1086.6089 1155.6457 29768.3115 8.7864 72.0733
TCL: Running FEP window   3: Lambda1 0.8999999999999999 Lambda2 0.8499999999999999 [dLambda -0.050000000000000044]
TCL: Setting parameter firsttimestep to 0
TCL: Setting parameter alchLambda to 0.8999999999999999
Info: NONBONDED TABLE R-SQUARED SPACING: 0.0625
Info: NONBONDED TABLE SIZE: 705 POINTS
TCL: Setting parameter alchLambda2 to 0.8499999999999999
Info: NONBONDED TABLE R-SQUARED SPACING: 0.0625
Info: NONBONDED TABLE SIZE: 705 POINTS
TCL: Running for 1500000 steps
ETITLE: TS BOND ANGLE DIHED IMPRP ELECT VDW BOUNDARY MISC KINETIC TOTAL TEMP POTENTIAL TOTALAVG TEMPAVG PRESSURE GPRESSURE VOLUME PRESSAVG GPRESSAVG
ENERGY: 0 2.2974 3.5290 6.0402 0.0000 -10746.2584 1549.9113 0.0000 0.0000 1744.6760 -7439.8045 299.6965 -9184.4805 -7439.8045 299.6965 1061.0679 1145.0880 29768.3115 1061.0679 1145.0880
ENERGY: 300000 3.2648 3.3688 3.4733 0.0000 -10615.9533 1381.4568 0.0000 0.0000 1776.4692 -7447.9203 305.1579 -9224.3896 -7447.7755 301.6014 -320.7276 -263.9489 29671.8463 86.1695 150.8618
ENERGY: 600000 4.3435 2.2955 4.3828 0.0000 -10653.9629 1455.5543 0.0000 0.0000 1744.9819 -7442.4048 299.7491 -9187.3868 -7451.5349 299.9300 -167.7162 -94.6806 30478.2774 22.6686 75.8096
ENERGY: 900000 3.1631 4.1295 5.3133 0.0000 -10617.0318 1467.9559 0.0000 0.0000 1745.0294 -7391.4406 299.7572 -9136.4700 -7434.0118 299.5426 856.6947 908.0040 29351.4410 63.2144 124.3351
ENERGY: 1200000 3.4191 3.3001 7.3228 0.0000 -10598.1407 1416.7108 0.0000 0.0000 1808.3456 -7359.0423 310.6335 -9167.3879 -7424.3211 300.2428 54.1534 145.7375 30239.7954 53.9055 123.8300
ENERGY: 1500000 3.9341 4.4105 3.8932 0.0000 -10753.0924 1488.0006 0.0000 0.0000 1763.9483 -7488.9058 303.0071 -9252.8540 -7431.5020 300.0799 546.0898 594.2970 29555.3955 44.4706 112.2659
TCL: Running FEP window   4: Lambda1 0.8499999999999999 Lambda2 0.7999999999999998 [dLambda -0.050000000000000044]
TCL: Setting parameter firsttimestep to 0
TCL: Setting parameter alchLambda to 0.8499999999999999
Info: NONBONDED TABLE R-SQUARED SPACING: 0.0625
Info: NONBONDED TABLE SIZE: 705 POINTS
TCL: Setting parameter alchLambda2 to 0.7999999999999998
Info: NONBONDED TABLE R-SQUARED SPACING: 0.0625
Info: NONBONDED TABLE SIZE: 705 POINTS
TCL: Running for 1500000 steps
ETITLE: TS BOND ANGLE DIHED IMPRP ELECT VDW BOUNDARY MISC KINETIC TOTAL TEMP POTENTIAL TOTALAVG TEMPAVG PRESSURE GPRESSURE VOLUME PRESSAVG GPRESSAVG
ENERGY: 0 3.9341 4.4105 3.8932 0.0000 -10751.4784 1487.7374 0.0000 0.0000 1763.0565 -7488.4468 302.8539 -9251.5033 -7488.4468 302.8539 519.7051 584.9695 29555.3955 519.7051 584.9695
ENERGY: 300000 1.0133 6.4662 5.4263 0.0000 -10587.5450 1441.5462 0.0000 0.0000 1778.8443 -7354.2487 305.5659 -9133.0929 -7408.6834 301.9635 189.9114 280.0206 30332.6387 49.5039 117.6559
ENERGY: 600000 1.8356 8.4514 3.1124 0.0000 -10428.5046 1301.1514 0.0000 0.0000 1723.0122 -7390.9415 295.9751 -9113.9538 -7402.0181 299.9178 -794.1509 -782.4464 30273.7095 -146.2551 -76.8662
ENERGY: 900000 1.5855 5.3823 8.0894 0.0000 -10571.6140 1442.7464 0.0000 0.0000 1721.5032 -7392.3073 295.7159 -9113.8104 -7415.6660 298.6908 388.1042 516.3683 29983.2310 -8.1325 74.5047
ENERGY: 1200000 1.0052 2.0311 6.3658 0.0000 -10457.9924 1296.7143 0.0000 0.0000 1754.2636 -7397.6123 301.3434 -9151.8759 -7404.9974 299.7127 -862.2001 -864.9174 30269.5461 -24.9755 44.9343
ENERGY: 1500000 2.0856 5.6200 2.8360 0.0000 -10671.1136 1468.3221 0.0000 0.0000 1747.4889 -7444.7610 300.1797 -9192.2499 -7410.3822 299.6720 176.7540 310.3067 30088.9415 -80.8872 -7.9245
TCL: Running FEP window   5: Lambda1 0.7999999999999998 Lambda2 0.7499999999999998 [dLambda -0.050000000000000044]
TCL: Setting parameter firsttimestep to 0
TCL: Setting parameter alchLambda to 0.7999999999999998
Info: NONBONDED TABLE R-SQUARED SPACING: 0.0625
Info: NONBONDED TABLE SIZE: 705 POINTS
TCL: Setting parameter alchLambda2 to 0.7499999999999998
Info: NONBONDED TABLE R-SQUARED SPACING: 0.0625
Info: NONBONDED TABLE SIZE: 705 POINTS
TCL: Running for 1500000 steps
ETITLE: TS BOND ANGLE DIHED IMPRP ELECT VDW BOUNDARY MISC KINETIC TOTAL TEMP POTENTIAL TOTALAVG TEMPAVG PRESSURE GPRESSURE VOLUME PRESSAVG GPRESSAVG
ENERGY: 0 2.0856 5.6200 2.8360 0.0000 -10670.5259 1468.5389 0.0000 0.0000 1746.6231 -7444.8224 300.0310 -9191.4454 -7444.8224 300.0310 210.8754 302.6714 30088.9415 210.8754 302.6714
ENERGY: 300000 3.5727 4.2303 7.4652 0.0000 -10801.3786 1545.1933 0.0000 0.0000 1722.2847 -7518.6323 295.8502 -9240.9170 -7471.7763 297.2406 724.6916 746.5231 29942.9494 244.9366 302.8499
ENERGY: 600000 3.0601 2.3539 3.3139 0.0000 -10479.0014 1343.8580 0.0000 0.0000 1745.1501 -7381.2653 299.7779 -9126.4154 -7423.1648 297.8187 -442.2283 -375.7161 30025.7460 3.4294 62.2229
ENERGY: 900000 2.8058 6.3456 4.9096 0.0000 -10601.2915 1483.7022 0.0000 0.0000 1733.8143 -7369.7141 297.8307 -9103.5283 -7435.1728 298.4422 701.7765 762.9574 30146.5989 131.2984 192.3964
ENERGY: 1200000 3.3485 1.7379 7.1433 0.0000 -10529.4066 1369.9479 0.0000 0.0000 1726.6115 -7420.6174 296.5934 -9147.2289 -7431.1316 299.0143 -768.8238 -684.4976 30369.6774 30.1398 91.5982
ENERGY: 1500000 3.1074 3.2720 4.1924 0.0000 -10558.6532 1435.5676 0.0000 0.0000 1744.5209 -7367.9930 299.6699 -9112.5138 -7426.8649 299.4664 84.6221 163.5205 30075.1953 39.9518 97.1981
TCL: Running FEP window   6: Lambda1 0.7499999999999998 Lambda2 0.6999999999999997 [dLambda -0.050000000000000044]
TCL: Setting parameter firsttimestep to 0
TCL: Setting parameter alchLambda to 0.7499999999999998
Info: NONBONDED TABLE R-SQUARED SPACING: 0.0625
Info: NONBONDED TABLE SIZE: 705 POINTS
TCL: Setting parameter alchLambda2 to 0.6999999999999997
Info: NONBONDED TABLE R-SQUARED SPACING: 0.0625
Info: NONBONDED TABLE SIZE: 705 POINTS
TCL: Running for 1500000 steps
ETITLE: TS BOND ANGLE DIHED IMPRP ELECT VDW BOUNDARY MISC KINETIC TOTAL TEMP POTENTIAL TOTALAVG TEMPAVG PRESSURE GPRESSURE VOLUME PRESSAVG GPRESSAVG
ENERGY: 0 3.1074 3.2720 4.1924 0.0000 -10556.9585 1435.6009 0.0000 0.0000 1743.6769 -7367.1090 299.5249 -9110.7859 -7367.1090 299.5249 71.3798 158.0036 30075.1953 71.3798 158.0036
ENERGY: 300000 4.4458 4.6373 4.8512 0.0000 -10506.0402 1301.6156 0.0000 0.0000 1739.3052 -7451.1851 298.7739 -9190.4903 -7389.3752 301.9433 -1222.9286 -1169.8287 30435.1090 -382.0047 -312.3253
ENERGY: 600000 6.0867 3.8619 5.6766 0.0000 -10527.9604 1346.8008 0.0000 0.0000 1719.8080 -7445.7265 295.4247 -9165.5345 -7422.9467 301.3659 -892.4454 -747.8147 30195.6552 -329.6175 -264.4574
ENERGY: 900000 3.3089 4.7842 2.6273 0.0000 -10601.7090 1445.2355 0.0000 0.0000 1724.3135 -7421.4397 296.1987 -9145.7531 -7438.3176 300.6154 474.4430 557.7502 29711.3032 -171.0532 -104.1530
ENERGY: 1200000 3.2691 2.2765 3.7287 0.0000 -10595.4703 1431.4451 0.0000 0.0000 1741.0446 -7413.7063 299.0727 -9154.7510 -7426.2463 300.8554 164.8561 292.3867 29685.6223 -85.0484 -14.6941
ENERGY: 1500000 3.4451 3.1426 7.5552 0.0000 -10614.8435 1452.3674 0.0000 0.0000 1731.6018 -7416.7316 297.4506 -9148.3334 -7424.3201 300.6027 368.2557 410.2436 30026.0080 -105.2233 -37.1658
TCL: Running FEP window   7: Lambda1 0.6999999999999997 Lambda2 0.6499999999999997 [dLambda -0.050000000000000044]
TCL: Setting parameter firsttimestep to 0
TCL: Setting parameter alchLambda to 0.6999999999999997
Info: NONBONDED TABLE R-SQUARED SPACING: 0.0625
Info: NONBONDED TABLE SIZE: 705 POINTS
TCL: Setting parameter alchLambda2 to 0.6499999999999997
Info: NONBONDED TABLE R-SQUARED SPACING: 0.0625
Info: NONBONDED TABLE SIZE: 705 POINTS
TCL: Running for 1500000 steps
ETITLE: TS BOND ANGLE DIHED IMPRP ELECT VDW BOUNDARY MISC KINETIC TOTAL TEMP POTENTIAL TOTALAVG TEMPAVG PRESSURE GPRESSURE VOLUME PRESSAVG GPRESSAVG
ENERGY: 0 3.4451 3.1426 7.5552 0.0000 -10612.9750 1450.9416 0.0000 0.0000 1730.7486 -7417.1420 297.3041 -9147.8907 -7417.1420 297.3041 307.1455 395.1267 30026.0080 307.1455 395.1267
ENERGY: 300000 2.9244 5.0459 2.5498 0.0000 -10615.5357 1393.4617 0.0000 0.0000 1754.5817 -7456.9722 301.3981 -9211.5540 -7429.0194 301.6266 -141.4777 -91.4784 29612.4931 185.2320 251.4933
ENERGY: 600000 3.0399 6.5584 4.0921 0.0000 -10479.0353 1348.0288 0.0000 0.0000 1768.9838 -7348.3322 303.8720 -9117.3160 -7426.9816 301.7297 -434.9198 -364.6023 29928.0829 151.2965 207.7131
ENERGY: 900000 3.2137 5.7597 7.2481 0.0000 -10450.7828 1367.9244 0.0000 0.0000 1782.8386 -7283.7982 306.2520 -9066.6368 -7407.2577 302.1172 -284.0115 -278.6709 30478.8744 67.8868 124.4754
ENERGY: 1200000 2.1042 2.9442 5.4058 0.0000 -10580.1899 1384.4043 0.0000 0.0000 1739.0221 -7446.3093 298.7253 -9185.3314 -7416.4673 301.0141 17.3893 95.9766 29528.4578 129.3997 185.6891
ENERGY: 1500000 2.6331 5.3562 6.3811 0.0000 -10503.1448 1382.4211 0.0000 0.0000 1758.4944 -7347.8589 302.0702 -9106.3533 -7406.6336 301.4568 -232.8876 -177.9892 30117.8889 90.8198 146.2886
TCL: Running FEP window   8: Lambda1 0.6499999999999997 Lambda2 0.5999999999999996 [dLambda -0.050000000000000044]
TCL: Setting parameter firsttimestep to 0
TCL: Setting parameter alchLambda to 0.6499999999999997
Info: NONBONDED TABLE R-SQUARED SPACING: 0.0625
Info: NONBONDED TABLE SIZE: 705 POINTS
TCL: Setting parameter alchLambda2 to 0.5999999999999996
Info: NONBONDED TABLE R-SQUARED SPACING: 0.0625
Info: NONBONDED TABLE SIZE: 705 POINTS
TCL: Running for 1500000 steps
ETITLE: TS BOND ANGLE DIHED IMPRP ELECT VDW BOUNDARY MISC KINETIC TOTAL TEMP POTENTIAL TOTALAVG TEMPAVG PRESSURE GPRESSURE VOLUME PRESSAVG GPRESSAVG
ENERGY: 0 2.6331 5.3562 6.3811 0.0000 -10502.4945 1382.7735 0.0000 0.0000 1757.6267 -7347.7239 301.9211 -9105.3506 -7347.7239 301.9211 -269.0786 -182.9495 30117.8889 -269.0786 -182.9495
ENERGY: 300000 3.3412 5.8076 2.4912 0.0000 -10529.5825 1406.7936 0.0000 0.0000 1789.5688 -7321.5801 307.4081 -9111.1490 -7404.2240 302.3391 -174.6904 -75.5627 30556.2964 -177.9424 -101.6791
ENERGY: 600000 2.3006 2.0866 5.9549 0.0000 -10561.7342 1430.8027 0.0000 0.0000 1743.5960 -7376.9934 299.5110 -9120.5893 -7401.4558 300.5021 331.6266 276.5595 30308.2750 -32.9997 39.0214
ENERGY: 900000 1.4093 7.8103 2.7861 0.0000 -10607.7306 1416.0988 0.0000 0.0000 1812.1527 -7367.4734 311.2875 -9179.6261 -7396.1085 302.2664 -50.1843 12.9767 30303.7876 -41.4378 25.6930
ENERGY: 1200000 2.6680 3.1765 7.5292 0.0000 -10605.5499 1416.3565 0.0000 0.0000 1751.9332 -7423.8864 300.9431 -9175.8196 -7397.5688 300.8562 -57.1902 -72.6581 30201.6298 5.8882 64.0640
ENERGY: 1500000 2.5755 0.9591 4.5355 0.0000 -10709.8751 1453.4715 0.0000 0.0000 1773.6004 -7474.7332 304.6651 -9248.3335 -7390.4128 301.9321 -202.1249 -106.1589 30014.3031 9.3606 70.0516
TCL: Running FEP window   9: Lambda1 0.5999999999999996 Lambda2 0.5499999999999996 [dLambda -0.050000000000000044]
TCL: Setting parameter firsttimestep to 0
TCL: Setting parameter alchLambda to 0.5999999999999996
Info: NONBONDED TABLE R-SQUARED SPACING: 0.0625
Info: NONBONDED TABLE SIZE: 705 POINTS
TCL: Setting parameter alchLambda2 to 0.5499999999999996
Info: NONBONDED TABLE R-SQUARED SPACING: 0.0625
Info: NONBONDED TABLE SIZE: 705 POINTS
TCL: Running for 1500000 steps
ETITLE: TS BOND ANGLE DIHED IMPRP ELECT VDW BOUNDARY MISC KINETIC TOTAL TEMP POTENTIAL TOTALAVG TEMPAVG PRESSURE GPRESSURE VOLUME PRESSAVG GPRESSAVG
ENERGY: 0 2.5755 0.9591 4.5355 0.0000 -10709.5540 1453.4942 0.0000 0.0000 1772.7724 -7475.2173 304.5228 -9247.9898 -7475.2173 304.5228 -182.8371 -115.8469 30014.3031 -182.8371 -115.8469
ENERGY: 300000 5.0314 5.5623 6.8050 0.0000 -10520.1889 1435.0562 0.0000 0.0000 1758.2799 -7309.4542 302.0333 -9067.7341 -7429.3116 300.4373 562.8111 600.9667 29722.4288 -19.8793 10.9836
ENERGY: 600000 1.8465 2.0413 2.1805 0.0000 -10636.1680 1506.5034 0.0000 0.0000 1709.7176 -7413.8787 293.6914 -9123.5962 -7431.5327 299.4040 835.2464 951.9717 29745.9722 147.8098 186.8475
ENERGY: 900000 3.6302 5.0744 3.9120 0.0000 -10393.4789 1310.4588 0.0000 0.0000 1722.1908 -7348.2128 295.8341 -9070.4036 -7410.2563 299.5786 -1115.4715 -996.7878 30873.6243 -33.9293 10.9659
ENERGY: 1200000 4.1332 4.0533 5.0500 0.0000 -10598.1135 1425.6206 0.0000 0.0000 1721.7806 -7437.4759 295.7636 -9159.2564 -7415.5194 299.2220 -19.5616 13.7359 29797.7573 -42.8450 -0.3796
ENERGY: 1500000 5.8654 4.3411 5.4435 0.0000 -10481.4071 1351.2204 0.0000 0.0000 1742.3847 -7372.1520 299.3029 -9114.5367 -7420.6427 298.9079 -497.0520 -429.1878 29997.0779 -53.7114 -3.3898
TCL: Running FEP window  10: Lambda1 0.5499999999999996 Lambda2 0.4999999999999996 [dLambda -0.04999999999999999]
TCL: Setting parameter firsttimestep to 0
TCL: Setting parameter alchLambda to 0.5499999999999996
Info: NONBONDED TABLE R-SQUARED SPACING: 0.0625
Info: NONBONDED TABLE SIZE: 705 POINTS
TCL: Setting parameter alchLambda2 to 0.4999999999999996
Info: NONBONDED TABLE R-SQUARED SPACING: 0.0625
Info: NONBONDED TABLE SIZE: 705 POINTS
TCL: Running for 1500000 steps
ETITLE: TS BOND ANGLE DIHED IMPRP ELECT VDW BOUNDARY MISC KINETIC TOTAL TEMP POTENTIAL TOTALAVG TEMPAVG PRESSURE GPRESSURE VOLUME PRESSAVG GPRESSAVG
ENERGY: 0 5.8654 4.3411 5.4435 0.0000 -10480.6713 1351.2856 0.0000 0.0000 1741.5132 -7372.2224 299.1532 -9113.7356 -7372.2224 299.1532 -510.3369 -436.7101 29997.0779 -510.3369 -436.7101
ENERGY: 300000 1.6693 2.5180 3.2532 0.0000 -10622.7105 1428.4558 0.0000 0.0000 1736.1476 -7450.6665 298.2315 -9186.8141 -7391.5322 301.8751 8.2692 54.7387 30186.8094 32.9584 92.4644
ENERGY: 600000 2.8801 6.1375 2.7987 0.0000 -10613.5688 1424.6172 0.0000 0.0000 1767.0829 -7410.0525 303.5455 -9177.1353 -7404.4975 302.4566 -252.5368 -163.2437 30022.8307 -73.1205 -2.4352
ENERGY: 900000 3.7014 2.2882 5.4557 0.0000 -10624.1855 1514.1517 0.0000 0.0000 1783.7008 -7314.8876 306.4001 -9098.5884 -7396.2975 302.9151 1010.1074 1082.6322 29549.0839 -51.1742 11.1697
ENERGY: 1200000 3.3089 3.5209 3.7276 0.0000 -10579.8529 1381.1264 0.0000 0.0000 1725.1023 -7463.0669 296.3342 -9188.1691 -7402.8680 300.9789 -553.6343 -447.7054 29792.3478 -129.3813 -71.2166
ENERGY: 1500000 3.7338 2.2124 6.5164 0.0000 -10534.9900 1362.5361 0.0000 0.0000 1729.1251 -7430.8662 297.0252 -9159.9913 -7408.6735 300.8137 -645.0591 -488.7042 30390.1122 -199.8587 -133.3891
TCL: Running FEP window  11: Lambda1 0.4999999999999996 Lambda2 0.4499999999999996 [dLambda -0.04999999999999999]
TCL: Setting parameter firsttimestep to 0
TCL: Setting parameter alchLambda to 0.4999999999999996
Info: NONBONDED TABLE R-SQUARED SPACING: 0.0625
Info: NONBONDED TABLE SIZE: 705 POINTS
TCL: Setting parameter alchLambda2 to 0.4499999999999996
Info: NONBONDED TABLE R-SQUARED SPACING: 0.0625
Info: NONBONDED TABLE SIZE: 705 POINTS
TCL: Running for 1500000 steps
ETITLE: TS BOND ANGLE DIHED IMPRP ELECT VDW BOUNDARY MISC KINETIC TOTAL TEMP POTENTIAL TOTALAVG TEMPAVG PRESSURE GPRESSURE VOLUME PRESSAVG GPRESSAVG
ENERGY: 0 3.7338 2.2124 6.5164 0.0000 -10535.1105 1362.3676 0.0000 0.0000 1728.2541 -7432.0262 296.8756 -9160.2803 -7432.0262 296.8756 -575.6966 -499.6798 30390.1122 -575.6966 -499.6798
ENERGY: 300000 2.7715 5.4559 4.7438 0.0000 -10694.0971 1471.6599 0.0000 0.0000 1667.3771 -7542.0888 286.4183 -9209.4659 -7428.7135 298.2483 -35.7976 68.9215 30171.2073 106.7631 164.5271
ENERGY: 600000 2.8836 4.4459 5.5775 0.0000 -10579.2020 1428.6133 0.0000 0.0000 1721.6814 -7416.0004 295.7465 -9137.6818 -7439.2264 298.3464 -9.4037 79.5492 29899.8027 63.3621 128.5610
ENERGY: 900000 5.2758 4.4926 1.8683 0.0000 -10494.6473 1329.3439 0.0000 0.0000 1736.8067 -7416.8600 298.3447 -9153.6667 -7428.5041 298.7168 -678.1040 -621.7882 29873.3312 -81.0709 -17.5176
ENERGY: 1200000 2.1726 6.4521 3.0616 0.0000 -10448.7118 1328.6953 0.0000 0.0000 1743.2266 -7365.1036 299.4475 -9108.3301 -7427.5425 298.5091 -775.1835 -751.2498 30327.2357 -26.6971 29.9927
ENERGY: 1500000 6.0850 5.2998 6.5429 0.0000 -10671.5217 1469.5450 0.0000 0.0000 1777.9952 -7406.0537 305.4200 -9184.0489 -7425.4607 299.2131 300.2154 274.7570 30278.4935 -67.1087 -21.8337
TCL: Running FEP window  12: Lambda1 0.4499999999999996 Lambda2 0.39999999999999963 [dLambda -0.04999999999999999]
TCL: Setting parameter firsttimestep to 0
TCL: Setting parameter alchLambda to 0.4499999999999996
Info: NONBONDED TABLE R-SQUARED SPACING: 0.0625
Info: NONBONDED TABLE SIZE: 705 POINTS
TCL: Setting parameter alchLambda2 to 0.39999999999999963
Info: NONBONDED TABLE R-SQUARED SPACING: 0.0625
Info: NONBONDED TABLE SIZE: 705 POINTS
TCL: Running for 1500000 steps
ETITLE: TS BOND ANGLE DIHED IMPRP ELECT VDW BOUNDARY MISC KINETIC TOTAL TEMP POTENTIAL TOTALAVG TEMPAVG PRESSURE GPRESSURE VOLUME PRESSAVG GPRESSAVG
ENERGY: 0 6.0850 5.2998 6.5429 0.0000 -10671.5232 1469.9226 0.0000 0.0000 1777.1319 -7406.5409 305.2717 -9183.6728 -7406.5409 305.2717 190.9392 273.3558 30278.4935 190.9392 273.3558
ENERGY: 300000 2.0541 5.8951 3.1954 0.0000 -10493.9948 1316.9649 0.0000 0.0000 1725.2920 -7440.5933 296.3668 -9165.8853 -7410.2715 302.1933 -1030.8008 -980.8291 30109.3156 -183.5592 -132.3636
ENERGY: 600000 2.5129 9.6995 4.5738 0.0000 -10593.3630 1371.0463 0.0000 0.0000 1682.6168 -7522.9137 289.0361 -9205.5306 -7449.6493 298.9156 -838.8916 -747.0175 30461.3549 -242.3442 -178.0199
ENERGY: 900000 0.5920 7.3343 5.3098 0.0000 -10489.7044 1317.2933 0.0000 0.0000 1773.3275 -7385.8474 304.6182 -9159.1749 -7433.5630 299.9875 -976.3565 -869.3602 30395.8715 -301.0712 -236.0693
ENERGY: 1200000 6.3840 4.7911 4.0986 0.0000 -10681.3657 1508.2058 0.0000 0.0000 1759.7585 -7398.1277 302.2873 -9157.8861 -7434.6089 299.3044 833.8771 860.8571 29643.6144 -196.4044 -134.6458
ENERGY: 1500000 3.2460 4.9029 2.0153 0.0000 -10721.5017 1532.6965 0.0000 0.0000 1706.1459 -7472.4951 293.0779 -9178.6410 -7437.8780 299.3442 844.4355 961.3769 29826.0880 -92.5620 -30.8854
TCL: Running FEP window  13: Lambda1 0.39999999999999963 Lambda2 0.34999999999999964 [dLambda -0.04999999999999999]
TCL: Setting parameter firsttimestep to 0
TCL: Setting parameter alchLambda to 0.39999999999999963
Info: NONBONDED TABLE R-SQUARED SPACING: 0.0625
Info: NONBONDED TABLE SIZE: 705 POINTS
TCL: Setting parameter alchLambda2 to 0.34999999999999964
Info: NONBONDED TABLE R-SQUARED SPACING: 0.0625
Info: NONBONDED TABLE SIZE: 705 POINTS
TCL: Running for 1500000 steps
ETITLE: TS BOND ANGLE DIHED IMPRP ELECT VDW BOUNDARY MISC KINETIC TOTAL TEMP POTENTIAL TOTALAVG TEMPAVG PRESSURE GPRESSURE VOLUME PRESSAVG GPRESSAVG
ENERGY: 0 3.2460 4.9029 2.0153 0.0000 -10721.5014 1532.8585 0.0000 0.0000 1705.2733 -7473.2053 292.9280 -9178.4786 -7473.2053 292.9280 878.4833 957.4638 29826.0880 878.4833 957.4638
ENERGY: 300000 3.4769 6.6610 4.2498 0.0000 -10581.4381 1352.6267 0.0000 0.0000 1791.9172 -7422.5067 307.8115 -9214.4238 -7428.8887 298.6324 -723.8168 -673.7817 30196.5881 -19.1015 39.8987
ENERGY: 600000 2.7799 4.2320 4.0474 0.0000 -10676.8161 1474.3928 0.0000 0.0000 1730.5132 -7460.8509 297.2636 -9191.3641 -7446.8280 297.5704 164.0324 227.1516 30028.9748 -53.1987 10.2894
ENERGY: 900000 3.2797 2.2775 5.0214 0.0000 -10543.3387 1393.4227 0.0000 0.0000 1773.4687 -7365.8687 304.6424 -9139.3374 -7445.1870 298.3630 -169.2142 -119.3341 29965.4610 -136.3489 -70.9838
ENERGY: 1200000 3.1696 5.4706 4.8253 0.0000 -10648.0259 1424.6241 0.0000 0.0000 1743.3104 -7466.6260 299.4619 -9209.9364 -7437.6272 299.1381 -252.7077 -155.6788 30036.4368 -117.1239 -55.2599
ENERGY: 1500000 1.0473 4.6705 3.8554 0.0000 -10575.7730 1403.1555 0.0000 0.0000 1752.8713 -7410.1730 301.1043 -9163.0443 -7431.2249 299.2825 -150.4977 -89.5964 30146.7267 -50.2655 12.0040
TCL: Running FEP window  14: Lambda1 0.34999999999999964 Lambda2 0.29999999999999966 [dLambda -0.04999999999999999]
TCL: Setting parameter firsttimestep to 0
TCL: Setting parameter alchLambda to 0.34999999999999964
Info: NONBONDED TABLE R-SQUARED SPACING: 0.0625
Info: NONBONDED TABLE SIZE: 705 POINTS
TCL: Setting parameter alchLambda2 to 0.29999999999999966
Info: NONBONDED TABLE R-SQUARED SPACING: 0.0625
Info: NONBONDED TABLE SIZE: 705 POINTS
TCL: Running for 1500000 steps
ETITLE: TS BOND ANGLE DIHED IMPRP ELECT VDW BOUNDARY MISC KINETIC TOTAL TEMP POTENTIAL TOTALAVG TEMPAVG PRESSURE GPRESSURE VOLUME PRESSAVG GPRESSAVG
ENERGY: 0 1.0473 4.6705 3.8554 0.0000 -10575.7737 1403.5151 0.0000 0.0000 1751.9889 -7410.6966 300.9527 -9162.6855 -7410.6966 300.9527 -182.8491 -91.3738 30146.7267 -182.8491 -91.3738
ENERGY: 300000 1.7221 2.3204 4.8252 0.0000 -10671.4662 1460.2063 0.0000 0.0000 1736.3821 -7466.0101 298.2718 -9202.3923 -7402.3178 298.0599 7.6831 76.8938 30179.3726 102.5421 181.4336
ENERGY: 600000 5.0570 3.2136 4.5152 0.0000 -10622.8335 1474.9223 0.0000 0.0000 1740.6068 -7394.5185 298.9975 -9135.1253 -7419.2464 298.2699 633.7122 670.4263 29770.0066 30.4249 104.7673
ENERGY: 900000 0.6196 1.5231 5.5903 0.0000 -10590.9034 1435.2578 0.0000 0.0000 1701.0446 -7446.8680 292.2016 -9147.9126 -7414.8201 299.2986 267.2875 385.9207 29546.1080 32.4496 114.1042
ENERGY: 1200000 2.7594 4.2276 2.2559 0.0000 -10445.5628 1381.7875 0.0000 0.0000 1725.1602 -7329.3722 296.3441 -9054.5324 -7400.3779 299.4209 -222.6304 -117.8730 30110.6599 39.7785 119.9535
ENERGY: 1500000 6.7007 2.6817 6.5384 0.0000 -10612.1666 1385.0639 0.0000 0.0000 1763.5503 -7447.6315 302.9387 -9211.1818 -7403.4435 300.5858 -654.6223 -601.3866 30182.6323 41.1301 112.2426
TCL: Running FEP window  15: Lambda1 0.29999999999999966 Lambda2 0.24999999999999967 [dLambda -0.04999999999999999]
TCL: Setting parameter firsttimestep to 0
TCL: Setting parameter alchLambda to 0.29999999999999966
Info: NONBONDED TABLE R-SQUARED SPACING: 0.0625
Info: NONBONDED TABLE SIZE: 705 POINTS
TCL: Setting parameter alchLambda2 to 0.24999999999999967
Info: NONBONDED TABLE R-SQUARED SPACING: 0.0625
Info: NONBONDED TABLE SIZE: 705 POINTS
TCL: Running for 1500000 steps
ETITLE: TS BOND ANGLE DIHED IMPRP ELECT VDW BOUNDARY MISC KINETIC TOTAL TEMP POTENTIAL TOTALAVG TEMPAVG PRESSURE GPRESSURE VOLUME PRESSAVG GPRESSAVG
ENERGY: 0 6.7008 2.6817 6.5384 0.0000 -10612.1675 1385.6769 0.0000 0.0000 1762.6569 -7447.9128 302.7852 -9210.5698 -7447.9128 302.7852 -690.3586 -604.2063 30182.6323 -690.3586 -604.2063
ENERGY: 300000 4.9350 5.9323 6.9857 0.0000 -10491.0261 1345.1963 0.0000 0.0000 1764.4554 -7363.5213 303.0942 -9127.9768 -7437.6382 302.8389 -716.6761 -703.0553 30083.5213 -488.7842 -454.1858
ENERGY: 600000 3.0374 4.7174 7.0480 0.0000 -10638.0280 1436.3671 0.0000 0.0000 1758.6871 -7428.1709 302.1033 -9186.8580 -7443.1487 301.5636 93.5764 137.9424 29907.2460 -204.7374 -173.1629
ENERGY: 900000 2.6174 4.1203 4.9517 0.0000 -10658.7915 1440.2789 0.0000 0.0000 1730.6993 -7476.1239 297.2956 -9206.8232 -7441.7212 300.5590 -116.0015 -11.0869 30130.3594 -318.7318 -260.6628
ENERGY: 1200000 8.0218 4.3663 2.8431 0.0000 -10513.2851 1379.0348 0.0000 0.0000 1772.3618 -7346.6572 304.4523 -9119.0190 -7429.0884 300.9313 -650.9633 -556.0801 30662.6765 -239.4077 -176.9112
ENERGY: 1500000 4.0023 2.1083 4.7736 0.0000 -10643.4480 1471.1427 0.0000 0.0000 1751.5778 -7409.8432 300.8821 -9161.4210 -7430.8260 300.1096 375.8174 421.5077 29761.1377 -198.6562 -140.2695
TCL: Running FEP window  16: Lambda1 0.24999999999999967 Lambda2 0.19999999999999968 [dLambda -0.04999999999999999]
TCL: Setting parameter firsttimestep to 0
TCL: Setting parameter alchLambda to 0.24999999999999967
Info: NONBONDED TABLE R-SQUARED SPACING: 0.0625
Info: NONBONDED TABLE SIZE: 705 POINTS
TCL: Setting parameter alchLambda2 to 0.19999999999999968
Info: NONBONDED TABLE R-SQUARED SPACING: 0.0625
Info: NONBONDED TABLE SIZE: 705 POINTS
TCL: Running for 1500000 steps
ETITLE: TS BOND ANGLE DIHED IMPRP ELECT VDW BOUNDARY MISC KINETIC TOTAL TEMP POTENTIAL TOTALAVG TEMPAVG PRESSURE GPRESSURE VOLUME PRESSAVG GPRESSAVG
ENERGY: 0 4.0023 2.1083 4.7736 0.0000 -10643.4469 1471.0704 0.0000 0.0000 1750.7200 -7410.7723 300.7347 -9161.4923 -7410.7723 300.7347 331.9187 415.7880 29761.1377 331.9187 415.7880
ENERGY: 300000 1.7754 3.3094 5.0363 0.0000 -10513.0229 1361.4897 0.0000 0.0000 1730.5749 -7410.8373 297.2742 -9141.4121 -7449.0013 297.3853 -555.9935 -438.2268 30156.3080 -31.4129 48.2988
ENERGY: 600000 4.3161 10.3096 2.6281 0.0000 -10652.3446 1460.5936 0.0000 0.0000 1689.1584 -7485.3388 290.1598 -9174.4972 -7431.5602 296.6285 -104.3236 -34.1575 30252.6991 106.9188 189.1050
ENERGY: 900000 2.2602 2.9444 4.7658 0.0000 -10727.3313 1580.0942 0.0000 0.0000 1742.3342 -7394.9325 299.2942 -9137.2667 -7423.7321 297.2273 1130.0297 1195.9019 30228.6942 101.4635 171.8103
ENERGY: 1200000 1.6636 7.6937 3.7679 0.0000 -10669.8598 1464.0134 0.0000 0.0000 1733.5855 -7459.1357 297.7914 -9192.7212 -7414.0799 298.1789 511.4211 506.1660 29704.3353 115.3534 179.8874
ENERGY: 1500000 3.0732 2.5562 3.7532 0.0000 -10488.7032 1350.5926 0.0000 0.0000 1743.4706 -7385.2574 299.4894 -9128.7280 -7413.7351 298.0671 -670.6825 -602.0594 30195.7430 10.1011 71.6376
TCL: Running FEP window  17: Lambda1 0.19999999999999968 Lambda2 0.1499999999999997 [dLambda -0.04999999999999999]
TCL: Setting parameter firsttimestep to 0
TCL: Setting parameter alchLambda to 0.19999999999999968
Info: NONBONDED TABLE R-SQUARED SPACING: 0.0625
Info: NONBONDED TABLE SIZE: 705 POINTS
TCL: Setting parameter alchLambda2 to 0.1499999999999997
Info: NONBONDED TABLE R-SQUARED SPACING: 0.0625
Info: NONBONDED TABLE SIZE: 705 POINTS
TCL: Running for 1500000 steps
ETITLE: TS BOND ANGLE DIHED IMPRP ELECT VDW BOUNDARY MISC KINETIC TOTAL TEMP POTENTIAL TOTALAVG TEMPAVG PRESSURE GPRESSURE VOLUME PRESSAVG GPRESSAVG
ENERGY: 0 3.0732 2.5562 3.7532 0.0000 -10488.7047 1351.0009 0.0000 0.0000 1742.6034 -7385.7177 299.3405 -9128.3211 -7385.7177 299.3405 -696.4303 -601.8498 30195.7430 -696.4303 -601.8498
ENERGY: 300000 2.3546 5.5211 4.1298 0.0000 -10570.9604 1411.8805 0.0000 0.0000 1725.9202 -7421.1540 296.4747 -9147.0743 -7407.3228 298.9049 -178.8850 -141.0590 30049.0120 -543.0160 -503.3655
ENERGY: 600000 3.5849 4.9281 1.3469 0.0000 -10457.5090 1363.1487 0.0000 0.0000 1736.5399 -7347.9605 298.2989 -9084.5004 -7396.2409 298.8888 -423.4434 -334.9624 30487.7751 -596.1554 -543.9852
ENERGY: 900000 4.5077 6.2440 7.5983 0.0000 -10658.2195 1499.4451 0.0000 0.0000 1738.5526 -7401.8718 298.6446 -9140.4244 -7410.2683 299.9013 746.7948 741.9051 29844.1203 -362.5637 -313.9762
ENERGY: 1200000 2.0125 4.9996 6.1003 0.0000 -10484.0349 1322.6272 0.0000 0.0000 1759.1983 -7389.0969 302.1911 -9148.2952 -7407.8304 301.6164 -811.1521 -726.7830 29965.1003 -333.3249 -279.6215
ENERGY: 1500000 3.3126 4.1099 4.8206 0.0000 -10780.4030 1543.7073 0.0000 0.0000 1798.6019 -7425.8507 308.9598 -9224.4526 -7414.3068 301.4006 674.2328 788.2365 29766.5698 -201.4508 -141.0989
TCL: Running FEP window  18: Lambda1 0.1499999999999997 Lambda2 0.09999999999999969 [dLambda -0.05 ]
TCL: Setting parameter firsttimestep to 0
TCL: Setting parameter alchLambda to 0.1499999999999997
Info: NONBONDED TABLE R-SQUARED SPACING: 0.0625
Info: NONBONDED TABLE SIZE: 705 POINTS
TCL: Setting parameter alchLambda2 to 0.09999999999999969
Info: NONBONDED TABLE R-SQUARED SPACING: 0.0625
Info: NONBONDED TABLE SIZE: 705 POINTS
TCL: Running for 1500000 steps
ETITLE: TS BOND ANGLE DIHED IMPRP ELECT VDW BOUNDARY MISC KINETIC TOTAL TEMP POTENTIAL TOTALAVG TEMPAVG PRESSURE GPRESSURE VOLUME PRESSAVG GPRESSAVG
ENERGY: 0 3.3126 4.1099 4.8206 0.0000 -10780.4025 1543.3609 0.0000 0.0000 1797.7261 -7427.0724 308.8093 -9224.7985 -7427.0724 308.8093 701.4517 781.9326 29766.5698 701.4517 781.9326
ENERGY: 300000 4.3589 6.8347 3.1070 0.0000 -10510.6022 1393.5898 0.0000 0.0000 1729.4942 -7373.2176 297.0886 -9102.7118 -7417.8576 301.3105 -263.8483 -244.0289 30287.7636 -6.2405 37.7350
ENERGY: 600000 4.0347 4.2434 4.7307 0.0000 -10572.2833 1395.0053 0.0000 0.0000 1715.7240 -7448.5453 294.7232 -9164.2693 -7418.6618 301.3612 -252.4099 -158.7574 29958.6892 -15.8011 36.0750
ENERGY: 900000 7.5242 6.7684 4.7693 0.0000 -10623.2529 1420.6890 0.0000 0.0000 1762.9340 -7420.5681 302.8328 -9183.5020 -7428.6739 300.2446 -277.0247 -220.5246 29908.8758 -22.8716 39.4465
ENERGY: 1200000 4.3683 6.6245 4.1052 0.0000 -10490.4320 1386.0873 0.0000 0.0000 1781.8689 -7307.3778 306.0854 -9089.2467 -7404.5901 300.8654 -129.9702 -64.7650 29959.2505 -22.0784 35.0145
ENERGY: 1500000 2.9705 4.0901 5.6134 0.0000 -10675.2052 1475.2022 0.0000 0.0000 1806.9125 -7380.4167 310.3873 -9187.3292 -7410.1289 301.3492 122.8430 214.4770 29875.7837 12.4101 77.1871
TCL: Running FEP window  19: Lambda1 0.09999999999999969 Lambda2 0.049999999999999684 [dLambda -0.05 ]
TCL: Setting parameter firsttimestep to 0
TCL: Setting parameter alchLambda to 0.09999999999999969
Info: NONBONDED TABLE R-SQUARED SPACING: 0.0625
Info: NONBONDED TABLE SIZE: 705 POINTS
TCL: Setting parameter alchLambda2 to 0.049999999999999684
Info: NONBONDED TABLE R-SQUARED SPACING: 0.0625
Info: NONBONDED TABLE SIZE: 705 POINTS
TCL: Running for 1500000 steps
ETITLE: TS BOND ANGLE DIHED IMPRP ELECT VDW BOUNDARY MISC KINETIC TOTAL TEMP POTENTIAL TOTALAVG TEMPAVG PRESSURE GPRESSURE VOLUME PRESSAVG GPRESSAVG
ENERGY: 0 2.9705 4.0901 5.6134 0.0000 -10675.2052 1475.3167 0.0000 0.0000 1806.0449 -7381.1697 310.2383 -9187.2145 -7381.1697 310.2383 129.1209 214.6313 29875.7837 129.1209 214.6313
ENERGY: 300000 2.7283 2.2044 6.9712 0.0000 -10550.5049 1381.7023 0.0000 0.0000 1785.6954 -7371.2033 306.7427 -9156.8987 -7391.9839 305.5287 -654.5473 -573.3015 30405.3413 -221.7318 -131.3185
ENERGY: 600000 4.4232 2.7873 8.8440 0.0000 -10603.6528 1399.4219 0.0000 0.0000 1759.6874 -7428.4890 302.2751 -9188.1764 -7399.1885 303.4047 -578.3254 -486.1783 30435.7951 -223.6038 -146.2348
ENERGY: 900000 2.6665 1.3235 5.4160 0.0000 -10538.7715 1405.1217 0.0000 0.0000 1734.4255 -7389.8183 297.9357 -9124.2438 -7396.8582 301.6539 -165.4041 -87.0006 29828.6608 -184.0893 -109.6589
ENERGY: 1200000 3.3447 2.1157 8.1590 0.0000 -10524.0366 1328.8110 0.0000 0.0000 1813.0486 -7368.5576 311.4414 -9181.6062 -7399.2688 301.6448 -997.3606 -897.8880 30065.7853 -279.8893 -198.5082
ENERGY: 1500000 0.6155 3.6676 4.1833 0.0000 -10666.5466 1434.0968 0.0000 0.0000 1729.6720 -7494.3115 297.1192 -9223.9835 -7408.7344 300.9014 -170.6268 -29.3482 30051.3526 -162.1851 -83.5971
TCL: Running FEP window  20: Lambda1 0.049999999999999684 Lambda2 0.0    [dLambda -0.049999999999999684]
TCL: Setting parameter firsttimestep to 0
TCL: Setting parameter alchLambda to 0.049999999999999684
Info: NONBONDED TABLE R-SQUARED SPACING: 0.0625
Info: NONBONDED TABLE SIZE: 705 POINTS
TCL: Setting parameter alchLambda2 to 0.0
Info: NONBONDED TABLE R-SQUARED SPACING: 0.0625
Info: NONBONDED TABLE SIZE: 705 POINTS
TCL: Running for 1500000 steps
ETITLE: TS BOND ANGLE DIHED IMPRP ELECT VDW BOUNDARY MISC KINETIC TOTAL TEMP POTENTIAL TOTALAVG TEMPAVG PRESSURE GPRESSURE VOLUME PRESSAVG GPRESSAVG
ENERGY: 0 0.6155 3.6676 4.1833 0.0000 -10666.5482 1434.1999 0.0000 0.0000 1728.7700 -7495.1118 296.9642 -9223.8818 -7495.1118 296.9642 -123.5195 -32.2299 30051.3526 -123.5195 -32.2299
ENERGY: 300000 5.4970 7.0964 6.1813 0.0000 -10728.1823 1459.4154 0.0000 0.0000 1717.4613 -7532.5309 295.0216 -9249.9922 -7433.4896 296.9173 -205.6877 -186.5061 29838.4891 105.0416 179.5442
ENERGY: 600000 2.4297 3.6971 2.8720 0.0000 -10492.3212 1350.9754 0.0000 0.0000 1790.8036 -7341.5433 307.6202 -9132.3469 -7420.0173 299.9835 -533.3860 -472.9715 30181.5282 -46.6223 31.5793
ENERGY: 900000 1.9981 3.9877 3.6494 0.0000 -10554.7270 1345.7275 0.0000 0.0000 1763.0643 -7436.2999 302.8552 -9199.3643 -7430.1675 299.3859 -562.2093 -568.3664 29891.8116 -77.8841 -7.7074
ENERGY: 1200000 3.2980 3.9448 8.7899 0.0000 -10607.8280 1415.1130 0.0000 0.0000 1777.7860 -7398.8963 305.3841 -9176.6823 -7436.8787 299.2249 -1.8595 69.8660 29884.0381 -106.8031 -41.2739
ENERGY: 1500000 4.7438 6.0954 3.7465 0.0000 -10467.8212 1403.4353 0.0000 0.0000 1749.3051 -7300.4950 300.4917 -9049.8001 -7432.1344 298.8606 -36.4720 34.2198 29954.3342 -88.8980 -22.4586
TCL: Exiting due to exit command.
