Info: SIMULATION PARAMETERS:
Info: TIMESTEP               2
Info: NUMBER OF STEPS        0
Info: STEPS PER CYCLE        10
Info: PERIODIC CELL BASIS 1  31.7896 0 0
Info: PERIODIC CELL BASIS 2  0 31.0273 0
Info: PERIODIC CELL BASIS 3  0 0 30.3868
Info: PERIODIC CELL CENTER   0 0 0
Info: WRAPPING WATERS AROUND PERIODIC BOUNDARIES ON OUTPUT.
Info: WRAPPING ALL CLUSTERS AROUND PERIODIC BOUNDARIES ON OUTPUT.
Info: FIRST LDB TIMESTEP     50
Info: LAST LDB TIMESTEP     -1
Info: HOM BACKGROUND SCALING 1
Info: PME BACKGROUND SCALING 1
Info: MIN ATOMS PER PATCH    40
Info: EMPTY PATCH LOAD       40 ATOMS
Info: VELOCITY FILE          mobley_9653690_equil.vel
Info: CENTER OF MASS MOVING INITIALLY? NO
Info: DIELECTRIC             1
Info: EXCLUDE                SCALED ONE-FOUR
Info: 1-4 ELECTROSTATICS SCALED BY 0.833333
Info: MODIFIED 1-4 VDW PARAMETERS WILL BE USED
Info: DCD FILENAME           mobley_9653690_prod.dcd
Info: DCD FREQUENCY          100000
Info: DCD FIRST STEP         100000
Info: DCD FILE WILL CONTAIN UNIT CELL DATA
Info: XST FILENAME           mobley_9653690_prod.xst
Info: XST FREQUENCY          100000
Info: NO VELOCITY DCD OUTPUT
Info: NO FORCE DCD OUTPUT
Info: OUTPUT FILENAME        mobley_9653690_prod
Info: BINARY OUTPUT FILES WILL BE USED
Info: RESTART FILENAME       mobley_9653690_prod.restart
Info: RESTART FREQUENCY      100000
Info: BINARY RESTART FILES WILL BE USED
Info: CUTOFF                 9
Info: PAIRLIST DISTANCE      11
Info: PAIRLIST SHRINK RATE   0.01
Info: PAIRLIST GROW RATE     0.01
Info: PAIRLIST TRIGGER       0.3
Info: PAIRLISTS PER CYCLE    2
Info: PAIRLISTS ENABLED
Info: MARGIN                 2
Info: HYDROGEN GROUP CUTOFF  2.5
Info: PATCH DIMENSION        15.5
Info: ENERGY OUTPUT STEPS    100000
Info: ENERGY EVALUATION STEPS    100000
Info: OUTPUT ENERGY PRECISION 4
Info: CROSSTERM ENERGY INCLUDED IN DIHEDRAL
Info: TIMING OUTPUT STEPS    1000000
Info: PRESSURE OUTPUT STEPS  100000
Info: ALCHEMICAL FEP ON
Info: FEP CURRENT LAMBDA VALUE     0
Info: FEP COMPARISON LAMBDA VALUE  0.05
Info: FEP INTRA-ALCHEMICAL NON-BONDED INTERACTIONS WILL BE RETAINED
Info: FEP INTRA-ALCHEMICAL BONDED INTERACTIONS WILL BE RETAINED
Info: FEP VDW SHIFTING COEFFICIENT 5
Info: FEP ELEC. ACTIVE FOR ANNIHILATED PARTICLES BETWEEN LAMBDA = 0 AND LAMBDA = 0.5
Info: FEP ELEC. ACTIVE FOR EXNIHILATED PARTICLES BETWEEN LAMBDA = 0.5 AND LAMBDA = 1
Info: FEP VDW ACTIVE FOR ANNIHILATED PARTICLES BETWEEN LAMBDA = 0 AND LAMBDA = 1
Info: FEP VDW ACTIVE FOR EXNIHILATED PARTICLES BETWEEN LAMBDA = 0 AND LAMBDA = 1
Info: FEP BOND ACTIVE FOR ANNIHILATED PARTICLES BETWEEN LAMBDA = 1 AND LAMBDA = 1
Info: FEP BOND ACTIVE FOR EXNIHILATED PARTICLES BETWEEN LAMBDA = 0 AND LAMBDA = 0
Info: LANGEVIN DYNAMICS ACTIVE
Info: LANGEVIN TEMPERATURE   300
Info: LANGEVIN USING BBK INTEGRATOR
Info: LANGEVIN DAMPING COEFFICIENT IS 1 INVERSE PS
Info: LANGEVIN DYNAMICS APPLIED TO HYDROGENS
Info: LANGEVIN PISTON PRESSURE CONTROL ACTIVE
Info:        TARGET PRESSURE IS 1.01325 BAR
Info:     OSCILLATION PERIOD IS 50 FS
Info:             DECAY TIME IS 25 FS
Info:     PISTON TEMPERATURE IS 300 K
Info:       PRESSURE CONTROL IS GROUP-BASED
Info:    INITIAL STRAIN RATE IS -0.000605804 -0.000605804 -0.000605804
Info:       CELL FLUCTUATION IS ISOTROPIC
Info: PARTICLE MESH EWALD (PME) ACTIVE
Info: PME TOLERANCE               1e-06
Info: PME EWALD COEFFICIENT       0.348832
Info: PME INTERPOLATION ORDER     4
Info: PME GRID DIMENSIONS         32 32 32
Info: PME MAXIMUM GRID SPACING    1
Info: PME CALCULATION WILL BE PERFORMED ON GPU
Info: FULL ELECTROSTATIC EVALUATION FREQUENCY      2
Info: USING VERLET I (r-RESPA) MTS SCHEME.
Info: C1 SPLITTING OF LONG RANGE ELECTROSTATICS
Info: PLACING ATOMS IN PATCHES BY HYDROGEN GROUPS
Info: RIGID BONDS TO HYDROGEN : ALL
Info:         ERROR TOLERANCE : 1e-08
Info:          MAX ITERATIONS : 100
Info: RIGID WATER USING SETTLE ALGORITHM
Info: RANDOM NUMBER SEED     1743815991
Info: USE HYDROGEN BONDS?    NO
Info: Using AMBER format force field!
Info: AMBER PARM FILE        mobley_9653690.prmtop
Info: COORDINATE PDB         mobley_9653690.pdb
Info: Exclusions will be read from PARM file!
Info: SCNB (VDW SCALING)     2
Info: USING ARITHMETIC MEAN TO COMBINE L-J SIGMA PARAMETERS
Info: BINARY COORDINATES     mobley_9653690_equil.coor
Info: SUMMARY OF PARAMETERS:
Info: 10 BONDS
Info: 16 ANGLES
Info:   16 HARMONIC
Info:   0 COSINE-BASED
Info: 15 DIHEDRAL
Info: 0 IMPROPER
Info: 0 CROSSTERM
Info: 0 VDW
Info: 36 VDW_PAIRS
Info: 0 NBTHOLE_PAIRS
Info: To read alchdata from file: mobley_9653690.pdb
Info: To read alchflag data from column: 5
Info: STRUCTURE SUMMARY:
Info: 2916 ATOMS
Info: 2916 BONDS
Info: 49 ANGLES
Info: 97 DIHEDRALS
Info: 0 IMPROPERS
Info: 0 CROSSTERMS
Info: 3030 EXCLUSIONS
Info: 2905 RIGID BONDS
Info: ALCH: 0 ATOMS TO DISAPPEAR IN FINAL STATE
Info: ALCH: 27 ATOMS TO APPEAR IN FINAL STATE
Info: 5843 DEGREES OF FREEDOM
Info: 974 HYDROGEN GROUPS
Info: 4 ATOMS IN LARGEST HYDROGEN GROUP
Info: 974 MIGRATION GROUPS
Info: 4 ATOMS IN LARGEST MIGRATION GROUP
Info: TOTAL MASS = 17501.6 amu
Info: TOTAL CHARGE = -3.72529e-09 e
Info: MASS DENSITY = 0.969666 g/cm^3
Info: ATOM DENSITY = 0.0972908 atoms/A^3
Info: ADDED 0 IMPLICIT EXCLUSIONS
Info: NONBONDED TABLE R-SQUARED SPACING: 0.0625
Info: NONBONDED TABLE SIZE: 705 POINTS
Info: REDUCING NUMBER OF PATCHES TO IMPROVE LOAD BALANCE
Info: REMOVING COM VELOCITY -0.0262585 0.0617685 0.194102
Info: Use 3D box decompostion in PME FFT.
Info: Updated CUDA force table with 4096 elements.
Info: Updated CUDA LJ table with 8 x 8 elements.
Info: Found 30 unique exclusion lists needing 100 bytes
TCL: Running for 1500000 steps
ETITLE: TS BOND ANGLE DIHED IMPRP ELECT VDW BOUNDARY MISC KINETIC TOTAL TEMP POTENTIAL TOTALAVG TEMPAVG PRESSURE GPRESSURE VOLUME PRESSAVG GPRESSAVG
ENERGY: 0 3.6984 12.5579 17.5781 0.0000 -10526.5947 1508.2814 0.0000 0.0000 1786.7421 -7197.7368 307.7630 -8984.4789 -7197.7368 307.7630 862.4545 948.0851 29972.0019 862.4545 948.0851
ENERGY: 300000 4.5665 12.0261 17.8848 0.0000 -10482.5425 1413.9814 0.0000 0.0000 1733.4934 -7300.5904 298.5910 -9034.0838 -7313.4009 302.1897 -135.8861 -14.5557 29764.2092 111.6814 191.6657
ENERGY: 600000 1.8706 9.3441 18.2087 0.0000 -10584.2323 1522.8036 0.0000 0.0000 1746.4860 -7285.5194 300.8289 -9032.0054 -7306.7104 302.8186 1100.6561 1156.7599 29435.0820 428.1239 516.9706
ENERGY: 900000 6.7359 7.9490 18.9740 0.0000 -10633.2702 1452.1033 0.0000 0.0000 1735.9310 -7411.5770 299.0109 -9147.5079 -7316.1017 302.4400 263.0597 281.4651 29240.6510 372.5150 445.1764
ENERGY: 1200000 5.6762 9.7768 20.2313 0.0000 -10572.6762 1446.6620 0.0000 0.0000 1765.9739 -7324.3560 304.1857 -9090.3299 -7325.9809 302.4894 268.2199 267.8510 29841.0757 386.1679 459.5637
ENERGY: 1500000 2.7157 14.6632 17.5642 0.0000 -10513.8392 1414.5752 0.0000 0.0000 1750.2666 -7314.0544 301.4801 -9064.3210 -7326.4532 302.1289 50.7440 170.7527 29801.3703 263.4305 331.7483
TCL: Running FEP window   2: Lambda1 0.05   Lambda2 0.1    [dLambda 0.05  ]
TCL: Setting parameter firsttimestep to 0
TCL: Setting parameter alchLambda to 0.05
Info: NONBONDED TABLE R-SQUARED SPACING: 0.0625
Info: NONBONDED TABLE SIZE: 705 POINTS
TCL: Setting parameter alchLambda2 to 0.1
Info: NONBONDED TABLE R-SQUARED SPACING: 0.0625
Info: NONBONDED TABLE SIZE: 705 POINTS
TCL: Running for 1500000 steps
ETITLE: TS BOND ANGLE DIHED IMPRP ELECT VDW BOUNDARY MISC KINETIC TOTAL TEMP POTENTIAL TOTALAVG TEMPAVG PRESSURE GPRESSURE VOLUME PRESSAVG GPRESSAVG
ENERGY: 0 2.7157 14.6632 17.5642 0.0000 -10513.8404 1417.3854 0.0000 0.0000 1749.3705 -7312.1414 301.3258 -9061.5119 -7312.1414 301.3258 85.8675 181.5712 29801.3703 85.8675 181.5712
ENERGY: 300000 4.2618 9.6537 18.1543 0.0000 -10507.1263 1448.2970 0.0000 0.0000 1672.8540 -7353.9054 288.1460 -9026.7595 -7327.0710 296.4586 446.6002 483.8097 29425.8691 125.7838 190.0688
ENERGY: 600000 2.6729 9.4404 17.5636 0.0000 -10495.7841 1400.1396 0.0000 0.0000 1733.9119 -7332.0558 298.6631 -9065.9677 -7321.4578 297.0153 -80.8844 -2.0284 29636.0441 -18.8874 55.6858
ENERGY: 900000 9.3927 11.5326 16.5044 0.0000 -10429.5851 1351.0043 0.0000 0.0000 1774.5778 -7266.5731 305.6677 -9041.1510 -7328.8518 298.0338 -711.5528 -594.3716 30236.1284 29.5648 106.5284
ENERGY: 1200000 4.3562 10.6636 18.0970 0.0000 -10621.2559 1451.4042 0.0000 0.0000 1745.9877 -7390.7472 300.7431 -9136.7350 -7347.7214 297.2904 3.4308 46.2685 29670.1104 -60.7671 6.6930
ENERGY: 1500000 3.3615 17.2613 19.6289 0.0000 -10547.5338 1405.5528 0.0000 0.0000 1729.0251 -7372.7042 297.8213 -9101.7292 -7345.0197 297.9837 -362.0460 -308.0903 29717.8622 -76.0040 -12.5807
TCL: Running FEP window   3: Lambda1 0.1    Lambda2 0.15000000000000002 [dLambda 0.05000000000000002]
TCL: Setting parameter firsttimestep to 0
TCL: Setting parameter alchLambda to 0.1
Info: NONBONDED TABLE R-SQUARED SPACING: 0.0625
Info: NONBONDED TABLE SIZE: 705 POINTS
TCL: Setting parameter alchLambda2 to 0.15000000000000002
Info: NONBONDED TABLE R-SQUARED SPACING: 0.0625
Info: NONBONDED TABLE SIZE: 705 POINTS
TCL: Running for 1500000 steps
ETITLE: TS BOND ANGLE DIHED IMPRP ELECT VDW BOUNDARY MISC KINETIC TOTAL TEMP POTENTIAL TOTALAVG TEMPAVG PRESSURE GPRESSURE VOLUME PRESSAVG GPRESSAVG
ENERGY: 0 3.3615 17.2613 19.6289 0.0000 -10547.5327 1406.4404 0.0000 0.0000 1728.1655 -7372.6750 297.6733 -9100.8405 -7372.6750 297.6733 -379.8565 -300.5840 29717.8622 -379.8565 -300.5840
ENERGY: 300000 2.2293 12.7489 19.1725 0.0000 -10458.2155 1353.7663 0.0000 0.0000 1709.6929 -7360.6055 294.4914 -9070.2984 -7365.0454 296.7511 -291.3814 -182.1727 29195.7119 -246.5438 -173.4070
ENERGY: 600000 2.2810 15.3629 19.2506 0.0000 -10592.8569 1492.2577 0.0000 0.0000 1770.9439 -7292.7609 305.0418 -9063.7048 -7332.3171 299.8461 635.7370 757.9682 29660.3412 -12.5908 66.3037
ENERGY: 900000 4.6086 14.4355 18.5077 0.0000 -10723.6364 1522.1741 0.0000 0.0000 1730.2766 -7433.6339 298.0369 -9163.9105 -7342.0966 299.7178 413.1232 435.1269 29895.0839 3.4331 73.1247
ENERGY: 1200000 3.3740 12.6303 16.5054 0.0000 -10650.4164 1516.8871 0.0000 0.0000 1728.4224 -7372.5973 297.7175 -9101.0196 -7337.3537 299.7810 746.2873 816.8654 29499.3784 -22.3613 47.7480
ENERGY: 1500000 7.2353 10.1860 16.6705 0.0000 -10435.9379 1359.0953 0.0000 0.0000 1743.1390 -7299.6117 300.2524 -9042.7507 -7327.3611 300.1386 -624.9860 -564.5932 30056.3465 -37.4811 25.9259
TCL: Running FEP window   4: Lambda1 0.15000000000000002 Lambda2 0.2    [dLambda 0.04999999999999999]
TCL: Setting parameter firsttimestep to 0
TCL: Setting parameter alchLambda to 0.15000000000000002
Info: NONBONDED TABLE R-SQUARED SPACING: 0.0625
Info: NONBONDED TABLE SIZE: 705 POINTS
TCL: Setting parameter alchLambda2 to 0.2
Info: NONBONDED TABLE R-SQUARED SPACING: 0.0625
Info: NONBONDED TABLE SIZE: 705 POINTS
TCL: Running for 1500000 steps
ETITLE: TS BOND ANGLE DIHED IMPRP ELECT VDW BOUNDARY MISC KINETIC TOTAL TEMP POTENTIAL TOTALAVG TEMPAVG PRESSURE GPRESSURE VOLUME PRESSAVG GPRESSAVG
ENERGY: 0 7.2353 10.1860 16.6705 0.0000 -10435.9390 1361.4660 0.0000 0.0000 1742.2355 -7298.1457 300.0968 -9040.3811 -7298.1457 300.0968 -625.9062 -549.7312 30056.3465 -625.9062 -549.7312
ENERGY: 300000 3.5459 13.0251 16.0400 0.0000 -10515.9735 1414.5031 0.0000 0.0000 1732.4415 -7336.4179 298.4098 -9068.8594 -7331.6318 299.9179 -20.7409 59.0424 29745.4581 -66.0793 9.3133
ENERGY: 600000 3.7671 14.6253 17.3073 0.0000 -10569.5691 1448.6172 0.0000 0.0000 1773.5891 -7311.6631 305.4974 -9085.2522 -7316.1310 300.3685 177.0908 264.7252 29622.8153 -67.5890 -0.5004
ENERGY: 900000 3.0494 11.9130 17.2488 0.0000 -10694.3442 1507.3485 0.0000 0.0000 1811.3331 -7343.4514 311.9987 -9154.7845 -7311.4596 301.8576 525.3641 608.9381 29546.3388 32.5280 102.2266
ENERGY: 1200000 3.7575 11.2024 16.5326 0.0000 -10488.1542 1418.5394 0.0000 0.0000 1775.4553 -7262.6671 305.8188 -9038.1224 -7310.1477 301.9145 104.0478 177.3569 29959.9601 36.1701 99.9738
ENERGY: 1500000 3.6173 10.9460 18.3271 0.0000 -10572.6344 1408.5615 0.0000 0.0000 1715.7783 -7415.4041 295.5396 -9131.1824 -7311.3433 302.7269 -371.0499 -334.6253 29798.0605 39.4587 95.4360
TCL: Running FEP window   5: Lambda1 0.2    Lambda2 0.25   [dLambda 0.04999999999999999]
TCL: Setting parameter firsttimestep to 0
TCL: Setting parameter alchLambda to 0.2
Info: NONBONDED TABLE R-SQUARED SPACING: 0.0625
Info: NONBONDED TABLE SIZE: 705 POINTS
TCL: Setting parameter alchLambda2 to 0.25
Info: NONBONDED TABLE R-SQUARED SPACING: 0.0625
Info: NONBONDED TABLE SIZE: 705 POINTS
TCL: Running for 1500000 steps
ETITLE: TS BOND ANGLE DIHED IMPRP ELECT VDW BOUNDARY MISC KINETIC TOTAL TEMP POTENTIAL TOTALAVG TEMPAVG PRESSURE GPRESSURE VOLUME PRESSAVG GPRESSAVG
ENERGY: 0 3.6173 10.9460 18.3271 0.0000 -10572.6341 1409.9342 0.0000 0.0000 1714.9122 -7414.8973 295.3904 -9129.8095 -7414.8973 295.3904 -401.3287 -323.3596 29798.0605 -401.3287 -323.3596
ENERGY: 300000 1.0883 11.0583 19.4313 0.0000 -10277.7691 1255.2176 0.0000 0.0000 1744.6601 -7246.3135 300.5144 -8990.9736 -7328.8965 296.3903 -1035.7572 -1004.4275 29913.9579 -384.5548 -316.0822
ENERGY: 600000 5.0967 16.8335 17.3903 0.0000 -10375.4170 1342.3378 0.0000 0.0000 1750.5239 -7243.2348 301.5244 -8993.7587 -7324.7726 299.0384 -594.2603 -579.8351 30119.6713 -87.4192 -14.8722
ENERGY: 900000 3.2228 7.5848 18.1168 0.0000 -10588.2369 1425.7842 0.0000 0.0000 1739.2412 -7394.2871 299.5810 -9133.5282 -7313.5230 300.8729 -99.1930 -52.3355 30085.5841 -13.9681 39.4748
ENERGY: 1200000 3.9372 12.7505 17.8520 0.0000 -10526.1048 1402.8111 0.0000 0.0000 1770.2711 -7318.4829 304.9259 -9088.7541 -7314.2227 300.6515 -56.3360 75.9767 29475.6442 -47.7300 11.4681
ENERGY: 1500000 5.4589 12.1797 17.6116 0.0000 -10500.4260 1366.6473 0.0000 0.0000 1752.6533 -7345.8752 301.8912 -9098.5285 -7317.0617 301.4093 -641.2667 -595.0637 29883.3003 -45.2832 9.3448
TCL: Running FEP window   6: Lambda1 0.25   Lambda2 0.3    [dLambda 0.04999999999999999]
TCL: Setting parameter firsttimestep to 0
TCL: Setting parameter alchLambda to 0.25
Info: NONBONDED TABLE R-SQUARED SPACING: 0.0625
Info: NONBONDED TABLE SIZE: 705 POINTS
TCL: Setting parameter alchLambda2 to 0.3
Info: NONBONDED TABLE R-SQUARED SPACING: 0.0625
Info: NONBONDED TABLE SIZE: 705 POINTS
TCL: Running for 1500000 steps
ETITLE: TS BOND ANGLE DIHED IMPRP ELECT VDW BOUNDARY MISC KINETIC TOTAL TEMP POTENTIAL TOTALAVG TEMPAVG PRESSURE GPRESSURE VOLUME PRESSAVG GPRESSAVG
ENERGY: 0 5.4589 12.1797 17.6116 0.0000 -10500.4260 1366.7119 0.0000 0.0000 1751.8176 -7346.6463 301.7473 -9098.4640 -7346.6463 301.7473 -686.2448 -587.4561 29883.3003 -686.2448 -587.4561
ENERGY: 300000 3.3056 13.1950 17.2291 0.0000 -10440.4809 1399.0761 0.0000 0.0000 1777.5090 -7230.1662 306.1726 -9007.6752 -7322.1489 301.4393 -46.1370 25.4955 29895.5746 14.7733 72.7635
ENERGY: 600000 6.9174 17.5337 18.6201 0.0000 -10706.9343 1549.3036 0.0000 0.0000 1758.0426 -7356.5169 302.8195 -9114.5595 -7310.0852 302.2431 775.0993 831.5016 29838.1617 104.5261 164.5831
ENERGY: 900000 3.4726 11.1854 17.3078 0.0000 -10492.8157 1403.2569 0.0000 0.0000 1750.4124 -7307.1806 301.5052 -9057.5930 -7316.5658 301.3458 -292.3595 -216.7177 30273.7170 -19.1736 35.0408
ENERGY: 1200000 3.3697 6.7410 16.9841 0.0000 -10536.1284 1407.8390 0.0000 0.0000 1728.8006 -7372.3940 297.7826 -9101.1946 -7311.3937 301.1460 -500.0411 -372.9949 29990.6628 -53.9653 5.4673
ENERGY: 1500000 3.7149 14.4405 17.5652 0.0000 -10569.4919 1457.4770 0.0000 0.0000 1766.2626 -7310.0317 304.2354 -9076.2943 -7322.5311 300.5271 236.0910 279.4280 29883.9265 -129.1352 -69.1904
TCL: Running FEP window   7: Lambda1 0.3    Lambda2 0.35   [dLambda 0.04999999999999999]
TCL: Setting parameter firsttimestep to 0
TCL: Setting parameter alchLambda to 0.3
Info: NONBONDED TABLE R-SQUARED SPACING: 0.0625
Info: NONBONDED TABLE SIZE: 705 POINTS
TCL: Setting parameter alchLambda2 to 0.35
Info: NONBONDED TABLE R-SQUARED SPACING: 0.0625
Info: NONBONDED TABLE SIZE: 705 POINTS
TCL: Running for 1500000 steps
ETITLE: TS BOND ANGLE DIHED IMPRP ELECT VDW BOUNDARY MISC KINETIC TOTAL TEMP POTENTIAL TOTALAVG TEMPAVG PRESSURE GPRESSURE VOLUME PRESSAVG GPRESSAVG
ENERGY: 0 3.7149 14.4405 17.5652 0.0000 -10569.4914 1457.4302 0.0000 0.0000 1765.4029 -7310.9377 304.0873 -9076.3406 -7310.9377 304.0873 210.3442 286.3436 29883.9265 210.3442 286.3436
ENERGY: 300000 4.8657 12.4308 16.3907 0.0000 -10531.5321 1470.9031 0.0000 0.0000 1682.5979 -7344.3440 289.8243 -9026.9419 -7339.9139 296.3997 406.9404 477.3059 29922.0446 131.3404 221.0255
ENERGY: 600000 3.8489 12.4213 17.5218 0.0000 -10377.5208 1357.6957 0.0000 0.0000 1796.5494 -7189.4838 309.4523 -8986.0332 -7313.5744 297.2524 -277.8964 -155.3599 29985.6700 -160.4925 -65.4230
ENERGY: 900000 5.0290 8.0392 16.4881 0.0000 -10358.0749 1311.1051 0.0000 0.0000 1727.0901 -7290.3235 297.4880 -9017.4135 -7309.8706 297.6665 -628.9345 -521.0681 30098.5208 -119.2614 -26.9727
ENERGY: 1200000 3.6761 10.8913 23.1763 0.0000 -10493.0632 1421.8791 0.0000 0.0000 1707.7642 -7325.6764 294.1592 -9033.4406 -7316.0648 298.4021 -41.5273 32.7672 29781.2433 -9.7531 69.6014
ENERGY: 1500000 9.4798 14.1331 16.7936 0.0000 -10611.9422 1428.8498 0.0000 0.0000 1775.4784 -7367.2074 305.8228 -9142.6858 -7312.4261 299.3122 -209.2285 -113.2862 30185.5205 0.2793 83.5582
TCL: Running FEP window   8: Lambda1 0.35   Lambda2 0.39999999999999997 [dLambda 0.04999999999999999]
TCL: Setting parameter firsttimestep to 0
TCL: Setting parameter alchLambda to 0.35
Info: NONBONDED TABLE R-SQUARED SPACING: 0.0625
Info: NONBONDED TABLE SIZE: 705 POINTS
TCL: Setting parameter alchLambda2 to 0.39999999999999997
Info: NONBONDED TABLE R-SQUARED SPACING: 0.0625
Info: NONBONDED TABLE SIZE: 705 POINTS
TCL: Running for 1500000 steps
ETITLE: TS BOND ANGLE DIHED IMPRP ELECT VDW BOUNDARY MISC KINETIC TOTAL TEMP POTENTIAL TOTALAVG TEMPAVG PRESSURE GPRESSURE VOLUME PRESSAVG GPRESSAVG
ENERGY: 0 9.4798 14.1331 16.7936 0.0000 -10611.9426 1430.4504 0.0000 0.0000 1774.5939 -7366.4917 305.6705 -9141.0857 -7366.4917 305.6705 -171.8143 -97.4086 30185.5205 -171.8143 -97.4086
ENERGY: 300000 2.9492 10.3272 17.7137 0.0000 -10532.2414 1412.0880 0.0000 0.0000 1735.9200 -7353.2431 299.0090 -9089.1632 -7374.7268 300.2564 135.9983 197.2363 29619.4019 -143.5951 -91.1577
ENERGY: 600000 3.7557 14.7963 18.0755 0.0000 -10499.7257 1394.2019 0.0000 0.0000 1791.5589 -7277.3375 308.5926 -9068.8963 -7330.5237 302.6930 -263.8727 -197.9514 30069.7741 -182.0868 -119.7261
ENERGY: 900000 2.8485 14.4734 16.4529 0.0000 -10557.8907 1427.2427 0.0000 0.0000 1788.4470 -7308.4263 308.0566 -9096.8733 -7322.1102 302.6398 33.9812 122.3071 30040.1291 -154.0155 -83.5470
ENERGY: 1200000 2.5344 9.0258 16.3764 0.0000 -10593.3153 1395.5574 0.0000 0.0000 1717.2634 -7452.5579 295.7954 -9169.8213 -7333.7875 301.5237 -459.3547 -415.7635 29827.3340 -241.6262 -167.0123
ENERGY: 1500000 4.9118 10.4331 17.1603 0.0000 -10471.2137 1332.9327 0.0000 0.0000 1755.6274 -7350.1484 302.4035 -9105.7758 -7336.0056 301.7302 -776.4244 -753.0104 30203.4166 -206.3146 -137.8104
TCL: Running FEP window   9: Lambda1 0.39999999999999997 Lambda2 0.44999999999999996 [dLambda 0.04999999999999999]
TCL: Setting parameter firsttimestep to 0
TCL: Setting parameter alchLambda to 0.39999999999999997
Info: NONBONDED TABLE R-SQUARED SPACING: 0.0625
Info: NONBONDED TABLE SIZE: 705 POINTS
TCL: Setting parameter alchLambda2 to 0.44999999999999996
Info: NONBONDED TABLE R-SQUARED SPACING: 0.0625
Info: NONBONDED TABLE SIZE: 705 POINTS
TCL: Running for 1500000 steps
ETITLE: TS BOND ANGLE DIHED IMPRP ELECT VDW BOUNDARY MISC KINETIC TOTAL TEMP POTENTIAL TOTALAVG TEMPAVG PRESSURE GPRESSURE VOLUME PRESSAVG GPRESSAVG
ENERGY: 0 4.9117 10.4331 17.1603 0.0000 -10471.2144 1332.7895 0.0000 0.0000 1754.7418 -7351.1779 302.2510 -9105.9198 -7351.1779 302.2510 -826.1534 -743.1198 30203.4166 -826.1534 -743.1198
ENERGY: 300000 4.1913 10.2287 17.3702 0.0000 -10448.5835 1343.1933 0.0000 0.0000 1769.3205 -7304.2795 304.7621 -9073.6000 -7358.5391 301.0126 -816.5401 -832.6593 30388.4341 -439.0798 -401.2012
ENERGY: 600000 2.9134 9.5118 19.0648 0.0000 -10629.5356 1509.4184 0.0000 0.0000 1747.9317 -7340.6956 301.0779 -9088.6273 -7335.9477 300.9751 1238.0525 1290.4145 29325.6169 -42.4296 11.7623
ENERGY: 900000 4.9565 15.1350 17.4062 0.0000 -10430.8289 1390.9130 0.0000 0.0000 1760.1488 -7242.2693 303.1823 -9002.4181 -7332.2800 300.3428 -134.1466 9.7074 30184.9218 -18.1646 43.0173
ENERGY: 1200000 2.6247 8.7760 18.3599 0.0000 -10367.3791 1317.6829 0.0000 0.0000 1711.9614 -7307.9741 294.8821 -9019.9355 -7330.3601 299.5520 -633.9432 -628.5169 29897.2325 -48.2284 5.3218
ENERGY: 1500000 0.6380 8.9965 18.4764 0.0000 -10584.9121 1458.1463 0.0000 0.0000 1792.2077 -7306.4472 308.7044 -9098.6549 -7326.9919 300.2835 612.2529 625.9395 29643.0972 39.7340 88.0539
TCL: Running FEP window  10: Lambda1 0.44999999999999996 Lambda2 0.49999999999999994 [dLambda 0.04999999999999999]
TCL: Setting parameter firsttimestep to 0
TCL: Setting parameter alchLambda to 0.44999999999999996
Info: NONBONDED TABLE R-SQUARED SPACING: 0.0625
Info: NONBONDED TABLE SIZE: 705 POINTS
TCL: Setting parameter alchLambda2 to 0.49999999999999994
Info: NONBONDED TABLE R-SQUARED SPACING: 0.0625
Info: NONBONDED TABLE SIZE: 705 POINTS
TCL: Running for 1500000 steps
ETITLE: TS BOND ANGLE DIHED IMPRP ELECT VDW BOUNDARY MISC KINETIC TOTAL TEMP POTENTIAL TOTALAVG TEMPAVG PRESSURE GPRESSURE VOLUME PRESSAVG GPRESSAVG
ENERGY: 0 0.6380 8.9965 18.4764 0.0000 -10584.9117 1457.9755 0.0000 0.0000 1791.3845 -7307.4408 308.5626 -9098.8254 -7307.4408 308.5626 551.9921 634.4483 29643.0972 551.9921 634.4483
ENERGY: 300000 2.4259 13.4881 17.1654 0.0000 -10482.5117 1429.8460 0.0000 0.0000 1756.6767 -7262.9096 302.5843 -9019.5863 -7280.8514 305.9257 8.9107 107.0671 30166.3653 124.9656 197.0064
ENERGY: 600000 2.3749 19.9065 17.7949 0.0000 -10546.8008 1428.4426 0.0000 0.0000 1781.0867 -7297.1952 306.7888 -9078.2819 -7290.6069 304.3909 171.6723 277.0217 29601.1113 -71.4153 13.5221
ENERGY: 900000 2.8158 15.6188 17.6398 0.0000 -10398.9675 1291.1284 0.0000 0.0000 1723.2390 -7348.5258 296.8247 -9071.7648 -7305.1054 303.1228 -1097.5690 -1050.9547 30044.3953 -106.7098 -27.7396
ENERGY: 1200000 2.6772 15.5936 16.2560 0.0000 -10623.8253 1446.9680 0.0000 0.0000 1755.2948 -7387.0356 302.3462 -9142.3304 -7317.0838 301.4362 -41.9273 13.3772 30079.7637 -66.3249 6.4534
ENERGY: 1500000 3.3261 9.9218 17.4285 0.0000 -10549.8254 1423.5073 0.0000 0.0000 1739.1132 -7356.5285 299.5590 -9095.6417 -7314.4585 301.9193 149.3009 225.3351 29524.6614 -51.5501 25.1101
TCL: Running FEP window  11: Lambda1 0.49999999999999994 Lambda2 0.5499999999999999 [dLambda 0.04999999999999999]
TCL: Setting parameter firsttimestep to 0
TCL: Setting parameter alchLambda to 0.49999999999999994
Info: NONBONDED TABLE R-SQUARED SPACING: 0.0625
Info: NONBONDED TABLE SIZE: 705 POINTS
TCL: Setting parameter alchLambda2 to 0.5499999999999999
Info: NONBONDED TABLE R-SQUARED SPACING: 0.0625
Info: NONBONDED TABLE SIZE: 705 POINTS
TCL: Running for 1500000 steps
ETITLE: TS BOND ANGLE DIHED IMPRP ELECT VDW BOUNDARY MISC KINETIC TOTAL TEMP POTENTIAL TOTALAVG TEMPAVG PRESSURE GPRESSURE VOLUME PRESSAVG GPRESSAVG
ENERGY: 0 3.3261 9.9218 17.4285 0.0000 -10549.8255 1423.8460 0.0000 0.0000 1738.2546 -7357.0485 299.4111 -9095.3031 -7357.0485 299.4111 166.2886 237.6345 29524.6614 166.2886 237.6345
ENERGY: 300000 6.2238 11.6515 19.0164 0.0000 -10454.7724 1380.9894 0.0000 0.0000 1778.2740 -7258.6174 306.3044 -9036.8914 -7332.2013 300.0643 5.5189 95.3133 29498.6453 152.9189 223.6666
ENERGY: 600000 6.2124 10.2540 18.5112 0.0000 -10470.1080 1401.0917 0.0000 0.0000 1748.1592 -7285.8794 301.1171 -9034.0386 -7356.9405 298.0746 -112.5748 -6.3591 29877.2686 71.9057 150.7051
ENERGY: 900000 5.5765 12.6685 18.6533 0.0000 -10460.6879 1359.1169 0.0000 0.0000 1698.4306 -7366.2420 292.5515 -9064.6726 -7357.9745 298.2263 -796.0889 -783.1531 30476.7811 -203.7980 -129.2262
ENERGY: 1200000 1.3555 10.7306 19.7481 0.0000 -10500.8219 1423.6237 0.0000 0.0000 1715.5375 -7329.8266 295.4981 -9045.3640 -7356.3795 298.2144 -137.5360 -7.6476 30283.2736 -121.2012 -41.8350
ENERGY: 1500000 2.8327 12.0541 17.3998 0.0000 -10580.6145 1452.7266 0.0000 0.0000 1794.1181 -7301.4832 309.0335 -9095.6013 -7346.6028 299.0417 259.3469 325.0509 29804.8966 -64.9978 10.2950
TCL: Running FEP window  12: Lambda1 0.5499999999999999 Lambda2 0.6    [dLambda 0.050000000000000044]
TCL: Setting parameter firsttimestep to 0
TCL: Setting parameter alchLambda to 0.5499999999999999
Info: NONBONDED TABLE R-SQUARED SPACING: 0.0625
Info: NONBONDED TABLE SIZE: 705 POINTS
TCL: Setting parameter alchLambda2 to 0.6
Info: NONBONDED TABLE R-SQUARED SPACING: 0.0625
Info: NONBONDED TABLE SIZE: 705 POINTS
TCL: Running for 1500000 steps
ETITLE: TS BOND ANGLE DIHED IMPRP ELECT VDW BOUNDARY MISC KINETIC TOTAL TEMP POTENTIAL TOTALAVG TEMPAVG PRESSURE GPRESSURE VOLUME PRESSAVG GPRESSAVG
ENERGY: 0 2.8327 12.0541 17.3998 0.0000 -10581.1224 1452.5774 0.0000 0.0000 1793.2692 -7302.9892 308.8872 -9096.2584 -7302.9892 308.8872 252.8068 334.5986 29804.8966 252.8068 334.5986
ENERGY: 300000 4.9536 11.9597 16.9582 0.0000 -10802.6929 1617.3608 0.0000 0.0000 1770.2293 -7381.2313 304.9187 -9151.4607 -7340.1874 301.9385 1384.3128 1475.0077 29696.2056 709.3132 771.2623
ENERGY: 600000 2.1151 10.0347 15.8917 0.0000 -10551.1526 1413.3471 0.0000 0.0000 1747.2840 -7362.4800 300.9664 -9109.7641 -7342.4786 301.1078 -52.5730 -35.5242 30142.6278 477.2558 543.6739
ENERGY: 900000 2.5347 12.3834 15.9910 0.0000 -10571.5900 1438.8895 0.0000 0.0000 1786.3584 -7315.4328 307.6969 -9101.7913 -7335.6775 302.1617 308.8429 289.7416 29679.3140 312.2790 367.1244
ENERGY: 1200000 2.5332 7.8738 18.8372 0.0000 -10650.4303 1479.5376 0.0000 0.0000 1728.5473 -7413.1012 297.7390 -9141.6486 -7342.9810 301.7923 37.1862 99.7920 30034.8791 292.2782 345.7256
ENERGY: 1500000 3.6922 8.7284 16.7289 0.0000 -10478.5714 1357.4547 0.0000 0.0000 1762.7585 -7329.2086 303.6318 -9091.9671 -7355.6482 300.8120 -382.6561 -389.2658 29841.5563 180.5453 225.8262
TCL: Running FEP window  13: Lambda1 0.6    Lambda2 0.65   [dLambda 0.050000000000000044]
TCL: Setting parameter firsttimestep to 0
TCL: Setting parameter alchLambda to 0.6
Info: NONBONDED TABLE R-SQUARED SPACING: 0.0625
Info: NONBONDED TABLE SIZE: 705 POINTS
TCL: Setting parameter alchLambda2 to 0.65
Info: NONBONDED TABLE R-SQUARED SPACING: 0.0625
Info: NONBONDED TABLE SIZE: 705 POINTS
TCL: Running for 1500000 steps
ETITLE: TS BOND ANGLE DIHED IMPRP ELECT VDW BOUNDARY MISC KINETIC TOTAL TEMP POTENTIAL TOTALAVG TEMPAVG PRESSURE GPRESSURE VOLUME PRESSAVG GPRESSAVG
ENERGY: 0 3.6922 8.7284 16.7289 0.0000 -10478.4160 1357.6885 0.0000 0.0000 1761.8814 -7329.6965 303.4808 -9091.5779 -7329.6965 303.4808 -460.9936 -371.6819 29841.5563 -460.9936 -371.6819
ENERGY: 300000 5.0511 8.3668 18.0141 0.0000 -10394.4926 1337.0909 0.0000 0.0000 1733.7253 -7292.2444 298.6309 -9025.9697 -7313.6897 299.9807 -659.6598 -535.8109 30210.1177 -404.5507 -301.6240
ENERGY: 600000 3.1269 14.2120 18.6835 0.0000 -10483.3484 1390.8835 0.0000 0.0000 1748.4040 -7308.0385 301.1593 -9056.4424 -7311.6390 301.1448 -232.7386 -142.3498 30254.9785 -183.1202 -83.0239
ENERGY: 900000 4.8165 10.5513 15.2389 0.0000 -10427.0044 1338.9170 0.0000 0.0000 1731.8211 -7325.6597 298.3029 -9057.4809 -7316.7788 299.3836 -859.3394 -796.2661 30305.2322 -330.7406 -248.2544
ENERGY: 1200000 1.5397 13.1186 17.9903 0.0000 -10520.2530 1403.3345 0.0000 0.0000 1737.9594 -7346.3105 299.3602 -9084.2699 -7314.2611 299.3774 -344.6282 -173.6613 30241.8004 -365.9429 -269.0075
ENERGY: 1500000 4.1705 13.6264 16.2678 0.0000 -10583.0557 1407.3203 0.0000 0.0000 1747.7310 -7393.9398 301.0434 -9141.6707 -7315.2070 299.9831 -435.7854 -314.7360 29879.0828 -292.6568 -194.1814
TCL: Running FEP window  14: Lambda1 0.65   Lambda2 0.7000000000000001 [dLambda 0.050000000000000044]
TCL: Setting parameter firsttimestep to 0
TCL: Setting parameter alchLambda to 0.65
Info: NONBONDED TABLE R-SQUARED SPACING: 0.0625
Info: NONBONDED TABLE SIZE: 705 POINTS
TCL: Setting parameter alchLambda2 to 0.7000000000000001
Info: NONBONDED TABLE R-SQUARED SPACING: 0.0625
Info: NONBONDED TABLE SIZE: 705 POINTS
TCL: Running for 1500000 steps
ETITLE: TS BOND ANGLE DIHED IMPRP ELECT VDW BOUNDARY MISC KINETIC TOTAL TEMP POTENTIAL TOTALAVG TEMPAVG PRESSURE GPRESSURE VOLUME PRESSAVG GPRESSAVG
ENERGY: 0 4.1704 13.6263 16.2678 0.0000 -10584.1089 1406.9012 0.0000 0.0000 1746.8671 -7396.2760 300.8946 -9143.1431 -7396.2760 300.8946 -396.5622 -311.0484 29879.0828 -396.5622 -311.0484
ENERGY: 300000 4.6397 8.9272 18.3158 0.0000 -10390.3615 1362.6355 0.0000 0.0000 1722.0898 -7273.7536 296.6267 -8995.8434 -7348.3806 299.1484 -414.5595 -319.0428 30759.8248 -244.7804 -168.1714
ENERGY: 600000 5.6528 10.6875 18.9963 0.0000 -10636.5953 1485.9717 0.0000 0.0000 1750.9143 -7364.3727 301.5917 -9115.2870 -7352.7251 298.6696 321.5110 408.9633 29812.9462 -160.8135 -87.2549
ENERGY: 900000 3.2353 15.4557 17.7636 0.0000 -10469.4100 1418.6364 0.0000 0.0000 1696.0036 -7318.3154 292.1334 -9014.3190 -7339.2094 298.1834 -149.5316 -131.2245 30621.4056 -284.2612 -216.4207
ENERGY: 1200000 5.0703 11.2059 20.7180 0.0000 -10543.3839 1392.9081 0.0000 0.0000 1736.4550 -7377.0265 299.1011 -9113.4815 -7338.3454 298.1716 -395.2753 -332.8907 30041.8321 -217.8994 -149.7861
ENERGY: 1500000 2.8743 11.2671 19.1597 0.0000 -10405.7120 1399.6032 0.0000 0.0000 1713.9449 -7258.8627 295.2238 -8972.8076 -7340.9429 297.4960 -131.4049 -60.6591 30692.9461 -214.6589 -142.5657
TCL: Running FEP window  15: Lambda1 0.7000000000000001 Lambda2 0.7500000000000001 [dLambda 0.050000000000000044]
TCL: Setting parameter firsttimestep to 0
TCL: Setting parameter alchLambda to 0.7000000000000001
Info: NONBONDED TABLE R-SQUARED SPACING: 0.0625
Info: NONBONDED TABLE SIZE: 705 POINTS
TCL: Setting parameter alchLambda2 to 0.7500000000000001
Info: NONBONDED TABLE R-SQUARED SPACING: 0.0625
Info: NONBONDED TABLE SIZE: 705 POINTS
TCL: Running for 1500000 steps
ETITLE: TS BOND ANGLE DIHED IMPRP ELECT VDW BOUNDARY MISC KINETIC TOTAL TEMP POTENTIAL TOTALAVG TEMPAVG PRESSURE GPRESSURE VOLUME PRESSAVG GPRESSAVG
ENERGY: 0 2.8743 11.2671 19.1597 0.0000 -10406.1729 1400.0110 0.0000 0.0000 1713.0580 -7259.8027 295.0710 -8972.8607 -7259.8027 295.0710 -128.6643 -42.4739 30692.9461 -128.6643 -42.4739
ENERGY: 300000 3.1762 16.1463 17.7901 0.0000 -10559.5797 1417.9851 0.0000 0.0000 1761.3509 -7343.1310 303.3894 -9104.4819 -7291.9701 301.2283 -167.0963 -90.0999 30156.7647 220.2836 279.4304
ENERGY: 600000 2.3454 8.9222 16.5379 0.0000 -10514.3402 1382.8388 0.0000 0.0000 1749.7246 -7353.9713 301.3868 -9103.6959 -7302.6640 302.0771 -295.8190 -207.2525 29937.6600 105.7901 173.9969
ENERGY: 900000 2.9932 12.1738 17.7283 0.0000 -10488.0343 1361.3479 0.0000 0.0000 1777.5888 -7316.2022 306.1863 -9093.7910 -7313.2318 301.8884 -406.4906 -379.1964 29985.2070 -1.8896 71.1431
ENERGY: 1200000 6.1485 9.1661 18.4298 0.0000 -10414.8401 1328.7138 0.0000 0.0000 1755.8744 -7296.5076 302.4461 -9052.3819 -7330.5320 301.2821 -661.0741 -581.7971 30175.8786 -68.4110 1.7202
ENERGY: 1500000 1.7704 10.6561 17.2052 0.0000 -10574.8060 1431.2290 0.0000 0.0000 1770.9122 -7343.0330 305.0363 -9113.9452 -7332.6747 300.9366 72.2537 71.2828 30223.4391 -95.7404 -31.9041
TCL: Running FEP window  16: Lambda1 0.7500000000000001 Lambda2 0.8000000000000002 [dLambda 0.050000000000000044]
TCL: Setting parameter firsttimestep to 0
TCL: Setting parameter alchLambda to 0.7500000000000001
Info: NONBONDED TABLE R-SQUARED SPACING: 0.0625
Info: NONBONDED TABLE SIZE: 705 POINTS
TCL: Setting parameter alchLambda2 to 0.8000000000000002
Info: NONBONDED TABLE R-SQUARED SPACING: 0.0625
Info: NONBONDED TABLE SIZE: 705 POINTS
TCL: Running for 1500000 steps
ETITLE: TS BOND ANGLE DIHED IMPRP ELECT VDW BOUNDARY MISC KINETIC TOTAL TEMP POTENTIAL TOTALAVG TEMPAVG PRESSURE GPRESSURE VOLUME PRESSAVG GPRESSAVG
ENERGY: 0 1.7704 10.6561 17.2052 0.0000 -10576.5277 1432.0454 0.0000 0.0000 1770.0044 -7344.8462 304.8799 -9114.8505 -7344.8462 304.8799 9.1388 82.8783 30223.4391 9.1388 82.8783
ENERGY: 300000 2.9998 13.7874 17.2984 0.0000 -10503.9795 1378.1873 0.0000 0.0000 1705.8049 -7385.9016 293.8217 -9091.7066 -7355.1306 295.4730 -365.3720 -300.0725 29868.1528 152.4511 219.7878
ENERGY: 600000 2.7378 10.2397 15.4185 0.0000 -10416.4873 1293.6570 0.0000 0.0000 1754.6726 -7339.7617 302.2391 -9094.4343 -7345.0467 296.0081 -1170.7775 -1099.3184 30247.5394 82.1788 153.1671
ENERGY: 900000 7.1884 9.3505 20.2247 0.0000 -10548.5691 1412.7064 0.0000 0.0000 1753.5655 -7345.5337 302.0484 -9099.0992 -7352.6992 297.1623 -265.1929 -165.9511 30035.7621 190.5166 269.0442
ENERGY: 1200000 5.7142 14.3772 17.3119 0.0000 -10554.0514 1372.3849 0.0000 0.0000 1723.3940 -7420.8692 296.8514 -9144.2632 -7351.1205 297.9682 -842.5178 -747.9879 30127.7542 76.6594 149.8400
ENERGY: 1500000 3.1847 8.8103 16.2567 0.0000 -10352.3083 1321.3234 0.0000 0.0000 1739.1861 -7263.5471 299.5715 -9002.7332 -7341.0722 298.6004 -760.8336 -695.8878 30557.9439 7.3797 73.2707
TCL: Running FEP window  17: Lambda1 0.8000000000000002 Lambda2 0.8500000000000002 [dLambda 0.050000000000000044]
TCL: Setting parameter firsttimestep to 0
TCL: Setting parameter alchLambda to 0.8000000000000002
Info: NONBONDED TABLE R-SQUARED SPACING: 0.0625
Info: NONBONDED TABLE SIZE: 705 POINTS
TCL: Setting parameter alchLambda2 to 0.8500000000000002
Info: NONBONDED TABLE R-SQUARED SPACING: 0.0625
Info: NONBONDED TABLE SIZE: 705 POINTS
TCL: Running for 1500000 steps
ETITLE: TS BOND ANGLE DIHED IMPRP ELECT VDW BOUNDARY MISC KINETIC TOTAL TEMP POTENTIAL TOTALAVG TEMPAVG PRESSURE GPRESSURE VOLUME PRESSAVG GPRESSAVG
ENERGY: 0 3.1847 8.8103 16.2567 0.0000 -10352.5209 1321.4799 0.0000 0.0000 1738.3487 -7264.4407 299.4273 -9002.7894 -7264.4407 299.4273 -764.0422 -680.4791 30557.9439 -764.0422 -680.4791
ENERGY: 300000 2.6761 14.8190 17.6141 0.0000 -10682.7343 1477.8626 0.0000 0.0000 1714.9861 -7454.7763 295.4031 -9169.7624 -7346.7548 299.0358 75.3460 139.3303 30095.2911 -432.5422 -331.0182
ENERGY: 600000 2.9471 12.3659 18.2478 0.0000 -10579.0812 1469.8969 0.0000 0.0000 1704.2958 -7371.3277 293.5617 -9075.6235 -7362.9068 297.5340 351.7090 323.3523 30325.0469 -331.3542 -259.4270
ENERGY: 900000 5.9350 8.7226 16.0116 0.0000 -10467.9951 1387.9881 0.0000 0.0000 1740.6167 -7308.7212 299.8180 -9049.3379 -7353.8212 298.3067 -12.8336 44.0179 29792.3526 -168.3584 -93.4473
ENERGY: 1200000 4.2153 14.9229 18.7021 0.0000 -10617.0414 1427.7555 0.0000 0.0000 1685.3332 -7466.1125 290.2955 -9151.4457 -7370.7523 296.8411 -166.8811 -170.1214 29896.8277 -186.4106 -125.1463
ENERGY: 1500000 1.4903 11.5985 17.3836 0.0000 -10669.0965 1518.8146 0.0000 0.0000 1701.7987 -7418.0108 293.1316 -9119.8095 -7364.3626 297.5361 1094.6813 1123.0317 29398.9544 -85.7386 -32.1976
TCL: Running FEP window  18: Lambda1 0.8500000000000002 Lambda2 0.9000000000000002 [dLambda 0.050000000000000044]
TCL: Setting parameter firsttimestep to 0
TCL: Setting parameter alchLambda to 0.8500000000000002
Info: NONBONDED TABLE R-SQUARED SPACING: 0.0625
Info: NONBONDED TABLE SIZE: 705 POINTS
TCL: Setting parameter alchLambda2 to 0.9000000000000002
Info: NONBONDED TABLE R-SQUARED SPACING: 0.0625
Info: NONBONDED TABLE SIZE: 705 POINTS
TCL: Running for 1500000 steps
ETITLE: TS BOND ANGLE DIHED IMPRP ELECT VDW BOUNDARY MISC KINETIC TOTAL TEMP POTENTIAL TOTALAVG TEMPAVG PRESSURE GPRESSURE VOLUME PRESSAVG GPRESSAVG
ENERGY: 0 1.4903 11.5985 17.3836 0.0000 -10670.6024 1521.1949 0.0000 0.0000 1700.9192 -7418.0158 292.9801 -9118.9351 -7418.0158 292.9801 1075.8030 1161.7390 29398.9544 1075.8030 1161.7390
ENERGY: 300000 2.1491 11.3264 17.1412 0.0000 -10429.3118 1347.3991 0.0000 0.0000 1669.8087 -7381.4874 287.6214 -9051.2961 -7310.6056 296.6234 -343.4441 -211.3716 29931.4805 218.7030 295.6676
ENERGY: 600000 3.3903 8.3898 17.0130 0.0000 -10484.7509 1372.8944 0.0000 0.0000 1728.3113 -7354.7522 297.6984 -9083.0635 -7325.5635 298.9230 -346.6175 -266.3347 30000.2910 163.5254 220.4080
ENERGY: 900000 4.1666 13.4021 17.1994 0.0000 -10470.3559 1291.3002 0.0000 0.0000 1772.1091 -7372.1784 305.2425 -9144.2875 -7336.6463 299.7948 -1162.2047 -1036.0116 29925.8602 -20.3617 45.6002
ENERGY: 1200000 5.1132 12.0136 16.8890 0.0000 -10544.6842 1401.9307 0.0000 0.0000 1758.3227 -7350.4151 302.8678 -9108.7378 -7336.9946 300.3665 136.7366 168.5100 29649.8047 -40.4217 22.0804
ENERGY: 1500000 5.9759 7.8501 17.6513 0.0000 -10660.4013 1447.6951 0.0000 0.0000 1756.9165 -7424.3124 302.6256 -9181.2289 -7343.5915 300.1678 156.4936 214.8393 29660.0691 -20.2720 41.4198
TCL: Running FEP window  19: Lambda1 0.9000000000000002 Lambda2 0.9500000000000003 [dLambda 0.050000000000000044]
TCL: Setting parameter firsttimestep to 0
TCL: Setting parameter alchLambda to 0.9000000000000002
Info: NONBONDED TABLE R-SQUARED SPACING: 0.0625
Info: NONBONDED TABLE SIZE: 705 POINTS
TCL: Setting parameter alchLambda2 to 0.9500000000000003
Info: NONBONDED TABLE R-SQUARED SPACING: 0.0625
Info: NONBONDED TABLE SIZE: 705 POINTS
TCL: Running for 1500000 steps
ETITLE: TS BOND ANGLE DIHED IMPRP ELECT VDW BOUNDARY MISC KINETIC TOTAL TEMP POTENTIAL TOTALAVG TEMPAVG PRESSURE GPRESSURE VOLUME PRESSAVG GPRESSAVG
ENERGY: 0 5.9759 7.8501 17.6513 0.0000 -10662.0326 1448.0948 0.0000 0.0000 1756.0251 -7426.4354 302.4720 -9182.4605 -7426.4354 302.4720 136.4294 229.2570 29660.0691 136.4294 229.2570
ENERGY: 300000 4.3894 12.3934 18.9670 0.0000 -10523.3084 1406.5866 0.0000 0.0000 1721.9375 -7359.0344 296.6005 -9080.9720 -7405.8088 297.0749 -41.1721 10.6889 29805.5965 -225.1009 -166.1485
ENERGY: 600000 2.7156 13.3565 18.9321 0.0000 -10561.8627 1448.2679 0.0000 0.0000 1727.6263 -7350.9644 297.5804 -9078.5907 -7370.8975 296.1975 411.2529 459.5106 29802.5925 -208.7646 -153.6909
ENERGY: 900000 3.9815 8.7540 18.8702 0.0000 -10555.4329 1429.0742 0.0000 0.0000 1774.8869 -7319.8662 305.7209 -9094.7531 -7357.8263 297.7944 195.5970 236.6509 29786.7900 -59.6682 -4.9923
ENERGY: 1200000 7.7143 14.6742 19.7132 0.0000 -10439.7624 1395.9821 0.0000 0.0000 1703.2078 -7298.4708 293.3743 -9001.6786 -7354.0142 297.0562 -129.7204 -75.1498 30172.2863 -133.2031 -76.2527
ENERGY: 1500000 3.0738 8.3530 17.9026 0.0000 -10522.6505 1424.7743 0.0000 0.0000 1758.2438 -7310.3028 302.8542 -9068.5467 -7344.8138 297.3887 436.8169 462.2960 29531.9193 -133.9156 -75.9791
TCL: Running FEP window  20: Lambda1 0.9500000000000003 Lambda2 1.0    [dLambda 0.04999999999999971]
TCL: Setting parameter firsttimestep to 0
TCL: Setting parameter alchLambda to 0.9500000000000003
Info: NONBONDED TABLE R-SQUARED SPACING: 0.0625
Info: NONBONDED TABLE SIZE: 705 POINTS
TCL: Setting parameter alchLambda2 to 1.0
Info: NONBONDED TABLE R-SQUARED SPACING: 0.0625
Info: NONBONDED TABLE SIZE: 705 POINTS
TCL: Running for 1500000 steps
ETITLE: TS BOND ANGLE DIHED IMPRP ELECT VDW BOUNDARY MISC KINETIC TOTAL TEMP POTENTIAL TOTALAVG TEMPAVG PRESSURE GPRESSURE VOLUME PRESSAVG GPRESSAVG
ENERGY: 0 3.0738 8.3530 17.9026 0.0000 -10524.1048 1425.3908 0.0000 0.0000 1757.3679 -7312.0166 302.7033 -9069.3845 -7312.0166 302.7033 404.9239 482.4483 29531.9193 404.9239 482.4483
ENERGY: 300000 3.3021 10.7859 16.8934 0.0000 -10491.2501 1345.8372 0.0000 0.0000 1751.2608 -7363.1708 301.6514 -9114.4316 -7340.9441 300.2131 -441.6724 -425.0557 29982.9531 -61.1289 -7.9148
ENERGY: 600000 9.1201 9.2149 17.4839 0.0000 -10618.4686 1474.0581 0.0000 0.0000 1757.8090 -7350.7826 302.7793 -9108.5915 -7323.2741 303.6470 50.5485 90.1763 30525.2695 -190.8911 -133.0512
ENERGY: 900000 1.7289 9.6548 18.2051 0.0000 -10543.1185 1376.3204 0.0000 0.0000 1732.5049 -7404.7044 298.4207 -9137.2093 -7344.0646 301.6999 -481.7557 -416.0655 30002.5946 -261.9045 -197.3952
ENERGY: 1200000 2.5389 12.6707 16.8845 0.0000 -10564.0226 1434.7285 0.0000 0.0000 1729.9558 -7367.2443 297.9816 -9097.2001 -7352.1810 301.0904 207.6305 229.3945 29972.9520 -161.4147 -104.8741
ENERGY: 1500000 6.4164 13.2394 18.7007 0.0000 -10507.7357 1390.1444 0.0000 0.0000 1788.5180 -7290.7169 308.0689 -9079.2348 -7340.2444 301.5274 -502.6880 -401.9908 30651.7420 -226.9828 -169.7830
TCL: Exiting due to exit command.
