Info: SIMULATION PARAMETERS:
Info: TIMESTEP               2
Info: NUMBER OF STEPS        0
Info: STEPS PER CYCLE        10
Info: PERIODIC CELL BASIS 1  31.6914 0 0
Info: PERIODIC CELL BASIS 2  0 30.3289 0
Info: PERIODIC CELL BASIS 3  0 0 31.261
Info: PERIODIC CELL CENTER   0 0 0
Info: WRAPPING WATERS AROUND PERIODIC BOUNDARIES ON OUTPUT.
Info: WRAPPING ALL CLUSTERS AROUND PERIODIC BOUNDARIES ON OUTPUT.
Info: FIRST LDB TIMESTEP     50
Info: LAST LDB TIMESTEP     -1
Info: HOM BACKGROUND SCALING 1
Info: PME BACKGROUND SCALING 1
Info: MIN ATOMS PER PATCH    40
Info: EMPTY PATCH LOAD       40 ATOMS
Info: VELOCITY FILE          mobley_3083321_equil.vel
Info: CENTER OF MASS MOVING INITIALLY? NO
Info: DIELECTRIC             1
Info: EXCLUDE                SCALED ONE-FOUR
Info: 1-4 ELECTROSTATICS SCALED BY 0.833333
Info: MODIFIED 1-4 VDW PARAMETERS WILL BE USED
Info: DCD FILENAME           mobley_3083321_prod.dcd
Info: DCD FREQUENCY          100000
Info: DCD FIRST STEP         100000
Info: DCD FILE WILL CONTAIN UNIT CELL DATA
Info: XST FILENAME           mobley_3083321_prod.xst
Info: XST FREQUENCY          100000
Info: NO VELOCITY DCD OUTPUT
Info: NO FORCE DCD OUTPUT
Info: OUTPUT FILENAME        mobley_3083321_prod
Info: BINARY OUTPUT FILES WILL BE USED
Info: RESTART FILENAME       mobley_3083321_prod.restart
Info: RESTART FREQUENCY      100000
Info: BINARY RESTART FILES WILL BE USED
Info: CUTOFF                 9
Info: PAIRLIST DISTANCE      11
Info: PAIRLIST SHRINK RATE   0.01
Info: PAIRLIST GROW RATE     0.01
Info: PAIRLIST TRIGGER       0.3
Info: PAIRLISTS PER CYCLE    2
Info: PAIRLISTS ENABLED
Info: MARGIN                 2
Info: HYDROGEN GROUP CUTOFF  2.5
Info: PATCH DIMENSION        15.5
Info: ENERGY OUTPUT STEPS    100000
Info: ENERGY EVALUATION STEPS    100000
Info: OUTPUT ENERGY PRECISION 4
Info: CROSSTERM ENERGY INCLUDED IN DIHEDRAL
Info: TIMING OUTPUT STEPS    1000000
Info: PRESSURE OUTPUT STEPS  100000
Info: ALCHEMICAL FEP ON
Info: FEP CURRENT LAMBDA VALUE     0
Info: FEP COMPARISON LAMBDA VALUE  0.05
Info: FEP INTRA-ALCHEMICAL NON-BONDED INTERACTIONS WILL BE RETAINED
Info: FEP INTRA-ALCHEMICAL BONDED INTERACTIONS WILL BE RETAINED
Info: FEP VDW SHIFTING COEFFICIENT 5
Info: FEP ELEC. ACTIVE FOR ANNIHILATED PARTICLES BETWEEN LAMBDA = 0 AND LAMBDA = 0.5
Info: FEP ELEC. ACTIVE FOR EXNIHILATED PARTICLES BETWEEN LAMBDA = 0.5 AND LAMBDA = 1
Info: FEP VDW ACTIVE FOR ANNIHILATED PARTICLES BETWEEN LAMBDA = 0 AND LAMBDA = 1
Info: FEP VDW ACTIVE FOR EXNIHILATED PARTICLES BETWEEN LAMBDA = 0 AND LAMBDA = 1
Info: FEP BOND ACTIVE FOR ANNIHILATED PARTICLES BETWEEN LAMBDA = 1 AND LAMBDA = 1
Info: FEP BOND ACTIVE FOR EXNIHILATED PARTICLES BETWEEN LAMBDA = 0 AND LAMBDA = 0
Info: LANGEVIN DYNAMICS ACTIVE
Info: LANGEVIN TEMPERATURE   300
Info: LANGEVIN USING BBK INTEGRATOR
Info: LANGEVIN DAMPING COEFFICIENT IS 1 INVERSE PS
Info: LANGEVIN DYNAMICS APPLIED TO HYDROGENS
Info: LANGEVIN PISTON PRESSURE CONTROL ACTIVE
Info:        TARGET PRESSURE IS 1.01325 BAR
Info:     OSCILLATION PERIOD IS 50 FS
Info:             DECAY TIME IS 25 FS
Info:     PISTON TEMPERATURE IS 300 K
Info:       PRESSURE CONTROL IS GROUP-BASED
Info:    INITIAL STRAIN RATE IS 0.000165417 0.000165417 0.000165417
Info:       CELL FLUCTUATION IS ISOTROPIC
Info: PARTICLE MESH EWALD (PME) ACTIVE
Info: PME TOLERANCE               1e-06
Info: PME EWALD COEFFICIENT       0.348832
Info: PME INTERPOLATION ORDER     4
Info: PME GRID DIMENSIONS         32 32 32
Info: PME MAXIMUM GRID SPACING    1
Info: PME CALCULATION WILL BE PERFORMED ON GPU
Info: FULL ELECTROSTATIC EVALUATION FREQUENCY      2
Info: USING VERLET I (r-RESPA) MTS SCHEME.
Info: C1 SPLITTING OF LONG RANGE ELECTROSTATICS
Info: PLACING ATOMS IN PATCHES BY HYDROGEN GROUPS
Info: RIGID BONDS TO HYDROGEN : ALL
Info:         ERROR TOLERANCE : 1e-08
Info:          MAX ITERATIONS : 100
Info: RIGID WATER USING SETTLE ALGORITHM
Info: RANDOM NUMBER SEED     1743823286
Info: USE HYDROGEN BONDS?    NO
Info: Using AMBER format force field!
Info: AMBER PARM FILE        mobley_3083321.prmtop
Info: COORDINATE PDB         mobley_3083321.pdb
Info: Exclusions will be read from PARM file!
Info: SCNB (VDW SCALING)     2
Info: USING ARITHMETIC MEAN TO COMBINE L-J SIGMA PARAMETERS
Info: BINARY COORDINATES     mobley_3083321_equil.coor
Info: SUMMARY OF PARAMETERS:
Info: 5 BONDS
Info: 6 ANGLES
Info:   6 HARMONIC
Info:   0 COSINE-BASED
Info: 4 DIHEDRAL
Info: 0 IMPROPER
Info: 0 CROSSTERM
Info: 0 VDW
Info: 21 VDW_PAIRS
Info: 0 NBTHOLE_PAIRS
Info: To read alchdata from file: mobley_3083321.pdb
Info: To read alchflag data from column: 5
Info: STRUCTURE SUMMARY:
Info: 2920 ATOMS
Info: 2919 BONDS
Info: 20 ANGLES
Info: 16 DIHEDRALS
Info: 0 IMPROPERS
Info: 0 CROSSTERMS
Info: 2951 EXCLUSIONS
Info: 2915 RIGID BONDS
Info: ALCH: 0 ATOMS TO DISAPPEAR IN FINAL STATE
Info: ALCH: 13 ATOMS TO APPEAR IN FINAL STATE
Info: 5845 DEGREES OF FREEDOM
Info: 974 HYDROGEN GROUPS
Info: 4 ATOMS IN LARGEST HYDROGEN GROUP
Info: 974 MIGRATION GROUPS
Info: 4 ATOMS IN LARGEST MIGRATION GROUP
Info: TOTAL MASS = 17533.6 amu
Info: TOTAL CHARGE = 0.000200003 e
Info: MASS DENSITY = 0.96901 g/cm^3
Info: ATOM DENSITY = 0.0971808 atoms/A^3
Info: ADDED 0 IMPLICIT EXCLUSIONS
Info: NONBONDED TABLE R-SQUARED SPACING: 0.0625
Info: NONBONDED TABLE SIZE: 705 POINTS
Info: REMOVING COM VELOCITY -0.173863 0.118694 -0.109662
Info: Use 3D box decompostion in PME FFT.
Info: Updated CUDA force table with 4096 elements.
Info: Updated CUDA LJ table with 6 x 6 elements.
Info: Found 16 unique exclusion lists needing 28 bytes
TCL: Running for 1500000 steps
ETITLE: TS BOND ANGLE DIHED IMPRP ELECT VDW BOUNDARY MISC KINETIC TOTAL TEMP POTENTIAL TOTALAVG TEMPAVG PRESSURE GPRESSURE VOLUME PRESSAVG GPRESSAVG
ENERGY: 0 1.9315 6.0427 6.7156 0.0000 -10603.2567 1459.4966 0.0000 0.0000 1782.3412 -7346.7292 306.8999 -9129.0704 -7346.7292 306.8999 260.4937 352.1943 30047.0740 260.4937 352.1943
ENERGY: 300000 0.2006 8.8031 4.6082 0.0000 -10632.8296 1448.0933 0.0000 0.0000 1737.0148 -7434.1095 299.0952 -9171.1243 -7392.7708 302.4796 138.7958 259.9643 29587.5872 217.4419 286.9513
ENERGY: 600000 0.9278 3.7507 5.3568 0.0000 -10597.0009 1439.7546 0.0000 0.0000 1741.0188 -7406.1922 299.7846 -9147.2110 -7389.8761 301.4487 -47.2553 -50.1154 30069.4491 200.1318 261.1676
ENERGY: 900000 0.8768 5.1999 4.1865 0.0000 -10637.3840 1451.8407 0.0000 0.0000 1668.1346 -7507.1455 287.2347 -9175.2800 -7388.8952 301.8380 74.7431 126.6102 29832.9864 204.3159 263.8731
ENERGY: 1200000 0.3707 5.4974 5.3275 0.0000 -10538.7187 1412.7682 0.0000 0.0000 1723.3839 -7391.3710 296.7481 -9114.7549 -7389.6168 301.0189 174.2873 277.0665 29406.4188 116.7115 180.5867
ENERGY: 1500000 0.3752 6.1047 4.4756 0.0000 -10388.2860 1306.3732 0.0000 0.0000 1745.5711 -7325.3862 300.5685 -9070.9573 -7384.2833 300.4954 -930.8093 -869.3682 30761.3977 91.7727 154.7946
TCL: Running FEP window   2: Lambda1 0.05   Lambda2 0.1    [dLambda 0.05  ]
TCL: Setting parameter firsttimestep to 0
TCL: Setting parameter alchLambda to 0.05
Info: NONBONDED TABLE R-SQUARED SPACING: 0.0625
Info: NONBONDED TABLE SIZE: 705 POINTS
TCL: Setting parameter alchLambda2 to 0.1
Info: NONBONDED TABLE R-SQUARED SPACING: 0.0625
Info: NONBONDED TABLE SIZE: 705 POINTS
TCL: Running for 1500000 steps
ETITLE: TS BOND ANGLE DIHED IMPRP ELECT VDW BOUNDARY MISC KINETIC TOTAL TEMP POTENTIAL TOTALAVG TEMPAVG PRESSURE GPRESSURE VOLUME PRESSAVG GPRESSAVG
ENERGY: 0 0.3752 6.1048 4.4756 0.0000 -10388.2855 1306.0689 0.0000 0.0000 1744.7037 -7326.5574 300.4191 -9071.2611 -7326.5574 300.4191 -950.1743 -870.1647 30761.3977 -950.1743 -870.1647
ENERGY: 300000 0.7420 2.6105 3.8231 0.0000 -10490.5029 1381.3065 0.0000 0.0000 1717.5194 -7384.5014 295.7383 -9102.0208 -7370.4844 296.7662 -287.3733 -185.8033 29932.2127 -274.3672 -201.5687
ENERGY: 600000 0.2129 7.4444 7.4851 0.0000 -10563.7678 1380.3724 0.0000 0.0000 1747.8280 -7420.4250 300.9571 -9168.2530 -7379.6742 299.4482 -502.7271 -417.3878 30156.8850 -186.6829 -108.2663
ENERGY: 900000 3.7429 3.9450 4.0950 0.0000 -10545.1412 1457.4768 0.0000 0.0000 1747.1913 -7328.6903 300.8474 -9075.8815 -7381.4950 299.9879 507.7744 506.2375 29826.1012 -92.3792 -22.2541
ENERGY: 1200000 2.0854 4.9491 5.7573 0.0000 -10643.1495 1439.9652 0.0000 0.0000 1727.6753 -7462.7173 297.4870 -9190.3925 -7396.9413 300.0215 -109.5134 -110.7719 30000.3229 -55.1132 5.4664
ENERGY: 1500000 0.4552 7.9628 5.3659 0.0000 -10616.9202 1415.1849 0.0000 0.0000 1766.5890 -7421.3624 304.1875 -9187.9514 -7399.0898 300.4805 -197.5024 -156.7842 29958.1685 54.3734 116.0646
TCL: Running FEP window   3: Lambda1 0.1    Lambda2 0.15000000000000002 [dLambda 0.05000000000000002]
TCL: Setting parameter firsttimestep to 0
TCL: Setting parameter alchLambda to 0.1
Info: NONBONDED TABLE R-SQUARED SPACING: 0.0625
Info: NONBONDED TABLE SIZE: 705 POINTS
TCL: Setting parameter alchLambda2 to 0.15000000000000002
Info: NONBONDED TABLE R-SQUARED SPACING: 0.0625
Info: NONBONDED TABLE SIZE: 705 POINTS
TCL: Running for 1500000 steps
ETITLE: TS BOND ANGLE DIHED IMPRP ELECT VDW BOUNDARY MISC KINETIC TOTAL TEMP POTENTIAL TOTALAVG TEMPAVG PRESSURE GPRESSURE VOLUME PRESSAVG GPRESSAVG
ENERGY: 0 0.4552 7.9628 5.3659 0.0000 -10616.9200 1416.1120 0.0000 0.0000 1765.6776 -7421.3466 304.0306 -9187.0241 -7421.3466 304.0306 -235.1551 -150.4044 29958.1685 -235.1551 -150.4044
ENERGY: 300000 1.5333 9.8531 3.9051 0.0000 -10610.1841 1489.7792 0.0000 0.0000 1726.2758 -7378.8376 297.2460 -9105.1134 -7428.6930 302.2941 524.7541 573.4318 29946.8456 114.5929 207.4583
ENERGY: 600000 2.1012 7.0805 5.2432 0.0000 -10684.0186 1475.7954 0.0000 0.0000 1763.4806 -7430.3177 303.6523 -9193.7983 -7411.0864 304.0070 115.1324 181.2915 30106.6350 95.0452 172.2757
ENERGY: 900000 0.4080 3.3470 6.1004 0.0000 -10642.8132 1438.3401 0.0000 0.0000 1761.7514 -7432.8663 303.3545 -9194.6177 -7417.5328 303.2485 22.5430 74.0093 29877.2295 140.8912 209.4063
ENERGY: 1200000 0.4272 5.5664 4.5416 0.0000 -10580.9092 1423.9555 0.0000 0.0000 1766.8112 -7379.6073 304.2258 -9146.4185 -7420.8921 301.8390 113.9566 182.9137 29642.4848 217.8531 282.9140
ENERGY: 1500000 0.2555 5.1670 4.6069 0.0000 -10663.6117 1429.9895 0.0000 0.0000 1745.0450 -7478.5479 300.4779 -9223.5929 -7417.9317 301.9132 6.4539 85.2132 29524.0165 218.7524 281.0853
TCL: Running FEP window   4: Lambda1 0.15000000000000002 Lambda2 0.2    [dLambda 0.04999999999999999]
TCL: Setting parameter firsttimestep to 0
TCL: Setting parameter alchLambda to 0.15000000000000002
Info: NONBONDED TABLE R-SQUARED SPACING: 0.0625
Info: NONBONDED TABLE SIZE: 705 POINTS
TCL: Setting parameter alchLambda2 to 0.2
Info: NONBONDED TABLE R-SQUARED SPACING: 0.0625
Info: NONBONDED TABLE SIZE: 705 POINTS
TCL: Running for 1500000 steps
ETITLE: TS BOND ANGLE DIHED IMPRP ELECT VDW BOUNDARY MISC KINETIC TOTAL TEMP POTENTIAL TOTALAVG TEMPAVG PRESSURE GPRESSURE VOLUME PRESSAVG GPRESSAVG
ENERGY: 0 0.2555 5.1670 4.6069 0.0000 -10663.6124 1431.8914 0.0000 0.0000 1744.1892 -7477.5024 300.3305 -9221.6916 -7477.5024 300.3305 5.5479 93.7623 29524.0165 5.5479 93.7623
ENERGY: 300000 0.8060 14.6972 5.5112 0.0000 -10615.3729 1384.6953 0.0000 0.0000 1695.9143 -7513.7488 292.0181 -9209.6632 -7466.1763 296.1861 -534.0761 -516.6499 29894.2000 -67.8920 4.6931
ENERGY: 600000 0.8535 5.1865 5.2583 0.0000 -10552.8509 1326.8368 0.0000 0.0000 1759.0632 -7455.6526 302.8917 -9214.7158 -7440.9575 298.0621 -1030.6377 -971.4838 30266.0331 -228.8091 -154.8925
ENERGY: 900000 3.5171 5.3486 5.8504 0.0000 -10578.8107 1447.6968 0.0000 0.0000 1742.4927 -7373.9051 300.0384 -9116.3978 -7431.6660 298.4696 225.9642 248.9003 29880.2910 -166.5832 -101.6831
ENERGY: 1200000 0.5242 5.3627 4.8116 0.0000 -10613.4515 1449.3650 0.0000 0.0000 1786.5295 -7366.8584 307.6211 -9153.3879 -7414.9830 300.6063 282.7534 391.0289 29793.9609 -161.0378 -92.5661
ENERGY: 1500000 0.9299 5.6347 4.8215 0.0000 -10631.6813 1422.8419 0.0000 0.0000 1712.0478 -7485.4054 294.7961 -9197.4532 -7419.9721 300.3572 20.1021 129.2325 29434.4228 -166.1696 -95.1063
TCL: Running FEP window   5: Lambda1 0.2    Lambda2 0.25   [dLambda 0.04999999999999999]
TCL: Setting parameter firsttimestep to 0
TCL: Setting parameter alchLambda to 0.2
Info: NONBONDED TABLE R-SQUARED SPACING: 0.0625
Info: NONBONDED TABLE SIZE: 705 POINTS
TCL: Setting parameter alchLambda2 to 0.25
Info: NONBONDED TABLE R-SQUARED SPACING: 0.0625
Info: NONBONDED TABLE SIZE: 705 POINTS
TCL: Running for 1500000 steps
ETITLE: TS BOND ANGLE DIHED IMPRP ELECT VDW BOUNDARY MISC KINETIC TOTAL TEMP POTENTIAL TOTALAVG TEMPAVG PRESSURE GPRESSURE VOLUME PRESSAVG GPRESSAVG
ENERGY: 0 0.9299 5.6347 4.8215 0.0000 -10631.6815 1424.1546 0.0000 0.0000 1711.1716 -7484.9692 294.6452 -9196.1408 -7484.9692 294.6452 52.0739 140.3921 29434.4228 52.0739 140.3921
ENERGY: 300000 1.0143 6.2142 4.6713 0.0000 -10490.1318 1342.6745 0.0000 0.0000 1775.1207 -7360.4368 305.6566 -9135.5575 -7438.9071 301.7734 -780.0149 -721.1787 30257.9823 -355.1008 -304.0262
ENERGY: 600000 2.2805 7.8573 5.2378 0.0000 -10482.4092 1410.3271 0.0000 0.0000 1764.1777 -7292.5288 303.7723 -9056.7065 -7399.3980 303.4568 -1.3746 56.9809 30427.4540 -273.4972 -219.7053
ENERGY: 900000 0.6098 4.7838 4.5127 0.0000 -10611.1694 1439.4285 0.0000 0.0000 1808.5802 -7353.2544 311.4180 -9161.8347 -7405.4945 303.1471 42.3964 128.4643 30025.1939 -204.5294 -140.3371
ENERGY: 1200000 0.7482 1.5681 8.2196 0.0000 -10535.2634 1407.8142 0.0000 0.0000 1726.1963 -7390.7171 297.2323 -9116.9134 -7401.5381 301.8382 -28.2209 -15.0787 29859.4288 -105.4576 -48.4851
ENERGY: 1500000 1.6714 6.2670 5.4272 0.0000 -10559.1982 1392.4220 0.0000 0.0000 1698.3399 -7455.0707 292.4358 -9153.4106 -7403.5878 301.0856 -411.4895 -368.2813 30283.4014 -121.5591 -63.5951
TCL: Running FEP window   6: Lambda1 0.25   Lambda2 0.3    [dLambda 0.04999999999999999]
TCL: Setting parameter firsttimestep to 0
TCL: Setting parameter alchLambda to 0.25
Info: NONBONDED TABLE R-SQUARED SPACING: 0.0625
Info: NONBONDED TABLE SIZE: 705 POINTS
TCL: Setting parameter alchLambda2 to 0.3
Info: NONBONDED TABLE R-SQUARED SPACING: 0.0625
Info: NONBONDED TABLE SIZE: 705 POINTS
TCL: Running for 1500000 steps
ETITLE: TS BOND ANGLE DIHED IMPRP ELECT VDW BOUNDARY MISC KINETIC TOTAL TEMP POTENTIAL TOTALAVG TEMPAVG PRESSURE GPRESSURE VOLUME PRESSAVG GPRESSAVG
ENERGY: 0 1.6714 6.2670 5.4272 0.0000 -10559.1981 1392.0645 0.0000 0.0000 1697.4785 -7456.2895 292.2874 -9153.7679 -7456.2895 292.2874 -452.5954 -367.5983 30283.4014 -452.5954 -367.5983
ENERGY: 300000 2.5592 6.9290 5.0680 0.0000 -10665.1006 1465.5885 0.0000 0.0000 1783.4131 -7401.5429 307.0844 -9184.9560 -7394.6215 304.2212 370.5675 420.4977 29940.9502 -225.0194 -156.4624
ENERGY: 600000 1.5403 7.0136 5.3470 0.0000 -10763.2317 1489.9084 0.0000 0.0000 1736.1852 -7523.2373 298.9523 -9259.4225 -7414.4019 303.1516 -10.5130 41.5192 29791.1066 -69.7020 7.4870
ENERGY: 900000 0.9072 7.8137 4.2479 0.0000 -10560.3184 1420.5048 0.0000 0.0000 1751.5326 -7375.3122 301.5950 -9126.8447 -7411.1860 301.4503 206.4500 265.5670 29517.9213 -8.0880 56.5977
ENERGY: 1200000 1.6914 5.3469 5.0113 0.0000 -10473.9539 1316.4670 0.0000 0.0000 1748.2713 -7397.1660 301.0334 -9145.4373 -7415.0699 301.2190 -1022.3784 -963.8513 30141.4320 -76.4486 -14.6798
ENERGY: 1500000 0.7998 7.6573 4.4609 0.0000 -10694.1368 1529.6592 0.0000 0.0000 1764.6735 -7386.8861 303.8577 -9151.5596 -7414.3872 301.0990 690.4618 780.2071 30097.1720 -49.7989 16.3758
TCL: Running FEP window   7: Lambda1 0.3    Lambda2 0.35   [dLambda 0.04999999999999999]
TCL: Setting parameter firsttimestep to 0
TCL: Setting parameter alchLambda to 0.3
Info: NONBONDED TABLE R-SQUARED SPACING: 0.0625
Info: NONBONDED TABLE SIZE: 705 POINTS
TCL: Setting parameter alchLambda2 to 0.35
Info: NONBONDED TABLE R-SQUARED SPACING: 0.0625
Info: NONBONDED TABLE SIZE: 705 POINTS
TCL: Running for 1500000 steps
ETITLE: TS BOND ANGLE DIHED IMPRP ELECT VDW BOUNDARY MISC KINETIC TOTAL TEMP POTENTIAL TOTALAVG TEMPAVG PRESSURE GPRESSURE VOLUME PRESSAVG GPRESSAVG
ENERGY: 0 0.7998 7.6573 4.4609 0.0000 -10694.1358 1530.2515 0.0000 0.0000 1763.7985 -7387.1678 303.7070 -9150.9663 -7387.1678 303.7070 685.9243 787.8772 30097.1720 685.9243 787.8772
ENERGY: 300000 0.7441 6.1193 7.2435 0.0000 -10562.9817 1430.8135 0.0000 0.0000 1707.8413 -7410.2201 294.0718 -9118.0614 -7420.3402 294.2697 78.9259 168.9822 30019.9128 37.4758 129.9795
ENERGY: 600000 0.9372 8.1282 4.6292 0.0000 -10593.3682 1419.4345 0.0000 0.0000 1727.9151 -7432.3241 297.5283 -9160.2392 -7409.8247 297.3508 -480.2498 -368.4172 30269.7445 -76.2781 10.2871
ENERGY: 900000 1.7588 3.2920 3.7478 0.0000 -10607.8859 1446.4793 0.0000 0.0000 1690.6397 -7461.9682 291.1099 -9152.6080 -7425.9979 296.8745 195.4099 285.0664 29758.7086 19.9392 105.3432
ENERGY: 1200000 0.5367 3.3683 4.6011 0.0000 -10719.0097 1471.4784 0.0000 0.0000 1760.4375 -7478.5877 303.1283 -9239.0252 -7426.5773 298.3651 -64.9030 57.5435 29958.1841 20.1818 108.4487
ENERGY: 1500000 2.4388 7.1761 6.5506 0.0000 -10656.9449 1469.0636 0.0000 0.0000 1739.0425 -7432.6733 299.4443 -9171.7158 -7422.3226 298.8611 271.7801 337.9943 29710.0976 10.2647 93.8867
TCL: Running FEP window   8: Lambda1 0.35   Lambda2 0.39999999999999997 [dLambda 0.04999999999999999]
TCL: Setting parameter firsttimestep to 0
TCL: Setting parameter alchLambda to 0.35
Info: NONBONDED TABLE R-SQUARED SPACING: 0.0625
Info: NONBONDED TABLE SIZE: 705 POINTS
TCL: Setting parameter alchLambda2 to 0.39999999999999997
Info: NONBONDED TABLE R-SQUARED SPACING: 0.0625
Info: NONBONDED TABLE SIZE: 705 POINTS
TCL: Running for 1500000 steps
ETITLE: TS BOND ANGLE DIHED IMPRP ELECT VDW BOUNDARY MISC KINETIC TOTAL TEMP POTENTIAL TOTALAVG TEMPAVG PRESSURE GPRESSURE VOLUME PRESSAVG GPRESSAVG
ENERGY: 0 2.4388 7.1761 6.5506 0.0000 -10656.9454 1468.9406 0.0000 0.0000 1738.1813 -7433.6580 299.2960 -9171.8393 -7433.6580 299.2960 266.7012 341.5291 29710.0976 266.7012 341.5291
ENERGY: 300000 1.0526 4.4257 4.6485 0.0000 -10470.4700 1344.2727 0.0000 0.0000 1778.4951 -7337.5755 306.2376 -9116.0705 -7383.0422 303.7278 -607.7448 -540.3618 30164.0455 25.1395 81.6742
ENERGY: 600000 2.4093 6.2739 8.8643 0.0000 -10642.8939 1414.1076 0.0000 0.0000 1772.9387 -7438.3002 305.2809 -9211.2389 -7373.5522 304.8947 -482.7787 -386.7883 30333.6219 -77.2038 -18.3136
ENERGY: 900000 0.3368 3.7677 4.4400 0.0000 -10694.9686 1497.2620 0.0000 0.0000 1717.2026 -7471.9595 295.6837 -9189.1621 -7385.1602 303.2527 290.2722 384.7727 30127.9923 -15.7644 45.1403
ENERGY: 1200000 3.4149 6.1308 4.6621 0.0000 -10596.2454 1419.4933 0.0000 0.0000 1750.6542 -7411.8901 301.4437 -9162.5443 -7398.4722 302.7295 -109.9998 -11.2015 30057.0695 57.4322 121.2553
ENERGY: 1500000 1.0161 5.5434 4.4364 0.0000 -10627.8007 1405.0723 0.0000 0.0000 1722.4408 -7489.2915 296.5857 -9211.7323 -7414.9238 301.6729 -362.6117 -316.3976 29904.3763 95.2965 161.9931
TCL: Running FEP window   9: Lambda1 0.39999999999999997 Lambda2 0.44999999999999996 [dLambda 0.04999999999999999]
TCL: Setting parameter firsttimestep to 0
TCL: Setting parameter alchLambda to 0.39999999999999997
Info: NONBONDED TABLE R-SQUARED SPACING: 0.0625
Info: NONBONDED TABLE SIZE: 705 POINTS
TCL: Setting parameter alchLambda2 to 0.44999999999999996
Info: NONBONDED TABLE R-SQUARED SPACING: 0.0625
Info: NONBONDED TABLE SIZE: 705 POINTS
TCL: Running for 1500000 steps
ETITLE: TS BOND ANGLE DIHED IMPRP ELECT VDW BOUNDARY MISC KINETIC TOTAL TEMP POTENTIAL TOTALAVG TEMPAVG PRESSURE GPRESSURE VOLUME PRESSAVG GPRESSAVG
ENERGY: 0 1.0161 5.5434 4.4364 0.0000 -10627.7994 1406.2338 0.0000 0.0000 1721.5898 -7488.9799 296.4391 -9210.5697 -7488.9799 296.4391 -386.5011 -302.2788 29904.3763 -386.5011 -302.2788
ENERGY: 300000 1.4584 4.3954 4.7149 0.0000 -10429.5600 1327.2074 0.0000 0.0000 1723.6995 -7368.0845 296.8024 -9091.7839 -7437.1018 297.8239 -508.8468 -436.7704 30179.1801 -156.5954 -80.1978
ENERGY: 600000 1.8240 6.0149 4.8550 0.0000 -10563.8844 1396.0057 0.0000 0.0000 1741.1327 -7414.0521 299.8042 -9155.1847 -7436.0246 297.7551 -265.4419 -224.6851 30130.9670 -167.7690 -110.9738
ENERGY: 900000 1.2839 7.6537 6.8488 0.0000 -10667.9731 1424.6826 0.0000 0.0000 1747.8865 -7479.6176 300.9672 -9227.5041 -7434.0242 299.0489 -478.5258 -410.2274 30359.7227 -64.5172 -7.0433
ENERGY: 1200000 2.5808 2.4416 4.3859 0.0000 -10497.5926 1344.5218 0.0000 0.0000 1761.9716 -7381.6910 303.3924 -9143.6625 -7411.8483 300.8779 -936.8750 -841.9518 30321.6617 -166.7606 -100.6757
ENERGY: 1500000 1.3187 6.5439 4.5360 0.0000 -10667.9629 1459.6384 0.0000 0.0000 1762.7463 -7433.1795 303.5258 -9195.9258 -7422.2438 300.0182 233.2216 311.3835 29635.6384 -130.7407 -62.9957
TCL: Running FEP window  10: Lambda1 0.44999999999999996 Lambda2 0.49999999999999994 [dLambda 0.04999999999999999]
TCL: Setting parameter firsttimestep to 0
TCL: Setting parameter alchLambda to 0.44999999999999996
Info: NONBONDED TABLE R-SQUARED SPACING: 0.0625
Info: NONBONDED TABLE SIZE: 705 POINTS
TCL: Setting parameter alchLambda2 to 0.49999999999999994
Info: NONBONDED TABLE R-SQUARED SPACING: 0.0625
Info: NONBONDED TABLE SIZE: 705 POINTS
TCL: Running for 1500000 steps
ETITLE: TS BOND ANGLE DIHED IMPRP ELECT VDW BOUNDARY MISC KINETIC TOTAL TEMP POTENTIAL TOTALAVG TEMPAVG PRESSURE GPRESSURE VOLUME PRESSAVG GPRESSAVG
ENERGY: 0 1.3187 6.5439 4.5360 0.0000 -10667.9622 1459.7448 0.0000 0.0000 1761.8679 -7433.9507 303.3746 -9195.8187 -7433.9507 303.3746 240.5695 317.9885 29635.6384 240.5695 317.9885
ENERGY: 300000 0.8549 4.9610 5.2716 0.0000 -10590.4013 1405.5287 0.0000 0.0000 1694.6385 -7479.1465 291.7984 -9173.7851 -7406.6717 304.8468 -303.7220 -256.3410 29977.7690 -18.9164 59.2688
ENERGY: 600000 2.5640 3.3170 4.9903 0.0000 -10636.9904 1456.9127 0.0000 0.0000 1677.5760 -7491.6305 288.8604 -9169.2064 -7431.3189 300.0101 -12.7603 61.5422 30294.1272 13.6152 84.7979
ENERGY: 900000 0.2201 10.4738 4.8606 0.0000 -10787.2899 1580.5734 0.0000 0.0000 1739.9503 -7451.2117 299.6006 -9191.1620 -7408.2316 300.8345 1314.3463 1273.7964 29767.9417 190.1546 255.5987
ENERGY: 1200000 0.5212 5.2596 5.9106 0.0000 -10647.8721 1495.5146 0.0000 0.0000 1746.3179 -7394.3483 300.6970 -9140.6662 -7403.3673 301.1665 360.8683 420.2925 30329.1994 176.8527 246.1055
ENERGY: 1500000 0.2331 8.1079 5.8860 0.0000 -10464.5359 1362.4635 0.0000 0.0000 1716.6102 -7371.2351 295.5817 -9087.8454 -7409.4082 299.7808 -474.3417 -435.3730 30452.4624 23.1873 89.7627
TCL: Running FEP window  11: Lambda1 0.49999999999999994 Lambda2 0.5499999999999999 [dLambda 0.04999999999999999]
TCL: Setting parameter firsttimestep to 0
TCL: Setting parameter alchLambda to 0.49999999999999994
Info: NONBONDED TABLE R-SQUARED SPACING: 0.0625
Info: NONBONDED TABLE SIZE: 705 POINTS
TCL: Setting parameter alchLambda2 to 0.5499999999999999
Info: NONBONDED TABLE R-SQUARED SPACING: 0.0625
Info: NONBONDED TABLE SIZE: 705 POINTS
TCL: Running for 1500000 steps
ETITLE: TS BOND ANGLE DIHED IMPRP ELECT VDW BOUNDARY MISC KINETIC TOTAL TEMP POTENTIAL TOTALAVG TEMPAVG PRESSURE GPRESSURE VOLUME PRESSAVG GPRESSAVG
ENERGY: 0 0.2331 8.1079 5.8860 0.0000 -10464.5361 1362.2137 0.0000 0.0000 1715.7416 -7372.3538 295.4321 -9088.0953 -7372.3538 295.4321 -513.4738 -432.6524 30452.4624 -513.4738 -432.6524
ENERGY: 300000 1.6121 4.6553 4.1014 0.0000 -10707.8458 1559.7514 0.0000 0.0000 1698.0328 -7439.6928 292.3829 -9137.7256 -7408.6711 298.2799 1008.4624 1119.4845 29841.6349 381.9981 473.3128
ENERGY: 600000 0.8487 4.8875 4.8406 0.0000 -10642.5199 1430.9544 0.0000 0.0000 1757.0360 -7443.9526 302.5426 -9200.9886 -7422.6040 300.0219 14.4430 90.8611 29525.2309 10.1678 88.1844
ENERGY: 900000 1.4162 5.9885 4.8721 0.0000 -10564.8878 1435.4237 0.0000 0.0000 1746.4731 -7370.7142 300.7238 -9117.1873 -7430.6795 299.8058 191.3601 252.9489 29971.5603 3.5973 76.8086
ENERGY: 1200000 0.3256 6.6182 4.8241 0.0000 -10693.6477 1482.8506 0.0000 0.0000 1743.7993 -7455.2297 300.2634 -9199.0291 -7428.8739 301.1399 321.2144 401.6626 29875.2353 61.6516 130.4837
ENERGY: 1500000 0.3032 3.9998 4.7579 0.0000 -10490.5403 1381.7698 0.0000 0.0000 1764.1513 -7335.5583 303.7678 -9099.7096 -7424.4611 300.0986 -223.6938 -127.2666 30156.3016 40.0177 103.0289
TCL: Running FEP window  12: Lambda1 0.5499999999999999 Lambda2 0.6    [dLambda 0.050000000000000044]
TCL: Setting parameter firsttimestep to 0
TCL: Setting parameter alchLambda to 0.5499999999999999
Info: NONBONDED TABLE R-SQUARED SPACING: 0.0625
Info: NONBONDED TABLE SIZE: 705 POINTS
TCL: Setting parameter alchLambda2 to 0.6
Info: NONBONDED TABLE R-SQUARED SPACING: 0.0625
Info: NONBONDED TABLE SIZE: 705 POINTS
TCL: Running for 1500000 steps
ETITLE: TS BOND ANGLE DIHED IMPRP ELECT VDW BOUNDARY MISC KINETIC TOTAL TEMP POTENTIAL TOTALAVG TEMPAVG PRESSURE GPRESSURE VOLUME PRESSAVG GPRESSAVG
ENERGY: 0 0.3032 3.9998 4.7579 0.0000 -10490.2737 1381.9592 0.0000 0.0000 1763.2959 -7335.9578 303.6205 -9099.2538 -7335.9578 303.6205 -189.5801 -118.0915 30156.3016 -189.5801 -118.0915
ENERGY: 300000 1.8437 4.2668 4.9503 0.0000 -10585.0139 1448.2643 0.0000 0.0000 1764.8233 -7360.8656 303.8835 -9125.6889 -7352.9919 303.6456 -170.5112 -149.2397 30776.1818 3.1495 33.6065
ENERGY: 600000 0.8218 5.4653 5.8472 0.0000 -10682.5412 1413.7374 0.0000 0.0000 1753.4359 -7503.2337 301.9227 -9256.6696 -7400.0072 301.0965 -358.3292 -317.2521 29893.5789 -132.2682 -97.0257
ENERGY: 900000 2.5583 4.7771 4.7945 0.0000 -10391.3946 1321.1332 0.0000 0.0000 1693.0561 -7365.0754 291.5260 -9058.1315 -7389.0546 300.7997 -716.2822 -648.1493 30375.3058 -78.9213 -27.7710
ENERGY: 1200000 0.9653 2.2095 5.4290 0.0000 -10506.9041 1346.1125 0.0000 0.0000 1720.6729 -7431.5149 296.2813 -9152.1878 -7387.1531 300.4654 -736.3607 -677.8349 30273.6964 -223.2357 -170.3497
ENERGY: 1500000 0.7726 8.4305 5.4759 0.0000 -10650.3858 1421.4273 0.0000 0.0000 1727.2670 -7487.0126 297.4167 -9214.2796 -7399.0976 300.2067 -224.1683 -163.8723 30062.0964 -214.8224 -160.9586
TCL: Running FEP window  13: Lambda1 0.6    Lambda2 0.65   [dLambda 0.050000000000000044]
TCL: Setting parameter firsttimestep to 0
TCL: Setting parameter alchLambda to 0.6
Info: NONBONDED TABLE R-SQUARED SPACING: 0.0625
Info: NONBONDED TABLE SIZE: 705 POINTS
TCL: Setting parameter alchLambda2 to 0.65
Info: NONBONDED TABLE R-SQUARED SPACING: 0.0625
Info: NONBONDED TABLE SIZE: 705 POINTS
TCL: Running for 1500000 steps
ETITLE: TS BOND ANGLE DIHED IMPRP ELECT VDW BOUNDARY MISC KINETIC TOTAL TEMP POTENTIAL TOTALAVG TEMPAVG PRESSURE GPRESSURE VOLUME PRESSAVG GPRESSAVG
ENERGY: 0 0.7726 8.4305 5.4759 0.0000 -10651.1523 1421.8171 0.0000 0.0000 1726.3993 -7488.2569 297.2673 -9214.6563 -7488.2569 297.2673 -236.2315 -156.4687 30062.0964 -236.2315 -156.4687
ENERGY: 300000 0.7218 4.9409 3.9787 0.0000 -10762.4895 1510.2952 0.0000 0.0000 1740.9252 -7501.6277 299.7685 -9242.5529 -7487.0626 296.8023 458.6607 470.1751 29715.9325 42.2360 89.9973
ENERGY: 600000 1.5268 5.0430 5.9326 0.0000 -10646.9527 1474.6929 0.0000 0.0000 1754.5317 -7405.2258 302.1114 -9159.7575 -7436.5043 299.1843 385.4934 478.5894 29718.4359 59.0833 110.5245
ENERGY: 900000 0.3701 4.5934 5.9949 0.0000 -10762.0219 1510.6594 0.0000 0.0000 1633.8995 -7606.5048 281.3398 -9240.4043 -7434.3623 298.0388 234.4929 353.0426 30062.9795 -17.6939 43.3285
ENERGY: 1200000 1.0578 12.5849 5.3386 0.0000 -10629.1902 1485.2707 0.0000 0.0000 1727.9266 -7397.0116 297.5303 -9124.9382 -7427.7050 298.7986 467.7539 485.1580 30206.8725 56.8292 117.4355
ENERGY: 1500000 1.7337 8.1082 4.5171 0.0000 -10486.3805 1410.3846 0.0000 0.0000 1715.2416 -7346.3953 295.3461 -9061.6369 -7414.9462 298.1320 64.7767 135.7375 30321.9447 89.4497 151.4322
TCL: Running FEP window  14: Lambda1 0.65   Lambda2 0.7000000000000001 [dLambda 0.050000000000000044]
TCL: Setting parameter firsttimestep to 0
TCL: Setting parameter alchLambda to 0.65
Info: NONBONDED TABLE R-SQUARED SPACING: 0.0625
Info: NONBONDED TABLE SIZE: 705 POINTS
TCL: Setting parameter alchLambda2 to 0.7000000000000001
Info: NONBONDED TABLE R-SQUARED SPACING: 0.0625
Info: NONBONDED TABLE SIZE: 705 POINTS
TCL: Running for 1500000 steps
ETITLE: TS BOND ANGLE DIHED IMPRP ELECT VDW BOUNDARY MISC KINETIC TOTAL TEMP POTENTIAL TOTALAVG TEMPAVG PRESSURE GPRESSURE VOLUME PRESSAVG GPRESSAVG
ENERGY: 0 1.7337 8.1082 4.5171 0.0000 -10486.3705 1410.4043 0.0000 0.0000 1714.3975 -7347.2098 295.2007 -9061.6073 -7347.2098 295.2007 70.3289 144.3359 30321.9447 70.3289 144.3359
ENERGY: 300000 0.6281 7.4572 4.1390 0.0000 -10610.7481 1403.1233 0.0000 0.0000 1717.8924 -7477.5082 295.8025 -9195.4006 -7401.5151 298.1701 -69.3657 -62.6354 29583.2152 -139.9813 -89.7474
ENERGY: 600000 1.0853 6.2626 4.5651 0.0000 -10546.1435 1347.4181 0.0000 0.0000 1715.7182 -7471.0941 295.4281 -9186.8123 -7382.9068 301.5261 -787.8540 -798.0955 30132.6845 -320.3318 -278.2444
ENERGY: 900000 2.2526 4.2858 4.5043 0.0000 -10539.3507 1401.0310 0.0000 0.0000 1695.9614 -7431.3156 292.0262 -9127.2770 -7405.6637 298.3472 -238.7632 -185.4504 29928.4918 -190.7623 -136.5869
ENERGY: 1200000 0.5232 3.7163 3.5996 0.0000 -10648.4155 1472.0355 0.0000 0.0000 1748.8956 -7419.6453 301.1409 -9168.5409 -7408.1800 298.3817 435.2744 424.7244 29795.9957 -123.6005 -75.1667
ENERGY: 1500000 1.9238 6.7651 5.3685 0.0000 -10478.6334 1349.0601 0.0000 0.0000 1767.1226 -7348.3934 304.2794 -9115.5160 -7404.6412 298.7151 -692.2315 -623.5512 30371.5704 -76.4387 -26.2171
TCL: Running FEP window  15: Lambda1 0.7000000000000001 Lambda2 0.7500000000000001 [dLambda 0.050000000000000044]
TCL: Setting parameter firsttimestep to 0
TCL: Setting parameter alchLambda to 0.7000000000000001
Info: NONBONDED TABLE R-SQUARED SPACING: 0.0625
Info: NONBONDED TABLE SIZE: 705 POINTS
TCL: Setting parameter alchLambda2 to 0.7500000000000001
Info: NONBONDED TABLE R-SQUARED SPACING: 0.0625
Info: NONBONDED TABLE SIZE: 705 POINTS
TCL: Running for 1500000 steps
ETITLE: TS BOND ANGLE DIHED IMPRP ELECT VDW BOUNDARY MISC KINETIC TOTAL TEMP POTENTIAL TOTALAVG TEMPAVG PRESSURE GPRESSURE VOLUME PRESSAVG GPRESSAVG
ENERGY: 0 1.9238 6.7651 5.3685 0.0000 -10479.4356 1349.0233 0.0000 0.0000 1766.2161 -7350.1389 304.1233 -9116.3549 -7350.1389 304.1233 -705.4068 -618.1537 30371.5704 -705.4068 -618.1537
ENERGY: 300000 2.2842 4.6749 7.3019 0.0000 -10434.4578 1339.3172 0.0000 0.0000 1787.5794 -7293.3002 307.8018 -9080.8796 -7389.3342 302.1688 -599.9297 -539.7639 30390.5811 -604.8282 -532.9861
ENERGY: 600000 1.9584 4.2546 4.3394 0.0000 -10534.3155 1377.1455 0.0000 0.0000 1700.3315 -7446.2862 292.7787 -9146.6177 -7404.7717 300.2056 -209.8763 -177.3237 29880.3320 -460.9881 -401.6551
ENERGY: 900000 0.3314 7.2987 3.9656 0.0000 -10545.4378 1345.9075 0.0000 0.0000 1788.3316 -7399.6029 307.9314 -9187.9345 -7393.9702 302.1909 -732.2170 -653.8485 29962.9651 -506.2086 -443.1980
ENERGY: 1200000 1.8297 5.8262 4.7571 0.0000 -10505.4636 1369.7981 0.0000 0.0000 1791.0836 -7332.1690 308.4052 -9123.2525 -7393.7624 302.9864 -558.1815 -521.2264 30534.9482 -467.5688 -405.3045
ENERGY: 1500000 1.6969 3.9452 5.2525 0.0000 -10632.3596 1445.2447 0.0000 0.0000 1742.3046 -7433.9157 300.0060 -9176.2203 -7389.6350 303.0647 30.0956 87.9266 29989.2490 -333.7627 -270.2439
TCL: Running FEP window  16: Lambda1 0.7500000000000001 Lambda2 0.8000000000000002 [dLambda 0.050000000000000044]
TCL: Setting parameter firsttimestep to 0
TCL: Setting parameter alchLambda to 0.7500000000000001
Info: NONBONDED TABLE R-SQUARED SPACING: 0.0625
Info: NONBONDED TABLE SIZE: 705 POINTS
TCL: Setting parameter alchLambda2 to 0.8000000000000002
Info: NONBONDED TABLE R-SQUARED SPACING: 0.0625
Info: NONBONDED TABLE SIZE: 705 POINTS
TCL: Running for 1500000 steps
ETITLE: TS BOND ANGLE DIHED IMPRP ELECT VDW BOUNDARY MISC KINETIC TOTAL TEMP POTENTIAL TOTALAVG TEMPAVG PRESSURE GPRESSURE VOLUME PRESSAVG GPRESSAVG
ENERGY: 0 1.6968 3.9452 5.2525 0.0000 -10632.8071 1445.2377 0.0000 0.0000 1741.4446 -7435.2303 299.8579 -9176.6748 -7435.2303 299.8579 5.4541 94.7426 29989.2490 5.4541 94.7426
ENERGY: 300000 0.6340 4.1419 4.8015 0.0000 -10660.8231 1489.9012 0.0000 0.0000 1705.3345 -7456.0100 293.6402 -9161.3445 -7415.7475 299.8613 356.4275 453.4857 30036.4481 -3.6236 52.0319
ENERGY: 600000 2.1061 7.1425 5.0023 0.0000 -10425.8139 1377.2343 0.0000 0.0000 1765.8041 -7268.5247 304.0524 -9034.3288 -7411.1372 299.3926 -10.6408 24.7393 30111.1987 -52.4724 -7.4490
ENERGY: 900000 2.8464 8.7337 3.7856 0.0000 -10529.0006 1345.4375 0.0000 0.0000 1762.0861 -7406.1112 303.4122 -9168.1973 -7395.4569 301.2117 -578.4455 -432.4016 29679.6055 -131.2138 -82.4146
ENERGY: 1200000 0.5214 11.2552 6.7017 0.0000 -10543.3866 1449.4672 0.0000 0.0000 1753.6664 -7321.7747 301.9624 -9075.4411 -7397.2404 300.1482 464.9816 532.7466 30052.2282 -38.2117 12.3477
ENERGY: 1500000 2.0771 8.4501 4.4295 0.0000 -10572.3492 1390.8973 0.0000 0.0000 1741.5637 -7424.9314 299.8784 -9166.4952 -7401.4748 299.6764 -293.4142 -214.5567 29947.7111 -87.9757 -38.2764
TCL: Running FEP window  17: Lambda1 0.8000000000000002 Lambda2 0.8500000000000002 [dLambda 0.050000000000000044]
TCL: Setting parameter firsttimestep to 0
TCL: Setting parameter alchLambda to 0.8000000000000002
Info: NONBONDED TABLE R-SQUARED SPACING: 0.0625
Info: NONBONDED TABLE SIZE: 705 POINTS
TCL: Setting parameter alchLambda2 to 0.8500000000000002
Info: NONBONDED TABLE R-SQUARED SPACING: 0.0625
Info: NONBONDED TABLE SIZE: 705 POINTS
TCL: Running for 1500000 steps
ETITLE: TS BOND ANGLE DIHED IMPRP ELECT VDW BOUNDARY MISC KINETIC TOTAL TEMP POTENTIAL TOTALAVG TEMPAVG PRESSURE GPRESSURE VOLUME PRESSAVG GPRESSAVG
ENERGY: 0 2.0771 8.4501 4.4295 0.0000 -10573.5875 1391.0646 0.0000 0.0000 1740.6889 -7426.8773 299.7278 -9167.5663 -7426.8773 299.7278 -283.4715 -208.1676 29947.7111 -283.4715 -208.1676
ENERGY: 300000 1.3400 5.1878 6.5644 0.0000 -10530.0107 1400.6191 0.0000 0.0000 1754.0989 -7362.2004 302.0369 -9116.2994 -7431.7726 297.2440 -95.1188 5.6348 29908.2637 -86.6070 -0.9299
ENERGY: 600000 0.3785 3.6895 4.5632 0.0000 -10579.3420 1408.4960 0.0000 0.0000 1744.3825 -7417.8323 300.3638 -9162.2148 -7403.1095 298.6111 79.4046 104.8395 29728.3543 -179.4073 -117.1307
ENERGY: 900000 0.4126 3.1540 5.1105 0.0000 -10554.2455 1375.5548 0.0000 0.0000 1767.3202 -7402.6934 304.3134 -9170.0136 -7403.5726 299.0955 -498.2138 -397.1820 30008.5797 -205.9463 -135.3749
ENERGY: 1200000 1.8885 3.6002 4.7367 0.0000 -10546.9537 1407.7262 0.0000 0.0000 1710.5620 -7418.4401 294.5403 -9129.0021 -7406.7162 298.6292 -245.9863 -167.1412 30558.6174 -227.6450 -156.8151
ENERGY: 1500000 0.5797 5.3083 7.0305 0.0000 -10609.3566 1492.3833 0.0000 0.0000 1782.9321 -7321.1227 307.0016 -9104.0547 -7395.3062 299.8384 415.2352 538.8594 30485.6018 -39.2377 29.8178
TCL: Running FEP window  18: Lambda1 0.8500000000000002 Lambda2 0.9000000000000002 [dLambda 0.050000000000000044]
TCL: Setting parameter firsttimestep to 0
TCL: Setting parameter alchLambda to 0.8500000000000002
Info: NONBONDED TABLE R-SQUARED SPACING: 0.0625
Info: NONBONDED TABLE SIZE: 705 POINTS
TCL: Setting parameter alchLambda2 to 0.9000000000000002
Info: NONBONDED TABLE R-SQUARED SPACING: 0.0625
Info: NONBONDED TABLE SIZE: 705 POINTS
TCL: Running for 1500000 steps
ETITLE: TS BOND ANGLE DIHED IMPRP ELECT VDW BOUNDARY MISC KINETIC TOTAL TEMP POTENTIAL TOTALAVG TEMPAVG PRESSURE GPRESSURE VOLUME PRESSAVG GPRESSAVG
ENERGY: 0 0.5797 5.3083 7.0305 0.0000 -10610.8913 1493.6723 0.0000 0.0000 1782.0422 -7322.2582 306.8484 -9104.3005 -7322.2582 306.8484 483.4685 560.6406 30485.6018 483.4685 560.6406
ENERGY: 300000 0.9196 4.6973 5.1626 0.0000 -10557.9441 1447.7344 0.0000 0.0000 1765.4570 -7333.9731 303.9926 -9099.4301 -7362.5923 305.0922 169.2909 251.1924 30427.5652 -9.9406 97.5580
ENERGY: 600000 0.6811 2.8658 5.8158 0.0000 -10525.1584 1390.0037 0.0000 0.0000 1743.5709 -7382.2212 300.2240 -9125.7921 -7387.3176 303.7280 -122.4132 -52.0302 29901.0358 -92.4208 -0.1599
ENERGY: 900000 0.6220 7.6057 4.4751 0.0000 -10548.7204 1402.8022 0.0000 0.0000 1725.2166 -7407.9988 297.0636 -9133.2154 -7382.7223 302.5428 -125.1748 -146.0625 30097.2837 -198.3152 -124.4330
ENERGY: 1200000 0.9871 7.6261 4.1920 0.0000 -10673.6123 1470.5600 0.0000 0.0000 1699.5387 -7490.7083 292.6422 -9190.2470 -7387.4959 301.8458 239.7419 311.9201 30093.3129 -219.2821 -145.9638
ENERGY: 1500000 1.3604 8.6453 4.1510 0.0000 -10748.5168 1531.1907 0.0000 0.0000 1758.7828 -7444.3865 302.8434 -9203.1693 -7400.9551 300.9303 532.7110 598.8000 30218.9322 -162.2532 -89.8594
TCL: Running FEP window  19: Lambda1 0.9000000000000002 Lambda2 0.9500000000000003 [dLambda 0.050000000000000044]
TCL: Setting parameter firsttimestep to 0
TCL: Setting parameter alchLambda to 0.9000000000000002
Info: NONBONDED TABLE R-SQUARED SPACING: 0.0625
Info: NONBONDED TABLE SIZE: 705 POINTS
TCL: Setting parameter alchLambda2 to 0.9500000000000003
Info: NONBONDED TABLE R-SQUARED SPACING: 0.0625
Info: NONBONDED TABLE SIZE: 705 POINTS
TCL: Running for 1500000 steps
ETITLE: TS BOND ANGLE DIHED IMPRP ELECT VDW BOUNDARY MISC KINETIC TOTAL TEMP POTENTIAL TOTALAVG TEMPAVG PRESSURE GPRESSURE VOLUME PRESSAVG GPRESSAVG
ENERGY: 0 1.3604 8.6453 4.1510 0.0000 -10749.3443 1531.2861 0.0000 0.0000 1757.9139 -7445.9876 302.6938 -9203.9015 -7445.9876 302.6938 527.9232 608.7304 30218.9322 527.9232 608.7304
ENERGY: 300000 0.4681 6.4192 5.4517 0.0000 -10473.7103 1352.4455 0.0000 0.0000 1727.4255 -7381.5003 297.4440 -9108.9258 -7374.7841 301.5330 -284.7219 -203.2096 29571.8940 278.5033 332.7055
ENERGY: 600000 0.5695 2.4340 5.9736 0.0000 -10559.1440 1422.6039 0.0000 0.0000 1774.5480 -7353.0150 305.5580 -9127.5630 -7365.8962 303.0321 163.5860 284.4199 29824.8196 64.1949 139.2384
ENERGY: 900000 0.4852 2.4598 4.8792 0.0000 -10678.7986 1447.4856 0.0000 0.0000 1753.8908 -7469.5981 302.0010 -9223.4889 -7400.3776 300.9405 -186.4937 -121.3786 30386.8181 -53.8963 23.5691
ENERGY: 1200000 1.3015 7.9179 6.7507 0.0000 -10447.6158 1346.3757 0.0000 0.0000 1736.7346 -7348.5355 299.0469 -9085.2701 -7401.9134 301.6410 -287.4444 -248.4347 29897.6848 -10.9315 62.3374
ENERGY: 1500000 0.9850 5.3222 4.1347 0.0000 -10607.8842 1465.6877 0.0000 0.0000 1781.3808 -7350.3739 306.7345 -9131.7547 -7409.3276 301.4739 498.6194 569.4671 29910.5765 86.1258 161.5506
TCL: Running FEP window  20: Lambda1 0.9500000000000003 Lambda2 1.0    [dLambda 0.04999999999999971]
TCL: Setting parameter firsttimestep to 0
TCL: Setting parameter alchLambda to 0.9500000000000003
Info: NONBONDED TABLE R-SQUARED SPACING: 0.0625
Info: NONBONDED TABLE SIZE: 705 POINTS
TCL: Setting parameter alchLambda2 to 1.0
Info: NONBONDED TABLE R-SQUARED SPACING: 0.0625
Info: NONBONDED TABLE SIZE: 705 POINTS
TCL: Running for 1500000 steps
ETITLE: TS BOND ANGLE DIHED IMPRP ELECT VDW BOUNDARY MISC KINETIC TOTAL TEMP POTENTIAL TOTALAVG TEMPAVG PRESSURE GPRESSURE VOLUME PRESSAVG GPRESSAVG
ENERGY: 0 0.9850 5.3222 4.1347 0.0000 -10608.5299 1466.9667 0.0000 0.0000 1780.5301 -7350.5912 306.5880 -9131.1213 -7350.5912 306.5880 518.7029 599.8066 29910.5765 518.7029 599.8066
ENERGY: 300000 0.7374 5.6007 5.8094 0.0000 -10713.5462 1408.8861 0.0000 0.0000 1716.3281 -7576.1845 295.5331 -9292.5126 -7440.3314 302.2085 -454.8010 -385.4571 29790.3098 -67.3379 -8.6197
ENERGY: 600000 2.2106 8.1393 5.3385 0.0000 -10626.2612 1415.2194 0.0000 0.0000 1709.1982 -7486.1552 294.3054 -9195.3534 -7425.7838 301.1449 -435.1497 -337.1875 30532.0578 -268.9120 -205.9631
ENERGY: 900000 0.7854 6.5430 5.0333 0.0000 -10621.7509 1406.9947 0.0000 0.0000 1707.0100 -7495.3845 293.9287 -9202.3945 -7437.4037 298.8782 -189.7168 -159.1795 30029.8353 -305.3871 -244.2503
ENERGY: 1200000 2.6268 5.8834 5.7870 0.0000 -10566.5353 1415.8789 0.0000 0.0000 1780.8554 -7355.5039 306.6440 -9136.3592 -7427.2806 300.0778 -60.4613 -5.2528 30157.5973 -325.6122 -270.6617
ENERGY: 1500000 0.7639 5.7259 6.8453 0.0000 -10646.8413 1471.1950 0.0000 0.0000 1784.7510 -7377.5603 307.3148 -9162.3113 -7417.3037 300.7260 328.0543 406.4686 30015.5774 -187.8430 -130.3219
TCL: Exiting due to exit command.
