Info: SIMULATION PARAMETERS:
Info: TIMESTEP               2
Info: NUMBER OF STEPS        0
Info: STEPS PER CYCLE        10
Info: PERIODIC CELL BASIS 1  34.3804 0 0
Info: PERIODIC CELL BASIS 2  0 30.3099 0
Info: PERIODIC CELL BASIS 3  0 0 29.3297
Info: PERIODIC CELL CENTER   0 0 0
Info: WRAPPING WATERS AROUND PERIODIC BOUNDARIES ON OUTPUT.
Info: WRAPPING ALL CLUSTERS AROUND PERIODIC BOUNDARIES ON OUTPUT.
Info: FIRST LDB TIMESTEP     50
Info: LAST LDB TIMESTEP     -1
Info: HOM BACKGROUND SCALING 1
Info: PME BACKGROUND SCALING 1
Info: MIN ATOMS PER PATCH    40
Info: EMPTY PATCH LOAD       40 ATOMS
Info: VELOCITY FILE          mobley_2364370_equil.vel
Info: CENTER OF MASS MOVING INITIALLY? NO
Info: DIELECTRIC             1
Info: EXCLUDE                SCALED ONE-FOUR
Info: 1-4 ELECTROSTATICS SCALED BY 0.833333
Info: MODIFIED 1-4 VDW PARAMETERS WILL BE USED
Info: DCD FILENAME           mobley_2364370_prod.dcd
Info: DCD FREQUENCY          100000
Info: DCD FIRST STEP         100000
Info: DCD FILE WILL CONTAIN UNIT CELL DATA
Info: XST FILENAME           mobley_2364370_prod.xst
Info: XST FREQUENCY          100000
Info: NO VELOCITY DCD OUTPUT
Info: NO FORCE DCD OUTPUT
Info: OUTPUT FILENAME        mobley_2364370_prod
Info: BINARY OUTPUT FILES WILL BE USED
Info: RESTART FILENAME       mobley_2364370_prod.restart
Info: RESTART FREQUENCY      100000
Info: BINARY RESTART FILES WILL BE USED
Info: CUTOFF                 9
Info: PAIRLIST DISTANCE      11
Info: PAIRLIST SHRINK RATE   0.01
Info: PAIRLIST GROW RATE     0.01
Info: PAIRLIST TRIGGER       0.3
Info: PAIRLISTS PER CYCLE    2
Info: PAIRLISTS ENABLED
Info: MARGIN                 2
Info: HYDROGEN GROUP CUTOFF  2.5
Info: PATCH DIMENSION        15.5
Info: ENERGY OUTPUT STEPS    100000
Info: ENERGY EVALUATION STEPS    100000
Info: OUTPUT ENERGY PRECISION 4
Info: CROSSTERM ENERGY INCLUDED IN DIHEDRAL
Info: TIMING OUTPUT STEPS    1000000
Info: PRESSURE OUTPUT STEPS  100000
Info: ALCHEMICAL FEP ON
Info: FEP CURRENT LAMBDA VALUE     0
Info: FEP COMPARISON LAMBDA VALUE  0.05
Info: FEP INTRA-ALCHEMICAL NON-BONDED INTERACTIONS WILL BE RETAINED
Info: FEP INTRA-ALCHEMICAL BONDED INTERACTIONS WILL BE RETAINED
Info: FEP VDW SHIFTING COEFFICIENT 5
Info: FEP ELEC. ACTIVE FOR ANNIHILATED PARTICLES BETWEEN LAMBDA = 0 AND LAMBDA = 0.5
Info: FEP ELEC. ACTIVE FOR EXNIHILATED PARTICLES BETWEEN LAMBDA = 0.5 AND LAMBDA = 1
Info: FEP VDW ACTIVE FOR ANNIHILATED PARTICLES BETWEEN LAMBDA = 0 AND LAMBDA = 1
Info: FEP VDW ACTIVE FOR EXNIHILATED PARTICLES BETWEEN LAMBDA = 0 AND LAMBDA = 1
Info: FEP BOND ACTIVE FOR ANNIHILATED PARTICLES BETWEEN LAMBDA = 1 AND LAMBDA = 1
Info: FEP BOND ACTIVE FOR EXNIHILATED PARTICLES BETWEEN LAMBDA = 0 AND LAMBDA = 0
Info: LANGEVIN DYNAMICS ACTIVE
Info: LANGEVIN TEMPERATURE   300
Info: LANGEVIN USING BBK INTEGRATOR
Info: LANGEVIN DAMPING COEFFICIENT IS 1 INVERSE PS
Info: LANGEVIN DYNAMICS APPLIED TO HYDROGENS
Info: LANGEVIN PISTON PRESSURE CONTROL ACTIVE
Info:        TARGET PRESSURE IS 1.01325 BAR
Info:     OSCILLATION PERIOD IS 50 FS
Info:             DECAY TIME IS 25 FS
Info:     PISTON TEMPERATURE IS 300 K
Info:       PRESSURE CONTROL IS GROUP-BASED
Info:    INITIAL STRAIN RATE IS 3.88671e-05 3.88671e-05 3.88671e-05
Info:       CELL FLUCTUATION IS ISOTROPIC
Info: PARTICLE MESH EWALD (PME) ACTIVE
Info: PME TOLERANCE               1e-06
Info: PME EWALD COEFFICIENT       0.348832
Info: PME INTERPOLATION ORDER     4
Info: PME GRID DIMENSIONS         36 32 32
Info: PME MAXIMUM GRID SPACING    1
Info: PME CALCULATION WILL BE PERFORMED ON GPU
Info: FULL ELECTROSTATIC EVALUATION FREQUENCY      2
Info: USING VERLET I (r-RESPA) MTS SCHEME.
Info: C1 SPLITTING OF LONG RANGE ELECTROSTATICS
Info: PLACING ATOMS IN PATCHES BY HYDROGEN GROUPS
Info: RIGID BONDS TO HYDROGEN : ALL
Info:         ERROR TOLERANCE : 1e-08
Info:          MAX ITERATIONS : 100
Info: RIGID WATER USING SETTLE ALGORITHM
Info: RANDOM NUMBER SEED     1743926106
Info: USE HYDROGEN BONDS?    NO
Info: Using AMBER format force field!
Info: AMBER PARM FILE        mobley_2364370.prmtop
Info: COORDINATE PDB         mobley_2364370.pdb
Info: Exclusions will be read from PARM file!
Info: SCNB (VDW SCALING)     2
Info: USING ARITHMETIC MEAN TO COMBINE L-J SIGMA PARAMETERS
Info: BINARY COORDINATES     mobley_2364370_equil.coor
Info: SUMMARY OF PARAMETERS:
Info: 9 BONDS
Info: 12 ANGLES
Info:   12 HARMONIC
Info:   0 COSINE-BASED
Info: 20 DIHEDRAL
Info: 0 IMPROPER
Info: 0 CROSSTERM
Info: 0 VDW
Info: 36 VDW_PAIRS
Info: 0 NBTHOLE_PAIRS
Info: To read alchdata from file: mobley_2364370.pdb
Info: To read alchflag data from column: 5
Info: STRUCTURE SUMMARY:
Info: 2948 ATOMS
Info: 2947 BONDS
Info: 34 ANGLES
Info: 53 DIHEDRALS
Info: 0 IMPROPERS
Info: 0 CROSSTERMS
Info: 3019 EXCLUSIONS
Info: 2940 RIGID BONDS
Info: ALCH: 0 ATOMS TO DISAPPEAR IN FINAL STATE
Info: ALCH: 20 ATOMS TO APPEAR IN FINAL STATE
Info: 5904 DEGREES OF FREEDOM
Info: 984 HYDROGEN GROUPS
Info: 4 ATOMS IN LARGEST HYDROGEN GROUP
Info: 984 MIGRATION GROUPS
Info: 4 ATOMS IN LARGEST MIGRATION GROUP
Info: TOTAL MASS = 17699.8 amu
Info: TOTAL CHARGE = 0.000299968 e
Info: MASS DENSITY = 0.961666 g/cm^3
Info: ATOM DENSITY = 0.096455 atoms/A^3
Info: ADDED 0 IMPLICIT EXCLUSIONS
Info: NONBONDED TABLE R-SQUARED SPACING: 0.0625
Info: NONBONDED TABLE SIZE: 705 POINTS
Info: REMOVING COM VELOCITY 0.185391 0.105832 0.0341094
Info: Use 3D box decompostion in PME FFT.
Info: Updated CUDA force table with 4096 elements.
Info: Updated CUDA LJ table with 8 x 8 elements.
Info: Found 23 unique exclusion lists needing 64 bytes
TCL: Running for 1500000 steps
ETITLE: TS BOND ANGLE DIHED IMPRP ELECT VDW BOUNDARY MISC KINETIC TOTAL TEMP POTENTIAL TOTALAVG TEMPAVG PRESSURE GPRESSURE VOLUME PRESSAVG GPRESSAVG
ENERGY: 0 3.1517 14.9960 8.3003 0.0000 -10640.6011 1377.1717 0.0000 0.0000 1732.9954 -7503.9859 295.4211 -9236.9814 -7503.9859 295.4211 -722.2983 -637.4233 30563.4692 -722.2983 -637.4233
ENERGY: 300000 1.0909 6.0175 6.3084 0.0000 -10717.7124 1430.0686 0.0000 0.0000 1726.5324 -7547.6946 294.3193 -9274.2270 -7533.6261 298.5538 146.0459 227.4680 29621.5310 -348.4435 -259.2875
ENERGY: 600000 5.2356 9.5720 6.5146 0.0000 -10594.1551 1359.9049 0.0000 0.0000 1751.0117 -7461.9165 298.4923 -9212.9282 -7492.3871 299.2357 -598.1924 -517.1403 30385.1881 -414.3575 -335.8387
ENERGY: 900000 2.4258 11.7797 7.8918 0.0000 -10737.9978 1484.1497 0.0000 0.0000 1735.8522 -7495.8986 295.9080 -9231.7508 -7488.2863 299.1582 583.8035 618.6219 30034.2180 -222.0420 -149.3942
ENERGY: 1200000 2.7585 12.6755 8.4438 0.0000 -10565.6606 1354.0825 0.0000 0.0000 1836.2502 -7351.4500 313.0227 -9187.7002 -7470.9889 300.0482 -195.7936 -120.3154 29788.2348 -201.8557 -132.9937
ENERGY: 1500000 3.4410 11.0706 6.4641 0.0000 -10712.3203 1488.1677 0.0000 0.0000 1752.1717 -7451.0052 298.6900 -9203.1770 -7475.7559 299.6224 493.3261 575.4654 30088.4530 -128.5920 -54.5277
TCL: Running FEP window   2: Lambda1 0.05   Lambda2 0.1    [dLambda 0.05  ]
TCL: Setting parameter firsttimestep to 0
TCL: Setting parameter alchLambda to 0.05
Info: NONBONDED TABLE R-SQUARED SPACING: 0.0625
Info: NONBONDED TABLE SIZE: 705 POINTS
TCL: Setting parameter alchLambda2 to 0.1
Info: NONBONDED TABLE R-SQUARED SPACING: 0.0625
Info: NONBONDED TABLE SIZE: 705 POINTS
TCL: Running for 1500000 steps
ETITLE: TS BOND ANGLE DIHED IMPRP ELECT VDW BOUNDARY MISC KINETIC TOTAL TEMP POTENTIAL TOTALAVG TEMPAVG PRESSURE GPRESSURE VOLUME PRESSAVG GPRESSAVG
ENERGY: 0 3.4410 11.0706 6.4641 0.0000 -10712.3204 1488.6849 0.0000 0.0000 1751.2674 -7451.3925 298.5358 -9202.6599 -7451.3925 298.5358 493.9551 579.3587 30088.4530 493.9551 579.3587
ENERGY: 300000 0.8109 6.3925 6.7769 0.0000 -10986.5369 1599.9025 0.0000 0.0000 1765.3860 -7607.2681 300.9426 -9372.6541 -7487.7942 299.6139 969.5934 1089.0825 29797.4961 173.1719 256.3646
ENERGY: 600000 1.7863 9.0405 7.2976 0.0000 -10729.4798 1394.9111 0.0000 0.0000 1679.9878 -7636.4565 286.3849 -9316.4443 -7503.7933 298.2909 -708.5231 -708.1299 30321.3717 70.3553 124.4958
ENERGY: 900000 2.4961 7.9944 8.0772 0.0000 -10749.2342 1439.8107 0.0000 0.0000 1810.1407 -7480.7151 308.5719 -9290.8558 -7490.8439 299.7611 -86.4296 -54.6296 30056.2417 76.8434 120.6171
ENERGY: 1200000 3.0144 10.2391 6.2356 0.0000 -10579.2911 1394.3625 0.0000 0.0000 1774.2709 -7391.1686 302.4572 -9165.4396 -7473.1585 301.0716 -230.9987 -175.0420 30524.1935 60.3198 102.8940
ENERGY: 1500000 1.1086 6.3330 8.4620 0.0000 -10676.5095 1463.9909 0.0000 0.0000 1793.1509 -7403.4640 305.6757 -9196.6150 -7467.4687 302.3887 438.3315 483.0216 29920.2898 105.6019 141.1352
TCL: Running FEP window   3: Lambda1 0.1    Lambda2 0.15000000000000002 [dLambda 0.05000000000000002]
TCL: Setting parameter firsttimestep to 0
TCL: Setting parameter alchLambda to 0.1
Info: NONBONDED TABLE R-SQUARED SPACING: 0.0625
Info: NONBONDED TABLE SIZE: 705 POINTS
TCL: Setting parameter alchLambda2 to 0.15000000000000002
Info: NONBONDED TABLE R-SQUARED SPACING: 0.0625
Info: NONBONDED TABLE SIZE: 705 POINTS
TCL: Running for 1500000 steps
ETITLE: TS BOND ANGLE DIHED IMPRP ELECT VDW BOUNDARY MISC KINETIC TOTAL TEMP POTENTIAL TOTALAVG TEMPAVG PRESSURE GPRESSURE VOLUME PRESSAVG GPRESSAVG
ENERGY: 0 1.1087 6.3330 8.4620 0.0000 -10676.5090 1466.0113 0.0000 0.0000 1792.2928 -7402.3012 305.5294 -9194.5940 -7402.3012 305.5294 405.4028 491.1321 29920.2898 405.4028 491.1321
ENERGY: 300000 4.3384 7.7406 6.7318 0.0000 -10598.6406 1311.3068 0.0000 0.0000 1784.1246 -7484.3984 304.1370 -9268.5230 -7469.3789 303.9727 -1043.3689 -995.7366 30160.0762 -113.3703 -25.8480
ENERGY: 600000 1.7181 6.1454 5.7442 0.0000 -10676.8409 1433.6305 0.0000 0.0000 1793.6763 -7435.9264 305.7652 -9229.6027 -7451.9875 303.9136 180.8833 246.4658 29939.0964 -97.1588 -26.0206
ENERGY: 900000 0.8102 6.9326 7.0285 0.0000 -10683.3462 1436.4059 0.0000 0.0000 1767.7380 -7464.4310 301.3436 -9232.1690 -7453.6452 302.3835 115.6541 165.0597 29934.1298 -62.4829 4.3674
ENERGY: 1200000 1.4643 7.0944 7.9857 0.0000 -10700.3816 1482.1378 0.0000 0.0000 1759.9271 -7441.7723 300.0121 -9201.6994 -7452.7892 301.6572 446.2362 494.6826 29935.1616 -7.7848 62.7307
ENERGY: 1500000 1.3776 12.4965 5.4590 0.0000 -10811.9465 1496.1405 0.0000 0.0000 1748.1252 -7548.3477 298.0002 -9296.4730 -7468.4183 301.1357 380.5295 461.4547 29907.0263 2.7689 77.3002
TCL: Running FEP window   4: Lambda1 0.15000000000000002 Lambda2 0.2    [dLambda 0.04999999999999999]
TCL: Setting parameter firsttimestep to 0
TCL: Setting parameter alchLambda to 0.15000000000000002
Info: NONBONDED TABLE R-SQUARED SPACING: 0.0625
Info: NONBONDED TABLE SIZE: 705 POINTS
TCL: Setting parameter alchLambda2 to 0.2
Info: NONBONDED TABLE R-SQUARED SPACING: 0.0625
Info: NONBONDED TABLE SIZE: 705 POINTS
TCL: Running for 1500000 steps
ETITLE: TS BOND ANGLE DIHED IMPRP ELECT VDW BOUNDARY MISC KINETIC TOTAL TEMP POTENTIAL TOTALAVG TEMPAVG PRESSURE GPRESSURE VOLUME PRESSAVG GPRESSAVG
ENERGY: 0 1.3776 12.4965 5.4590 0.0000 -10811.9466 1496.3234 0.0000 0.0000 1747.2113 -7549.0788 297.8444 -9296.2901 -7549.0788 297.8444 390.3380 466.6693 29907.0263 390.3380 466.6693
ENERGY: 300000 0.7551 4.9784 5.5019 0.0000 -10573.1148 1396.8554 0.0000 0.0000 1739.3789 -7425.6451 296.5092 -9165.0240 -7477.1381 301.5520 -98.6548 -31.5062 30282.5574 104.0861 182.1523
ENERGY: 600000 2.2137 8.9727 8.1159 0.0000 -10647.9147 1387.0256 0.0000 0.0000 1754.1229 -7487.4640 299.0226 -9241.5869 -7482.8670 299.7121 -566.1412 -568.3042 30364.1960 -271.3354 -214.0897
ENERGY: 900000 3.5801 8.2507 7.8102 0.0000 -10534.8388 1318.1956 0.0000 0.0000 1738.5009 -7458.5013 296.3596 -9197.0022 -7467.8029 299.8452 -1051.0095 -1021.4704 30421.0246 -276.1074 -231.9623
ENERGY: 1200000 1.1207 8.1247 4.7029 0.0000 -10672.5823 1426.1999 0.0000 0.0000 1778.3729 -7454.0612 303.1565 -9232.4341 -7461.2528 300.8640 -153.8141 -69.5731 30259.6325 -133.2370 -87.0556
ENERGY: 1500000 3.2204 7.8646 6.3479 0.0000 -10585.6441 1364.0059 0.0000 0.0000 1808.8582 -7395.3471 308.3533 -9204.2053 -7459.8342 301.4583 -589.9422 -501.2438 30275.7341 -151.4520 -99.4282
TCL: Running FEP window   5: Lambda1 0.2    Lambda2 0.25   [dLambda 0.04999999999999999]
TCL: Setting parameter firsttimestep to 0
TCL: Setting parameter alchLambda to 0.2
Info: NONBONDED TABLE R-SQUARED SPACING: 0.0625
Info: NONBONDED TABLE SIZE: 705 POINTS
TCL: Setting parameter alchLambda2 to 0.25
Info: NONBONDED TABLE R-SQUARED SPACING: 0.0625
Info: NONBONDED TABLE SIZE: 705 POINTS
TCL: Running for 1500000 steps
ETITLE: TS BOND ANGLE DIHED IMPRP ELECT VDW BOUNDARY MISC KINETIC TOTAL TEMP POTENTIAL TOTALAVG TEMPAVG PRESSURE GPRESSURE VOLUME PRESSAVG GPRESSAVG
ENERGY: 0 3.2204 7.8646 6.3479 0.0000 -10585.6425 1363.5728 0.0000 0.0000 1807.9552 -7396.6817 308.1993 -9204.6368 -7396.6817 308.1993 -579.0228 -499.7306 30275.7341 -579.0228 -499.7306
ENERGY: 300000 1.6000 10.2271 6.5013 0.0000 -10770.5423 1521.0241 0.0000 0.0000 1724.4802 -7506.7097 293.9695 -9231.1898 -7455.5234 300.6360 748.8708 812.6428 30074.0035 286.9708 346.4465
ENERGY: 600000 4.8917 9.3591 7.9207 0.0000 -10711.3934 1463.6466 0.0000 0.0000 1855.3020 -7370.2733 316.2705 -9225.5754 -7462.4751 301.8448 348.0859 507.7575 29726.0705 95.2039 170.6987
ENERGY: 900000 4.8826 12.6616 5.2460 0.0000 -10545.2870 1344.7863 0.0000 0.0000 1726.9159 -7450.7946 294.3847 -9177.7105 -7468.8612 300.4799 -435.6854 -354.9074 30056.6913 25.8351 95.1644
ENERGY: 1200000 1.2435 9.1623 7.8568 0.0000 -10597.2514 1349.2370 0.0000 0.0000 1782.6798 -7447.0720 303.8907 -9229.7518 -7462.4966 301.4611 -609.4761 -515.5724 30052.1937 -73.6244 2.9929
ENERGY: 1500000 3.0838 12.4200 7.8263 0.0000 -10649.0801 1380.3661 0.0000 0.0000 1752.2841 -7493.0998 298.7092 -9245.3839 -7460.2151 301.5285 -522.6893 -432.5716 30269.2114 -108.0461 -30.2097
TCL: Running FEP window   6: Lambda1 0.25   Lambda2 0.3    [dLambda 0.04999999999999999]
TCL: Setting parameter firsttimestep to 0
TCL: Setting parameter alchLambda to 0.25
Info: NONBONDED TABLE R-SQUARED SPACING: 0.0625
Info: NONBONDED TABLE SIZE: 705 POINTS
TCL: Setting parameter alchLambda2 to 0.3
Info: NONBONDED TABLE R-SQUARED SPACING: 0.0625
Info: NONBONDED TABLE SIZE: 705 POINTS
TCL: Running for 1500000 steps
ETITLE: TS BOND ANGLE DIHED IMPRP ELECT VDW BOUNDARY MISC KINETIC TOTAL TEMP POTENTIAL TOTALAVG TEMPAVG PRESSURE GPRESSURE VOLUME PRESSAVG GPRESSAVG
ENERGY: 0 3.0838 12.4200 7.8263 0.0000 -10649.0803 1380.0319 0.0000 0.0000 1751.4233 -7494.2951 298.5624 -9245.7184 -7494.2951 298.5624 -510.3668 -430.6656 30269.2114 -510.3668 -430.6656
ENERGY: 300000 1.4241 9.8888 6.9993 0.0000 -10652.7785 1433.7306 0.0000 0.0000 1693.9123 -7506.8234 288.7586 -9200.7357 -7488.4814 296.5303 85.7583 132.8876 30384.4289 -340.5279 -285.9139
ENERGY: 600000 4.2884 9.4279 6.7071 0.0000 -10674.0905 1476.8188 0.0000 0.0000 1746.4251 -7430.4233 297.7104 -9176.8484 -7465.7847 297.9902 727.5988 702.3424 29653.6210 -165.6415 -109.8916
ENERGY: 900000 5.5590 5.7069 6.5985 0.0000 -10639.9441 1446.7606 0.0000 0.0000 1765.4444 -7409.8746 300.9526 -9175.3191 -7471.7121 297.3375 7.5679 71.2732 30357.9114 -156.2499 -96.6735
ENERGY: 1200000 1.4450 6.0398 8.6027 0.0000 -10488.9597 1334.8968 0.0000 0.0000 1709.0319 -7428.9434 291.3360 -9137.9753 -7449.1561 297.0288 -819.6429 -742.4737 30650.2811 -117.8179 -57.8814
ENERGY: 1500000 2.6993 10.9972 6.3297 0.0000 -10573.1860 1372.8043 0.0000 0.0000 1740.1915 -7440.1641 296.6478 -9180.3556 -7455.8103 296.7189 -269.3387 -217.4507 30109.4531 -126.1598 -70.3476
TCL: Running FEP window   7: Lambda1 0.3    Lambda2 0.35   [dLambda 0.04999999999999999]
TCL: Setting parameter firsttimestep to 0
TCL: Setting parameter alchLambda to 0.3
Info: NONBONDED TABLE R-SQUARED SPACING: 0.0625
Info: NONBONDED TABLE SIZE: 705 POINTS
TCL: Setting parameter alchLambda2 to 0.35
Info: NONBONDED TABLE R-SQUARED SPACING: 0.0625
Info: NONBONDED TABLE SIZE: 705 POINTS
TCL: Running for 1500000 steps
ETITLE: TS BOND ANGLE DIHED IMPRP ELECT VDW BOUNDARY MISC KINETIC TOTAL TEMP POTENTIAL TOTALAVG TEMPAVG PRESSURE GPRESSURE VOLUME PRESSAVG GPRESSAVG
ENERGY: 0 2.6993 10.9972 6.3297 0.0000 -10573.1875 1374.5680 0.0000 0.0000 1739.3496 -7439.2438 296.5042 -9178.5934 -7439.2438 296.5042 -281.7548 -200.1654 30109.4531 -281.7548 -200.1654
ENERGY: 300000 2.0109 11.1763 5.4278 0.0000 -10762.6385 1456.6385 0.0000 0.0000 1742.5407 -7544.8442 297.0482 -9287.3849 -7488.0080 296.8877 -38.7325 16.4437 30157.1690 -298.3654 -234.4568
ENERGY: 600000 4.1830 11.6929 6.8765 0.0000 -10679.2446 1486.3412 0.0000 0.0000 1736.6317 -7433.5191 296.0409 -9170.1509 -7482.8745 295.8234 189.5478 287.1616 30665.4393 -239.2098 -176.8255
ENERGY: 900000 2.6274 8.0233 6.3137 0.0000 -10827.8767 1486.3632 0.0000 0.0000 1704.2902 -7620.2587 290.5277 -9324.5489 -7482.2744 296.7206 166.6326 164.4745 30080.6097 -102.7670 -49.0843
ENERGY: 1200000 3.0033 8.9349 6.1722 0.0000 -10693.5696 1399.6412 0.0000 0.0000 1747.3401 -7528.4780 297.8664 -9275.8180 -7465.8577 298.4265 -597.4129 -493.7308 30476.6928 -33.2015 14.4753
ENERGY: 1500000 1.9200 9.4261 6.7324 0.0000 -10617.9526 1416.5174 0.0000 0.0000 1779.5696 -7403.7871 303.3605 -9183.3566 -7464.0250 299.4634 150.0548 237.0848 30080.8776 -29.7963 18.9980
TCL: Running FEP window   8: Lambda1 0.35   Lambda2 0.39999999999999997 [dLambda 0.04999999999999999]
TCL: Setting parameter firsttimestep to 0
TCL: Setting parameter alchLambda to 0.35
Info: NONBONDED TABLE R-SQUARED SPACING: 0.0625
Info: NONBONDED TABLE SIZE: 705 POINTS
TCL: Setting parameter alchLambda2 to 0.39999999999999997
Info: NONBONDED TABLE R-SQUARED SPACING: 0.0625
Info: NONBONDED TABLE SIZE: 705 POINTS
TCL: Running for 1500000 steps
ETITLE: TS BOND ANGLE DIHED IMPRP ELECT VDW BOUNDARY MISC KINETIC TOTAL TEMP POTENTIAL TOTALAVG TEMPAVG PRESSURE GPRESSURE VOLUME PRESSAVG GPRESSAVG
ENERGY: 0 1.9200 9.4261 6.7324 0.0000 -10617.9531 1415.9791 0.0000 0.0000 1778.7270 -7405.1686 303.2168 -9183.8955 -7405.1686 303.2168 149.9911 239.2816 30080.8776 149.9911 239.2816
ENERGY: 300000 3.8835 8.0595 9.6792 0.0000 -10694.7052 1477.1353 0.0000 0.0000 1752.8942 -7443.0535 298.8132 -9195.9477 -7457.4609 301.6777 183.2748 230.0399 30280.0599 319.1161 361.6534
ENERGY: 600000 0.2553 10.9784 6.7942 0.0000 -10614.1235 1399.0657 0.0000 0.0000 1748.3925 -7448.6373 298.0458 -9197.0298 -7459.9230 300.6855 -442.4258 -375.9560 30533.7326 30.9839 73.9780
ENERGY: 900000 0.9043 6.9579 6.7593 0.0000 -10521.9499 1419.4203 0.0000 0.0000 1787.3540 -7300.5542 304.6875 -9087.9082 -7445.3480 301.5353 72.5169 118.3857 30597.6905 -31.5516 21.8364
ENERGY: 1200000 1.5259 11.0468 6.5783 0.0000 -10776.5927 1421.7587 0.0000 0.0000 1753.2339 -7582.4491 298.8711 -9335.6830 -7454.2039 301.4585 -427.1892 -401.1214 30310.2318 -9.5080 50.6885
ENERGY: 1500000 2.7508 9.7362 7.8201 0.0000 -10715.6910 1502.5766 0.0000 0.0000 1762.3952 -7430.4122 300.4328 -9192.8074 -7456.3640 300.1060 827.3784 841.2669 30133.9796 38.1156 91.6542
TCL: Running FEP window   9: Lambda1 0.39999999999999997 Lambda2 0.44999999999999996 [dLambda 0.04999999999999999]
TCL: Setting parameter firsttimestep to 0
TCL: Setting parameter alchLambda to 0.39999999999999997
Info: NONBONDED TABLE R-SQUARED SPACING: 0.0625
Info: NONBONDED TABLE SIZE: 705 POINTS
TCL: Setting parameter alchLambda2 to 0.44999999999999996
Info: NONBONDED TABLE R-SQUARED SPACING: 0.0625
Info: NONBONDED TABLE SIZE: 705 POINTS
TCL: Running for 1500000 steps
ETITLE: TS BOND ANGLE DIHED IMPRP ELECT VDW BOUNDARY MISC KINETIC TOTAL TEMP POTENTIAL TOTALAVG TEMPAVG PRESSURE GPRESSURE VOLUME PRESSAVG GPRESSAVG
ENERGY: 0 2.7508 9.7362 7.8201 0.0000 -10715.6895 1503.4894 0.0000 0.0000 1761.5228 -7430.3702 300.2841 -9191.8930 -7430.3702 300.2841 785.4157 856.0260 30133.9796 785.4157 856.0260
ENERGY: 300000 1.4395 7.8333 6.9199 0.0000 -10638.1205 1414.2951 0.0000 0.0000 1779.3859 -7428.2468 303.3292 -9207.6327 -7420.2658 302.2143 -97.3496 -31.7384 30412.8968 -78.9385 12.9166
ENERGY: 600000 2.7339 16.6343 6.7394 0.0000 -10783.0097 1515.0965 0.0000 0.0000 1732.2262 -7509.5794 295.2899 -9241.8056 -7442.4210 302.4847 795.0845 843.2938 29711.5049 166.5691 230.5469
ENERGY: 900000 2.8678 8.2399 8.3595 0.0000 -10629.8992 1285.9706 0.0000 0.0000 1799.8782 -7524.5832 306.8225 -9324.4614 -7460.9429 302.4875 -1185.7978 -1111.7022 29953.9258 19.3382 88.5788
ENERGY: 1200000 1.4948 7.9681 5.9308 0.0000 -10709.1584 1462.2493 0.0000 0.0000 1722.9952 -7508.5202 293.7163 -9231.5153 -7460.6100 302.5642 238.2641 299.0345 30072.6729 29.7999 96.3652
ENERGY: 1500000 2.8362 6.4838 6.3584 0.0000 -10663.1392 1422.1889 0.0000 0.0000 1812.7515 -7412.5205 309.0170 -9225.2720 -7462.3588 302.2041 -315.4785 -250.3744 30611.3502 20.5710 86.4484
TCL: Running FEP window  10: Lambda1 0.44999999999999996 Lambda2 0.49999999999999994 [dLambda 0.04999999999999999]
TCL: Setting parameter firsttimestep to 0
TCL: Setting parameter alchLambda to 0.44999999999999996
Info: NONBONDED TABLE R-SQUARED SPACING: 0.0625
Info: NONBONDED TABLE SIZE: 705 POINTS
TCL: Setting parameter alchLambda2 to 0.49999999999999994
Info: NONBONDED TABLE R-SQUARED SPACING: 0.0625
Info: NONBONDED TABLE SIZE: 705 POINTS
TCL: Running for 1500000 steps
ETITLE: TS BOND ANGLE DIHED IMPRP ELECT VDW BOUNDARY MISC KINETIC TOTAL TEMP POTENTIAL TOTALAVG TEMPAVG PRESSURE GPRESSURE VOLUME PRESSAVG GPRESSAVG
ENERGY: 0 2.8362 6.4838 6.3584 0.0000 -10663.1407 1422.4839 0.0000 0.0000 1811.9104 -7413.0681 308.8736 -9224.9786 -7413.0681 308.8736 -324.4642 -241.2839 30611.3502 -324.4642 -241.2839
ENERGY: 300000 2.2119 10.8667 6.1462 0.0000 -10736.7915 1478.1892 0.0000 0.0000 1754.7251 -7484.6523 299.1253 -9239.3774 -7476.8049 301.2686 571.7604 599.7995 29676.5062 -131.8453 -80.2996
ENERGY: 600000 2.6950 6.5371 7.0042 0.0000 -10714.8576 1390.0017 0.0000 0.0000 1704.9727 -7603.6468 290.6441 -9308.6195 -7489.8237 299.2619 -841.2251 -794.6978 30738.0508 -142.8493 -74.0178
ENERGY: 900000 4.4351 7.3753 6.7371 0.0000 -10671.1125 1432.5233 0.0000 0.0000 1727.8343 -7492.2075 294.5412 -9220.0417 -7484.7286 298.9291 136.0022 238.4139 30174.7314 -154.9625 -81.9486
ENERGY: 1200000 1.3307 9.1503 5.7483 0.0000 -10651.0564 1412.6578 0.0000 0.0000 1752.6887 -7469.4806 298.7781 -9222.1694 -7488.5131 299.4356 -388.7213 -350.8084 30633.1637 -218.2952 -142.9500
ENERGY: 1500000 3.8084 8.0170 6.7666 0.0000 -10596.9870 1372.9744 0.0000 0.0000 1752.8852 -7452.5355 298.8116 -9205.4206 -7487.9891 299.5843 -417.4837 -338.6339 30586.7182 -301.4272 -227.9512
TCL: Running FEP window  11: Lambda1 0.49999999999999994 Lambda2 0.5499999999999999 [dLambda 0.04999999999999999]
TCL: Setting parameter firsttimestep to 0
TCL: Setting parameter alchLambda to 0.49999999999999994
Info: NONBONDED TABLE R-SQUARED SPACING: 0.0625
Info: NONBONDED TABLE SIZE: 705 POINTS
TCL: Setting parameter alchLambda2 to 0.5499999999999999
Info: NONBONDED TABLE R-SQUARED SPACING: 0.0625
Info: NONBONDED TABLE SIZE: 705 POINTS
TCL: Running for 1500000 steps
ETITLE: TS BOND ANGLE DIHED IMPRP ELECT VDW BOUNDARY MISC KINETIC TOTAL TEMP POTENTIAL TOTALAVG TEMPAVG PRESSURE GPRESSURE VOLUME PRESSAVG GPRESSAVG
ENERGY: 0 3.8084 8.0170 6.7666 0.0000 -10596.9863 1372.6164 0.0000 0.0000 1752.0102 -7453.7676 298.6625 -9205.7778 -7453.7676 298.6625 -427.8752 -334.4923 30586.7182 -427.8752 -334.4923
ENERGY: 300000 0.9122 8.9278 5.3724 0.0000 -10720.8953 1485.4165 0.0000 0.0000 1794.5952 -7425.6711 305.9219 -9220.2664 -7440.5746 303.0431 370.8996 394.6465 30454.6330 312.7650 336.1952
ENERGY: 600000 4.0738 9.5740 5.1177 0.0000 -10726.7448 1416.7812 0.0000 0.0000 1801.4344 -7489.7637 307.0877 -9291.1980 -7452.4707 302.9078 -462.5759 -275.8853 29937.3964 -100.7806 -36.4147
ENERGY: 900000 2.3495 11.0434 5.8447 0.0000 -10782.1250 1515.0763 0.0000 0.0000 1794.9953 -7452.8158 305.9901 -9247.8111 -7455.6731 304.0109 435.9355 525.4836 30366.5435 104.7155 168.4867
ENERGY: 1200000 3.9179 9.1199 7.4352 0.0000 -10670.0527 1461.9073 0.0000 0.0000 1762.9775 -7424.6948 300.5321 -9187.6723 -7456.8531 303.9109 267.4198 271.9924 30437.8460 163.2131 217.5170
ENERGY: 1500000 1.6627 9.9018 7.8425 0.0000 -10699.1206 1406.7650 0.0000 0.0000 1809.9493 -7462.9994 308.5393 -9272.9487 -7453.5979 304.4411 -229.0649 -235.9139 30149.2082 80.1606 127.7287
TCL: Running FEP window  12: Lambda1 0.5499999999999999 Lambda2 0.6    [dLambda 0.050000000000000044]
TCL: Setting parameter firsttimestep to 0
TCL: Setting parameter alchLambda to 0.5499999999999999
Info: NONBONDED TABLE R-SQUARED SPACING: 0.0625
Info: NONBONDED TABLE SIZE: 705 POINTS
TCL: Setting parameter alchLambda2 to 0.6
Info: NONBONDED TABLE R-SQUARED SPACING: 0.0625
Info: NONBONDED TABLE SIZE: 705 POINTS
TCL: Running for 1500000 steps
ETITLE: TS BOND ANGLE DIHED IMPRP ELECT VDW BOUNDARY MISC KINETIC TOTAL TEMP POTENTIAL TOTALAVG TEMPAVG PRESSURE GPRESSURE VOLUME PRESSAVG GPRESSAVG
ENERGY: 0 1.6627 9.9018 7.8425 0.0000 -10699.1540 1407.0543 0.0000 0.0000 1809.0952 -7463.5976 308.3937 -9272.6928 -7463.5976 308.3937 -304.1617 -226.1816 30149.2082 -304.1617 -226.1816
ENERGY: 300000 5.8477 8.4506 7.3992 0.0000 -10681.1697 1475.5199 0.0000 0.0000 1725.5234 -7458.4288 294.1473 -9183.9522 -7443.9160 302.8418 263.3179 308.1411 30523.8253 -204.8144 -127.2077
ENERGY: 600000 4.0378 5.8239 7.8424 0.0000 -10642.8526 1405.8797 0.0000 0.0000 1806.3743 -7412.8945 307.9298 -9219.2688 -7455.1044 302.5622 -111.0829 -48.8202 30373.4266 -216.9966 -152.8067
ENERGY: 900000 0.7142 8.5481 7.2943 0.0000 -10702.4352 1408.1029 0.0000 0.0000 1786.6199 -7491.1558 304.5623 -9277.7757 -7462.6825 302.0522 -403.8024 -368.8583 30533.9530 -192.4151 -136.6842
ENERGY: 1200000 0.6802 8.8058 5.2885 0.0000 -10700.4882 1521.6784 0.0000 0.0000 1802.8056 -7361.2298 307.3215 -9164.0354 -7461.2150 303.0633 862.0338 896.7958 30710.8721 -140.5951 -87.1443
ENERGY: 1500000 1.1553 7.0974 7.0616 0.0000 -10702.1939 1429.9657 0.0000 0.0000 1769.0109 -7487.9031 301.5606 -9256.9140 -7467.3255 302.2354 -25.8356 90.3203 30039.5700 -89.5213 -25.5553
TCL: Running FEP window  13: Lambda1 0.6    Lambda2 0.65   [dLambda 0.050000000000000044]
TCL: Setting parameter firsttimestep to 0
TCL: Setting parameter alchLambda to 0.6
Info: NONBONDED TABLE R-SQUARED SPACING: 0.0625
Info: NONBONDED TABLE SIZE: 705 POINTS
TCL: Setting parameter alchLambda2 to 0.65
Info: NONBONDED TABLE R-SQUARED SPACING: 0.0625
Info: NONBONDED TABLE SIZE: 705 POINTS
TCL: Running for 1500000 steps
ETITLE: TS BOND ANGLE DIHED IMPRP ELECT VDW BOUNDARY MISC KINETIC TOTAL TEMP POTENTIAL TOTALAVG TEMPAVG PRESSURE GPRESSURE VOLUME PRESSAVG GPRESSAVG
ENERGY: 0 1.1553 7.0974 7.0616 0.0000 -10701.7210 1429.5407 0.0000 0.0000 1768.1290 -7488.7371 301.4102 -9256.8661 -7488.7371 301.4102 15.0164 96.4311 30039.5700 15.0164 96.4311
ENERGY: 300000 4.2609 8.5214 9.7830 0.0000 -10774.3373 1519.9810 0.0000 0.0000 1785.8433 -7445.9476 304.4300 -9231.7910 -7486.4729 297.8706 571.4601 658.1679 30172.5229 507.5128 579.4451
ENERGY: 600000 2.2856 8.5298 6.2278 0.0000 -10765.0105 1534.4095 0.0000 0.0000 1739.9554 -7473.6024 296.6075 -9213.5578 -7474.0300 297.4433 720.3663 779.1920 30191.8849 357.9462 425.4644
ENERGY: 900000 3.6161 5.2085 6.5434 0.0000 -10705.3991 1413.7131 0.0000 0.0000 1724.6776 -7551.6404 294.0031 -9276.3180 -7482.3635 298.0685 -272.2460 -253.3599 30382.1970 216.2365 275.0630
ENERGY: 1200000 1.5889 8.3655 5.5140 0.0000 -10643.3836 1409.1140 0.0000 0.0000 1793.6449 -7425.1563 305.7599 -9218.8012 -7484.2397 298.7646 -243.0035 -154.0444 30446.0250 75.9981 136.0301
ENERGY: 1500000 3.6391 7.8744 7.6642 0.0000 -10665.0125 1380.6436 0.0000 0.0000 1774.0110 -7491.1801 302.4129 -9265.1911 -7481.1724 299.0920 -945.0851 -869.0652 30758.5223 64.9818 126.0054
TCL: Running FEP window  14: Lambda1 0.65   Lambda2 0.7000000000000001 [dLambda 0.050000000000000044]
TCL: Setting parameter firsttimestep to 0
TCL: Setting parameter alchLambda to 0.65
Info: NONBONDED TABLE R-SQUARED SPACING: 0.0625
Info: NONBONDED TABLE SIZE: 705 POINTS
TCL: Setting parameter alchLambda2 to 0.7000000000000001
Info: NONBONDED TABLE R-SQUARED SPACING: 0.0625
Info: NONBONDED TABLE SIZE: 705 POINTS
TCL: Running for 1500000 steps
ETITLE: TS BOND ANGLE DIHED IMPRP ELECT VDW BOUNDARY MISC KINETIC TOTAL TEMP POTENTIAL TOTALAVG TEMPAVG PRESSURE GPRESSURE VOLUME PRESSAVG GPRESSAVG
ENERGY: 0 3.6391 7.8744 7.6642 0.0000 -10664.5777 1380.5362 0.0000 0.0000 1773.1716 -7491.6922 302.2698 -9264.8638 -7491.6922 302.2698 -939.2272 -859.4357 30758.5223 -939.2272 -859.4357
ENERGY: 300000 1.7899 10.4212 4.6908 0.0000 -10640.1110 1438.9872 0.0000 0.0000 1780.5984 -7403.6234 303.5359 -9184.2218 -7461.7876 297.3808 271.0639 357.3979 30306.6574 -292.9565 -241.5900
ENERGY: 600000 1.0355 7.7334 6.5359 0.0000 -10596.6972 1387.7140 0.0000 0.0000 1727.7164 -7465.9620 294.5212 -9193.6784 -7469.4738 297.7577 -588.3342 -515.9872 30992.2151 -280.9521 -226.8932
ENERGY: 900000 2.7578 7.9534 5.2327 0.0000 -10772.0066 1500.2581 0.0000 0.0000 1744.5976 -7511.2069 297.3989 -9255.8045 -7479.6372 298.4006 479.2604 598.6314 30096.4077 -157.3678 -92.0759
ENERGY: 1200000 1.0889 8.2999 8.0374 0.0000 -10815.3943 1482.7931 0.0000 0.0000 1780.9974 -7534.1775 303.6039 -9315.1749 -7472.6129 299.3160 -46.6322 45.9930 30373.1636 -163.9653 -106.2863
ENERGY: 1500000 1.4045 9.8425 5.6712 0.0000 -10631.7557 1377.7932 0.0000 0.0000 1745.7264 -7491.3179 297.5913 -9237.0443 -7462.4594 299.9800 -396.0138 -283.2135 30011.3954 -159.0647 -92.6894
TCL: Running FEP window  15: Lambda1 0.7000000000000001 Lambda2 0.7500000000000001 [dLambda 0.050000000000000044]
TCL: Setting parameter firsttimestep to 0
TCL: Setting parameter alchLambda to 0.7000000000000001
Info: NONBONDED TABLE R-SQUARED SPACING: 0.0625
Info: NONBONDED TABLE SIZE: 705 POINTS
TCL: Setting parameter alchLambda2 to 0.7500000000000001
Info: NONBONDED TABLE R-SQUARED SPACING: 0.0625
Info: NONBONDED TABLE SIZE: 705 POINTS
TCL: Running for 1500000 steps
ETITLE: TS BOND ANGLE DIHED IMPRP ELECT VDW BOUNDARY MISC KINETIC TOTAL TEMP POTENTIAL TOTALAVG TEMPAVG PRESSURE GPRESSURE VOLUME PRESSAVG GPRESSAVG
ENERGY: 0 1.4045 9.8425 5.6712 0.0000 -10631.6381 1377.2270 0.0000 0.0000 1744.8470 -7492.6458 297.4414 -9237.4929 -7492.6458 297.4414 -372.0421 -278.6664 30011.3954 -372.0421 -278.6664
ENERGY: 300000 3.0466 10.2910 6.3838 0.0000 -10568.9412 1401.7835 0.0000 0.0000 1778.1508 -7369.2856 303.1186 -9147.4364 -7461.3812 301.0769 -229.3908 -88.3932 30660.6924 -41.7658 32.1481
ENERGY: 600000 0.6613 6.6714 6.1228 0.0000 -10604.4494 1383.7311 0.0000 0.0000 1753.9449 -7453.3180 298.9923 -9207.2628 -7471.3377 300.1837 -438.1897 -357.5608 30695.5255 -112.8536 -32.4040
ENERGY: 900000 1.3261 7.7032 8.2783 0.0000 -10642.4974 1390.8301 0.0000 0.0000 1842.1399 -7392.2200 314.0267 -9234.3599 -7457.9216 301.6283 -276.9931 -216.1660 30380.6731 -4.6053 73.2504
ENERGY: 1200000 3.6715 4.1436 5.9617 0.0000 -10650.6006 1434.5848 0.0000 0.0000 1767.7460 -7434.4930 301.3449 -9202.2390 -7467.5744 301.4730 69.3795 123.6695 30439.9906 38.6051 112.1281
ENERGY: 1500000 2.1735 6.0458 7.5107 0.0000 -10666.2207 1419.6756 0.0000 0.0000 1811.4706 -7419.3445 308.7986 -9230.8152 -7474.6925 301.7338 -13.3847 35.4040 30097.7782 11.0341 82.2251
TCL: Running FEP window  16: Lambda1 0.7500000000000001 Lambda2 0.8000000000000002 [dLambda 0.050000000000000044]
TCL: Setting parameter firsttimestep to 0
TCL: Setting parameter alchLambda to 0.7500000000000001
Info: NONBONDED TABLE R-SQUARED SPACING: 0.0625
Info: NONBONDED TABLE SIZE: 705 POINTS
TCL: Setting parameter alchLambda2 to 0.8000000000000002
Info: NONBONDED TABLE R-SQUARED SPACING: 0.0625
Info: NONBONDED TABLE SIZE: 705 POINTS
TCL: Running for 1500000 steps
ETITLE: TS BOND ANGLE DIHED IMPRP ELECT VDW BOUNDARY MISC KINETIC TOTAL TEMP POTENTIAL TOTALAVG TEMPAVG PRESSURE GPRESSURE VOLUME PRESSAVG GPRESSAVG
ENERGY: 0 2.1735 6.0458 7.5107 0.0000 -10666.5031 1419.7201 0.0000 0.0000 1810.6072 -7420.4458 308.6514 -9231.0530 -7420.4458 308.6514 -26.6510 45.2487 30097.7782 -26.6510 45.2487
ENERGY: 300000 1.5288 9.7125 5.9953 0.0000 -10519.1564 1289.9940 0.0000 0.0000 1745.3514 -7466.5746 297.5274 -9211.9260 -7468.2305 301.8723 -1142.6690 -994.6820 30236.8461 -227.1745 -116.6189
ENERGY: 600000 0.4638 9.5679 5.7311 0.0000 -10633.7477 1431.2045 0.0000 0.0000 1712.4129 -7474.3676 291.9124 -9186.7805 -7476.6928 301.1585 -226.3986 -86.6334 30868.1067 -219.0892 -124.9519
ENERGY: 900000 2.3572 10.5384 7.1682 0.0000 -10690.4297 1402.1166 0.0000 0.0000 1792.0281 -7476.2212 305.4843 -9268.2493 -7472.1733 302.1460 -256.9241 -196.4154 30179.6598 -142.4548 -62.1946
ENERGY: 1200000 4.4062 7.7089 6.0812 0.0000 -10744.8641 1455.1409 0.0000 0.0000 1762.8773 -7508.6497 300.5150 -9271.5270 -7476.2678 300.3857 231.6913 236.8341 29894.6052 -106.8335 -34.1702
ENERGY: 1500000 3.2334 6.4396 7.4982 0.0000 -10624.6961 1364.1642 0.0000 0.0000 1724.5025 -7518.8581 293.9733 -9243.3606 -7480.8067 299.8237 -456.7575 -399.9862 30224.6867 -159.5314 -85.0731
TCL: Running FEP window  17: Lambda1 0.8000000000000002 Lambda2 0.8500000000000002 [dLambda 0.050000000000000044]
TCL: Setting parameter firsttimestep to 0
TCL: Setting parameter alchLambda to 0.8000000000000002
Info: NONBONDED TABLE R-SQUARED SPACING: 0.0625
Info: NONBONDED TABLE SIZE: 705 POINTS
TCL: Setting parameter alchLambda2 to 0.8500000000000002
Info: NONBONDED TABLE R-SQUARED SPACING: 0.0625
Info: NONBONDED TABLE SIZE: 705 POINTS
TCL: Running for 1500000 steps
ETITLE: TS BOND ANGLE DIHED IMPRP ELECT VDW BOUNDARY MISC KINETIC TOTAL TEMP POTENTIAL TOTALAVG TEMPAVG PRESSURE GPRESSURE VOLUME PRESSAVG GPRESSAVG
ENERGY: 0 3.2334 6.4396 7.4982 0.0000 -10625.2013 1364.7366 0.0000 0.0000 1723.6177 -7519.6759 293.8224 -9243.2936 -7519.6759 293.8224 -468.3455 -383.7109 30224.6867 -468.3455 -383.7109
ENERGY: 300000 1.9978 6.1850 6.1591 0.0000 -10684.7918 1426.7463 0.0000 0.0000 1786.8829 -7456.8207 304.6072 -9243.7036 -7525.1147 294.4096 -287.3635 -214.1519 30827.2328 -162.4515 -90.8808
ENERGY: 600000 1.7312 6.7256 6.7863 0.0000 -10733.5739 1458.5500 0.0000 0.0000 1733.7943 -7525.9864 295.5572 -9259.7807 -7520.4170 295.3994 151.8978 177.8316 30516.9950 35.0122 99.0025
ENERGY: 900000 3.9406 6.0428 7.8667 0.0000 -10629.6388 1366.3471 0.0000 0.0000 1764.0873 -7481.3544 300.7212 -9245.4417 -7501.7068 297.4789 -544.9987 -476.3713 30637.7021 -66.5313 -11.9413
ENERGY: 1200000 1.9186 7.4654 7.3662 0.0000 -10755.8746 1460.5840 0.0000 0.0000 1782.7018 -7495.8386 303.8944 -9278.5404 -7494.6025 298.6320 319.2258 381.5391 29798.9465 -33.4432 25.0607
ENERGY: 1500000 4.5944 7.7256 6.7843 0.0000 -10568.7986 1391.1119 0.0000 0.0000 1749.9826 -7408.5998 298.3168 -9158.5824 -7489.6087 298.9648 -235.3394 -72.7667 30335.7466 -46.8779 20.0564
TCL: Running FEP window  18: Lambda1 0.8500000000000002 Lambda2 0.9000000000000002 [dLambda 0.050000000000000044]
TCL: Setting parameter firsttimestep to 0
TCL: Setting parameter alchLambda to 0.8500000000000002
Info: NONBONDED TABLE R-SQUARED SPACING: 0.0625
Info: NONBONDED TABLE SIZE: 705 POINTS
TCL: Setting parameter alchLambda2 to 0.9000000000000002
Info: NONBONDED TABLE R-SQUARED SPACING: 0.0625
Info: NONBONDED TABLE SIZE: 705 POINTS
TCL: Running for 1500000 steps
ETITLE: TS BOND ANGLE DIHED IMPRP ELECT VDW BOUNDARY MISC KINETIC TOTAL TEMP POTENTIAL TOTALAVG TEMPAVG PRESSURE GPRESSURE VOLUME PRESSAVG GPRESSAVG
ENERGY: 0 4.5944 7.7256 6.7843 0.0000 -10569.5459 1390.9847 0.0000 0.0000 1749.1145 -7410.3425 298.1689 -9159.4570 -7410.3425 298.1689 -157.3229 -63.2784 30335.7466 -157.3229 -63.2784
ENERGY: 300000 1.1733 6.8996 5.1547 0.0000 -10756.2069 1479.2763 0.0000 0.0000 1749.0430 -7514.6599 298.1567 -9263.7029 -7449.0749 299.8815 470.3517 504.4829 29967.1255 -169.7286 -102.3194
ENERGY: 600000 3.9214 13.9207 6.4775 0.0000 -10761.8186 1465.2792 0.0000 0.0000 1769.7787 -7502.4410 301.6915 -9272.2197 -7461.2915 299.4196 342.2911 410.4145 30105.0667 -137.9054 -83.3642
ENERGY: 900000 3.1225 6.9336 7.0027 0.0000 -10705.6123 1438.9541 0.0000 0.0000 1708.9322 -7540.6673 291.3190 -9249.5995 -7459.5308 299.7533 -13.1098 19.7481 30331.4623 -80.0769 -29.8055
ENERGY: 1200000 1.9623 6.5295 6.9029 0.0000 -10680.1431 1438.4400 0.0000 0.0000 1758.8593 -7467.4491 299.8300 -9226.3084 -7454.9007 299.9698 40.9122 64.5838 30650.8891 -26.6873 23.0128
ENERGY: 1500000 3.1657 9.6049 5.8494 0.0000 -10552.4548 1305.2934 0.0000 0.0000 1791.5020 -7437.0392 305.3946 -9228.5413 -7447.3290 301.5696 -1218.1625 -1141.8770 30779.3463 -25.6869 28.3676
TCL: Running FEP window  19: Lambda1 0.9000000000000002 Lambda2 0.9500000000000003 [dLambda 0.050000000000000044]
TCL: Setting parameter firsttimestep to 0
TCL: Setting parameter alchLambda to 0.9000000000000002
Info: NONBONDED TABLE R-SQUARED SPACING: 0.0625
Info: NONBONDED TABLE SIZE: 705 POINTS
TCL: Setting parameter alchLambda2 to 0.9500000000000003
Info: NONBONDED TABLE R-SQUARED SPACING: 0.0625
Info: NONBONDED TABLE SIZE: 705 POINTS
TCL: Running for 1500000 steps
ETITLE: TS BOND ANGLE DIHED IMPRP ELECT VDW BOUNDARY MISC KINETIC TOTAL TEMP POTENTIAL TOTALAVG TEMPAVG PRESSURE GPRESSURE VOLUME PRESSAVG GPRESSAVG
ENERGY: 0 3.1657 9.6049 5.8494 0.0000 -10553.4532 1306.6481 0.0000 0.0000 1790.6179 -7437.5670 305.2439 -9228.1850 -7437.5670 305.2439 -1194.8902 -1114.3462 30779.3463 -1194.8902 -1114.3462
ENERGY: 300000 3.0252 7.5962 5.9607 0.0000 -10752.0556 1421.5192 0.0000 0.0000 1762.7477 -7551.2067 300.4929 -9313.9544 -7479.8597 303.5237 -296.5020 -238.6156 30407.8027 -561.7906 -497.5491
ENERGY: 600000 2.2688 5.9495 7.5802 0.0000 -10419.6373 1252.2286 0.0000 0.0000 1782.6489 -7368.9612 303.8854 -9151.6102 -7469.9206 303.7762 -1396.2461 -1315.5293 31238.8819 -673.6726 -603.6958
ENERGY: 900000 3.3520 8.9836 6.4734 0.0000 -10637.3694 1353.9947 0.0000 0.0000 1775.1730 -7489.3928 302.6110 -9264.5658 -7465.0989 302.2370 -786.7549 -759.3809 30536.6556 -606.3656 -545.2554
ENERGY: 1200000 0.8775 7.3102 6.2010 0.0000 -10670.1786 1407.6839 0.0000 0.0000 1788.1129 -7459.9931 304.8168 -9248.1060 -7468.2004 302.2183 75.1364 110.6446 30048.0234 -399.6601 -344.4952
ENERGY: 1500000 4.6930 9.7715 7.8360 0.0000 -10563.8731 1369.3795 0.0000 0.0000 1808.8659 -7363.3273 308.3546 -9172.1932 -7467.4802 302.6704 -161.2464 -71.6001 30201.6170 -296.9795 -234.3374
TCL: Running FEP window  20: Lambda1 0.9500000000000003 Lambda2 1.0    [dLambda 0.04999999999999971]
TCL: Setting parameter firsttimestep to 0
TCL: Setting parameter alchLambda to 0.9500000000000003
Info: NONBONDED TABLE R-SQUARED SPACING: 0.0625
Info: NONBONDED TABLE SIZE: 705 POINTS
TCL: Setting parameter alchLambda2 to 1.0
Info: NONBONDED TABLE R-SQUARED SPACING: 0.0625
Info: NONBONDED TABLE SIZE: 705 POINTS
TCL: Running for 1500000 steps
ETITLE: TS BOND ANGLE DIHED IMPRP ELECT VDW BOUNDARY MISC KINETIC TOTAL TEMP POTENTIAL TOTALAVG TEMPAVG PRESSURE GPRESSURE VOLUME PRESSAVG GPRESSAVG
ENERGY: 0 4.6930 9.7715 7.8360 0.0000 -10565.3541 1369.7324 0.0000 0.0000 1807.9827 -7365.3386 308.2040 -9173.3213 -7365.3386 308.2040 -122.7004 -51.3836 30201.6170 -122.7004 -51.3836
ENERGY: 300000 6.1642 7.2597 6.2646 0.0000 -10786.8423 1457.2504 0.0000 0.0000 1797.6663 -7512.2370 306.4454 -9309.9033 -7474.4716 302.6480 38.0664 143.7774 30353.0134 191.4746 239.5385
ENERGY: 600000 1.4410 6.9989 7.5771 0.0000 -10674.8235 1390.7294 0.0000 0.0000 1757.4330 -7510.6441 299.5869 -9268.0771 -7489.7071 301.0127 -419.3725 -340.2664 30239.8495 313.8683 377.7099
ENERGY: 900000 1.8821 9.6250 5.6345 0.0000 -10655.7141 1411.8031 0.0000 0.0000 1735.6385 -7491.1310 295.8716 -9226.7694 -7485.9141 300.0910 -35.3348 18.5715 30319.7442 251.6262 318.4718
ENERGY: 1200000 0.6734 14.1056 6.5789 0.0000 -10502.5599 1280.6231 0.0000 0.0000 1812.3198 -7388.2592 308.9434 -9200.5790 -7480.6561 300.6054 -1096.6537 -983.1573 30640.3073 -21.6029 46.0605
ENERGY: 1500000 1.7948 13.0529 6.3806 0.0000 -10729.8495 1410.8489 0.0000 0.0000 1769.1711 -7528.6011 301.5879 -9297.7722 -7488.8723 299.7200 -85.3600 -13.3667 30005.8856 25.0291 88.7104
TCL: Exiting due to exit command.
