Info: SIMULATION PARAMETERS:
Info: TIMESTEP               2
Info: NUMBER OF STEPS        0
Info: STEPS PER CYCLE        10
Info: PERIODIC CELL BASIS 1  30.7467 0 0
Info: PERIODIC CELL BASIS 2  0 31.1202 0
Info: PERIODIC CELL BASIS 3  0 0 31.8127
Info: PERIODIC CELL CENTER   0 0 0
Info: WRAPPING WATERS AROUND PERIODIC BOUNDARIES ON OUTPUT.
Info: WRAPPING ALL CLUSTERS AROUND PERIODIC BOUNDARIES ON OUTPUT.
Info: FIRST LDB TIMESTEP     50
Info: LAST LDB TIMESTEP     -1
Info: HOM BACKGROUND SCALING 1
Info: PME BACKGROUND SCALING 1
Info: MIN ATOMS PER PATCH    40
Info: EMPTY PATCH LOAD       40 ATOMS
Info: VELOCITY FILE          mobley_4188615_equil.vel
Info: CENTER OF MASS MOVING INITIALLY? NO
Info: DIELECTRIC             1
Info: EXCLUDE                SCALED ONE-FOUR
Info: 1-4 ELECTROSTATICS SCALED BY 0.833333
Info: MODIFIED 1-4 VDW PARAMETERS WILL BE USED
Info: DCD FILENAME           mobley_4188615_prod.dcd
Info: DCD FREQUENCY          100000
Info: DCD FIRST STEP         100000
Info: DCD FILE WILL CONTAIN UNIT CELL DATA
Info: XST FILENAME           mobley_4188615_prod.xst
Info: XST FREQUENCY          100000
Info: NO VELOCITY DCD OUTPUT
Info: NO FORCE DCD OUTPUT
Info: OUTPUT FILENAME        mobley_4188615_prod
Info: BINARY OUTPUT FILES WILL BE USED
Info: RESTART FILENAME       mobley_4188615_prod.restart
Info: RESTART FREQUENCY      100000
Info: BINARY RESTART FILES WILL BE USED
Info: CUTOFF                 9
Info: PAIRLIST DISTANCE      11
Info: PAIRLIST SHRINK RATE   0.01
Info: PAIRLIST GROW RATE     0.01
Info: PAIRLIST TRIGGER       0.3
Info: PAIRLISTS PER CYCLE    2
Info: PAIRLISTS ENABLED
Info: MARGIN                 2
Info: HYDROGEN GROUP CUTOFF  2.5
Info: PATCH DIMENSION        15.5
Info: ENERGY OUTPUT STEPS    100000
Info: ENERGY EVALUATION STEPS    100000
Info: OUTPUT ENERGY PRECISION 4
Info: CROSSTERM ENERGY INCLUDED IN DIHEDRAL
Info: TIMING OUTPUT STEPS    1000000
Info: PRESSURE OUTPUT STEPS  100000
Info: ALCHEMICAL FEP ON
Info: FEP CURRENT LAMBDA VALUE     1
Info: FEP COMPARISON LAMBDA VALUE  0.95
Info: FEP INTRA-ALCHEMICAL NON-BONDED INTERACTIONS WILL BE RETAINED
Info: FEP INTRA-ALCHEMICAL BONDED INTERACTIONS WILL BE RETAINED
Info: FEP VDW SHIFTING COEFFICIENT 5
Info: FEP ELEC. ACTIVE FOR ANNIHILATED PARTICLES BETWEEN LAMBDA = 0 AND LAMBDA = 0.5
Info: FEP ELEC. ACTIVE FOR EXNIHILATED PARTICLES BETWEEN LAMBDA = 0.5 AND LAMBDA = 1
Info: FEP VDW ACTIVE FOR ANNIHILATED PARTICLES BETWEEN LAMBDA = 0 AND LAMBDA = 1
Info: FEP VDW ACTIVE FOR EXNIHILATED PARTICLES BETWEEN LAMBDA = 0 AND LAMBDA = 1
Info: FEP BOND ACTIVE FOR ANNIHILATED PARTICLES BETWEEN LAMBDA = 1 AND LAMBDA = 1
Info: FEP BOND ACTIVE FOR EXNIHILATED PARTICLES BETWEEN LAMBDA = 0 AND LAMBDA = 0
Info: LANGEVIN DYNAMICS ACTIVE
Info: LANGEVIN TEMPERATURE   300
Info: LANGEVIN USING BBK INTEGRATOR
Info: LANGEVIN DAMPING COEFFICIENT IS 1 INVERSE PS
Info: LANGEVIN DYNAMICS APPLIED TO HYDROGENS
Info: LANGEVIN PISTON PRESSURE CONTROL ACTIVE
Info:        TARGET PRESSURE IS 1.01325 BAR
Info:     OSCILLATION PERIOD IS 50 FS
Info:             DECAY TIME IS 25 FS
Info:     PISTON TEMPERATURE IS 300 K
Info:       PRESSURE CONTROL IS GROUP-BASED
Info:    INITIAL STRAIN RATE IS 0.00047457 0.00047457 0.00047457
Info:       CELL FLUCTUATION IS ISOTROPIC
Info: PARTICLE MESH EWALD (PME) ACTIVE
Info: PME TOLERANCE               1e-06
Info: PME EWALD COEFFICIENT       0.348832
Info: PME INTERPOLATION ORDER     4
Info: PME GRID DIMENSIONS         32 32 32
Info: PME MAXIMUM GRID SPACING    1
Info: PME CALCULATION WILL BE PERFORMED ON GPU
Info: FULL ELECTROSTATIC EVALUATION FREQUENCY      2
Info: USING VERLET I (r-RESPA) MTS SCHEME.
Info: C1 SPLITTING OF LONG RANGE ELECTROSTATICS
Info: PLACING ATOMS IN PATCHES BY HYDROGEN GROUPS
Info: RIGID BONDS TO HYDROGEN : ALL
Info:         ERROR TOLERANCE : 1e-08
Info:          MAX ITERATIONS : 100
Info: RIGID WATER USING SETTLE ALGORITHM
Info: RANDOM NUMBER SEED     1743803522
Info: USE HYDROGEN BONDS?    NO
Info: Using AMBER format force field!
Info: AMBER PARM FILE        mobley_4188615.prmtop
Info: COORDINATE PDB         mobley_4188615.pdb
Info: Exclusions will be read from PARM file!
Info: SCNB (VDW SCALING)     2
Info: USING ARITHMETIC MEAN TO COMBINE L-J SIGMA PARAMETERS
Info: BINARY COORDINATES     mobley_4188615_equil.coor
Info: SUMMARY OF PARAMETERS:
Info: 9 BONDS
Info: 10 ANGLES
Info:   10 HARMONIC
Info:   0 COSINE-BASED
Info: 6 DIHEDRAL
Info: 0 IMPROPER
Info: 0 CROSSTERM
Info: 0 VDW
Info: 36 VDW_PAIRS
Info: 0 NBTHOLE_PAIRS
Info: To read alchdata from file: mobley_4188615.pdb
Info: To read alchflag data from column: 5
Info: STRUCTURE SUMMARY:
Info: 2995 ATOMS
Info: 2995 BONDS
Info: 36 ANGLES
Info: 52 DIHEDRALS
Info: 0 IMPROPERS
Info: 0 CROSSTERMS
Info: 3072 EXCLUSIONS
Info: 2984 RIGID BONDS
Info: ALCH: 0 ATOMS TO DISAPPEAR IN FINAL STATE
Info: ALCH: 22 ATOMS TO APPEAR IN FINAL STATE
Info: 6001 DEGREES OF FREEDOM
Info: 1002 HYDROGEN GROUPS
Info: 4 ATOMS IN LARGEST HYDROGEN GROUP
Info: 1002 MIGRATION GROUPS
Info: 4 ATOMS IN LARGEST MIGRATION GROUP
Info: TOTAL MASS = 18003 amu
Info: TOTAL CHARGE = 0.000400066 e
Info: MASS DENSITY = 0.98212 g/cm^3
Info: ATOM DENSITY = 0.0983912 atoms/A^3
Info: ADDED 0 IMPLICIT EXCLUSIONS
Info: NONBONDED TABLE R-SQUARED SPACING: 0.0625
Info: NONBONDED TABLE SIZE: 705 POINTS
Info: REMOVING COM VELOCITY -0.150143 -0.038031 0.0620775
Info: Use 3D box decompostion in PME FFT.
Info: Updated CUDA force table with 4096 elements.
Info: Updated CUDA LJ table with 8 x 8 elements.
Info: Found 21 unique exclusion lists needing 60 bytes
TCL: Running for 1500000 steps
ETITLE: TS BOND ANGLE DIHED IMPRP ELECT VDW BOUNDARY MISC KINETIC TOTAL TEMP POTENTIAL TOTALAVG TEMPAVG PRESSURE GPRESSURE VOLUME PRESSAVG GPRESSAVG
ENERGY: 0 2.8118 5.8561 5.1942 0.0000 -10855.5910 1461.8361 0.0000 0.0000 1812.4269 -7567.4659 303.9676 -9379.8928 -7567.4659 303.9676 121.2680 203.9563 30439.7266 121.2680 203.9563
ENERGY: 300000 3.4085 7.2205 7.1738 0.0000 -10718.9494 1381.7199 0.0000 0.0000 1808.9966 -7510.4301 303.3923 -9319.4267 -7505.3208 304.0557 -560.9921 -561.8070 30987.7559 10.0671 58.3771
ENERGY: 600000 7.1408 11.3441 7.9580 0.0000 -10808.2664 1433.9387 0.0000 0.0000 1762.1237 -7585.7610 295.5311 -9347.8848 -7525.2537 302.4042 -252.7108 -197.2581 31023.3226 27.7790 71.9939
ENERGY: 900000 2.9476 2.7783 7.4104 0.0000 -10894.1226 1514.6013 0.0000 0.0000 1860.9011 -7505.4840 312.0973 -9366.3851 -7525.9152 303.5375 334.5515 366.9290 30826.4115 -55.8902 -8.9000
ENERGY: 1200000 2.9034 7.2626 7.9843 0.0000 -10790.8473 1450.9096 0.0000 0.0000 1809.8242 -7511.9633 303.5311 -9321.7874 -7534.3675 302.4466 -64.4637 14.5294 31241.9025 -71.4693 -18.4230
ENERGY: 1500000 4.6761 7.7426 11.1610 0.0000 -10789.0808 1410.9634 0.0000 0.0000 1839.1989 -7515.3389 308.4576 -9354.5378 -7535.6156 302.2118 -422.9593 -371.2724 30959.6179 -86.9463 -34.1373
TCL: Running FEP window   2: Lambda1 0.95   Lambda2 0.8999999999999999 [dLambda -0.050000000000000044]
TCL: Setting parameter firsttimestep to 0
TCL: Setting parameter alchLambda to 0.95
Info: NONBONDED TABLE R-SQUARED SPACING: 0.0625
Info: NONBONDED TABLE SIZE: 705 POINTS
TCL: Setting parameter alchLambda2 to 0.8999999999999999
Info: NONBONDED TABLE R-SQUARED SPACING: 0.0625
Info: NONBONDED TABLE SIZE: 705 POINTS
TCL: Running for 1500000 steps
ETITLE: TS BOND ANGLE DIHED IMPRP ELECT VDW BOUNDARY MISC KINETIC TOTAL TEMP POTENTIAL TOTALAVG TEMPAVG PRESSURE GPRESSURE VOLUME PRESSAVG GPRESSAVG
ENERGY: 0 4.6761 7.7426 11.1610 0.0000 -10786.7707 1410.9500 0.0000 0.0000 1838.3280 -7513.9132 308.3115 -9352.2412 -7513.9132 308.3115 -469.7079 -383.6268 30959.6179 -469.7079 -383.6268
ENERGY: 300000 5.9793 9.3823 11.8422 0.0000 -10870.7786 1470.1961 0.0000 0.0000 1817.8197 -7555.5589 304.8720 -9373.3786 -7545.0630 300.2372 -209.3363 -212.5698 30911.6987 -31.5843 30.1557
ENERGY: 600000 5.5320 12.4916 5.6243 0.0000 -10773.9935 1410.1510 0.0000 0.0000 1790.7872 -7549.4073 300.3383 -9340.1945 -7568.8871 298.7049 -821.1680 -724.2059 31448.9804 2.3442 85.5520
ENERGY: 900000 3.5150 13.8144 5.3970 0.0000 -10938.1808 1527.4180 0.0000 0.0000 1779.7282 -7608.3082 298.4836 -9388.0364 -7565.4506 298.8175 492.0523 519.6484 30830.1897 -18.0684 42.1513
ENERGY: 1200000 9.4668 6.4631 10.9755 0.0000 -10651.2631 1361.5065 0.0000 0.0000 1785.8774 -7476.9738 299.5149 -9262.8512 -7556.9928 298.6707 -535.8669 -524.3169 30798.4518 -110.5198 -53.7883
ENERGY: 1500000 4.2563 4.9682 11.5510 0.0000 -10742.6722 1325.0425 0.0000 0.0000 1827.8661 -7568.9881 306.5569 -9396.8542 -7561.1964 299.5549 -1213.0891 -1096.7322 30809.6246 -194.8990 -130.4561
TCL: Running FEP window   3: Lambda1 0.8999999999999999 Lambda2 0.8499999999999999 [dLambda -0.050000000000000044]
TCL: Setting parameter firsttimestep to 0
TCL: Setting parameter alchLambda to 0.8999999999999999
Info: NONBONDED TABLE R-SQUARED SPACING: 0.0625
Info: NONBONDED TABLE SIZE: 705 POINTS
TCL: Setting parameter alchLambda2 to 0.8499999999999999
Info: NONBONDED TABLE R-SQUARED SPACING: 0.0625
Info: NONBONDED TABLE SIZE: 705 POINTS
TCL: Running for 1500000 steps
ETITLE: TS BOND ANGLE DIHED IMPRP ELECT VDW BOUNDARY MISC KINETIC TOTAL TEMP POTENTIAL TOTALAVG TEMPAVG PRESSURE GPRESSURE VOLUME PRESSAVG GPRESSAVG
ENERGY: 0 4.2563 4.9682 11.5510 0.0000 -10741.0125 1324.9498 0.0000 0.0000 1826.9353 -7568.3519 306.4008 -9395.2872 -7568.3519 306.4008 -1199.8042 -1106.4020 30809.6246 -1199.8042 -1106.4020
ENERGY: 300000 2.0406 8.4145 10.2990 0.0000 -10966.4701 1557.0912 0.0000 0.0000 1773.9454 -7614.6793 297.5137 -9388.6247 -7588.9168 299.2927 1114.4600 1150.3538 30382.5247 -351.8269 -286.8333
ENERGY: 600000 4.5607 5.1549 9.6950 0.0000 -10986.8552 1500.3730 0.0000 0.0000 1790.0353 -7677.0363 300.2122 -9467.0716 -7617.5973 299.0319 182.9496 250.7206 30416.8306 -179.1386 -121.1112
ENERGY: 900000 4.9114 6.3447 11.6961 0.0000 -10896.7123 1501.7903 0.0000 0.0000 1777.3386 -7594.6314 298.0828 -9371.9700 -7605.0312 298.6379 349.9825 445.5584 30537.3781 6.5788 75.9000
ENERGY: 1200000 4.3998 5.3533 8.1378 0.0000 -10935.4108 1498.2333 0.0000 0.0000 1762.5255 -7656.7611 295.5985 -9419.2866 -7601.6229 298.8558 232.4995 274.2910 30738.5642 -53.7136 19.9770
ENERGY: 1500000 6.9835 17.2182 4.3593 0.0000 -10883.3102 1489.2355 0.0000 0.0000 1750.4463 -7615.0674 293.5726 -9365.5137 -7593.9396 299.1662 293.8201 304.5936 30856.2571 -30.4640 40.3606
TCL: Running FEP window   4: Lambda1 0.8499999999999999 Lambda2 0.7999999999999998 [dLambda -0.050000000000000044]
TCL: Setting parameter firsttimestep to 0
TCL: Setting parameter alchLambda to 0.8499999999999999
Info: NONBONDED TABLE R-SQUARED SPACING: 0.0625
Info: NONBONDED TABLE SIZE: 705 POINTS
TCL: Setting parameter alchLambda2 to 0.7999999999999998
Info: NONBONDED TABLE R-SQUARED SPACING: 0.0625
Info: NONBONDED TABLE SIZE: 705 POINTS
TCL: Running for 1500000 steps
ETITLE: TS BOND ANGLE DIHED IMPRP ELECT VDW BOUNDARY MISC KINETIC TOTAL TEMP POTENTIAL TOTALAVG TEMPAVG PRESSURE GPRESSURE VOLUME PRESSAVG GPRESSAVG
ENERGY: 0 6.9834 17.2181 4.3593 0.0000 -10881.3847 1489.2045 0.0000 0.0000 1749.5743 -7614.0449 293.4264 -9363.6193 -7614.0449 293.4264 232.9546 296.9656 30856.2571 232.9546 296.9656
ENERGY: 300000 6.5101 8.2005 9.6301 0.0000 -10896.5337 1485.1071 0.0000 0.0000 1759.4276 -7627.6583 295.0789 -9387.0860 -7576.6933 297.4961 182.0398 312.8044 30472.4547 250.4451 349.7327
ENERGY: 600000 2.1282 8.3559 10.0137 0.0000 -10848.0667 1415.0154 0.0000 0.0000 1808.7701 -7603.7834 303.3543 -9412.5535 -7585.4036 300.8137 -323.7962 -236.4626 30549.2103 224.0133 308.7882
ENERGY: 900000 2.7599 5.4052 11.7413 0.0000 -10914.8862 1515.9412 0.0000 0.0000 1824.3266 -7554.7120 305.9633 -9379.0386 -7582.8898 302.4646 179.2521 279.4214 31370.0137 173.4448 258.1683
ENERGY: 1200000 3.5542 9.9203 8.2692 0.0000 -10714.3409 1299.1959 0.0000 0.0000 1829.7069 -7563.6943 306.8657 -9393.4012 -7575.2332 302.1773 -1384.4390 -1271.3486 31023.3122 29.2591 110.3088
ENERGY: 1500000 2.8771 6.2191 13.7448 0.0000 -10765.6551 1391.1472 0.0000 0.0000 1852.0701 -7499.5968 310.6163 -9351.6669 -7564.3974 302.9124 -436.3300 -429.3886 31204.1986 -50.1939 22.7825
TCL: Running FEP window   5: Lambda1 0.7999999999999998 Lambda2 0.7499999999999998 [dLambda -0.050000000000000044]
TCL: Setting parameter firsttimestep to 0
TCL: Setting parameter alchLambda to 0.7999999999999998
Info: NONBONDED TABLE R-SQUARED SPACING: 0.0625
Info: NONBONDED TABLE SIZE: 705 POINTS
TCL: Setting parameter alchLambda2 to 0.7499999999999998
Info: NONBONDED TABLE R-SQUARED SPACING: 0.0625
Info: NONBONDED TABLE SIZE: 705 POINTS
TCL: Running for 1500000 steps
ETITLE: TS BOND ANGLE DIHED IMPRP ELECT VDW BOUNDARY MISC KINETIC TOTAL TEMP POTENTIAL TOTALAVG TEMPAVG PRESSURE GPRESSURE VOLUME PRESSAVG GPRESSAVG
ENERGY: 0 2.8771 6.2191 13.7448 0.0000 -10763.4742 1390.8282 0.0000 0.0000 1851.1864 -7498.6186 310.4681 -9349.8051 -7498.6186 310.4681 -505.4474 -438.6811 31204.1986 -505.4474 -438.6811
ENERGY: 300000 4.3438 7.3868 7.5877 0.0000 -10816.1935 1479.8021 0.0000 0.0000 1770.7939 -7546.2792 296.9852 -9317.0731 -7557.1870 300.7224 230.5010 306.8165 30683.6766 -96.5182 -41.1058
ENERGY: 600000 3.9374 6.0485 12.0971 0.0000 -10697.3640 1415.9928 0.0000 0.0000 1830.6967 -7428.5915 307.0317 -9259.2882 -7538.4619 301.1688 -385.0145 -240.0997 31103.1269 -162.4324 -90.2064
ENERGY: 900000 4.4590 6.3301 8.4310 0.0000 -10670.2490 1375.0309 0.0000 0.0000 1755.7653 -7520.2328 294.4647 -9275.9981 -7531.7314 300.0348 -482.0976 -464.5577 30779.0762 -145.9105 -88.4563
ENERGY: 1200000 3.3864 9.1291 8.0555 0.0000 -10912.1246 1470.9661 0.0000 0.0000 1803.0100 -7617.5775 302.3882 -9420.5875 -7538.1713 300.3526 -142.9458 -67.4834 30994.0142 -136.2187 -71.0750
ENERGY: 1500000 2.3831 7.9869 6.5394 0.0000 -10963.5160 1552.8215 0.0000 0.0000 1771.9346 -7621.8505 297.1765 -9393.7851 -7537.5195 299.8749 808.6070 783.2008 30450.9879 -46.8563 16.5657
TCL: Running FEP window   6: Lambda1 0.7499999999999998 Lambda2 0.6999999999999997 [dLambda -0.050000000000000044]
TCL: Setting parameter firsttimestep to 0
TCL: Setting parameter alchLambda to 0.7499999999999998
Info: NONBONDED TABLE R-SQUARED SPACING: 0.0625
Info: NONBONDED TABLE SIZE: 705 POINTS
TCL: Setting parameter alchLambda2 to 0.6999999999999997
Info: NONBONDED TABLE R-SQUARED SPACING: 0.0625
Info: NONBONDED TABLE SIZE: 705 POINTS
TCL: Running for 1500000 steps
ETITLE: TS BOND ANGLE DIHED IMPRP ELECT VDW BOUNDARY MISC KINETIC TOTAL TEMP POTENTIAL TOTALAVG TEMPAVG PRESSURE GPRESSURE VOLUME PRESSAVG GPRESSAVG
ENERGY: 0 2.3831 7.9869 6.5394 0.0000 -10961.9756 1552.8628 0.0000 0.0000 1771.0332 -7621.1702 297.0253 -9392.2033 -7621.1702 297.0253 688.3986 770.4715 30450.9879 688.3986 770.4715
ENERGY: 300000 5.9351 6.9806 11.9484 0.0000 -10745.4487 1371.7811 0.0000 0.0000 1812.3173 -7536.4863 303.9492 -9348.8036 -7569.7881 300.5739 -529.7761 -425.4326 30786.1297 1.5802 63.4307
ENERGY: 600000 3.8650 9.2337 11.2853 0.0000 -10749.1162 1476.5867 0.0000 0.0000 1717.7198 -7530.4257 288.0840 -9248.1456 -7552.7021 297.5727 455.9139 497.6933 30746.1696 -32.7674 30.3176
ENERGY: 900000 3.8803 6.3570 7.2017 0.0000 -10795.8972 1457.6421 0.0000 0.0000 1771.8841 -7548.9320 297.1680 -9320.8161 -7553.3350 298.6865 17.7650 62.3296 30932.4273 -78.9865 -17.3414
ENERGY: 1200000 2.3283 5.7228 9.1932 0.0000 -10877.8906 1438.9840 0.0000 0.0000 1806.6586 -7615.0036 303.0002 -9421.6623 -7549.1734 300.7322 -260.8836 -235.7583 30704.5257 -109.1374 -49.1198
ENERGY: 1500000 5.8657 8.0788 10.8587 0.0000 -10776.4355 1413.0748 0.0000 0.0000 1772.4590 -7566.0986 297.2644 -9338.5575 -7555.2471 300.2795 -275.3271 -253.4588 30969.7744 -144.4974 -92.8868
TCL: Running FEP window   7: Lambda1 0.6999999999999997 Lambda2 0.6499999999999997 [dLambda -0.050000000000000044]
TCL: Setting parameter firsttimestep to 0
TCL: Setting parameter alchLambda to 0.6999999999999997
Info: NONBONDED TABLE R-SQUARED SPACING: 0.0625
Info: NONBONDED TABLE SIZE: 705 POINTS
TCL: Setting parameter alchLambda2 to 0.6499999999999997
Info: NONBONDED TABLE R-SQUARED SPACING: 0.0625
Info: NONBONDED TABLE SIZE: 705 POINTS
TCL: Running for 1500000 steps
ETITLE: TS BOND ANGLE DIHED IMPRP ELECT VDW BOUNDARY MISC KINETIC TOTAL TEMP POTENTIAL TOTALAVG TEMPAVG PRESSURE GPRESSURE VOLUME PRESSAVG GPRESSAVG
ENERGY: 0 5.8657 8.0788 10.8587 0.0000 -10775.4648 1413.2204 0.0000 0.0000 1771.5821 -7565.8591 297.1174 -9337.4412 -7565.8591 297.1174 -329.4780 -260.5679 30969.7744 -329.4780 -260.5679
ENERGY: 300000 4.7085 5.8987 8.0612 0.0000 -10665.8526 1407.8526 0.0000 0.0000 1837.6237 -7401.7079 308.1934 -9239.3316 -7526.8710 298.2613 -83.8557 -16.4848 31055.6700 -118.2567 -78.1219
ENERGY: 600000 2.3403 5.6679 11.1300 0.0000 -10899.2141 1541.0946 0.0000 0.0000 1786.4209 -7552.5603 299.6060 -9338.9812 -7553.3250 297.3742 315.8830 378.6934 31220.2292 -298.8078 -237.1520
ENERGY: 900000 4.4454 7.7163 8.9025 0.0000 -10781.0044 1394.4049 0.0000 0.0000 1856.2732 -7509.2620 311.3212 -9365.5352 -7536.2860 299.9888 -431.2957 -457.1920 30839.8013 -309.2936 -247.1856
ENERGY: 1200000 4.8441 11.4202 7.9319 0.0000 -10807.4838 1386.4909 0.0000 0.0000 1783.2736 -7613.5230 299.0782 -9396.7966 -7555.6387 299.0417 -703.7116 -568.4917 30703.1172 -258.5248 -193.8971
ENERGY: 1500000 5.1323 3.0527 10.7733 0.0000 -10672.3588 1326.7419 0.0000 0.0000 1791.9008 -7534.7577 300.5251 -9326.6585 -7550.8001 299.4288 -1098.2249 -1049.1953 30880.2060 -236.0702 -169.5382
TCL: Running FEP window   8: Lambda1 0.6499999999999997 Lambda2 0.5999999999999996 [dLambda -0.050000000000000044]
TCL: Setting parameter firsttimestep to 0
TCL: Setting parameter alchLambda to 0.6499999999999997
Info: NONBONDED TABLE R-SQUARED SPACING: 0.0625
Info: NONBONDED TABLE SIZE: 705 POINTS
TCL: Setting parameter alchLambda2 to 0.5999999999999996
Info: NONBONDED TABLE R-SQUARED SPACING: 0.0625
Info: NONBONDED TABLE SIZE: 705 POINTS
TCL: Running for 1500000 steps
ETITLE: TS BOND ANGLE DIHED IMPRP ELECT VDW BOUNDARY MISC KINETIC TOTAL TEMP POTENTIAL TOTALAVG TEMPAVG PRESSURE GPRESSURE VOLUME PRESSAVG GPRESSAVG
ENERGY: 0 5.1323 3.0527 10.7733 0.0000 -10671.1020 1326.2827 0.0000 0.0000 1790.9837 -7534.8773 300.3713 -9325.8609 -7534.8773 300.3713 -1145.6416 -1062.9412 30880.2060 -1145.6416 -1062.9412
ENERGY: 300000 3.8910 4.2831 9.0490 0.0000 -10899.9310 1513.9953 0.0000 0.0000 1824.3034 -7544.4092 305.9594 -9368.7126 -7544.0039 302.2803 352.4026 412.6473 30711.3576 410.9391 489.3004
ENERGY: 600000 6.0295 7.2123 10.4655 0.0000 -10937.8666 1533.6338 0.0000 0.0000 1736.1409 -7644.3846 291.1734 -9380.5255 -7544.1201 300.5835 421.8469 486.8424 30570.5053 275.1107 337.7101
ENERGY: 900000 4.4766 10.8309 7.3043 0.0000 -10910.8603 1547.7194 0.0000 0.0000 1789.1932 -7551.3359 300.0710 -9340.5291 -7542.0600 300.4177 708.5055 720.3929 30497.2902 247.7963 314.9732
ENERGY: 1200000 5.6865 6.4028 6.4458 0.0000 -10762.0124 1377.0669 0.0000 0.0000 1783.6509 -7582.7594 299.1415 -9366.4104 -7552.5467 299.7186 -832.3779 -743.6090 30683.4716 186.5894 253.2285
ENERGY: 1500000 5.1182 13.5430 8.7095 0.0000 -10874.2873 1471.2275 0.0000 0.0000 1757.0206 -7618.6684 294.6752 -9375.6890 -7561.5012 298.7055 -74.3169 17.0262 30824.2878 135.7937 198.8234
TCL: Running FEP window   9: Lambda1 0.5999999999999996 Lambda2 0.5499999999999996 [dLambda -0.050000000000000044]
TCL: Setting parameter firsttimestep to 0
TCL: Setting parameter alchLambda to 0.5999999999999996
Info: NONBONDED TABLE R-SQUARED SPACING: 0.0625
Info: NONBONDED TABLE SIZE: 705 POINTS
TCL: Setting parameter alchLambda2 to 0.5499999999999996
Info: NONBONDED TABLE R-SQUARED SPACING: 0.0625
Info: NONBONDED TABLE SIZE: 705 POINTS
TCL: Running for 1500000 steps
ETITLE: TS BOND ANGLE DIHED IMPRP ELECT VDW BOUNDARY MISC KINETIC TOTAL TEMP POTENTIAL TOTALAVG TEMPAVG PRESSURE GPRESSURE VOLUME PRESSAVG GPRESSAVG
ENERGY: 0 5.1182 13.5430 8.7095 0.0000 -10873.6162 1471.3854 0.0000 0.0000 1756.1618 -7618.6983 294.5312 -9374.8601 -7618.6983 294.5312 -67.5770 13.6373 30824.2878 -67.5770 13.6373
ENERGY: 300000 1.6593 6.2631 10.9637 0.0000 -10834.4714 1479.7622 0.0000 0.0000 1791.2824 -7544.5406 300.4214 -9335.8230 -7571.1440 300.2105 67.5368 98.5456 30713.0896 187.2677 229.4644
ENERGY: 600000 1.6881 6.4868 11.6593 0.0000 -10858.7065 1513.0147 0.0000 0.0000 1782.8553 -7543.0023 299.0080 -9325.8577 -7555.9519 298.3783 369.3727 370.5074 31030.7018 -117.2366 -69.9086
ENERGY: 900000 5.5832 9.2433 6.6640 0.0000 -10774.7030 1378.8636 0.0000 0.0000 1794.9408 -7579.4080 301.0349 -9374.3488 -7559.3316 298.8531 -1015.6182 -921.2130 31448.8453 -132.6062 -71.5755
ENERGY: 1200000 8.4705 7.6837 11.0724 0.0000 -10946.3336 1492.5032 0.0000 0.0000 1784.3420 -7642.2619 299.2574 -9426.6038 -7548.4359 300.6028 -23.4394 23.2039 30461.5153 -70.3965 -6.4183
ENERGY: 1500000 1.7827 6.2738 8.3050 0.0000 -10867.1530 1502.8257 0.0000 0.0000 1777.6550 -7570.3107 298.1359 -9347.9657 -7546.9752 300.7964 520.2990 538.2680 30418.5259 -110.5744 -51.9358
TCL: Running FEP window  10: Lambda1 0.5499999999999996 Lambda2 0.4999999999999996 [dLambda -0.04999999999999999]
TCL: Setting parameter firsttimestep to 0
TCL: Setting parameter alchLambda to 0.5499999999999996
Info: NONBONDED TABLE R-SQUARED SPACING: 0.0625
Info: NONBONDED TABLE SIZE: 705 POINTS
TCL: Setting parameter alchLambda2 to 0.4999999999999996
Info: NONBONDED TABLE R-SQUARED SPACING: 0.0625
Info: NONBONDED TABLE SIZE: 705 POINTS
TCL: Running for 1500000 steps
ETITLE: TS BOND ANGLE DIHED IMPRP ELECT VDW BOUNDARY MISC KINETIC TOTAL TEMP POTENTIAL TOTALAVG TEMPAVG PRESSURE GPRESSURE VOLUME PRESSAVG GPRESSAVG
ENERGY: 0 1.7827 6.2738 8.3050 0.0000 -10867.1132 1503.5071 0.0000 0.0000 1776.7742 -7570.4703 297.9881 -9347.2445 -7570.4703 297.9881 472.7243 536.3428 30418.5259 472.7243 536.3428
ENERGY: 300000 6.4372 4.8007 11.8173 0.0000 -10708.5461 1383.2896 0.0000 0.0000 1747.0542 -7555.1470 293.0037 -9302.2012 -7532.8933 301.5707 -360.1890 -316.4823 30471.6497 -100.2974 -41.7302
ENERGY: 600000 2.2921 6.5099 13.6587 0.0000 -10851.7388 1483.9253 0.0000 0.0000 1776.6019 -7568.7510 297.9593 -9345.3529 -7537.5646 299.6220 550.4953 544.4039 30414.7948 -63.3869 -5.4844
ENERGY: 900000 3.7585 9.9610 8.5341 0.0000 -10872.9435 1485.4701 0.0000 0.0000 1815.8252 -7549.3945 304.5375 -9365.2197 -7538.2162 300.0495 257.1961 299.9055 30515.9363 -37.2592 20.8169
ENERGY: 1200000 5.6124 13.4432 9.0315 0.0000 -10725.5916 1419.5157 0.0000 0.0000 1822.5527 -7455.4362 305.6658 -9277.9889 -7530.7584 299.9330 59.3554 134.9824 30593.0216 -159.0504 -94.4877
ENERGY: 1500000 4.6673 6.7027 9.4948 0.0000 -10765.4555 1416.2270 0.0000 0.0000 1811.7758 -7516.5878 303.8584 -9328.3637 -7527.8511 300.3992 -533.3626 -442.3281 30858.9932 -107.9989 -43.8949
TCL: Running FEP window  11: Lambda1 0.4999999999999996 Lambda2 0.4499999999999996 [dLambda -0.04999999999999999]
TCL: Setting parameter firsttimestep to 0
TCL: Setting parameter alchLambda to 0.4999999999999996
Info: NONBONDED TABLE R-SQUARED SPACING: 0.0625
Info: NONBONDED TABLE SIZE: 705 POINTS
TCL: Setting parameter alchLambda2 to 0.4499999999999996
Info: NONBONDED TABLE R-SQUARED SPACING: 0.0625
Info: NONBONDED TABLE SIZE: 705 POINTS
TCL: Running for 1500000 steps
ETITLE: TS BOND ANGLE DIHED IMPRP ELECT VDW BOUNDARY MISC KINETIC TOTAL TEMP POTENTIAL TOTALAVG TEMPAVG PRESSURE GPRESSURE VOLUME PRESSAVG GPRESSAVG
ENERGY: 0 4.6673 6.7027 9.4948 0.0000 -10765.0445 1416.4497 0.0000 0.0000 1810.8912 -7516.8387 303.7100 -9327.7300 -7516.8387 303.7100 -540.9679 -448.0987 30858.9932 -540.9679 -448.0987
ENERGY: 300000 6.2749 11.3350 5.9858 0.0000 -10858.7412 1523.7162 0.0000 0.0000 1761.8569 -7549.5724 295.4863 -9311.4292 -7538.1154 302.4084 752.0796 757.4585 30550.1941 98.0368 131.5173
ENERGY: 600000 5.3954 8.6556 9.4238 0.0000 -10672.3375 1383.9166 0.0000 0.0000 1797.2433 -7467.7028 301.4211 -9264.9461 -7529.3879 301.9969 -333.9164 -255.4502 30833.0563 -131.2132 -80.3312
ENERGY: 900000 1.4152 9.4415 12.0512 0.0000 -10780.1373 1404.6182 0.0000 0.0000 1757.5166 -7595.0945 294.7584 -9352.6111 -7544.7314 300.4749 -177.6247 -126.3918 30399.3422 -29.0168 16.8540
ENERGY: 1200000 1.7059 6.8941 9.3047 0.0000 -10806.5616 1474.4732 0.0000 0.0000 1765.9396 -7548.2441 296.1711 -9314.1838 -7543.3790 301.0042 343.5074 397.4786 30448.9483 -108.5357 -57.7935
ENERGY: 1500000 2.6638 6.4841 4.9192 0.0000 -10630.5412 1366.4379 0.0000 0.0000 1779.8244 -7470.2118 298.4997 -9250.0362 -7537.5790 300.7099 -526.6336 -449.3433 30922.9004 -182.2950 -129.1275
TCL: Running FEP window  12: Lambda1 0.4499999999999996 Lambda2 0.39999999999999963 [dLambda -0.04999999999999999]
TCL: Setting parameter firsttimestep to 0
TCL: Setting parameter alchLambda to 0.4499999999999996
Info: NONBONDED TABLE R-SQUARED SPACING: 0.0625
Info: NONBONDED TABLE SIZE: 705 POINTS
TCL: Setting parameter alchLambda2 to 0.39999999999999963
Info: NONBONDED TABLE R-SQUARED SPACING: 0.0625
Info: NONBONDED TABLE SIZE: 705 POINTS
TCL: Running for 1500000 steps
ETITLE: TS BOND ANGLE DIHED IMPRP ELECT VDW BOUNDARY MISC KINETIC TOTAL TEMP POTENTIAL TOTALAVG TEMPAVG PRESSURE GPRESSURE VOLUME PRESSAVG GPRESSAVG
ENERGY: 0 2.6638 6.4841 4.9192 0.0000 -10630.5414 1366.9846 0.0000 0.0000 1778.9585 -7470.5313 298.3545 -9249.4898 -7470.5313 298.3545 -553.7441 -454.5830 30922.9004 -553.7441 -454.5830
ENERGY: 300000 2.8049 6.5728 9.2492 0.0000 -10786.2174 1380.5527 0.0000 0.0000 1797.0069 -7590.0309 301.3814 -9387.0379 -7523.1579 299.9802 -675.8400 -687.3684 30585.2712 -410.1013 -337.0519
ENERGY: 600000 5.9914 9.1012 10.5627 0.0000 -10908.9808 1542.5581 0.0000 0.0000 1790.8117 -7549.9556 300.3424 -9340.7673 -7529.3972 301.2651 615.9663 634.2346 30722.5052 -333.2317 -275.8912
ENERGY: 900000 1.3957 8.0954 8.3353 0.0000 -10792.9013 1491.1737 0.0000 0.0000 1836.7476 -7447.1536 308.0465 -9283.9012 -7505.5295 302.0000 438.4717 544.5971 31033.2742 -297.6617 -236.4578
ENERGY: 1200000 4.2689 9.7805 6.7230 0.0000 -10777.9283 1432.1015 0.0000 0.0000 1708.9433 -7616.1110 286.6120 -9325.0543 -7514.1015 301.5184 -651.4383 -567.3487 31330.7869 -304.2080 -238.5179
ENERGY: 1500000 2.0177 4.7714 10.8001 0.0000 -10775.8889 1427.5316 0.0000 0.0000 1817.5375 -7513.2305 304.8247 -9330.7680 -7509.3642 302.5541 -335.3660 -261.8584 31134.8816 -230.2723 -169.1582
TCL: Running FEP window  13: Lambda1 0.39999999999999963 Lambda2 0.34999999999999964 [dLambda -0.04999999999999999]
TCL: Setting parameter firsttimestep to 0
TCL: Setting parameter alchLambda to 0.39999999999999963
Info: NONBONDED TABLE R-SQUARED SPACING: 0.0625
Info: NONBONDED TABLE SIZE: 705 POINTS
TCL: Setting parameter alchLambda2 to 0.34999999999999964
Info: NONBONDED TABLE R-SQUARED SPACING: 0.0625
Info: NONBONDED TABLE SIZE: 705 POINTS
TCL: Running for 1500000 steps
ETITLE: TS BOND ANGLE DIHED IMPRP ELECT VDW BOUNDARY MISC KINETIC TOTAL TEMP POTENTIAL TOTALAVG TEMPAVG PRESSURE GPRESSURE VOLUME PRESSAVG GPRESSAVG
ENERGY: 0 2.0177 4.7714 10.8001 0.0000 -10775.8880 1428.1615 0.0000 0.0000 1816.6673 -7513.4699 304.6787 -9330.1372 -7513.4699 304.6787 -352.5260 -259.6936 31134.8816 -352.5260 -259.6936
ENERGY: 300000 4.2725 5.5433 11.8987 0.0000 -10696.8800 1388.7127 0.0000 0.0000 1778.4269 -7508.0261 298.2653 -9286.4529 -7477.1494 300.6193 -353.5699 -295.4540 30800.1071 78.7675 142.8113
ENERGY: 600000 8.3840 6.5001 9.6765 0.0000 -10834.7477 1454.2007 0.0000 0.0000 1840.8888 -7515.0976 308.7410 -9355.9864 -7508.5818 301.3503 -72.9991 -70.0440 30779.9187 57.0092 109.0195
ENERGY: 900000 1.3130 8.4065 8.3283 0.0000 -10866.1808 1514.0945 0.0000 0.0000 1756.1084 -7577.9300 294.5222 -9334.0384 -7539.1276 299.2614 505.6490 480.9302 30750.6215 13.4823 54.6220
ENERGY: 1200000 5.4953 6.0826 9.7052 0.0000 -10883.0020 1497.2871 0.0000 0.0000 1757.2841 -7607.1478 294.7194 -9364.4319 -7548.0152 298.9069 11.7177 41.9333 30904.7661 -73.9391 -31.9709
ENERGY: 1500000 7.2369 6.2598 8.1195 0.0000 -10808.7160 1390.3441 0.0000 0.0000 1779.1511 -7617.6046 298.3868 -9396.7557 -7540.2258 299.3410 -1006.9657 -973.9457 31050.9929 -198.6344 -154.2263
TCL: Running FEP window  14: Lambda1 0.34999999999999964 Lambda2 0.29999999999999966 [dLambda -0.04999999999999999]
TCL: Setting parameter firsttimestep to 0
TCL: Setting parameter alchLambda to 0.34999999999999964
Info: NONBONDED TABLE R-SQUARED SPACING: 0.0625
Info: NONBONDED TABLE SIZE: 705 POINTS
TCL: Setting parameter alchLambda2 to 0.29999999999999966
Info: NONBONDED TABLE R-SQUARED SPACING: 0.0625
Info: NONBONDED TABLE SIZE: 705 POINTS
TCL: Running for 1500000 steps
ETITLE: TS BOND ANGLE DIHED IMPRP ELECT VDW BOUNDARY MISC KINETIC TOTAL TEMP POTENTIAL TOTALAVG TEMPAVG PRESSURE GPRESSURE VOLUME PRESSAVG GPRESSAVG
ENERGY: 0 7.2369 6.2598 8.1195 0.0000 -10808.7164 1389.9637 0.0000 0.0000 1778.2911 -7618.8454 298.2426 -9397.1365 -7618.8454 298.2426 -1058.4250 -978.8656 31050.9929 -1058.4250 -978.8656
ENERGY: 300000 5.8537 9.0055 9.2743 0.0000 -10887.3020 1436.2377 0.0000 0.0000 1858.9208 -7568.0100 311.7652 -9426.9308 -7578.8126 304.2391 -598.9023 -501.1017 30849.3483 -206.6073 -135.3084
ENERGY: 600000 2.1658 6.4604 9.6255 0.0000 -10709.2683 1393.3584 0.0000 0.0000 1739.0455 -7558.6127 291.6606 -9297.6581 -7550.3182 303.1098 -586.8396 -541.0368 31025.0536 -142.8721 -74.0665
ENERGY: 900000 5.5928 8.4784 5.4039 0.0000 -10641.4657 1451.2297 0.0000 0.0000 1780.5197 -7390.2412 298.6163 -9170.7609 -7540.5991 302.4259 247.7643 318.8293 30902.2046 -35.2972 27.9409
ENERGY: 1200000 3.7320 8.1223 5.7583 0.0000 -10575.0735 1382.6940 0.0000 0.0000 1807.4934 -7367.2735 303.1402 -9174.7669 -7534.1846 301.6683 -547.2695 -418.1979 31123.3771 -0.4930 70.8686
ENERGY: 1500000 4.7711 6.2211 12.9059 0.0000 -10740.4581 1423.3277 0.0000 0.0000 1767.2355 -7525.9967 296.3884 -9293.2322 -7536.4468 300.6015 70.5969 170.5920 30225.6113 40.7261 109.6459
TCL: Running FEP window  15: Lambda1 0.29999999999999966 Lambda2 0.24999999999999967 [dLambda -0.04999999999999999]
TCL: Setting parameter firsttimestep to 0
TCL: Setting parameter alchLambda to 0.29999999999999966
Info: NONBONDED TABLE R-SQUARED SPACING: 0.0625
Info: NONBONDED TABLE SIZE: 705 POINTS
TCL: Setting parameter alchLambda2 to 0.24999999999999967
Info: NONBONDED TABLE R-SQUARED SPACING: 0.0625
Info: NONBONDED TABLE SIZE: 705 POINTS
TCL: Running for 1500000 steps
ETITLE: TS BOND ANGLE DIHED IMPRP ELECT VDW BOUNDARY MISC KINETIC TOTAL TEMP POTENTIAL TOTALAVG TEMPAVG PRESSURE GPRESSURE VOLUME PRESSAVG GPRESSAVG
ENERGY: 0 4.7711 6.2211 12.9059 0.0000 -10740.4594 1423.9716 0.0000 0.0000 1766.3492 -7526.2405 296.2398 -9292.5897 -7526.2405 296.2398 88.6078 166.3752 30225.6113 88.6078 166.3752
ENERGY: 300000 3.7317 7.9169 8.2844 0.0000 -10720.9785 1400.0466 0.0000 0.0000 1800.1617 -7500.8372 301.9105 -9300.9990 -7533.9219 299.6986 -276.7367 -210.2544 30625.8922 -75.0394 7.4766
ENERGY: 600000 2.6473 6.0919 7.3827 0.0000 -10764.0576 1396.1521 0.0000 0.0000 1810.9939 -7540.7897 303.7272 -9351.7836 -7524.5311 298.9604 -427.0433 -388.4497 30619.7813 -25.9598 44.4449
ENERGY: 900000 6.2130 6.4865 10.6912 0.0000 -10895.5919 1524.0542 0.0000 0.0000 1771.6241 -7576.5229 297.1244 -9348.1470 -7536.8835 299.3836 489.8842 550.1946 30426.1559 -29.4404 41.9350
ENERGY: 1200000 2.9107 9.9546 11.1388 0.0000 -10761.3723 1471.2547 0.0000 0.0000 1749.6066 -7516.5068 293.4318 -9266.1134 -7526.8834 300.3854 278.3509 337.0648 30760.2515 7.3089 76.0883
ENERGY: 1500000 2.7556 3.9066 6.8936 0.0000 -10831.9823 1488.5840 0.0000 0.0000 1762.6739 -7567.1686 295.6233 -9329.8425 -7525.6954 299.7583 71.0864 227.8143 30802.3058 29.6485 105.1912
TCL: Running FEP window  16: Lambda1 0.24999999999999967 Lambda2 0.19999999999999968 [dLambda -0.04999999999999999]
TCL: Setting parameter firsttimestep to 0
TCL: Setting parameter alchLambda to 0.24999999999999967
Info: NONBONDED TABLE R-SQUARED SPACING: 0.0625
Info: NONBONDED TABLE SIZE: 705 POINTS
TCL: Setting parameter alchLambda2 to 0.19999999999999968
Info: NONBONDED TABLE R-SQUARED SPACING: 0.0625
Info: NONBONDED TABLE SIZE: 705 POINTS
TCL: Running for 1500000 steps
ETITLE: TS BOND ANGLE DIHED IMPRP ELECT VDW BOUNDARY MISC KINETIC TOTAL TEMP POTENTIAL TOTALAVG TEMPAVG PRESSURE GPRESSURE VOLUME PRESSAVG GPRESSAVG
ENERGY: 0 2.7556 3.9066 6.8936 0.0000 -10831.9819 1489.1589 0.0000 0.0000 1761.7969 -7567.4703 295.4763 -9329.2672 -7567.4703 295.4763 137.3207 228.1697 30802.3058 137.3207 228.1697
ENERGY: 300000 4.0546 10.2664 8.2648 0.0000 -10840.6102 1430.1605 0.0000 0.0000 1796.7772 -7591.0867 301.3429 -9387.8639 -7588.4074 296.7642 -355.2792 -287.8979 30448.3292 200.9837 242.7769
ENERGY: 600000 8.3619 8.5008 9.3870 0.0000 -10851.1199 1495.7909 0.0000 0.0000 1754.9959 -7574.0834 294.3356 -9329.0793 -7575.9247 294.9745 -39.6077 5.8639 30931.6528 160.9203 199.2091
ENERGY: 900000 3.9615 7.1963 9.2957 0.0000 -10715.6261 1419.8600 0.0000 0.0000 1769.7592 -7505.5534 296.8117 -9275.3126 -7548.0484 297.3078 -135.2838 -117.9307 30842.0496 33.1543 76.4991
ENERGY: 1200000 4.6742 9.3627 6.6864 0.0000 -10712.1182 1418.0264 0.0000 0.0000 1825.9768 -7447.3917 306.2401 -9273.3685 -7539.0114 299.1313 -388.7116 -363.4106 31165.9588 58.9420 100.6022
ENERGY: 1500000 4.9301 6.4015 6.7717 0.0000 -10914.7751 1531.4789 0.0000 0.0000 1782.8157 -7582.3774 299.0014 -9365.1931 -7539.6530 298.8103 444.7782 447.6555 30448.1313 57.5078 102.6051
TCL: Running FEP window  17: Lambda1 0.19999999999999968 Lambda2 0.1499999999999997 [dLambda -0.04999999999999999]
TCL: Setting parameter firsttimestep to 0
TCL: Setting parameter alchLambda to 0.19999999999999968
Info: NONBONDED TABLE R-SQUARED SPACING: 0.0625
Info: NONBONDED TABLE SIZE: 705 POINTS
TCL: Setting parameter alchLambda2 to 0.1499999999999997
Info: NONBONDED TABLE R-SQUARED SPACING: 0.0625
Info: NONBONDED TABLE SIZE: 705 POINTS
TCL: Running for 1500000 steps
ETITLE: TS BOND ANGLE DIHED IMPRP ELECT VDW BOUNDARY MISC KINETIC TOTAL TEMP POTENTIAL TOTALAVG TEMPAVG PRESSURE GPRESSURE VOLUME PRESSAVG GPRESSAVG
ENERGY: 0 4.9300 6.4015 6.7717 0.0000 -10914.7749 1531.1609 0.0000 0.0000 1781.9103 -7583.6005 298.8495 -9365.5108 -7583.6005 298.8495 380.7991 441.6400 30448.1313 380.7991 441.6400
ENERGY: 300000 6.0696 9.8355 6.3772 0.0000 -10738.6674 1433.9626 0.0000 0.0000 1805.8053 -7476.6173 302.8570 -9282.4226 -7541.5832 298.8636 -89.7556 48.9390 30895.5142 4.9190 71.3312
ENERGY: 600000 3.2733 10.0793 5.5949 0.0000 -10880.0175 1481.0026 0.0000 0.0000 1723.9767 -7656.0907 289.1333 -9380.0674 -7575.0706 297.5795 -256.6614 -211.2994 30570.8174 -109.2332 -36.8623
ENERGY: 900000 2.5490 5.7343 15.1267 0.0000 -10821.0380 1513.1505 0.0000 0.0000 1763.3828 -7521.0948 295.7422 -9284.4776 -7542.8196 299.7528 478.7953 545.9290 30790.2107 100.4638 164.1437
ENERGY: 1200000 4.4752 8.6721 8.6654 0.0000 -10640.9473 1314.7024 0.0000 0.0000 1786.5643 -7517.8679 299.6301 -9304.4322 -7535.4884 299.6626 -1192.5013 -1164.9249 31146.5332 34.2034 90.2579
ENERGY: 1500000 2.6076 7.5833 7.9204 0.0000 -10735.2725 1463.0796 0.0000 0.0000 1838.5896 -7415.4918 308.3554 -9254.0815 -7527.3954 299.9671 213.4765 246.7817 30960.9568 28.0321 88.2842
TCL: Running FEP window  18: Lambda1 0.1499999999999997 Lambda2 0.09999999999999969 [dLambda -0.05 ]
TCL: Setting parameter firsttimestep to 0
TCL: Setting parameter alchLambda to 0.1499999999999997
Info: NONBONDED TABLE R-SQUARED SPACING: 0.0625
Info: NONBONDED TABLE SIZE: 705 POINTS
TCL: Setting parameter alchLambda2 to 0.09999999999999969
Info: NONBONDED TABLE R-SQUARED SPACING: 0.0625
Info: NONBONDED TABLE SIZE: 705 POINTS
TCL: Running for 1500000 steps
ETITLE: TS BOND ANGLE DIHED IMPRP ELECT VDW BOUNDARY MISC KINETIC TOTAL TEMP POTENTIAL TOTALAVG TEMPAVG PRESSURE GPRESSURE VOLUME PRESSAVG GPRESSAVG
ENERGY: 0 2.6076 7.5833 7.9204 0.0000 -10735.2725 1463.1591 0.0000 0.0000 1837.7489 -7416.2531 308.2144 -9254.0020 -7416.2531 308.2144 179.8019 245.3073 30960.9568 179.8019 245.3073
ENERGY: 300000 3.7586 6.9420 10.7878 0.0000 -10757.0192 1449.8576 0.0000 0.0000 1794.2325 -7491.4406 300.9161 -9285.6731 -7474.3948 300.8520 -55.8796 -51.9549 30876.9035 168.9067 215.4937
ENERGY: 600000 5.8652 6.4980 10.4458 0.0000 -10846.7672 1484.7981 0.0000 0.0000 1796.0982 -7543.0618 301.2290 -9339.1600 -7501.7639 301.0074 339.7327 375.4000 30270.3684 63.2855 133.4258
ENERGY: 900000 5.2761 12.9510 10.4394 0.0000 -10915.3892 1474.8844 0.0000 0.0000 1823.5194 -7588.3189 305.8279 -9411.8383 -7510.7255 301.8478 -178.1616 -143.0513 30607.1616 -77.4549 -19.0842
ENERGY: 1200000 4.1509 6.8162 10.7355 0.0000 -10767.1727 1422.2733 0.0000 0.0000 1758.4428 -7564.7540 294.9137 -9323.1968 -7524.6307 301.0861 -339.4794 -226.8417 30353.9391 -92.7961 -24.8538
ENERGY: 1500000 3.7821 7.0276 10.2386 0.0000 -10757.9185 1435.8465 0.0000 0.0000 1782.5563 -7518.4673 298.9579 -9301.0237 -7517.2434 301.4718 -125.3626 -16.6589 30972.6546 -88.5313 -16.9843
TCL: Running FEP window  19: Lambda1 0.09999999999999969 Lambda2 0.049999999999999684 [dLambda -0.05 ]
TCL: Setting parameter firsttimestep to 0
TCL: Setting parameter alchLambda to 0.09999999999999969
Info: NONBONDED TABLE R-SQUARED SPACING: 0.0625
Info: NONBONDED TABLE SIZE: 705 POINTS
TCL: Setting parameter alchLambda2 to 0.049999999999999684
Info: NONBONDED TABLE R-SQUARED SPACING: 0.0625
Info: NONBONDED TABLE SIZE: 705 POINTS
TCL: Running for 1500000 steps
ETITLE: TS BOND ANGLE DIHED IMPRP ELECT VDW BOUNDARY MISC KINETIC TOTAL TEMP POTENTIAL TOTALAVG TEMPAVG PRESSURE GPRESSURE VOLUME PRESSAVG GPRESSAVG
ENERGY: 0 3.7821 7.0276 10.2386 0.0000 -10757.9190 1435.7574 0.0000 0.0000 1781.6639 -7519.4493 298.8082 -9301.1132 -7519.4493 298.8082 -88.8465 -20.4583 30972.6546 -88.8465 -20.4583
ENERGY: 300000 4.0699 8.8775 10.6895 0.0000 -10733.6639 1398.2934 0.0000 0.0000 1801.7628 -7509.9708 302.1791 -9311.7336 -7549.3680 301.0676 -608.6509 -593.0275 30978.5296 -97.9860 -46.9174
ENERGY: 600000 2.5071 9.4180 10.7766 0.0000 -10594.4777 1351.0021 0.0000 0.0000 1839.1237 -7381.6502 308.4450 -9220.7739 -7516.7827 303.8306 -492.4809 -363.1265 30706.5458 -288.8620 -214.3187
ENERGY: 900000 5.1493 10.2993 9.8560 0.0000 -10710.7966 1361.2032 0.0000 0.0000 1797.3353 -7526.9534 301.4365 -9324.2887 -7514.6941 302.9748 -851.0246 -842.6044 30704.9059 -261.9521 -200.4137
ENERGY: 1200000 1.4662 11.0029 9.9551 0.0000 -10768.6454 1543.9715 0.0000 0.0000 1751.1797 -7451.0700 293.6956 -9202.2497 -7514.5193 302.0116 1022.6883 1054.7354 30749.4445 -150.7613 -99.4231
ENERGY: 1500000 4.3181 3.8812 11.8564 0.0000 -10881.9818 1488.3812 0.0000 0.0000 1791.7305 -7581.8145 300.4965 -9373.5449 -7517.4327 301.5181 197.8736 269.3936 30529.2542 -139.2858 -83.9828
TCL: Running FEP window  20: Lambda1 0.049999999999999684 Lambda2 0.0    [dLambda -0.049999999999999684]
TCL: Setting parameter firsttimestep to 0
TCL: Setting parameter alchLambda to 0.049999999999999684
Info: NONBONDED TABLE R-SQUARED SPACING: 0.0625
Info: NONBONDED TABLE SIZE: 705 POINTS
TCL: Setting parameter alchLambda2 to 0.0
Info: NONBONDED TABLE R-SQUARED SPACING: 0.0625
Info: NONBONDED TABLE SIZE: 705 POINTS
TCL: Running for 1500000 steps
ETITLE: TS BOND ANGLE DIHED IMPRP ELECT VDW BOUNDARY MISC KINETIC TOTAL TEMP POTENTIAL TOTALAVG TEMPAVG PRESSURE GPRESSURE VOLUME PRESSAVG GPRESSAVG
ENERGY: 0 4.3182 3.8812 11.8563 0.0000 -10881.9813 1488.8232 0.0000 0.0000 1790.8303 -7582.2721 300.3455 -9373.1024 -7582.2721 300.3455 190.2828 268.9910 30529.2542 190.2828 268.9910
ENERGY: 300000 3.1168 7.1281 6.8053 0.0000 -10810.6254 1507.5677 0.0000 0.0000 1840.0905 -7445.9170 308.6071 -9286.0075 -7571.2514 299.7705 430.3413 494.2719 31401.5393 -75.7328 -7.0809
ENERGY: 600000 3.4184 9.1745 6.7069 0.0000 -10796.4126 1514.6968 0.0000 0.0000 1766.0591 -7496.3569 296.1911 -9262.4160 -7560.9895 299.1632 660.3015 681.1209 30339.2236 -184.2207 -115.4647
ENERGY: 900000 3.5489 5.1703 11.8969 0.0000 -10738.6886 1422.6373 0.0000 0.0000 1708.5899 -7586.8455 286.5527 -9295.4353 -7547.6080 298.5396 -450.5113 -389.3062 30812.9428 -181.9760 -129.2010
ENERGY: 1200000 6.9722 8.2738 10.3479 0.0000 -10789.6222 1429.6757 0.0000 0.0000 1773.3841 -7560.9686 297.4196 -9334.3527 -7543.7169 299.1893 -370.4575 -322.8392 30528.1710 -172.8133 -119.3877
ENERGY: 1500000 2.5279 8.1354 8.3270 0.0000 -10844.9077 1518.6611 0.0000 0.0000 1818.7890 -7488.4673 305.0346 -9307.2563 -7539.6517 299.8667 481.8209 537.0451 30563.4174 -127.0249 -74.5944
TCL: Exiting due to exit command.
