Info: SIMULATION PARAMETERS:
Info: TIMESTEP               2
Info: NUMBER OF STEPS        0
Info: STEPS PER CYCLE        10
Info: PERIODIC CELL BASIS 1  30.7762 0 0
Info: PERIODIC CELL BASIS 2  0 33.0081 0
Info: PERIODIC CELL BASIS 3  0 0 30.3023
Info: PERIODIC CELL CENTER   0 0 0
Info: WRAPPING WATERS AROUND PERIODIC BOUNDARIES ON OUTPUT.
Info: WRAPPING ALL CLUSTERS AROUND PERIODIC BOUNDARIES ON OUTPUT.
Info: FIRST LDB TIMESTEP     50
Info: LAST LDB TIMESTEP     -1
Info: HOM BACKGROUND SCALING 1
Info: PME BACKGROUND SCALING 1
Info: MIN ATOMS PER PATCH    40
Info: EMPTY PATCH LOAD       40 ATOMS
Info: VELOCITY FILE          mobley_3201701_equil.vel
Info: CENTER OF MASS MOVING INITIALLY? NO
Info: DIELECTRIC             1
Info: EXCLUDE                SCALED ONE-FOUR
Info: 1-4 ELECTROSTATICS SCALED BY 0.833333
Info: MODIFIED 1-4 VDW PARAMETERS WILL BE USED
Info: DCD FILENAME           mobley_3201701_prod.dcd
Info: DCD FREQUENCY          100000
Info: DCD FIRST STEP         100000
Info: DCD FILE WILL CONTAIN UNIT CELL DATA
Info: XST FILENAME           mobley_3201701_prod.xst
Info: XST FREQUENCY          100000
Info: NO VELOCITY DCD OUTPUT
Info: NO FORCE DCD OUTPUT
Info: OUTPUT FILENAME        mobley_3201701_prod
Info: BINARY OUTPUT FILES WILL BE USED
Info: RESTART FILENAME       mobley_3201701_prod.restart
Info: RESTART FREQUENCY      100000
Info: BINARY RESTART FILES WILL BE USED
Info: CUTOFF                 9
Info: PAIRLIST DISTANCE      11
Info: PAIRLIST SHRINK RATE   0.01
Info: PAIRLIST GROW RATE     0.01
Info: PAIRLIST TRIGGER       0.3
Info: PAIRLISTS PER CYCLE    2
Info: PAIRLISTS ENABLED
Info: MARGIN                 2
Info: HYDROGEN GROUP CUTOFF  2.5
Info: PATCH DIMENSION        15.5
Info: ENERGY OUTPUT STEPS    100000
Info: ENERGY EVALUATION STEPS    100000
Info: OUTPUT ENERGY PRECISION 4
Info: CROSSTERM ENERGY INCLUDED IN DIHEDRAL
Info: TIMING OUTPUT STEPS    1000000
Info: PRESSURE OUTPUT STEPS  100000
Info: ALCHEMICAL FEP ON
Info: FEP CURRENT LAMBDA VALUE     0
Info: FEP COMPARISON LAMBDA VALUE  0.05
Info: FEP INTRA-ALCHEMICAL NON-BONDED INTERACTIONS WILL BE RETAINED
Info: FEP INTRA-ALCHEMICAL BONDED INTERACTIONS WILL BE RETAINED
Info: FEP VDW SHIFTING COEFFICIENT 5
Info: FEP ELEC. ACTIVE FOR ANNIHILATED PARTICLES BETWEEN LAMBDA = 0 AND LAMBDA = 0.5
Info: FEP ELEC. ACTIVE FOR EXNIHILATED PARTICLES BETWEEN LAMBDA = 0.5 AND LAMBDA = 1
Info: FEP VDW ACTIVE FOR ANNIHILATED PARTICLES BETWEEN LAMBDA = 0 AND LAMBDA = 1
Info: FEP VDW ACTIVE FOR EXNIHILATED PARTICLES BETWEEN LAMBDA = 0 AND LAMBDA = 1
Info: FEP BOND ACTIVE FOR ANNIHILATED PARTICLES BETWEEN LAMBDA = 1 AND LAMBDA = 1
Info: FEP BOND ACTIVE FOR EXNIHILATED PARTICLES BETWEEN LAMBDA = 0 AND LAMBDA = 0
Info: LANGEVIN DYNAMICS ACTIVE
Info: LANGEVIN TEMPERATURE   300
Info: LANGEVIN USING BBK INTEGRATOR
Info: LANGEVIN DAMPING COEFFICIENT IS 1 INVERSE PS
Info: LANGEVIN DYNAMICS APPLIED TO HYDROGENS
Info: LANGEVIN PISTON PRESSURE CONTROL ACTIVE
Info:        TARGET PRESSURE IS 1.01325 BAR
Info:     OSCILLATION PERIOD IS 50 FS
Info:             DECAY TIME IS 25 FS
Info:     PISTON TEMPERATURE IS 300 K
Info:       PRESSURE CONTROL IS GROUP-BASED
Info:    INITIAL STRAIN RATE IS -0.000297611 -0.000297611 -0.000297611
Info:       CELL FLUCTUATION IS ISOTROPIC
Info: PARTICLE MESH EWALD (PME) ACTIVE
Info: PME TOLERANCE               1e-06
Info: PME EWALD COEFFICIENT       0.348832
Info: PME INTERPOLATION ORDER     4
Info: PME GRID DIMENSIONS         32 36 32
Info: PME MAXIMUM GRID SPACING    1
Info: PME CALCULATION WILL BE PERFORMED ON GPU
Info: FULL ELECTROSTATIC EVALUATION FREQUENCY      2
Info: USING VERLET I (r-RESPA) MTS SCHEME.
Info: C1 SPLITTING OF LONG RANGE ELECTROSTATICS
Info: PLACING ATOMS IN PATCHES BY HYDROGEN GROUPS
Info: RIGID BONDS TO HYDROGEN : ALL
Info:         ERROR TOLERANCE : 1e-08
Info:          MAX ITERATIONS : 100
Info: RIGID WATER USING SETTLE ALGORITHM
Info: RANDOM NUMBER SEED     1743895596
Info: USE HYDROGEN BONDS?    NO
Info: Using AMBER format force field!
Info: AMBER PARM FILE        mobley_3201701.prmtop
Info: COORDINATE PDB         mobley_3201701.pdb
Info: Exclusions will be read from PARM file!
Info: SCNB (VDW SCALING)     2
Info: USING ARITHMETIC MEAN TO COMBINE L-J SIGMA PARAMETERS
Info: BINARY COORDINATES     mobley_3201701_equil.coor
Info: SUMMARY OF PARAMETERS:
Info: 14 BONDS
Info: 22 ANGLES
Info:   22 HARMONIC
Info:   0 COSINE-BASED
Info: 8 DIHEDRAL
Info: 0 IMPROPER
Info: 0 CROSSTERM
Info: 0 VDW
Info: 45 VDW_PAIRS
Info: 0 NBTHOLE_PAIRS
Info: To read alchdata from file: mobley_3201701.pdb
Info: To read alchflag data from column: 5
Info: STRUCTURE SUMMARY:
Info: 2957 ATOMS
Info: 2957 BONDS
Info: 60 ANGLES
Info: 71 DIHEDRALS
Info: 0 IMPROPERS
Info: 0 CROSSTERMS
Info: 3078 EXCLUSIONS
Info: 2940 RIGID BONDS
Info: ALCH: 0 ATOMS TO DISAPPEAR IN FINAL STATE
Info: ALCH: 35 ATOMS TO APPEAR IN FINAL STATE
Info: 5931 DEGREES OF FREEDOM
Info: 991 HYDROGEN GROUPS
Info: 4 ATOMS IN LARGEST HYDROGEN GROUP
Info: 991 MIGRATION GROUPS
Info: 4 ATOMS IN LARGEST MIGRATION GROUP
Info: TOTAL MASS = 17785.9 amu
Info: TOTAL CHARGE = -0.000100095 e
Info: MASS DENSITY = 0.959453 g/cm^3
Info: ATOM DENSITY = 0.0960595 atoms/A^3
Info: ADDED 0 IMPLICIT EXCLUSIONS
Info: NONBONDED TABLE R-SQUARED SPACING: 0.0625
Info: NONBONDED TABLE SIZE: 705 POINTS
Info: REMOVING COM VELOCITY 0.104431 -0.0852012 0.274334
Info: Use 3D box decompostion in PME FFT.
Info: Updated CUDA force table with 4096 elements.
Info: Updated CUDA LJ table with 9 x 9 elements.
Info: Found 38 unique exclusion lists needing 144 bytes
TCL: Running for 1500000 steps
ETITLE: TS BOND ANGLE DIHED IMPRP ELECT VDW BOUNDARY MISC KINETIC TOTAL TEMP POTENTIAL TOTALAVG TEMPAVG PRESSURE GPRESSURE VOLUME PRESSAVG GPRESSAVG
ENERGY: 0 9.1239 15.0019 8.7662 0.0000 -10756.9387 1345.9910 0.0000 0.0000 1780.7108 -7597.3448 302.1731 -9378.0557 -7597.3448 302.1731 -755.6596 -675.5063 30783.0090 -755.6596 -675.5063
ENERGY: 300000 4.7041 15.0163 5.6233 0.0000 -10834.9922 1398.9604 0.0000 0.0000 1779.6348 -7631.0532 301.9905 -9410.6880 -7666.4184 296.8611 -562.6463 -388.1186 30037.5533 -184.0421 -100.5762
ENERGY: 600000 10.5484 20.8103 9.0306 0.0000 -10948.5388 1479.0230 0.0000 0.0000 1813.6799 -7615.4467 307.7677 -9429.1265 -7655.7206 298.4026 403.8702 507.1266 29756.7654 -131.8453 -50.1116
ENERGY: 900000 3.7055 10.2344 7.4563 0.0000 -10849.7584 1412.1452 0.0000 0.0000 1735.1129 -7681.1042 294.4355 -9416.2171 -7662.1579 298.4152 -248.8178 -236.8869 30071.9230 5.0043 79.4986
ENERGY: 1200000 6.5939 17.8983 6.4414 0.0000 -11042.1058 1464.0109 0.0000 0.0000 1762.4367 -7784.7246 299.0722 -9547.1613 -7665.0437 298.8758 59.8090 70.5298 29953.8374 -40.8389 24.6532
ENERGY: 1500000 3.6614 16.6809 7.9292 0.0000 -11043.0780 1565.3901 0.0000 0.0000 1786.5920 -7662.8243 303.1711 -9449.4163 -7668.6272 299.6057 962.8268 1041.2951 29769.9724 29.8515 91.9203
TCL: Running FEP window   2: Lambda1 0.05   Lambda2 0.1    [dLambda 0.05  ]
TCL: Setting parameter firsttimestep to 0
TCL: Setting parameter alchLambda to 0.05
Info: NONBONDED TABLE R-SQUARED SPACING: 0.0625
Info: NONBONDED TABLE SIZE: 705 POINTS
TCL: Setting parameter alchLambda2 to 0.1
Info: NONBONDED TABLE R-SQUARED SPACING: 0.0625
Info: NONBONDED TABLE SIZE: 705 POINTS
TCL: Running for 1500000 steps
ETITLE: TS BOND ANGLE DIHED IMPRP ELECT VDW BOUNDARY MISC KINETIC TOTAL TEMP POTENTIAL TOTALAVG TEMPAVG PRESSURE GPRESSURE VOLUME PRESSAVG GPRESSAVG
ENERGY: 0 3.6614 16.6809 7.9292 0.0000 -11043.0797 1570.0259 0.0000 0.0000 1785.6769 -7659.1052 303.0159 -9444.7822 -7659.1052 303.0159 972.1395 1056.6197 29769.9724 972.1395 1056.6197
ENERGY: 300000 3.4746 16.2253 7.0342 0.0000 -10898.8343 1440.3259 0.0000 0.0000 1760.8547 -7670.9196 298.8037 -9431.7743 -7688.8579 300.1591 97.1479 170.3951 30270.5916 64.9366 140.7443
ENERGY: 600000 8.3636 16.0485 8.1158 0.0000 -10987.6168 1463.2656 0.0000 0.0000 1727.9966 -7763.8268 293.2279 -9491.8234 -7695.4046 298.6006 -9.8735 30.7821 29817.4345 -199.5797 -137.1629
ENERGY: 900000 3.5958 16.8848 12.2834 0.0000 -10923.9440 1459.1495 0.0000 0.0000 1829.8421 -7602.1883 310.5104 -9432.0305 -7683.8045 300.2861 -219.1484 -119.0061 30462.0008 -72.9141 0.0853
ENERGY: 1200000 3.8515 16.1223 8.6870 0.0000 -10933.0414 1432.0241 0.0000 0.0000 1770.3173 -7702.0393 300.4094 -9472.3566 -7691.6752 299.6517 -309.4865 -175.6250 30366.3390 -95.5953 -19.0641
ENERGY: 1500000 5.8797 18.1940 8.9446 0.0000 -10806.6334 1340.0997 0.0000 0.0000 1781.8757 -7651.6397 302.3708 -9433.5154 -7685.8952 299.4681 -858.4804 -819.0324 30538.3603 -138.1672 -62.6947
TCL: Running FEP window   3: Lambda1 0.1    Lambda2 0.15000000000000002 [dLambda 0.05000000000000002]
TCL: Setting parameter firsttimestep to 0
TCL: Setting parameter alchLambda to 0.1
Info: NONBONDED TABLE R-SQUARED SPACING: 0.0625
Info: NONBONDED TABLE SIZE: 705 POINTS
TCL: Setting parameter alchLambda2 to 0.15000000000000002
Info: NONBONDED TABLE R-SQUARED SPACING: 0.0625
Info: NONBONDED TABLE SIZE: 705 POINTS
TCL: Running for 1500000 steps
ETITLE: TS BOND ANGLE DIHED IMPRP ELECT VDW BOUNDARY MISC KINETIC TOTAL TEMP POTENTIAL TOTALAVG TEMPAVG PRESSURE GPRESSURE VOLUME PRESSAVG GPRESSAVG
ENERGY: 0 5.8797 18.1940 8.9446 0.0000 -10806.6312 1341.7623 0.0000 0.0000 1781.0070 -7650.8435 302.2234 -9431.8506 -7650.8435 302.2234 -893.3522 -809.5837 30538.3603 -893.3522 -809.5837
ENERGY: 300000 2.4253 10.7034 6.2489 0.0000 -10992.4263 1443.4283 0.0000 0.0000 1735.4163 -7794.2040 294.4870 -9529.6204 -7677.0851 299.3404 87.7133 68.6389 29631.9440 -604.6228 -562.7508
ENERGY: 600000 8.5046 17.5679 7.3751 0.0000 -10807.6935 1365.8404 0.0000 0.0000 1716.2650 -7692.1406 291.2372 -9408.4056 -7655.3367 300.3625 -677.4026 -637.5995 30070.8024 -526.3717 -479.4888
ENERGY: 900000 5.1488 13.1162 7.4184 0.0000 -10954.9432 1468.7258 0.0000 0.0000 1764.8957 -7695.6383 299.4894 -9460.5340 -7656.3379 302.1610 -21.0183 51.0605 30098.1010 -347.5506 -289.2732
ENERGY: 1200000 3.2243 14.4003 13.0957 0.0000 -10789.6604 1387.4826 0.0000 0.0000 1770.1693 -7601.2883 300.3843 -9371.4575 -7653.1696 301.5156 -508.8473 -403.0684 30600.6153 -351.6786 -287.4750
ENERGY: 1500000 6.5534 14.3587 13.6655 0.0000 -10943.0331 1432.9674 0.0000 0.0000 1771.1899 -7704.2982 300.5575 -9475.4880 -7659.6325 300.6338 -93.6727 -13.7312 29960.7566 -298.9593 -235.6018
TCL: Running FEP window   4: Lambda1 0.15000000000000002 Lambda2 0.2    [dLambda 0.04999999999999999]
TCL: Setting parameter firsttimestep to 0
TCL: Setting parameter alchLambda to 0.15000000000000002
Info: NONBONDED TABLE R-SQUARED SPACING: 0.0625
Info: NONBONDED TABLE SIZE: 705 POINTS
TCL: Setting parameter alchLambda2 to 0.2
Info: NONBONDED TABLE R-SQUARED SPACING: 0.0625
Info: NONBONDED TABLE SIZE: 705 POINTS
TCL: Running for 1500000 steps
ETITLE: TS BOND ANGLE DIHED IMPRP ELECT VDW BOUNDARY MISC KINETIC TOTAL TEMP POTENTIAL TOTALAVG TEMPAVG PRESSURE GPRESSURE VOLUME PRESSAVG GPRESSAVG
ENERGY: 0 6.5534 14.3587 13.6655 0.0000 -10943.0324 1434.4205 0.0000 0.0000 1770.3093 -7703.7250 300.4081 -9474.0343 -7703.7250 300.4081 -99.3659 1.1186 29960.7566 -99.3659 1.1186
ENERGY: 300000 6.7977 14.2749 8.1826 0.0000 -10913.7377 1408.3523 0.0000 0.0000 1755.8584 -7720.2718 297.9559 -9476.1302 -7644.0483 303.2046 -477.1172 -372.5642 30172.5618 12.6071 99.7626
ENERGY: 600000 6.1112 12.8620 7.3899 0.0000 -10856.8066 1396.7256 0.0000 0.0000 1804.7108 -7629.0072 306.2457 -9433.7180 -7660.9871 303.9203 -659.4526 -628.1657 30824.5918 -231.3525 -166.9319
ENERGY: 900000 9.2633 13.6068 6.4899 0.0000 -10914.0025 1475.4115 0.0000 0.0000 1768.7892 -7640.4417 300.1501 -9409.2310 -7639.2084 304.4066 139.7592 240.9499 30296.5481 -177.4252 -115.7235
ENERGY: 1200000 5.4884 12.6985 7.1014 0.0000 -10895.6957 1480.8220 0.0000 0.0000 1753.0788 -7636.5066 297.4842 -9389.5854 -7646.4282 303.7705 415.6599 476.5340 30215.2386 -133.7315 -70.6402
ENERGY: 1500000 4.2589 16.8995 10.0356 0.0000 -10833.0972 1404.5516 0.0000 0.0000 1786.0674 -7611.2842 303.0821 -9397.3516 -7642.6356 303.8458 -249.8580 -206.6427 30243.6995 -36.1389 28.1860
TCL: Running FEP window   5: Lambda1 0.2    Lambda2 0.25   [dLambda 0.04999999999999999]
TCL: Setting parameter firsttimestep to 0
TCL: Setting parameter alchLambda to 0.2
Info: NONBONDED TABLE R-SQUARED SPACING: 0.0625
Info: NONBONDED TABLE SIZE: 705 POINTS
TCL: Setting parameter alchLambda2 to 0.25
Info: NONBONDED TABLE R-SQUARED SPACING: 0.0625
Info: NONBONDED TABLE SIZE: 705 POINTS
TCL: Running for 1500000 steps
ETITLE: TS BOND ANGLE DIHED IMPRP ELECT VDW BOUNDARY MISC KINETIC TOTAL TEMP POTENTIAL TOTALAVG TEMPAVG PRESSURE GPRESSURE VOLUME PRESSAVG GPRESSAVG
ENERGY: 0 4.2589 16.8995 10.0356 0.0000 -10833.0979 1406.0307 0.0000 0.0000 1785.1836 -7610.6897 302.9321 -9395.8733 -7610.6897 302.9321 -264.7604 -194.3436 30243.6995 -264.7604 -194.3436
ENERGY: 300000 10.6510 11.6964 9.2860 0.0000 -10899.6946 1383.7801 0.0000 0.0000 1793.9444 -7690.3366 304.4188 -9484.2811 -7637.1335 303.5671 -508.7766 -514.8571 29850.1743 -221.5950 -188.5715
ENERGY: 600000 3.7822 12.8549 6.7493 0.0000 -11030.6822 1491.2937 0.0000 0.0000 1748.5109 -7767.4912 296.7090 -9516.0021 -7677.1360 300.7546 99.7283 111.7861 30033.8785 -322.3761 -280.8560
ENERGY: 900000 4.4561 14.6390 11.4700 0.0000 -10784.6819 1377.6034 0.0000 0.0000 1801.3522 -7575.1611 305.6758 -9376.5133 -7661.5133 301.3817 -576.2703 -481.6063 30734.3095 -286.3250 -248.1721
ENERGY: 1200000 4.4768 14.8364 8.1883 0.0000 -10864.6680 1353.9322 0.0000 0.0000 1793.8851 -7689.3492 304.4087 -9483.2343 -7667.9913 300.5736 -592.6553 -584.5988 30302.3894 -297.3458 -251.8179
ENERGY: 1500000 4.5243 16.2588 8.5744 0.0000 -10904.4979 1398.6232 0.0000 0.0000 1797.4796 -7679.0375 305.0187 -9476.5172 -7671.7767 300.9211 -461.5639 -350.0593 30498.3644 -355.1265 -303.7334
TCL: Running FEP window   6: Lambda1 0.25   Lambda2 0.3    [dLambda 0.04999999999999999]
TCL: Setting parameter firsttimestep to 0
TCL: Setting parameter alchLambda to 0.25
Info: NONBONDED TABLE R-SQUARED SPACING: 0.0625
Info: NONBONDED TABLE SIZE: 705 POINTS
TCL: Setting parameter alchLambda2 to 0.3
Info: NONBONDED TABLE R-SQUARED SPACING: 0.0625
Info: NONBONDED TABLE SIZE: 705 POINTS
TCL: Running for 1500000 steps
ETITLE: TS BOND ANGLE DIHED IMPRP ELECT VDW BOUNDARY MISC KINETIC TOTAL TEMP POTENTIAL TOTALAVG TEMPAVG PRESSURE GPRESSURE VOLUME PRESSAVG GPRESSAVG
ENERGY: 0 4.5243 16.2588 8.5744 0.0000 -10904.4989 1398.0941 0.0000 0.0000 1796.6095 -7680.4378 304.8710 -9477.0473 -7680.4378 304.8710 -440.9259 -346.1224 30498.3644 -440.9259 -346.1224
ENERGY: 300000 9.0809 11.4067 7.3808 0.0000 -10883.6528 1452.6055 0.0000 0.0000 1784.1036 -7619.0754 302.7489 -9403.1790 -7646.2978 300.6279 273.9569 380.2858 30097.3828 62.7487 155.2612
ENERGY: 600000 4.9592 15.0704 6.6516 0.0000 -10862.4861 1391.1529 0.0000 0.0000 1799.8875 -7644.7644 305.4273 -9444.6519 -7664.2022 300.9711 -260.7103 -226.7735 30148.6886 -171.5404 -79.4298
ENERGY: 900000 6.8262 18.3827 8.7464 0.0000 -10926.7326 1448.7926 0.0000 0.0000 1738.9433 -7705.0414 295.0855 -9443.9847 -7666.8249 300.3529 127.1426 148.1715 30269.4897 40.1252 111.3339
ENERGY: 1200000 3.9263 12.4277 10.5486 0.0000 -10791.5486 1423.4831 0.0000 0.0000 1755.4797 -7585.6832 297.8916 -9341.1629 -7659.4696 299.5311 217.1702 248.1811 30036.7622 -52.5620 11.8090
ENERGY: 1500000 6.1550 12.4167 8.2216 0.0000 -10925.8968 1468.0442 0.0000 0.0000 1748.8763 -7682.1830 296.7711 -9431.0594 -7666.9976 298.4269 65.9009 106.1477 30299.3222 -38.1362 22.1362
TCL: Running FEP window   7: Lambda1 0.3    Lambda2 0.35   [dLambda 0.04999999999999999]
TCL: Setting parameter firsttimestep to 0
TCL: Setting parameter alchLambda to 0.3
Info: NONBONDED TABLE R-SQUARED SPACING: 0.0625
Info: NONBONDED TABLE SIZE: 705 POINTS
TCL: Setting parameter alchLambda2 to 0.35
Info: NONBONDED TABLE R-SQUARED SPACING: 0.0625
Info: NONBONDED TABLE SIZE: 705 POINTS
TCL: Running for 1500000 steps
ETITLE: TS BOND ANGLE DIHED IMPRP ELECT VDW BOUNDARY MISC KINETIC TOTAL TEMP POTENTIAL TOTALAVG TEMPAVG PRESSURE GPRESSURE VOLUME PRESSAVG GPRESSAVG
ENERGY: 0 6.1550 12.4167 8.2216 0.0000 -10925.8975 1467.8309 0.0000 0.0000 1747.9964 -7683.2769 296.6217 -9431.2733 -7683.2769 296.6217 22.7359 112.6632 30299.3222 22.7359 112.6632
ENERGY: 300000 4.2109 15.2546 6.6361 0.0000 -10832.2693 1407.7479 0.0000 0.0000 1765.1443 -7633.2755 299.5316 -9398.4198 -7652.2041 298.3676 -158.7782 -111.1703 30488.8217 34.4639 109.1235
ENERGY: 600000 5.9263 12.9390 9.4857 0.0000 -10805.5354 1299.7070 0.0000 0.0000 1757.0505 -7720.4268 298.1582 -9477.4773 -7682.4931 297.6208 -1127.6442 -1084.5586 30437.4392 -118.0952 -61.2836
ENERGY: 900000 8.0395 19.5504 8.1528 0.0000 -11038.8301 1489.7832 0.0000 0.0000 1781.1049 -7732.1994 302.2400 -9513.3042 -7679.1878 299.0558 253.5035 298.1510 30393.1277 -71.2452 -17.1416
ENERGY: 1200000 5.0187 16.2896 8.7556 0.0000 -11080.3394 1507.2187 0.0000 0.0000 1714.6482 -7828.4086 290.9628 -9543.0568 -7699.4806 298.1847 292.7984 335.2587 29814.6373 -80.4894 -27.4257
ENERGY: 1500000 5.6612 11.9925 6.7451 0.0000 -11002.5253 1423.7165 0.0000 0.0000 1768.4725 -7785.9374 300.0964 -9554.4099 -7699.0131 298.9954 -459.3156 -415.0548 30139.2349 -92.9879 -36.7677
TCL: Running FEP window   8: Lambda1 0.35   Lambda2 0.39999999999999997 [dLambda 0.04999999999999999]
TCL: Setting parameter firsttimestep to 0
TCL: Setting parameter alchLambda to 0.35
Info: NONBONDED TABLE R-SQUARED SPACING: 0.0625
Info: NONBONDED TABLE SIZE: 705 POINTS
TCL: Setting parameter alchLambda2 to 0.39999999999999997
Info: NONBONDED TABLE R-SQUARED SPACING: 0.0625
Info: NONBONDED TABLE SIZE: 705 POINTS
TCL: Running for 1500000 steps
ETITLE: TS BOND ANGLE DIHED IMPRP ELECT VDW BOUNDARY MISC KINETIC TOTAL TEMP POTENTIAL TOTALAVG TEMPAVG PRESSURE GPRESSURE VOLUME PRESSAVG GPRESSAVG
ENERGY: 0 5.6612 11.9925 6.7451 0.0000 -11002.5255 1423.3559 0.0000 0.0000 1767.6005 -7787.1702 299.9484 -9554.7706 -7787.1702 299.9484 -478.8073 -409.7912 30139.2349 -478.8073 -409.7912
ENERGY: 300000 4.9378 20.2612 10.6428 0.0000 -10782.8069 1353.8592 0.0000 0.0000 1726.5444 -7666.5615 292.9815 -9393.1059 -7716.5926 296.3265 -948.4156 -913.5457 30598.1090 -367.2626 -304.0102
ENERGY: 600000 6.8666 8.3064 8.0785 0.0000 -10819.0352 1434.4433 0.0000 0.0000 1780.7708 -7580.5695 302.1833 -9361.3403 -7671.2208 299.4940 -57.6728 4.6138 30737.7213 -384.9387 -311.1437
ENERGY: 900000 3.8055 15.4193 9.3976 0.0000 -11023.7228 1532.4217 0.0000 0.0000 1833.3095 -7629.3691 311.0987 -9462.6786 -7664.8761 300.3753 872.9790 905.6499 30086.5380 -171.6970 -109.1091
ENERGY: 1200000 7.0647 13.8492 7.6997 0.0000 -10744.6049 1392.1280 0.0000 0.0000 1800.6012 -7523.2621 305.5484 -9323.8633 -7662.9929 300.1142 207.3822 226.8544 30225.8223 -98.1111 -38.7805
ENERGY: 1500000 5.1157 15.8476 9.7709 0.0000 -10985.3431 1441.1360 0.0000 0.0000 1753.0429 -7760.4301 297.4781 -9513.4730 -7658.4742 300.7044 -465.1910 -360.7483 30515.7430 -131.0097 -68.7949
TCL: Running FEP window   9: Lambda1 0.39999999999999997 Lambda2 0.44999999999999996 [dLambda 0.04999999999999999]
TCL: Setting parameter firsttimestep to 0
TCL: Setting parameter alchLambda to 0.39999999999999997
Info: NONBONDED TABLE R-SQUARED SPACING: 0.0625
Info: NONBONDED TABLE SIZE: 705 POINTS
TCL: Setting parameter alchLambda2 to 0.44999999999999996
Info: NONBONDED TABLE R-SQUARED SPACING: 0.0625
Info: NONBONDED TABLE SIZE: 705 POINTS
TCL: Running for 1500000 steps
ETITLE: TS BOND ANGLE DIHED IMPRP ELECT VDW BOUNDARY MISC KINETIC TOTAL TEMP POTENTIAL TOTALAVG TEMPAVG PRESSURE GPRESSURE VOLUME PRESSAVG GPRESSAVG
ENERGY: 0 5.1157 15.8476 9.7709 0.0000 -10985.3416 1442.2201 0.0000 0.0000 1752.1457 -7760.2416 297.3259 -9512.3874 -7760.2416 297.3259 -439.1329 -343.6544 30515.7430 -439.1329 -343.6544
ENERGY: 300000 5.1254 11.6921 7.4895 0.0000 -10934.5062 1440.0064 0.0000 0.0000 1780.7489 -7689.4438 302.1796 -9470.1927 -7673.8577 301.8214 -183.9774 -188.9095 30709.7696 116.9825 152.9232
ENERGY: 600000 3.3090 12.5787 5.6073 0.0000 -10956.0061 1458.2398 0.0000 0.0000 1769.5857 -7706.6855 300.2853 -9476.2713 -7681.3374 300.0815 -455.2501 -365.2324 31092.0452 -75.1364 -19.1118
ENERGY: 900000 5.7910 10.9598 12.9355 0.0000 -10906.1371 1407.1619 0.0000 0.0000 1747.4941 -7721.7948 296.5365 -9469.2889 -7685.8255 299.8927 -505.9570 -381.7536 30305.8596 -75.0261 -12.3228
ENERGY: 1200000 7.6950 12.2346 9.4342 0.0000 -10985.4516 1503.4638 0.0000 0.0000 1727.0699 -7725.5542 293.0707 -9452.6241 -7697.3042 298.9457 389.7252 452.5650 30464.0972 -30.1625 31.0226
ENERGY: 1500000 2.3685 15.6555 9.1702 0.0000 -10914.0357 1402.8376 0.0000 0.0000 1759.4772 -7724.5267 298.5699 -9484.0039 -7698.5191 299.1938 -277.2504 -206.3211 29850.8025 -62.9306 -0.4700
TCL: Running FEP window  10: Lambda1 0.44999999999999996 Lambda2 0.49999999999999994 [dLambda 0.04999999999999999]
TCL: Setting parameter firsttimestep to 0
TCL: Setting parameter alchLambda to 0.44999999999999996
Info: NONBONDED TABLE R-SQUARED SPACING: 0.0625
Info: NONBONDED TABLE SIZE: 705 POINTS
TCL: Setting parameter alchLambda2 to 0.49999999999999994
Info: NONBONDED TABLE R-SQUARED SPACING: 0.0625
Info: NONBONDED TABLE SIZE: 705 POINTS
TCL: Running for 1500000 steps
ETITLE: TS BOND ANGLE DIHED IMPRP ELECT VDW BOUNDARY MISC KINETIC TOTAL TEMP POTENTIAL TOTALAVG TEMPAVG PRESSURE GPRESSURE VOLUME PRESSAVG GPRESSAVG
ENERGY: 0 2.3685 15.6555 9.1702 0.0000 -10914.0357 1402.0938 0.0000 0.0000 1758.5525 -7726.1952 298.4130 -9484.7477 -7726.1952 298.4130 -296.6496 -200.2101 29850.8025 -296.6496 -200.2101
ENERGY: 300000 7.9558 16.0046 8.3210 0.0000 -10995.3870 1515.2976 0.0000 0.0000 1773.9158 -7673.8921 301.0201 -9447.8079 -7663.9530 302.1659 753.1941 786.6641 30288.6726 112.1361 190.0241
ENERGY: 600000 5.8344 13.1149 7.6975 0.0000 -10842.3736 1342.9442 0.0000 0.0000 1718.4496 -7754.3331 291.6079 -9472.7826 -7665.0756 301.9510 -1096.3919 -1078.8898 30342.8804 -48.6183 22.8479
ENERGY: 900000 5.7677 17.7622 10.4382 0.0000 -10944.7043 1456.7828 0.0000 0.0000 1813.8193 -7640.1341 307.7914 -9453.9534 -7660.3840 303.0397 26.4767 31.8173 30598.1765 19.6876 92.7938
ENERGY: 1200000 5.8713 12.7127 6.8821 0.0000 -10958.1161 1453.7000 0.0000 0.0000 1766.8623 -7712.0876 299.8232 -9478.9499 -7672.2417 301.6633 -330.1461 -298.9703 30769.1208 -104.8836 -37.0814
ENERGY: 1500000 5.9770 15.8014 10.9722 0.0000 -10840.0285 1411.2529 0.0000 0.0000 1762.8440 -7633.1810 299.1413 -9396.0250 -7663.8339 301.6851 -537.9006 -391.5055 30667.8148 -206.4991 -131.7401
TCL: Running FEP window  11: Lambda1 0.49999999999999994 Lambda2 0.5499999999999999 [dLambda 0.04999999999999999]
TCL: Setting parameter firsttimestep to 0
TCL: Setting parameter alchLambda to 0.49999999999999994
Info: NONBONDED TABLE R-SQUARED SPACING: 0.0625
Info: NONBONDED TABLE SIZE: 705 POINTS
TCL: Setting parameter alchLambda2 to 0.5499999999999999
Info: NONBONDED TABLE R-SQUARED SPACING: 0.0625
Info: NONBONDED TABLE SIZE: 705 POINTS
TCL: Running for 1500000 steps
ETITLE: TS BOND ANGLE DIHED IMPRP ELECT VDW BOUNDARY MISC KINETIC TOTAL TEMP POTENTIAL TOTALAVG TEMPAVG PRESSURE GPRESSURE VOLUME PRESSAVG GPRESSAVG
ENERGY: 0 5.9770 15.8014 10.9722 0.0000 -10840.0283 1410.4752 0.0000 0.0000 1761.9512 -7634.8512 298.9898 -9396.8024 -7634.8512 298.9898 -473.3303 -387.3630 30667.8148 -473.3303 -387.3630
ENERGY: 300000 3.9361 15.5249 5.4947 0.0000 -11023.2119 1565.2065 0.0000 0.0000 1756.9110 -7676.1389 298.1345 -9433.0499 -7657.7847 303.6609 878.9548 957.8232 30317.4511 164.7437 222.7859
ENERGY: 600000 6.3994 16.3316 10.3270 0.0000 -10977.2824 1499.2023 0.0000 0.0000 1729.5263 -7715.4958 293.4875 -9445.0221 -7674.8235 301.3127 515.0906 541.8666 30626.4161 89.5209 147.7135
ENERGY: 900000 3.7349 12.1120 9.0936 0.0000 -10998.2506 1544.2095 0.0000 0.0000 1763.5336 -7665.5669 299.2583 -9429.1006 -7668.6450 300.8892 671.0412 772.3095 30365.2645 132.2326 197.2699
ENERGY: 1200000 2.4523 14.3139 9.3063 0.0000 -10816.4796 1379.3218 0.0000 0.0000 1724.9733 -7686.1120 292.7149 -9411.0853 -7675.4875 299.5748 -383.3906 -358.1201 30349.1494 -49.6195 10.8753
ENERGY: 1500000 3.5063 11.6805 6.6932 0.0000 -10892.4096 1468.3512 0.0000 0.0000 1822.1483 -7580.0300 309.2048 -9402.1783 -7677.4385 300.0523 101.6035 183.1171 30994.0794 -39.5563 28.8346
TCL: Running FEP window  12: Lambda1 0.5499999999999999 Lambda2 0.6    [dLambda 0.050000000000000044]
TCL: Setting parameter firsttimestep to 0
TCL: Setting parameter alchLambda to 0.5499999999999999
Info: NONBONDED TABLE R-SQUARED SPACING: 0.0625
Info: NONBONDED TABLE SIZE: 705 POINTS
TCL: Setting parameter alchLambda2 to 0.6
Info: NONBONDED TABLE R-SQUARED SPACING: 0.0625
Info: NONBONDED TABLE SIZE: 705 POINTS
TCL: Running for 1500000 steps
ETITLE: TS BOND ANGLE DIHED IMPRP ELECT VDW BOUNDARY MISC KINETIC TOTAL TEMP POTENTIAL TOTALAVG TEMPAVG PRESSURE GPRESSURE VOLUME PRESSAVG GPRESSAVG
ENERGY: 0 3.5063 11.6805 6.6932 0.0000 -10892.7949 1468.1420 0.0000 0.0000 1821.2556 -7581.5172 309.0533 -9402.7728 -7581.5172 309.0533 123.8131 194.6273 30994.0794 123.8131 194.6273
ENERGY: 300000 3.7859 14.6750 8.2001 0.0000 -10732.6362 1326.9517 0.0000 0.0000 1767.1347 -7611.8889 299.8694 -9379.0236 -7644.0409 299.0623 -627.6063 -615.4954 30662.2909 -114.4086 -82.2972
ENERGY: 600000 7.1667 14.1341 4.7753 0.0000 -10858.5367 1401.3115 0.0000 0.0000 1746.8734 -7684.2756 296.4312 -9431.1490 -7640.8089 301.1068 -286.8596 -203.7034 30381.6661 -188.2221 -146.6867
ENERGY: 900000 5.1660 9.2310 9.0576 0.0000 -10818.5389 1407.7381 0.0000 0.0000 1764.9399 -7622.4062 299.4969 -9387.3462 -7646.4801 300.9292 -105.2749 -115.5046 30574.5371 -116.5113 -74.9187
ENERGY: 1200000 13.8164 18.7905 9.2268 0.0000 -10846.8442 1406.4360 0.0000 0.0000 1797.0940 -7601.4805 304.9532 -9398.5745 -7660.6400 300.2690 -313.3759 -286.8031 30653.4358 -140.3918 -100.9316
ENERGY: 1500000 5.0374 13.1646 7.5413 0.0000 -10892.9880 1422.0729 0.0000 0.0000 1782.0308 -7663.1409 302.3971 -9445.1718 -7655.0399 300.8978 143.3855 194.9599 30072.5864 -117.0883 -76.2930
TCL: Running FEP window  13: Lambda1 0.6    Lambda2 0.65   [dLambda 0.050000000000000044]
TCL: Setting parameter firsttimestep to 0
TCL: Setting parameter alchLambda to 0.6
Info: NONBONDED TABLE R-SQUARED SPACING: 0.0625
Info: NONBONDED TABLE SIZE: 705 POINTS
TCL: Setting parameter alchLambda2 to 0.65
Info: NONBONDED TABLE R-SQUARED SPACING: 0.0625
Info: NONBONDED TABLE SIZE: 705 POINTS
TCL: Running for 1500000 steps
ETITLE: TS BOND ANGLE DIHED IMPRP ELECT VDW BOUNDARY MISC KINETIC TOTAL TEMP POTENTIAL TOTALAVG TEMPAVG PRESSURE GPRESSURE VOLUME PRESSAVG GPRESSAVG
ENERGY: 0 5.0374 13.1646 7.5413 0.0000 -10893.5747 1423.2805 0.0000 0.0000 1781.1552 -7663.3957 302.2485 -9444.5509 -7663.3957 302.2485 135.4367 222.5183 30072.5864 135.4367 222.5183
ENERGY: 300000 5.2688 17.2777 7.7082 0.0000 -10879.5072 1431.8182 0.0000 0.0000 1765.6315 -7651.8028 299.6143 -9417.4343 -7694.1027 298.2958 107.9755 238.4666 30261.7233 -50.7680 49.7942
ENERGY: 600000 12.8336 16.6484 11.2447 0.0000 -10907.4842 1428.2996 0.0000 0.0000 1763.9624 -7674.4956 299.3311 -9438.4580 -7696.3432 298.8606 -24.7449 -10.9695 29776.9249 -155.2961 -87.7822
ENERGY: 900000 6.3018 14.9966 10.0583 0.0000 -10868.6856 1478.2475 0.0000 0.0000 1773.1203 -7585.9611 300.8851 -9359.0814 -7677.1398 301.0993 645.3480 714.8495 30423.6924 -84.1872 -17.1376
ENERGY: 1200000 4.4723 10.0580 9.9090 0.0000 -10768.5855 1431.9400 0.0000 0.0000 1696.8284 -7615.3778 287.9389 -9312.2062 -7676.1906 299.5038 220.1828 302.8925 30445.2047 -168.5456 -94.3043
ENERGY: 1500000 6.5942 12.7345 6.8343 0.0000 -10797.3324 1416.2551 0.0000 0.0000 1700.5495 -7654.3647 288.5704 -9354.9142 -7676.9108 299.2574 -106.7181 -42.0314 31020.1165 -161.2543 -86.5888
TCL: Running FEP window  14: Lambda1 0.65   Lambda2 0.7000000000000001 [dLambda 0.050000000000000044]
TCL: Setting parameter firsttimestep to 0
TCL: Setting parameter alchLambda to 0.65
Info: NONBONDED TABLE R-SQUARED SPACING: 0.0625
Info: NONBONDED TABLE SIZE: 705 POINTS
TCL: Setting parameter alchLambda2 to 0.7000000000000001
Info: NONBONDED TABLE R-SQUARED SPACING: 0.0625
Info: NONBONDED TABLE SIZE: 705 POINTS
TCL: Running for 1500000 steps
ETITLE: TS BOND ANGLE DIHED IMPRP ELECT VDW BOUNDARY MISC KINETIC TOTAL TEMP POTENTIAL TOTALAVG TEMPAVG PRESSURE GPRESSURE VOLUME PRESSAVG GPRESSAVG
ENERGY: 0 6.5942 12.7345 6.8343 0.0000 -10798.3634 1415.5186 0.0000 0.0000 1699.6938 -7656.9879 288.4252 -9356.6817 -7656.9879 288.4252 -125.6593 -37.5745 31020.1165 -125.6593 -37.5745
ENERGY: 300000 5.5092 16.5713 7.8735 0.0000 -10845.6936 1398.5987 0.0000 0.0000 1787.0727 -7630.0681 303.2527 -9417.1409 -7660.3050 297.4989 -411.5340 -280.5014 30671.3663 -317.1927 -249.4605
ENERGY: 600000 3.9052 13.2695 10.4085 0.0000 -10750.9785 1406.8224 0.0000 0.0000 1734.8326 -7581.7405 294.3880 -9316.5731 -7662.8380 298.1199 -122.8967 -79.5694 30612.5318 -143.4334 -65.3435
ENERGY: 900000 5.0906 15.6501 9.7002 0.0000 -11140.1283 1591.9913 0.0000 0.0000 1753.6600 -7764.0360 297.5828 -9517.6961 -7679.5072 298.0028 806.8130 831.3633 30126.9353 -52.5264 20.0516
ENERGY: 1200000 3.5626 12.4208 11.1873 0.0000 -10976.8230 1480.5005 0.0000 0.0000 1761.1651 -7707.9866 298.8564 -9469.1517 -7671.8356 298.0179 538.2548 587.9094 30060.2416 32.2615 100.8835
ENERGY: 1500000 5.1377 17.2886 6.9018 0.0000 -10851.2241 1401.0229 0.0000 0.0000 1746.4279 -7674.4453 296.3556 -9420.8732 -7675.2171 298.1375 -305.5104 -225.7252 30696.6805 85.8647 151.9679
TCL: Running FEP window  15: Lambda1 0.7000000000000001 Lambda2 0.7500000000000001 [dLambda 0.050000000000000044]
TCL: Setting parameter firsttimestep to 0
TCL: Setting parameter alchLambda to 0.7000000000000001
Info: NONBONDED TABLE R-SQUARED SPACING: 0.0625
Info: NONBONDED TABLE SIZE: 705 POINTS
TCL: Setting parameter alchLambda2 to 0.7500000000000001
Info: NONBONDED TABLE R-SQUARED SPACING: 0.0625
Info: NONBONDED TABLE SIZE: 705 POINTS
TCL: Running for 1500000 steps
ETITLE: TS BOND ANGLE DIHED IMPRP ELECT VDW BOUNDARY MISC KINETIC TOTAL TEMP POTENTIAL TOTALAVG TEMPAVG PRESSURE GPRESSURE VOLUME PRESSAVG GPRESSAVG
ENERGY: 0 5.1377 17.2886 6.9018 0.0000 -10853.3372 1401.6061 0.0000 0.0000 1745.5585 -7676.8445 296.2081 -9422.4030 -7676.8445 296.2081 -273.7127 -205.6167 30696.6805 -273.7127 -205.6167
ENERGY: 300000 5.7836 11.2657 12.3759 0.0000 -11019.2329 1489.2180 0.0000 0.0000 1746.1722 -7754.4175 296.3122 -9500.5897 -7690.9878 299.3459 146.2113 269.9636 30181.6307 204.5591 287.4018
ENERGY: 600000 3.8894 15.6326 10.0337 0.0000 -10935.8761 1394.2587 0.0000 0.0000 1756.7900 -7755.2717 298.1140 -9512.0617 -7698.3943 298.4857 -536.1669 -489.2974 30504.7305 -59.0436 7.2868
ENERGY: 900000 7.2471 14.9290 9.8203 0.0000 -11020.7941 1529.0172 0.0000 0.0000 1791.9361 -7667.8444 304.0780 -9459.7805 -7703.9429 299.7919 909.6522 935.3312 30143.7976 14.9062 71.1432
ENERGY: 1200000 9.3973 17.4279 6.4081 0.0000 -10988.8260 1458.1058 0.0000 0.0000 1823.8552 -7673.6317 309.4944 -9497.4869 -7694.0875 301.8408 103.1749 153.1638 30422.0920 -4.8134 53.2240
ENERGY: 1500000 2.4991 14.2669 12.5242 0.0000 -10865.2254 1370.7717 0.0000 0.0000 1801.9827 -7663.1809 305.7828 -9465.1635 -7688.3112 302.4495 -432.3660 -366.6777 30427.1082 -33.2609 24.7697
TCL: Running FEP window  16: Lambda1 0.7500000000000001 Lambda2 0.8000000000000002 [dLambda 0.050000000000000044]
TCL: Setting parameter firsttimestep to 0
TCL: Setting parameter alchLambda to 0.7500000000000001
Info: NONBONDED TABLE R-SQUARED SPACING: 0.0625
Info: NONBONDED TABLE SIZE: 705 POINTS
TCL: Setting parameter alchLambda2 to 0.8000000000000002
Info: NONBONDED TABLE R-SQUARED SPACING: 0.0625
Info: NONBONDED TABLE SIZE: 705 POINTS
TCL: Running for 1500000 steps
ETITLE: TS BOND ANGLE DIHED IMPRP ELECT VDW BOUNDARY MISC KINETIC TOTAL TEMP POTENTIAL TOTALAVG TEMPAVG PRESSURE GPRESSURE VOLUME PRESSAVG GPRESSAVG
ENERGY: 0 2.4991 14.2669 12.5242 0.0000 -10866.6949 1370.5580 0.0000 0.0000 1801.1410 -7665.7057 305.6400 -9466.8467 -7665.7057 305.6400 -442.0039 -351.9159 30427.1082 -442.0039 -351.9159
ENERGY: 300000 7.3694 14.2642 5.9473 0.0000 -10848.1440 1386.4826 0.0000 0.0000 1751.2545 -7682.8259 297.1746 -9434.0805 -7667.3668 303.1951 -543.8685 -427.4818 30933.8932 -393.1324 -287.5038
ENERGY: 600000 8.4896 15.5886 11.0447 0.0000 -10952.9135 1467.1778 0.0000 0.0000 1751.5806 -7699.0322 297.2300 -9450.6128 -7666.2369 303.1079 240.5019 305.0262 30208.3180 -4.7897 78.0857
ENERGY: 900000 6.1261 18.2782 6.6844 0.0000 -10801.0398 1411.6674 0.0000 0.0000 1737.0229 -7621.2608 294.7596 -9358.2837 -7671.0714 301.1313 124.0498 201.6459 30661.2919 -51.1940 32.7180
ENERGY: 1200000 6.2858 18.8053 6.8507 0.0000 -10762.7981 1374.2706 0.0000 0.0000 1756.2275 -7600.3582 298.0185 -9356.5857 -7664.6585 301.2487 -185.0294 -128.1472 30331.1623 -35.8277 39.1881
ENERGY: 1500000 6.1884 15.5985 8.4594 0.0000 -10879.7549 1360.2030 0.0000 0.0000 1768.2690 -7721.0366 300.0619 -9489.3056 -7677.0659 300.9684 -784.3803 -736.1536 30786.6978 -127.2716 -53.1330
TCL: Running FEP window  17: Lambda1 0.8000000000000002 Lambda2 0.8500000000000002 [dLambda 0.050000000000000044]
TCL: Setting parameter firsttimestep to 0
TCL: Setting parameter alchLambda to 0.8000000000000002
Info: NONBONDED TABLE R-SQUARED SPACING: 0.0625
Info: NONBONDED TABLE SIZE: 705 POINTS
TCL: Setting parameter alchLambda2 to 0.8500000000000002
Info: NONBONDED TABLE R-SQUARED SPACING: 0.0625
Info: NONBONDED TABLE SIZE: 705 POINTS
TCL: Running for 1500000 steps
ETITLE: TS BOND ANGLE DIHED IMPRP ELECT VDW BOUNDARY MISC KINETIC TOTAL TEMP POTENTIAL TOTALAVG TEMPAVG PRESSURE GPRESSURE VOLUME PRESSAVG GPRESSAVG
ENERGY: 0 6.1884 15.5985 8.4594 0.0000 -10882.0696 1361.2400 0.0000 0.0000 1767.4222 -7723.1611 299.9182 -9490.5834 -7723.1611 299.9182 -770.6194 -704.6005 30786.6978 -770.6194 -704.6005
ENERGY: 300000 7.0714 17.7249 7.2297 0.0000 -10842.2170 1424.3497 0.0000 0.0000 1767.0392 -7618.8021 299.8532 -9385.8413 -7650.6874 300.1053 119.3738 145.9228 30463.6347 -42.7549 -0.2165
ENERGY: 600000 8.2169 14.8359 5.8082 0.0000 -10849.5193 1378.8032 0.0000 0.0000 1738.7660 -7703.0891 295.0554 -9441.8551 -7676.7528 299.0888 -522.1707 -474.5233 30647.2186 -109.7507 -54.7180
ENERGY: 900000 7.4622 15.1208 6.6489 0.0000 -10937.8023 1421.7488 0.0000 0.0000 1776.6063 -7710.2153 301.4766 -9486.8216 -7672.8571 301.1039 29.1528 102.6890 30221.0829 -61.2995 -4.0688
ENERGY: 1200000 8.6726 19.8821 6.9409 0.0000 -10876.8696 1418.9282 0.0000 0.0000 1716.5448 -7705.9011 291.2847 -9422.4459 -7677.1766 299.7316 -214.6848 -154.2773 30273.0814 -162.6125 -100.7581
ENERGY: 1500000 8.3964 12.2648 11.7633 0.0000 -10992.5055 1444.9289 0.0000 0.0000 1774.7712 -7740.3808 301.1652 -9515.1520 -7699.0500 299.5920 -297.6246 -241.9480 30535.3695 -226.1523 -164.7353
TCL: Running FEP window  18: Lambda1 0.8500000000000002 Lambda2 0.9000000000000002 [dLambda 0.050000000000000044]
TCL: Setting parameter firsttimestep to 0
TCL: Setting parameter alchLambda to 0.8500000000000002
Info: NONBONDED TABLE R-SQUARED SPACING: 0.0625
Info: NONBONDED TABLE SIZE: 705 POINTS
TCL: Setting parameter alchLambda2 to 0.9000000000000002
Info: NONBONDED TABLE R-SQUARED SPACING: 0.0625
Info: NONBONDED TABLE SIZE: 705 POINTS
TCL: Running for 1500000 steps
ETITLE: TS BOND ANGLE DIHED IMPRP ELECT VDW BOUNDARY MISC KINETIC TOTAL TEMP POTENTIAL TOTALAVG TEMPAVG PRESSURE GPRESSURE VOLUME PRESSAVG GPRESSAVG
ENERGY: 0 8.3964 12.2648 11.7633 0.0000 -10995.3619 1444.6413 0.0000 0.0000 1773.8894 -7744.4067 301.0156 -9518.2961 -7744.4067 301.0156 -312.5732 -236.1910 30535.3695 -312.5732 -236.1910
ENERGY: 300000 4.5414 18.2734 9.8548 0.0000 -10952.9853 1470.6684 0.0000 0.0000 1734.0407 -7715.6066 294.2536 -9449.6473 -7697.9831 302.0810 190.3136 265.4776 30289.3804 -0.4106 53.7000
ENERGY: 600000 5.3721 20.0283 9.8473 0.0000 -10949.9450 1470.7236 0.0000 0.0000 1809.5996 -7634.3741 307.0754 -9443.9737 -7682.1199 302.7102 265.1221 375.2360 30351.8482 64.0408 140.7618
ENERGY: 900000 6.6081 22.0094 7.0811 0.0000 -10730.6600 1282.7432 0.0000 0.0000 1779.0227 -7633.1955 301.8867 -9412.2182 -7678.0383 301.8121 -1124.0577 -1083.7382 30850.5576 -34.9958 36.3791
ENERGY: 1200000 9.7941 13.6052 8.7845 0.0000 -10808.7603 1354.7764 0.0000 0.0000 1778.0784 -7643.7215 301.7264 -9421.8000 -7670.9982 301.9374 -662.4006 -580.5309 30377.3622 -164.2426 -92.3871
ENERGY: 1500000 5.2257 16.7098 7.3837 0.0000 -10843.4177 1374.2445 0.0000 0.0000 1757.0030 -7682.8511 298.1501 -9439.8541 -7669.2179 302.4803 -548.8054 -474.8365 30755.3189 -128.4359 -59.2597
TCL: Running FEP window  19: Lambda1 0.9000000000000002 Lambda2 0.9500000000000003 [dLambda 0.050000000000000044]
TCL: Setting parameter firsttimestep to 0
TCL: Setting parameter alchLambda to 0.9000000000000002
Info: NONBONDED TABLE R-SQUARED SPACING: 0.0625
Info: NONBONDED TABLE SIZE: 705 POINTS
TCL: Setting parameter alchLambda2 to 0.9500000000000003
Info: NONBONDED TABLE R-SQUARED SPACING: 0.0625
Info: NONBONDED TABLE SIZE: 705 POINTS
TCL: Running for 1500000 steps
ETITLE: TS BOND ANGLE DIHED IMPRP ELECT VDW BOUNDARY MISC KINETIC TOTAL TEMP POTENTIAL TOTALAVG TEMPAVG PRESSURE GPRESSURE VOLUME PRESSAVG GPRESSAVG
ENERGY: 0 5.2257 16.7098 7.3837 0.0000 -10847.0386 1375.1715 0.0000 0.0000 1756.1157 -7686.4323 297.9995 -9442.5480 -7686.4323 297.9995 -525.9754 -450.8382 30755.3189 -525.9754 -450.8382
ENERGY: 300000 6.1001 11.0770 8.0145 0.0000 -11012.1288 1544.4056 0.0000 0.0000 1801.9220 -7640.6095 305.7725 -9442.5315 -7650.3696 300.0199 1301.1269 1314.3681 29872.8735 152.8865 187.6959
ENERGY: 600000 12.7642 13.1256 16.3659 0.0000 -10917.2725 1380.4197 0.0000 0.0000 1831.9492 -7662.6479 310.8679 -9494.5971 -7665.0239 301.6977 -443.4892 -436.6201 30432.3742 143.1514 167.6534
ENERGY: 900000 8.1616 21.6206 12.3385 0.0000 -10930.7769 1445.6124 0.0000 0.0000 1796.2206 -7646.8231 304.8050 -9443.0437 -7660.7424 301.6868 39.8304 147.6541 30244.2130 55.1363 102.6138
ENERGY: 1200000 4.6038 9.4446 9.7514 0.0000 -10886.2755 1424.9834 0.0000 0.0000 1709.8772 -7727.6150 290.1532 -9437.4922 -7679.6404 300.3118 -70.9748 70.0408 30313.7366 58.1661 102.3622
ENERGY: 1500000 3.8044 15.8551 11.9465 0.0000 -10886.6919 1434.6411 0.0000 0.0000 1835.3515 -7585.0933 311.4453 -9420.4448 -7673.4904 301.9052 266.7166 262.3700 30483.4292 148.5636 189.5947
TCL: Running FEP window  20: Lambda1 0.9500000000000003 Lambda2 1.0    [dLambda 0.04999999999999971]
TCL: Setting parameter firsttimestep to 0
TCL: Setting parameter alchLambda to 0.9500000000000003
Info: NONBONDED TABLE R-SQUARED SPACING: 0.0625
Info: NONBONDED TABLE SIZE: 705 POINTS
TCL: Setting parameter alchLambda2 to 1.0
Info: NONBONDED TABLE R-SQUARED SPACING: 0.0625
Info: NONBONDED TABLE SIZE: 705 POINTS
TCL: Running for 1500000 steps
ETITLE: TS BOND ANGLE DIHED IMPRP ELECT VDW BOUNDARY MISC KINETIC TOTAL TEMP POTENTIAL TOTALAVG TEMPAVG PRESSURE GPRESSURE VOLUME PRESSAVG GPRESSAVG
ENERGY: 0 3.8044 15.8551 11.9465 0.0000 -10889.3161 1436.0020 0.0000 0.0000 1834.4660 -7587.2421 311.2950 -9421.7081 -7587.2421 311.2950 217.6241 303.8483 30483.4292 217.6241 303.8483
ENERGY: 300000 5.7580 14.0536 9.8575 0.0000 -10883.8172 1360.2142 0.0000 0.0000 1801.3725 -7692.5614 305.6793 -9493.9339 -7649.9048 303.6420 -807.8975 -767.6690 30801.4462 -313.5746 -263.5728
ENERGY: 600000 3.7455 13.9991 8.6806 0.0000 -10954.2529 1472.3548 0.0000 0.0000 1787.8437 -7667.6292 303.3835 -9455.4729 -7670.5226 301.5675 575.5087 619.2107 30189.5306 30.1033 94.4460
ENERGY: 900000 11.8268 16.2345 9.8526 0.0000 -10997.5870 1439.6269 0.0000 0.0000 1742.5747 -7777.4715 295.7017 -9520.0462 -7691.1872 299.3630 4.4998 77.9958 30362.9389 -4.7660 61.7798
ENERGY: 1200000 7.5830 16.3547 13.0884 0.0000 -10902.1060 1397.1708 0.0000 0.0000 1750.2264 -7717.6828 297.0002 -9467.9091 -7693.3109 298.9248 -360.9778 -314.1541 30534.8172 -13.1654 48.3176
ENERGY: 1500000 4.3983 20.4572 6.3493 0.0000 -10856.2113 1345.1368 0.0000 0.0000 1778.4098 -7701.4598 301.7827 -9479.8696 -7698.6596 299.3682 -680.9991 -669.9562 30674.5198 -34.5363 15.5025
TCL: Exiting due to exit command.
