Info: SIMULATION PARAMETERS:
Info: TIMESTEP               2
Info: NUMBER OF STEPS        0
Info: STEPS PER CYCLE        10
Info: PERIODIC CELL BASIS 1  30.2769 0 0
Info: PERIODIC CELL BASIS 2  0 29.5617 0
Info: PERIODIC CELL BASIS 3  0 0 33.1482
Info: PERIODIC CELL CENTER   0 0 0
Info: WRAPPING WATERS AROUND PERIODIC BOUNDARIES ON OUTPUT.
Info: WRAPPING ALL CLUSTERS AROUND PERIODIC BOUNDARIES ON OUTPUT.
Info: FIRST LDB TIMESTEP     50
Info: LAST LDB TIMESTEP     -1
Info: HOM BACKGROUND SCALING 1
Info: PME BACKGROUND SCALING 1
Info: MIN ATOMS PER PATCH    40
Info: EMPTY PATCH LOAD       40 ATOMS
Info: VELOCITY FILE          mobley_2859600_equil.vel
Info: CENTER OF MASS MOVING INITIALLY? NO
Info: DIELECTRIC             1
Info: EXCLUDE                SCALED ONE-FOUR
Info: 1-4 ELECTROSTATICS SCALED BY 0.833333
Info: MODIFIED 1-4 VDW PARAMETERS WILL BE USED
Info: DCD FILENAME           mobley_2859600_prod.dcd
Info: DCD FREQUENCY          100000
Info: DCD FIRST STEP         100000
Info: DCD FILE WILL CONTAIN UNIT CELL DATA
Info: XST FILENAME           mobley_2859600_prod.xst
Info: XST FREQUENCY          100000
Info: NO VELOCITY DCD OUTPUT
Info: NO FORCE DCD OUTPUT
Info: OUTPUT FILENAME        mobley_2859600_prod
Info: BINARY OUTPUT FILES WILL BE USED
Info: RESTART FILENAME       mobley_2859600_prod.restart
Info: RESTART FREQUENCY      100000
Info: BINARY RESTART FILES WILL BE USED
Info: CUTOFF                 9
Info: PAIRLIST DISTANCE      11
Info: PAIRLIST SHRINK RATE   0.01
Info: PAIRLIST GROW RATE     0.01
Info: PAIRLIST TRIGGER       0.3
Info: PAIRLISTS PER CYCLE    2
Info: PAIRLISTS ENABLED
Info: MARGIN                 2
Info: HYDROGEN GROUP CUTOFF  2.5
Info: PATCH DIMENSION        15.5
Info: ENERGY OUTPUT STEPS    100000
Info: ENERGY EVALUATION STEPS    100000
Info: OUTPUT ENERGY PRECISION 4
Info: CROSSTERM ENERGY INCLUDED IN DIHEDRAL
Info: TIMING OUTPUT STEPS    1000000
Info: PRESSURE OUTPUT STEPS  100000
Info: ALCHEMICAL FEP ON
Info: FEP CURRENT LAMBDA VALUE     0
Info: FEP COMPARISON LAMBDA VALUE  0.05
Info: FEP INTRA-ALCHEMICAL NON-BONDED INTERACTIONS WILL BE RETAINED
Info: FEP INTRA-ALCHEMICAL BONDED INTERACTIONS WILL BE RETAINED
Info: FEP VDW SHIFTING COEFFICIENT 5
Info: FEP ELEC. ACTIVE FOR ANNIHILATED PARTICLES BETWEEN LAMBDA = 0 AND LAMBDA = 0.5
Info: FEP ELEC. ACTIVE FOR EXNIHILATED PARTICLES BETWEEN LAMBDA = 0.5 AND LAMBDA = 1
Info: FEP VDW ACTIVE FOR ANNIHILATED PARTICLES BETWEEN LAMBDA = 0 AND LAMBDA = 1
Info: FEP VDW ACTIVE FOR EXNIHILATED PARTICLES BETWEEN LAMBDA = 0 AND LAMBDA = 1
Info: FEP BOND ACTIVE FOR ANNIHILATED PARTICLES BETWEEN LAMBDA = 1 AND LAMBDA = 1
Info: FEP BOND ACTIVE FOR EXNIHILATED PARTICLES BETWEEN LAMBDA = 0 AND LAMBDA = 0
Info: LANGEVIN DYNAMICS ACTIVE
Info: LANGEVIN TEMPERATURE   300
Info: LANGEVIN USING BBK INTEGRATOR
Info: LANGEVIN DAMPING COEFFICIENT IS 1 INVERSE PS
Info: LANGEVIN DYNAMICS APPLIED TO HYDROGENS
Info: LANGEVIN PISTON PRESSURE CONTROL ACTIVE
Info:        TARGET PRESSURE IS 1.01325 BAR
Info:     OSCILLATION PERIOD IS 50 FS
Info:             DECAY TIME IS 25 FS
Info:     PISTON TEMPERATURE IS 300 K
Info:       PRESSURE CONTROL IS GROUP-BASED
Info:    INITIAL STRAIN RATE IS 0.000276954 0.000276954 0.000276954
Info:       CELL FLUCTUATION IS ISOTROPIC
Info: PARTICLE MESH EWALD (PME) ACTIVE
Info: PME TOLERANCE               1e-06
Info: PME EWALD COEFFICIENT       0.348832
Info: PME INTERPOLATION ORDER     4
Info: PME GRID DIMENSIONS         32 32 36
Info: PME MAXIMUM GRID SPACING    1
Info: PME CALCULATION WILL BE PERFORMED ON GPU
Info: FULL ELECTROSTATIC EVALUATION FREQUENCY      2
Info: USING VERLET I (r-RESPA) MTS SCHEME.
Info: C1 SPLITTING OF LONG RANGE ELECTROSTATICS
Info: PLACING ATOMS IN PATCHES BY HYDROGEN GROUPS
Info: RIGID BONDS TO HYDROGEN : ALL
Info:         ERROR TOLERANCE : 1e-08
Info:          MAX ITERATIONS : 100
Info: RIGID WATER USING SETTLE ALGORITHM
Info: RANDOM NUMBER SEED     1743753039
Info: USE HYDROGEN BONDS?    NO
Info: Using AMBER format force field!
Info: AMBER PARM FILE        mobley_2859600.prmtop
Info: COORDINATE PDB         mobley_2859600.pdb
Info: Exclusions will be read from PARM file!
Info: SCNB (VDW SCALING)     2
Info: USING ARITHMETIC MEAN TO COMBINE L-J SIGMA PARAMETERS
Info: BINARY COORDINATES     mobley_2859600_equil.coor
Info: SUMMARY OF PARAMETERS:
Info: 8 BONDS
Info: 8 ANGLES
Info:   8 HARMONIC
Info:   0 COSINE-BASED
Info: 4 DIHEDRAL
Info: 0 IMPROPER
Info: 0 CROSSTERM
Info: 0 VDW
Info: 10 VDW_PAIRS
Info: 0 NBTHOLE_PAIRS
Info: To read alchdata from file: mobley_2859600.pdb
Info: To read alchflag data from column: 5
Info: STRUCTURE SUMMARY:
Info: 2908 ATOMS
Info: 2908 BONDS
Info: 24 ANGLES
Info: 40 DIHEDRALS
Info: 0 IMPROPERS
Info: 0 CROSSTERMS
Info: 2961 EXCLUSIONS
Info: 2900 RIGID BONDS
Info: ALCH: 0 ATOMS TO DISAPPEAR IN FINAL STATE
Info: ALCH: 16 ATOMS TO APPEAR IN FINAL STATE
Info: 5824 DEGREES OF FREEDOM
Info: 972 HYDROGEN GROUPS
Info: 3 ATOMS IN LARGEST HYDROGEN GROUP
Info: 972 MIGRATION GROUPS
Info: 3 ATOMS IN LARGEST MIGRATION GROUP
Info: TOTAL MASS = 17471.6 amu
Info: TOTAL CHARGE = 9.9998e-05 e
Info: MASS DENSITY = 0.977894 g/cm^3
Info: ATOM DENSITY = 0.0980155 atoms/A^3
Info: ADDED 0 IMPLICIT EXCLUSIONS
Info: NONBONDED TABLE R-SQUARED SPACING: 0.0625
Info: NONBONDED TABLE SIZE: 705 POINTS
Info: REMOVING COM VELOCITY 0.146907 0.143049 0.0591189
Info: Use 3D box decompostion in PME FFT.
Info: Updated CUDA force table with 4096 elements.
Info: Updated CUDA LJ table with 4 x 4 elements.
Info: Found 15 unique exclusion lists needing 36 bytes
TCL: Running for 1500000 steps
ETITLE: TS BOND ANGLE DIHED IMPRP ELECT VDW BOUNDARY MISC KINETIC TOTAL TEMP POTENTIAL TOTALAVG TEMPAVG PRESSURE GPRESSURE VOLUME PRESSAVG GPRESSAVG
ENERGY: 0 2.1451 4.6877 2.8265 0.0000 -10605.3730 1461.1821 0.0000 0.0000 1734.4440 -7400.0877 299.7294 -9134.5317 -7400.0877 299.7294 90.2169 179.4378 29668.7711 90.2169 179.4378
ENERGY: 300000 2.1377 6.6882 2.8842 0.0000 -10609.3418 1453.5304 0.0000 0.0000 1752.2562 -7391.8452 302.8075 -9144.1014 -7394.8024 299.0062 42.5268 121.2682 29741.6454 110.8866 178.8614
ENERGY: 600000 1.7937 2.2677 2.8458 0.0000 -10598.1592 1429.7028 0.0000 0.0000 1733.6649 -7427.8842 299.5947 -9161.5491 -7378.5504 300.8493 187.4302 234.9711 29005.8447 -9.6149 49.9985
ENERGY: 900000 2.7431 2.6588 2.8736 0.0000 -10580.3779 1489.2863 0.0000 0.0000 1720.0285 -7362.7875 297.2382 -9082.8161 -7379.1369 300.4042 693.3192 744.0844 29638.2964 25.0609 80.5591
ENERGY: 1200000 1.3774 6.2342 5.9402 0.0000 -10550.5615 1449.4698 0.0000 0.0000 1722.8038 -7364.7360 297.7178 -9087.5399 -7378.1952 300.2999 -32.9632 85.9630 29917.1383 -27.3078 38.0302
ENERGY: 1500000 1.2009 4.2733 8.9488 0.0000 -10445.0405 1362.6119 0.0000 0.0000 1734.6441 -7333.3615 299.7640 -9068.0057 -7370.9799 300.0835 -460.6165 -416.6764 29966.1783 -44.9333 19.4383
TCL: Running FEP window   2: Lambda1 0.05   Lambda2 0.1    [dLambda 0.05  ]
TCL: Setting parameter firsttimestep to 0
TCL: Setting parameter alchLambda to 0.05
Info: NONBONDED TABLE R-SQUARED SPACING: 0.0625
Info: NONBONDED TABLE SIZE: 705 POINTS
TCL: Setting parameter alchLambda2 to 0.1
Info: NONBONDED TABLE R-SQUARED SPACING: 0.0625
Info: NONBONDED TABLE SIZE: 705 POINTS
TCL: Running for 1500000 steps
ETITLE: TS BOND ANGLE DIHED IMPRP ELECT VDW BOUNDARY MISC KINETIC TOTAL TEMP POTENTIAL TOTALAVG TEMPAVG PRESSURE GPRESSURE VOLUME PRESSAVG GPRESSAVG
ENERGY: 0 1.2009 4.2733 8.9488 0.0000 -10445.0401 1366.1027 0.0000 0.0000 1733.7682 -7330.7463 299.6126 -9064.5145 -7330.7463 299.6126 -480.3403 -409.7947 29966.1783 -480.3403 -409.7947
ENERGY: 300000 4.3213 5.8014 4.8446 0.0000 -10444.2868 1370.4272 0.0000 0.0000 1741.2866 -7317.6056 300.9118 -9058.8922 -7314.8339 301.3693 -368.8337 -285.1565 29739.1636 -421.7717 -357.6996
ENERGY: 600000 1.3642 6.1548 7.5726 0.0000 -10459.8225 1408.4120 0.0000 0.0000 1756.6864 -7279.6325 303.5731 -9036.3189 -7313.7229 301.5842 -116.5552 -144.7240 30206.5519 -263.0243 -214.0872
ENERGY: 900000 2.7627 3.6766 6.0617 0.0000 -10678.3843 1510.5119 0.0000 0.0000 1717.5815 -7437.7899 296.8154 -9155.3714 -7342.2006 299.9654 772.2438 770.7501 29276.5553 -75.7112 -28.0416
ENERGY: 1200000 2.1276 3.5072 7.6797 0.0000 -10686.2125 1480.8525 0.0000 0.0000 1729.7450 -7462.3004 298.9173 -9192.0454 -7354.0339 299.9669 414.1169 505.7541 29405.8519 -79.0380 -19.8938
ENERGY: 1500000 1.9488 3.7412 3.8398 0.0000 -10589.5957 1432.5674 0.0000 0.0000 1767.5740 -7379.9245 305.4546 -9147.4986 -7350.8937 301.1209 -157.8281 -56.3824 29930.7448 -71.0473 -6.4062
TCL: Running FEP window   3: Lambda1 0.1    Lambda2 0.15000000000000002 [dLambda 0.05000000000000002]
TCL: Setting parameter firsttimestep to 0
TCL: Setting parameter alchLambda to 0.1
Info: NONBONDED TABLE R-SQUARED SPACING: 0.0625
Info: NONBONDED TABLE SIZE: 705 POINTS
TCL: Setting parameter alchLambda2 to 0.15000000000000002
Info: NONBONDED TABLE R-SQUARED SPACING: 0.0625
Info: NONBONDED TABLE SIZE: 705 POINTS
TCL: Running for 1500000 steps
ETITLE: TS BOND ANGLE DIHED IMPRP ELECT VDW BOUNDARY MISC KINETIC TOTAL TEMP POTENTIAL TOTALAVG TEMPAVG PRESSURE GPRESSURE VOLUME PRESSAVG GPRESSAVG
ENERGY: 0 1.9488 3.7412 3.8398 0.0000 -10589.5946 1433.5384 0.0000 0.0000 1766.7246 -7379.8019 305.3078 -9146.5265 -7379.8019 305.3078 -146.6304 -47.4268 29930.7448 -146.6304 -47.4268
ENERGY: 300000 3.0802 3.4779 5.2072 0.0000 -10491.3799 1451.5556 0.0000 0.0000 1670.0352 -7358.0236 288.5989 -9028.0589 -7357.3105 300.8547 337.0138 385.9861 29989.9500 80.8972 140.9188
ENERGY: 600000 2.9132 5.4617 4.7260 0.0000 -10489.6182 1382.3926 0.0000 0.0000 1759.6244 -7334.5003 304.0808 -9094.1247 -7368.0787 300.6500 -331.4171 -276.8309 29814.6151 -40.0396 19.0559
ENERGY: 900000 1.8973 4.2618 5.7850 0.0000 -10396.3605 1351.1948 0.0000 0.0000 1689.6087 -7343.6129 291.9814 -9033.2216 -7363.5464 299.8093 -408.5993 -334.7708 29812.3961 -75.1899 -5.9228
ENERGY: 1200000 0.9518 4.4524 8.7189 0.0000 -10507.2553 1441.0689 0.0000 0.0000 1722.9746 -7329.0887 297.7473 -9052.0633 -7352.2654 300.5803 391.0544 471.9144 29700.0672 -55.5618 14.8542
ENERGY: 1500000 3.2933 7.8234 3.9169 0.0000 -10600.8622 1471.3512 0.0000 0.0000 1739.4449 -7375.0325 300.5936 -9114.4774 -7356.2875 300.2554 431.2089 507.2202 29685.3490 -56.4843 16.1962
TCL: Running FEP window   4: Lambda1 0.15000000000000002 Lambda2 0.2    [dLambda 0.04999999999999999]
TCL: Setting parameter firsttimestep to 0
TCL: Setting parameter alchLambda to 0.15000000000000002
Info: NONBONDED TABLE R-SQUARED SPACING: 0.0625
Info: NONBONDED TABLE SIZE: 705 POINTS
TCL: Setting parameter alchLambda2 to 0.2
Info: NONBONDED TABLE R-SQUARED SPACING: 0.0625
Info: NONBONDED TABLE SIZE: 705 POINTS
TCL: Running for 1500000 steps
ETITLE: TS BOND ANGLE DIHED IMPRP ELECT VDW BOUNDARY MISC KINETIC TOTAL TEMP POTENTIAL TOTALAVG TEMPAVG PRESSURE GPRESSURE VOLUME PRESSAVG GPRESSAVG
ENERGY: 0 3.2933 7.8234 3.9169 0.0000 -10600.8614 1471.9300 0.0000 0.0000 1738.5771 -7375.3207 300.4436 -9113.8978 -7375.3207 300.4436 415.1194 511.1986 29685.3490 415.1194 511.1986
ENERGY: 300000 1.3918 1.1960 5.5387 0.0000 -10595.4247 1450.0943 0.0000 0.0000 1739.4046 -7397.7993 300.5866 -9137.2039 -7384.2294 298.9881 242.3116 260.9689 29693.0591 309.0092 375.1786
ENERGY: 600000 0.4013 5.6003 8.6265 0.0000 -10495.9382 1384.7961 0.0000 0.0000 1749.4910 -7347.0229 302.3296 -9096.5139 -7375.3217 299.3745 -355.4085 -296.5716 30149.8243 56.0239 123.9311
ENERGY: 900000 3.0954 3.1203 6.0652 0.0000 -10487.0477 1389.7187 0.0000 0.0000 1722.1108 -7362.9374 297.5981 -9085.0482 -7375.5137 298.8483 -364.5288 -304.1826 29923.0643 42.3360 109.0537
ENERGY: 1200000 1.0982 8.3601 5.3355 0.0000 -10589.3485 1418.6058 0.0000 0.0000 1719.1899 -7436.7589 297.0933 -9155.9489 -7367.0606 299.4124 -197.3037 -140.2547 29520.7661 -73.7063 -12.8278
ENERGY: 1500000 4.7265 5.8028 4.6719 0.0000 -10495.6417 1350.4662 0.0000 0.0000 1728.5799 -7401.3945 298.7160 -9129.9744 -7375.3906 298.7734 -525.6900 -451.4774 29634.9909 -130.4665 -67.6196
TCL: Running FEP window   5: Lambda1 0.2    Lambda2 0.25   [dLambda 0.04999999999999999]
TCL: Setting parameter firsttimestep to 0
TCL: Setting parameter alchLambda to 0.2
Info: NONBONDED TABLE R-SQUARED SPACING: 0.0625
Info: NONBONDED TABLE SIZE: 705 POINTS
TCL: Setting parameter alchLambda2 to 0.25
Info: NONBONDED TABLE R-SQUARED SPACING: 0.0625
Info: NONBONDED TABLE SIZE: 705 POINTS
TCL: Running for 1500000 steps
ETITLE: TS BOND ANGLE DIHED IMPRP ELECT VDW BOUNDARY MISC KINETIC TOTAL TEMP POTENTIAL TOTALAVG TEMPAVG PRESSURE GPRESSURE VOLUME PRESSAVG GPRESSAVG
ENERGY: 0 4.7265 5.8028 4.6719 0.0000 -10495.6417 1350.8408 0.0000 0.0000 1727.7072 -7401.8926 298.5652 -9129.5998 -7401.8926 298.5652 -533.7177 -447.7878 29634.9909 -533.7177 -447.7878
ENERGY: 300000 3.4792 2.1845 2.1778 0.0000 -10550.2588 1511.0534 0.0000 0.0000 1726.1955 -7305.1686 298.3039 -9031.3640 -7332.8535 299.5252 787.1253 858.8834 30233.0456 -217.7267 -153.7709
ENERGY: 600000 1.6461 3.9352 8.5245 0.0000 -10486.1972 1380.1439 0.0000 0.0000 1759.2522 -7332.6954 304.0165 -9091.9476 -7340.3887 299.7054 -398.3286 -338.2717 30112.5668 -67.4119 5.1818
ENERGY: 900000 3.3936 3.2558 2.7797 0.0000 -10367.1916 1368.4464 0.0000 0.0000 1672.6112 -7316.7050 289.0440 -8989.3162 -7348.5603 299.3335 -283.8702 -242.7639 29907.2695 -19.5223 52.3289
ENERGY: 1200000 3.4275 3.2201 5.1436 0.0000 -10583.9261 1466.4877 0.0000 0.0000 1736.7305 -7368.9168 300.1245 -9105.6473 -7346.3665 299.2758 332.6092 478.7861 29476.9179 30.7274 106.4487
ENERGY: 1500000 2.3918 3.4280 5.7864 0.0000 -10623.6217 1482.5329 0.0000 0.0000 1713.7859 -7415.6967 296.1594 -9129.4826 -7355.5113 299.0818 512.3530 562.3417 29422.1697 130.0229 204.7295
TCL: Running FEP window   6: Lambda1 0.25   Lambda2 0.3    [dLambda 0.04999999999999999]
TCL: Setting parameter firsttimestep to 0
TCL: Setting parameter alchLambda to 0.25
Info: NONBONDED TABLE R-SQUARED SPACING: 0.0625
Info: NONBONDED TABLE SIZE: 705 POINTS
TCL: Setting parameter alchLambda2 to 0.3
Info: NONBONDED TABLE R-SQUARED SPACING: 0.0625
Info: NONBONDED TABLE SIZE: 705 POINTS
TCL: Running for 1500000 steps
ETITLE: TS BOND ANGLE DIHED IMPRP ELECT VDW BOUNDARY MISC KINETIC TOTAL TEMP POTENTIAL TOTALAVG TEMPAVG PRESSURE GPRESSURE VOLUME PRESSAVG GPRESSAVG
ENERGY: 0 2.3918 3.4280 5.7864 0.0000 -10623.6217 1482.2887 0.0000 0.0000 1712.9205 -7416.8064 296.0099 -9129.7269 -7416.8064 296.0099 486.2938 566.1122 29422.1697 486.2938 566.1122
ENERGY: 300000 3.3005 7.5927 5.3171 0.0000 -10606.7003 1493.5549 0.0000 0.0000 1735.5358 -7361.3994 299.9180 -9096.9352 -7368.9122 301.2767 615.9115 667.8281 29470.4363 320.6304 395.4065
ENERGY: 600000 1.9007 3.4974 4.9367 0.0000 -10599.5163 1455.1994 0.0000 0.0000 1715.4709 -7418.5112 296.4506 -9133.9821 -7370.9350 300.4257 317.5157 367.0221 29599.6994 27.2023 99.1748
ENERGY: 900000 1.0757 4.4697 3.9599 0.0000 -10510.9618 1442.1547 0.0000 0.0000 1728.6224 -7330.6794 298.7233 -9059.3017 -7370.5475 298.8139 154.4152 238.2327 30027.4403 -27.4516 36.4452
ENERGY: 1200000 4.0860 6.4492 5.3596 0.0000 -10478.8492 1421.0467 0.0000 0.0000 1762.1514 -7279.7563 304.5175 -9041.9077 -7363.1452 298.5196 169.1522 220.7993 29634.4859 18.5391 81.1152
ENERGY: 1500000 2.6293 3.0115 2.3442 0.0000 -10560.8858 1439.6981 0.0000 0.0000 1759.4154 -7353.7873 304.0447 -9113.2027 -7363.1247 298.7898 311.1269 374.6062 29506.8517 -26.1809 41.0590
TCL: Running FEP window   7: Lambda1 0.3    Lambda2 0.35   [dLambda 0.04999999999999999]
TCL: Setting parameter firsttimestep to 0
TCL: Setting parameter alchLambda to 0.3
Info: NONBONDED TABLE R-SQUARED SPACING: 0.0625
Info: NONBONDED TABLE SIZE: 705 POINTS
TCL: Setting parameter alchLambda2 to 0.35
Info: NONBONDED TABLE R-SQUARED SPACING: 0.0625
Info: NONBONDED TABLE SIZE: 705 POINTS
TCL: Running for 1500000 steps
ETITLE: TS BOND ANGLE DIHED IMPRP ELECT VDW BOUNDARY MISC KINETIC TOTAL TEMP POTENTIAL TOTALAVG TEMPAVG PRESSURE GPRESSURE VOLUME PRESSAVG GPRESSAVG
ENERGY: 0 2.6293 3.0115 2.3442 0.0000 -10560.8860 1441.5015 0.0000 0.0000 1758.5496 -7352.8499 303.8951 -9111.3995 -7352.8499 303.8951 299.0835 389.0645 29506.8517 299.0835 389.0645
ENERGY: 300000 1.6257 2.3894 6.9317 0.0000 -10647.1012 1491.0751 0.0000 0.0000 1736.5404 -7408.5390 300.0916 -9145.0794 -7383.5789 296.3477 495.4813 506.3395 29813.8855 101.7239 155.0750
ENERGY: 600000 3.1344 4.3506 5.4722 0.0000 -10648.6152 1523.8374 0.0000 0.0000 1775.6632 -7336.1575 306.8525 -9111.8207 -7371.5069 300.3542 823.8651 855.6415 29798.7241 144.5775 208.9321
ENERGY: 900000 2.5355 5.1337 4.8909 0.0000 -10546.6554 1427.1177 0.0000 0.0000 1762.6375 -7344.3401 304.6015 -9106.9776 -7372.8192 299.1495 257.7958 262.3421 29669.5959 145.9796 200.5650
ENERGY: 1200000 4.1471 2.5050 2.2683 0.0000 -10460.8753 1371.2920 0.0000 0.0000 1737.0231 -7343.6397 300.1751 -9080.6629 -7369.4351 300.1925 -332.6452 -286.5264 29838.5696 77.9138 131.4515
ENERGY: 1500000 1.3126 3.1518 4.8134 0.0000 -10458.6881 1416.6611 0.0000 0.0000 1672.3756 -7360.3736 289.0033 -9032.7492 -7356.5719 300.5285 41.0696 141.5897 30130.4973 58.0601 112.5518
TCL: Running FEP window   8: Lambda1 0.35   Lambda2 0.39999999999999997 [dLambda 0.04999999999999999]
TCL: Setting parameter firsttimestep to 0
TCL: Setting parameter alchLambda to 0.35
Info: NONBONDED TABLE R-SQUARED SPACING: 0.0625
Info: NONBONDED TABLE SIZE: 705 POINTS
TCL: Setting parameter alchLambda2 to 0.39999999999999997
Info: NONBONDED TABLE R-SQUARED SPACING: 0.0625
Info: NONBONDED TABLE SIZE: 705 POINTS
TCL: Running for 1500000 steps
ETITLE: TS BOND ANGLE DIHED IMPRP ELECT VDW BOUNDARY MISC KINETIC TOTAL TEMP POTENTIAL TOTALAVG TEMPAVG PRESSURE GPRESSURE VOLUME PRESSAVG GPRESSAVG
ENERGY: 0 1.3126 3.1518 4.8134 0.0000 -10458.6904 1416.8994 0.0000 0.0000 1671.5345 -7360.9786 288.8580 -9032.5131 -7360.9786 288.8580 61.0219 148.5646 30130.4973 61.0219 148.5646
ENERGY: 300000 4.8875 2.3500 7.6064 0.0000 -10448.9534 1388.7155 0.0000 0.0000 1719.4221 -7325.9718 297.1334 -9045.3939 -7331.9097 297.6831 -201.2944 -168.8197 30266.1312 -306.5936 -244.2844
ENERGY: 600000 1.2283 2.4482 4.1958 0.0000 -10477.5729 1370.7810 0.0000 0.0000 1693.6938 -7405.2258 292.6873 -9098.9196 -7323.4679 299.5913 -507.5294 -397.7868 29980.8761 -442.8660 -372.5871
ENERGY: 900000 5.4358 5.1108 3.4377 0.0000 -10540.0060 1399.8109 0.0000 0.0000 1721.9130 -7404.2977 297.5639 -9126.2107 -7335.8087 300.0934 -138.5378 -60.7363 29543.0318 -216.3357 -148.5716
ENERGY: 1200000 0.9487 4.8257 3.8310 0.0000 -10469.8892 1392.8679 0.0000 0.0000 1757.4627 -7309.9531 303.7072 -9067.4158 -7339.9311 299.7449 -312.4176 -228.3321 30345.8259 -234.9560 -164.8801
ENERGY: 1500000 1.9646 3.3018 6.0389 0.0000 -10435.1057 1377.6187 0.0000 0.0000 1746.5822 -7299.5996 301.8270 -9046.1817 -7345.4334 299.7455 -539.4972 -469.0523 30444.6601 -254.2908 -182.1419
TCL: Running FEP window   9: Lambda1 0.39999999999999997 Lambda2 0.44999999999999996 [dLambda 0.04999999999999999]
TCL: Setting parameter firsttimestep to 0
TCL: Setting parameter alchLambda to 0.39999999999999997
Info: NONBONDED TABLE R-SQUARED SPACING: 0.0625
Info: NONBONDED TABLE SIZE: 705 POINTS
TCL: Setting parameter alchLambda2 to 0.44999999999999996
Info: NONBONDED TABLE R-SQUARED SPACING: 0.0625
Info: NONBONDED TABLE SIZE: 705 POINTS
TCL: Running for 1500000 steps
ETITLE: TS BOND ANGLE DIHED IMPRP ELECT VDW BOUNDARY MISC KINETIC TOTAL TEMP POTENTIAL TOTALAVG TEMPAVG PRESSURE GPRESSURE VOLUME PRESSAVG GPRESSAVG
ENERGY: 0 1.9646 3.3018 6.0389 0.0000 -10435.1049 1377.5656 0.0000 0.0000 1745.7066 -7300.5275 301.6757 -9046.2341 -7300.5275 301.6757 -550.4070 -466.0191 30444.6601 -550.4070 -466.0191
ENERGY: 300000 3.7114 3.5761 6.2041 0.0000 -10507.8155 1349.0269 0.0000 0.0000 1727.2780 -7418.0190 298.4910 -9145.2971 -7338.0526 303.4046 -379.8002 -276.0041 29217.4282 -214.0192 -128.4876
ENERGY: 600000 3.0501 3.0960 4.2528 0.0000 -10568.5984 1379.7380 0.0000 0.0000 1790.3899 -7388.0717 309.3974 -9178.4615 -7345.1126 304.1004 -524.1923 -569.4321 30054.4815 -293.6073 -231.0964
ENERGY: 900000 2.5129 1.5673 4.4546 0.0000 -10674.1986 1499.9517 0.0000 0.0000 1738.3636 -7427.3485 300.4067 -9165.7121 -7348.5975 302.0742 580.3415 648.5196 29574.1520 -92.0790 -38.5143
ENERGY: 1200000 2.8321 4.9285 5.6615 0.0000 -10558.7528 1411.0780 0.0000 0.0000 1750.8482 -7383.4045 302.5642 -9134.2527 -7355.3195 300.9792 -307.1395 -210.2573 29899.4319 21.5613 78.6027
ENERGY: 1500000 2.3848 1.9989 5.8181 0.0000 -10623.4030 1519.3985 0.0000 0.0000 1687.8413 -7405.9615 291.6760 -9093.8028 -7347.0386 301.2202 621.8319 704.3826 29992.7951 -1.3031 55.5339
TCL: Running FEP window  10: Lambda1 0.44999999999999996 Lambda2 0.49999999999999994 [dLambda 0.04999999999999999]
TCL: Setting parameter firsttimestep to 0
TCL: Setting parameter alchLambda to 0.44999999999999996
Info: NONBONDED TABLE R-SQUARED SPACING: 0.0625
Info: NONBONDED TABLE SIZE: 705 POINTS
TCL: Setting parameter alchLambda2 to 0.49999999999999994
Info: NONBONDED TABLE R-SQUARED SPACING: 0.0625
Info: NONBONDED TABLE SIZE: 705 POINTS
TCL: Running for 1500000 steps
ETITLE: TS BOND ANGLE DIHED IMPRP ELECT VDW BOUNDARY MISC KINETIC TOTAL TEMP POTENTIAL TOTALAVG TEMPAVG PRESSURE GPRESSURE VOLUME PRESSAVG GPRESSAVG
ENERGY: 0 2.3848 1.9989 5.8181 0.0000 -10623.4013 1519.4772 0.0000 0.0000 1687.0125 -7406.7098 291.5327 -9093.7223 -7406.7098 291.5327 627.8637 709.6828 29992.7951 627.8637 709.6828
ENERGY: 300000 2.3426 5.6703 7.1299 0.0000 -10481.5655 1323.5969 0.0000 0.0000 1725.5466 -7417.2792 298.1918 -9142.8258 -7349.8270 295.9538 -771.4611 -706.7376 29446.3045 -350.2672 -283.9652
ENERGY: 600000 4.4534 4.0322 3.4803 0.0000 -10611.0446 1466.9499 0.0000 0.0000 1760.2015 -7371.9273 304.1805 -9132.1288 -7339.0682 298.1794 248.6496 312.3628 29639.9527 -210.8917 -140.4839
ENERGY: 900000 1.0788 2.5200 3.0585 0.0000 -10522.6362 1427.0366 0.0000 0.0000 1755.0275 -7333.9147 303.2864 -9088.9423 -7344.1308 299.6956 -35.3361 58.5600 29898.5211 -95.8787 -25.4577
ENERGY: 1200000 0.9244 4.7120 5.0421 0.0000 -10392.5129 1347.7119 0.0000 0.0000 1749.9745 -7284.1480 302.4132 -9034.1225 -7340.3730 300.6754 -284.8004 -200.2818 29775.1511 -125.0181 -53.4803
ENERGY: 1500000 1.7066 3.7591 7.0127 0.0000 -10529.6232 1435.7491 0.0000 0.0000 1742.0868 -7339.3089 301.0501 -9081.3958 -7349.5421 300.6651 16.1795 116.9892 29856.7719 -114.6164 -37.2769
TCL: Running FEP window  11: Lambda1 0.49999999999999994 Lambda2 0.5499999999999999 [dLambda 0.04999999999999999]
TCL: Setting parameter firsttimestep to 0
TCL: Setting parameter alchLambda to 0.49999999999999994
Info: NONBONDED TABLE R-SQUARED SPACING: 0.0625
Info: NONBONDED TABLE SIZE: 705 POINTS
TCL: Setting parameter alchLambda2 to 0.5499999999999999
Info: NONBONDED TABLE R-SQUARED SPACING: 0.0625
Info: NONBONDED TABLE SIZE: 705 POINTS
TCL: Running for 1500000 steps
ETITLE: TS BOND ANGLE DIHED IMPRP ELECT VDW BOUNDARY MISC KINETIC TOTAL TEMP POTENTIAL TOTALAVG TEMPAVG PRESSURE GPRESSURE VOLUME PRESSAVG GPRESSAVG
ENERGY: 0 1.7066 3.7591 7.0127 0.0000 -10529.6215 1435.7125 0.0000 0.0000 1741.2711 -7340.1594 300.9092 -9081.4306 -7340.1594 300.9092 33.8099 122.5801 29856.7719 33.8099 122.5801
ENERGY: 300000 1.4893 3.5704 4.5890 0.0000 -10546.0191 1403.0299 0.0000 0.0000 1780.6989 -7352.6416 307.7227 -9133.3404 -7375.3876 299.6820 -97.2388 -20.2415 30032.9904 -87.8055 11.4208
ENERGY: 600000 3.2232 6.2711 7.9513 0.0000 -10631.8529 1517.4213 0.0000 0.0000 1792.4608 -7304.5252 309.7553 -9096.9860 -7356.1076 301.5166 1029.0721 1141.7532 29143.5562 214.5617 316.4512
ENERGY: 900000 3.9137 4.6048 7.4406 0.0000 -10451.5083 1406.2256 0.0000 0.0000 1768.9343 -7260.3893 305.6896 -9029.3235 -7335.4529 302.1120 180.7982 227.9196 29939.4837 -6.2057 75.7221
ENERGY: 1200000 2.4206 5.1881 4.3322 0.0000 -10746.8558 1586.1635 0.0000 0.0000 1737.6537 -7411.0978 300.2840 -9148.7515 -7347.0269 302.3013 1365.9609 1435.8320 29440.6949 29.6418 101.6518
ENERGY: 1500000 2.4507 3.9152 2.9308 0.0000 -10432.8223 1371.1105 0.0000 0.0000 1741.0327 -7311.3824 300.8680 -9052.4151 -7347.2654 301.8537 -191.9837 -138.4111 29986.3025 69.4684 135.3840
TCL: Running FEP window  12: Lambda1 0.5499999999999999 Lambda2 0.6    [dLambda 0.050000000000000044]
TCL: Setting parameter firsttimestep to 0
TCL: Setting parameter alchLambda to 0.5499999999999999
Info: NONBONDED TABLE R-SQUARED SPACING: 0.0625
Info: NONBONDED TABLE SIZE: 705 POINTS
TCL: Setting parameter alchLambda2 to 0.6
Info: NONBONDED TABLE R-SQUARED SPACING: 0.0625
Info: NONBONDED TABLE SIZE: 705 POINTS
TCL: Running for 1500000 steps
ETITLE: TS BOND ANGLE DIHED IMPRP ELECT VDW BOUNDARY MISC KINETIC TOTAL TEMP POTENTIAL TOTALAVG TEMPAVG PRESSURE GPRESSURE VOLUME PRESSAVG GPRESSAVG
ENERGY: 0 2.4507 3.9152 2.9308 0.0000 -10432.3439 1371.3064 0.0000 0.0000 1740.1819 -7311.5588 300.7209 -9051.7407 -7311.5588 300.7209 -210.2805 -127.4242 29986.3025 -210.2805 -127.4242
ENERGY: 300000 2.6871 4.4952 2.9861 0.0000 -10580.1236 1453.1156 0.0000 0.0000 1706.8373 -7410.0023 294.9586 -9116.8396 -7375.5827 298.3821 460.6594 530.4714 29549.1920 89.5573 158.5758
ENERGY: 600000 3.2801 5.0875 4.7130 0.0000 -10532.8835 1376.1005 0.0000 0.0000 1797.9990 -7345.7034 310.7123 -9143.7024 -7368.2818 299.4237 -131.6860 -168.4086 29524.1736 -69.7052 -12.4183
ENERGY: 900000 3.2151 3.5768 3.4639 0.0000 -10599.8997 1510.9596 0.0000 0.0000 1690.0640 -7388.6201 292.0601 -9078.6841 -7374.5541 299.3671 1099.6095 1142.0676 29291.8799 101.1197 147.4644
ENERGY: 1200000 1.9909 5.9963 6.5815 0.0000 -10566.3593 1449.7446 0.0000 0.0000 1718.1764 -7383.8695 296.9182 -9102.0459 -7379.6105 299.5806 266.1044 220.1075 29977.0993 92.4982 130.3135
ENERGY: 1500000 2.4820 2.3277 5.1445 0.0000 -10655.9098 1481.5024 0.0000 0.0000 1752.2959 -7412.1572 302.8144 -9164.4531 -7374.3608 299.6182 401.6420 495.2181 29603.2430 135.7105 182.6682
TCL: Running FEP window  13: Lambda1 0.6    Lambda2 0.65   [dLambda 0.050000000000000044]
TCL: Setting parameter firsttimestep to 0
TCL: Setting parameter alchLambda to 0.6
Info: NONBONDED TABLE R-SQUARED SPACING: 0.0625
Info: NONBONDED TABLE SIZE: 705 POINTS
TCL: Setting parameter alchLambda2 to 0.65
Info: NONBONDED TABLE R-SQUARED SPACING: 0.0625
Info: NONBONDED TABLE SIZE: 705 POINTS
TCL: Running for 1500000 steps
ETITLE: TS BOND ANGLE DIHED IMPRP ELECT VDW BOUNDARY MISC KINETIC TOTAL TEMP POTENTIAL TOTALAVG TEMPAVG PRESSURE GPRESSURE VOLUME PRESSAVG GPRESSAVG
ENERGY: 0 2.4820 2.3277 5.1445 0.0000 -10656.1159 1481.0051 0.0000 0.0000 1751.4082 -7413.7484 302.6609 -9165.1565 -7413.7484 302.6609 404.0730 496.3877 29603.2430 404.0730 496.3877
ENERGY: 300000 2.3717 4.4598 2.5927 0.0000 -10427.3070 1378.6957 0.0000 0.0000 1693.8360 -7345.3512 292.7119 -9039.1872 -7370.5344 298.3305 -437.7970 -315.5347 30052.0019 -108.5837 -30.9402
ENERGY: 600000 5.3412 3.6606 5.5415 0.0000 -10473.5878 1385.4232 0.0000 0.0000 1689.3686 -7384.2528 291.9399 -9073.6214 -7365.2056 297.5776 -159.8926 -94.4246 29874.3629 -176.1032 -113.5820
ENERGY: 900000 2.4613 3.5923 1.8801 0.0000 -10606.5392 1456.5159 0.0000 0.0000 1691.8532 -7450.2364 292.3693 -9142.0896 -7371.1138 297.4710 172.5712 252.4349 29653.2599 -114.0866 -50.5779
ENERGY: 1200000 1.9504 2.7717 4.4774 0.0000 -10697.9274 1501.2366 0.0000 0.0000 1733.8168 -7453.6746 299.6210 -9187.4914 -7371.4601 298.3652 127.2252 179.0853 30144.1446 -179.4996 -123.6008
ENERGY: 1500000 2.0593 2.2370 8.6471 0.0000 -10513.8338 1348.5242 0.0000 0.0000 1760.4800 -7391.8861 304.2287 -9152.3662 -7369.0421 299.2450 -806.8714 -817.2075 30243.9053 -85.2451 -34.2138
TCL: Running FEP window  14: Lambda1 0.65   Lambda2 0.7000000000000001 [dLambda 0.050000000000000044]
TCL: Setting parameter firsttimestep to 0
TCL: Setting parameter alchLambda to 0.65
Info: NONBONDED TABLE R-SQUARED SPACING: 0.0625
Info: NONBONDED TABLE SIZE: 705 POINTS
TCL: Setting parameter alchLambda2 to 0.7000000000000001
Info: NONBONDED TABLE R-SQUARED SPACING: 0.0625
Info: NONBONDED TABLE SIZE: 705 POINTS
TCL: Running for 1500000 steps
ETITLE: TS BOND ANGLE DIHED IMPRP ELECT VDW BOUNDARY MISC KINETIC TOTAL TEMP POTENTIAL TOTALAVG TEMPAVG PRESSURE GPRESSURE VOLUME PRESSAVG GPRESSAVG
ENERGY: 0 2.0593 2.2370 8.6471 0.0000 -10513.7240 1349.0308 0.0000 0.0000 1759.6245 -7392.1253 304.0808 -9151.7498 -7392.1253 304.0808 -876.3966 -806.4914 30243.9053 -876.3966 -806.4914
ENERGY: 300000 1.8773 2.8867 3.8339 0.0000 -10490.8833 1379.6463 0.0000 0.0000 1779.9280 -7322.7112 307.5895 -9102.6392 -7363.5647 304.0419 -493.0482 -467.4753 30522.6106 -467.2660 -429.6346
ENERGY: 600000 1.9985 3.9555 3.2634 0.0000 -10594.4956 1374.7506 0.0000 0.0000 1721.9380 -7488.5895 297.5682 -9210.5276 -7387.9364 303.3432 -727.4947 -597.7013 29805.7969 -516.1011 -452.7510
ENERGY: 900000 2.2196 2.9990 6.6530 0.0000 -10541.6074 1504.0344 0.0000 0.0000 1721.7631 -7303.9383 297.5380 -9025.7014 -7376.3963 302.3979 850.5162 977.8798 29818.9090 -219.5012 -144.2207
ENERGY: 1200000 4.0405 7.0027 7.7591 0.0000 -10500.6014 1394.3933 0.0000 0.0000 1751.9767 -7335.4291 302.7592 -9087.4058 -7376.2946 302.4543 -37.1455 -9.5109 29690.4736 -202.7904 -135.5539
ENERGY: 1500000 1.3350 5.5821 5.9499 0.0000 -10593.8970 1453.7040 0.0000 0.0000 1785.2043 -7342.1217 308.5013 -9127.3260 -7381.4889 302.7246 188.0955 194.2547 30100.6258 -163.0107 -103.1124
TCL: Running FEP window  15: Lambda1 0.7000000000000001 Lambda2 0.7500000000000001 [dLambda 0.050000000000000044]
TCL: Setting parameter firsttimestep to 0
TCL: Setting parameter alchLambda to 0.7000000000000001
Info: NONBONDED TABLE R-SQUARED SPACING: 0.0625
Info: NONBONDED TABLE SIZE: 705 POINTS
TCL: Setting parameter alchLambda2 to 0.7500000000000001
Info: NONBONDED TABLE R-SQUARED SPACING: 0.0625
Info: NONBONDED TABLE SIZE: 705 POINTS
TCL: Running for 1500000 steps
ETITLE: TS BOND ANGLE DIHED IMPRP ELECT VDW BOUNDARY MISC KINETIC TOTAL TEMP POTENTIAL TOTALAVG TEMPAVG PRESSURE GPRESSURE VOLUME PRESSAVG GPRESSAVG
ENERGY: 0 1.3350 5.5821 5.9499 0.0000 -10594.0599 1453.2734 0.0000 0.0000 1784.3675 -7343.5519 308.3566 -9127.9194 -7343.5519 308.3566 125.2865 200.6461 30100.6258 125.2865 200.6461
ENERGY: 300000 1.4838 4.3150 1.9099 0.0000 -10431.3063 1357.9912 0.0000 0.0000 1737.0899 -7328.5165 300.1866 -9065.6064 -7357.0486 304.0182 -146.6106 -96.4863 29630.4950 2.0375 79.3333
ENERGY: 600000 3.1086 2.7677 1.3653 0.0000 -10610.2769 1469.0206 0.0000 0.0000 1738.7982 -7395.2165 300.4818 -9134.0147 -7348.8067 305.0511 334.0221 405.1226 29704.5936 -94.4694 -13.4406
ENERGY: 900000 1.7541 5.0470 5.9335 0.0000 -10477.1617 1445.7050 0.0000 0.0000 1735.3801 -7283.3420 299.8911 -9018.7220 -7339.4020 303.9156 177.1176 272.9961 30421.6689 -126.3168 -47.5945
ENERGY: 1200000 3.4019 3.6434 5.2088 0.0000 -10471.3751 1389.9403 0.0000 0.0000 1727.7930 -7341.3878 298.5800 -9069.1808 -7345.2318 303.4133 1.4513 72.6482 29848.7384 -123.4906 -44.9065
ENERGY: 1500000 2.1850 4.7939 3.6036 0.0000 -10638.8517 1483.2976 0.0000 0.0000 1720.4797 -7424.4920 297.3162 -9144.9717 -7355.5897 301.8341 489.4092 519.9742 29646.2665 -49.3442 16.6690
TCL: Running FEP window  16: Lambda1 0.7500000000000001 Lambda2 0.8000000000000002 [dLambda 0.050000000000000044]
TCL: Setting parameter firsttimestep to 0
TCL: Setting parameter alchLambda to 0.7500000000000001
Info: NONBONDED TABLE R-SQUARED SPACING: 0.0625
Info: NONBONDED TABLE SIZE: 705 POINTS
TCL: Setting parameter alchLambda2 to 0.8000000000000002
Info: NONBONDED TABLE R-SQUARED SPACING: 0.0625
Info: NONBONDED TABLE SIZE: 705 POINTS
TCL: Running for 1500000 steps
ETITLE: TS BOND ANGLE DIHED IMPRP ELECT VDW BOUNDARY MISC KINETIC TOTAL TEMP POTENTIAL TOTALAVG TEMPAVG PRESSURE GPRESSURE VOLUME PRESSAVG GPRESSAVG
ENERGY: 0 2.1850 4.7939 3.6036 0.0000 -10639.3298 1482.8020 0.0000 0.0000 1719.6370 -7426.3085 297.1706 -9145.9454 -7426.3085 297.1706 417.3736 517.7071 29646.2665 417.3736 517.7071
ENERGY: 300000 2.4752 5.1401 4.2314 0.0000 -10608.4616 1412.2320 0.0000 0.0000 1725.4362 -7458.9467 298.1727 -9184.3830 -7434.2539 298.7606 -276.6802 -257.7012 29768.2487 446.0863 495.0032
ENERGY: 600000 2.6738 5.2351 9.9514 0.0000 -10548.9105 1443.3434 0.0000 0.0000 1784.0470 -7303.6599 308.3013 -9087.7069 -7398.4200 299.4835 280.9654 389.1144 29885.1399 43.3512 96.9046
ENERGY: 900000 2.2381 2.4730 3.1243 0.0000 -10660.3803 1521.5456 0.0000 0.0000 1735.4316 -7395.5676 299.9000 -9130.9992 -7395.6952 299.4873 754.0172 863.6959 29768.9718 104.6254 167.1958
ENERGY: 1200000 4.3006 5.6174 2.7683 0.0000 -10518.2059 1364.3569 0.0000 0.0000 1733.9248 -7407.2379 299.6397 -9141.1627 -7384.3632 299.8352 -570.2919 -608.9420 30012.9767 -33.9339 14.3102
ENERGY: 1500000 2.5652 4.2748 2.6811 0.0000 -10478.6262 1380.6498 0.0000 0.0000 1716.8228 -7371.6326 296.6843 -9088.4554 -7389.4059 299.0210 -510.9751 -426.2512 30445.2056 -26.7690 23.6311
TCL: Running FEP window  17: Lambda1 0.8000000000000002 Lambda2 0.8500000000000002 [dLambda 0.050000000000000044]
TCL: Setting parameter firsttimestep to 0
TCL: Setting parameter alchLambda to 0.8000000000000002
Info: NONBONDED TABLE R-SQUARED SPACING: 0.0625
Info: NONBONDED TABLE SIZE: 705 POINTS
TCL: Setting parameter alchLambda2 to 0.8500000000000002
Info: NONBONDED TABLE R-SQUARED SPACING: 0.0625
Info: NONBONDED TABLE SIZE: 705 POINTS
TCL: Running for 1500000 steps
ETITLE: TS BOND ANGLE DIHED IMPRP ELECT VDW BOUNDARY MISC KINETIC TOTAL TEMP POTENTIAL TOTALAVG TEMPAVG PRESSURE GPRESSURE VOLUME PRESSAVG GPRESSAVG
ENERGY: 0 2.5652 4.2748 2.6811 0.0000 -10479.2557 1380.3942 0.0000 0.0000 1715.9670 -7373.3734 296.5364 -9089.3404 -7373.3734 296.5364 -504.7738 -419.6727 30445.2056 -504.7738 -419.6727
ENERGY: 300000 1.5730 4.1094 5.4535 0.0000 -10475.0157 1384.3266 0.0000 0.0000 1685.8993 -7393.6538 291.3404 -9079.5531 -7422.8348 295.6938 -444.5357 -339.5224 30064.4005 -643.1407 -556.2717
ENERGY: 600000 5.5192 2.8060 4.6425 0.0000 -10476.9923 1380.5059 0.0000 0.0000 1739.5885 -7343.9302 300.6184 -9083.5187 -7407.1177 297.7980 -501.3470 -502.6966 30469.4494 -378.9124 -313.0460
ENERGY: 900000 1.6732 4.2406 5.9865 0.0000 -10559.0396 1388.2903 0.0000 0.0000 1749.7954 -7409.0537 302.3822 -9158.8491 -7402.8137 298.6632 -336.5668 -257.6758 29650.0520 -370.7378 -300.4711
ENERGY: 1200000 2.5400 5.5331 2.5273 0.0000 -10579.3443 1408.9563 0.0000 0.0000 1694.3062 -7465.4814 292.7932 -9159.7876 -7402.0936 297.9212 -260.2906 -178.6030 29998.3884 -373.6868 -314.7772
ENERGY: 1500000 2.7187 4.3029 3.4351 0.0000 -10531.3327 1438.5946 0.0000 0.0000 1766.1361 -7316.1453 305.2061 -9082.2814 -7396.0094 298.5652 -74.1517 7.1587 30274.8679 -287.0142 -221.6927
TCL: Running FEP window  18: Lambda1 0.8500000000000002 Lambda2 0.9000000000000002 [dLambda 0.050000000000000044]
TCL: Setting parameter firsttimestep to 0
TCL: Setting parameter alchLambda to 0.8500000000000002
Info: NONBONDED TABLE R-SQUARED SPACING: 0.0625
Info: NONBONDED TABLE SIZE: 705 POINTS
TCL: Setting parameter alchLambda2 to 0.9000000000000002
Info: NONBONDED TABLE R-SQUARED SPACING: 0.0625
Info: NONBONDED TABLE SIZE: 705 POINTS
TCL: Running for 1500000 steps
ETITLE: TS BOND ANGLE DIHED IMPRP ELECT VDW BOUNDARY MISC KINETIC TOTAL TEMP POTENTIAL TOTALAVG TEMPAVG PRESSURE GPRESSURE VOLUME PRESSAVG GPRESSAVG
ENERGY: 0 2.7187 4.3029 3.4351 0.0000 -10532.2471 1439.0325 0.0000 0.0000 1765.2646 -7317.4933 305.0555 -9082.7579 -7317.4933 305.0555 -46.9951 21.3952 30274.8679 -46.9951 21.3952
ENERGY: 300000 6.2126 5.4723 4.3168 0.0000 -10487.6667 1356.7765 0.0000 0.0000 1700.6759 -7414.2126 293.8939 -9114.8885 -7398.2242 298.4056 -162.0479 -84.6814 29687.6220 122.6173 158.3036
ENERGY: 600000 4.0474 3.5877 3.5261 0.0000 -10558.3452 1414.3794 0.0000 0.0000 1707.4268 -7425.3779 295.0605 -9132.8046 -7381.4436 298.7677 -435.6742 -366.3203 30240.7158 57.5268 113.1301
ENERGY: 900000 1.9670 3.4740 3.8726 0.0000 -10628.8429 1391.1854 0.0000 0.0000 1749.0433 -7479.3007 302.2523 -9228.3440 -7377.8428 299.6415 -745.3261 -589.5800 30171.9699 -93.0427 -24.9294
ENERGY: 1200000 2.8115 4.0257 4.9784 0.0000 -10477.2993 1393.4241 0.0000 0.0000 1756.6838 -7315.3758 303.5726 -9072.0596 -7377.2434 299.7880 1.2587 107.1914 30011.0866 -92.0833 -12.3744
ENERGY: 1500000 3.8604 3.2796 4.4151 0.0000 -10451.3408 1281.2510 0.0000 0.0000 1704.2513 -7454.2834 294.5118 -9158.5347 -7380.2617 299.5449 -1255.9498 -1182.0856 29729.0011 -157.5157 -84.2578
TCL: Running FEP window  19: Lambda1 0.9000000000000002 Lambda2 0.9500000000000003 [dLambda 0.050000000000000044]
TCL: Setting parameter firsttimestep to 0
TCL: Setting parameter alchLambda to 0.9000000000000002
Info: NONBONDED TABLE R-SQUARED SPACING: 0.0625
Info: NONBONDED TABLE SIZE: 705 POINTS
TCL: Setting parameter alchLambda2 to 0.9500000000000003
Info: NONBONDED TABLE R-SQUARED SPACING: 0.0625
Info: NONBONDED TABLE SIZE: 705 POINTS
TCL: Running for 1500000 steps
ETITLE: TS BOND ANGLE DIHED IMPRP ELECT VDW BOUNDARY MISC KINETIC TOTAL TEMP POTENTIAL TOTALAVG TEMPAVG PRESSURE GPRESSURE VOLUME PRESSAVG GPRESSAVG
ENERGY: 0 3.8604 3.2796 4.4151 0.0000 -10452.1601 1281.9105 0.0000 0.0000 1703.3809 -7455.3136 294.3613 -9158.6945 -7455.3136 294.3613 -1252.4396 -1164.1564 29729.0011 -1252.4396 -1164.1564
ENERGY: 300000 2.2667 2.6343 2.9056 0.0000 -10642.0042 1433.9536 0.0000 0.0000 1803.1158 -7397.1282 311.5965 -9200.2440 -7397.7495 300.2861 45.0943 75.0846 29605.4704 -155.6254 -111.8748
ENERGY: 600000 1.9373 3.1912 5.5505 0.0000 -10509.2600 1365.9099 0.0000 0.0000 1780.9296 -7351.7416 307.7625 -9132.6712 -7390.0715 301.6353 -497.8048 -437.3528 30305.2710 -58.9578 -11.5163
ENERGY: 900000 1.2358 3.1731 7.6382 0.0000 -10381.6680 1342.4928 0.0000 0.0000 1781.4480 -7245.6802 307.8521 -9027.1282 -7367.0985 303.1196 -303.9331 -203.0082 29871.0801 -183.1833 -117.8153
ENERGY: 1200000 1.0366 7.0604 2.1405 0.0000 -10517.1130 1419.8288 0.0000 0.0000 1695.9456 -7391.1010 293.0765 -9087.0466 -7360.7094 302.1753 -62.0809 42.4623 30197.3022 -106.0944 -44.5469
ENERGY: 1500000 1.0590 4.5195 2.5501 0.0000 -10468.0002 1357.6748 0.0000 0.0000 1719.4945 -7382.7022 297.1460 -9102.1967 -7354.6353 302.2633 -232.0289 -205.9758 29459.5918 -83.3955 -24.7129
TCL: Running FEP window  20: Lambda1 0.9500000000000003 Lambda2 1.0    [dLambda 0.04999999999999971]
TCL: Setting parameter firsttimestep to 0
TCL: Setting parameter alchLambda to 0.9500000000000003
Info: NONBONDED TABLE R-SQUARED SPACING: 0.0625
Info: NONBONDED TABLE SIZE: 705 POINTS
TCL: Setting parameter alchLambda2 to 1.0
Info: NONBONDED TABLE R-SQUARED SPACING: 0.0625
Info: NONBONDED TABLE SIZE: 705 POINTS
TCL: Running for 1500000 steps
ETITLE: TS BOND ANGLE DIHED IMPRP ELECT VDW BOUNDARY MISC KINETIC TOTAL TEMP POTENTIAL TOTALAVG TEMPAVG PRESSURE GPRESSURE VOLUME PRESSAVG GPRESSAVG
ENERGY: 0 1.0590 4.5195 2.5501 0.0000 -10468.7515 1357.6319 0.0000 0.0000 1718.5985 -7384.3924 296.9911 -9102.9908 -7384.3924 296.9911 -279.1669 -197.1730 29459.5918 -279.1669 -197.1730
ENERGY: 300000 0.9301 3.2863 4.6186 0.0000 -10541.0848 1424.9761 0.0000 0.0000 1747.0998 -7360.1739 301.9164 -9107.2737 -7351.4668 301.0254 143.5027 148.8697 30077.7196 124.5006 196.7044
ENERGY: 600000 4.7111 2.8451 2.0498 0.0000 -10492.3752 1347.2034 0.0000 0.0000 1759.1703 -7376.3955 304.0023 -9135.5658 -7350.5363 301.8051 -259.0540 -205.5179 29664.2016 63.0174 125.8260
ENERGY: 900000 3.6609 4.2056 3.7876 0.0000 -10629.0297 1440.0214 0.0000 0.0000 1780.7122 -7396.6421 307.7250 -9177.3543 -7352.8669 302.5773 159.9986 245.0309 29482.5292 20.6152 94.0063
ENERGY: 1200000 2.9088 2.6370 4.6442 0.0000 -10520.0684 1450.8960 0.0000 0.0000 1755.8204 -7303.1620 303.4234 -9058.9824 -7349.5298 302.3713 503.2470 530.7782 29942.5393 68.1345 138.6494
ENERGY: 1500000 1.2274 4.6882 1.5682 0.0000 -10553.9648 1426.0968 0.0000 0.0000 1667.2316 -7453.1526 288.1144 -9120.3842 -7357.0455 301.0771 29.3252 111.7850 30143.3581 96.3632 161.6678
TCL: Exiting due to exit command.
