Info: SIMULATION PARAMETERS:
Info: TIMESTEP               2
Info: NUMBER OF STEPS        0
Info: STEPS PER CYCLE        10
Info: PERIODIC CELL BASIS 1  29.3241 0 0
Info: PERIODIC CELL BASIS 2  0 30.343 0
Info: PERIODIC CELL BASIS 3  0 0 34.1506
Info: PERIODIC CELL CENTER   0 0 0
Info: WRAPPING WATERS AROUND PERIODIC BOUNDARIES ON OUTPUT.
Info: WRAPPING ALL CLUSTERS AROUND PERIODIC BOUNDARIES ON OUTPUT.
Info: FIRST LDB TIMESTEP     50
Info: LAST LDB TIMESTEP     -1
Info: HOM BACKGROUND SCALING 1
Info: PME BACKGROUND SCALING 1
Info: MIN ATOMS PER PATCH    40
Info: EMPTY PATCH LOAD       40 ATOMS
Info: VELOCITY FILE          mobley_9717937_equil.vel
Info: CENTER OF MASS MOVING INITIALLY? NO
Info: DIELECTRIC             1
Info: EXCLUDE                SCALED ONE-FOUR
Info: 1-4 ELECTROSTATICS SCALED BY 0.833333
Info: MODIFIED 1-4 VDW PARAMETERS WILL BE USED
Info: DCD FILENAME           mobley_9717937_prod.dcd
Info: DCD FREQUENCY          100000
Info: DCD FIRST STEP         100000
Info: DCD FILE WILL CONTAIN UNIT CELL DATA
Info: XST FILENAME           mobley_9717937_prod.xst
Info: XST FREQUENCY          100000
Info: NO VELOCITY DCD OUTPUT
Info: NO FORCE DCD OUTPUT
Info: OUTPUT FILENAME        mobley_9717937_prod
Info: BINARY OUTPUT FILES WILL BE USED
Info: RESTART FILENAME       mobley_9717937_prod.restart
Info: RESTART FREQUENCY      100000
Info: BINARY RESTART FILES WILL BE USED
Info: CUTOFF                 9
Info: PAIRLIST DISTANCE      11
Info: PAIRLIST SHRINK RATE   0.01
Info: PAIRLIST GROW RATE     0.01
Info: PAIRLIST TRIGGER       0.3
Info: PAIRLISTS PER CYCLE    2
Info: PAIRLISTS ENABLED
Info: MARGIN                 2
Info: HYDROGEN GROUP CUTOFF  2.5
Info: PATCH DIMENSION        15.5
Info: ENERGY OUTPUT STEPS    100000
Info: ENERGY EVALUATION STEPS    100000
Info: OUTPUT ENERGY PRECISION 4
Info: CROSSTERM ENERGY INCLUDED IN DIHEDRAL
Info: TIMING OUTPUT STEPS    1000000
Info: PRESSURE OUTPUT STEPS  100000
Info: ALCHEMICAL FEP ON
Info: FEP CURRENT LAMBDA VALUE     1
Info: FEP COMPARISON LAMBDA VALUE  0.95
Info: FEP INTRA-ALCHEMICAL NON-BONDED INTERACTIONS WILL BE RETAINED
Info: FEP INTRA-ALCHEMICAL BONDED INTERACTIONS WILL BE RETAINED
Info: FEP VDW SHIFTING COEFFICIENT 5
Info: FEP ELEC. ACTIVE FOR ANNIHILATED PARTICLES BETWEEN LAMBDA = 0 AND LAMBDA = 0.5
Info: FEP ELEC. ACTIVE FOR EXNIHILATED PARTICLES BETWEEN LAMBDA = 0.5 AND LAMBDA = 1
Info: FEP VDW ACTIVE FOR ANNIHILATED PARTICLES BETWEEN LAMBDA = 0 AND LAMBDA = 1
Info: FEP VDW ACTIVE FOR EXNIHILATED PARTICLES BETWEEN LAMBDA = 0 AND LAMBDA = 1
Info: FEP BOND ACTIVE FOR ANNIHILATED PARTICLES BETWEEN LAMBDA = 1 AND LAMBDA = 1
Info: FEP BOND ACTIVE FOR EXNIHILATED PARTICLES BETWEEN LAMBDA = 0 AND LAMBDA = 0
Info: LANGEVIN DYNAMICS ACTIVE
Info: LANGEVIN TEMPERATURE   300
Info: LANGEVIN USING BBK INTEGRATOR
Info: LANGEVIN DAMPING COEFFICIENT IS 1 INVERSE PS
Info: LANGEVIN DYNAMICS APPLIED TO HYDROGENS
Info: LANGEVIN PISTON PRESSURE CONTROL ACTIVE
Info:        TARGET PRESSURE IS 1.01325 BAR
Info:     OSCILLATION PERIOD IS 50 FS
Info:             DECAY TIME IS 25 FS
Info:     PISTON TEMPERATURE IS 300 K
Info:       PRESSURE CONTROL IS GROUP-BASED
Info:    INITIAL STRAIN RATE IS -0.000233466 -0.000233466 -0.000233466
Info:       CELL FLUCTUATION IS ISOTROPIC
Info: PARTICLE MESH EWALD (PME) ACTIVE
Info: PME TOLERANCE               1e-06
Info: PME EWALD COEFFICIENT       0.348832
Info: PME INTERPOLATION ORDER     4
Info: PME GRID DIMENSIONS         32 32 36
Info: PME MAXIMUM GRID SPACING    1
Info: PME CALCULATION WILL BE PERFORMED ON GPU
Info: FULL ELECTROSTATIC EVALUATION FREQUENCY      2
Info: USING VERLET I (r-RESPA) MTS SCHEME.
Info: C1 SPLITTING OF LONG RANGE ELECTROSTATICS
Info: PLACING ATOMS IN PATCHES BY HYDROGEN GROUPS
Info: RIGID BONDS TO HYDROGEN : ALL
Info:         ERROR TOLERANCE : 1e-08
Info:          MAX ITERATIONS : 100
Info: RIGID WATER USING SETTLE ALGORITHM
Info: RANDOM NUMBER SEED     1743803912
Info: USE HYDROGEN BONDS?    NO
Info: Using AMBER format force field!
Info: AMBER PARM FILE        mobley_9717937.prmtop
Info: COORDINATE PDB         mobley_9717937.pdb
Info: Exclusions will be read from PARM file!
Info: SCNB (VDW SCALING)     2
Info: USING ARITHMETIC MEAN TO COMBINE L-J SIGMA PARAMETERS
Info: BINARY COORDINATES     mobley_9717937_equil.coor
Info: SUMMARY OF PARAMETERS:
Info: 7 BONDS
Info: 8 ANGLES
Info:   8 HARMONIC
Info:   0 COSINE-BASED
Info: 3 DIHEDRAL
Info: 0 IMPROPER
Info: 0 CROSSTERM
Info: 0 VDW
Info: 15 VDW_PAIRS
Info: 0 NBTHOLE_PAIRS
Info: To read alchdata from file: mobley_9717937.pdb
Info: To read alchflag data from column: 5
Info: STRUCTURE SUMMARY:
Info: 2908 ATOMS
Info: 2909 BONDS
Info: 36 ANGLES
Info: 64 DIHEDRALS
Info: 0 IMPROPERS
Info: 0 CROSSTERMS
Info: 2991 EXCLUSIONS
Info: 2895 RIGID BONDS
Info: ALCH: 0 ATOMS TO DISAPPEAR IN FINAL STATE
Info: ALCH: 22 ATOMS TO APPEAR IN FINAL STATE
Info: 5829 DEGREES OF FREEDOM
Info: 975 HYDROGEN GROUPS
Info: 3 ATOMS IN LARGEST HYDROGEN GROUP
Info: 975 MIGRATION GROUPS
Info: 3 ATOMS IN LARGEST MIGRATION GROUP
Info: TOTAL MASS = 17520 amu
Info: TOTAL CHARGE = 0.000100028 e
Info: MASS DENSITY = 0.957442 g/cm^3
Info: ATOM DENSITY = 0.0957002 atoms/A^3
Info: ADDED 0 IMPLICIT EXCLUSIONS
Info: NONBONDED TABLE R-SQUARED SPACING: 0.0625
Info: NONBONDED TABLE SIZE: 705 POINTS
Info: REMOVING COM VELOCITY 0.109893 -0.0800613 -0.208422
Info: Use 3D box decompostion in PME FFT.
Info: Updated CUDA force table with 4096 elements.
Info: Updated CUDA LJ table with 5 x 5 elements.
Info: Found 20 unique exclusion lists needing 60 bytes
TCL: Running for 1500000 steps
ETITLE: TS BOND ANGLE DIHED IMPRP ELECT VDW BOUNDARY MISC KINETIC TOTAL TEMP POTENTIAL TOTALAVG TEMPAVG PRESSURE GPRESSURE VOLUME PRESSAVG GPRESSAVG
ENERGY: 0 3.8134 5.9221 8.7016 0.0000 -10443.3225 1395.0693 0.0000 0.0000 1734.0160 -7295.8001 299.3984 -9029.8161 -7295.8001 299.3984 2.1813 68.4163 30386.5631 2.1813 68.4163
ENERGY: 300000 4.4611 4.9219 16.0526 0.0000 -10517.1620 1375.0039 0.0000 0.0000 1676.9446 -7439.7778 289.5443 -9116.7224 -7332.0404 297.7245 -621.0861 -531.2419 30310.4832 -224.8293 -164.4571
ENERGY: 600000 4.1227 7.0289 11.4586 0.0000 -10469.3529 1396.3294 0.0000 0.0000 1747.8583 -7302.5550 301.7884 -9050.4134 -7315.6431 299.9592 -162.0632 -107.4157 30421.5426 -296.8939 -236.2707
ENERGY: 900000 3.0266 4.2016 8.4322 0.0000 -10358.2495 1305.9193 0.0000 0.0000 1745.2844 -7291.3855 301.3440 -9036.6699 -7317.3866 300.8210 -818.9870 -792.0149 30491.8939 -333.4876 -279.7813
ENERGY: 1200000 5.8041 3.2798 10.6560 0.0000 -10360.8868 1359.7614 0.0000 0.0000 1729.3795 -7252.0061 298.5978 -8981.3856 -7310.1447 300.5791 -313.6393 -265.8136 30357.2759 -285.6178 -230.9778
ENERGY: 1500000 5.3193 8.2673 11.9402 0.0000 -10523.2248 1407.9964 0.0000 0.0000 1760.9301 -7328.7715 304.0454 -9089.7015 -7316.6883 300.8901 -320.5971 -270.4012 30045.6299 -297.1742 -248.6880
TCL: Running FEP window   2: Lambda1 0.95   Lambda2 0.8999999999999999 [dLambda -0.050000000000000044]
TCL: Setting parameter firsttimestep to 0
TCL: Setting parameter alchLambda to 0.95
Info: NONBONDED TABLE R-SQUARED SPACING: 0.0625
Info: NONBONDED TABLE SIZE: 705 POINTS
TCL: Setting parameter alchLambda2 to 0.8999999999999999
Info: NONBONDED TABLE R-SQUARED SPACING: 0.0625
Info: NONBONDED TABLE SIZE: 705 POINTS
TCL: Running for 1500000 steps
ETITLE: TS BOND ANGLE DIHED IMPRP ELECT VDW BOUNDARY MISC KINETIC TOTAL TEMP POTENTIAL TOTALAVG TEMPAVG PRESSURE GPRESSURE VOLUME PRESSAVG GPRESSAVG
ENERGY: 0 5.3193 8.2673 11.9402 0.0000 -10522.1958 1407.6982 0.0000 0.0000 1760.0858 -7328.8850 303.8996 -9088.9708 -7328.8850 303.8996 -371.3273 -292.0979 30045.6299 -371.3273 -292.0979
ENERGY: 300000 6.8038 6.6586 12.3280 0.0000 -10396.3700 1332.6888 0.0000 0.0000 1672.3671 -7365.5236 288.7540 -9037.8907 -7365.0001 296.4004 -591.0605 -507.8700 29887.2263 -299.8915 -242.8503
ENERGY: 600000 4.4184 6.0988 12.0062 0.0000 -10423.5497 1328.8022 0.0000 0.0000 1748.8085 -7323.4156 301.9525 -9072.2241 -7348.2170 299.2532 -436.0951 -406.1159 29739.1286 -458.7670 -391.8466
ENERGY: 900000 5.6514 8.3851 15.6137 0.0000 -10508.8807 1425.1862 0.0000 0.0000 1745.1413 -7308.9029 301.3193 -9054.0442 -7343.6250 299.3012 268.9010 380.0909 29817.9235 -276.4802 -213.6064
ENERGY: 1200000 5.6814 5.4452 9.0822 0.0000 -10408.2620 1381.3107 0.0000 0.0000 1699.0717 -7307.6708 293.3648 -9006.7425 -7332.8595 298.1617 -314.8400 -242.5468 30338.9627 -262.0812 -201.5048
ENERGY: 1500000 4.7103 4.8518 12.2952 0.0000 -10503.2313 1413.0794 0.0000 0.0000 1752.3133 -7315.9813 302.5576 -9068.2947 -7337.3544 299.1425 -90.6186 22.4536 30151.8535 -242.7230 -179.1459
TCL: Running FEP window   3: Lambda1 0.8999999999999999 Lambda2 0.8499999999999999 [dLambda -0.050000000000000044]
TCL: Setting parameter firsttimestep to 0
TCL: Setting parameter alchLambda to 0.8999999999999999
Info: NONBONDED TABLE R-SQUARED SPACING: 0.0625
Info: NONBONDED TABLE SIZE: 705 POINTS
TCL: Setting parameter alchLambda2 to 0.8499999999999999
Info: NONBONDED TABLE R-SQUARED SPACING: 0.0625
Info: NONBONDED TABLE SIZE: 705 POINTS
TCL: Running for 1500000 steps
ETITLE: TS BOND ANGLE DIHED IMPRP ELECT VDW BOUNDARY MISC KINETIC TOTAL TEMP POTENTIAL TOTALAVG TEMPAVG PRESSURE GPRESSURE VOLUME PRESSAVG GPRESSAVG
ENERGY: 0 4.7103 4.8518 12.2952 0.0000 -10501.9781 1413.4270 0.0000 0.0000 1751.4637 -7315.2302 302.4109 -9066.6939 -7315.2302 302.4109 -68.2289 12.0276 30151.8535 -68.2289 12.0276
ENERGY: 300000 8.6616 4.2522 8.5118 0.0000 -10408.4717 1342.7829 0.0000 0.0000 1716.3980 -7327.8653 296.3564 -9044.2633 -7339.0869 298.0031 -950.7029 -825.2398 30345.1324 -490.2179 -380.4554
ENERGY: 600000 2.2028 4.2325 11.3822 0.0000 -10496.2457 1421.0288 0.0000 0.0000 1742.2431 -7315.1563 300.8189 -9057.3994 -7339.4710 298.1612 -173.2188 -57.1047 30262.8315 -338.4982 -233.4226
ENERGY: 900000 2.3938 3.8394 11.6427 0.0000 -10570.8094 1393.9787 0.0000 0.0000 1703.3754 -7455.5793 294.1079 -9158.9547 -7357.0473 298.1550 -375.9244 -272.5888 29689.0666 -305.4472 -205.0547
ENERGY: 1200000 5.1411 9.0292 9.9304 0.0000 -10473.1375 1424.5191 0.0000 0.0000 1743.3901 -7281.1275 301.0169 -9024.5176 -7344.9075 299.8020 175.9119 245.6091 29969.9858 -267.3840 -168.8923
ENERGY: 1500000 5.2863 6.5669 11.0255 0.0000 -10453.7694 1335.2464 0.0000 0.0000 1821.1730 -7274.4713 314.4471 -9095.6443 -7337.5515 300.1085 -602.6848 -596.3498 29951.7528 -282.1254 -194.6192
TCL: Running FEP window   4: Lambda1 0.8499999999999999 Lambda2 0.7999999999999998 [dLambda -0.050000000000000044]
TCL: Setting parameter firsttimestep to 0
TCL: Setting parameter alchLambda to 0.8499999999999999
Info: NONBONDED TABLE R-SQUARED SPACING: 0.0625
Info: NONBONDED TABLE SIZE: 705 POINTS
TCL: Setting parameter alchLambda2 to 0.7999999999999998
Info: NONBONDED TABLE R-SQUARED SPACING: 0.0625
Info: NONBONDED TABLE SIZE: 705 POINTS
TCL: Running for 1500000 steps
ETITLE: TS BOND ANGLE DIHED IMPRP ELECT VDW BOUNDARY MISC KINETIC TOTAL TEMP POTENTIAL TOTALAVG TEMPAVG PRESSURE GPRESSURE VOLUME PRESSAVG GPRESSAVG
ENERGY: 0 5.2863 6.5669 11.0255 0.0000 -10452.4994 1335.5133 0.0000 0.0000 1820.3319 -7273.7755 314.3018 -9094.1074 -7273.7755 314.3018 -681.3711 -607.4544 29951.7528 -681.3711 -607.4544
ENERGY: 300000 4.3708 4.9722 13.5512 0.0000 -10506.8688 1481.2456 0.0000 0.0000 1707.5978 -7295.1312 294.8370 -9002.7290 -7298.8261 301.4259 672.7189 744.7706 30008.5804 286.4254 359.1130
ENERGY: 600000 2.2139 5.9689 13.1216 0.0000 -10404.2486 1418.9399 0.0000 0.0000 1763.6971 -7200.3072 304.5232 -8964.0042 -7291.2543 303.4152 273.8782 317.1856 30357.1822 298.9771 376.6554
ENERGY: 900000 3.7237 5.5351 8.7437 0.0000 -10661.6837 1475.2838 0.0000 0.0000 1788.9733 -7379.4240 308.8874 -9168.3974 -7302.2837 303.3889 551.4039 560.3517 29379.0878 198.8427 258.2448
ENERGY: 1200000 6.6429 5.6665 8.1071 0.0000 -10513.1516 1409.5318 0.0000 0.0000 1730.2851 -7352.9181 298.7542 -9083.2033 -7313.0605 301.3187 -123.0735 -33.3502 29870.1908 84.3671 149.0618
ENERGY: 1500000 7.9680 7.0786 13.3984 0.0000 -10583.9633 1484.6666 0.0000 0.0000 1719.1185 -7351.7332 296.8261 -9070.8516 -7321.4515 300.4944 378.1823 438.6972 29779.7346 58.0606 120.7329
TCL: Running FEP window   5: Lambda1 0.7999999999999998 Lambda2 0.7499999999999998 [dLambda -0.050000000000000044]
TCL: Setting parameter firsttimestep to 0
TCL: Setting parameter alchLambda to 0.7999999999999998
Info: NONBONDED TABLE R-SQUARED SPACING: 0.0625
Info: NONBONDED TABLE SIZE: 705 POINTS
TCL: Setting parameter alchLambda2 to 0.7499999999999998
Info: NONBONDED TABLE R-SQUARED SPACING: 0.0625
Info: NONBONDED TABLE SIZE: 705 POINTS
TCL: Running for 1500000 steps
ETITLE: TS BOND ANGLE DIHED IMPRP ELECT VDW BOUNDARY MISC KINETIC TOTAL TEMP POTENTIAL TOTALAVG TEMPAVG PRESSURE GPRESSURE VOLUME PRESSAVG GPRESSAVG
ENERGY: 0 7.9680 7.0786 13.3984 0.0000 -10582.9791 1484.9437 0.0000 0.0000 1718.2826 -7351.3077 296.6818 -9069.5904 -7351.3077 296.6818 348.3694 431.7728 29779.7346 348.3694 431.7728
ENERGY: 300000 4.7067 5.4495 9.7402 0.0000 -10443.6690 1385.3566 0.0000 0.0000 1763.0971 -7275.3190 304.4196 -9038.4160 -7297.6070 301.1538 -371.6638 -342.1693 30671.8468 344.3227 397.1815
ENERGY: 600000 4.0527 4.9373 11.6699 0.0000 -10546.5363 1418.1479 0.0000 0.0000 1754.8071 -7352.9214 302.9882 -9107.7285 -7309.8948 302.8372 -65.1067 -46.3023 30266.4410 247.0007 301.4080
ENERGY: 900000 7.1785 4.5101 14.1229 0.0000 -10496.8838 1441.0176 0.0000 0.0000 1782.2568 -7247.7978 307.7277 -9030.0547 -7301.7212 302.1529 -18.3738 78.4768 30569.4795 229.0494 281.5218
ENERGY: 1200000 1.1511 3.9588 11.2423 0.0000 -10659.3211 1511.4700 0.0000 0.0000 1706.7891 -7424.7097 294.6973 -9131.4988 -7310.8687 301.2435 699.2775 758.1018 29604.2534 228.7628 279.3204
ENERGY: 1500000 3.4146 9.1631 11.9986 0.0000 -10376.1378 1369.5903 0.0000 0.0000 1758.0305 -7223.9407 303.5448 -8981.9712 -7309.6277 301.5496 -53.6793 -6.6666 30154.7826 111.1627 165.9668
TCL: Running FEP window   6: Lambda1 0.7499999999999998 Lambda2 0.6999999999999997 [dLambda -0.050000000000000044]
TCL: Setting parameter firsttimestep to 0
TCL: Setting parameter alchLambda to 0.7499999999999998
Info: NONBONDED TABLE R-SQUARED SPACING: 0.0625
Info: NONBONDED TABLE SIZE: 705 POINTS
TCL: Setting parameter alchLambda2 to 0.6999999999999997
Info: NONBONDED TABLE R-SQUARED SPACING: 0.0625
Info: NONBONDED TABLE SIZE: 705 POINTS
TCL: Running for 1500000 steps
ETITLE: TS BOND ANGLE DIHED IMPRP ELECT VDW BOUNDARY MISC KINETIC TOTAL TEMP POTENTIAL TOTALAVG TEMPAVG PRESSURE GPRESSURE VOLUME PRESSAVG GPRESSAVG
ENERGY: 0 3.4146 9.1631 11.9986 0.0000 -10375.3139 1369.7534 0.0000 0.0000 1757.1437 -7223.8405 303.3916 -8980.9842 -7223.8405 303.3916 -115.3649 -18.4048 30154.7826 -115.3649 -18.4048
ENERGY: 300000 4.9337 8.1089 9.1245 0.0000 -10346.0140 1327.6756 0.0000 0.0000 1799.5503 -7196.6209 310.7136 -8996.1712 -7271.0258 307.1686 -605.2288 -554.0298 30286.3692 146.6312 213.6690
ENERGY: 600000 6.1218 4.4184 12.8375 0.0000 -10506.1569 1417.2981 0.0000 0.0000 1741.5303 -7323.9508 300.6958 -9065.4811 -7295.2401 304.0896 354.1173 386.9073 29304.5110 140.8579 197.5222
ENERGY: 900000 2.6889 6.4824 11.4393 0.0000 -10638.9852 1419.5728 0.0000 0.0000 1694.9954 -7503.8064 292.6610 -9198.8018 -7333.6580 301.4761 -86.1139 -67.9232 29645.8218 88.4255 140.6226
ENERGY: 1200000 5.7269 5.6928 11.0712 0.0000 -10501.5049 1403.9046 0.0000 0.0000 1703.1929 -7371.9165 294.0764 -9075.1095 -7337.1495 300.6936 -66.5521 -13.1422 29376.3545 -73.8777 -19.0377
ENERGY: 1500000 5.3705 4.0812 9.9019 0.0000 -10514.6650 1476.7323 0.0000 0.0000 1799.3071 -7219.2720 310.6717 -9018.5791 -7334.3239 301.4961 413.9759 504.7688 30201.6562 -67.9919 -13.9494
TCL: Running FEP window   7: Lambda1 0.6999999999999997 Lambda2 0.6499999999999997 [dLambda -0.050000000000000044]
TCL: Setting parameter firsttimestep to 0
TCL: Setting parameter alchLambda to 0.6999999999999997
Info: NONBONDED TABLE R-SQUARED SPACING: 0.0625
Info: NONBONDED TABLE SIZE: 705 POINTS
TCL: Setting parameter alchLambda2 to 0.6499999999999997
Info: NONBONDED TABLE R-SQUARED SPACING: 0.0625
Info: NONBONDED TABLE SIZE: 705 POINTS
TCL: Running for 1500000 steps
ETITLE: TS BOND ANGLE DIHED IMPRP ELECT VDW BOUNDARY MISC KINETIC TOTAL TEMP POTENTIAL TOTALAVG TEMPAVG PRESSURE GPRESSURE VOLUME PRESSAVG GPRESSAVG
ENERGY: 0 5.3705 4.0812 9.9019 0.0000 -10513.7417 1477.0449 0.0000 0.0000 1798.4384 -7218.9048 310.5217 -9017.3432 -7218.9048 310.5217 415.1294 497.2942 30201.6562 415.1294 497.2942
ENERGY: 300000 5.7640 5.4843 11.9792 0.0000 -10554.7710 1391.0684 0.0000 0.0000 1741.6297 -7398.8455 300.7130 -9140.4752 -7289.1204 305.6457 -72.4435 57.5457 29426.7926 -201.4703 -128.7508
ENERGY: 600000 5.2720 5.0900 12.2142 0.0000 -10307.5554 1287.2717 0.0000 0.0000 1764.7396 -7232.9679 304.7032 -8997.7075 -7282.5040 305.8024 -910.6785 -778.7043 30222.3017 -137.9059 -53.4472
ENERGY: 900000 2.6736 8.0329 7.6630 0.0000 -10469.6929 1408.7967 0.0000 0.0000 1694.3271 -7348.1996 292.5456 -9042.5267 -7295.6363 304.1728 73.9819 84.6865 30082.5003 -16.4853 66.3249
ENERGY: 1200000 2.4426 8.8774 12.0841 0.0000 -10583.2268 1444.1581 0.0000 0.0000 1733.4496 -7382.2150 299.3006 -9115.6646 -7305.2075 303.5496 -122.9226 -46.5290 30232.2685 -90.5205 -19.2051
ENERGY: 1500000 2.8920 4.8498 14.9498 0.0000 -10510.9618 1426.7715 0.0000 0.0000 1721.4632 -7340.0356 297.2310 -9061.4988 -7313.2758 302.1781 45.1899 200.1205 29660.8588 -73.7011 4.9600
TCL: Running FEP window   8: Lambda1 0.6499999999999997 Lambda2 0.5999999999999996 [dLambda -0.050000000000000044]
TCL: Setting parameter firsttimestep to 0
TCL: Setting parameter alchLambda to 0.6499999999999997
Info: NONBONDED TABLE R-SQUARED SPACING: 0.0625
Info: NONBONDED TABLE SIZE: 705 POINTS
TCL: Setting parameter alchLambda2 to 0.5999999999999996
Info: NONBONDED TABLE R-SQUARED SPACING: 0.0625
Info: NONBONDED TABLE SIZE: 705 POINTS
TCL: Running for 1500000 steps
ETITLE: TS BOND ANGLE DIHED IMPRP ELECT VDW BOUNDARY MISC KINETIC TOTAL TEMP POTENTIAL TOTALAVG TEMPAVG PRESSURE GPRESSURE VOLUME PRESSAVG GPRESSAVG
ENERGY: 0 2.8920 4.8498 14.9498 0.0000 -10510.6005 1427.3833 0.0000 0.0000 1720.6457 -7339.8799 297.0898 -9060.5257 -7339.8799 297.0898 114.5649 195.9545 29660.8588 114.5649 195.9545
ENERGY: 300000 9.0383 3.7659 10.6050 0.0000 -10399.2294 1346.3313 0.0000 0.0000 1734.1668 -7295.3222 299.4244 -9029.4890 -7328.5277 297.3324 -553.7581 -525.7993 30027.8906 -420.7973 -351.8436
ENERGY: 600000 5.8638 5.8327 8.5988 0.0000 -10642.8220 1458.6840 0.0000 0.0000 1686.8430 -7476.9997 291.2534 -9163.8427 -7346.2879 297.9533 295.6515 360.9287 29514.0423 -351.6764 -284.5975
ENERGY: 900000 4.1081 6.9991 13.9317 0.0000 -10566.3049 1448.7965 0.0000 0.0000 1728.1145 -7364.3551 298.3794 -9092.4696 -7343.9490 298.1680 154.4826 232.6170 30049.7106 -197.5998 -137.9509
ENERGY: 1200000 5.8522 7.2212 6.6207 0.0000 -10538.6117 1392.2058 0.0000 0.0000 1720.5730 -7406.1388 297.0773 -9126.7117 -7354.0104 298.7039 -459.0386 -348.3440 29688.6002 -133.6052 -77.5900
ENERGY: 1500000 3.6488 8.3296 7.7786 0.0000 -10642.2165 1453.4651 0.0000 0.0000 1786.5250 -7382.4694 308.4647 -9168.9944 -7351.4833 299.4622 -97.0064 -61.9573 29903.0720 -133.8286 -79.9358
TCL: Running FEP window   9: Lambda1 0.5999999999999996 Lambda2 0.5499999999999996 [dLambda -0.050000000000000044]
TCL: Setting parameter firsttimestep to 0
TCL: Setting parameter alchLambda to 0.5999999999999996
Info: NONBONDED TABLE R-SQUARED SPACING: 0.0625
Info: NONBONDED TABLE SIZE: 705 POINTS
TCL: Setting parameter alchLambda2 to 0.5499999999999996
Info: NONBONDED TABLE R-SQUARED SPACING: 0.0625
Info: NONBONDED TABLE SIZE: 705 POINTS
TCL: Running for 1500000 steps
ETITLE: TS BOND ANGLE DIHED IMPRP ELECT VDW BOUNDARY MISC KINETIC TOTAL TEMP POTENTIAL TOTALAVG TEMPAVG PRESSURE GPRESSURE VOLUME PRESSAVG GPRESSAVG
ENERGY: 0 3.6488 8.3296 7.7786 0.0000 -10641.3237 1453.9384 0.0000 0.0000 1785.6657 -7381.9626 308.3163 -9167.6283 -7381.9626 308.3163 -146.9295 -65.1073 29903.0720 -146.9295 -65.1073
ENERGY: 300000 2.3375 5.3702 9.0143 0.0000 -10444.9479 1345.2026 0.0000 0.0000 1727.1416 -7355.8817 298.2114 -9083.0233 -7379.7349 298.7696 -540.6720 -507.2206 29765.1096 -488.7147 -415.9115
ENERGY: 600000 4.1758 3.5016 12.4374 0.0000 -10525.4169 1442.9123 0.0000 0.0000 1763.8408 -7298.5492 304.5480 -9062.3899 -7339.3758 300.2319 90.2197 182.0548 29829.3642 -244.1167 -174.8134
ENERGY: 900000 7.4156 4.6807 12.2136 0.0000 -10506.6902 1419.4893 0.0000 0.0000 1753.8533 -7309.0377 302.8235 -9062.8910 -7339.0982 299.4969 -51.1814 71.4304 29956.0618 -194.9289 -115.1097
ENERGY: 1200000 8.3983 7.1300 7.9538 0.0000 -10597.6459 1427.5814 0.0000 0.0000 1744.6445 -7401.9379 301.2335 -9146.5824 -7340.9263 300.7401 234.5366 298.8010 29128.3668 -202.0812 -130.5930
ENERGY: 1500000 1.9490 3.6719 7.9918 0.0000 -10314.2534 1316.5512 0.0000 0.0000 1721.8843 -7262.2053 297.3037 -8984.0896 -7330.4666 301.3509 -700.3750 -740.9067 30512.6688 -210.0940 -149.0386
TCL: Running FEP window  10: Lambda1 0.5499999999999996 Lambda2 0.4999999999999996 [dLambda -0.04999999999999999]
TCL: Setting parameter firsttimestep to 0
TCL: Setting parameter alchLambda to 0.5499999999999996
Info: NONBONDED TABLE R-SQUARED SPACING: 0.0625
Info: NONBONDED TABLE SIZE: 705 POINTS
TCL: Setting parameter alchLambda2 to 0.4999999999999996
Info: NONBONDED TABLE R-SQUARED SPACING: 0.0625
Info: NONBONDED TABLE SIZE: 705 POINTS
TCL: Running for 1500000 steps
ETITLE: TS BOND ANGLE DIHED IMPRP ELECT VDW BOUNDARY MISC KINETIC TOTAL TEMP POTENTIAL TOTALAVG TEMPAVG PRESSURE GPRESSURE VOLUME PRESSAVG GPRESSAVG
ENERGY: 0 1.9490 3.6719 7.9918 0.0000 -10313.9865 1316.5209 0.0000 0.0000 1720.9845 -7262.8684 297.1483 -8983.8529 -7262.8684 297.1483 -824.7172 -753.6846 30512.6688 -824.7172 -753.6846
ENERGY: 300000 6.4852 4.0651 10.6053 0.0000 -10558.7339 1500.1488 0.0000 0.0000 1740.4929 -7296.9366 300.5167 -9037.4295 -7297.5328 300.1840 826.6170 892.1214 29888.0997 77.7958 154.5117
ENERGY: 600000 4.4989 6.2035 11.8725 0.0000 -10673.7625 1522.1103 0.0000 0.0000 1706.4937 -7422.5837 294.6463 -9129.0774 -7325.6958 298.6657 730.6704 875.1693 29543.2076 188.8351 266.1010
ENERGY: 900000 5.0459 4.0082 9.7763 0.0000 -10596.9568 1502.5440 0.0000 0.0000 1721.5284 -7354.0540 297.2422 -9075.5824 -7317.6090 299.8097 552.1326 564.9151 29983.2507 186.4744 260.5527
ENERGY: 1200000 7.2333 3.8080 10.7643 0.0000 -10482.4222 1354.8541 0.0000 0.0000 1705.1920 -7400.5705 294.4216 -9105.7625 -7324.3337 298.2320 -513.9449 -475.0515 29570.2413 96.8538 160.0643
ENERGY: 1500000 4.6766 6.8470 11.8670 0.0000 -10374.0167 1364.5018 0.0000 0.0000 1713.2292 -7272.8951 295.8093 -8986.1243 -7328.5099 297.1087 -211.1663 -171.8807 29939.2258 31.2343 88.7767
TCL: Running FEP window  11: Lambda1 0.4999999999999996 Lambda2 0.4499999999999996 [dLambda -0.04999999999999999]
TCL: Setting parameter firsttimestep to 0
TCL: Setting parameter alchLambda to 0.4999999999999996
Info: NONBONDED TABLE R-SQUARED SPACING: 0.0625
Info: NONBONDED TABLE SIZE: 705 POINTS
TCL: Setting parameter alchLambda2 to 0.4499999999999996
Info: NONBONDED TABLE R-SQUARED SPACING: 0.0625
Info: NONBONDED TABLE SIZE: 705 POINTS
TCL: Running for 1500000 steps
ETITLE: TS BOND ANGLE DIHED IMPRP ELECT VDW BOUNDARY MISC KINETIC TOTAL TEMP POTENTIAL TOTALAVG TEMPAVG PRESSURE GPRESSURE VOLUME PRESSAVG GPRESSAVG
ENERGY: 0 4.6766 6.8470 11.8670 0.0000 -10373.7103 1364.4366 0.0000 0.0000 1712.3791 -7273.5040 295.6625 -8985.8831 -7273.5040 295.6625 -257.4558 -180.3763 29939.2258 -257.4558 -180.3763
ENERGY: 300000 5.0917 6.0379 12.7897 0.0000 -10400.7194 1358.9985 0.0000 0.0000 1756.0947 -7261.7068 303.2105 -9017.8015 -7282.4702 298.5553 -495.5353 -352.2241 30032.0338 -563.6981 -485.6742
ENERGY: 600000 5.2502 6.6323 8.4240 0.0000 -10434.8228 1353.5780 0.0000 0.0000 1731.7467 -7329.1916 299.0066 -9060.9383 -7273.9646 299.7564 -579.2446 -501.9557 29916.1100 -355.3146 -291.9017
ENERGY: 900000 3.8951 2.5927 10.1060 0.0000 -10527.2123 1399.9957 0.0000 0.0000 1709.4242 -7401.1986 295.1523 -9110.6228 -7294.7080 299.3372 -286.3082 -203.8832 29789.3142 -312.5488 -248.3078
ENERGY: 1200000 4.3249 3.3195 7.5282 0.0000 -10319.5527 1343.0394 0.0000 0.0000 1735.1908 -7226.1500 299.6012 -8961.3408 -7285.9438 300.0381 -374.5785 -294.7890 30329.6899 -297.1023 -238.9987
ENERGY: 1500000 3.5857 4.4981 9.3013 0.0000 -10361.9293 1326.6504 0.0000 0.0000 1707.1290 -7310.7648 294.7560 -9017.8938 -7284.4802 300.3858 -655.3278 -549.4298 30139.8987 -312.8195 -254.3165
TCL: Running FEP window  12: Lambda1 0.4499999999999996 Lambda2 0.39999999999999963 [dLambda -0.04999999999999999]
TCL: Setting parameter firsttimestep to 0
TCL: Setting parameter alchLambda to 0.4499999999999996
Info: NONBONDED TABLE R-SQUARED SPACING: 0.0625
Info: NONBONDED TABLE SIZE: 705 POINTS
TCL: Setting parameter alchLambda2 to 0.39999999999999963
Info: NONBONDED TABLE R-SQUARED SPACING: 0.0625
Info: NONBONDED TABLE SIZE: 705 POINTS
TCL: Running for 1500000 steps
ETITLE: TS BOND ANGLE DIHED IMPRP ELECT VDW BOUNDARY MISC KINETIC TOTAL TEMP POTENTIAL TOTALAVG TEMPAVG PRESSURE GPRESSURE VOLUME PRESSAVG GPRESSAVG
ENERGY: 0 3.5857 4.4981 9.3013 0.0000 -10361.9286 1327.0439 0.0000 0.0000 1706.2789 -7311.2207 294.6092 -9017.4996 -7311.2207 294.6092 -629.5213 -555.6249 30139.8987 -629.5213 -555.6249
ENERGY: 300000 5.0509 5.7268 7.9747 0.0000 -10601.8867 1533.2963 0.0000 0.0000 1754.8401 -7294.9981 302.9939 -9049.8381 -7304.8584 298.9835 773.2214 830.7500 29886.8941 67.9854 115.0514
ENERGY: 600000 2.1360 8.1941 8.9496 0.0000 -10498.1758 1418.3151 0.0000 0.0000 1762.9720 -7297.6091 304.3980 -9060.5810 -7300.3282 300.3815 -16.9892 40.7761 29902.6473 2.1294 58.5080
ENERGY: 900000 6.2356 4.2546 11.8084 0.0000 -10634.3799 1466.3882 0.0000 0.0000 1720.4524 -7425.2407 297.0564 -9145.6931 -7316.2006 302.2679 406.6081 514.0482 29422.0792 52.8976 105.0516
ENERGY: 1200000 3.6346 8.5759 7.6396 0.0000 -10503.5429 1434.4762 0.0000 0.0000 1783.6883 -7265.5283 307.9749 -9049.2166 -7304.3328 301.9609 307.6841 411.5597 29890.2873 102.5844 164.3926
ENERGY: 1500000 5.8926 4.9677 11.7166 0.0000 -10765.0517 1517.0229 0.0000 0.0000 1732.1953 -7493.2565 299.0840 -9225.4518 -7323.4729 300.6660 607.8254 653.7537 29167.9906 140.0361 198.4396
TCL: Running FEP window  13: Lambda1 0.39999999999999963 Lambda2 0.34999999999999964 [dLambda -0.04999999999999999]
TCL: Setting parameter firsttimestep to 0
TCL: Setting parameter alchLambda to 0.39999999999999963
Info: NONBONDED TABLE R-SQUARED SPACING: 0.0625
Info: NONBONDED TABLE SIZE: 705 POINTS
TCL: Setting parameter alchLambda2 to 0.34999999999999964
Info: NONBONDED TABLE R-SQUARED SPACING: 0.0625
Info: NONBONDED TABLE SIZE: 705 POINTS
TCL: Running for 1500000 steps
ETITLE: TS BOND ANGLE DIHED IMPRP ELECT VDW BOUNDARY MISC KINETIC TOTAL TEMP POTENTIAL TOTALAVG TEMPAVG PRESSURE GPRESSURE VOLUME PRESSAVG GPRESSAVG
ENERGY: 0 5.8926 4.9677 11.7166 0.0000 -10765.0516 1517.2911 0.0000 0.0000 1731.3348 -7493.8486 298.9354 -9225.1835 -7493.8486 298.9354 579.6364 650.4280 29167.9906 579.6364 650.4280
ENERGY: 300000 5.7531 5.4996 12.2891 0.0000 -10573.0174 1498.5491 0.0000 0.0000 1737.0593 -7313.8670 299.9238 -9050.9263 -7332.6157 302.6277 681.9579 765.1866 29573.5698 201.9874 256.8113
ENERGY: 600000 2.9897 11.2919 11.5599 0.0000 -10519.5345 1437.7703 0.0000 0.0000 1735.4942 -7320.4284 299.6536 -9055.9226 -7326.7521 302.4167 418.4985 500.1590 29687.2478 241.1184 291.4303
ENERGY: 900000 2.3020 7.4906 11.1257 0.0000 -10511.9898 1439.9066 0.0000 0.0000 1738.7087 -7312.4563 300.2086 -9051.1650 -7312.0959 301.5353 87.0290 138.0371 30087.6214 192.7087 250.6522
ENERGY: 1200000 6.3714 4.5544 12.6869 0.0000 -10456.0031 1393.4867 0.0000 0.0000 1699.4508 -7339.4529 293.4303 -9038.9037 -7329.6605 299.9488 -219.3880 -209.0016 30027.0655 110.9541 157.2234
ENERGY: 1500000 5.5012 5.9330 7.8599 0.0000 -10365.3090 1387.9991 0.0000 0.0000 1785.8694 -7172.1464 308.3515 -8958.0158 -7314.6632 300.9801 -44.3888 73.3509 30029.0866 101.4738 152.6846
TCL: Running FEP window  14: Lambda1 0.34999999999999964 Lambda2 0.29999999999999966 [dLambda -0.04999999999999999]
TCL: Setting parameter firsttimestep to 0
TCL: Setting parameter alchLambda to 0.34999999999999964
Info: NONBONDED TABLE R-SQUARED SPACING: 0.0625
Info: NONBONDED TABLE SIZE: 705 POINTS
TCL: Setting parameter alchLambda2 to 0.29999999999999966
Info: NONBONDED TABLE R-SQUARED SPACING: 0.0625
Info: NONBONDED TABLE SIZE: 705 POINTS
TCL: Running for 1500000 steps
ETITLE: TS BOND ANGLE DIHED IMPRP ELECT VDW BOUNDARY MISC KINETIC TOTAL TEMP POTENTIAL TOTALAVG TEMPAVG PRESSURE GPRESSURE VOLUME PRESSAVG GPRESSAVG
ENERGY: 0 5.5012 5.9330 7.8599 0.0000 -10365.3091 1387.7610 0.0000 0.0000 1785.0090 -7173.2450 308.2029 -8958.2540 -7173.2450 308.2029 -29.9862 64.7133 30029.0866 -29.9862 64.7133
ENERGY: 300000 7.2051 4.1123 8.9469 0.0000 -10536.2912 1458.7230 0.0000 0.0000 1733.4854 -7323.8186 299.3068 -9057.3040 -7290.8117 303.3039 145.2899 226.5149 30040.4772 -56.3813 33.2455
ENERGY: 600000 6.8824 5.0498 11.0215 0.0000 -10631.4401 1478.4406 0.0000 0.0000 1752.2678 -7377.7780 302.5498 -9130.0458 -7315.4899 301.5917 312.1658 350.7318 29500.6516 -110.1478 -34.5269
ENERGY: 900000 4.8579 7.6697 9.6446 0.0000 -10590.7268 1473.9489 0.0000 0.0000 1746.7980 -7347.8078 301.6053 -9094.6058 -7313.2104 302.2788 395.3944 524.7310 29617.1428 -164.6704 -86.3751
ENERGY: 1200000 2.4975 6.3673 17.9324 0.0000 -10351.5589 1338.1176 0.0000 0.0000 1687.0315 -7299.6126 291.2859 -8986.6441 -7303.8761 302.2993 -523.2641 -456.6970 30321.4619 -133.6077 -60.5878
ENERGY: 1500000 3.6595 7.9800 13.6658 0.0000 -10683.6638 1517.5460 0.0000 0.0000 1746.1727 -7394.6398 301.4974 -9140.8124 -7312.3458 302.0702 906.0012 893.8322 29480.1902 -95.0190 -30.6505
TCL: Running FEP window  15: Lambda1 0.29999999999999966 Lambda2 0.24999999999999967 [dLambda -0.04999999999999999]
TCL: Setting parameter firsttimestep to 0
TCL: Setting parameter alchLambda to 0.29999999999999966
Info: NONBONDED TABLE R-SQUARED SPACING: 0.0625
Info: NONBONDED TABLE SIZE: 705 POINTS
TCL: Setting parameter alchLambda2 to 0.24999999999999967
Info: NONBONDED TABLE R-SQUARED SPACING: 0.0625
Info: NONBONDED TABLE SIZE: 705 POINTS
TCL: Running for 1500000 steps
ETITLE: TS BOND ANGLE DIHED IMPRP ELECT VDW BOUNDARY MISC KINETIC TOTAL TEMP POTENTIAL TOTALAVG TEMPAVG PRESSURE GPRESSURE VOLUME PRESSAVG GPRESSAVG
ENERGY: 0 3.6595 7.9800 13.6658 0.0000 -10683.6623 1517.8365 0.0000 0.0000 1745.3267 -7395.1938 301.3513 -9140.5205 -7395.1938 301.3513 793.8907 889.7604 29480.1902 793.8907 889.7604
ENERGY: 300000 5.6773 6.6148 14.5666 0.0000 -10610.8037 1480.5376 0.0000 0.0000 1758.1597 -7345.2477 303.5671 -9103.4074 -7311.5807 302.5792 159.6069 222.2469 29722.5061 73.7164 140.4425
ENERGY: 600000 5.7254 6.8965 11.8343 0.0000 -10474.1084 1376.1739 0.0000 0.0000 1742.7552 -7330.7231 300.9073 -9073.4783 -7314.9121 302.4173 -467.1910 -428.9731 29794.3919 27.6422 89.8377
ENERGY: 900000 3.7947 4.3243 10.6492 0.0000 -10622.1807 1511.7502 0.0000 0.0000 1721.8507 -7369.8116 297.2979 -9091.6623 -7316.9933 303.0693 708.1747 786.0412 29598.5199 124.3869 181.9281
ENERGY: 1200000 3.3194 4.9397 8.7436 0.0000 -10441.1032 1381.3762 0.0000 0.0000 1715.3176 -7327.4067 296.1699 -9042.7243 -7321.1715 301.7299 -540.8189 -462.3922 30152.6496 74.3766 137.7454
ENERGY: 1500000 5.9520 5.0349 10.6207 0.0000 -10502.1308 1384.7055 0.0000 0.0000 1696.3082 -7399.5095 292.8877 -9095.8177 -7323.5305 300.5645 -407.0218 -340.4700 29498.8261 92.5411 153.2440
TCL: Running FEP window  16: Lambda1 0.24999999999999967 Lambda2 0.19999999999999968 [dLambda -0.04999999999999999]
TCL: Setting parameter firsttimestep to 0
TCL: Setting parameter alchLambda to 0.24999999999999967
Info: NONBONDED TABLE R-SQUARED SPACING: 0.0625
Info: NONBONDED TABLE SIZE: 705 POINTS
TCL: Setting parameter alchLambda2 to 0.19999999999999968
Info: NONBONDED TABLE R-SQUARED SPACING: 0.0625
Info: NONBONDED TABLE SIZE: 705 POINTS
TCL: Running for 1500000 steps
ETITLE: TS BOND ANGLE DIHED IMPRP ELECT VDW BOUNDARY MISC KINETIC TOTAL TEMP POTENTIAL TOTALAVG TEMPAVG PRESSURE GPRESSURE VOLUME PRESSAVG GPRESSAVG
ENERGY: 0 5.9520 5.0348 10.6207 0.0000 -10502.1307 1383.9856 0.0000 0.0000 1695.4664 -7401.0712 292.7423 -9096.5376 -7401.0712 292.7423 -432.3953 -350.6109 29498.8261 -432.3953 -350.6109
ENERGY: 300000 3.9428 6.6984 9.0992 0.0000 -10521.9790 1453.6828 0.0000 0.0000 1729.3621 -7319.1937 298.5948 -9048.5558 -7398.5151 297.3144 353.7826 414.8176 29862.9544 -181.8551 -109.3310
ENERGY: 600000 5.2866 4.3765 8.5965 0.0000 -10411.8653 1419.8661 0.0000 0.0000 1776.9466 -7196.7930 306.8108 -8973.7396 -7356.1045 298.6261 109.4945 171.6081 30431.2920 -64.1328 -4.9908
ENERGY: 900000 5.4508 4.5492 12.4061 0.0000 -10410.6559 1306.5702 0.0000 0.0000 1690.7003 -7390.9792 291.9194 -9081.6795 -7340.2444 299.9384 -1064.2267 -952.5752 29625.8581 -107.4218 -53.8700
ENERGY: 1200000 4.1627 3.3147 10.1088 0.0000 -10600.2079 1487.9386 0.0000 0.0000 1734.9965 -7359.6866 299.5677 -9094.6831 -7340.3520 299.3657 527.1412 541.4793 29650.7057 14.3761 68.0165
ENERGY: 1500000 2.0206 4.9336 14.1073 0.0000 -10403.8678 1376.3767 0.0000 0.0000 1733.0730 -7273.3566 299.2355 -9006.4296 -7325.9354 299.4616 144.3269 179.2166 29491.3796 65.7308 110.8190
TCL: Running FEP window  17: Lambda1 0.19999999999999968 Lambda2 0.1499999999999997 [dLambda -0.04999999999999999]
TCL: Setting parameter firsttimestep to 0
TCL: Setting parameter alchLambda to 0.19999999999999968
Info: NONBONDED TABLE R-SQUARED SPACING: 0.0625
Info: NONBONDED TABLE SIZE: 705 POINTS
TCL: Setting parameter alchLambda2 to 0.1499999999999997
Info: NONBONDED TABLE R-SQUARED SPACING: 0.0625
Info: NONBONDED TABLE SIZE: 705 POINTS
TCL: Running for 1500000 steps
ETITLE: TS BOND ANGLE DIHED IMPRP ELECT VDW BOUNDARY MISC KINETIC TOTAL TEMP POTENTIAL TOTALAVG TEMPAVG PRESSURE GPRESSURE VOLUME PRESSAVG GPRESSAVG
ENERGY: 0 2.0206 4.9336 14.1073 0.0000 -10403.8662 1376.2467 0.0000 0.0000 1732.1808 -7274.3772 299.0815 -9006.5580 -7274.3772 299.0815 95.8771 172.5151 29491.3796 95.8771 172.5151
ENERGY: 300000 3.4996 3.6942 10.6577 0.0000 -10559.3541 1410.7560 0.0000 0.0000 1724.1254 -7406.6211 297.6906 -9130.7465 -7354.7693 297.9103 -145.6327 -133.6729 29599.7107 -94.3613 -31.6576
ENERGY: 600000 2.0220 3.0324 11.5718 0.0000 -10394.3487 1395.7610 0.0000 0.0000 1804.0940 -7177.8675 311.4982 -8981.9615 -7330.0880 299.8066 208.1668 263.4577 29830.6646 -107.2871 -42.8902
ENERGY: 900000 4.3853 4.2860 9.0744 0.0000 -10424.6627 1380.3520 0.0000 0.0000 1739.1260 -7287.4389 300.2807 -9026.5650 -7324.5987 299.8075 -374.1839 -399.2579 30101.0569 -27.1269 28.8482
ENERGY: 1200000 4.6486 5.1466 9.6396 0.0000 -10424.7757 1364.4232 0.0000 0.0000 1777.1450 -7263.7728 306.8451 -9040.9178 -7310.9002 299.8974 -451.7777 -420.7896 30043.6293 -61.7156 -4.2483
ENERGY: 1500000 4.4931 6.2733 13.0963 0.0000 -10549.9085 1444.1805 0.0000 0.0000 1725.2538 -7356.6115 297.8855 -9081.8653 -7314.0019 300.5865 55.8748 163.4582 29529.7090 82.7196 137.6845
TCL: Running FEP window  18: Lambda1 0.1499999999999997 Lambda2 0.09999999999999969 [dLambda -0.05 ]
TCL: Setting parameter firsttimestep to 0
TCL: Setting parameter alchLambda to 0.1499999999999997
Info: NONBONDED TABLE R-SQUARED SPACING: 0.0625
Info: NONBONDED TABLE SIZE: 705 POINTS
TCL: Setting parameter alchLambda2 to 0.09999999999999969
Info: NONBONDED TABLE R-SQUARED SPACING: 0.0625
Info: NONBONDED TABLE SIZE: 705 POINTS
TCL: Running for 1500000 steps
ETITLE: TS BOND ANGLE DIHED IMPRP ELECT VDW BOUNDARY MISC KINETIC TOTAL TEMP POTENTIAL TOTALAVG TEMPAVG PRESSURE GPRESSURE VOLUME PRESSAVG GPRESSAVG
ENERGY: 0 4.4932 6.2733 13.0963 0.0000 -10549.9090 1444.2543 0.0000 0.0000 1724.4058 -7357.3861 297.7391 -9081.7919 -7357.3861 297.7391 61.9133 161.0924 29529.7090 61.9133 161.0924
ENERGY: 300000 5.7910 8.9027 6.3403 0.0000 -10479.4514 1446.4289 0.0000 0.0000 1781.0566 -7230.9317 307.5205 -9011.9884 -7291.4068 302.9224 167.1370 252.1048 30002.5941 -154.6694 -83.3359
ENERGY: 600000 4.4046 10.3715 11.6070 0.0000 -10522.1462 1438.0170 0.0000 0.0000 1801.5319 -7256.2143 311.0558 -9057.7461 -7297.0992 302.7878 416.1697 469.9995 29432.2478 40.0239 91.2642
ENERGY: 900000 4.1379 9.3057 10.3203 0.0000 -10560.8046 1375.9863 0.0000 0.0000 1728.9268 -7432.1275 298.5197 -9161.0543 -7300.5736 301.1256 -533.6137 -448.5537 29741.3666 -63.5525 -10.0895
ENERGY: 1200000 5.3887 5.4269 11.4192 0.0000 -10469.1200 1421.4126 0.0000 0.0000 1700.4383 -7325.0343 293.6008 -9025.4727 -7307.6778 300.3868 35.9118 75.0088 29775.5769 71.6080 121.7305
ENERGY: 1500000 2.2369 3.7795 14.8233 0.0000 -10383.9661 1337.1549 0.0000 0.0000 1743.0083 -7282.9632 300.9510 -9025.9715 -7313.3616 299.0481 -462.2152 -387.7388 29874.2393 -61.5700 -7.4949
TCL: Running FEP window  19: Lambda1 0.09999999999999969 Lambda2 0.049999999999999684 [dLambda -0.05 ]
TCL: Setting parameter firsttimestep to 0
TCL: Setting parameter alchLambda to 0.09999999999999969
Info: NONBONDED TABLE R-SQUARED SPACING: 0.0625
Info: NONBONDED TABLE SIZE: 705 POINTS
TCL: Setting parameter alchLambda2 to 0.049999999999999684
Info: NONBONDED TABLE R-SQUARED SPACING: 0.0625
Info: NONBONDED TABLE SIZE: 705 POINTS
TCL: Running for 1500000 steps
ETITLE: TS BOND ANGLE DIHED IMPRP ELECT VDW BOUNDARY MISC KINETIC TOTAL TEMP POTENTIAL TOTALAVG TEMPAVG PRESSURE GPRESSURE VOLUME PRESSAVG GPRESSAVG
ENERGY: 0 2.2369 3.7795 14.8233 0.0000 -10383.9669 1337.5078 0.0000 0.0000 1742.1734 -7283.4461 300.8068 -9025.6195 -7283.4461 300.8068 -477.4362 -388.2638 29874.2393 -477.4362 -388.2638
ENERGY: 300000 6.5322 7.4457 12.3180 0.0000 -10425.1778 1423.0478 0.0000 0.0000 1742.9953 -7232.8388 300.9488 -8975.8341 -7295.4436 299.8435 85.2341 204.3713 29917.8644 88.2636 164.9628
ENERGY: 600000 3.0849 2.4590 11.3714 0.0000 -10428.5301 1430.8107 0.0000 0.0000 1744.4312 -7236.3728 301.1967 -8980.8040 -7291.9142 301.9609 -42.0711 38.6590 30409.2508 98.8193 168.1027
ENERGY: 900000 5.5736 3.4749 12.5969 0.0000 -10559.9671 1467.3860 0.0000 0.0000 1746.5820 -7324.3537 301.5680 -9070.9357 -7303.8577 302.6788 567.0345 607.0920 29605.1245 126.7429 186.3715
ENERGY: 1200000 3.3828 9.5754 11.3160 0.0000 -10601.0587 1477.1074 0.0000 0.0000 1693.3868 -7406.2904 292.3833 -9099.6771 -7314.4906 302.0101 432.5559 477.3004 29643.0676 98.2017 154.2303
ENERGY: 1500000 3.9653 4.5425 14.2243 0.0000 -10507.5242 1434.6555 0.0000 0.0000 1748.3315 -7301.8050 301.8701 -9050.1365 -7324.1476 301.5941 214.1114 272.1320 29889.9180 26.9558 79.6733
TCL: Running FEP window  20: Lambda1 0.049999999999999684 Lambda2 0.0    [dLambda -0.049999999999999684]
TCL: Setting parameter firsttimestep to 0
TCL: Setting parameter alchLambda to 0.049999999999999684
Info: NONBONDED TABLE R-SQUARED SPACING: 0.0625
Info: NONBONDED TABLE SIZE: 705 POINTS
TCL: Setting parameter alchLambda2 to 0.0
Info: NONBONDED TABLE R-SQUARED SPACING: 0.0625
Info: NONBONDED TABLE SIZE: 705 POINTS
TCL: Running for 1500000 steps
ETITLE: TS BOND ANGLE DIHED IMPRP ELECT VDW BOUNDARY MISC KINETIC TOTAL TEMP POTENTIAL TOTALAVG TEMPAVG PRESSURE GPRESSURE VOLUME PRESSAVG GPRESSAVG
ENERGY: 0 3.9653 4.5425 14.2243 0.0000 -10507.5258 1432.7321 0.0000 0.0000 1747.4582 -7304.6033 301.7193 -9052.0615 -7304.6033 301.7193 174.7209 261.5378 29889.9180 174.7209 261.5378
ENERGY: 300000 4.6366 2.4422 11.4546 0.0000 -10396.0539 1306.5285 0.0000 0.0000 1753.0689 -7317.9232 302.6881 -9070.9921 -7286.3877 302.7940 -1040.3085 -1016.3129 29952.8359 -329.2206 -277.2777
ENERGY: 600000 4.8741 6.1314 10.8631 0.0000 -10437.7547 1385.7490 0.0000 0.0000 1710.3575 -7319.7795 295.3135 -9030.1371 -7293.6088 300.7284 -359.0630 -297.7505 29966.1762 -244.6166 -193.0014
ENERGY: 900000 9.3991 10.1880 9.8343 0.0000 -10429.1294 1359.6892 0.0000 0.0000 1747.1990 -7292.8198 301.6746 -9040.0188 -7296.7307 301.1349 -674.9449 -625.7163 29702.8041 -271.7712 -223.5428
ENERGY: 1200000 2.2456 10.3317 12.6028 0.0000 -10426.2883 1317.6852 0.0000 0.0000 1689.5255 -7393.8976 291.7166 -9083.4231 -7308.3200 301.0174 -1063.2533 -978.9878 29940.7881 -316.1680 -263.7996
ENERGY: 1500000 3.1774 5.6989 10.8211 0.0000 -10617.5261 1468.5725 0.0000 0.0000 1734.9458 -7394.3104 299.5589 -9129.2561 -7316.4377 301.4611 295.0765 333.8856 29323.8762 -271.0168 -219.8745
TCL: Exiting due to exit command.
