Info: SIMULATION PARAMETERS:
Info: TIMESTEP               2
Info: NUMBER OF STEPS        0
Info: STEPS PER CYCLE        10
Info: PERIODIC CELL BASIS 1  32.6786 0 0
Info: PERIODIC CELL BASIS 2  0 30.1502 0
Info: PERIODIC CELL BASIS 3  0 0 30.3359
Info: PERIODIC CELL CENTER   0 0 0
Info: WRAPPING WATERS AROUND PERIODIC BOUNDARIES ON OUTPUT.
Info: WRAPPING ALL CLUSTERS AROUND PERIODIC BOUNDARIES ON OUTPUT.
Info: FIRST LDB TIMESTEP     50
Info: LAST LDB TIMESTEP     -1
Info: HOM BACKGROUND SCALING 1
Info: PME BACKGROUND SCALING 1
Info: MIN ATOMS PER PATCH    40
Info: EMPTY PATCH LOAD       40 ATOMS
Info: VELOCITY FILE          mobley_4792268_equil.vel
Info: CENTER OF MASS MOVING INITIALLY? NO
Info: DIELECTRIC             1
Info: EXCLUDE                SCALED ONE-FOUR
Info: 1-4 ELECTROSTATICS SCALED BY 0.833333
Info: MODIFIED 1-4 VDW PARAMETERS WILL BE USED
Info: DCD FILENAME           mobley_4792268_prod.dcd
Info: DCD FREQUENCY          100000
Info: DCD FIRST STEP         100000
Info: DCD FILE WILL CONTAIN UNIT CELL DATA
Info: XST FILENAME           mobley_4792268_prod.xst
Info: XST FREQUENCY          100000
Info: NO VELOCITY DCD OUTPUT
Info: NO FORCE DCD OUTPUT
Info: OUTPUT FILENAME        mobley_4792268_prod
Info: BINARY OUTPUT FILES WILL BE USED
Info: RESTART FILENAME       mobley_4792268_prod.restart
Info: RESTART FREQUENCY      100000
Info: BINARY RESTART FILES WILL BE USED
Info: CUTOFF                 9
Info: PAIRLIST DISTANCE      11
Info: PAIRLIST SHRINK RATE   0.01
Info: PAIRLIST GROW RATE     0.01
Info: PAIRLIST TRIGGER       0.3
Info: PAIRLISTS PER CYCLE    2
Info: PAIRLISTS ENABLED
Info: MARGIN                 2
Info: HYDROGEN GROUP CUTOFF  2.5
Info: PATCH DIMENSION        15.5
Info: ENERGY OUTPUT STEPS    100000
Info: ENERGY EVALUATION STEPS    100000
Info: OUTPUT ENERGY PRECISION 4
Info: CROSSTERM ENERGY INCLUDED IN DIHEDRAL
Info: TIMING OUTPUT STEPS    1000000
Info: PRESSURE OUTPUT STEPS  100000
Info: ALCHEMICAL FEP ON
Info: FEP CURRENT LAMBDA VALUE     1
Info: FEP COMPARISON LAMBDA VALUE  0.95
Info: FEP INTRA-ALCHEMICAL NON-BONDED INTERACTIONS WILL BE RETAINED
Info: FEP INTRA-ALCHEMICAL BONDED INTERACTIONS WILL BE RETAINED
Info: FEP VDW SHIFTING COEFFICIENT 5
Info: FEP ELEC. ACTIVE FOR ANNIHILATED PARTICLES BETWEEN LAMBDA = 0 AND LAMBDA = 0.5
Info: FEP ELEC. ACTIVE FOR EXNIHILATED PARTICLES BETWEEN LAMBDA = 0.5 AND LAMBDA = 1
Info: FEP VDW ACTIVE FOR ANNIHILATED PARTICLES BETWEEN LAMBDA = 0 AND LAMBDA = 1
Info: FEP VDW ACTIVE FOR EXNIHILATED PARTICLES BETWEEN LAMBDA = 0 AND LAMBDA = 1
Info: FEP BOND ACTIVE FOR ANNIHILATED PARTICLES BETWEEN LAMBDA = 1 AND LAMBDA = 1
Info: FEP BOND ACTIVE FOR EXNIHILATED PARTICLES BETWEEN LAMBDA = 0 AND LAMBDA = 0
Info: LANGEVIN DYNAMICS ACTIVE
Info: LANGEVIN TEMPERATURE   300
Info: LANGEVIN USING BBK INTEGRATOR
Info: LANGEVIN DAMPING COEFFICIENT IS 1 INVERSE PS
Info: LANGEVIN DYNAMICS APPLIED TO HYDROGENS
Info: LANGEVIN PISTON PRESSURE CONTROL ACTIVE
Info:        TARGET PRESSURE IS 1.01325 BAR
Info:     OSCILLATION PERIOD IS 50 FS
Info:             DECAY TIME IS 25 FS
Info:     PISTON TEMPERATURE IS 300 K
Info:       PRESSURE CONTROL IS GROUP-BASED
Info:    INITIAL STRAIN RATE IS 0.000743169 0.000743169 0.000743169
Info:       CELL FLUCTUATION IS ISOTROPIC
Info: PARTICLE MESH EWALD (PME) ACTIVE
Info: PME TOLERANCE               1e-06
Info: PME EWALD COEFFICIENT       0.348832
Info: PME INTERPOLATION ORDER     4
Info: PME GRID DIMENSIONS         36 32 32
Info: PME MAXIMUM GRID SPACING    1
Info: PME CALCULATION WILL BE PERFORMED ON GPU
Info: FULL ELECTROSTATIC EVALUATION FREQUENCY      2
Info: USING VERLET I (r-RESPA) MTS SCHEME.
Info: C1 SPLITTING OF LONG RANGE ELECTROSTATICS
Info: PLACING ATOMS IN PATCHES BY HYDROGEN GROUPS
Info: RIGID BONDS TO HYDROGEN : ALL
Info:         ERROR TOLERANCE : 1e-08
Info:          MAX ITERATIONS : 100
Info: RIGID WATER USING SETTLE ALGORITHM
Info: RANDOM NUMBER SEED     1743913062
Info: USE HYDROGEN BONDS?    NO
Info: Using AMBER format force field!
Info: AMBER PARM FILE        mobley_4792268.prmtop
Info: COORDINATE PDB         mobley_4792268.pdb
Info: Exclusions will be read from PARM file!
Info: SCNB (VDW SCALING)     2
Info: USING ARITHMETIC MEAN TO COMBINE L-J SIGMA PARAMETERS
Info: BINARY COORDINATES     mobley_4792268_equil.coor
Info: SUMMARY OF PARAMETERS:
Info: 8 BONDS
Info: 9 ANGLES
Info:   9 HARMONIC
Info:   0 COSINE-BASED
Info: 13 DIHEDRAL
Info: 0 IMPROPER
Info: 0 CROSSTERM
Info: 0 VDW
Info: 28 VDW_PAIRS
Info: 0 NBTHOLE_PAIRS
Info: To read alchdata from file: mobley_4792268.pdb
Info: To read alchflag data from column: 5
Info: STRUCTURE SUMMARY:
Info: 2933 ATOMS
Info: 2932 BONDS
Info: 28 ANGLES
Info: 43 DIHEDRALS
Info: 0 IMPROPERS
Info: 0 CROSSTERMS
Info: 2995 EXCLUSIONS
Info: 2926 RIGID BONDS
Info: ALCH: 0 ATOMS TO DISAPPEAR IN FINAL STATE
Info: ALCH: 17 ATOMS TO APPEAR IN FINAL STATE
Info: 5873 DEGREES OF FREEDOM
Info: 979 HYDROGEN GROUPS
Info: 4 ATOMS IN LARGEST HYDROGEN GROUP
Info: 979 MIGRATION GROUPS
Info: 4 ATOMS IN LARGEST MIGRATION GROUP
Info: TOTAL MASS = 17613.7 amu
Info: TOTAL CHARGE = 0.000100005 e
Info: MASS DENSITY = 0.978587 g/cm^3
Info: ATOM DENSITY = 0.0981301 atoms/A^3
Info: ADDED 0 IMPLICIT EXCLUSIONS
Info: NONBONDED TABLE R-SQUARED SPACING: 0.0625
Info: NONBONDED TABLE SIZE: 705 POINTS
Info: REMOVING COM VELOCITY 0.093664 0.161091 0.0879668
Info: Use 3D box decompostion in PME FFT.
Info: Updated CUDA force table with 4096 elements.
Info: Updated CUDA LJ table with 7 x 7 elements.
Info: Found 20 unique exclusion lists needing 48 bytes
TCL: Running for 1500000 steps
ETITLE: TS BOND ANGLE DIHED IMPRP ELECT VDW BOUNDARY MISC KINETIC TOTAL TEMP POTENTIAL TOTALAVG TEMPAVG PRESSURE GPRESSURE VOLUME PRESSAVG GPRESSAVG
ENERGY: 0 2.8255 6.5533 3.8220 0.0000 -10612.7778 1442.9764 0.0000 0.0000 1757.1495 -7399.4510 301.1197 -9156.6005 -7399.4510 301.1197 426.5215 521.9821 29888.8887 426.5215 521.9821
ENERGY: 300000 1.0588 11.5587 3.8421 0.0000 -10748.6360 1455.0417 0.0000 0.0000 1778.4706 -7498.6641 304.7734 -9277.1347 -7442.9576 301.1198 203.6433 204.4605 30020.8177 311.4449 370.8255
ENERGY: 600000 1.2977 5.2947 2.9670 0.0000 -10736.5262 1392.7495 0.0000 0.0000 1738.9638 -7595.2535 298.0032 -9334.2172 -7476.8615 300.2473 -451.5315 -341.7609 29883.4879 -77.7859 -20.0685
ENERGY: 900000 1.7723 6.3891 2.3933 0.0000 -10617.1405 1434.8806 0.0000 0.0000 1762.8975 -7408.8078 302.1047 -9171.7052 -7474.7444 299.6220 448.2916 512.6939 29950.6535 -70.6038 -4.8519
ENERGY: 1200000 2.7977 4.7041 2.6647 0.0000 -10649.0680 1442.0531 0.0000 0.0000 1732.1024 -7464.7460 296.8274 -9196.8484 -7479.2495 299.0796 -36.2664 44.0919 30393.3017 -84.0705 -17.0851
ENERGY: 1500000 1.2502 5.4291 1.9925 0.0000 -10824.6609 1507.9066 0.0000 0.0000 1737.8223 -7570.2601 297.8076 -9308.0824 -7474.0846 299.4326 522.3034 567.1107 29831.4130 -30.4595 32.7664
TCL: Running FEP window   2: Lambda1 0.95   Lambda2 0.8999999999999999 [dLambda -0.050000000000000044]
TCL: Setting parameter firsttimestep to 0
TCL: Setting parameter alchLambda to 0.95
Info: NONBONDED TABLE R-SQUARED SPACING: 0.0625
Info: NONBONDED TABLE SIZE: 705 POINTS
TCL: Setting parameter alchLambda2 to 0.8999999999999999
Info: NONBONDED TABLE R-SQUARED SPACING: 0.0625
Info: NONBONDED TABLE SIZE: 705 POINTS
TCL: Running for 1500000 steps
ETITLE: TS BOND ANGLE DIHED IMPRP ELECT VDW BOUNDARY MISC KINETIC TOTAL TEMP POTENTIAL TOTALAVG TEMPAVG PRESSURE GPRESSURE VOLUME PRESSAVG GPRESSAVG
ENERGY: 0 1.2502 5.4291 1.9925 0.0000 -10822.1896 1507.0149 0.0000 0.0000 1736.9699 -7569.5330 297.6615 -9306.5029 -7569.5330 297.6615 470.8757 547.8539 29831.4130 470.8757 547.8539
ENERGY: 300000 1.6726 13.1784 2.3592 0.0000 -10747.9692 1455.9644 0.0000 0.0000 1727.5640 -7547.2307 296.0496 -9274.7947 -7521.2469 297.6567 40.8873 115.9002 30264.5570 334.9956 394.9798
ENERGY: 600000 0.5390 9.2908 2.2970 0.0000 -10416.2094 1282.3228 0.0000 0.0000 1745.4229 -7376.3369 299.1101 -9121.7598 -7484.0211 298.3660 -914.0635 -901.0290 30622.2226 -148.0576 -84.8022
ENERGY: 900000 1.8016 5.3562 3.0552 0.0000 -10578.2163 1393.8873 0.0000 0.0000 1756.8763 -7417.2397 301.0728 -9174.1160 -7470.6212 298.2541 -557.4582 -396.2161 30864.8571 -121.8805 -53.1329
ENERGY: 1200000 4.4882 9.4209 2.8951 0.0000 -10678.3663 1434.4980 0.0000 0.0000 1748.6143 -7478.4497 299.6570 -9227.0640 -7480.2340 297.9483 33.1869 109.3364 30133.3239 71.1955 140.0949
ENERGY: 1500000 1.8343 4.9118 2.8095 0.0000 -10680.1893 1424.9336 0.0000 0.0000 1742.9747 -7502.7254 298.6905 -9245.7001 -7474.6423 298.9167 -140.1049 -33.3876 30115.3407 5.5251 70.8314
TCL: Running FEP window   3: Lambda1 0.8999999999999999 Lambda2 0.8499999999999999 [dLambda -0.050000000000000044]
TCL: Setting parameter firsttimestep to 0
TCL: Setting parameter alchLambda to 0.8999999999999999
Info: NONBONDED TABLE R-SQUARED SPACING: 0.0625
Info: NONBONDED TABLE SIZE: 705 POINTS
TCL: Setting parameter alchLambda2 to 0.8499999999999999
Info: NONBONDED TABLE R-SQUARED SPACING: 0.0625
Info: NONBONDED TABLE SIZE: 705 POINTS
TCL: Running for 1500000 steps
ETITLE: TS BOND ANGLE DIHED IMPRP ELECT VDW BOUNDARY MISC KINETIC TOTAL TEMP POTENTIAL TOTALAVG TEMPAVG PRESSURE GPRESSURE VOLUME PRESSAVG GPRESSAVG
ENERGY: 0 1.8343 4.9118 2.8095 0.0000 -10677.5864 1424.4018 0.0000 0.0000 1742.1022 -7501.5268 298.5410 -9243.6289 -7501.5268 298.5410 -109.0149 -45.6389 30115.3407 -109.0149 -45.6389
ENERGY: 300000 3.5413 9.8432 3.7644 0.0000 -10559.4938 1372.4516 0.0000 0.0000 1806.4426 -7363.4507 309.5669 -9169.8933 -7464.8245 302.0877 -257.6972 -213.5026 30070.8555 -97.9404 -42.6989
ENERGY: 600000 1.4404 7.9440 3.6709 0.0000 -10841.8294 1538.3533 0.0000 0.0000 1774.2184 -7516.2024 304.0447 -9290.4208 -7485.6786 300.7948 840.2738 868.9115 29868.6166 -81.5820 -23.8701
ENERGY: 900000 1.2304 9.0572 4.5516 0.0000 -10558.3780 1397.6312 0.0000 0.0000 1763.4059 -7382.5016 302.1918 -9145.9075 -7471.0750 301.2940 29.0544 93.5352 30115.2161 -32.1429 32.8112
ENERGY: 1200000 1.2253 7.1420 2.3477 0.0000 -10586.1143 1387.3035 0.0000 0.0000 1756.1557 -7431.9401 300.9493 -9188.0958 -7473.0779 300.4993 -355.3161 -267.4965 30391.4318 0.5050 64.7948
ENERGY: 1500000 4.1513 9.8956 5.7755 0.0000 -10649.7534 1430.6692 0.0000 0.0000 1722.9925 -7476.2694 295.2662 -9199.2619 -7475.1894 300.1347 168.6015 196.1271 30029.6811 21.4607 83.6070
TCL: Running FEP window   4: Lambda1 0.8499999999999999 Lambda2 0.7999999999999998 [dLambda -0.050000000000000044]
TCL: Setting parameter firsttimestep to 0
TCL: Setting parameter alchLambda to 0.8499999999999999
Info: NONBONDED TABLE R-SQUARED SPACING: 0.0625
Info: NONBONDED TABLE SIZE: 705 POINTS
TCL: Setting parameter alchLambda2 to 0.7999999999999998
Info: NONBONDED TABLE R-SQUARED SPACING: 0.0625
Info: NONBONDED TABLE SIZE: 705 POINTS
TCL: Running for 1500000 steps
ETITLE: TS BOND ANGLE DIHED IMPRP ELECT VDW BOUNDARY MISC KINETIC TOTAL TEMP POTENTIAL TOTALAVG TEMPAVG PRESSURE GPRESSURE VOLUME PRESSAVG GPRESSAVG
ENERGY: 0 4.1513 9.8956 5.7755 0.0000 -10646.6644 1430.1098 0.0000 0.0000 1722.0971 -7474.6352 295.1128 -9196.7323 -7474.6352 295.1128 107.9791 184.2048 30029.6811 107.9791 184.2048
ENERGY: 300000 5.6745 9.8252 3.3447 0.0000 -10709.2812 1490.5787 0.0000 0.0000 1758.8038 -7441.0543 301.4031 -9199.8581 -7426.4727 299.6694 651.4190 670.0182 30026.7247 39.6440 75.5247
ENERGY: 600000 1.5298 6.4920 3.4415 0.0000 -10636.7202 1352.4031 0.0000 0.0000 1699.6481 -7573.2057 291.2657 -9272.8537 -7473.1869 297.6660 -650.9567 -627.6478 29944.6974 -162.5225 -121.6931
ENERGY: 900000 3.3663 7.8459 5.3932 0.0000 -10685.6512 1456.5104 0.0000 0.0000 1705.8938 -7506.6416 292.3360 -9212.5354 -7469.9528 298.1726 -43.9253 39.9980 30204.2003 -59.9159 -22.4519
ENERGY: 1200000 2.3037 6.4960 1.9045 0.0000 -10758.9794 1424.7224 0.0000 0.0000 1783.4245 -7540.1284 305.6223 -9323.5529 -7473.0383 298.8970 70.4582 147.4656 29514.6588 -73.5658 -27.0539
ENERGY: 1500000 1.1758 7.2012 5.3380 0.0000 -10568.0012 1325.1872 0.0000 0.0000 1736.2283 -7492.8708 297.5344 -9229.0991 -7456.3649 300.6637 -831.9398 -759.2725 30347.3287 -123.4848 -74.6923
TCL: Running FEP window   5: Lambda1 0.7999999999999998 Lambda2 0.7499999999999998 [dLambda -0.050000000000000044]
TCL: Setting parameter firsttimestep to 0
TCL: Setting parameter alchLambda to 0.7999999999999998
Info: NONBONDED TABLE R-SQUARED SPACING: 0.0625
Info: NONBONDED TABLE SIZE: 705 POINTS
TCL: Setting parameter alchLambda2 to 0.7499999999999998
Info: NONBONDED TABLE R-SQUARED SPACING: 0.0625
Info: NONBONDED TABLE SIZE: 705 POINTS
TCL: Running for 1500000 steps
ETITLE: TS BOND ANGLE DIHED IMPRP ELECT VDW BOUNDARY MISC KINETIC TOTAL TEMP POTENTIAL TOTALAVG TEMPAVG PRESSURE GPRESSURE VOLUME PRESSAVG GPRESSAVG
ENERGY: 0 1.1758 7.2012 5.3380 0.0000 -10566.1529 1324.6649 0.0000 0.0000 1735.3521 -7492.4209 297.3843 -9227.7730 -7492.4209 297.3843 -857.5462 -774.6975 30347.3287 -857.5462 -774.6975
ENERGY: 300000 1.7789 6.8823 4.4324 0.0000 -10462.7076 1328.7080 0.0000 0.0000 1726.0535 -7394.8524 295.7908 -9120.9060 -7466.2475 297.7323 -407.2010 -360.3025 29954.6631 -74.6416 -30.1594
ENERGY: 600000 1.8773 4.6091 1.9262 0.0000 -10640.7511 1440.8820 0.0000 0.0000 1769.3607 -7422.0957 303.2123 -9191.4564 -7461.2514 298.5920 119.3247 135.2295 30563.7099 -66.9494 -29.0956
ENERGY: 900000 2.4795 5.1149 2.9453 0.0000 -10669.9882 1465.7929 0.0000 0.0000 1764.4298 -7429.2258 302.3673 -9193.6556 -7457.1238 300.1526 519.7041 585.4898 30102.8130 13.8783 64.0367
ENERGY: 1200000 1.3655 11.6511 4.2339 0.0000 -10573.1839 1370.2537 0.0000 0.0000 1722.9599 -7462.7198 295.2606 -9185.6797 -7463.3755 299.3861 -313.1480 -210.4808 30252.0674 3.0050 57.8459
ENERGY: 1500000 2.0176 4.6144 2.9617 0.0000 -10627.7516 1439.5718 0.0000 0.0000 1720.1071 -7458.4790 294.7718 -9178.5861 -7463.3555 299.3795 131.9153 178.6859 30199.0321 2.8170 58.8612
TCL: Running FEP window   6: Lambda1 0.7499999999999998 Lambda2 0.6999999999999997 [dLambda -0.050000000000000044]
TCL: Setting parameter firsttimestep to 0
TCL: Setting parameter alchLambda to 0.7499999999999998
Info: NONBONDED TABLE R-SQUARED SPACING: 0.0625
Info: NONBONDED TABLE SIZE: 705 POINTS
TCL: Setting parameter alchLambda2 to 0.6999999999999997
Info: NONBONDED TABLE R-SQUARED SPACING: 0.0625
Info: NONBONDED TABLE SIZE: 705 POINTS
TCL: Running for 1500000 steps
ETITLE: TS BOND ANGLE DIHED IMPRP ELECT VDW BOUNDARY MISC KINETIC TOTAL TEMP POTENTIAL TOTALAVG TEMPAVG PRESSURE GPRESSURE VOLUME PRESSAVG GPRESSAVG
ENERGY: 0 2.0176 4.6144 2.9617 0.0000 -10625.2163 1438.0650 0.0000 0.0000 1719.2664 -7458.2912 294.6277 -9177.5576 -7458.2912 294.6277 81.6324 158.2787 30199.0321 81.6324 158.2787
ENERGY: 300000 1.4816 6.1484 3.6041 0.0000 -10708.9255 1463.9399 0.0000 0.0000 1724.6148 -7509.1367 295.5442 -9233.7515 -7510.0267 295.1034 332.2984 385.8084 29926.5214 -21.0949 70.5747
ENERGY: 600000 1.9049 9.7361 2.1781 0.0000 -10596.8319 1372.8654 0.0000 0.0000 1753.1022 -7457.0452 300.4261 -9210.1474 -7483.3927 297.9804 -339.9725 -340.6943 30219.8339 -33.2140 37.1380
ENERGY: 900000 2.3865 7.4418 2.0878 0.0000 -10374.6467 1274.5000 0.0000 0.0000 1719.8353 -7368.3954 294.7252 -9088.2307 -7471.0833 297.5421 -1185.6538 -1183.7703 30792.3871 -109.8571 -49.0294
ENERGY: 1200000 0.9438 9.7401 3.9169 0.0000 -10669.3391 1461.5079 0.0000 0.0000 1706.8062 -7486.4242 292.4924 -9193.2304 -7477.4752 296.5639 318.4180 423.3686 30068.0161 -163.0831 -102.6054
ENERGY: 1500000 1.2233 8.0935 2.8609 0.0000 -10583.7777 1389.8803 0.0000 0.0000 1745.3481 -7436.3717 299.0973 -9181.7198 -7471.8772 297.6488 -270.9548 -193.8787 30455.3847 -179.2333 -119.5075
TCL: Running FEP window   7: Lambda1 0.6999999999999997 Lambda2 0.6499999999999997 [dLambda -0.050000000000000044]
TCL: Setting parameter firsttimestep to 0
TCL: Setting parameter alchLambda to 0.6999999999999997
Info: NONBONDED TABLE R-SQUARED SPACING: 0.0625
Info: NONBONDED TABLE SIZE: 705 POINTS
TCL: Setting parameter alchLambda2 to 0.6499999999999997
Info: NONBONDED TABLE R-SQUARED SPACING: 0.0625
Info: NONBONDED TABLE SIZE: 705 POINTS
TCL: Running for 1500000 steps
ETITLE: TS BOND ANGLE DIHED IMPRP ELECT VDW BOUNDARY MISC KINETIC TOTAL TEMP POTENTIAL TOTALAVG TEMPAVG PRESSURE GPRESSURE VOLUME PRESSAVG GPRESSAVG
ENERGY: 0 1.2233 8.0935 2.8609 0.0000 -10581.8711 1390.0255 0.0000 0.0000 1744.4966 -7435.1713 298.9513 -9179.6679 -7435.1713 298.9513 -295.1335 -196.5852 30455.3847 -295.1335 -196.5852
ENERGY: 300000 1.1245 9.6713 6.1924 0.0000 -10707.2605 1402.8274 0.0000 0.0000 1697.6051 -7589.8397 290.9156 -9287.4449 -7503.0858 299.8355 -635.3401 -498.0010 30041.4259 -498.9541 -390.4147
ENERGY: 600000 0.9588 9.5434 3.4730 0.0000 -10675.8848 1459.2680 0.0000 0.0000 1761.4226 -7441.2190 301.8519 -9202.6415 -7505.9034 299.6854 202.2174 360.7087 29979.5762 -163.8927 -60.6272
ENERGY: 900000 0.4434 4.5207 6.6528 0.0000 -10715.1053 1463.7885 0.0000 0.0000 1824.6080 -7415.0918 312.6799 -9239.6998 -7483.7936 301.2989 219.5623 313.8148 30123.9415 -134.4243 -40.9214
ENERGY: 1200000 3.2728 10.3066 7.5453 0.0000 -10787.7635 1467.8975 0.0000 0.0000 1661.1781 -7637.5631 284.6732 -9298.7412 -7487.8171 300.2634 264.3390 294.1128 29837.2426 -42.0402 41.4873
ENERGY: 1500000 1.3303 5.7164 6.9089 0.0000 -10766.7907 1448.9081 0.0000 0.0000 1716.9017 -7587.0254 294.2225 -9303.9271 -7483.8946 300.1874 58.6199 127.2017 29710.8425 -37.7297 41.0947
TCL: Running FEP window   8: Lambda1 0.6499999999999997 Lambda2 0.5999999999999996 [dLambda -0.050000000000000044]
TCL: Setting parameter firsttimestep to 0
TCL: Setting parameter alchLambda to 0.6499999999999997
Info: NONBONDED TABLE R-SQUARED SPACING: 0.0625
Info: NONBONDED TABLE SIZE: 705 POINTS
TCL: Setting parameter alchLambda2 to 0.5999999999999996
Info: NONBONDED TABLE R-SQUARED SPACING: 0.0625
Info: NONBONDED TABLE SIZE: 705 POINTS
TCL: Running for 1500000 steps
ETITLE: TS BOND ANGLE DIHED IMPRP ELECT VDW BOUNDARY MISC KINETIC TOTAL TEMP POTENTIAL TOTALAVG TEMPAVG PRESSURE GPRESSURE VOLUME PRESSAVG GPRESSAVG
ENERGY: 0 1.3303 5.7164 6.9089 0.0000 -10765.5456 1448.8861 0.0000 0.0000 1716.0358 -7586.6681 294.0741 -9302.7040 -7586.6681 294.0741 39.6769 121.4734 29710.8425 39.6769 121.4734
ENERGY: 300000 4.4585 5.3210 8.4408 0.0000 -10761.1302 1478.8299 0.0000 0.0000 1746.5850 -7517.4950 299.3092 -9264.0800 -7511.1623 296.4515 248.1232 301.8749 30106.2803 -224.1095 -164.6384
ENERGY: 600000 1.7257 5.9503 6.9750 0.0000 -10455.8866 1275.8676 0.0000 0.0000 1759.5455 -7405.8227 301.5302 -9165.3682 -7472.5202 299.0287 -1093.5977 -1074.7190 30321.9098 -404.1296 -343.9526
ENERGY: 900000 4.5040 14.1999 7.3410 0.0000 -10591.6713 1391.6856 0.0000 0.0000 1718.0519 -7455.8889 294.4196 -9173.9409 -7468.0654 299.0346 -59.5493 -24.9376 30159.6594 -226.7199 -163.3908
ENERGY: 1200000 0.8342 3.9642 7.9396 0.0000 -10813.3855 1497.6768 0.0000 0.0000 1725.5806 -7577.3901 295.7097 -9302.9707 -7486.1364 298.9320 587.3739 622.6151 29690.9740 -97.4893 -36.6908
ENERGY: 1500000 1.3989 5.5017 6.9677 0.0000 -10520.4837 1308.9585 0.0000 0.0000 1725.5562 -7472.1007 295.7056 -9197.6569 -7483.3255 299.3752 -1133.1111 -1082.8767 30530.9072 -137.9264 -80.0117
TCL: Running FEP window   9: Lambda1 0.5999999999999996 Lambda2 0.5499999999999996 [dLambda -0.050000000000000044]
TCL: Setting parameter firsttimestep to 0
TCL: Setting parameter alchLambda to 0.5999999999999996
Info: NONBONDED TABLE R-SQUARED SPACING: 0.0625
Info: NONBONDED TABLE SIZE: 705 POINTS
TCL: Setting parameter alchLambda2 to 0.5499999999999996
Info: NONBONDED TABLE R-SQUARED SPACING: 0.0625
Info: NONBONDED TABLE SIZE: 705 POINTS
TCL: Running for 1500000 steps
ETITLE: TS BOND ANGLE DIHED IMPRP ELECT VDW BOUNDARY MISC KINETIC TOTAL TEMP POTENTIAL TOTALAVG TEMPAVG PRESSURE GPRESSURE VOLUME PRESSAVG GPRESSAVG
ENERGY: 0 1.3989 5.5017 6.9677 0.0000 -10519.0726 1308.9141 0.0000 0.0000 1724.6516 -7471.6386 295.5505 -9196.2902 -7471.6386 295.5505 -1165.8600 -1087.9653 30530.9072 -1165.8600 -1087.9653
ENERGY: 300000 1.5468 10.5486 8.0533 0.0000 -10664.2036 1433.7241 0.0000 0.0000 1806.8614 -7403.4695 309.6387 -9210.3309 -7451.0696 302.0035 122.2018 147.1839 30085.9923 -5.6107 48.3566
ENERGY: 600000 1.6129 5.9653 6.1177 0.0000 -10782.9954 1506.5731 0.0000 0.0000 1781.1939 -7481.5325 305.2401 -9262.7264 -7461.4981 301.1113 309.0830 411.5853 30126.1611 46.7659 118.8426
ENERGY: 900000 2.2670 8.0833 5.9175 0.0000 -10797.3590 1545.7665 0.0000 0.0000 1735.6456 -7499.6791 297.4346 -9235.3247 -7482.0308 299.5550 1030.7014 1071.7400 29636.7513 88.8000 145.0811
ENERGY: 1200000 0.8813 8.7674 6.3782 0.0000 -10671.6574 1442.9914 0.0000 0.0000 1768.1771 -7444.4619 303.0094 -9212.6390 -7475.1649 299.7536 93.0841 183.6928 30150.2133 56.3692 119.5149
ENERGY: 1500000 1.6660 7.4926 6.0771 0.0000 -10772.7991 1456.4442 0.0000 0.0000 1781.4302 -7519.6889 305.2806 -9301.1191 -7487.4614 298.8614 128.8000 199.1000 29893.5378 79.3176 144.3188
TCL: Running FEP window  10: Lambda1 0.5499999999999996 Lambda2 0.4999999999999996 [dLambda -0.04999999999999999]
TCL: Setting parameter firsttimestep to 0
TCL: Setting parameter alchLambda to 0.5499999999999996
Info: NONBONDED TABLE R-SQUARED SPACING: 0.0625
Info: NONBONDED TABLE SIZE: 705 POINTS
TCL: Setting parameter alchLambda2 to 0.4999999999999996
Info: NONBONDED TABLE R-SQUARED SPACING: 0.0625
Info: NONBONDED TABLE SIZE: 705 POINTS
TCL: Running for 1500000 steps
ETITLE: TS BOND ANGLE DIHED IMPRP ELECT VDW BOUNDARY MISC KINETIC TOTAL TEMP POTENTIAL TOTALAVG TEMPAVG PRESSURE GPRESSURE VOLUME PRESSAVG GPRESSAVG
ENERGY: 0 1.6660 7.4927 6.0771 0.0000 -10772.3898 1456.3086 0.0000 0.0000 1780.5586 -7520.2870 305.1312 -9300.8455 -7520.2870 305.1312 104.9601 189.4338 29893.5378 104.9601 189.4338
ENERGY: 300000 1.1636 14.0617 6.7154 0.0000 -10695.1127 1406.3109 0.0000 0.0000 1692.3464 -7574.5147 290.0145 -9266.8611 -7478.7367 300.8789 -277.7238 -212.8741 29877.4022 249.2708 294.4488
ENERGY: 600000 0.9181 7.2131 5.9285 0.0000 -10562.6283 1371.9247 0.0000 0.0000 1724.7267 -7451.9173 295.5634 -9176.6440 -7446.6606 301.2785 -283.3809 -283.6613 30220.8329 135.0824 170.5168
ENERGY: 900000 2.6704 8.8588 6.9340 0.0000 -10692.7875 1455.9454 0.0000 0.0000 1800.9557 -7417.4231 308.6266 -9218.3788 -7441.7508 302.3237 5.5196 97.9597 30495.0218 127.1693 178.6837
ENERGY: 1200000 0.9193 6.5852 8.2405 0.0000 -10816.2542 1574.5051 0.0000 0.0000 1773.4825 -7452.5216 303.9186 -9226.0041 -7437.6665 302.9982 1281.1764 1306.7890 29731.7317 242.5479 294.2801
ENERGY: 1500000 0.4454 4.9619 6.6483 0.0000 -10813.3148 1540.2989 0.0000 0.0000 1710.8985 -7550.0618 293.1937 -9260.9602 -7445.0524 302.8822 804.6145 819.6311 29875.5753 346.1663 393.2832
TCL: Running FEP window  11: Lambda1 0.4999999999999996 Lambda2 0.4499999999999996 [dLambda -0.04999999999999999]
TCL: Setting parameter firsttimestep to 0
TCL: Setting parameter alchLambda to 0.4999999999999996
Info: NONBONDED TABLE R-SQUARED SPACING: 0.0625
Info: NONBONDED TABLE SIZE: 705 POINTS
TCL: Setting parameter alchLambda2 to 0.4499999999999996
Info: NONBONDED TABLE R-SQUARED SPACING: 0.0625
Info: NONBONDED TABLE SIZE: 705 POINTS
TCL: Running for 1500000 steps
ETITLE: TS BOND ANGLE DIHED IMPRP ELECT VDW BOUNDARY MISC KINETIC TOTAL TEMP POTENTIAL TOTALAVG TEMPAVG PRESSURE GPRESSURE VOLUME PRESSAVG GPRESSAVG
ENERGY: 0 0.4454 4.9619 6.6483 0.0000 -10813.0391 1540.1668 0.0000 0.0000 1710.0435 -7550.7731 293.0472 -9260.8166 -7550.7731 293.0472 746.5636 812.5497 29875.5753 746.5636 812.5497
ENERGY: 300000 1.3369 5.6116 7.9620 0.0000 -10835.8666 1540.9140 0.0000 0.0000 1798.2986 -7481.7435 308.1713 -9280.0421 -7459.9697 302.0200 898.8233 932.6516 29940.2299 331.0981 388.3099
ENERGY: 600000 0.8989 6.9131 7.6183 0.0000 -10797.8591 1481.6040 0.0000 0.0000 1690.2819 -7610.5430 289.6607 -9300.8248 -7507.8016 298.2559 -21.0599 109.6802 29952.0854 125.4975 187.4682
ENERGY: 900000 2.6960 10.5095 5.5708 0.0000 -10750.9226 1540.5620 0.0000 0.0000 1732.1944 -7459.3899 296.8431 -9191.5843 -7494.6752 298.3673 991.6639 1119.1474 29973.3695 314.3653 376.7913
ENERGY: 1200000 1.6880 10.5994 6.6089 0.0000 -10623.0437 1403.3082 0.0000 0.0000 1776.3952 -7424.4440 304.4177 -9200.8392 -7484.2825 299.5100 -53.3767 -53.5945 29744.3860 290.5815 348.5808
ENERGY: 1500000 2.6164 8.7219 7.7736 0.0000 -10546.0356 1378.7412 0.0000 0.0000 1730.9439 -7417.2386 296.6288 -9148.1825 -7474.0435 300.0081 -423.8194 -377.2481 30627.4924 203.6892 261.4711
TCL: Running FEP window  12: Lambda1 0.4499999999999996 Lambda2 0.39999999999999963 [dLambda -0.04999999999999999]
TCL: Setting parameter firsttimestep to 0
TCL: Setting parameter alchLambda to 0.4499999999999996
Info: NONBONDED TABLE R-SQUARED SPACING: 0.0625
Info: NONBONDED TABLE SIZE: 705 POINTS
TCL: Setting parameter alchLambda2 to 0.39999999999999963
Info: NONBONDED TABLE R-SQUARED SPACING: 0.0625
Info: NONBONDED TABLE SIZE: 705 POINTS
TCL: Running for 1500000 steps
ETITLE: TS BOND ANGLE DIHED IMPRP ELECT VDW BOUNDARY MISC KINETIC TOTAL TEMP POTENTIAL TOTALAVG TEMPAVG PRESSURE GPRESSURE VOLUME PRESSAVG GPRESSAVG
ENERGY: 0 2.6164 8.7219 7.7736 0.0000 -10546.0362 1379.1105 0.0000 0.0000 1730.0432 -7417.7706 296.4745 -9147.8138 -7417.7706 296.4745 -439.3351 -377.6769 30627.4924 -439.3351 -377.6769
ENERGY: 300000 2.6515 7.9310 7.1698 0.0000 -10650.9678 1412.3394 0.0000 0.0000 1763.1919 -7457.6841 302.1551 -9220.8761 -7461.4389 296.9100 -121.7560 -69.4951 30034.8001 -96.8075 -31.9081
ENERGY: 600000 0.9089 14.2037 6.7275 0.0000 -10592.0274 1379.9694 0.0000 0.0000 1792.1694 -7398.0485 307.1210 -9190.2179 -7455.0867 299.9576 -226.3686 -84.9507 29850.6606 -121.5447 -49.1336
ENERGY: 900000 1.8748 12.1293 6.4847 0.0000 -10677.7036 1388.2468 0.0000 0.0000 1798.8007 -7470.1673 308.2573 -9268.9680 -7446.6696 301.1298 -536.7079 -440.6992 30668.7372 -177.9361 -103.6462
ENERGY: 1200000 3.6621 10.6255 6.6746 0.0000 -10649.8259 1438.8764 0.0000 0.0000 1760.3788 -7429.6085 301.6731 -9189.9873 -7449.4910 299.9812 127.2217 197.1215 30199.1405 -130.4432 -54.9108
ENERGY: 1500000 0.7909 7.2665 7.9504 0.0000 -10680.5253 1398.2605 0.0000 0.0000 1765.6322 -7500.6247 302.5733 -9266.2570 -7448.4092 300.2011 -402.0987 -272.1364 30011.5623 -104.6321 -27.6673
TCL: Running FEP window  13: Lambda1 0.39999999999999963 Lambda2 0.34999999999999964 [dLambda -0.04999999999999999]
TCL: Setting parameter firsttimestep to 0
TCL: Setting parameter alchLambda to 0.39999999999999963
Info: NONBONDED TABLE R-SQUARED SPACING: 0.0625
Info: NONBONDED TABLE SIZE: 705 POINTS
TCL: Setting parameter alchLambda2 to 0.34999999999999964
Info: NONBONDED TABLE R-SQUARED SPACING: 0.0625
Info: NONBONDED TABLE SIZE: 705 POINTS
TCL: Running for 1500000 steps
ETITLE: TS BOND ANGLE DIHED IMPRP ELECT VDW BOUNDARY MISC KINETIC TOTAL TEMP POTENTIAL TOTALAVG TEMPAVG PRESSURE GPRESSURE VOLUME PRESSAVG GPRESSAVG
ENERGY: 0 0.7909 7.2665 7.9504 0.0000 -10680.5247 1398.3518 0.0000 0.0000 1764.7659 -7501.3992 302.4249 -9266.1650 -7501.3992 302.4249 -370.8397 -276.1895 30011.5623 -370.8397 -276.1895
ENERGY: 300000 2.2842 8.1110 6.8932 0.0000 -10636.9718 1381.4841 0.0000 0.0000 1774.2544 -7463.9447 304.0509 -9238.1992 -7471.9003 298.6579 -575.5460 -513.2480 30215.8712 -71.5746 -1.6222
ENERGY: 600000 2.1911 4.7108 5.7016 0.0000 -10681.8027 1431.4756 0.0000 0.0000 1759.3238 -7478.3998 301.4923 -9237.7236 -7463.9909 299.0133 -230.8764 -207.2805 30425.3720 -70.4310 -1.3601
ENERGY: 900000 0.4517 8.5454 7.9278 0.0000 -10546.0477 1384.3060 0.0000 0.0000 1749.0982 -7395.7187 299.7399 -9144.8168 -7460.8765 300.0066 -284.5892 -282.2230 30413.3915 -44.9686 8.8047
ENERGY: 1200000 1.9112 9.3989 6.4432 0.0000 -10452.8214 1311.5561 0.0000 0.0000 1773.1608 -7350.3512 303.8635 -9123.5120 -7450.0802 300.7782 -865.4320 -769.8725 30461.2535 -96.2808 -36.8586
ENERGY: 1500000 2.2881 6.7000 7.6115 0.0000 -10582.1637 1366.0832 0.0000 0.0000 1757.0357 -7442.4453 301.1001 -9199.4810 -7459.0173 301.1486 -509.5392 -482.9155 30051.7434 -103.9425 -44.9966
TCL: Running FEP window  14: Lambda1 0.34999999999999964 Lambda2 0.29999999999999966 [dLambda -0.04999999999999999]
TCL: Setting parameter firsttimestep to 0
TCL: Setting parameter alchLambda to 0.34999999999999964
Info: NONBONDED TABLE R-SQUARED SPACING: 0.0625
Info: NONBONDED TABLE SIZE: 705 POINTS
TCL: Setting parameter alchLambda2 to 0.29999999999999966
Info: NONBONDED TABLE R-SQUARED SPACING: 0.0625
Info: NONBONDED TABLE SIZE: 705 POINTS
TCL: Running for 1500000 steps
ETITLE: TS BOND ANGLE DIHED IMPRP ELECT VDW BOUNDARY MISC KINETIC TOTAL TEMP POTENTIAL TOTALAVG TEMPAVG PRESSURE GPRESSURE VOLUME PRESSAVG GPRESSAVG
ENERGY: 0 2.2881 6.7000 7.6115 0.0000 -10582.1640 1366.3814 0.0000 0.0000 1756.1800 -7443.0030 300.9535 -9199.1831 -7443.0030 300.9535 -570.1240 -484.5818 30051.7434 -570.1240 -484.5818
ENERGY: 300000 1.1479 12.2860 7.3640 0.0000 -10508.3847 1358.3153 0.0000 0.0000 1777.7500 -7351.5214 304.6499 -9129.2715 -7418.7084 301.4313 -475.5193 -398.4935 30655.6291 -194.2248 -124.9568
ENERGY: 600000 2.5871 13.2814 6.6563 0.0000 -10755.7086 1401.5869 0.0000 0.0000 1797.5949 -7534.0019 308.0507 -9331.5968 -7450.2102 300.8889 -508.4188 -440.4271 30061.5444 -214.8280 -144.8048
ENERGY: 900000 3.3763 8.3127 6.8701 0.0000 -10642.4015 1448.0897 0.0000 0.0000 1738.4166 -7437.3362 297.9094 -9175.7528 -7448.8121 300.1306 491.8962 561.6194 29764.9621 -239.1603 -167.7396
ENERGY: 1200000 2.1017 9.0360 7.2195 0.0000 -10760.1538 1500.2947 0.0000 0.0000 1749.3041 -7492.1978 299.7752 -9241.5019 -7447.1559 300.6203 468.9998 559.2521 30018.7944 -133.0178 -64.2262
ENERGY: 1500000 1.6765 10.1290 9.6547 0.0000 -10715.6091 1488.0821 0.0000 0.0000 1729.1104 -7476.9563 296.3146 -9206.0667 -7452.7886 299.6584 344.6214 367.1507 29933.5405 -13.4549 49.0050
TCL: Running FEP window  15: Lambda1 0.29999999999999966 Lambda2 0.24999999999999967 [dLambda -0.04999999999999999]
TCL: Setting parameter firsttimestep to 0
TCL: Setting parameter alchLambda to 0.29999999999999966
Info: NONBONDED TABLE R-SQUARED SPACING: 0.0625
Info: NONBONDED TABLE SIZE: 705 POINTS
TCL: Setting parameter alchLambda2 to 0.24999999999999967
Info: NONBONDED TABLE R-SQUARED SPACING: 0.0625
Info: NONBONDED TABLE SIZE: 705 POINTS
TCL: Running for 1500000 steps
ETITLE: TS BOND ANGLE DIHED IMPRP ELECT VDW BOUNDARY MISC KINETIC TOTAL TEMP POTENTIAL TOTALAVG TEMPAVG PRESSURE GPRESSURE VOLUME PRESSAVG GPRESSAVG
ENERGY: 0 1.6765 10.1290 9.6547 0.0000 -10715.6088 1488.0060 0.0000 0.0000 1728.1946 -7477.9479 296.1577 -9206.1425 -7477.9479 296.1577 273.1304 360.1060 29933.5405 273.1304 360.1060
ENERGY: 300000 3.9909 5.1922 7.7758 0.0000 -10662.8361 1462.8193 0.0000 0.0000 1810.5539 -7372.5040 310.2715 -9183.0579 -7442.9376 299.8568 582.4645 662.5144 29940.2083 22.4614 107.6213
ENERGY: 600000 0.9005 9.5960 6.3399 0.0000 -10635.1808 1455.9341 0.0000 0.0000 1763.8121 -7398.5981 302.2614 -9162.4102 -7429.1710 301.0820 65.9205 126.8003 30446.1458 37.5522 118.8321
ENERGY: 900000 0.7400 7.1400 6.7965 0.0000 -10669.2068 1397.0166 0.0000 0.0000 1780.1602 -7477.3536 305.0630 -9257.5138 -7439.4187 301.5992 -645.1784 -558.6411 30402.0707 103.2089 174.8803
ENERGY: 1200000 2.6616 8.7411 6.9453 0.0000 -10592.6609 1399.5144 0.0000 0.0000 1776.3175 -7398.4810 304.4044 -9174.7985 -7439.3550 301.8321 -187.9722 -111.6731 30119.3657 55.2951 133.7280
ENERGY: 1500000 1.9235 7.5767 6.7973 0.0000 -10610.1713 1404.9111 0.0000 0.0000 1800.1302 -7388.8325 308.4852 -9188.9627 -7437.2075 301.8978 -20.9716 37.6369 30252.5469 90.8916 160.7564
TCL: Running FEP window  16: Lambda1 0.24999999999999967 Lambda2 0.19999999999999968 [dLambda -0.04999999999999999]
TCL: Setting parameter firsttimestep to 0
TCL: Setting parameter alchLambda to 0.24999999999999967
Info: NONBONDED TABLE R-SQUARED SPACING: 0.0625
Info: NONBONDED TABLE SIZE: 705 POINTS
TCL: Setting parameter alchLambda2 to 0.19999999999999968
Info: NONBONDED TABLE R-SQUARED SPACING: 0.0625
Info: NONBONDED TABLE SIZE: 705 POINTS
TCL: Running for 1500000 steps
ETITLE: TS BOND ANGLE DIHED IMPRP ELECT VDW BOUNDARY MISC KINETIC TOTAL TEMP POTENTIAL TOTALAVG TEMPAVG PRESSURE GPRESSURE VOLUME PRESSAVG GPRESSAVG
ENERGY: 0 1.9235 7.5767 6.7973 0.0000 -10610.1708 1405.2762 0.0000 0.0000 1799.2887 -7389.3084 308.3410 -9188.5971 -7389.3084 308.3410 -44.4119 35.6402 30252.5469 -44.4119 35.6402
ENERGY: 300000 0.5835 6.4952 6.1723 0.0000 -10636.6421 1405.7975 0.0000 0.0000 1793.5841 -7424.0095 307.3634 -9217.5937 -7419.1617 304.4521 -288.0247 -243.3006 30310.0893 106.8609 150.4006
ENERGY: 600000 1.3388 11.8217 6.9755 0.0000 -10736.4632 1484.9525 0.0000 0.0000 1774.9616 -7456.4130 304.1721 -9231.3746 -7469.3481 300.6619 538.0030 591.5299 29841.4485 84.6129 143.7052
ENERGY: 900000 1.1265 10.4122 6.3875 0.0000 -10662.5759 1444.4933 0.0000 0.0000 1711.2900 -7488.8664 293.2608 -9200.1564 -7481.7875 298.9681 146.8657 137.3907 30101.4299 1.8383 49.4274
ENERGY: 1200000 1.8475 7.8948 6.7720 0.0000 -10704.0212 1452.3251 0.0000 0.0000 1728.3393 -7506.8426 296.1825 -9235.1819 -7482.2195 298.1109 211.4788 278.7917 29729.9471 11.7279 67.9168
ENERGY: 1500000 7.0283 14.5602 6.3494 0.0000 -10747.4833 1430.2881 0.0000 0.0000 1721.9712 -7567.2859 295.0912 -9289.2571 -7490.0021 297.8764 -472.5060 -337.8655 29993.2817 -25.8210 35.4892
TCL: Running FEP window  17: Lambda1 0.19999999999999968 Lambda2 0.1499999999999997 [dLambda -0.04999999999999999]
TCL: Setting parameter firsttimestep to 0
TCL: Setting parameter alchLambda to 0.19999999999999968
Info: NONBONDED TABLE R-SQUARED SPACING: 0.0625
Info: NONBONDED TABLE SIZE: 705 POINTS
TCL: Setting parameter alchLambda2 to 0.1499999999999997
Info: NONBONDED TABLE R-SQUARED SPACING: 0.0625
Info: NONBONDED TABLE SIZE: 705 POINTS
TCL: Running for 1500000 steps
ETITLE: TS BOND ANGLE DIHED IMPRP ELECT VDW BOUNDARY MISC KINETIC TOTAL TEMP POTENTIAL TOTALAVG TEMPAVG PRESSURE GPRESSURE VOLUME PRESSAVG GPRESSAVG
ENERGY: 0 7.0283 14.5602 6.3494 0.0000 -10747.4822 1430.7290 0.0000 0.0000 1721.0890 -7567.7262 294.9400 -9288.8152 -7567.7262 294.9400 -431.5121 -340.0602 29993.2817 -431.5121 -340.0602
ENERGY: 300000 1.6401 6.8866 7.0723 0.0000 -10541.3284 1375.4237 0.0000 0.0000 1752.1711 -7398.1345 300.2665 -9150.3056 -7409.3635 302.8164 -580.1348 -506.2911 30551.7890 -97.8806 -17.9284
ENERGY: 600000 2.0068 7.8403 7.9744 0.0000 -10593.9000 1428.1433 0.0000 0.0000 1702.0079 -7445.9271 291.6701 -9147.9351 -7421.1559 301.0406 -322.4611 -264.6621 31088.8959 -38.4825 32.6275
ENERGY: 900000 1.9159 8.5131 6.1316 0.0000 -10543.5098 1356.4779 0.0000 0.0000 1723.8691 -7446.6021 295.4164 -9170.4712 -7426.2586 300.8665 -471.1377 -446.8093 30134.6859 -109.2523 -46.9939
ENERGY: 1200000 2.1932 10.0585 7.0111 0.0000 -10575.1566 1365.6536 0.0000 0.0000 1790.9679 -7399.2722 306.9151 -9190.2402 -7427.3901 301.5800 -229.0750 -158.7347 30040.8395 -10.7212 52.3186
ENERGY: 1500000 1.0482 15.8286 7.5484 0.0000 -10645.1104 1420.3825 0.0000 0.0000 1711.6286 -7488.6742 293.3188 -9200.3028 -7434.0844 301.0495 -213.5154 -224.4303 30413.8897 -34.1143 22.5214
TCL: Running FEP window  18: Lambda1 0.1499999999999997 Lambda2 0.09999999999999969 [dLambda -0.05 ]
TCL: Setting parameter firsttimestep to 0
TCL: Setting parameter alchLambda to 0.1499999999999997
Info: NONBONDED TABLE R-SQUARED SPACING: 0.0625
Info: NONBONDED TABLE SIZE: 705 POINTS
TCL: Setting parameter alchLambda2 to 0.09999999999999969
Info: NONBONDED TABLE R-SQUARED SPACING: 0.0625
Info: NONBONDED TABLE SIZE: 705 POINTS
TCL: Running for 1500000 steps
ETITLE: TS BOND ANGLE DIHED IMPRP ELECT VDW BOUNDARY MISC KINETIC TOTAL TEMP POTENTIAL TOTALAVG TEMPAVG PRESSURE GPRESSURE VOLUME PRESSAVG GPRESSAVG
ENERGY: 0 1.0482 15.8286 7.5484 0.0000 -10645.1103 1420.0208 0.0000 0.0000 1710.7806 -7489.8838 293.1735 -9200.6644 -7489.8838 293.1735 -314.1545 -232.0130 30413.8897 -314.1545 -232.0130
ENERGY: 300000 3.0219 6.2607 5.9547 0.0000 -10759.5701 1484.7707 0.0000 0.0000 1774.7216 -7484.8405 304.1310 -9259.5621 -7489.7979 296.7786 388.7096 370.8837 29938.3493 24.1077 68.0494
ENERGY: 600000 0.6912 8.4961 6.5895 0.0000 -10698.3318 1509.3130 0.0000 0.0000 1767.3401 -7405.9018 302.8660 -9173.2419 -7459.1854 298.5182 857.4253 979.6045 29701.2866 -65.5630 -9.3302
ENERGY: 900000 2.8587 7.5911 7.4016 0.0000 -10605.9478 1416.1540 0.0000 0.0000 1784.3268 -7387.6156 305.7770 -9171.9425 -7453.1506 299.5383 46.5507 124.7501 30067.0387 -154.0316 -92.7644
ENERGY: 1200000 2.6987 8.5427 7.9658 0.0000 -10607.6142 1402.4694 0.0000 0.0000 1807.8803 -7378.0573 309.8133 -9185.9376 -7445.7606 300.0856 -365.2072 -296.3682 30353.0595 -86.9489 -27.6416
ENERGY: 1500000 2.7812 7.7561 7.2615 0.0000 -10731.1716 1494.5313 0.0000 0.0000 1772.8485 -7445.9930 303.8100 -9218.8415 -7451.9433 299.8455 567.4608 640.7103 29640.0978 -47.2590 12.3862
TCL: Running FEP window  19: Lambda1 0.09999999999999969 Lambda2 0.049999999999999684 [dLambda -0.05 ]
TCL: Setting parameter firsttimestep to 0
TCL: Setting parameter alchLambda to 0.09999999999999969
Info: NONBONDED TABLE R-SQUARED SPACING: 0.0625
Info: NONBONDED TABLE SIZE: 705 POINTS
TCL: Setting parameter alchLambda2 to 0.049999999999999684
Info: NONBONDED TABLE R-SQUARED SPACING: 0.0625
Info: NONBONDED TABLE SIZE: 705 POINTS
TCL: Running for 1500000 steps
ETITLE: TS BOND ANGLE DIHED IMPRP ELECT VDW BOUNDARY MISC KINETIC TOTAL TEMP POTENTIAL TOTALAVG TEMPAVG PRESSURE GPRESSURE VOLUME PRESSAVG GPRESSAVG
ENERGY: 0 2.7812 7.7561 7.2615 0.0000 -10731.1705 1494.4859 0.0000 0.0000 1771.9858 -7446.9001 303.6621 -9218.8858 -7446.9001 303.6621 548.2550 637.2809 29640.0978 548.2550 637.2809
ENERGY: 300000 1.6870 8.3784 7.4471 0.0000 -10664.8724 1409.1939 0.0000 0.0000 1691.4835 -7546.6825 289.8666 -9238.1660 -7481.5270 297.6190 -390.7837 -339.1161 30238.8074 -192.3214 -116.6767
ENERGY: 600000 0.6651 6.9793 5.7856 0.0000 -10575.6800 1442.9984 0.0000 0.0000 1730.4806 -7388.7709 296.5494 -9119.2515 -7453.9687 299.0422 226.3461 289.7058 30049.0834 -199.6428 -113.3999
ENERGY: 900000 2.4013 7.8325 6.5115 0.0000 -10637.0073 1469.9645 0.0000 0.0000 1786.1953 -7364.1022 306.0972 -9150.2975 -7447.2670 300.1454 391.7754 436.8496 30263.7150 -35.7297 55.9053
ENERGY: 1200000 0.2697 8.3363 8.5693 0.0000 -10666.7800 1456.3201 0.0000 0.0000 1775.3444 -7417.9403 304.2377 -9193.2847 -7452.1651 299.7900 290.1135 328.1868 30143.6356 61.6688 145.0261
ENERGY: 1500000 2.3414 10.6955 6.7246 0.0000 -10719.0839 1486.9573 0.0000 0.0000 1766.5189 -7445.8462 302.7253 -9212.3651 -7447.4788 300.4327 685.1947 677.2630 29942.5667 28.2893 103.4528
TCL: Running FEP window  20: Lambda1 0.049999999999999684 Lambda2 0.0    [dLambda -0.049999999999999684]
TCL: Setting parameter firsttimestep to 0
TCL: Setting parameter alchLambda to 0.049999999999999684
Info: NONBONDED TABLE R-SQUARED SPACING: 0.0625
Info: NONBONDED TABLE SIZE: 705 POINTS
TCL: Setting parameter alchLambda2 to 0.0
Info: NONBONDED TABLE R-SQUARED SPACING: 0.0625
Info: NONBONDED TABLE SIZE: 705 POINTS
TCL: Running for 1500000 steps
ETITLE: TS BOND ANGLE DIHED IMPRP ELECT VDW BOUNDARY MISC KINETIC TOTAL TEMP POTENTIAL TOTALAVG TEMPAVG PRESSURE GPRESSURE VOLUME PRESSAVG GPRESSAVG
ENERGY: 0 2.3414 10.6955 6.7246 0.0000 -10719.0852 1487.1510 0.0000 0.0000 1765.6577 -7446.5150 302.5777 -9212.1726 -7446.5150 302.5777 577.4713 678.4329 29942.5667 577.4713 678.4329
ENERGY: 300000 2.2995 8.6845 6.9483 0.0000 -10716.8727 1425.6305 0.0000 0.0000 1757.8214 -7515.4886 301.2348 -9273.3100 -7485.8149 301.4686 -229.6212 -167.2558 29903.9038 205.3366 283.0550
ENERGY: 600000 0.6366 6.3620 6.9175 0.0000 -10602.8547 1398.5580 0.0000 0.0000 1743.8655 -7446.5152 298.8432 -9190.3807 -7490.1858 299.5960 -366.5721 -292.4333 30474.0135 95.0224 169.9042
ENERGY: 900000 1.0899 3.8203 5.8122 0.0000 -10625.8083 1442.8975 0.0000 0.0000 1707.8989 -7464.2894 292.6797 -9172.1884 -7477.2663 300.6114 300.7266 328.1799 29956.9755 112.0624 179.9951
ENERGY: 1200000 1.1152 10.0550 9.3108 0.0000 -10808.0986 1553.0234 0.0000 0.0000 1707.7997 -7526.7945 292.6627 -9234.5942 -7468.6155 299.2418 952.3514 978.6731 29963.1195 126.6271 193.1531
ENERGY: 1500000 2.0713 10.6072 5.5468 0.0000 -10641.8091 1427.7866 0.0000 0.0000 1750.4133 -7445.3840 299.9653 -9195.7973 -7470.1934 299.5120 -16.9711 72.6528 30223.8866 129.0817 190.9534
TCL: Exiting due to exit command.
