Info: SIMULATION PARAMETERS:
Info: TIMESTEP               2
Info: NUMBER OF STEPS        0
Info: STEPS PER CYCLE        10
Info: PERIODIC CELL BASIS 1  30.3938 0 0
Info: PERIODIC CELL BASIS 2  0 29.1987 0
Info: PERIODIC CELL BASIS 3  0 0 34.1007
Info: PERIODIC CELL CENTER   0 0 0
Info: WRAPPING WATERS AROUND PERIODIC BOUNDARIES ON OUTPUT.
Info: WRAPPING ALL CLUSTERS AROUND PERIODIC BOUNDARIES ON OUTPUT.
Info: FIRST LDB TIMESTEP     50
Info: LAST LDB TIMESTEP     -1
Info: HOM BACKGROUND SCALING 1
Info: PME BACKGROUND SCALING 1
Info: MIN ATOMS PER PATCH    40
Info: EMPTY PATCH LOAD       40 ATOMS
Info: VELOCITY FILE          mobley_4218209_equil.vel
Info: CENTER OF MASS MOVING INITIALLY? NO
Info: DIELECTRIC             1
Info: EXCLUDE                SCALED ONE-FOUR
Info: 1-4 ELECTROSTATICS SCALED BY 0.833333
Info: MODIFIED 1-4 VDW PARAMETERS WILL BE USED
Info: DCD FILENAME           mobley_4218209_prod.dcd
Info: DCD FREQUENCY          100000
Info: DCD FIRST STEP         100000
Info: DCD FILE WILL CONTAIN UNIT CELL DATA
Info: XST FILENAME           mobley_4218209_prod.xst
Info: XST FREQUENCY          100000
Info: NO VELOCITY DCD OUTPUT
Info: NO FORCE DCD OUTPUT
Info: OUTPUT FILENAME        mobley_4218209_prod
Info: BINARY OUTPUT FILES WILL BE USED
Info: RESTART FILENAME       mobley_4218209_prod.restart
Info: RESTART FREQUENCY      100000
Info: BINARY RESTART FILES WILL BE USED
Info: CUTOFF                 9
Info: PAIRLIST DISTANCE      11
Info: PAIRLIST SHRINK RATE   0.01
Info: PAIRLIST GROW RATE     0.01
Info: PAIRLIST TRIGGER       0.3
Info: PAIRLISTS PER CYCLE    2
Info: PAIRLISTS ENABLED
Info: MARGIN                 2
Info: HYDROGEN GROUP CUTOFF  2.5
Info: PATCH DIMENSION        15.5
Info: ENERGY OUTPUT STEPS    100000
Info: ENERGY EVALUATION STEPS    100000
Info: OUTPUT ENERGY PRECISION 4
Info: CROSSTERM ENERGY INCLUDED IN DIHEDRAL
Info: TIMING OUTPUT STEPS    1000000
Info: PRESSURE OUTPUT STEPS  100000
Info: ALCHEMICAL FEP ON
Info: FEP CURRENT LAMBDA VALUE     1
Info: FEP COMPARISON LAMBDA VALUE  0.95
Info: FEP INTRA-ALCHEMICAL NON-BONDED INTERACTIONS WILL BE RETAINED
Info: FEP INTRA-ALCHEMICAL BONDED INTERACTIONS WILL BE RETAINED
Info: FEP VDW SHIFTING COEFFICIENT 5
Info: FEP ELEC. ACTIVE FOR ANNIHILATED PARTICLES BETWEEN LAMBDA = 0 AND LAMBDA = 0.5
Info: FEP ELEC. ACTIVE FOR EXNIHILATED PARTICLES BETWEEN LAMBDA = 0.5 AND LAMBDA = 1
Info: FEP VDW ACTIVE FOR ANNIHILATED PARTICLES BETWEEN LAMBDA = 0 AND LAMBDA = 1
Info: FEP VDW ACTIVE FOR EXNIHILATED PARTICLES BETWEEN LAMBDA = 0 AND LAMBDA = 1
Info: FEP BOND ACTIVE FOR ANNIHILATED PARTICLES BETWEEN LAMBDA = 1 AND LAMBDA = 1
Info: FEP BOND ACTIVE FOR EXNIHILATED PARTICLES BETWEEN LAMBDA = 0 AND LAMBDA = 0
Info: LANGEVIN DYNAMICS ACTIVE
Info: LANGEVIN TEMPERATURE   300
Info: LANGEVIN USING BBK INTEGRATOR
Info: LANGEVIN DAMPING COEFFICIENT IS 1 INVERSE PS
Info: LANGEVIN DYNAMICS APPLIED TO HYDROGENS
Info: LANGEVIN PISTON PRESSURE CONTROL ACTIVE
Info:        TARGET PRESSURE IS 1.01325 BAR
Info:     OSCILLATION PERIOD IS 50 FS
Info:             DECAY TIME IS 25 FS
Info:     PISTON TEMPERATURE IS 300 K
Info:       PRESSURE CONTROL IS GROUP-BASED
Info:    INITIAL STRAIN RATE IS 5.89044e-05 5.89044e-05 5.89044e-05
Info:       CELL FLUCTUATION IS ISOTROPIC
Info: PARTICLE MESH EWALD (PME) ACTIVE
Info: PME TOLERANCE               1e-06
Info: PME EWALD COEFFICIENT       0.348832
Info: PME INTERPOLATION ORDER     4
Info: PME GRID DIMENSIONS         32 32 36
Info: PME MAXIMUM GRID SPACING    1
Info: PME CALCULATION WILL BE PERFORMED ON GPU
Info: FULL ELECTROSTATIC EVALUATION FREQUENCY      2
Info: USING VERLET I (r-RESPA) MTS SCHEME.
Info: C1 SPLITTING OF LONG RANGE ELECTROSTATICS
Info: PLACING ATOMS IN PATCHES BY HYDROGEN GROUPS
Info: RIGID BONDS TO HYDROGEN : ALL
Info:         ERROR TOLERANCE : 1e-08
Info:          MAX ITERATIONS : 100
Info: RIGID WATER USING SETTLE ALGORITHM
Info: RANDOM NUMBER SEED     1743776476
Info: USE HYDROGEN BONDS?    NO
Info: Using AMBER format force field!
Info: AMBER PARM FILE        mobley_4218209.prmtop
Info: COORDINATE PDB         mobley_4218209.pdb
Info: Exclusions will be read from PARM file!
Info: SCNB (VDW SCALING)     2
Info: USING ARITHMETIC MEAN TO COMBINE L-J SIGMA PARAMETERS
Info: BINARY COORDINATES     mobley_4218209_equil.coor
Info: SUMMARY OF PARAMETERS:
Info: 9 BONDS
Info: 9 ANGLES
Info:   9 HARMONIC
Info:   0 COSINE-BASED
Info: 5 DIHEDRAL
Info: 0 IMPROPER
Info: 0 CROSSTERM
Info: 0 VDW
Info: 45 VDW_PAIRS
Info: 0 NBTHOLE_PAIRS
Info: To read alchdata from file: mobley_4218209.pdb
Info: To read alchflag data from column: 5
Info: STRUCTURE SUMMARY:
Info: 2919 ATOMS
Info: 2919 BONDS
Info: 28 ANGLES
Info: 40 DIHEDRALS
Info: 0 IMPROPERS
Info: 0 CROSSTERMS
Info: 2977 EXCLUSIONS
Info: 2910 RIGID BONDS
Info: ALCH: 0 ATOMS TO DISAPPEAR IN FINAL STATE
Info: ALCH: 18 ATOMS TO APPEAR IN FINAL STATE
Info: 5847 DEGREES OF FREEDOM
Info: 976 HYDROGEN GROUPS
Info: 4 ATOMS IN LARGEST HYDROGEN GROUP
Info: 976 MIGRATION GROUPS
Info: 4 ATOMS IN LARGEST MIGRATION GROUP
Info: TOTAL MASS = 17544.6 amu
Info: TOTAL CHARGE = 9.99868e-05 e
Info: MASS DENSITY = 0.962702 g/cm^3
Info: ATOM DENSITY = 0.0964546 atoms/A^3
Info: ADDED 0 IMPLICIT EXCLUSIONS
Info: NONBONDED TABLE R-SQUARED SPACING: 0.0625
Info: NONBONDED TABLE SIZE: 705 POINTS
Info: REMOVING COM VELOCITY -0.0901372 -0.047355 -0.0210096
Info: Use 3D box decompostion in PME FFT.
Info: Updated CUDA force table with 4096 elements.
Info: Updated CUDA LJ table with 9 x 9 elements.
Info: Found 20 unique exclusion lists needing 48 bytes
TCL: Running for 1500000 steps
ETITLE: TS BOND ANGLE DIHED IMPRP ELECT VDW BOUNDARY MISC KINETIC TOTAL TEMP POTENTIAL TOTALAVG TEMPAVG PRESSURE GPRESSURE VOLUME PRESSAVG GPRESSAVG
ENERGY: 0 5.8341 4.1292 5.3542 0.0000 -10617.1918 1384.5341 0.0000 0.0000 1697.8874 -7519.4528 292.2578 -9217.3402 -7519.4528 292.2578 -537.7783 -448.4175 30262.9484 -537.7783 -448.4175
ENERGY: 300000 4.3728 10.2797 4.8369 0.0000 -10633.1663 1458.1414 0.0000 0.0000 1729.9528 -7425.5826 297.7773 -9155.5354 -7489.5143 294.9997 351.3551 386.8136 29780.1821 -306.9491 -270.5435
ENERGY: 600000 0.7755 4.1568 7.8770 0.0000 -10501.7666 1381.2106 0.0000 0.0000 1763.2981 -7344.4485 303.5170 -9107.7467 -7458.0491 297.9030 -227.0400 -153.1309 30238.4563 -311.3903 -264.2156
ENERGY: 900000 2.4132 11.2785 3.0645 0.0000 -10655.8370 1482.2610 0.0000 0.0000 1736.0398 -7420.7800 298.8250 -9156.8198 -7459.5714 296.8852 209.5534 309.7001 30453.8501 -269.6916 -209.7545
ENERGY: 1200000 4.5496 3.0982 1.3422 0.0000 -10600.6804 1437.8400 0.0000 0.0000 1716.4575 -7437.3928 295.4543 -9153.8503 -7453.8903 297.1410 250.9840 288.2185 30141.9012 -145.5754 -83.3612
ENERGY: 1500000 3.1457 6.0688 8.0139 0.0000 -10716.7796 1487.6232 0.0000 0.0000 1697.1623 -7514.7659 292.1330 -9211.9282 -7455.0991 297.1625 909.9023 980.0708 29299.7043 -16.2021 41.5936
TCL: Running FEP window   2: Lambda1 0.95   Lambda2 0.8999999999999999 [dLambda -0.050000000000000044]
TCL: Setting parameter firsttimestep to 0
TCL: Setting parameter alchLambda to 0.95
Info: NONBONDED TABLE R-SQUARED SPACING: 0.0625
Info: NONBONDED TABLE SIZE: 705 POINTS
TCL: Setting parameter alchLambda2 to 0.8999999999999999
Info: NONBONDED TABLE R-SQUARED SPACING: 0.0625
Info: NONBONDED TABLE SIZE: 705 POINTS
TCL: Running for 1500000 steps
ETITLE: TS BOND ANGLE DIHED IMPRP ELECT VDW BOUNDARY MISC KINETIC TOTAL TEMP POTENTIAL TOTALAVG TEMPAVG PRESSURE GPRESSURE VOLUME PRESSAVG GPRESSAVG
ENERGY: 0 3.1457 6.0688 8.0139 0.0000 -10714.9355 1486.6963 0.0000 0.0000 1696.2860 -7514.7249 291.9822 -9211.0109 -7514.7249 291.9822 877.7533 952.1325 29299.7043 877.7533 952.1325
ENERGY: 300000 3.0311 4.7292 3.2053 0.0000 -10512.7685 1366.4844 0.0000 0.0000 1744.1870 -7391.1315 300.2274 -9135.3186 -7436.8284 298.0523 -281.5057 -207.0767 30098.2544 -3.8389 66.5730
ENERGY: 600000 1.5866 7.2305 6.6830 0.0000 -10685.6178 1502.4491 0.0000 0.0000 1726.1341 -7441.5345 297.1200 -9167.6686 -7436.4338 298.9765 843.0661 902.0301 29570.2135 -92.7465 -29.0029
ENERGY: 900000 2.3291 5.0757 4.8346 0.0000 -10678.3347 1468.6343 0.0000 0.0000 1730.2742 -7467.1867 297.8326 -9197.4609 -7435.7799 299.3342 327.5005 393.1111 30126.4341 -92.7251 -23.3687
ENERGY: 1200000 5.4715 3.7294 5.5972 0.0000 -10745.3748 1527.8595 0.0000 0.0000 1699.0477 -7503.6694 292.4576 -9202.7171 -7433.1899 299.1207 888.6202 938.2030 29701.6243 -25.2474 31.6387
ENERGY: 1500000 3.4642 7.2510 3.2946 0.0000 -10667.3998 1505.5422 0.0000 0.0000 1697.1753 -7450.6723 292.1353 -9147.8477 -7438.5798 297.9955 760.5790 827.3651 29797.0761 -13.3636 46.5589
TCL: Running FEP window   3: Lambda1 0.8999999999999999 Lambda2 0.8499999999999999 [dLambda -0.050000000000000044]
TCL: Setting parameter firsttimestep to 0
TCL: Setting parameter alchLambda to 0.8999999999999999
Info: NONBONDED TABLE R-SQUARED SPACING: 0.0625
Info: NONBONDED TABLE SIZE: 705 POINTS
TCL: Setting parameter alchLambda2 to 0.8499999999999999
Info: NONBONDED TABLE R-SQUARED SPACING: 0.0625
Info: NONBONDED TABLE SIZE: 705 POINTS
TCL: Running for 1500000 steps
ETITLE: TS BOND ANGLE DIHED IMPRP ELECT VDW BOUNDARY MISC KINETIC TOTAL TEMP POTENTIAL TOTALAVG TEMPAVG PRESSURE GPRESSURE VOLUME PRESSAVG GPRESSAVG
ENERGY: 0 3.4642 7.2511 3.2946 0.0000 -10665.5108 1505.5113 0.0000 0.0000 1696.3428 -7449.6468 291.9920 -9145.9897 -7449.6468 291.9920 742.3362 820.6372 29797.0761 742.3362 820.6372
ENERGY: 300000 2.3648 6.3999 6.8450 0.0000 -10530.0929 1391.5394 0.0000 0.0000 1725.9249 -7397.0189 297.0839 -9122.9438 -7406.9427 295.0857 227.0459 237.3091 29485.7306 231.5947 261.0886
ENERGY: 600000 2.4582 8.8669 8.2048 0.0000 -10489.9327 1348.3950 0.0000 0.0000 1738.9051 -7383.1027 299.3182 -9122.0078 -7398.6301 298.4990 -717.5566 -623.7278 30432.2114 16.9188 72.0425
ENERGY: 900000 2.1881 6.6368 5.1211 0.0000 -10618.5465 1422.7746 0.0000 0.0000 1732.6583 -7449.1676 298.2430 -9181.8259 -7405.9209 299.0225 85.6824 120.8383 29923.9191 14.8346 65.5546
ENERGY: 1200000 2.5951 4.7801 7.4052 0.0000 -10642.7232 1486.4228 0.0000 0.0000 1749.7354 -7391.7847 301.1825 -9141.5201 -7412.6442 300.3696 370.5166 401.7256 30186.7078 14.4065 60.4993
ENERGY: 1500000 1.7612 5.4177 3.5943 0.0000 -10649.1223 1402.7765 0.0000 0.0000 1748.9986 -7486.5740 301.0556 -9235.5726 -7431.2747 299.7235 -272.3031 -162.9428 29888.8358 -48.7774 5.1026
TCL: Running FEP window   4: Lambda1 0.8499999999999999 Lambda2 0.7999999999999998 [dLambda -0.050000000000000044]
TCL: Setting parameter firsttimestep to 0
TCL: Setting parameter alchLambda to 0.8499999999999999
Info: NONBONDED TABLE R-SQUARED SPACING: 0.0625
Info: NONBONDED TABLE SIZE: 705 POINTS
TCL: Setting parameter alchLambda2 to 0.7999999999999998
Info: NONBONDED TABLE R-SQUARED SPACING: 0.0625
Info: NONBONDED TABLE SIZE: 705 POINTS
TCL: Running for 1500000 steps
ETITLE: TS BOND ANGLE DIHED IMPRP ELECT VDW BOUNDARY MISC KINETIC TOTAL TEMP POTENTIAL TOTALAVG TEMPAVG PRESSURE GPRESSURE VOLUME PRESSAVG GPRESSAVG
ENERGY: 0 1.7612 5.4177 3.5943 0.0000 -10647.5192 1403.0548 0.0000 0.0000 1748.0926 -7485.5985 300.8997 -9233.6911 -7485.5985 300.8997 -243.6045 -166.2790 29888.8358 -243.6045 -166.2790
ENERGY: 300000 5.4805 2.6669 4.1749 0.0000 -10517.1184 1408.5701 0.0000 0.0000 1795.2471 -7300.9789 309.0164 -9096.2261 -7417.6047 301.2071 110.3978 180.5912 30022.6315 85.5083 160.0154
ENERGY: 600000 2.8432 4.5602 10.4348 0.0000 -10668.3995 1462.3993 0.0000 0.0000 1722.0403 -7466.1218 296.4153 -9188.1621 -7416.2250 299.8519 -12.3421 30.9052 30378.5503 -40.0934 31.3139
ENERGY: 900000 1.7110 6.2315 3.7491 0.0000 -10675.8375 1504.6239 0.0000 0.0000 1804.0372 -7355.4847 310.5294 -9159.5219 -7401.2618 300.6272 628.4917 702.1199 30151.7238 49.8803 114.3578
ENERGY: 1200000 0.6205 5.2542 2.1707 0.0000 -10566.3748 1355.7454 0.0000 0.0000 1794.6745 -7407.9095 308.9178 -9202.5840 -7411.5695 300.3832 -609.3646 -503.4545 30208.4905 46.4851 106.6206
ENERGY: 1500000 2.2768 4.5478 5.5853 0.0000 -10668.1349 1450.7815 0.0000 0.0000 1757.1067 -7447.8368 302.4513 -9204.9435 -7416.5152 300.1681 91.8652 146.5068 30163.4384 110.9643 169.8316
TCL: Running FEP window   5: Lambda1 0.7999999999999998 Lambda2 0.7499999999999998 [dLambda -0.050000000000000044]
TCL: Setting parameter firsttimestep to 0
TCL: Setting parameter alchLambda to 0.7999999999999998
Info: NONBONDED TABLE R-SQUARED SPACING: 0.0625
Info: NONBONDED TABLE SIZE: 705 POINTS
TCL: Setting parameter alchLambda2 to 0.7499999999999998
Info: NONBONDED TABLE R-SQUARED SPACING: 0.0625
Info: NONBONDED TABLE SIZE: 705 POINTS
TCL: Running for 1500000 steps
ETITLE: TS BOND ANGLE DIHED IMPRP ELECT VDW BOUNDARY MISC KINETIC TOTAL TEMP POTENTIAL TOTALAVG TEMPAVG PRESSURE GPRESSURE VOLUME PRESSAVG GPRESSAVG
ENERGY: 0 2.2768 4.5478 5.5853 0.0000 -10665.9508 1449.8039 0.0000 0.0000 1756.2586 -7447.4784 302.3053 -9203.7370 -7447.4784 302.3053 49.7887 128.4514 30163.4384 49.7887 128.4514
ENERGY: 300000 1.8126 8.1574 9.5483 0.0000 -10571.9333 1453.9819 0.0000 0.0000 1813.0318 -7285.4014 312.0777 -9098.4332 -7391.8187 305.7545 233.6387 316.2222 30473.8884 97.1515 168.6021
ENERGY: 600000 2.8002 8.1338 8.0482 0.0000 -10659.8595 1494.4043 0.0000 0.0000 1724.6210 -7421.8521 296.8595 -9146.4730 -7412.9606 301.6757 646.5149 753.0842 29729.0530 119.2679 190.2335
ENERGY: 900000 3.1067 6.5551 5.8734 0.0000 -10683.6744 1488.7275 0.0000 0.0000 1800.4098 -7379.0020 309.9050 -9179.4117 -7403.7210 302.6771 187.1971 264.4128 30361.2729 124.6499 196.2046
ENERGY: 1200000 1.8576 5.2701 7.8562 0.0000 -10676.1733 1454.4903 0.0000 0.0000 1776.2054 -7430.4938 305.7387 -9206.6992 -7415.3659 302.1802 82.3607 155.5452 30007.6154 8.3241 80.1184
ENERGY: 1500000 6.1934 6.5567 1.9711 0.0000 -10612.6973 1432.2434 0.0000 0.0000 1733.0393 -7432.6934 298.3085 -9165.7327 -7420.8736 301.5162 4.5773 9.5033 30181.5347 15.3000 73.5321
TCL: Running FEP window   6: Lambda1 0.7499999999999998 Lambda2 0.6999999999999997 [dLambda -0.050000000000000044]
TCL: Setting parameter firsttimestep to 0
TCL: Setting parameter alchLambda to 0.7499999999999998
Info: NONBONDED TABLE R-SQUARED SPACING: 0.0625
Info: NONBONDED TABLE SIZE: 705 POINTS
TCL: Setting parameter alchLambda2 to 0.6999999999999997
Info: NONBONDED TABLE R-SQUARED SPACING: 0.0625
Info: NONBONDED TABLE SIZE: 705 POINTS
TCL: Running for 1500000 steps
ETITLE: TS BOND ANGLE DIHED IMPRP ELECT VDW BOUNDARY MISC KINETIC TOTAL TEMP POTENTIAL TOTALAVG TEMPAVG PRESSURE GPRESSURE VOLUME PRESSAVG GPRESSAVG
ENERGY: 0 6.1934 6.5567 1.9711 0.0000 -10610.3489 1431.5656 0.0000 0.0000 1732.1706 -7431.8914 298.1590 -9164.0621 -7431.8914 298.1590 -95.8127 -2.2740 30181.5347 -95.8127 -2.2740
ENERGY: 300000 3.2450 7.7132 1.9863 0.0000 -10489.2675 1386.8553 0.0000 0.0000 1744.3130 -7345.1546 300.2491 -9089.4676 -7387.7314 303.2101 -180.0363 -137.4616 30105.2966 -34.2425 36.8827
ENERGY: 600000 3.1592 5.3950 3.6999 0.0000 -10497.8706 1400.5455 0.0000 0.0000 1788.6605 -7296.4106 307.8826 -9085.0711 -7389.3812 302.1737 213.1262 285.0606 30009.8021 -115.1308 -62.3120
ENERGY: 900000 4.6498 6.0222 6.2328 0.0000 -10498.3158 1356.0813 0.0000 0.0000 1702.0567 -7423.2731 292.9755 -9125.3298 -7400.1201 300.4919 -756.1354 -739.0916 30242.9822 -23.0684 23.2355
ENERGY: 1200000 4.2721 6.0137 4.9512 0.0000 -10695.5525 1423.3964 0.0000 0.0000 1724.3399 -7532.5792 296.8111 -9256.9191 -7411.9899 300.5723 -283.1215 -193.4763 29681.2912 -82.9447 -34.9207
ENERGY: 1500000 1.3427 8.0589 3.2427 0.0000 -10680.8612 1490.6102 0.0000 0.0000 1745.2315 -7432.3753 300.4072 -9177.6067 -7411.6675 300.6121 417.9423 507.3865 29957.1378 -77.4860 -29.9941
TCL: Running FEP window   7: Lambda1 0.6999999999999997 Lambda2 0.6499999999999997 [dLambda -0.050000000000000044]
TCL: Setting parameter firsttimestep to 0
TCL: Setting parameter alchLambda to 0.6999999999999997
Info: NONBONDED TABLE R-SQUARED SPACING: 0.0625
Info: NONBONDED TABLE SIZE: 705 POINTS
TCL: Setting parameter alchLambda2 to 0.6499999999999997
Info: NONBONDED TABLE R-SQUARED SPACING: 0.0625
Info: NONBONDED TABLE SIZE: 705 POINTS
TCL: Running for 1500000 steps
ETITLE: TS BOND ANGLE DIHED IMPRP ELECT VDW BOUNDARY MISC KINETIC TOTAL TEMP POTENTIAL TOTALAVG TEMPAVG PRESSURE GPRESSURE VOLUME PRESSAVG GPRESSAVG
ENERGY: 0 1.3427 8.0589 3.2427 0.0000 -10679.9927 1491.0069 0.0000 0.0000 1744.3809 -7431.9605 300.2608 -9176.3414 -7431.9605 300.2608 421.4687 501.9618 29957.1378 421.4687 501.9618
ENERGY: 300000 1.8662 5.0246 6.0131 0.0000 -10598.7500 1431.2905 0.0000 0.0000 1651.7353 -7502.8203 284.3137 -9154.5556 -7439.0697 295.7722 -177.5886 -32.3364 30463.1976 107.3489 191.6743
ENERGY: 600000 3.5585 6.8413 5.5413 0.0000 -10697.0521 1504.3621 0.0000 0.0000 1695.7033 -7481.0456 291.8819 -9176.7489 -7450.5592 295.2241 635.1878 734.9666 29876.3863 216.4335 296.7492
ENERGY: 900000 1.4158 6.4666 6.2701 0.0000 -10638.5110 1446.6396 0.0000 0.0000 1745.4295 -7432.2893 300.4413 -9177.7188 -7426.2087 299.4207 264.8132 316.4598 29692.8120 32.6369 106.1795
ENERGY: 1200000 1.9121 7.2090 5.1763 0.0000 -10771.7007 1528.8201 0.0000 0.0000 1733.5492 -7495.0340 298.3963 -9228.5832 -7429.0094 299.8103 713.8736 710.8963 29824.1924 24.9340 85.4341
ENERGY: 1500000 3.1823 3.8492 6.9332 0.0000 -10458.7249 1359.4807 0.0000 0.0000 1782.6483 -7302.6313 306.8478 -9085.2796 -7417.7785 300.3145 -540.7871 -410.9271 30443.4569 -82.3946 -18.7050
TCL: Running FEP window   8: Lambda1 0.6499999999999997 Lambda2 0.5999999999999996 [dLambda -0.050000000000000044]
TCL: Setting parameter firsttimestep to 0
TCL: Setting parameter alchLambda to 0.6499999999999997
Info: NONBONDED TABLE R-SQUARED SPACING: 0.0625
Info: NONBONDED TABLE SIZE: 705 POINTS
TCL: Setting parameter alchLambda2 to 0.5999999999999996
Info: NONBONDED TABLE R-SQUARED SPACING: 0.0625
Info: NONBONDED TABLE SIZE: 705 POINTS
TCL: Running for 1500000 steps
ETITLE: TS BOND ANGLE DIHED IMPRP ELECT VDW BOUNDARY MISC KINETIC TOTAL TEMP POTENTIAL TOTALAVG TEMPAVG PRESSURE GPRESSURE VOLUME PRESSAVG GPRESSAVG
ENERGY: 0 3.1823 3.8492 6.9332 0.0000 -10458.1166 1359.9902 0.0000 0.0000 1781.7592 -7302.4025 306.6947 -9084.1617 -7302.4025 306.6947 -492.0217 -413.9445 30443.4569 -492.0217 -413.9445
ENERGY: 300000 1.4894 4.5054 3.2947 0.0000 -10589.5751 1409.1287 0.0000 0.0000 1704.4909 -7466.6659 293.3945 -9171.1569 -7377.3789 299.7003 -289.0066 -129.8555 29888.8617 -104.1668 -22.7384
ENERGY: 600000 1.9525 7.2510 3.5108 0.0000 -10622.5163 1464.0346 0.0000 0.0000 1694.7512 -7451.0163 291.7180 -9145.7674 -7374.3580 299.3984 252.9725 322.3734 29923.7945 -218.3227 -148.4737
ENERGY: 900000 2.3077 8.2713 7.4376 0.0000 -10602.4543 1438.2460 0.0000 0.0000 1671.7485 -7474.4433 287.7585 -9146.1918 -7396.9222 297.0601 204.3698 338.3170 29558.3825 -93.9935 -16.8587
ENERGY: 1200000 1.8492 6.0791 4.5526 0.0000 -10532.0595 1344.0262 0.0000 0.0000 1799.4991 -7376.0534 309.7483 -9175.5525 -7391.7294 298.6768 -393.2912 -374.4702 29922.9252 -179.2944 -108.7746
ENERGY: 1500000 2.4512 6.8962 11.6471 0.0000 -10613.9613 1430.8607 0.0000 0.0000 1728.5334 -7433.5727 297.5330 -9162.1061 -7394.3810 298.9113 -247.6016 -137.6668 30101.2193 -72.9382 -7.8577
TCL: Running FEP window   9: Lambda1 0.5999999999999996 Lambda2 0.5499999999999996 [dLambda -0.050000000000000044]
TCL: Setting parameter firsttimestep to 0
TCL: Setting parameter alchLambda to 0.5999999999999996
Info: NONBONDED TABLE R-SQUARED SPACING: 0.0625
Info: NONBONDED TABLE SIZE: 705 POINTS
TCL: Setting parameter alchLambda2 to 0.5499999999999996
Info: NONBONDED TABLE R-SQUARED SPACING: 0.0625
Info: NONBONDED TABLE SIZE: 705 POINTS
TCL: Running for 1500000 steps
ETITLE: TS BOND ANGLE DIHED IMPRP ELECT VDW BOUNDARY MISC KINETIC TOTAL TEMP POTENTIAL TOTALAVG TEMPAVG PRESSURE GPRESSURE VOLUME PRESSAVG GPRESSAVG
ENERGY: 0 2.4512 6.8962 11.6471 0.0000 -10612.3841 1430.5578 0.0000 0.0000 1727.6328 -7433.1989 297.3779 -9160.8318 -7433.1989 297.3779 -234.6229 -145.4363 30101.2193 -234.6229 -145.4363
ENERGY: 300000 1.9708 8.7782 12.2556 0.0000 -10391.6762 1316.5232 0.0000 0.0000 1711.1976 -7340.9508 294.5489 -9052.1483 -7355.1891 299.5793 -194.9836 -136.8631 29744.3615 -254.8642 -186.6000
ENERGY: 600000 5.9394 7.7843 4.6955 0.0000 -10614.3599 1444.3382 0.0000 0.0000 1755.1515 -7396.4509 302.1147 -9151.6024 -7384.3609 298.1900 256.1465 365.8528 29872.7973 -198.4319 -121.6235
ENERGY: 900000 7.2043 5.1583 4.2117 0.0000 -10661.7462 1472.6330 0.0000 0.0000 1730.6551 -7441.8837 297.8982 -9172.5388 -7395.4273 298.4534 435.3868 506.5873 29864.9707 -133.2571 -56.9424
ENERGY: 1200000 2.8351 8.6347 5.3542 0.0000 -10608.3444 1395.5849 0.0000 0.0000 1716.5218 -7479.4136 295.4654 -9195.9355 -7397.3471 298.3188 -501.2759 -450.5933 30098.8954 -146.7859 -72.4655
ENERGY: 1500000 1.6094 6.1037 4.4931 0.0000 -10585.0706 1395.5322 0.0000 0.0000 1729.2725 -7448.0597 297.6602 -9177.3322 -7401.9232 298.9478 -23.2113 -16.0127 29560.4750 -114.1175 -47.8580
TCL: Running FEP window  10: Lambda1 0.5499999999999996 Lambda2 0.4999999999999996 [dLambda -0.04999999999999999]
TCL: Setting parameter firsttimestep to 0
TCL: Setting parameter alchLambda to 0.5499999999999996
Info: NONBONDED TABLE R-SQUARED SPACING: 0.0625
Info: NONBONDED TABLE SIZE: 705 POINTS
TCL: Setting parameter alchLambda2 to 0.4999999999999996
Info: NONBONDED TABLE R-SQUARED SPACING: 0.0625
Info: NONBONDED TABLE SIZE: 705 POINTS
TCL: Running for 1500000 steps
ETITLE: TS BOND ANGLE DIHED IMPRP ELECT VDW BOUNDARY MISC KINETIC TOTAL TEMP POTENTIAL TOTALAVG TEMPAVG PRESSURE GPRESSURE VOLUME PRESSAVG GPRESSAVG
ENERGY: 0 1.6094 6.1037 4.4931 0.0000 -10584.7502 1395.6166 0.0000 0.0000 1728.4352 -7448.4922 297.5161 -9176.9274 -7448.4922 297.5161 -101.8673 -21.7460 29560.4750 -101.8673 -21.7460
ENERGY: 300000 3.6864 4.9511 4.2762 0.0000 -10580.0351 1446.4081 0.0000 0.0000 1744.4050 -7376.3083 300.2649 -9120.7133 -7424.6033 300.6874 135.6744 227.9899 30233.0107 -121.2935 -41.2065
ENERGY: 600000 4.1072 6.1573 4.9224 0.0000 -10576.7812 1352.6864 0.0000 0.0000 1770.9671 -7437.9408 304.8371 -9208.9079 -7406.1164 302.1289 -887.1203 -793.6904 30370.2875 -194.6678 -122.5705
ENERGY: 900000 2.5898 5.0438 6.5564 0.0000 -10662.8489 1442.0375 0.0000 0.0000 1745.0457 -7461.5757 300.3752 -9206.6214 -7405.7190 302.6558 -46.7345 -11.1802 30030.8549 -184.0652 -114.2866
ENERGY: 1200000 4.7079 6.5599 6.2307 0.0000 -10572.7332 1425.7248 0.0000 0.0000 1734.7293 -7394.7805 298.5994 -9129.5098 -7408.4798 301.4835 -63.9592 26.7967 30196.2073 -77.9261 -9.7289
ENERGY: 1500000 5.0505 8.1922 3.2046 0.0000 -10658.6756 1441.8441 0.0000 0.0000 1753.6143 -7446.7700 301.8501 -9200.3843 -7409.3458 301.2090 187.0827 231.5299 30039.4790 -29.7498 34.6045
TCL: Running FEP window  11: Lambda1 0.4999999999999996 Lambda2 0.4499999999999996 [dLambda -0.04999999999999999]
TCL: Setting parameter firsttimestep to 0
TCL: Setting parameter alchLambda to 0.4999999999999996
Info: NONBONDED TABLE R-SQUARED SPACING: 0.0625
Info: NONBONDED TABLE SIZE: 705 POINTS
TCL: Setting parameter alchLambda2 to 0.4499999999999996
Info: NONBONDED TABLE R-SQUARED SPACING: 0.0625
Info: NONBONDED TABLE SIZE: 705 POINTS
TCL: Running for 1500000 steps
ETITLE: TS BOND ANGLE DIHED IMPRP ELECT VDW BOUNDARY MISC KINETIC TOTAL TEMP POTENTIAL TOTALAVG TEMPAVG PRESSURE GPRESSURE VOLUME PRESSAVG GPRESSAVG
ENERGY: 0 5.0505 8.1922 3.2046 0.0000 -10658.1650 1442.3955 0.0000 0.0000 1752.7632 -7446.5589 301.7036 -9199.3221 -7446.5589 301.7036 164.0637 230.7476 30039.4790 164.0637 230.7476
ENERGY: 300000 5.6174 5.3760 9.1333 0.0000 -10619.2288 1472.3125 0.0000 0.0000 1729.1136 -7397.6760 297.6328 -9126.7896 -7437.4746 301.5052 185.3005 180.8694 30223.3852 105.7768 170.7492
ENERGY: 600000 2.8876 7.2073 6.1628 0.0000 -10685.1519 1487.3679 0.0000 0.0000 1751.3341 -7430.1922 301.4576 -9181.5263 -7438.5087 301.1096 403.5734 515.4238 29612.8845 -89.1484 -11.5400
ENERGY: 900000 1.3602 9.5889 6.6405 0.0000 -10525.3880 1345.5394 0.0000 0.0000 1771.1606 -7391.0984 304.8704 -9162.2590 -7421.6790 303.2569 -721.3590 -649.0721 30057.0560 -75.3636 -6.0169
ENERGY: 1200000 2.0683 5.4956 9.0433 0.0000 -10460.1780 1356.0629 0.0000 0.0000 1714.2687 -7373.2392 295.0776 -9087.5079 -7415.7480 301.8856 -270.5046 -320.5925 30193.0319 -141.2609 -74.1757
ENERGY: 1500000 1.6667 7.0309 6.1420 0.0000 -10566.2515 1368.7774 0.0000 0.0000 1774.6554 -7407.9792 305.4719 -9182.6346 -7409.8499 301.1379 -515.0124 -396.2293 29768.8307 -137.7628 -70.3953
TCL: Running FEP window  12: Lambda1 0.4499999999999996 Lambda2 0.39999999999999963 [dLambda -0.04999999999999999]
TCL: Setting parameter firsttimestep to 0
TCL: Setting parameter alchLambda to 0.4499999999999996
Info: NONBONDED TABLE R-SQUARED SPACING: 0.0625
Info: NONBONDED TABLE SIZE: 705 POINTS
TCL: Setting parameter alchLambda2 to 0.39999999999999963
Info: NONBONDED TABLE R-SQUARED SPACING: 0.0625
Info: NONBONDED TABLE SIZE: 705 POINTS
TCL: Running for 1500000 steps
ETITLE: TS BOND ANGLE DIHED IMPRP ELECT VDW BOUNDARY MISC KINETIC TOTAL TEMP POTENTIAL TOTALAVG TEMPAVG PRESSURE GPRESSURE VOLUME PRESSAVG GPRESSAVG
ENERGY: 0 1.6667 7.0309 6.1420 0.0000 -10566.2504 1368.5326 0.0000 0.0000 1773.7807 -7409.0976 305.3214 -9182.8783 -7409.0976 305.3214 -492.0048 -404.4772 29768.8307 -492.0048 -404.4772
ENERGY: 300000 1.3313 4.4036 6.8105 0.0000 -10495.3349 1334.5279 0.0000 0.0000 1671.3499 -7476.9116 287.6899 -9148.2615 -7404.0636 299.4625 -913.7709 -903.4738 30340.4595 -242.5033 -168.1121
ENERGY: 600000 3.7809 6.5362 4.7225 0.0000 -10663.3362 1429.3631 0.0000 0.0000 1693.8908 -7525.0427 291.5699 -9218.9335 -7418.8975 300.3896 -343.2382 -294.7435 30064.1860 -202.6827 -122.5577
ENERGY: 900000 2.2263 6.0634 5.2747 0.0000 -10620.0408 1467.4367 0.0000 0.0000 1791.0380 -7348.0017 308.2919 -9139.0397 -7400.8543 301.2057 502.7301 586.8964 29877.3951 -40.3159 27.2635
ENERGY: 1200000 6.5046 3.4169 2.0348 0.0000 -10560.7341 1478.4146 0.0000 0.0000 1735.6213 -7334.7419 298.7530 -9070.3632 -7401.2050 300.6826 483.0557 524.0809 29976.3525 -28.2296 39.6324
ENERGY: 1500000 5.4743 3.5876 7.4232 0.0000 -10585.1730 1379.1126 0.0000 0.0000 1819.4154 -7370.1600 313.1765 -9189.5753 -7402.8376 301.4720 -570.0944 -504.6186 30014.6729 -73.0572 -13.4037
TCL: Running FEP window  13: Lambda1 0.39999999999999963 Lambda2 0.34999999999999964 [dLambda -0.04999999999999999]
TCL: Setting parameter firsttimestep to 0
TCL: Setting parameter alchLambda to 0.39999999999999963
Info: NONBONDED TABLE R-SQUARED SPACING: 0.0625
Info: NONBONDED TABLE SIZE: 705 POINTS
TCL: Setting parameter alchLambda2 to 0.34999999999999964
Info: NONBONDED TABLE R-SQUARED SPACING: 0.0625
Info: NONBONDED TABLE SIZE: 705 POINTS
TCL: Running for 1500000 steps
ETITLE: TS BOND ANGLE DIHED IMPRP ELECT VDW BOUNDARY MISC KINETIC TOTAL TEMP POTENTIAL TOTALAVG TEMPAVG PRESSURE GPRESSURE VOLUME PRESSAVG GPRESSAVG
ENERGY: 0 5.4743 3.5876 7.4232 0.0000 -10585.1737 1379.7179 0.0000 0.0000 1818.5163 -7370.4544 313.0217 -9188.9707 -7370.4544 313.0217 -574.8990 -502.3670 30014.6729 -574.8990 -502.3670
ENERGY: 300000 7.0088 5.4778 6.3876 0.0000 -10493.7298 1370.8950 0.0000 0.0000 1726.4681 -7377.4927 297.1774 -9103.9608 -7392.2832 303.4631 -759.5883 -660.7870 30740.4038 -71.0948 -0.6869
ENERGY: 600000 1.7474 4.5021 4.6379 0.0000 -10530.2240 1404.2103 0.0000 0.0000 1732.9094 -7382.2169 298.2862 -9115.1263 -7386.7265 300.9028 -194.9715 -146.3116 30322.8354 -88.5249 -23.2522
ENERGY: 900000 3.2291 4.2627 1.8818 0.0000 -10599.5329 1415.3539 0.0000 0.0000 1782.4767 -7392.3287 306.8182 -9174.8055 -7396.1741 301.3172 -199.2106 -96.2964 30119.6137 -56.9570 8.7079
ENERGY: 1200000 7.1543 6.5109 4.3424 0.0000 -10494.7922 1358.6289 0.0000 0.0000 1735.0010 -7383.1546 298.6462 -9118.1556 -7394.3227 300.2105 -737.4262 -568.5738 30502.7130 -34.2401 32.9280
ENERGY: 1500000 2.2976 4.2888 9.5529 0.0000 -10693.7472 1480.3399 0.0000 0.0000 1776.7245 -7420.5435 305.8281 -9197.2680 -7397.7110 299.9849 206.1747 225.7955 30048.1117 -37.8972 25.0609
TCL: Running FEP window  14: Lambda1 0.34999999999999964 Lambda2 0.29999999999999966 [dLambda -0.04999999999999999]
TCL: Setting parameter firsttimestep to 0
TCL: Setting parameter alchLambda to 0.34999999999999964
Info: NONBONDED TABLE R-SQUARED SPACING: 0.0625
Info: NONBONDED TABLE SIZE: 705 POINTS
TCL: Setting parameter alchLambda2 to 0.29999999999999966
Info: NONBONDED TABLE R-SQUARED SPACING: 0.0625
Info: NONBONDED TABLE SIZE: 705 POINTS
TCL: Running for 1500000 steps
ETITLE: TS BOND ANGLE DIHED IMPRP ELECT VDW BOUNDARY MISC KINETIC TOTAL TEMP POTENTIAL TOTALAVG TEMPAVG PRESSURE GPRESSURE VOLUME PRESSAVG GPRESSAVG
ENERGY: 0 2.2976 4.2888 9.5529 0.0000 -10693.7473 1479.1728 0.0000 0.0000 1775.9086 -7422.5266 305.6877 -9198.4353 -7422.5266 305.6877 136.5698 214.9219 30048.1117 136.5698 214.9219
ENERGY: 300000 3.6206 4.5370 9.0440 0.0000 -10543.3474 1385.3938 0.0000 0.0000 1724.5458 -7416.2063 296.8466 -9140.7521 -7369.9861 301.0891 -442.4947 -362.9139 29974.9530 -347.9099 -251.9492
ENERGY: 600000 3.0716 5.0382 7.8181 0.0000 -10587.2507 1466.1489 0.0000 0.0000 1784.3094 -7320.8645 307.1337 -9105.1739 -7381.2829 300.9142 496.4028 598.8467 29761.8976 -126.1413 -49.7533
ENERGY: 900000 2.2281 7.0788 5.0593 0.0000 -10550.3297 1386.1720 0.0000 0.0000 1736.2396 -7413.5520 298.8594 -9149.7915 -7380.0831 301.2430 -441.5212 -366.9884 30157.1980 -94.7502 -13.5641
ENERGY: 1200000 7.4212 6.6814 10.8189 0.0000 -10704.3684 1425.1412 0.0000 0.0000 1748.0715 -7506.2343 300.8960 -9254.3058 -7392.0696 301.1523 -605.1758 -600.7372 30154.8507 -200.3231 -136.4718
ENERGY: 1500000 2.1902 4.0966 2.9441 0.0000 -10612.0659 1411.5503 0.0000 0.0000 1785.4273 -7405.8574 307.3261 -9191.2847 -7394.7712 301.6470 45.1883 60.7731 29617.4801 -164.2414 -97.1497
TCL: Running FEP window  15: Lambda1 0.29999999999999966 Lambda2 0.24999999999999967 [dLambda -0.04999999999999999]
TCL: Setting parameter firsttimestep to 0
TCL: Setting parameter alchLambda to 0.29999999999999966
Info: NONBONDED TABLE R-SQUARED SPACING: 0.0625
Info: NONBONDED TABLE SIZE: 705 POINTS
TCL: Setting parameter alchLambda2 to 0.24999999999999967
Info: NONBONDED TABLE R-SQUARED SPACING: 0.0625
Info: NONBONDED TABLE SIZE: 705 POINTS
TCL: Running for 1500000 steps
ETITLE: TS BOND ANGLE DIHED IMPRP ELECT VDW BOUNDARY MISC KINETIC TOTAL TEMP POTENTIAL TOTALAVG TEMPAVG PRESSURE GPRESSURE VOLUME PRESSAVG GPRESSAVG
ENERGY: 0 2.1902 4.0966 2.9441 0.0000 -10612.0656 1411.8665 0.0000 0.0000 1784.5503 -7406.4179 307.1751 -9190.9682 -7406.4179 307.1751 -22.6853 56.9094 29617.4801 -22.6853 56.9094
ENERGY: 300000 2.6251 5.2806 6.9739 0.0000 -10644.3133 1425.3032 0.0000 0.0000 1708.2562 -7495.8743 294.0426 -9204.1305 -7432.7046 300.1751 -322.0668 -261.5079 29928.9374 -293.3845 -237.3182
ENERGY: 600000 3.8152 6.8573 7.8762 0.0000 -10560.4264 1348.2942 0.0000 0.0000 1750.1536 -7443.4298 301.2544 -9193.5835 -7445.6608 299.3317 -866.3891 -811.5436 30039.6860 -369.8273 -319.4250
ENERGY: 900000 3.1470 2.9228 5.4088 0.0000 -10526.2037 1394.9859 0.0000 0.0000 1735.9761 -7383.7631 298.8141 -9119.7392 -7436.7776 298.3969 -577.0033 -483.2336 30450.4188 -330.7147 -267.5263
ENERGY: 1200000 1.5451 7.7318 3.8968 0.0000 -10500.1657 1422.2471 0.0000 0.0000 1708.0199 -7356.7249 294.0020 -9064.7448 -7426.4017 298.5172 568.8437 634.0041 29740.1912 -250.4887 -185.3448
ENERGY: 1500000 1.6937 4.8080 3.0621 0.0000 -10660.3375 1461.7899 0.0000 0.0000 1734.3915 -7454.5923 298.5413 -9188.9839 -7419.8017 299.2917 399.8278 439.5335 29745.1719 -143.8054 -80.8842
TCL: Running FEP window  16: Lambda1 0.24999999999999967 Lambda2 0.19999999999999968 [dLambda -0.04999999999999999]
TCL: Setting parameter firsttimestep to 0
TCL: Setting parameter alchLambda to 0.24999999999999967
Info: NONBONDED TABLE R-SQUARED SPACING: 0.0625
Info: NONBONDED TABLE SIZE: 705 POINTS
TCL: Setting parameter alchLambda2 to 0.19999999999999968
Info: NONBONDED TABLE R-SQUARED SPACING: 0.0625
Info: NONBONDED TABLE SIZE: 705 POINTS
TCL: Running for 1500000 steps
ETITLE: TS BOND ANGLE DIHED IMPRP ELECT VDW BOUNDARY MISC KINETIC TOTAL TEMP POTENTIAL TOTALAVG TEMPAVG PRESSURE GPRESSURE VOLUME PRESSAVG GPRESSAVG
ENERGY: 0 1.6937 4.8080 3.0621 0.0000 -10660.3356 1460.9867 0.0000 0.0000 1733.5674 -7456.2177 298.3995 -9189.7852 -7456.2177 298.3995 355.2260 429.6266 29745.1719 355.2260 429.6266
ENERGY: 300000 1.5785 6.3834 4.2671 0.0000 -10495.4300 1342.4097 0.0000 0.0000 1803.3683 -7337.4230 310.4143 -9140.7914 -7385.3952 302.0941 -622.2540 -575.0912 30026.5747 -211.2764 -134.9937
ENERGY: 600000 2.7618 6.8114 11.1800 0.0000 -10555.0752 1378.3396 0.0000 0.0000 1740.9295 -7415.0527 299.6667 -9155.9822 -7415.8139 299.9930 -388.9905 -315.1503 30405.2960 -181.0161 -110.5293
ENERGY: 900000 2.8094 8.3495 2.8016 0.0000 -10583.3693 1461.9882 0.0000 0.0000 1749.3744 -7358.0461 301.1203 -9107.4205 -7403.1574 301.2666 366.7967 429.2097 30181.1747 -46.2067 28.1265
ENERGY: 1200000 5.1829 10.1102 4.0571 0.0000 -10649.5673 1477.3165 0.0000 0.0000 1702.9737 -7449.9269 293.1334 -9152.9006 -7408.1481 300.4080 372.7029 395.7484 29852.7774 -123.7263 -54.8287
ENERGY: 1500000 1.0882 5.9871 5.6901 0.0000 -10537.8905 1381.8336 0.0000 0.0000 1777.3026 -7365.9889 305.9276 -9143.2915 -7401.9340 300.8698 -515.2299 -448.2190 30466.0850 -114.1507 -45.3835
TCL: Running FEP window  17: Lambda1 0.19999999999999968 Lambda2 0.1499999999999997 [dLambda -0.04999999999999999]
TCL: Setting parameter firsttimestep to 0
TCL: Setting parameter alchLambda to 0.19999999999999968
Info: NONBONDED TABLE R-SQUARED SPACING: 0.0625
Info: NONBONDED TABLE SIZE: 705 POINTS
TCL: Setting parameter alchLambda2 to 0.1499999999999997
Info: NONBONDED TABLE R-SQUARED SPACING: 0.0625
Info: NONBONDED TABLE SIZE: 705 POINTS
TCL: Running for 1500000 steps
ETITLE: TS BOND ANGLE DIHED IMPRP ELECT VDW BOUNDARY MISC KINETIC TOTAL TEMP POTENTIAL TOTALAVG TEMPAVG PRESSURE GPRESSURE VOLUME PRESSAVG GPRESSAVG
ENERGY: 0 1.0882 5.9871 5.6901 0.0000 -10537.8894 1382.0050 0.0000 0.0000 1776.4678 -7366.6512 305.7839 -9143.1190 -7366.6512 305.7839 -535.7245 -450.7668 30466.0850 -535.7245 -450.7668
ENERGY: 300000 1.5355 8.7779 4.0107 0.0000 -10668.9940 1470.5440 0.0000 0.0000 1796.3421 -7387.7837 309.2049 -9184.1258 -7423.3461 303.6855 276.7584 361.6772 30153.6247 67.8968 150.2991
ENERGY: 600000 2.8493 4.1298 5.4122 0.0000 -10624.1832 1417.0143 0.0000 0.0000 1769.4369 -7425.3406 304.5737 -9194.7776 -7405.3824 302.2598 -298.3233 -207.4687 30122.0281 -45.3948 40.2473
ENERGY: 900000 1.2059 7.9418 5.8549 0.0000 -10596.8736 1475.0219 0.0000 0.0000 1762.6624 -7344.1866 303.4076 -9106.8490 -7384.2954 302.0317 391.2794 479.9238 29966.3370 43.5077 127.7930
ENERGY: 1200000 3.0462 4.5917 3.6093 0.0000 -10647.5486 1448.3489 0.0000 0.0000 1723.5949 -7464.3576 296.6829 -9187.9525 -7377.5962 302.0936 186.8879 235.4006 29953.8232 45.3064 117.1265
ENERGY: 1500000 2.9379 3.8145 5.4249 0.0000 -10688.0686 1454.9332 0.0000 0.0000 1725.9397 -7495.0185 297.0865 -9220.9581 -7401.2624 300.6565 -94.3344 -86.4261 30045.1508 -13.2133 52.6796
TCL: Running FEP window  18: Lambda1 0.1499999999999997 Lambda2 0.09999999999999969 [dLambda -0.05 ]
TCL: Setting parameter firsttimestep to 0
TCL: Setting parameter alchLambda to 0.1499999999999997
Info: NONBONDED TABLE R-SQUARED SPACING: 0.0625
Info: NONBONDED TABLE SIZE: 705 POINTS
TCL: Setting parameter alchLambda2 to 0.09999999999999969
Info: NONBONDED TABLE R-SQUARED SPACING: 0.0625
Info: NONBONDED TABLE SIZE: 705 POINTS
TCL: Running for 1500000 steps
ETITLE: TS BOND ANGLE DIHED IMPRP ELECT VDW BOUNDARY MISC KINETIC TOTAL TEMP POTENTIAL TOTALAVG TEMPAVG PRESSURE GPRESSURE VOLUME PRESSAVG GPRESSAVG
ENERGY: 0 2.9379 3.8145 5.4249 0.0000 -10688.0670 1455.4684 0.0000 0.0000 1725.0959 -7495.3254 296.9413 -9220.4213 -7495.3254 296.9413 -158.3518 -86.6560 30045.1508 -158.3518 -86.6560
ENERGY: 300000 1.8422 4.8326 4.7564 0.0000 -10454.1822 1346.5457 0.0000 0.0000 1723.0109 -7373.1945 296.5824 -9096.2054 -7394.5098 299.8204 -592.5041 -519.5721 30261.4062 -247.2806 -175.9073
ENERGY: 600000 3.0118 4.0774 7.1609 0.0000 -10521.7709 1338.3941 0.0000 0.0000 1744.5243 -7424.6024 300.2855 -9169.1267 -7410.9609 299.0362 -676.6557 -686.6141 29908.7541 -346.5180 -299.5946
ENERGY: 900000 2.2150 4.2460 3.6989 0.0000 -10706.2672 1498.2315 0.0000 0.0000 1719.3892 -7478.4866 295.9590 -9197.8758 -7418.7310 298.7159 274.8563 330.5233 30177.6249 -203.9435 -157.3625
ENERGY: 1200000 1.8794 7.5371 2.9437 0.0000 -10662.0692 1444.6663 0.0000 0.0000 1731.5170 -7473.5257 298.0465 -9205.0426 -7424.9243 298.1703 -37.7809 53.6182 30078.5985 -160.5036 -104.7774
ENERGY: 1500000 1.2745 9.7957 4.5572 0.0000 -10710.2936 1559.0943 0.0000 0.0000 1738.6057 -7396.9663 299.2667 -9135.5719 -7416.2721 298.6151 1124.6400 1131.6548 29967.5721 -72.0152 -18.3006
TCL: Running FEP window  19: Lambda1 0.09999999999999969 Lambda2 0.049999999999999684 [dLambda -0.05 ]
TCL: Setting parameter firsttimestep to 0
TCL: Setting parameter alchLambda to 0.09999999999999969
Info: NONBONDED TABLE R-SQUARED SPACING: 0.0625
Info: NONBONDED TABLE SIZE: 705 POINTS
TCL: Setting parameter alchLambda2 to 0.049999999999999684
Info: NONBONDED TABLE R-SQUARED SPACING: 0.0625
Info: NONBONDED TABLE SIZE: 705 POINTS
TCL: Running for 1500000 steps
ETITLE: TS BOND ANGLE DIHED IMPRP ELECT VDW BOUNDARY MISC KINETIC TOTAL TEMP POTENTIAL TOTALAVG TEMPAVG PRESSURE GPRESSURE VOLUME PRESSAVG GPRESSAVG
ENERGY: 0 1.2745 9.7957 4.5572 0.0000 -10710.2939 1558.7778 0.0000 0.0000 1737.7172 -7398.1714 299.1138 -9135.8887 -7398.1714 299.1138 1041.7231 1127.1476 29967.5721 1041.7231 1127.1476
ENERGY: 300000 1.6344 6.4261 7.8317 0.0000 -10519.9755 1382.4986 0.0000 0.0000 1774.5427 -7347.0419 305.4525 -9121.5846 -7396.1487 301.6731 -522.8406 -456.4604 30534.9045 92.7435 182.7079
ENERGY: 600000 2.1480 9.9083 3.3228 0.0000 -10604.4013 1418.6161 0.0000 0.0000 1765.6528 -7404.7534 303.9223 -9170.4061 -7391.6732 301.4850 11.3483 139.4983 29395.1018 63.7607 138.2585
ENERGY: 900000 1.2732 7.1038 3.6803 0.0000 -10546.2937 1400.9549 0.0000 0.0000 1760.6951 -7372.5864 303.0689 -9133.2814 -7405.9280 299.7239 283.9417 246.6864 29643.7346 116.1793 184.2240
ENERGY: 1200000 2.4468 4.8031 5.4121 0.0000 -10599.0082 1392.9221 0.0000 0.0000 1740.4547 -7452.9695 299.5850 -9193.4241 -7401.7361 299.5244 -439.6999 -279.1887 29716.8643 95.7473 163.3157
ENERGY: 1500000 4.6501 6.1727 8.8923 0.0000 -10619.1296 1449.5468 0.0000 0.0000 1672.9879 -7476.8798 287.9719 -9149.8677 -7400.8035 299.2393 125.5990 198.1130 29720.7570 73.9693 137.5882
TCL: Running FEP window  20: Lambda1 0.049999999999999684 Lambda2 0.0    [dLambda -0.049999999999999684]
TCL: Setting parameter firsttimestep to 0
TCL: Setting parameter alchLambda to 0.049999999999999684
Info: NONBONDED TABLE R-SQUARED SPACING: 0.0625
Info: NONBONDED TABLE SIZE: 705 POINTS
TCL: Setting parameter alchLambda2 to 0.0
Info: NONBONDED TABLE R-SQUARED SPACING: 0.0625
Info: NONBONDED TABLE SIZE: 705 POINTS
TCL: Running for 1500000 steps
ETITLE: TS BOND ANGLE DIHED IMPRP ELECT VDW BOUNDARY MISC KINETIC TOTAL TEMP POTENTIAL TOTALAVG TEMPAVG PRESSURE GPRESSURE VOLUME PRESSAVG GPRESSAVG
ENERGY: 0 4.6501 6.1727 8.8923 0.0000 -10619.1286 1449.7354 0.0000 0.0000 1672.1164 -7477.5618 287.8219 -9149.6782 -7477.5618 287.8219 104.3750 196.4081 29720.7570 104.3750 196.4081
ENERGY: 300000 2.2614 5.2692 5.6949 0.0000 -10399.4712 1291.1672 0.0000 0.0000 1783.8681 -7311.2104 307.0577 -9095.0785 -7392.0116 298.9415 -1000.6131 -928.8946 30280.5785 97.5051 157.1381
ENERGY: 600000 3.1921 3.7565 4.5871 0.0000 -10463.3869 1392.1174 0.0000 0.0000 1758.1672 -7301.5666 302.6338 -9059.7339 -7376.8021 299.6592 -133.3268 -32.7729 29962.7678 100.1870 165.7336
ENERGY: 900000 2.1021 5.6603 7.3454 0.0000 -10525.8087 1344.7339 0.0000 0.0000 1732.4141 -7433.5528 298.2009 -9165.9669 -7399.7342 299.1809 -714.6262 -608.1372 29802.4100 -42.3659 21.0578
ENERGY: 1200000 5.6611 5.7532 6.7751 0.0000 -10772.2557 1596.6070 0.0000 0.0000 1789.5332 -7367.9261 308.0329 -9157.4593 -7389.0689 300.2035 1141.7870 1188.2697 29876.5799 18.5784 77.4614
ENERGY: 1500000 3.4699 5.8898 8.0428 0.0000 -10592.0738 1434.1654 0.0000 0.0000 1730.5521 -7409.9538 297.8804 -9140.5059 -7389.6284 300.6093 -201.0271 -128.5524 30450.7218 28.6509 87.7926
TCL: Exiting due to exit command.
