Info: SIMULATION PARAMETERS:
Info: TIMESTEP               2
Info: NUMBER OF STEPS        0
Info: STEPS PER CYCLE        10
Info: PERIODIC CELL BASIS 1  30.8605 0 0
Info: PERIODIC CELL BASIS 2  0 31.1083 0
Info: PERIODIC CELL BASIS 3  0 0 31.5106
Info: PERIODIC CELL CENTER   0 0 0
Info: WRAPPING WATERS AROUND PERIODIC BOUNDARIES ON OUTPUT.
Info: WRAPPING ALL CLUSTERS AROUND PERIODIC BOUNDARIES ON OUTPUT.
Info: FIRST LDB TIMESTEP     50
Info: LAST LDB TIMESTEP     -1
Info: HOM BACKGROUND SCALING 1
Info: PME BACKGROUND SCALING 1
Info: MIN ATOMS PER PATCH    40
Info: EMPTY PATCH LOAD       40 ATOMS
Info: VELOCITY FILE          mobley_4177472_equil.vel
Info: CENTER OF MASS MOVING INITIALLY? NO
Info: DIELECTRIC             1
Info: EXCLUDE                SCALED ONE-FOUR
Info: 1-4 ELECTROSTATICS SCALED BY 0.833333
Info: MODIFIED 1-4 VDW PARAMETERS WILL BE USED
Info: DCD FILENAME           mobley_4177472_prod.dcd
Info: DCD FREQUENCY          100000
Info: DCD FIRST STEP         100000
Info: DCD FILE WILL CONTAIN UNIT CELL DATA
Info: XST FILENAME           mobley_4177472_prod.xst
Info: XST FREQUENCY          100000
Info: NO VELOCITY DCD OUTPUT
Info: NO FORCE DCD OUTPUT
Info: OUTPUT FILENAME        mobley_4177472_prod
Info: BINARY OUTPUT FILES WILL BE USED
Info: RESTART FILENAME       mobley_4177472_prod.restart
Info: RESTART FREQUENCY      100000
Info: BINARY RESTART FILES WILL BE USED
Info: CUTOFF                 9
Info: PAIRLIST DISTANCE      11
Info: PAIRLIST SHRINK RATE   0.01
Info: PAIRLIST GROW RATE     0.01
Info: PAIRLIST TRIGGER       0.3
Info: PAIRLISTS PER CYCLE    2
Info: PAIRLISTS ENABLED
Info: MARGIN                 2
Info: HYDROGEN GROUP CUTOFF  2.5
Info: PATCH DIMENSION        15.5
Info: ENERGY OUTPUT STEPS    100000
Info: ENERGY EVALUATION STEPS    100000
Info: OUTPUT ENERGY PRECISION 4
Info: CROSSTERM ENERGY INCLUDED IN DIHEDRAL
Info: TIMING OUTPUT STEPS    1000000
Info: PRESSURE OUTPUT STEPS  100000
Info: ALCHEMICAL FEP ON
Info: FEP CURRENT LAMBDA VALUE     0
Info: FEP COMPARISON LAMBDA VALUE  0.05
Info: FEP INTRA-ALCHEMICAL NON-BONDED INTERACTIONS WILL BE RETAINED
Info: FEP INTRA-ALCHEMICAL BONDED INTERACTIONS WILL BE RETAINED
Info: FEP VDW SHIFTING COEFFICIENT 5
Info: FEP ELEC. ACTIVE FOR ANNIHILATED PARTICLES BETWEEN LAMBDA = 0 AND LAMBDA = 0.5
Info: FEP ELEC. ACTIVE FOR EXNIHILATED PARTICLES BETWEEN LAMBDA = 0.5 AND LAMBDA = 1
Info: FEP VDW ACTIVE FOR ANNIHILATED PARTICLES BETWEEN LAMBDA = 0 AND LAMBDA = 1
Info: FEP VDW ACTIVE FOR EXNIHILATED PARTICLES BETWEEN LAMBDA = 0 AND LAMBDA = 1
Info: FEP BOND ACTIVE FOR ANNIHILATED PARTICLES BETWEEN LAMBDA = 1 AND LAMBDA = 1
Info: FEP BOND ACTIVE FOR EXNIHILATED PARTICLES BETWEEN LAMBDA = 0 AND LAMBDA = 0
Info: LANGEVIN DYNAMICS ACTIVE
Info: LANGEVIN TEMPERATURE   300
Info: LANGEVIN USING BBK INTEGRATOR
Info: LANGEVIN DAMPING COEFFICIENT IS 1 INVERSE PS
Info: LANGEVIN DYNAMICS APPLIED TO HYDROGENS
Info: LANGEVIN PISTON PRESSURE CONTROL ACTIVE
Info:        TARGET PRESSURE IS 1.01325 BAR
Info:     OSCILLATION PERIOD IS 50 FS
Info:             DECAY TIME IS 25 FS
Info:     PISTON TEMPERATURE IS 300 K
Info:       PRESSURE CONTROL IS GROUP-BASED
Info:    INITIAL STRAIN RATE IS 8.69929e-05 8.69929e-05 8.69929e-05
Info:       CELL FLUCTUATION IS ISOTROPIC
Info: PARTICLE MESH EWALD (PME) ACTIVE
Info: PME TOLERANCE               1e-06
Info: PME EWALD COEFFICIENT       0.348832
Info: PME INTERPOLATION ORDER     4
Info: PME GRID DIMENSIONS         32 32 32
Info: PME MAXIMUM GRID SPACING    1
Info: PME CALCULATION WILL BE PERFORMED ON GPU
Info: FULL ELECTROSTATIC EVALUATION FREQUENCY      2
Info: USING VERLET I (r-RESPA) MTS SCHEME.
Info: C1 SPLITTING OF LONG RANGE ELECTROSTATICS
Info: PLACING ATOMS IN PATCHES BY HYDROGEN GROUPS
Info: RIGID BONDS TO HYDROGEN : ALL
Info:         ERROR TOLERANCE : 1e-08
Info:          MAX ITERATIONS : 100
Info: RIGID WATER USING SETTLE ALGORITHM
Info: RANDOM NUMBER SEED     1743889017
Info: USE HYDROGEN BONDS?    NO
Info: Using AMBER format force field!
Info: AMBER PARM FILE        mobley_4177472.prmtop
Info: COORDINATE PDB         mobley_4177472.pdb
Info: Exclusions will be read from PARM file!
Info: SCNB (VDW SCALING)     2
Info: USING ARITHMETIC MEAN TO COMBINE L-J SIGMA PARAMETERS
Info: BINARY COORDINATES     mobley_4177472_equil.coor
Info: SUMMARY OF PARAMETERS:
Info: 4 BONDS
Info: 3 ANGLES
Info:   3 HARMONIC
Info:   0 COSINE-BASED
Info: 5 DIHEDRAL
Info: 0 IMPROPER
Info: 0 CROSSTERM
Info: 0 VDW
Info: 10 VDW_PAIRS
Info: 0 NBTHOLE_PAIRS
Info: To read alchdata from file: mobley_4177472.pdb
Info: To read alchflag data from column: 5
Info: STRUCTURE SUMMARY:
Info: 2909 ATOMS
Info: 2908 BONDS
Info: 48 ANGLES
Info: 79 DIHEDRALS
Info: 0 IMPROPERS
Info: 0 CROSSTERMS
Info: 3019 EXCLUSIONS
Info: 2901 RIGID BONDS
Info: ALCH: 0 ATOMS TO DISAPPEAR IN FINAL STATE
Info: ALCH: 26 ATOMS TO APPEAR IN FINAL STATE
Info: 5826 DEGREES OF FREEDOM
Info: 969 HYDROGEN GROUPS
Info: 4 ATOMS IN LARGEST HYDROGEN GROUP
Info: 969 MIGRATION GROUPS
Info: 4 ATOMS IN LARGEST MIGRATION GROUP
Info: TOTAL MASS = 17427.6 amu
Info: TOTAL CHARGE = -0.000300046 e
Info: MASS DENSITY = 0.956669 g/cm^3
Info: ATOM DENSITY = 0.0961632 atoms/A^3
Info: ADDED 0 IMPLICIT EXCLUSIONS
Info: NONBONDED TABLE R-SQUARED SPACING: 0.0625
Info: NONBONDED TABLE SIZE: 705 POINTS
Info: REMOVING COM VELOCITY 0.0802084 0.0646618 0.00517616
Info: Use 3D box decompostion in PME FFT.
Info: Updated CUDA force table with 4096 elements.
Info: Updated CUDA LJ table with 4 x 4 elements.
Info: Found 29 unique exclusion lists needing 100 bytes
TCL: Running for 1500000 steps
ETITLE: TS BOND ANGLE DIHED IMPRP ELECT VDW BOUNDARY MISC KINETIC TOTAL TEMP POTENTIAL TOTALAVG TEMPAVG PRESSURE GPRESSURE VOLUME PRESSAVG GPRESSAVG
ENERGY: 0 4.1903 11.6944 5.2863 0.0000 -10470.6576 1380.1511 0.0000 0.0000 1766.8356 -7302.5001 305.2221 -9069.3356 -7302.5001 305.2221 -552.7014 -466.8998 30250.6675 -552.7014 -466.8998
ENERGY: 300000 2.6957 13.7486 4.7099 0.0000 -10489.2949 1392.5426 0.0000 0.0000 1762.4636 -7313.1345 304.4669 -9075.5981 -7297.4187 303.0227 -266.0349 -213.5280 29717.3167 -172.7857 -96.3958
ENERGY: 600000 5.6811 12.0260 7.2608 0.0000 -10565.7517 1474.4858 0.0000 0.0000 1691.8625 -7374.4354 292.2705 -9066.2980 -7335.0255 299.4315 370.5797 410.0762 29475.0975 -8.1958 69.9084
ENERGY: 900000 2.6705 11.4483 6.1814 0.0000 -10588.3184 1492.1974 0.0000 0.0000 1739.7989 -7336.0218 300.5515 -9075.8207 -7329.6982 299.7798 635.9932 617.9277 29497.9462 1.0301 68.9965
ENERGY: 1200000 3.7969 12.5605 8.4420 0.0000 -10520.3952 1452.7384 0.0000 0.0000 1741.7563 -7301.1010 300.8897 -9042.8573 -7333.5831 299.3328 297.7985 307.4790 29579.9684 -56.6914 9.7650
ENERGY: 1500000 3.6844 8.4522 6.5952 0.0000 -10313.8531 1223.0968 0.0000 0.0000 1742.3693 -7329.6551 300.9956 -9072.0244 -7339.0385 299.2821 -1647.4073 -1610.4241 29812.5542 -217.9790 -155.6153
TCL: Running FEP window   2: Lambda1 0.05   Lambda2 0.1    [dLambda 0.05  ]
TCL: Setting parameter firsttimestep to 0
TCL: Setting parameter alchLambda to 0.05
Info: NONBONDED TABLE R-SQUARED SPACING: 0.0625
Info: NONBONDED TABLE SIZE: 705 POINTS
TCL: Setting parameter alchLambda2 to 0.1
Info: NONBONDED TABLE R-SQUARED SPACING: 0.0625
Info: NONBONDED TABLE SIZE: 705 POINTS
TCL: Running for 1500000 steps
ETITLE: TS BOND ANGLE DIHED IMPRP ELECT VDW BOUNDARY MISC KINETIC TOTAL TEMP POTENTIAL TOTALAVG TEMPAVG PRESSURE GPRESSURE VOLUME PRESSAVG GPRESSAVG
ENERGY: 0 3.6844 8.4522 6.5952 0.0000 -10313.8508 1228.4751 0.0000 0.0000 1741.4688 -7325.1751 300.8400 -9066.6439 -7325.1751 300.8400 -1674.5035 -1601.4839 29812.5542 -1674.5035 -1601.4839
ENERGY: 300000 2.7709 14.9827 6.4226 0.0000 -10518.7640 1447.8978 0.0000 0.0000 1747.3463 -7299.3437 301.8554 -9046.6900 -7327.3394 301.4408 352.3479 378.5110 29421.3997 -537.1249 -468.5398
ENERGY: 600000 3.9371 22.3752 6.6765 0.0000 -10509.6661 1437.0040 0.0000 0.0000 1750.3016 -7289.3717 302.3659 -9039.6734 -7333.4494 299.3127 516.0243 455.5796 29267.2504 -342.3674 -287.4110
ENERGY: 900000 1.4401 21.4014 5.7542 0.0000 -10525.8332 1481.0310 0.0000 0.0000 1700.9371 -7315.2692 293.8381 -9016.2063 -7335.2900 298.6534 766.1559 801.1364 29552.4702 -294.0776 -235.4048
ENERGY: 1200000 3.8641 13.9716 6.4760 0.0000 -10444.3613 1407.8486 0.0000 0.0000 1767.4285 -7244.7724 305.3246 -9012.2010 -7326.3973 298.8901 -224.1711 -112.4612 29751.5312 -253.2109 -190.6410
ENERGY: 1500000 1.2073 13.6291 6.6613 0.0000 -10432.8128 1358.3045 0.0000 0.0000 1760.7111 -7292.2995 304.1641 -9053.0106 -7323.5285 298.9735 -282.2345 -255.3626 29810.9399 -213.9202 -154.3357
TCL: Running FEP window   3: Lambda1 0.1    Lambda2 0.15000000000000002 [dLambda 0.05000000000000002]
TCL: Setting parameter firsttimestep to 0
TCL: Setting parameter alchLambda to 0.1
Info: NONBONDED TABLE R-SQUARED SPACING: 0.0625
Info: NONBONDED TABLE SIZE: 705 POINTS
TCL: Setting parameter alchLambda2 to 0.15000000000000002
Info: NONBONDED TABLE R-SQUARED SPACING: 0.0625
Info: NONBONDED TABLE SIZE: 705 POINTS
TCL: Running for 1500000 steps
ETITLE: TS BOND ANGLE DIHED IMPRP ELECT VDW BOUNDARY MISC KINETIC TOTAL TEMP POTENTIAL TOTALAVG TEMPAVG PRESSURE GPRESSURE VOLUME PRESSAVG GPRESSAVG
ENERGY: 0 1.2073 13.6291 6.6613 0.0000 -10432.8135 1359.9576 0.0000 0.0000 1759.8380 -7291.5201 304.0133 -9051.3581 -7291.5201 304.0133 -317.3166 -244.9632 29810.9399 -317.3166 -244.9632
ENERGY: 300000 3.9339 12.5734 8.4510 0.0000 -10580.5923 1410.9058 0.0000 0.0000 1740.8461 -7403.8821 300.7324 -9144.7282 -7300.4227 301.6914 -314.5192 -238.2087 29480.3192 -431.9071 -385.4284
ENERGY: 600000 5.4239 13.5002 5.2200 0.0000 -10405.5017 1380.1883 0.0000 0.0000 1694.6523 -7306.5170 292.7524 -9001.1693 -7294.7743 300.2580 -313.6894 -256.7095 29905.8595 -244.4745 -179.2065
ENERGY: 900000 4.6097 10.4206 5.5294 0.0000 -10551.9899 1434.1188 0.0000 0.0000 1704.2232 -7393.0882 294.4058 -9097.3114 -7310.5007 301.0797 306.1676 331.8098 29127.2639 -262.9666 -193.7586
ENERGY: 1200000 1.2056 14.9637 4.8410 0.0000 -10517.6188 1434.7536 0.0000 0.0000 1724.2083 -7337.6466 297.8583 -9061.8550 -7308.3269 300.8953 223.4940 309.3911 29757.5058 -213.8654 -140.5079
ENERGY: 1500000 2.8476 13.6203 5.0187 0.0000 -10498.8582 1460.7395 0.0000 0.0000 1753.4008 -7263.2314 302.9013 -9016.6322 -7304.6986 300.7748 431.0506 426.6768 29938.1392 -156.4503 -92.1068
TCL: Running FEP window   4: Lambda1 0.15000000000000002 Lambda2 0.2    [dLambda 0.04999999999999999]
TCL: Setting parameter firsttimestep to 0
TCL: Setting parameter alchLambda to 0.15000000000000002
Info: NONBONDED TABLE R-SQUARED SPACING: 0.0625
Info: NONBONDED TABLE SIZE: 705 POINTS
TCL: Setting parameter alchLambda2 to 0.2
Info: NONBONDED TABLE R-SQUARED SPACING: 0.0625
Info: NONBONDED TABLE SIZE: 705 POINTS
TCL: Running for 1500000 steps
ETITLE: TS BOND ANGLE DIHED IMPRP ELECT VDW BOUNDARY MISC KINETIC TOTAL TEMP POTENTIAL TOTALAVG TEMPAVG PRESSURE GPRESSURE VOLUME PRESSAVG GPRESSAVG
ENERGY: 0 2.8476 13.6203 5.0187 0.0000 -10498.8590 1462.3740 0.0000 0.0000 1752.5350 -7262.4635 302.7517 -9014.9985 -7262.4635 302.7517 374.1074 442.3029 29938.1392 374.1074 442.3029
ENERGY: 300000 2.5526 12.3949 5.5512 0.0000 -10548.8570 1481.7741 0.0000 0.0000 1717.0125 -7329.5718 296.6152 -9046.5843 -7283.9090 298.0111 739.6296 731.6182 29357.3363 398.7213 441.8085
ENERGY: 600000 4.6962 11.6170 5.4035 0.0000 -10531.9547 1449.0522 0.0000 0.0000 1686.0908 -7375.0950 291.2734 -9061.1857 -7323.3766 297.8886 306.8900 353.0187 29622.3039 233.2268 294.0013
ENERGY: 900000 2.6503 10.4337 5.9962 0.0000 -10372.9851 1387.1723 0.0000 0.0000 1721.6617 -7245.0709 297.4183 -8966.7326 -7317.4996 297.8314 -67.5270 -8.3103 29801.4133 178.8318 238.4391
ENERGY: 1200000 2.7741 12.8607 5.9546 0.0000 -10574.2591 1454.8281 0.0000 0.0000 1722.7115 -7375.1300 297.5997 -9097.8415 -7320.2456 297.7734 210.1505 273.5919 29398.8701 151.0524 210.5834
ENERGY: 1500000 4.8339 11.5946 5.7144 0.0000 -10392.9682 1388.5680 0.0000 0.0000 1688.6463 -7293.6109 291.7149 -8982.2572 -7318.1141 298.1352 -9.5264 63.0046 29721.3242 172.6018 230.3519
TCL: Running FEP window   5: Lambda1 0.2    Lambda2 0.25   [dLambda 0.04999999999999999]
TCL: Setting parameter firsttimestep to 0
TCL: Setting parameter alchLambda to 0.2
Info: NONBONDED TABLE R-SQUARED SPACING: 0.0625
Info: NONBONDED TABLE SIZE: 705 POINTS
TCL: Setting parameter alchLambda2 to 0.25
Info: NONBONDED TABLE R-SQUARED SPACING: 0.0625
Info: NONBONDED TABLE SIZE: 705 POINTS
TCL: Running for 1500000 steps
ETITLE: TS BOND ANGLE DIHED IMPRP ELECT VDW BOUNDARY MISC KINETIC TOTAL TEMP POTENTIAL TOTALAVG TEMPAVG PRESSURE GPRESSURE VOLUME PRESSAVG GPRESSAVG
ENERGY: 0 4.8339 11.5946 5.7144 0.0000 -10392.9689 1388.2684 0.0000 0.0000 1687.7216 -7294.8360 291.5552 -8982.5577 -7294.8360 291.5552 -21.5103 66.8649 29721.3242 -21.5103 66.8649
ENERGY: 300000 1.8502 11.4399 4.8513 0.0000 -10659.0411 1487.8741 0.0000 0.0000 1755.2351 -7397.7905 303.2181 -9153.0256 -7343.2112 298.6877 329.9525 378.6778 29596.6351 189.3029 252.2157
ENERGY: 600000 2.4051 12.7814 6.5212 0.0000 -10438.7789 1381.5246 0.0000 0.0000 1716.3160 -7319.2306 296.4949 -9035.5466 -7340.3726 298.3077 -496.2125 -394.2755 30037.4012 75.4211 148.4340
ENERGY: 900000 2.3970 15.4637 6.6661 0.0000 -10499.7523 1459.1450 0.0000 0.0000 1783.1642 -7232.9162 308.0429 -9016.0804 -7322.6559 300.2470 97.2163 136.0288 30199.2038 -12.6084 50.3485
ENERGY: 1200000 2.8839 13.2295 7.0926 0.0000 -10473.2106 1345.8672 0.0000 0.0000 1692.5602 -7411.5771 292.3910 -9104.1372 -7334.9603 298.6062 -1155.0541 -1070.7211 30348.2063 -77.0375 -11.4209
ENERGY: 1500000 2.9207 14.5075 7.0918 0.0000 -10272.7638 1297.5830 0.0000 0.0000 1695.3277 -7255.3331 292.8691 -8950.6608 -7318.3495 299.1812 -739.5822 -703.7572 29880.4486 -101.7213 -37.1447
TCL: Running FEP window   6: Lambda1 0.25   Lambda2 0.3    [dLambda 0.04999999999999999]
TCL: Setting parameter firsttimestep to 0
TCL: Setting parameter alchLambda to 0.25
Info: NONBONDED TABLE R-SQUARED SPACING: 0.0625
Info: NONBONDED TABLE SIZE: 705 POINTS
TCL: Setting parameter alchLambda2 to 0.3
Info: NONBONDED TABLE R-SQUARED SPACING: 0.0625
Info: NONBONDED TABLE SIZE: 705 POINTS
TCL: Running for 1500000 steps
ETITLE: TS BOND ANGLE DIHED IMPRP ELECT VDW BOUNDARY MISC KINETIC TOTAL TEMP POTENTIAL TOTALAVG TEMPAVG PRESSURE GPRESSURE VOLUME PRESSAVG GPRESSAVG
ENERGY: 0 2.9207 14.5075 7.0918 0.0000 -10272.7647 1298.0012 0.0000 0.0000 1694.5048 -7255.7388 292.7269 -8950.2435 -7255.7388 292.7269 -777.7803 -696.4018 29880.4486 -777.7803 -696.4018
ENERGY: 300000 1.6348 11.2898 6.0075 0.0000 -10384.1953 1382.6490 0.0000 0.0000 1758.2950 -7224.3192 303.7467 -8982.6142 -7307.1540 300.9321 -340.6083 -233.8037 30187.7398 -445.5829 -366.6824
ENERGY: 600000 4.3398 11.3249 5.1031 0.0000 -10323.4104 1296.4299 0.0000 0.0000 1730.7769 -7275.4358 298.9930 -9006.2127 -7313.2235 300.3205 -1136.7404 -1015.6488 30257.6159 -479.0462 -392.6016
ENERGY: 900000 2.0551 17.2753 5.1700 0.0000 -10505.7780 1330.5793 0.0000 0.0000 1715.5947 -7435.1036 296.3702 -9150.6983 -7331.8638 299.1433 -992.5109 -981.7165 29962.4454 -538.2449 -468.1458
ENERGY: 1200000 3.4178 11.8629 4.7613 0.0000 -10535.0419 1409.6022 0.0000 0.0000 1697.0686 -7408.3291 293.1698 -9105.3977 -7338.1426 298.1383 -240.4296 -137.7086 29539.3295 -415.8528 -345.3681
ENERGY: 1500000 4.3381 14.1603 5.1208 0.0000 -10507.0411 1418.0830 0.0000 0.0000 1748.1818 -7317.1572 301.9997 -9065.3391 -7332.8014 299.4443 -151.6254 -67.7864 29964.6760 -328.2873 -258.6239
TCL: Running FEP window   7: Lambda1 0.3    Lambda2 0.35   [dLambda 0.04999999999999999]
TCL: Setting parameter firsttimestep to 0
TCL: Setting parameter alchLambda to 0.3
Info: NONBONDED TABLE R-SQUARED SPACING: 0.0625
Info: NONBONDED TABLE SIZE: 705 POINTS
TCL: Setting parameter alchLambda2 to 0.35
Info: NONBONDED TABLE R-SQUARED SPACING: 0.0625
Info: NONBONDED TABLE SIZE: 705 POINTS
TCL: Running for 1500000 steps
ETITLE: TS BOND ANGLE DIHED IMPRP ELECT VDW BOUNDARY MISC KINETIC TOTAL TEMP POTENTIAL TOTALAVG TEMPAVG PRESSURE GPRESSURE VOLUME PRESSAVG GPRESSAVG
ENERGY: 0 4.3381 14.1603 5.1208 0.0000 -10507.0422 1417.6505 0.0000 0.0000 1747.3332 -7318.4394 301.8531 -9065.7727 -7318.4394 301.8531 -140.5311 -64.0090 29964.6760 -140.5311 -64.0090
ENERGY: 300000 4.7471 15.0902 5.3682 0.0000 -10551.7435 1388.6236 0.0000 0.0000 1774.1777 -7363.7367 306.4905 -9137.9143 -7310.2201 304.1937 -282.3893 -224.3555 29428.4154 180.0759 252.3816
ENERGY: 600000 4.5314 10.7441 5.2875 0.0000 -10543.2270 1400.3199 0.0000 0.0000 1707.4948 -7414.8494 294.9710 -9122.3442 -7323.9121 301.6482 -270.3779 -175.3237 29628.6129 75.5539 156.7608
ENERGY: 900000 4.1300 11.3868 5.9573 0.0000 -10516.5080 1387.7890 0.0000 0.0000 1735.3431 -7371.9018 299.7818 -9107.2449 -7333.1089 300.2165 -342.1043 -276.3417 29750.6198 54.9138 124.5413
ENERGY: 1200000 3.4737 13.1328 5.5050 0.0000 -10554.3726 1458.4662 0.0000 0.0000 1745.8412 -7327.9538 301.5953 -9073.7949 -7329.2166 300.4639 287.4850 320.1715 29792.2532 67.7521 134.8114
ENERGY: 1500000 4.0071 19.3866 5.3116 0.0000 -10610.9530 1449.2660 0.0000 0.0000 1691.1657 -7441.8160 292.1501 -9132.9816 -7329.9034 300.0440 -179.6544 -110.9114 30020.2511 -21.3370 43.0699
TCL: Running FEP window   8: Lambda1 0.35   Lambda2 0.39999999999999997 [dLambda 0.04999999999999999]
TCL: Setting parameter firsttimestep to 0
TCL: Setting parameter alchLambda to 0.35
Info: NONBONDED TABLE R-SQUARED SPACING: 0.0625
Info: NONBONDED TABLE SIZE: 705 POINTS
TCL: Setting parameter alchLambda2 to 0.39999999999999997
Info: NONBONDED TABLE R-SQUARED SPACING: 0.0625
Info: NONBONDED TABLE SIZE: 705 POINTS
TCL: Running for 1500000 steps
ETITLE: TS BOND ANGLE DIHED IMPRP ELECT VDW BOUNDARY MISC KINETIC TOTAL TEMP POTENTIAL TOTALAVG TEMPAVG PRESSURE GPRESSURE VOLUME PRESSAVG GPRESSAVG
ENERGY: 0 4.0072 19.3866 5.3116 0.0000 -10610.9530 1448.9652 0.0000 0.0000 1690.2944 -7442.9880 291.9996 -9133.2824 -7442.9880 291.9996 -178.8774 -104.5033 30020.2511 -178.8774 -104.5033
ENERGY: 300000 3.2317 11.2973 7.2303 0.0000 -10542.0441 1420.3223 0.0000 0.0000 1741.1506 -7358.8119 300.7850 -9099.9625 -7373.0191 297.3832 -130.4526 8.4927 29522.4231 -31.1965 54.3953
ENERGY: 600000 2.1033 9.7719 5.8221 0.0000 -10555.0140 1464.4752 0.0000 0.0000 1745.5728 -7327.2689 301.5490 -9072.8416 -7355.8445 299.3142 388.4880 415.2495 29755.0033 -72.3885 -4.0505
ENERGY: 900000 2.6733 10.2276 5.1014 0.0000 -10417.6443 1426.3258 0.0000 0.0000 1790.4637 -7182.8525 309.3039 -8973.3162 -7316.6549 301.8919 0.6448 92.1982 30520.2999 -3.0671 68.4365
ENERGY: 1200000 2.8039 10.9542 4.5599 0.0000 -10520.1658 1450.6025 0.0000 0.0000 1729.4895 -7321.7559 298.7706 -9051.2453 -7317.4911 301.2558 68.5681 113.8182 29946.9093 -99.9326 -34.2829
ENERGY: 1500000 3.5865 14.9525 5.3411 0.0000 -10536.0675 1433.6451 0.0000 0.0000 1690.9432 -7387.5991 292.1117 -9078.5423 -7322.4298 300.1708 -386.7447 -293.8241 30455.3363 -71.3302 -3.8254
TCL: Running FEP window   9: Lambda1 0.39999999999999997 Lambda2 0.44999999999999996 [dLambda 0.04999999999999999]
TCL: Setting parameter firsttimestep to 0
TCL: Setting parameter alchLambda to 0.39999999999999997
Info: NONBONDED TABLE R-SQUARED SPACING: 0.0625
Info: NONBONDED TABLE SIZE: 705 POINTS
TCL: Setting parameter alchLambda2 to 0.44999999999999996
Info: NONBONDED TABLE R-SQUARED SPACING: 0.0625
Info: NONBONDED TABLE SIZE: 705 POINTS
TCL: Running for 1500000 steps
ETITLE: TS BOND ANGLE DIHED IMPRP ELECT VDW BOUNDARY MISC KINETIC TOTAL TEMP POTENTIAL TOTALAVG TEMPAVG PRESSURE GPRESSURE VOLUME PRESSAVG GPRESSAVG
ENERGY: 0 3.5865 14.9525 5.3411 0.0000 -10536.0671 1433.0384 0.0000 0.0000 1690.0163 -7389.1322 291.9516 -9079.1485 -7389.1322 291.9516 -375.7506 -294.1646 30455.3363 -375.7506 -294.1646
ENERGY: 300000 2.4423 15.1059 5.7400 0.0000 -10549.8143 1469.2470 0.0000 0.0000 1788.6094 -7268.6697 308.9836 -9057.2791 -7341.7125 299.8307 494.2772 582.4480 29888.4294 54.3065 120.8276
ENERGY: 600000 2.1698 16.4063 6.6802 0.0000 -10535.4347 1446.1811 0.0000 0.0000 1724.2662 -7339.7310 297.8683 -9063.9972 -7331.3177 300.9069 297.1801 359.7162 29694.7088 191.1702 252.0416
ENERGY: 900000 3.0852 13.0010 8.0659 0.0000 -10455.9560 1385.4008 0.0000 0.0000 1726.9878 -7319.4153 298.3384 -9046.4031 -7330.7998 298.9809 -92.1498 -10.0548 29744.6894 158.7627 220.7349
ENERGY: 1200000 3.8583 15.0659 6.1419 0.0000 -10468.7217 1425.8607 0.0000 0.0000 1740.0981 -7277.6968 300.6032 -9017.7949 -7324.4090 299.1545 -32.5996 -42.8065 30228.7411 74.5105 129.5134
ENERGY: 1500000 1.9275 7.9817 5.5710 0.0000 -10671.0617 1519.1345 0.0000 0.0000 1766.9631 -7369.4839 305.2442 -9136.4470 -7332.3620 299.2145 478.7685 596.8937 30050.2409 113.3147 169.7060
TCL: Running FEP window  10: Lambda1 0.44999999999999996 Lambda2 0.49999999999999994 [dLambda 0.04999999999999999]
TCL: Setting parameter firsttimestep to 0
TCL: Setting parameter alchLambda to 0.44999999999999996
Info: NONBONDED TABLE R-SQUARED SPACING: 0.0625
Info: NONBONDED TABLE SIZE: 705 POINTS
TCL: Setting parameter alchLambda2 to 0.49999999999999994
Info: NONBONDED TABLE R-SQUARED SPACING: 0.0625
Info: NONBONDED TABLE SIZE: 705 POINTS
TCL: Running for 1500000 steps
ETITLE: TS BOND ANGLE DIHED IMPRP ELECT VDW BOUNDARY MISC KINETIC TOTAL TEMP POTENTIAL TOTALAVG TEMPAVG PRESSURE GPRESSURE VOLUME PRESSAVG GPRESSAVG
ENERGY: 0 1.9275 7.9817 5.5710 0.0000 -10671.0613 1518.5980 0.0000 0.0000 1766.0946 -7370.8885 305.0941 -9136.9831 -7370.8885 305.0941 514.0743 600.0933 30050.2409 514.0743 600.0933
ENERGY: 300000 2.6163 13.7282 8.2311 0.0000 -10369.4593 1299.2306 0.0000 0.0000 1791.2908 -7254.3624 309.4468 -9045.6532 -7298.2239 304.3526 -813.8444 -771.9773 29881.2546 245.4395 305.9671
ENERGY: 600000 3.4999 15.0703 5.4022 0.0000 -10621.3321 1487.2097 0.0000 0.0000 1704.3002 -7405.8500 294.4191 -9110.1501 -7312.4799 303.0513 235.6775 334.1319 29746.5939 278.8983 346.2944
ENERGY: 900000 5.2096 15.5446 7.5024 0.0000 -10544.8346 1463.0311 0.0000 0.0000 1757.3329 -7296.2141 303.5805 -9053.5470 -7300.4584 302.9304 -35.0427 112.8583 30202.7245 144.5053 219.5617
ENERGY: 1200000 2.8384 12.3137 4.3834 0.0000 -10511.6733 1481.3341 0.0000 0.0000 1709.4999 -7301.3038 295.3174 -9010.8038 -7308.6722 301.2778 544.7480 620.3264 30034.3078 114.5048 190.2154
ENERGY: 1500000 2.5527 13.6276 6.6522 0.0000 -10522.5251 1465.7843 0.0000 0.0000 1785.8076 -7248.1006 308.4996 -9033.9082 -7299.2728 301.7792 609.8349 605.3231 29823.3745 236.5927 306.9141
TCL: Running FEP window  11: Lambda1 0.49999999999999994 Lambda2 0.5499999999999999 [dLambda 0.04999999999999999]
TCL: Setting parameter firsttimestep to 0
TCL: Setting parameter alchLambda to 0.49999999999999994
Info: NONBONDED TABLE R-SQUARED SPACING: 0.0625
Info: NONBONDED TABLE SIZE: 705 POINTS
TCL: Setting parameter alchLambda2 to 0.5499999999999999
Info: NONBONDED TABLE R-SQUARED SPACING: 0.0625
Info: NONBONDED TABLE SIZE: 705 POINTS
TCL: Running for 1500000 steps
ETITLE: TS BOND ANGLE DIHED IMPRP ELECT VDW BOUNDARY MISC KINETIC TOTAL TEMP POTENTIAL TOTALAVG TEMPAVG PRESSURE GPRESSURE VOLUME PRESSAVG GPRESSAVG
ENERGY: 0 2.5527 13.6276 6.6522 0.0000 -10522.5259 1465.5854 0.0000 0.0000 1784.9708 -7249.1371 308.3550 -9034.1079 -7249.1371 308.3550 528.4683 611.2317 29823.3745 528.4683 611.2317
ENERGY: 300000 4.0236 19.2664 6.0005 0.0000 -10506.5421 1422.7327 0.0000 0.0000 1684.2090 -7370.3099 290.9484 -9054.5189 -7330.6044 297.3200 -188.5909 -114.2556 30404.5114 -109.0602 -28.8539
ENERGY: 600000 3.5119 15.6917 4.7411 0.0000 -10588.3964 1437.2774 0.0000 0.0000 1748.3740 -7378.8004 302.0329 -9127.1744 -7368.2263 297.7092 96.7218 143.0171 29676.6531 62.8039 130.5559
ENERGY: 900000 1.0814 8.4944 6.4427 0.0000 -10554.4169 1484.4471 0.0000 0.0000 1698.1970 -7355.7542 293.3648 -9053.9513 -7371.6640 296.4016 386.9047 446.3097 30186.1899 49.6941 111.0501
ENERGY: 1200000 4.9056 12.8724 8.1425 0.0000 -10552.0596 1449.6772 0.0000 0.0000 1739.9056 -7336.5563 300.5700 -9076.4619 -7364.0806 297.2633 9.6816 122.6317 29797.1212 116.0458 173.7121
ENERGY: 1500000 2.9786 14.0873 5.5049 0.0000 -10485.3031 1416.7562 0.0000 0.0000 1701.7952 -7344.1809 293.9864 -9045.9761 -7353.3573 297.6361 -146.5597 -77.6921 30144.1371 41.7009 97.4813
TCL: Running FEP window  12: Lambda1 0.5499999999999999 Lambda2 0.6    [dLambda 0.050000000000000044]
TCL: Setting parameter firsttimestep to 0
TCL: Setting parameter alchLambda to 0.5499999999999999
Info: NONBONDED TABLE R-SQUARED SPACING: 0.0625
Info: NONBONDED TABLE SIZE: 705 POINTS
TCL: Setting parameter alchLambda2 to 0.6
Info: NONBONDED TABLE R-SQUARED SPACING: 0.0625
Info: NONBONDED TABLE SIZE: 705 POINTS
TCL: Running for 1500000 steps
ETITLE: TS BOND ANGLE DIHED IMPRP ELECT VDW BOUNDARY MISC KINETIC TOTAL TEMP POTENTIAL TOTALAVG TEMPAVG PRESSURE GPRESSURE VOLUME PRESSAVG GPRESSAVG
ENERGY: 0 2.9786 14.0873 5.5049 0.0000 -10485.2006 1416.6127 0.0000 0.0000 1700.9068 -7345.1103 293.8329 -9046.0171 -7345.1103 293.8329 -150.5228 -72.6825 30144.1371 -150.5228 -72.6825
ENERGY: 300000 1.6715 9.5689 4.5266 0.0000 -10405.2670 1364.7096 0.0000 0.0000 1732.0043 -7292.7862 299.2050 -9024.7905 -7329.2541 297.2553 -474.2608 -395.1453 30324.0942 -325.6304 -256.9413
ENERGY: 600000 5.7185 10.3930 5.6767 0.0000 -10549.3211 1400.0464 0.0000 0.0000 1763.1677 -7364.3187 304.5885 -9127.4864 -7337.2933 299.1751 -30.5105 75.8142 29183.9616 -248.7738 -177.3486
ENERGY: 900000 1.5181 11.1278 8.1344 0.0000 -10499.3369 1385.2263 0.0000 0.0000 1733.3167 -7360.0136 299.4317 -9093.3303 -7337.0379 299.8096 -376.3389 -362.2148 29831.7571 -200.2206 -142.8911
ENERGY: 1200000 2.8202 16.4458 7.2126 0.0000 -10568.6856 1420.9545 0.0000 0.0000 1723.4736 -7397.7789 297.7313 -9121.2525 -7343.9189 299.4149 -254.3755 -221.5895 30128.6608 -219.3593 -164.9822
ENERGY: 1500000 3.8859 13.7039 5.2744 0.0000 -10469.6407 1437.6957 0.0000 0.0000 1699.1853 -7309.8955 293.5355 -9009.0808 -7337.6104 299.7514 245.4170 324.0799 30207.8145 -206.0061 -143.3510
TCL: Running FEP window  13: Lambda1 0.6    Lambda2 0.65   [dLambda 0.050000000000000044]
TCL: Setting parameter firsttimestep to 0
TCL: Setting parameter alchLambda to 0.6
Info: NONBONDED TABLE R-SQUARED SPACING: 0.0625
Info: NONBONDED TABLE SIZE: 705 POINTS
TCL: Setting parameter alchLambda2 to 0.65
Info: NONBONDED TABLE R-SQUARED SPACING: 0.0625
Info: NONBONDED TABLE SIZE: 705 POINTS
TCL: Running for 1500000 steps
ETITLE: TS BOND ANGLE DIHED IMPRP ELECT VDW BOUNDARY MISC KINETIC TOTAL TEMP POTENTIAL TOTALAVG TEMPAVG PRESSURE GPRESSURE VOLUME PRESSAVG GPRESSAVG
ENERGY: 0 3.8859 13.7039 5.2744 0.0000 -10469.6121 1437.4631 0.0000 0.0000 1698.3401 -7310.9447 293.3895 -9009.2848 -7310.9447 293.3895 249.1079 332.4488 30207.8145 249.1079 332.4488
ENERGY: 300000 3.9609 9.9379 5.1045 0.0000 -10588.0462 1479.9702 0.0000 0.0000 1742.7245 -7346.3481 301.0569 -9089.0727 -7330.6783 299.7318 639.6316 678.7348 29503.7987 213.0968 295.6141
ENERGY: 600000 0.8468 16.3066 5.4607 0.0000 -10492.5158 1462.1878 0.0000 0.0000 1710.4180 -7297.2959 295.4760 -9007.7139 -7345.7302 299.0340 351.1149 500.0455 30263.4122 194.5169 277.9163
ENERGY: 900000 4.2770 14.0974 6.2061 0.0000 -10488.8412 1450.8537 0.0000 0.0000 1742.2206 -7271.1863 300.9699 -9013.4069 -7328.6105 300.2218 768.6868 790.5000 29597.8760 176.5071 243.7085
ENERGY: 1200000 3.1343 11.7923 5.2561 0.0000 -10503.0981 1429.2916 0.0000 0.0000 1776.9058 -7276.7180 306.9618 -9053.6237 -7326.6565 300.4762 116.5829 176.0571 29829.7671 86.7993 154.5001
ENERGY: 1500000 2.5958 11.8205 5.1411 0.0000 -10441.8482 1381.8898 0.0000 0.0000 1714.3355 -7326.0656 296.1527 -9040.4011 -7324.0917 300.1961 -446.1647 -355.0922 30554.2704 30.2003 98.9680
TCL: Running FEP window  14: Lambda1 0.65   Lambda2 0.7000000000000001 [dLambda 0.050000000000000044]
TCL: Setting parameter firsttimestep to 0
TCL: Setting parameter alchLambda to 0.65
Info: NONBONDED TABLE R-SQUARED SPACING: 0.0625
Info: NONBONDED TABLE SIZE: 705 POINTS
TCL: Setting parameter alchLambda2 to 0.7000000000000001
Info: NONBONDED TABLE R-SQUARED SPACING: 0.0625
Info: NONBONDED TABLE SIZE: 705 POINTS
TCL: Running for 1500000 steps
ETITLE: TS BOND ANGLE DIHED IMPRP ELECT VDW BOUNDARY MISC KINETIC TOTAL TEMP POTENTIAL TOTALAVG TEMPAVG PRESSURE GPRESSURE VOLUME PRESSAVG GPRESSAVG
ENERGY: 0 2.5958 11.8205 5.1411 0.0000 -10441.8433 1381.5879 0.0000 0.0000 1713.4628 -7327.2352 296.0020 -9040.6981 -7327.2352 296.0020 -419.0789 -345.7109 30554.2704 -419.0789 -345.7109
ENERGY: 300000 2.8965 11.8461 6.6872 0.0000 -10607.8104 1477.2413 0.0000 0.0000 1681.5268 -7427.6126 290.4850 -9109.1394 -7328.2332 301.2776 285.0621 385.4852 29664.8976 -176.5937 -99.6976
ENERGY: 600000 1.6321 12.7938 7.5565 0.0000 -10564.8070 1420.5698 0.0000 0.0000 1747.6139 -7374.6409 301.9016 -9122.2548 -7330.8509 301.4835 -95.1666 -55.3823 29879.5958 -153.3042 -94.2791
ENERGY: 900000 1.9420 11.0886 5.2952 0.0000 -10609.8555 1459.3508 0.0000 0.0000 1707.9294 -7424.2496 295.0461 -9132.1790 -7345.1447 299.8435 445.6404 603.2392 29257.7982 -176.5230 -101.9397
ENERGY: 1200000 2.1788 16.9768 5.0000 0.0000 -10338.9568 1266.7393 0.0000 0.0000 1767.7889 -7280.2730 305.3868 -9048.0619 -7335.6965 300.2891 -1308.9128 -1148.0933 30238.3644 -201.8401 -121.9752
ENERGY: 1500000 3.5509 15.3099 5.5577 0.0000 -10368.4869 1273.2052 0.0000 0.0000 1695.9694 -7374.8938 292.9800 -9070.8632 -7333.1431 300.8394 -1175.1892 -1186.9032 30117.7711 -214.3410 -142.8810
TCL: Running FEP window  15: Lambda1 0.7000000000000001 Lambda2 0.7500000000000001 [dLambda 0.050000000000000044]
TCL: Setting parameter firsttimestep to 0
TCL: Setting parameter alchLambda to 0.7000000000000001
Info: NONBONDED TABLE R-SQUARED SPACING: 0.0625
Info: NONBONDED TABLE SIZE: 705 POINTS
TCL: Setting parameter alchLambda2 to 0.7500000000000001
Info: NONBONDED TABLE R-SQUARED SPACING: 0.0625
Info: NONBONDED TABLE SIZE: 705 POINTS
TCL: Running for 1500000 steps
ETITLE: TS BOND ANGLE DIHED IMPRP ELECT VDW BOUNDARY MISC KINETIC TOTAL TEMP POTENTIAL TOTALAVG TEMPAVG PRESSURE GPRESSURE VOLUME PRESSAVG GPRESSAVG
ENERGY: 0 3.5509 15.3099 5.5577 0.0000 -10368.4765 1273.2825 0.0000 0.0000 1695.1520 -7375.6236 292.8388 -9070.7756 -7375.6236 292.8388 -1245.6374 -1174.3328 30117.7711 -1245.6374 -1174.3328
ENERGY: 300000 3.0196 14.4178 4.8475 0.0000 -10403.4750 1397.7359 0.0000 0.0000 1751.5440 -7231.9102 302.5805 -8983.4542 -7327.0440 298.7903 -104.2817 -51.8306 30076.9744 -284.8817 -249.6029
ENERGY: 600000 1.4575 23.5130 7.6549 0.0000 -10540.7223 1433.3673 0.0000 0.0000 1731.3580 -7343.3716 299.0934 -9074.7296 -7339.2435 299.5627 119.6513 207.5078 29784.1866 40.3798 87.5254
ENERGY: 900000 3.4060 16.8525 5.9505 0.0000 -10404.2340 1402.5569 0.0000 0.0000 1763.6809 -7211.7872 304.6772 -8975.4681 -7322.5265 299.8636 202.9682 251.7728 29863.4881 112.6013 169.7169
ENERGY: 1200000 3.6963 11.7070 4.2637 0.0000 -10427.2802 1408.8406 0.0000 0.0000 1706.9181 -7291.8545 294.8714 -8998.7726 -7315.1973 299.9010 -172.0159 0.1842 30118.2118 119.3521 185.2844
ENERGY: 1500000 3.2243 9.8003 6.4223 0.0000 -10504.0712 1410.6610 0.0000 0.0000 1698.4952 -7375.4681 293.4163 -9073.9633 -7324.2057 299.4978 -279.5386 -221.5210 30314.0637 41.3673 102.9647
TCL: Running FEP window  16: Lambda1 0.7500000000000001 Lambda2 0.8000000000000002 [dLambda 0.050000000000000044]
TCL: Setting parameter firsttimestep to 0
TCL: Setting parameter alchLambda to 0.7500000000000001
Info: NONBONDED TABLE R-SQUARED SPACING: 0.0625
Info: NONBONDED TABLE SIZE: 705 POINTS
TCL: Setting parameter alchLambda2 to 0.8000000000000002
Info: NONBONDED TABLE R-SQUARED SPACING: 0.0625
Info: NONBONDED TABLE SIZE: 705 POINTS
TCL: Running for 1500000 steps
ETITLE: TS BOND ANGLE DIHED IMPRP ELECT VDW BOUNDARY MISC KINETIC TOTAL TEMP POTENTIAL TOTALAVG TEMPAVG PRESSURE GPRESSURE VOLUME PRESSAVG GPRESSAVG
ENERGY: 0 3.2243 9.8003 6.4223 0.0000 -10504.0262 1411.0173 0.0000 0.0000 1697.6406 -7375.9215 293.2687 -9073.5620 -7375.9215 293.2687 -289.4182 -208.9781 30314.0637 -289.4182 -208.9781
ENERGY: 300000 4.7010 9.5194 8.4036 0.0000 -10497.4237 1418.6164 0.0000 0.0000 1735.5425 -7320.6409 299.8162 -9056.1833 -7310.9068 300.6432 176.4429 185.1068 29655.3497 -132.4885 -87.6093
ENERGY: 600000 4.6203 14.2276 5.7293 0.0000 -10440.6101 1358.3120 0.0000 0.0000 1796.3409 -7261.3800 310.3192 -9057.7209 -7290.3133 303.7147 -406.5540 -353.4016 29912.5249 -241.9231 -192.0593
ENERGY: 900000 2.4440 11.7288 7.6287 0.0000 -10524.0066 1376.4055 0.0000 0.0000 1739.2138 -7386.5857 300.4505 -9125.7995 -7308.6130 302.8498 -739.9555 -703.4033 30468.8720 -215.9477 -162.4182
ENERGY: 1200000 2.7291 11.9863 6.1655 0.0000 -10449.1391 1371.8308 0.0000 0.0000 1738.1994 -7318.2279 300.2752 -9056.4274 -7316.9666 302.5327 -612.7036 -476.4331 30278.3848 -183.9992 -122.6506
ENERGY: 1500000 2.8885 11.0649 6.5238 0.0000 -10495.7190 1394.8738 0.0000 0.0000 1696.1529 -7384.2151 293.0117 -9080.3680 -7319.8726 301.6412 -158.5868 -116.4058 29856.9021 -211.1105 -154.7529
TCL: Running FEP window  17: Lambda1 0.8000000000000002 Lambda2 0.8500000000000002 [dLambda 0.050000000000000044]
TCL: Setting parameter firsttimestep to 0
TCL: Setting parameter alchLambda to 0.8000000000000002
Info: NONBONDED TABLE R-SQUARED SPACING: 0.0625
Info: NONBONDED TABLE SIZE: 705 POINTS
TCL: Setting parameter alchLambda2 to 0.8500000000000002
Info: NONBONDED TABLE R-SQUARED SPACING: 0.0625
Info: NONBONDED TABLE SIZE: 705 POINTS
TCL: Running for 1500000 steps
ETITLE: TS BOND ANGLE DIHED IMPRP ELECT VDW BOUNDARY MISC KINETIC TOTAL TEMP POTENTIAL TOTALAVG TEMPAVG PRESSURE GPRESSURE VOLUME PRESSAVG GPRESSAVG
ENERGY: 0 2.8885 11.0649 6.5238 0.0000 -10495.6998 1396.7644 0.0000 0.0000 1695.2973 -7383.1609 292.8639 -9078.4582 -7383.1609 292.8639 -166.6684 -84.7332 29856.9021 -166.6684 -84.7332
ENERGY: 300000 3.3294 15.3019 6.1842 0.0000 -10396.6178 1292.6726 0.0000 0.0000 1662.4263 -7416.7034 287.1854 -9079.1297 -7348.6972 296.3298 -1183.8275 -1113.6366 29973.3238 -316.8386 -256.8856
ENERGY: 600000 7.1531 21.0196 5.1302 0.0000 -10687.7797 1483.6633 0.0000 0.0000 1776.2589 -7394.5547 306.8500 -9170.8136 -7333.2595 300.5375 178.0812 214.8758 29757.3373 -38.1020 23.7273
ENERGY: 900000 1.6236 14.8898 5.9438 0.0000 -10529.1516 1413.7901 0.0000 0.0000 1735.6197 -7357.2848 299.8296 -9092.9044 -7320.3132 300.6928 -107.4234 -58.3149 30094.7226 -69.2916 -13.2747
ENERGY: 1200000 4.0339 12.5449 7.9092 0.0000 -10540.1766 1492.4253 0.0000 0.0000 1791.4542 -7231.8092 309.4750 -9023.2634 -7321.9648 300.3410 846.0244 915.2484 29681.6832 23.5869 74.6024
ENERGY: 1500000 2.0982 13.4306 6.9400 0.0000 -10593.9394 1558.7057 0.0000 0.0000 1760.1372 -7252.6277 304.0650 -9012.7649 -7320.1557 300.0675 1741.5108 1813.7395 29138.2152 144.9933 204.0571
TCL: Running FEP window  18: Lambda1 0.8500000000000002 Lambda2 0.9000000000000002 [dLambda 0.050000000000000044]
TCL: Setting parameter firsttimestep to 0
TCL: Setting parameter alchLambda to 0.8500000000000002
Info: NONBONDED TABLE R-SQUARED SPACING: 0.0625
Info: NONBONDED TABLE SIZE: 705 POINTS
TCL: Setting parameter alchLambda2 to 0.9000000000000002
Info: NONBONDED TABLE R-SQUARED SPACING: 0.0625
Info: NONBONDED TABLE SIZE: 705 POINTS
TCL: Running for 1500000 steps
ETITLE: TS BOND ANGLE DIHED IMPRP ELECT VDW BOUNDARY MISC KINETIC TOTAL TEMP POTENTIAL TOTALAVG TEMPAVG PRESSURE GPRESSURE VOLUME PRESSAVG GPRESSAVG
ENERGY: 0 2.0982 13.4306 6.9400 0.0000 -10593.9308 1558.7454 0.0000 0.0000 1759.2358 -7253.4808 303.9093 -9012.7166 -7253.4808 303.9093 1743.2909 1832.0942 29138.2152 1743.2909 1832.0942
ENERGY: 300000 2.0581 11.6514 5.0786 0.0000 -10573.6961 1426.7187 0.0000 0.0000 1747.4407 -7380.7486 301.8717 -9128.1892 -7315.7119 305.0269 -72.4344 24.6960 29907.0173 424.8698 501.6615
ENERGY: 600000 3.2900 16.6318 6.1469 0.0000 -10547.7335 1437.7420 0.0000 0.0000 1811.0574 -7272.8655 312.8615 -9083.9228 -7310.0098 304.2444 100.2999 108.7629 30191.6602 258.8482 324.0825
ENERGY: 900000 5.6275 11.2365 5.2447 0.0000 -10429.0828 1355.7692 0.0000 0.0000 1715.8329 -7335.3719 296.4114 -9051.2048 -7322.2234 301.8226 -519.3374 -509.6288 30111.6200 10.1943 59.9318
ENERGY: 1200000 5.5147 14.3841 5.3416 0.0000 -10417.6872 1367.2117 0.0000 0.0000 1718.3100 -7306.9250 296.8393 -9025.2350 -7317.5212 301.5775 -340.1643 -304.2235 30180.6801 9.2675 61.5501
ENERGY: 1500000 6.7166 13.5952 6.7640 0.0000 -10420.2537 1424.4396 0.0000 0.0000 1789.4209 -7179.3173 309.1238 -8968.7382 -7314.3380 301.6198 205.3851 271.8699 30162.9812 35.5528 92.0665
TCL: Running FEP window  19: Lambda1 0.9000000000000002 Lambda2 0.9500000000000003 [dLambda 0.050000000000000044]
TCL: Setting parameter firsttimestep to 0
TCL: Setting parameter alchLambda to 0.9000000000000002
Info: NONBONDED TABLE R-SQUARED SPACING: 0.0625
Info: NONBONDED TABLE SIZE: 705 POINTS
TCL: Setting parameter alchLambda2 to 0.9500000000000003
Info: NONBONDED TABLE R-SQUARED SPACING: 0.0625
Info: NONBONDED TABLE SIZE: 705 POINTS
TCL: Running for 1500000 steps
ETITLE: TS BOND ANGLE DIHED IMPRP ELECT VDW BOUNDARY MISC KINETIC TOTAL TEMP POTENTIAL TOTALAVG TEMPAVG PRESSURE GPRESSURE VOLUME PRESSAVG GPRESSAVG
ENERGY: 0 6.7166 13.5952 6.7640 0.0000 -10420.2391 1423.9474 0.0000 0.0000 1788.5418 -7180.6741 308.9719 -8969.2159 -7180.6741 308.9719 195.1150 277.6908 30162.9812 195.1150 277.6908
ENERGY: 300000 2.1298 12.6645 5.3167 0.0000 -10457.5942 1357.1424 0.0000 0.0000 1707.2446 -7373.0963 294.9278 -9080.3409 -7286.0678 302.2479 -602.8096 -507.0453 29985.0012 -176.4568 -96.6362
ENERGY: 600000 2.7859 15.4279 4.7226 0.0000 -10391.0482 1390.7900 0.0000 0.0000 1736.3884 -7240.9333 299.9624 -8977.3217 -7287.8318 300.2143 -48.6972 -7.1170 30008.9895 -89.4770 -30.4326
ENERGY: 900000 3.8616 13.9542 6.5951 0.0000 -10401.7450 1354.0138 0.0000 0.0000 1782.4719 -7240.8484 307.9233 -9023.3203 -7288.4030 301.1813 -532.8463 -485.8937 30280.5759 -79.1623 -24.5496
ENERGY: 1200000 3.3062 16.7770 6.4353 0.0000 -10606.1932 1491.7969 0.0000 0.0000 1785.0953 -7302.7824 308.3765 -9087.8778 -7294.2562 302.3143 553.6580 631.7839 29955.8870 -89.6445 -25.7287
ENERGY: 1500000 2.7337 12.6970 4.7950 0.0000 -10614.8335 1487.5634 0.0000 0.0000 1734.3357 -7372.7088 299.6078 -9107.0445 -7307.7474 301.2770 636.0503 734.0968 29468.4678 -103.3135 -36.3717
TCL: Running FEP window  20: Lambda1 0.9500000000000003 Lambda2 1.0    [dLambda 0.04999999999999971]
TCL: Setting parameter firsttimestep to 0
TCL: Setting parameter alchLambda to 0.9500000000000003
Info: NONBONDED TABLE R-SQUARED SPACING: 0.0625
Info: NONBONDED TABLE SIZE: 705 POINTS
TCL: Setting parameter alchLambda2 to 1.0
Info: NONBONDED TABLE R-SQUARED SPACING: 0.0625
Info: NONBONDED TABLE SIZE: 705 POINTS
TCL: Running for 1500000 steps
ETITLE: TS BOND ANGLE DIHED IMPRP ELECT VDW BOUNDARY MISC KINETIC TOTAL TEMP POTENTIAL TOTALAVG TEMPAVG PRESSURE GPRESSURE VOLUME PRESSAVG GPRESSAVG
ENERGY: 0 2.7337 12.6970 4.7950 0.0000 -10614.8335 1487.7818 0.0000 0.0000 1733.4781 -7373.3480 299.4596 -9106.8261 -7373.3480 299.4596 656.9004 752.7996 29468.4678 656.9004 752.7996
ENERGY: 300000 1.6030 15.2743 6.9555 0.0000 -10458.9494 1406.4669 0.0000 0.0000 1688.0835 -7340.5661 291.6177 -9028.6497 -7337.1841 300.3275 -100.5594 -95.9652 30496.2652 338.6912 385.9567
ENERGY: 600000 3.8159 9.5179 5.7636 0.0000 -10505.2328 1410.9187 0.0000 0.0000 1724.7048 -7350.5119 297.9440 -9075.2167 -7327.4658 299.2891 -108.7633 -81.7789 29972.4086 13.9815 72.5140
ENERGY: 900000 3.8381 9.6764 5.7494 0.0000 -10450.9414 1366.3138 0.0000 0.0000 1703.9734 -7361.3902 294.3627 -9065.3637 -7321.8760 300.2532 -237.6682 -143.2546 29621.7986 -47.5516 24.1827
ENERGY: 1200000 2.0113 9.7159 4.9801 0.0000 -10695.2926 1502.5510 0.0000 0.0000 1752.4230 -7423.6114 302.7324 -9176.0344 -7325.7125 300.0727 460.2434 474.4911 29899.4261 -10.5763 56.5928
ENERGY: 1500000 4.0981 10.5414 7.6890 0.0000 -10277.6368 1326.1913 0.0000 0.0000 1752.0625 -7177.0546 302.6701 -8929.1171 -7321.9581 299.9241 -481.3030 -368.4871 30278.2363 -53.2567 13.5347
TCL: Exiting due to exit command.
