Info: SIMULATION PARAMETERS:
Info: TIMESTEP               2
Info: NUMBER OF STEPS        0
Info: STEPS PER CYCLE        10
Info: PERIODIC CELL BASIS 1  30.011 0 0
Info: PERIODIC CELL BASIS 2  0 31.2583 0
Info: PERIODIC CELL BASIS 3  0 0 31.9539
Info: PERIODIC CELL CENTER   0 0 0
Info: WRAPPING WATERS AROUND PERIODIC BOUNDARIES ON OUTPUT.
Info: WRAPPING ALL CLUSTERS AROUND PERIODIC BOUNDARIES ON OUTPUT.
Info: FIRST LDB TIMESTEP     50
Info: LAST LDB TIMESTEP     -1
Info: HOM BACKGROUND SCALING 1
Info: PME BACKGROUND SCALING 1
Info: MIN ATOMS PER PATCH    40
Info: EMPTY PATCH LOAD       40 ATOMS
Info: VELOCITY FILE          mobley_7455579_equil.vel
Info: CENTER OF MASS MOVING INITIALLY? NO
Info: DIELECTRIC             1
Info: EXCLUDE                SCALED ONE-FOUR
Info: 1-4 ELECTROSTATICS SCALED BY 0.833333
Info: MODIFIED 1-4 VDW PARAMETERS WILL BE USED
Info: DCD FILENAME           mobley_7455579_prod.dcd
Info: DCD FREQUENCY          100000
Info: DCD FIRST STEP         100000
Info: DCD FILE WILL CONTAIN UNIT CELL DATA
Info: XST FILENAME           mobley_7455579_prod.xst
Info: XST FREQUENCY          100000
Info: NO VELOCITY DCD OUTPUT
Info: NO FORCE DCD OUTPUT
Info: OUTPUT FILENAME        mobley_7455579_prod
Info: BINARY OUTPUT FILES WILL BE USED
Info: RESTART FILENAME       mobley_7455579_prod.restart
Info: RESTART FREQUENCY      100000
Info: BINARY RESTART FILES WILL BE USED
Info: CUTOFF                 9
Info: PAIRLIST DISTANCE      11
Info: PAIRLIST SHRINK RATE   0.01
Info: PAIRLIST GROW RATE     0.01
Info: PAIRLIST TRIGGER       0.3
Info: PAIRLISTS PER CYCLE    2
Info: PAIRLISTS ENABLED
Info: MARGIN                 2
Info: HYDROGEN GROUP CUTOFF  2.5
Info: PATCH DIMENSION        15.5
Info: ENERGY OUTPUT STEPS    100000
Info: ENERGY EVALUATION STEPS    100000
Info: OUTPUT ENERGY PRECISION 4
Info: CROSSTERM ENERGY INCLUDED IN DIHEDRAL
Info: TIMING OUTPUT STEPS    1000000
Info: PRESSURE OUTPUT STEPS  100000
Info: ALCHEMICAL FEP ON
Info: FEP CURRENT LAMBDA VALUE     0
Info: FEP COMPARISON LAMBDA VALUE  0.05
Info: FEP INTRA-ALCHEMICAL NON-BONDED INTERACTIONS WILL BE RETAINED
Info: FEP INTRA-ALCHEMICAL BONDED INTERACTIONS WILL BE RETAINED
Info: FEP VDW SHIFTING COEFFICIENT 5
Info: FEP ELEC. ACTIVE FOR ANNIHILATED PARTICLES BETWEEN LAMBDA = 0 AND LAMBDA = 0.5
Info: FEP ELEC. ACTIVE FOR EXNIHILATED PARTICLES BETWEEN LAMBDA = 0.5 AND LAMBDA = 1
Info: FEP VDW ACTIVE FOR ANNIHILATED PARTICLES BETWEEN LAMBDA = 0 AND LAMBDA = 1
Info: FEP VDW ACTIVE FOR EXNIHILATED PARTICLES BETWEEN LAMBDA = 0 AND LAMBDA = 1
Info: FEP BOND ACTIVE FOR ANNIHILATED PARTICLES BETWEEN LAMBDA = 1 AND LAMBDA = 1
Info: FEP BOND ACTIVE FOR EXNIHILATED PARTICLES BETWEEN LAMBDA = 0 AND LAMBDA = 0
Info: LANGEVIN DYNAMICS ACTIVE
Info: LANGEVIN TEMPERATURE   300
Info: LANGEVIN USING BBK INTEGRATOR
Info: LANGEVIN DAMPING COEFFICIENT IS 1 INVERSE PS
Info: LANGEVIN DYNAMICS APPLIED TO HYDROGENS
Info: LANGEVIN PISTON PRESSURE CONTROL ACTIVE
Info:        TARGET PRESSURE IS 1.01325 BAR
Info:     OSCILLATION PERIOD IS 50 FS
Info:             DECAY TIME IS 25 FS
Info:     PISTON TEMPERATURE IS 300 K
Info:       PRESSURE CONTROL IS GROUP-BASED
Info:    INITIAL STRAIN RATE IS 0.000191496 0.000191496 0.000191496
Info:       CELL FLUCTUATION IS ISOTROPIC
Info: PARTICLE MESH EWALD (PME) ACTIVE
Info: PME TOLERANCE               1e-06
Info: PME EWALD COEFFICIENT       0.348832
Info: PME INTERPOLATION ORDER     4
Info: PME GRID DIMENSIONS         32 32 32
Info: PME MAXIMUM GRID SPACING    1
Info: PME CALCULATION WILL BE PERFORMED ON GPU
Info: FULL ELECTROSTATIC EVALUATION FREQUENCY      2
Info: USING VERLET I (r-RESPA) MTS SCHEME.
Info: C1 SPLITTING OF LONG RANGE ELECTROSTATICS
Info: PLACING ATOMS IN PATCHES BY HYDROGEN GROUPS
Info: RIGID BONDS TO HYDROGEN : ALL
Info:         ERROR TOLERANCE : 1e-08
Info:          MAX ITERATIONS : 100
Info: RIGID WATER USING SETTLE ALGORITHM
Info: RANDOM NUMBER SEED     1743914839
Info: USE HYDROGEN BONDS?    NO
Info: Using AMBER format force field!
Info: AMBER PARM FILE        mobley_7455579.prmtop
Info: COORDINATE PDB         mobley_7455579.pdb
Info: Exclusions will be read from PARM file!
Info: SCNB (VDW SCALING)     2
Info: USING ARITHMETIC MEAN TO COMBINE L-J SIGMA PARAMETERS
Info: BINARY COORDINATES     mobley_7455579_equil.coor
Info: SUMMARY OF PARAMETERS:
Info: 9 BONDS
Info: 11 ANGLES
Info:   11 HARMONIC
Info:   0 COSINE-BASED
Info: 11 DIHEDRAL
Info: 0 IMPROPER
Info: 0 CROSSTERM
Info: 0 VDW
Info: 45 VDW_PAIRS
Info: 0 NBTHOLE_PAIRS
Info: To read alchdata from file: mobley_7455579.pdb
Info: To read alchflag data from column: 5
Info: STRUCTURE SUMMARY:
Info: 2939 ATOMS
Info: 2938 BONDS
Info: 28 ANGLES
Info: 36 DIHEDRALS
Info: 0 IMPROPERS
Info: 0 CROSSTERMS
Info: 2998 EXCLUSIONS
Info: 2932 RIGID BONDS
Info: ALCH: 0 ATOMS TO DISAPPEAR IN FINAL STATE
Info: ALCH: 17 ATOMS TO APPEAR IN FINAL STATE
Info: 5885 DEGREES OF FREEDOM
Info: 981 HYDROGEN GROUPS
Info: 4 ATOMS IN LARGEST HYDROGEN GROUP
Info: 981 MIGRATION GROUPS
Info: 4 ATOMS IN LARGEST MIGRATION GROUP
Info: TOTAL MASS = 17649.7 amu
Info: TOTAL CHARGE = 0.000199918 e
Info: MASS DENSITY = 0.977745 g/cm^3
Info: ATOM DENSITY = 0.0980456 atoms/A^3
Info: ADDED 0 IMPLICIT EXCLUSIONS
Info: NONBONDED TABLE R-SQUARED SPACING: 0.0625
Info: NONBONDED TABLE SIZE: 705 POINTS
Info: REMOVING COM VELOCITY 0.0564789 0.27162 0.108798
Info: Use 3D box decompostion in PME FFT.
Info: Updated CUDA force table with 4096 elements.
Info: Updated CUDA LJ table with 9 x 9 elements.
Info: Found 20 unique exclusion lists needing 52 bytes
TCL: Running for 1500000 steps
ETITLE: TS BOND ANGLE DIHED IMPRP ELECT VDW BOUNDARY MISC KINETIC TOTAL TEMP POTENTIAL TOTALAVG TEMPAVG PRESSURE GPRESSURE VOLUME PRESSAVG GPRESSAVG
ENERGY: 0 1.4886 6.0582 3.4498 0.0000 -10775.9756 1495.5680 0.0000 0.0000 1754.2405 -7515.1705 300.0081 -9269.4110 -7515.1705 300.0081 340.3958 435.2682 29975.8488 340.3958 435.2682
ENERGY: 300000 2.7092 7.7116 2.7159 0.0000 -10701.3147 1435.7869 0.0000 0.0000 1707.7128 -7544.6783 292.0510 -9252.3911 -7489.7904 296.4314 -436.8037 -432.6279 30615.3634 -139.5246 -79.0695
ENERGY: 600000 0.6632 9.1465 3.3367 0.0000 -10783.7067 1526.4484 0.0000 0.0000 1675.9990 -7568.1129 286.6274 -9244.1119 -7481.8233 295.2386 658.6183 707.2763 29962.3205 45.6031 89.3809
ENERGY: 900000 1.1614 4.5036 3.2935 0.0000 -10621.4271 1484.7781 0.0000 0.0000 1704.8098 -7422.8807 291.5546 -9127.6905 -7471.1149 295.9577 503.1816 529.1534 30038.4533 69.3532 111.5598
ENERGY: 1200000 2.6911 6.8196 2.5561 0.0000 -10553.7523 1387.5128 0.0000 0.0000 1709.3170 -7444.8558 292.3254 -9154.1728 -7461.0851 296.8667 -66.1373 -62.5882 29653.0216 52.3431 89.5321
ENERGY: 1500000 1.8289 5.8445 2.5851 0.0000 -10797.1626 1534.8065 0.0000 0.0000 1694.9300 -7557.1677 289.8649 -9252.0977 -7465.2432 297.3857 489.9675 603.8551 30015.8631 120.9448 165.0603
TCL: Running FEP window   2: Lambda1 0.05   Lambda2 0.1    [dLambda 0.05  ]
TCL: Setting parameter firsttimestep to 0
TCL: Setting parameter alchLambda to 0.05
Info: NONBONDED TABLE R-SQUARED SPACING: 0.0625
Info: NONBONDED TABLE SIZE: 705 POINTS
TCL: Setting parameter alchLambda2 to 0.1
Info: NONBONDED TABLE R-SQUARED SPACING: 0.0625
Info: NONBONDED TABLE SIZE: 705 POINTS
TCL: Running for 1500000 steps
ETITLE: TS BOND ANGLE DIHED IMPRP ELECT VDW BOUNDARY MISC KINETIC TOTAL TEMP POTENTIAL TOTALAVG TEMPAVG PRESSURE GPRESSURE VOLUME PRESSAVG GPRESSAVG
ENERGY: 0 1.8289 5.8445 2.5851 0.0000 -10797.1624 1536.4463 0.0000 0.0000 1694.0868 -7556.3709 289.7207 -9250.4577 -7556.3709 289.7207 531.2589 613.2735 30015.8631 531.2589 613.2735
ENERGY: 300000 3.6673 8.6078 2.6596 0.0000 -10710.3320 1459.6726 0.0000 0.0000 1684.0405 -7551.6841 288.0026 -9235.7246 -7500.7780 291.5657 47.9535 84.7058 29797.9386 274.2258 330.1221
ENERGY: 600000 1.1397 7.3710 2.8557 0.0000 -10579.7679 1379.6591 0.0000 0.0000 1730.4836 -7458.2588 295.9453 -9188.7424 -7485.4416 293.8171 -286.2562 -199.8413 29864.6193 49.2007 115.4415
ENERGY: 900000 3.1727 4.4176 3.9236 0.0000 -10711.6044 1471.8654 0.0000 0.0000 1693.0019 -7535.2231 289.5352 -9228.2250 -7487.7303 294.6107 -107.5784 -37.0295 30685.2658 -73.9574 -8.7002
ENERGY: 1200000 5.0149 9.6531 3.7928 0.0000 -10684.3009 1457.9040 0.0000 0.0000 1697.8002 -7510.1358 290.3558 -9207.9360 -7482.7987 295.6420 -185.6011 -114.1665 30435.1884 -143.3786 -81.5249
ENERGY: 1500000 2.7512 6.3788 2.2695 0.0000 -10741.9398 1487.2211 0.0000 0.0000 1735.8039 -7507.5152 296.8551 -9243.3192 -7471.7953 297.4538 443.3842 501.3028 29727.8712 -36.1277 19.6532
TCL: Running FEP window   3: Lambda1 0.1    Lambda2 0.15000000000000002 [dLambda 0.05000000000000002]
TCL: Setting parameter firsttimestep to 0
TCL: Setting parameter alchLambda to 0.1
Info: NONBONDED TABLE R-SQUARED SPACING: 0.0625
Info: NONBONDED TABLE SIZE: 705 POINTS
TCL: Setting parameter alchLambda2 to 0.15000000000000002
Info: NONBONDED TABLE R-SQUARED SPACING: 0.0625
Info: NONBONDED TABLE SIZE: 705 POINTS
TCL: Running for 1500000 steps
ETITLE: TS BOND ANGLE DIHED IMPRP ELECT VDW BOUNDARY MISC KINETIC TOTAL TEMP POTENTIAL TOTALAVG TEMPAVG PRESSURE GPRESSURE VOLUME PRESSAVG GPRESSAVG
ENERGY: 0 2.7512 6.3788 2.2695 0.0000 -10741.9412 1488.0273 0.0000 0.0000 1734.9174 -7507.5970 296.7035 -9242.5144 -7507.5970 296.7035 410.4320 506.2137 29727.8712 410.4320 506.2137
ENERGY: 300000 2.3373 8.2744 2.3820 0.0000 -10796.1786 1515.2573 0.0000 0.0000 1708.5165 -7559.4111 292.1885 -9267.9276 -7496.0888 296.1428 494.6864 599.5356 29514.5057 530.2476 603.5630
ENERGY: 600000 1.1799 5.0036 2.8288 0.0000 -10671.7765 1444.4830 0.0000 0.0000 1758.7896 -7459.4916 300.7861 -9218.2812 -7473.5711 300.5876 -59.3530 -45.6467 30339.6925 299.3330 351.6268
ENERGY: 900000 1.2401 10.1753 3.1885 0.0000 -10652.2222 1450.2054 0.0000 0.0000 1837.4984 -7349.9145 314.2468 -9187.4129 -7467.6983 301.6240 83.0752 124.8627 30225.7760 189.2193 239.9921
ENERGY: 1200000 0.8983 8.4073 6.3483 0.0000 -10574.4317 1389.1388 0.0000 0.0000 1748.5141 -7421.1249 299.0288 -9169.6390 -7466.6780 300.8601 -209.8230 -94.3421 29936.6068 172.8035 232.8170
ENERGY: 1500000 0.6646 7.9149 2.6362 0.0000 -10665.3022 1446.7823 0.0000 0.0000 1749.2854 -7458.0189 299.1607 -9207.3043 -7471.0477 300.6693 241.6932 323.9015 29884.5841 153.4735 216.3592
TCL: Running FEP window   4: Lambda1 0.15000000000000002 Lambda2 0.2    [dLambda 0.04999999999999999]
TCL: Setting parameter firsttimestep to 0
TCL: Setting parameter alchLambda to 0.15000000000000002
Info: NONBONDED TABLE R-SQUARED SPACING: 0.0625
Info: NONBONDED TABLE SIZE: 705 POINTS
TCL: Setting parameter alchLambda2 to 0.2
Info: NONBONDED TABLE R-SQUARED SPACING: 0.0625
Info: NONBONDED TABLE SIZE: 705 POINTS
TCL: Running for 1500000 steps
ETITLE: TS BOND ANGLE DIHED IMPRP ELECT VDW BOUNDARY MISC KINETIC TOTAL TEMP POTENTIAL TOTALAVG TEMPAVG PRESSURE GPRESSURE VOLUME PRESSAVG GPRESSAVG
ENERGY: 0 0.6645 7.9149 2.6362 0.0000 -10665.3018 1447.1550 0.0000 0.0000 1748.4389 -7458.4923 299.0160 -9206.9312 -7458.4923 299.0160 240.8428 332.6060 29884.5841 240.8428 332.6060
ENERGY: 300000 0.2398 9.4619 4.0938 0.0000 -10630.8876 1424.1040 0.0000 0.0000 1738.9540 -7454.0340 297.3939 -9192.9880 -7423.0357 299.9027 -230.3124 -219.4274 30567.4356 -268.8248 -192.2930
ENERGY: 600000 0.6519 8.1704 2.7744 0.0000 -10614.1018 1430.2734 0.0000 0.0000 1744.7056 -7427.5262 298.3775 -9172.2318 -7428.8682 299.5715 40.3472 73.3788 30295.8259 -81.9835 -13.6001
ENERGY: 900000 2.0241 7.4841 2.9835 0.0000 -10596.1521 1373.3300 0.0000 0.0000 1829.9543 -7380.3761 312.9566 -9210.3304 -7421.2767 301.6262 -649.5562 -617.5598 30472.2762 -23.5946 31.1872
ENERGY: 1200000 2.3573 4.8748 3.9596 0.0000 -10611.7576 1445.8859 0.0000 0.0000 1780.3735 -7374.3066 304.4774 -9154.6801 -7412.0698 302.6331 -87.4769 50.4845 30353.9422 -59.3087 5.5676
ENERGY: 1500000 2.9263 9.2850 2.0224 0.0000 -10669.1543 1498.3804 0.0000 0.0000 1777.2254 -7379.3148 303.9390 -9156.5401 -7420.2759 301.8682 328.0687 334.1392 30567.8561 -17.9432 42.1814
TCL: Running FEP window   5: Lambda1 0.2    Lambda2 0.25   [dLambda 0.04999999999999999]
TCL: Setting parameter firsttimestep to 0
TCL: Setting parameter alchLambda to 0.2
Info: NONBONDED TABLE R-SQUARED SPACING: 0.0625
Info: NONBONDED TABLE SIZE: 705 POINTS
TCL: Setting parameter alchLambda2 to 0.25
Info: NONBONDED TABLE R-SQUARED SPACING: 0.0625
Info: NONBONDED TABLE SIZE: 705 POINTS
TCL: Running for 1500000 steps
ETITLE: TS BOND ANGLE DIHED IMPRP ELECT VDW BOUNDARY MISC KINETIC TOTAL TEMP POTENTIAL TOTALAVG TEMPAVG PRESSURE GPRESSURE VOLUME PRESSAVG GPRESSAVG
ENERGY: 0 2.9263 9.2850 2.0224 0.0000 -10669.1541 1498.0363 0.0000 0.0000 1776.3561 -7380.5280 303.7903 -9156.8841 -7380.5280 303.7903 263.0805 338.5598 30567.8561 263.0805 338.5598
ENERGY: 300000 1.0676 4.5769 3.0897 0.0000 -10610.6405 1399.9873 0.0000 0.0000 1720.1809 -7481.7383 294.1833 -9201.9192 -7393.5453 302.9143 -401.5965 -447.5683 30486.9801 274.4334 312.3791
ENERGY: 600000 5.0093 6.6821 4.3397 0.0000 -10553.1847 1389.0185 0.0000 0.0000 1776.3752 -7371.7599 303.7936 -9148.1351 -7407.5280 302.3769 -490.7246 -451.1557 30256.0597 47.7755 91.7211
ENERGY: 900000 1.4117 8.2055 2.4383 0.0000 -10512.4595 1339.8291 0.0000 0.0000 1711.6075 -7448.9674 292.7171 -9160.5750 -7406.6380 300.5721 -707.6502 -689.4070 30327.1400 -237.5470 -199.2769
ENERGY: 1200000 2.9747 4.5695 2.1537 0.0000 -10580.4016 1414.0103 0.0000 0.0000 1769.1409 -7387.5525 302.5564 -9156.6935 -7406.7178 301.2160 -177.0689 -70.0914 30138.3842 -266.1766 -220.5263
ENERGY: 1500000 2.3058 5.7864 3.2955 0.0000 -10630.3174 1424.2662 0.0000 0.0000 1773.2711 -7421.3923 303.2627 -9194.6635 -7411.4578 301.4600 86.6250 83.1839 30089.0053 -264.7783 -219.1235
TCL: Running FEP window   6: Lambda1 0.25   Lambda2 0.3    [dLambda 0.04999999999999999]
TCL: Setting parameter firsttimestep to 0
TCL: Setting parameter alchLambda to 0.25
Info: NONBONDED TABLE R-SQUARED SPACING: 0.0625
Info: NONBONDED TABLE SIZE: 705 POINTS
TCL: Setting parameter alchLambda2 to 0.3
Info: NONBONDED TABLE R-SQUARED SPACING: 0.0625
Info: NONBONDED TABLE SIZE: 705 POINTS
TCL: Running for 1500000 steps
ETITLE: TS BOND ANGLE DIHED IMPRP ELECT VDW BOUNDARY MISC KINETIC TOTAL TEMP POTENTIAL TOTALAVG TEMPAVG PRESSURE GPRESSURE VOLUME PRESSAVG GPRESSAVG
ENERGY: 0 2.3058 5.7864 3.2955 0.0000 -10630.3163 1424.0664 0.0000 0.0000 1772.4045 -7422.4576 303.1145 -9194.8621 -7422.4576 303.1145 14.0467 88.2758 30089.0053 14.0467 88.2758
ENERGY: 300000 0.9676 7.2071 3.1984 0.0000 -10591.8945 1404.8428 0.0000 0.0000 1729.8828 -7445.7959 295.8425 -9175.6788 -7467.4758 299.1681 -62.4174 62.9302 30025.2808 4.6861 88.8901
ENERGY: 600000 0.7458 7.6302 2.5982 0.0000 -10713.1953 1471.3294 0.0000 0.0000 1686.7188 -7544.1730 288.4607 -9230.8918 -7478.3745 296.8584 -87.9143 -65.8830 30461.0612 0.9408 70.3342
ENERGY: 900000 0.7159 8.0745 4.0938 0.0000 -10567.0772 1356.0047 0.0000 0.0000 1746.9842 -7451.2041 298.7672 -9198.1883 -7455.9613 298.3718 -623.9249 -653.7556 30311.5849 -115.4436 -61.1263
ENERGY: 1200000 0.5110 5.5170 2.1464 0.0000 -10650.1594 1405.8173 0.0000 0.0000 1768.1673 -7468.0004 302.3899 -9236.1678 -7448.1774 298.9345 -599.4549 -532.7932 30637.4927 -62.1562 -13.8520
ENERGY: 1500000 2.2686 3.9649 1.7156 0.0000 -10552.3807 1394.0336 0.0000 0.0000 1722.8215 -7427.5766 294.6349 -9150.3980 -7439.5995 298.9688 -119.9491 -71.5684 30233.3343 -123.7280 -72.1040
TCL: Running FEP window   7: Lambda1 0.3    Lambda2 0.35   [dLambda 0.04999999999999999]
TCL: Setting parameter firsttimestep to 0
TCL: Setting parameter alchLambda to 0.3
Info: NONBONDED TABLE R-SQUARED SPACING: 0.0625
Info: NONBONDED TABLE SIZE: 705 POINTS
TCL: Setting parameter alchLambda2 to 0.35
Info: NONBONDED TABLE R-SQUARED SPACING: 0.0625
Info: NONBONDED TABLE SIZE: 705 POINTS
TCL: Running for 1500000 steps
ETITLE: TS BOND ANGLE DIHED IMPRP ELECT VDW BOUNDARY MISC KINETIC TOTAL TEMP POTENTIAL TOTALAVG TEMPAVG PRESSURE GPRESSURE VOLUME PRESSAVG GPRESSAVG
ENERGY: 0 2.2685 3.9649 1.7156 0.0000 -10552.3804 1394.2559 0.0000 0.0000 1721.9832 -7428.1922 294.4915 -9150.1754 -7428.1922 294.4915 -142.2507 -64.5739 30233.3343 -142.2507 -64.5739
ENERGY: 300000 1.8766 9.3052 3.1148 0.0000 -10674.7069 1482.2996 0.0000 0.0000 1736.4290 -7441.6816 296.9621 -9178.1106 -7441.7957 295.7470 456.2787 503.5278 30093.3051 -125.2249 -62.2176
ENERGY: 600000 2.4291 9.9938 4.3321 0.0000 -10572.2914 1373.9496 0.0000 0.0000 1746.2153 -7435.3714 298.6357 -9181.5868 -7435.9063 298.4322 -668.9023 -534.7167 30360.2587 -268.4947 -193.0108
ENERGY: 900000 2.5473 9.9541 3.5922 0.0000 -10548.1998 1403.2196 0.0000 0.0000 1720.4881 -7408.3986 294.2359 -9128.8867 -7435.5339 298.3387 -170.8120 -155.6169 30333.2303 -275.4252 -202.9575
ENERGY: 1200000 4.9645 4.2865 3.6086 0.0000 -10681.6475 1473.9887 0.0000 0.0000 1778.8410 -7415.9583 304.2153 -9194.7993 -7441.0498 298.4522 402.7937 431.6181 30121.6323 -150.0812 -82.1651
ENERGY: 1500000 1.8376 8.3461 2.2782 0.0000 -10576.7358 1367.9172 0.0000 0.0000 1753.4829 -7442.8739 299.8786 -9196.3567 -7441.6580 299.0119 -493.4487 -475.1608 30213.0544 -141.6811 -75.0263
TCL: Running FEP window   8: Lambda1 0.35   Lambda2 0.39999999999999997 [dLambda 0.04999999999999999]
TCL: Setting parameter firsttimestep to 0
TCL: Setting parameter alchLambda to 0.35
Info: NONBONDED TABLE R-SQUARED SPACING: 0.0625
Info: NONBONDED TABLE SIZE: 705 POINTS
TCL: Setting parameter alchLambda2 to 0.39999999999999997
Info: NONBONDED TABLE R-SQUARED SPACING: 0.0625
Info: NONBONDED TABLE SIZE: 705 POINTS
TCL: Running for 1500000 steps
ETITLE: TS BOND ANGLE DIHED IMPRP ELECT VDW BOUNDARY MISC KINETIC TOTAL TEMP POTENTIAL TOTALAVG TEMPAVG PRESSURE GPRESSURE VOLUME PRESSAVG GPRESSAVG
ENERGY: 0 1.8376 8.3461 2.2782 0.0000 -10576.7368 1367.8942 0.0000 0.0000 1752.6427 -7443.7380 299.7349 -9196.3807 -7443.7380 299.7349 -547.4862 -469.0620 30213.0544 -547.4862 -469.0620
ENERGY: 300000 2.1649 10.9051 2.5515 0.0000 -10673.2056 1471.0853 0.0000 0.0000 1803.2659 -7383.2329 308.3924 -9186.4988 -7423.5496 301.9733 231.2091 336.7112 30163.5757 -243.3264 -202.4707
ENERGY: 600000 2.1067 2.6816 4.4993 0.0000 -10675.9516 1451.7076 0.0000 0.0000 1735.3194 -7479.6371 296.7723 -9214.9564 -7423.9765 302.7508 321.8186 383.9388 29898.0083 -88.1456 -41.1246
ENERGY: 900000 1.5701 4.4114 3.4413 0.0000 -10557.2700 1413.5773 0.0000 0.0000 1783.8895 -7350.3805 305.0787 -9134.2700 -7417.5819 302.7992 -157.4753 -65.9944 30325.1832 -154.4687 -93.7561
ENERGY: 1200000 1.5873 4.3970 4.4803 0.0000 -10621.2904 1412.4498 0.0000 0.0000 1778.6842 -7419.6918 304.1885 -9198.3760 -7430.2575 301.9052 -24.8539 105.7553 29907.4125 -106.3297 -40.7954
ENERGY: 1500000 0.9151 9.8696 3.2084 0.0000 -10534.2348 1380.7342 0.0000 0.0000 1742.3809 -7397.1266 297.9799 -9139.5075 -7429.0372 300.9555 -297.9410 -208.1628 30060.3124 -134.5953 -64.5495
TCL: Running FEP window   9: Lambda1 0.39999999999999997 Lambda2 0.44999999999999996 [dLambda 0.04999999999999999]
TCL: Setting parameter firsttimestep to 0
TCL: Setting parameter alchLambda to 0.39999999999999997
Info: NONBONDED TABLE R-SQUARED SPACING: 0.0625
Info: NONBONDED TABLE SIZE: 705 POINTS
TCL: Setting parameter alchLambda2 to 0.44999999999999996
Info: NONBONDED TABLE R-SQUARED SPACING: 0.0625
Info: NONBONDED TABLE SIZE: 705 POINTS
TCL: Running for 1500000 steps
ETITLE: TS BOND ANGLE DIHED IMPRP ELECT VDW BOUNDARY MISC KINETIC TOTAL TEMP POTENTIAL TOTALAVG TEMPAVG PRESSURE GPRESSURE VOLUME PRESSAVG GPRESSAVG
ENERGY: 0 0.9151 9.8696 3.2084 0.0000 -10534.2353 1381.4304 0.0000 0.0000 1741.4724 -7397.3394 297.8246 -9138.8118 -7397.3394 297.8246 -272.7561 -195.8718 30060.3124 -272.7561 -195.8718
ENERGY: 300000 4.4217 6.8520 2.7500 0.0000 -10686.2376 1396.3785 0.0000 0.0000 1725.1063 -7550.7291 295.0257 -9275.8355 -7446.3894 299.3878 -538.8395 -515.6214 29865.6348 -325.6075 -247.7031
ENERGY: 600000 2.4871 8.3272 4.3356 0.0000 -10749.9055 1497.7041 0.0000 0.0000 1787.4403 -7449.6112 305.6859 -9237.0515 -7441.9583 300.3439 491.9879 578.1081 29825.0058 -149.0394 -66.3350
ENERGY: 900000 1.7975 5.0904 1.7431 0.0000 -10500.7571 1383.9663 0.0000 0.0000 1769.9752 -7338.1847 302.6991 -9108.1599 -7431.0881 301.1803 -227.5742 -146.0560 30491.0967 -242.3192 -161.0397
ENERGY: 1200000 1.1906 8.2016 3.8654 0.0000 -10712.6184 1453.8141 0.0000 0.0000 1738.6456 -7506.9012 297.3411 -9245.5467 -7430.9698 300.1727 127.5415 199.9689 30044.6909 -163.5058 -85.4199
ENERGY: 1500000 2.6030 7.6451 3.4409 0.0000 -10699.1688 1539.5311 0.0000 0.0000 1744.2636 -7401.6851 298.3019 -9145.9487 -7433.4126 299.6679 970.6872 1007.1842 30096.5174 -83.8677 -11.9998
TCL: Running FEP window  10: Lambda1 0.44999999999999996 Lambda2 0.49999999999999994 [dLambda 0.04999999999999999]
TCL: Setting parameter firsttimestep to 0
TCL: Setting parameter alchLambda to 0.44999999999999996
Info: NONBONDED TABLE R-SQUARED SPACING: 0.0625
Info: NONBONDED TABLE SIZE: 705 POINTS
TCL: Setting parameter alchLambda2 to 0.49999999999999994
Info: NONBONDED TABLE R-SQUARED SPACING: 0.0625
Info: NONBONDED TABLE SIZE: 705 POINTS
TCL: Running for 1500000 steps
ETITLE: TS BOND ANGLE DIHED IMPRP ELECT VDW BOUNDARY MISC KINETIC TOTAL TEMP POTENTIAL TOTALAVG TEMPAVG PRESSURE GPRESSURE VOLUME PRESSAVG GPRESSAVG
ENERGY: 0 2.6030 7.6451 3.4409 0.0000 -10699.1682 1539.1962 0.0000 0.0000 1743.3989 -7402.8842 298.1540 -9146.2831 -7402.8842 298.1540 930.5808 1011.3050 30096.5174 930.5808 1011.3050
ENERGY: 300000 2.1745 6.4732 2.9572 0.0000 -10485.6466 1347.8993 0.0000 0.0000 1768.9274 -7357.2149 302.5199 -9126.1424 -7396.4151 299.1300 -479.7903 -400.2739 30200.6861 239.1792 301.9675
ENERGY: 600000 2.3310 12.4219 3.8372 0.0000 -10686.1320 1452.3838 0.0000 0.0000 1777.3070 -7437.8511 303.9530 -9215.1581 -7407.8135 300.4667 -86.0646 -77.0812 30427.4048 100.1849 152.4364
ENERGY: 900000 3.5669 9.8404 3.1320 0.0000 -10530.7213 1319.0083 0.0000 0.0000 1744.3614 -7450.8124 298.3186 -9195.1738 -7418.6639 301.1214 -824.8326 -772.1558 29980.6710 43.2632 97.5101
ENERGY: 1200000 1.9722 5.9136 3.6740 0.0000 -10524.0161 1379.5920 0.0000 0.0000 1771.6105 -7361.2538 302.9788 -9132.8643 -7417.4737 300.7681 -298.9807 -272.8097 30317.4459 50.2559 102.3118
ENERGY: 1500000 1.3606 5.3075 3.8767 0.0000 -10700.0356 1469.2672 0.0000 0.0000 1692.9024 -7527.3213 289.5182 -9220.2237 -7424.2895 299.8935 42.6030 186.5704 30314.3732 46.5621 105.8425
TCL: Running FEP window  11: Lambda1 0.49999999999999994 Lambda2 0.5499999999999999 [dLambda 0.04999999999999999]
TCL: Setting parameter firsttimestep to 0
TCL: Setting parameter alchLambda to 0.49999999999999994
Info: NONBONDED TABLE R-SQUARED SPACING: 0.0625
Info: NONBONDED TABLE SIZE: 705 POINTS
TCL: Setting parameter alchLambda2 to 0.5499999999999999
Info: NONBONDED TABLE R-SQUARED SPACING: 0.0625
Info: NONBONDED TABLE SIZE: 705 POINTS
TCL: Running for 1500000 steps
ETITLE: TS BOND ANGLE DIHED IMPRP ELECT VDW BOUNDARY MISC KINETIC TOTAL TEMP POTENTIAL TOTALAVG TEMPAVG PRESSURE GPRESSURE VOLUME PRESSAVG GPRESSAVG
ENERGY: 0 1.3606 5.3075 3.8767 0.0000 -10700.0358 1468.9504 0.0000 0.0000 1692.0573 -7528.4832 289.3737 -9220.5406 -7528.4832 289.3737 106.4383 193.0612 30314.3732 106.4383 193.0612
ENERGY: 300000 2.4848 7.1877 4.2862 0.0000 -10610.5354 1508.6055 0.0000 0.0000 1785.4642 -7302.5071 305.3480 -9087.9713 -7419.3140 300.2317 1307.4872 1257.0890 29996.2632 374.5421 417.8747
ENERGY: 600000 5.3407 11.2137 1.9992 0.0000 -10660.8446 1452.2582 0.0000 0.0000 1717.9369 -7472.0959 293.7996 -9190.0328 -7442.9150 300.5822 -52.7721 17.0630 30515.3515 94.7009 149.4738
ENERGY: 900000 1.1754 11.7770 4.3356 0.0000 -10622.5493 1408.6095 0.0000 0.0000 1808.6823 -7387.9694 309.3187 -9196.6518 -7437.6180 300.2924 -327.1863 -272.0163 30711.2755 38.0754 93.1333
ENERGY: 1200000 2.9689 6.5376 3.3018 0.0000 -10612.7588 1392.4704 0.0000 0.0000 1751.4750 -7456.0051 299.5352 -9207.4800 -7437.0140 300.2945 -301.5923 -294.8145 30150.0568 11.6130 57.2138
ENERGY: 1500000 1.9951 6.7457 1.9951 0.0000 -10471.5269 1363.4504 0.0000 0.0000 1741.2739 -7356.0667 297.7906 -9097.3406 -7439.6382 299.3934 -576.9215 -506.3943 30669.8470 -37.1271 10.2294
TCL: Running FEP window  12: Lambda1 0.5499999999999999 Lambda2 0.6    [dLambda 0.050000000000000044]
TCL: Setting parameter firsttimestep to 0
TCL: Setting parameter alchLambda to 0.5499999999999999
Info: NONBONDED TABLE R-SQUARED SPACING: 0.0625
Info: NONBONDED TABLE SIZE: 705 POINTS
TCL: Setting parameter alchLambda2 to 0.6
Info: NONBONDED TABLE R-SQUARED SPACING: 0.0625
Info: NONBONDED TABLE SIZE: 705 POINTS
TCL: Running for 1500000 steps
ETITLE: TS BOND ANGLE DIHED IMPRP ELECT VDW BOUNDARY MISC KINETIC TOTAL TEMP POTENTIAL TOTALAVG TEMPAVG PRESSURE GPRESSURE VOLUME PRESSAVG GPRESSAVG
ENERGY: 0 1.9951 6.7457 1.9951 0.0000 -10471.0255 1363.0165 0.0000 0.0000 1740.4147 -7356.8585 297.6437 -9097.2732 -7356.8585 297.6437 -576.5179 -504.6839 30669.8470 -576.5179 -504.6839
ENERGY: 300000 2.2151 8.7563 3.9186 0.0000 -10675.7682 1485.0273 0.0000 0.0000 1740.9062 -7434.9448 297.7277 -9175.8510 -7420.3136 297.3661 597.2470 662.3963 29953.9897 -119.6073 -62.7585
ENERGY: 600000 2.1105 9.5894 2.1528 0.0000 -10558.8457 1406.7478 0.0000 0.0000 1776.8831 -7361.3623 303.8805 -9138.2454 -7410.1585 300.0849 -381.2644 -338.3610 30874.0906 -218.5792 -155.1856
ENERGY: 900000 0.7218 10.0744 2.8506 0.0000 -10707.4887 1425.0714 0.0000 0.0000 1771.3583 -7497.4121 302.9356 -9268.7704 -7412.0733 301.0449 -373.3112 -255.3508 30439.5260 -169.2981 -93.5581
ENERGY: 1200000 2.1760 10.9766 2.6264 0.0000 -10696.9592 1381.3580 0.0000 0.0000 1721.9993 -7577.8230 294.4943 -9299.8222 -7430.1092 300.5054 -539.1684 -477.8097 29865.7818 -232.6018 -160.4573
ENERGY: 1500000 0.9969 3.5407 3.7035 0.0000 -10693.0440 1464.4555 0.0000 0.0000 1793.9455 -7426.4019 306.7984 -9220.3474 -7440.3853 300.3438 283.0258 315.8925 30206.1359 -158.1521 -86.6131
TCL: Running FEP window  13: Lambda1 0.6    Lambda2 0.65   [dLambda 0.050000000000000044]
TCL: Setting parameter firsttimestep to 0
TCL: Setting parameter alchLambda to 0.6
Info: NONBONDED TABLE R-SQUARED SPACING: 0.0625
Info: NONBONDED TABLE SIZE: 705 POINTS
TCL: Setting parameter alchLambda2 to 0.65
Info: NONBONDED TABLE R-SQUARED SPACING: 0.0625
Info: NONBONDED TABLE SIZE: 705 POINTS
TCL: Running for 1500000 steps
ETITLE: TS BOND ANGLE DIHED IMPRP ELECT VDW BOUNDARY MISC KINETIC TOTAL TEMP POTENTIAL TOTALAVG TEMPAVG PRESSURE GPRESSURE VOLUME PRESSAVG GPRESSAVG
ENERGY: 0 0.9969 3.5407 3.7035 0.0000 -10693.1951 1464.4768 0.0000 0.0000 1793.0684 -7427.4088 306.6484 -9220.4772 -7427.4088 306.6484 240.3213 322.7430 30206.1359 240.3213 322.7430
ENERGY: 300000 3.1506 12.1373 3.2325 0.0000 -10555.9648 1339.7595 0.0000 0.0000 1694.9412 -7502.7437 289.8669 -9197.6849 -7479.4656 299.0880 -852.0487 -801.7343 30269.6999 -255.1573 -190.9881
ENERGY: 600000 2.3354 7.5965 2.6130 0.0000 -10639.9029 1453.2366 0.0000 0.0000 1666.2624 -7507.8590 284.9622 -9174.1214 -7472.9765 298.2125 258.4050 371.8599 29945.8102 -224.6011 -163.8535
ENERGY: 900000 2.0683 7.6740 3.5755 0.0000 -10450.2285 1400.2887 0.0000 0.0000 1692.4202 -7344.2017 289.4357 -9036.6220 -7450.3984 298.1299 13.5723 102.9460 30445.4396 -176.0138 -116.8810
ENERGY: 1200000 0.6681 6.0007 3.7623 0.0000 -10630.2249 1464.5978 0.0000 0.0000 1805.3252 -7349.8708 308.7446 -9155.1959 -7444.8759 299.1905 113.8638 216.4372 30642.4834 -174.0653 -106.9404
ENERGY: 1500000 3.1564 8.5737 1.6597 0.0000 -10642.0902 1452.2530 0.0000 0.0000 1750.3098 -7426.1376 299.3359 -9176.4474 -7449.9805 298.9067 201.1027 257.1813 30496.0809 -166.3719 -100.6769
TCL: Running FEP window  14: Lambda1 0.65   Lambda2 0.7000000000000001 [dLambda 0.050000000000000044]
TCL: Setting parameter firsttimestep to 0
TCL: Setting parameter alchLambda to 0.65
Info: NONBONDED TABLE R-SQUARED SPACING: 0.0625
Info: NONBONDED TABLE SIZE: 705 POINTS
TCL: Setting parameter alchLambda2 to 0.7000000000000001
Info: NONBONDED TABLE R-SQUARED SPACING: 0.0625
Info: NONBONDED TABLE SIZE: 705 POINTS
TCL: Running for 1500000 steps
ETITLE: TS BOND ANGLE DIHED IMPRP ELECT VDW BOUNDARY MISC KINETIC TOTAL TEMP POTENTIAL TOTALAVG TEMPAVG PRESSURE GPRESSURE VOLUME PRESSAVG GPRESSAVG
ENERGY: 0 3.1564 8.5737 1.6597 0.0000 -10642.0341 1452.7629 0.0000 0.0000 1749.4547 -7426.4266 299.1897 -9175.8813 -7426.4266 299.1897 184.3534 271.3233 30496.0809 184.3534 271.3233
ENERGY: 300000 2.0352 6.9062 4.0065 0.0000 -10746.3873 1495.4980 0.0000 0.0000 1766.2549 -7471.6865 302.0628 -9237.9414 -7436.5104 299.6012 789.8537 916.3508 29371.0115 148.2655 225.8092
ENERGY: 600000 1.9224 6.3717 3.5588 0.0000 -10617.9784 1412.7734 0.0000 0.0000 1743.2848 -7450.0672 298.1345 -9193.3521 -7426.7576 300.4070 -101.1671 11.4067 30116.4833 39.5974 114.0180
ENERGY: 900000 2.5164 6.8710 3.0828 0.0000 -10543.2461 1382.7311 0.0000 0.0000 1782.2642 -7365.7806 304.8007 -9148.0448 -7419.0826 300.7393 -56.9341 3.1596 29678.3682 -13.8815 63.3364
ENERGY: 1200000 0.7406 11.7723 2.1986 0.0000 -10667.9043 1462.2208 0.0000 0.0000 1750.1518 -7440.8201 299.3089 -9190.9719 -7425.2081 299.2558 498.8344 480.8014 29553.1966 -18.4809 47.5530
ENERGY: 1500000 1.7842 8.6783 3.2460 0.0000 -10583.8070 1367.9594 0.0000 0.0000 1769.7885 -7432.3506 302.6671 -9202.1390 -7421.8445 299.8962 -816.6466 -762.8446 30781.9300 -127.6504 -72.3005
TCL: Running FEP window  15: Lambda1 0.7000000000000001 Lambda2 0.7500000000000001 [dLambda 0.050000000000000044]
TCL: Setting parameter firsttimestep to 0
TCL: Setting parameter alchLambda to 0.7000000000000001
Info: NONBONDED TABLE R-SQUARED SPACING: 0.0625
Info: NONBONDED TABLE SIZE: 705 POINTS
TCL: Setting parameter alchLambda2 to 0.7500000000000001
Info: NONBONDED TABLE R-SQUARED SPACING: 0.0625
Info: NONBONDED TABLE SIZE: 705 POINTS
TCL: Running for 1500000 steps
ETITLE: TS BOND ANGLE DIHED IMPRP ELECT VDW BOUNDARY MISC KINETIC TOTAL TEMP POTENTIAL TOTALAVG TEMPAVG PRESSURE GPRESSURE VOLUME PRESSAVG GPRESSAVG
ENERGY: 0 1.7842 8.6783 3.2460 0.0000 -10584.6571 1368.2797 0.0000 0.0000 1768.9355 -7433.7334 302.5213 -9202.6689 -7433.7334 302.5213 -835.3223 -752.0087 30781.9300 -835.3223 -752.0087
ENERGY: 300000 2.6932 6.1144 3.8164 0.0000 -10664.4845 1475.8704 0.0000 0.0000 1780.3840 -7395.6062 304.4792 -9175.9902 -7436.2625 302.4078 518.1471 487.1271 30451.1002 -348.4368 -322.3239
ENERGY: 600000 0.7474 4.4874 4.9919 0.0000 -10663.0946 1407.0652 0.0000 0.0000 1674.3417 -7571.4611 286.3440 -9245.8028 -7460.4969 297.8485 -152.5483 -57.7774 29707.7914 -356.6247 -311.2719
ENERGY: 900000 1.6914 5.6420 2.6232 0.0000 -10705.4490 1517.4414 0.0000 0.0000 1718.7743 -7459.2766 293.9428 -9178.0509 -7469.5395 298.1757 568.8121 684.7658 30302.9204 -286.9429 -231.4388
ENERGY: 1200000 1.4936 5.5628 3.5780 0.0000 -10665.6765 1440.3860 0.0000 0.0000 1752.6356 -7462.0206 299.7337 -9214.6562 -7462.4880 298.5463 -120.8844 -5.8704 30422.9680 -304.3175 -233.8000
ENERGY: 1500000 1.3993 7.6600 4.1852 0.0000 -10700.7920 1474.9874 0.0000 0.0000 1778.7332 -7433.8269 304.1969 -9212.5602 -7468.5038 297.7849 454.9890 569.9907 29739.5247 -251.4262 -184.7689
TCL: Running FEP window  16: Lambda1 0.7500000000000001 Lambda2 0.8000000000000002 [dLambda 0.050000000000000044]
TCL: Setting parameter firsttimestep to 0
TCL: Setting parameter alchLambda to 0.7500000000000001
Info: NONBONDED TABLE R-SQUARED SPACING: 0.0625
Info: NONBONDED TABLE SIZE: 705 POINTS
TCL: Setting parameter alchLambda2 to 0.8000000000000002
Info: NONBONDED TABLE R-SQUARED SPACING: 0.0625
Info: NONBONDED TABLE SIZE: 705 POINTS
TCL: Running for 1500000 steps
ETITLE: TS BOND ANGLE DIHED IMPRP ELECT VDW BOUNDARY MISC KINETIC TOTAL TEMP POTENTIAL TOTALAVG TEMPAVG PRESSURE GPRESSURE VOLUME PRESSAVG GPRESSAVG
ENERGY: 0 1.3993 7.6600 4.1852 0.0000 -10701.6632 1474.7595 0.0000 0.0000 1777.8924 -7435.7669 304.0531 -9213.6593 -7435.7669 304.0531 497.0339 575.4582 29739.5247 497.0339 575.4582
ENERGY: 300000 2.3674 7.0457 1.9679 0.0000 -10641.5234 1477.3864 0.0000 0.0000 1752.9792 -7399.7768 299.7924 -9152.7560 -7435.6290 298.9876 432.9103 563.1688 30422.9623 90.1955 162.8080
ENERGY: 600000 3.6020 8.0986 3.3660 0.0000 -10587.8063 1385.5327 0.0000 0.0000 1718.1503 -7469.0567 293.8360 -9187.2070 -7446.5495 297.9944 -485.4214 -404.6647 30419.8654 -123.4113 -57.0162
ENERGY: 900000 3.4092 7.3194 2.7131 0.0000 -10521.7696 1384.0080 0.0000 0.0000 1803.4991 -7320.8208 308.4323 -9124.3199 -7438.0366 299.1261 -138.0111 -111.0062 30357.9853 -97.8867 -32.4722
ENERGY: 1200000 0.4853 5.7966 2.7554 0.0000 -10670.4763 1479.9810 0.0000 0.0000 1712.7313 -7468.7267 292.9093 -9181.4580 -7434.6562 299.3789 481.7601 532.7723 30073.5630 -45.2030 17.9984
ENERGY: 1500000 2.4035 7.8353 4.3697 0.0000 -10679.6765 1496.7260 0.0000 0.0000 1804.8239 -7363.5181 308.6589 -9168.3420 -7418.5972 300.1712 935.1857 1032.3002 29760.5198 -0.4638 67.1366
TCL: Running FEP window  17: Lambda1 0.8000000000000002 Lambda2 0.8500000000000002 [dLambda 0.050000000000000044]
TCL: Setting parameter firsttimestep to 0
TCL: Setting parameter alchLambda to 0.8000000000000002
Info: NONBONDED TABLE R-SQUARED SPACING: 0.0625
Info: NONBONDED TABLE SIZE: 705 POINTS
TCL: Setting parameter alchLambda2 to 0.8500000000000002
Info: NONBONDED TABLE R-SQUARED SPACING: 0.0625
Info: NONBONDED TABLE SIZE: 705 POINTS
TCL: Running for 1500000 steps
ETITLE: TS BOND ANGLE DIHED IMPRP ELECT VDW BOUNDARY MISC KINETIC TOTAL TEMP POTENTIAL TOTALAVG TEMPAVG PRESSURE GPRESSURE VOLUME PRESSAVG GPRESSAVG
ENERGY: 0 2.4035 7.8353 4.3697 0.0000 -10680.8968 1498.1662 0.0000 0.0000 1803.9707 -7364.1515 308.5129 -9168.1221 -7364.1515 308.5129 976.3171 1061.9642 29760.5198 976.3171 1061.9642
ENERGY: 300000 4.5588 7.2731 4.1508 0.0000 -10548.5391 1404.8736 0.0000 0.0000 1724.5878 -7403.0950 294.9370 -9127.6828 -7403.2678 300.6714 -222.2945 -162.4786 30509.1965 259.9039 367.3474
ENERGY: 600000 5.3223 7.0514 3.1223 0.0000 -10744.8449 1477.2370 0.0000 0.0000 1751.6624 -7500.4495 299.5672 -9252.1119 -7433.0983 300.1888 300.0251 364.6271 30179.7723 -75.5561 4.6267
ENERGY: 900000 1.9318 9.9843 2.1222 0.0000 -10514.6436 1366.7948 0.0000 0.0000 1740.4623 -7393.3481 297.6518 -9133.8105 -7430.5098 299.6990 -263.0946 -211.9020 30158.4252 -136.0153 -63.0696
ENERGY: 1200000 1.3962 6.1804 4.5822 0.0000 -10713.9815 1454.2433 0.0000 0.0000 1810.3292 -7437.2502 309.6004 -9247.5795 -7439.4401 300.3464 323.3678 330.3805 29760.5957 -68.9931 -5.0081
ENERGY: 1500000 2.0522 6.5405 3.6147 0.0000 -10632.4773 1469.2309 0.0000 0.0000 1726.4167 -7424.6223 295.2498 -9151.0390 -7444.2750 300.2700 660.5565 678.3900 29872.1868 22.1926 76.4351
TCL: Running FEP window  18: Lambda1 0.8500000000000002 Lambda2 0.9000000000000002 [dLambda 0.050000000000000044]
TCL: Setting parameter firsttimestep to 0
TCL: Setting parameter alchLambda to 0.8500000000000002
Info: NONBONDED TABLE R-SQUARED SPACING: 0.0625
Info: NONBONDED TABLE SIZE: 705 POINTS
TCL: Setting parameter alchLambda2 to 0.9000000000000002
Info: NONBONDED TABLE R-SQUARED SPACING: 0.0625
Info: NONBONDED TABLE SIZE: 705 POINTS
TCL: Running for 1500000 steps
ETITLE: TS BOND ANGLE DIHED IMPRP ELECT VDW BOUNDARY MISC KINETIC TOTAL TEMP POTENTIAL TOTALAVG TEMPAVG PRESSURE GPRESSURE VOLUME PRESSAVG GPRESSAVG
ENERGY: 0 2.0522 6.5405 3.6147 0.0000 -10633.0385 1469.4893 0.0000 0.0000 1725.5757 -7425.7662 295.1059 -9151.3419 -7425.7662 295.1059 609.2769 689.1718 29872.1868 609.2769 689.1718
ENERGY: 300000 2.1905 7.9870 4.5128 0.0000 -10733.0038 1499.4937 0.0000 0.0000 1716.1615 -7502.6582 293.4959 -9218.8197 -7468.3286 295.3524 893.0651 939.0717 29595.4312 476.8994 556.4075
ENERGY: 600000 1.1997 9.0010 4.3365 0.0000 -10634.5718 1398.7936 0.0000 0.0000 1754.4118 -7466.8292 300.0374 -9221.2410 -7469.0833 297.2534 -445.6400 -360.9922 30610.6548 108.8414 184.3325
ENERGY: 900000 1.4055 6.1082 4.2608 0.0000 -10638.1887 1420.7254 0.0000 0.0000 1764.2135 -7441.4753 301.7137 -9205.6887 -7452.5994 297.8598 -442.6239 -357.2942 30765.7897 -83.8857 -12.9701
ENERGY: 1200000 2.6481 7.1702 3.8071 0.0000 -10625.4813 1442.4522 0.0000 0.0000 1726.1822 -7443.2215 295.2096 -9169.4036 -7449.3626 297.9472 43.6726 33.2850 30461.4178 -73.7369 -9.1800
ENERGY: 1500000 2.6956 7.2556 2.2534 0.0000 -10672.2424 1462.3361 0.0000 0.0000 1780.7736 -7416.9281 304.5458 -9197.7017 -7449.6560 298.4797 31.6455 141.4475 30407.7872 -94.8333 -30.0243
TCL: Running FEP window  19: Lambda1 0.9000000000000002 Lambda2 0.9500000000000003 [dLambda 0.050000000000000044]
TCL: Setting parameter firsttimestep to 0
TCL: Setting parameter alchLambda to 0.9000000000000002
Info: NONBONDED TABLE R-SQUARED SPACING: 0.0625
Info: NONBONDED TABLE SIZE: 705 POINTS
TCL: Setting parameter alchLambda2 to 0.9500000000000003
Info: NONBONDED TABLE R-SQUARED SPACING: 0.0625
Info: NONBONDED TABLE SIZE: 705 POINTS
TCL: Running for 1500000 steps
ETITLE: TS BOND ANGLE DIHED IMPRP ELECT VDW BOUNDARY MISC KINETIC TOTAL TEMP POTENTIAL TOTALAVG TEMPAVG PRESSURE GPRESSURE VOLUME PRESSAVG GPRESSAVG
ENERGY: 0 2.6956 7.2556 2.2534 0.0000 -10673.6932 1462.3595 0.0000 0.0000 1779.9225 -7419.2065 304.4003 -9199.1290 -7419.2065 304.4003 65.9817 151.0280 30407.7872 65.9817 151.0280
ENERGY: 300000 0.8439 8.2558 4.0033 0.0000 -10536.5529 1338.1917 0.0000 0.0000 1812.4858 -7372.7724 309.9692 -9185.2582 -7409.0092 303.1468 -525.9819 -371.6091 29871.8369 -70.9328 6.1586
ENERGY: 600000 1.5891 6.2016 3.4812 0.0000 -10712.6291 1476.5402 0.0000 0.0000 1718.8931 -7505.9239 293.9631 -9224.8170 -7419.1518 301.2763 272.2328 303.9052 30314.0159 -83.5803 -8.8454
ENERGY: 900000 2.2406 6.8799 3.7171 0.0000 -10632.5135 1439.9976 0.0000 0.0000 1766.9791 -7412.6991 302.1867 -9179.6782 -7430.9279 300.5340 51.4141 151.1434 30275.9297 -17.4338 50.2776
ENERGY: 1200000 1.5428 8.9787 4.2931 0.0000 -10546.9286 1402.6776 0.0000 0.0000 1826.0088 -7303.4276 312.2819 -9129.4364 -7432.4919 300.9011 -6.5282 49.2427 30334.6993 -41.2113 31.2720
ENERGY: 1500000 1.7230 6.6917 2.9343 0.0000 -10658.5317 1476.5803 0.0000 0.0000 1754.0721 -7416.5302 299.9794 -9170.6024 -7426.5880 301.3582 292.4784 372.1430 30502.5014 22.8650 97.4204
TCL: Running FEP window  20: Lambda1 0.9500000000000003 Lambda2 1.0    [dLambda 0.04999999999999971]
TCL: Setting parameter firsttimestep to 0
TCL: Setting parameter alchLambda to 0.9500000000000003
Info: NONBONDED TABLE R-SQUARED SPACING: 0.0625
Info: NONBONDED TABLE SIZE: 705 POINTS
TCL: Setting parameter alchLambda2 to 1.0
Info: NONBONDED TABLE R-SQUARED SPACING: 0.0625
Info: NONBONDED TABLE SIZE: 705 POINTS
TCL: Running for 1500000 steps
ETITLE: TS BOND ANGLE DIHED IMPRP ELECT VDW BOUNDARY MISC KINETIC TOTAL TEMP POTENTIAL TOTALAVG TEMPAVG PRESSURE GPRESSURE VOLUME PRESSAVG GPRESSAVG
ENERGY: 0 1.7230 6.6917 2.9343 0.0000 -10659.6103 1476.3297 0.0000 0.0000 1753.1845 -7418.7471 299.8275 -9171.9316 -7418.7471 299.8275 291.0979 379.5168 30502.5014 291.0979 379.5168
ENERGY: 300000 2.4130 10.2330 4.3832 0.0000 -10605.9310 1332.8779 0.0000 0.0000 1766.0363 -7489.9876 302.0254 -9256.0239 -7488.9549 303.1777 -1343.6499 -1223.6420 31070.4165 -565.2593 -466.4601
ENERGY: 600000 6.9096 6.0034 3.6027 0.0000 -10739.1769 1433.6771 0.0000 0.0000 1784.8461 -7504.1380 305.2423 -9288.9842 -7483.1267 301.2946 -288.0866 -218.1726 30084.5609 -400.1809 -317.3660
ENERGY: 900000 1.7790 6.1732 3.8137 0.0000 -10635.3581 1423.9439 0.0000 0.0000 1720.9022 -7478.7459 294.3067 -9199.6482 -7471.6049 299.4435 -0.5824 105.6602 30162.5498 -218.5531 -141.6992
ENERGY: 1200000 2.5735 9.0066 2.5075 0.0000 -10762.8907 1456.9821 0.0000 0.0000 1727.9004 -7563.9205 295.5035 -9291.8210 -7480.9661 299.6366 270.4957 367.1736 29585.1440 -175.3362 -102.1259
ENERGY: 1500000 3.4859 13.1725 5.0746 0.0000 -10550.2537 1342.8203 0.0000 0.0000 1712.9715 -7472.7289 292.9504 -9185.7004 -7470.7882 299.8301 -652.0756 -662.8423 30398.8735 -113.9881 -48.5340
TCL: Exiting due to exit command.
