Info: SIMULATION PARAMETERS:
Info: TIMESTEP               2
Info: NUMBER OF STEPS        0
Info: STEPS PER CYCLE        10
Info: PERIODIC CELL BASIS 1  32.3205 0 0
Info: PERIODIC CELL BASIS 2  0 30.2607 0
Info: PERIODIC CELL BASIS 3  0 0 31.553
Info: PERIODIC CELL CENTER   0 0 0
Info: WRAPPING WATERS AROUND PERIODIC BOUNDARIES ON OUTPUT.
Info: WRAPPING ALL CLUSTERS AROUND PERIODIC BOUNDARIES ON OUTPUT.
Info: FIRST LDB TIMESTEP     50
Info: LAST LDB TIMESTEP     -1
Info: HOM BACKGROUND SCALING 1
Info: PME BACKGROUND SCALING 1
Info: MIN ATOMS PER PATCH    40
Info: EMPTY PATCH LOAD       40 ATOMS
Info: VELOCITY FILE          mobley_4620651_equil.vel
Info: CENTER OF MASS MOVING INITIALLY? NO
Info: DIELECTRIC             1
Info: EXCLUDE                SCALED ONE-FOUR
Info: 1-4 ELECTROSTATICS SCALED BY 0.833333
Info: MODIFIED 1-4 VDW PARAMETERS WILL BE USED
Info: DCD FILENAME           mobley_4620651_prod.dcd
Info: DCD FREQUENCY          100000
Info: DCD FIRST STEP         100000
Info: DCD FILE WILL CONTAIN UNIT CELL DATA
Info: XST FILENAME           mobley_4620651_prod.xst
Info: XST FREQUENCY          100000
Info: NO VELOCITY DCD OUTPUT
Info: NO FORCE DCD OUTPUT
Info: OUTPUT FILENAME        mobley_4620651_prod
Info: BINARY OUTPUT FILES WILL BE USED
Info: RESTART FILENAME       mobley_4620651_prod.restart
Info: RESTART FREQUENCY      100000
Info: BINARY RESTART FILES WILL BE USED
Info: CUTOFF                 9
Info: PAIRLIST DISTANCE      11
Info: PAIRLIST SHRINK RATE   0.01
Info: PAIRLIST GROW RATE     0.01
Info: PAIRLIST TRIGGER       0.3
Info: PAIRLISTS PER CYCLE    2
Info: PAIRLISTS ENABLED
Info: MARGIN                 2
Info: HYDROGEN GROUP CUTOFF  2.5
Info: PATCH DIMENSION        15.5
Info: ENERGY OUTPUT STEPS    100000
Info: ENERGY EVALUATION STEPS    100000
Info: OUTPUT ENERGY PRECISION 4
Info: CROSSTERM ENERGY INCLUDED IN DIHEDRAL
Info: TIMING OUTPUT STEPS    1000000
Info: PRESSURE OUTPUT STEPS  100000
Info: ALCHEMICAL FEP ON
Info: FEP CURRENT LAMBDA VALUE     1
Info: FEP COMPARISON LAMBDA VALUE  0.95
Info: FEP INTRA-ALCHEMICAL NON-BONDED INTERACTIONS WILL BE RETAINED
Info: FEP INTRA-ALCHEMICAL BONDED INTERACTIONS WILL BE RETAINED
Info: FEP VDW SHIFTING COEFFICIENT 5
Info: FEP ELEC. ACTIVE FOR ANNIHILATED PARTICLES BETWEEN LAMBDA = 0 AND LAMBDA = 0.5
Info: FEP ELEC. ACTIVE FOR EXNIHILATED PARTICLES BETWEEN LAMBDA = 0.5 AND LAMBDA = 1
Info: FEP VDW ACTIVE FOR ANNIHILATED PARTICLES BETWEEN LAMBDA = 0 AND LAMBDA = 1
Info: FEP VDW ACTIVE FOR EXNIHILATED PARTICLES BETWEEN LAMBDA = 0 AND LAMBDA = 1
Info: FEP BOND ACTIVE FOR ANNIHILATED PARTICLES BETWEEN LAMBDA = 1 AND LAMBDA = 1
Info: FEP BOND ACTIVE FOR EXNIHILATED PARTICLES BETWEEN LAMBDA = 0 AND LAMBDA = 0
Info: LANGEVIN DYNAMICS ACTIVE
Info: LANGEVIN TEMPERATURE   300
Info: LANGEVIN USING BBK INTEGRATOR
Info: LANGEVIN DAMPING COEFFICIENT IS 1 INVERSE PS
Info: LANGEVIN DYNAMICS APPLIED TO HYDROGENS
Info: LANGEVIN PISTON PRESSURE CONTROL ACTIVE
Info:        TARGET PRESSURE IS 1.01325 BAR
Info:     OSCILLATION PERIOD IS 50 FS
Info:             DECAY TIME IS 25 FS
Info:     PISTON TEMPERATURE IS 300 K
Info:       PRESSURE CONTROL IS GROUP-BASED
Info:    INITIAL STRAIN RATE IS 7.20751e-05 7.20751e-05 7.20751e-05
Info:       CELL FLUCTUATION IS ISOTROPIC
Info: PARTICLE MESH EWALD (PME) ACTIVE
Info: PME TOLERANCE               1e-06
Info: PME EWALD COEFFICIENT       0.348832
Info: PME INTERPOLATION ORDER     4
Info: PME GRID DIMENSIONS         36 32 32
Info: PME MAXIMUM GRID SPACING    1
Info: PME CALCULATION WILL BE PERFORMED ON GPU
Info: FULL ELECTROSTATIC EVALUATION FREQUENCY      2
Info: USING VERLET I (r-RESPA) MTS SCHEME.
Info: C1 SPLITTING OF LONG RANGE ELECTROSTATICS
Info: PLACING ATOMS IN PATCHES BY HYDROGEN GROUPS
Info: RIGID BONDS TO HYDROGEN : ALL
Info:         ERROR TOLERANCE : 1e-08
Info:          MAX ITERATIONS : 100
Info: RIGID WATER USING SETTLE ALGORITHM
Info: RANDOM NUMBER SEED     1743749523
Info: USE HYDROGEN BONDS?    NO
Info: Using AMBER format force field!
Info: AMBER PARM FILE        mobley_4620651.prmtop
Info: COORDINATE PDB         mobley_4620651.pdb
Info: Exclusions will be read from PARM file!
Info: SCNB (VDW SCALING)     2
Info: USING ARITHMETIC MEAN TO COMBINE L-J SIGMA PARAMETERS
Info: BINARY COORDINATES     mobley_4620651_equil.coor
Info: SUMMARY OF PARAMETERS:
Info: 9 BONDS
Info: 11 ANGLES
Info:   11 HARMONIC
Info:   0 COSINE-BASED
Info: 6 DIHEDRAL
Info: 0 IMPROPER
Info: 0 CROSSTERM
Info: 0 VDW
Info: 36 VDW_PAIRS
Info: 0 NBTHOLE_PAIRS
Info: To read alchdata from file: mobley_4620651.pdb
Info: To read alchflag data from column: 5
Info: STRUCTURE SUMMARY:
Info: 2970 ATOMS
Info: 2970 BONDS
Info: 28 ANGLES
Info: 37 DIHEDRALS
Info: 0 IMPROPERS
Info: 0 CROSSTERMS
Info: 3018 EXCLUSIONS
Info: 2963 RIGID BONDS
Info: ALCH: 0 ATOMS TO DISAPPEAR IN FINAL STATE
Info: ALCH: 15 ATOMS TO APPEAR IN FINAL STATE
Info: 5947 DEGREES OF FREEDOM
Info: 992 HYDROGEN GROUPS
Info: 4 ATOMS IN LARGEST HYDROGEN GROUP
Info: 992 MIGRATION GROUPS
Info: 4 ATOMS IN LARGEST MIGRATION GROUP
Info: TOTAL MASS = 17845.9 amu
Info: TOTAL CHARGE = 9.9916e-05 e
Info: MASS DENSITY = 0.960283 g/cm^3
Info: ATOM DENSITY = 0.0962406 atoms/A^3
Info: ADDED 0 IMPLICIT EXCLUSIONS
Info: NONBONDED TABLE R-SQUARED SPACING: 0.0625
Info: NONBONDED TABLE SIZE: 705 POINTS
Info: REMOVING COM VELOCITY -0.151539 -0.000108792 -0.0673039
Info: Use 3D box decompostion in PME FFT.
Info: Updated CUDA force table with 4096 elements.
Info: Updated CUDA LJ table with 8 x 8 elements.
Info: Found 18 unique exclusion lists needing 36 bytes
TCL: Running for 1500000 steps
ETITLE: TS BOND ANGLE DIHED IMPRP ELECT VDW BOUNDARY MISC KINETIC TOTAL TEMP POTENTIAL TOTALAVG TEMPAVG PRESSURE GPRESSURE VOLUME PRESSAVG GPRESSAVG
ENERGY: 0 3.8582 11.9528 8.0067 0.0000 -10625.1487 1390.7932 0.0000 0.0000 1798.0062 -7412.5317 304.2872 -9210.5379 -7412.5317 304.2872 -245.1662 -154.4480 30860.1446 -245.1662 -154.4480
ENERGY: 300000 1.5428 4.1324 8.0195 0.0000 -10943.4595 1606.3870 0.0000 0.0000 1775.0931 -7548.2847 300.4094 -9323.3778 -7533.4958 301.6407 1237.2352 1266.6235 30402.2399 451.3951 526.9758
ENERGY: 600000 2.6351 4.9860 7.1428 0.0000 -11021.5521 1557.1690 0.0000 0.0000 1762.8750 -7686.7442 298.3417 -9449.6193 -7552.7568 301.4453 686.9726 781.4951 30017.1889 287.7759 368.4251
ENERGY: 900000 2.1759 8.8303 6.6468 0.0000 -10612.3866 1338.7923 0.0000 0.0000 1789.4750 -7466.4663 302.8434 -9255.9412 -7537.8907 300.6671 -657.8295 -570.9683 30698.2023 235.7189 320.4427
ENERGY: 1200000 1.8318 5.9712 8.7358 0.0000 -10770.0090 1427.6578 0.0000 0.0000 1792.2293 -7533.5831 303.3095 -9325.8124 -7532.9211 301.2304 -257.7381 -193.0508 30897.6716 76.7664 158.7155
ENERGY: 1500000 3.5444 6.4208 7.0293 0.0000 -10730.0213 1439.2867 0.0000 0.0000 1750.2231 -7523.5171 296.2005 -9273.7402 -7536.9021 301.4310 7.6652 88.5313 30331.6167 54.9836 126.5865
TCL: Running FEP window   2: Lambda1 0.95   Lambda2 0.8999999999999999 [dLambda -0.050000000000000044]
TCL: Setting parameter firsttimestep to 0
TCL: Setting parameter alchLambda to 0.95
Info: NONBONDED TABLE R-SQUARED SPACING: 0.0625
Info: NONBONDED TABLE SIZE: 705 POINTS
TCL: Setting parameter alchLambda2 to 0.8999999999999999
Info: NONBONDED TABLE R-SQUARED SPACING: 0.0625
Info: NONBONDED TABLE SIZE: 705 POINTS
TCL: Running for 1500000 steps
ETITLE: TS BOND ANGLE DIHED IMPRP ELECT VDW BOUNDARY MISC KINETIC TOTAL TEMP POTENTIAL TOTALAVG TEMPAVG PRESSURE GPRESSURE VOLUME PRESSAVG GPRESSAVG
ENERGY: 0 3.5444 6.4208 7.0293 0.0000 -10728.8885 1439.5107 0.0000 0.0000 1749.3424 -7523.0411 296.0515 -9272.3835 -7523.0411 296.0515 6.2066 82.9944 30331.6167 6.2066 82.9944
ENERGY: 300000 3.7955 5.9737 6.8889 0.0000 -10757.0456 1407.3169 0.0000 0.0000 1780.9480 -7552.1227 301.4003 -9333.0707 -7533.0647 300.9365 -121.9484 -66.1561 30358.7675 -164.6592 -105.9567
ENERGY: 600000 0.9954 3.7122 6.5270 0.0000 -10578.8176 1358.7375 0.0000 0.0000 1756.5818 -7452.2637 297.2767 -9208.8454 -7538.4864 298.6966 -494.1564 -462.1603 31073.4431 -221.9977 -174.2620
ENERGY: 900000 3.1984 6.8571 7.8884 0.0000 -10772.1059 1418.4289 0.0000 0.0000 1773.1611 -7562.5720 300.0825 -9335.7331 -7552.1894 298.6560 -364.7246 -295.1065 30625.5012 -179.0007 -131.3529
ENERGY: 1200000 1.4303 5.6856 6.5416 0.0000 -10785.9858 1440.2783 0.0000 0.0000 1781.8206 -7550.2295 301.5480 -9332.0501 -7546.5367 298.8276 -152.3980 -123.3832 30565.5863 -215.8334 -169.6231
ENERGY: 1500000 2.4245 4.5094 7.7674 0.0000 -10662.1856 1386.3929 0.0000 0.0000 1784.1532 -7476.9382 301.9427 -9261.0914 -7539.2143 298.7639 -403.4739 -322.6693 30557.3608 -149.2504 -95.3445
TCL: Running FEP window   3: Lambda1 0.8999999999999999 Lambda2 0.8499999999999999 [dLambda -0.050000000000000044]
TCL: Setting parameter firsttimestep to 0
TCL: Setting parameter alchLambda to 0.8999999999999999
Info: NONBONDED TABLE R-SQUARED SPACING: 0.0625
Info: NONBONDED TABLE SIZE: 705 POINTS
TCL: Setting parameter alchLambda2 to 0.8499999999999999
Info: NONBONDED TABLE R-SQUARED SPACING: 0.0625
Info: NONBONDED TABLE SIZE: 705 POINTS
TCL: Running for 1500000 steps
ETITLE: TS BOND ANGLE DIHED IMPRP ELECT VDW BOUNDARY MISC KINETIC TOTAL TEMP POTENTIAL TOTALAVG TEMPAVG PRESSURE GPRESSURE VOLUME PRESSAVG GPRESSAVG
ENERGY: 0 2.4245 4.5094 7.7674 0.0000 -10660.9462 1385.8741 0.0000 0.0000 1783.3101 -7477.0606 301.8001 -9260.3707 -7477.0606 301.8001 -418.3457 -334.4789 30557.3608 -418.3457 -334.4789
ENERGY: 300000 2.2994 5.9367 6.9265 0.0000 -10773.1320 1395.9189 0.0000 0.0000 1790.3284 -7571.7221 302.9878 -9362.0505 -7470.2413 302.6760 -494.5447 -392.2205 30674.5850 -731.5478 -668.1248
ENERGY: 600000 4.9462 6.3791 6.3272 0.0000 -10787.8939 1391.8320 0.0000 0.0000 1771.6861 -7606.7233 299.8329 -9378.4094 -7501.8045 303.6042 -516.0589 -377.4793 30416.0673 -549.0871 -479.4764
ENERGY: 900000 1.0764 4.1807 6.7584 0.0000 -10748.3007 1413.5655 0.0000 0.0000 1819.3677 -7503.3520 307.9023 -9322.7197 -7497.3048 303.8188 -147.7511 -124.5853 30547.9917 -452.2409 -382.5883
ENERGY: 1200000 2.8471 4.8872 7.7173 0.0000 -10866.0182 1521.4072 0.0000 0.0000 1783.6829 -7545.4765 301.8631 -9329.1594 -7506.3807 302.7354 239.4778 287.2132 30939.5921 -344.6698 -273.7131
ENERGY: 1500000 1.1682 5.7198 7.0081 0.0000 -10834.2574 1440.0802 0.0000 0.0000 1811.7737 -7568.5074 306.6171 -9380.2810 -7509.7254 302.7848 -238.7050 -150.5475 30577.6533 -257.4747 -187.8497
TCL: Running FEP window   4: Lambda1 0.8499999999999999 Lambda2 0.7999999999999998 [dLambda -0.050000000000000044]
TCL: Setting parameter firsttimestep to 0
TCL: Setting parameter alchLambda to 0.8499999999999999
Info: NONBONDED TABLE R-SQUARED SPACING: 0.0625
Info: NONBONDED TABLE SIZE: 705 POINTS
TCL: Setting parameter alchLambda2 to 0.7999999999999998
Info: NONBONDED TABLE R-SQUARED SPACING: 0.0625
Info: NONBONDED TABLE SIZE: 705 POINTS
TCL: Running for 1500000 steps
ETITLE: TS BOND ANGLE DIHED IMPRP ELECT VDW BOUNDARY MISC KINETIC TOTAL TEMP POTENTIAL TOTALAVG TEMPAVG PRESSURE GPRESSURE VOLUME PRESSAVG GPRESSAVG
ENERGY: 0 1.1682 5.7198 7.0081 0.0000 -10832.8142 1439.3764 0.0000 0.0000 1810.8958 -7568.6458 306.4685 -9379.5416 -7568.6458 306.4685 -250.4568 -167.0635 30577.6533 -250.4568 -167.0635
ENERGY: 300000 4.0084 6.2102 8.4056 0.0000 -10732.6905 1392.3587 0.0000 0.0000 1751.9221 -7569.7856 296.4881 -9321.7076 -7543.7215 302.9798 -427.3632 -376.3389 30540.7684 -442.5720 -385.6368
ENERGY: 600000 3.0491 3.3270 7.6192 0.0000 -10545.4641 1301.0785 0.0000 0.0000 1803.3737 -7427.0166 305.1955 -9230.3903 -7526.8820 301.7202 -1038.6424 -990.2614 31119.7188 -431.3568 -371.9603
ENERGY: 900000 2.5965 7.7253 7.8769 0.0000 -10910.2188 1543.4620 0.0000 0.0000 1778.3494 -7570.2087 300.9605 -9348.5581 -7536.8885 301.3985 624.2110 673.6396 30171.8289 -242.3627 -193.8173
ENERGY: 1200000 2.8318 4.3204 7.1738 0.0000 -10692.6143 1465.6395 0.0000 0.0000 1833.6943 -7378.9545 310.3269 -9212.6489 -7520.6094 301.1081 444.3504 467.3659 30533.2636 -163.2854 -124.1145
ENERGY: 1500000 2.0712 5.4437 6.8049 0.0000 -10739.2961 1435.8730 0.0000 0.0000 1716.1277 -7572.9757 290.4304 -9289.1033 -7528.7569 300.0661 -203.8084 -162.7466 30811.1776 -62.2147 -14.4149
TCL: Running FEP window   5: Lambda1 0.7999999999999998 Lambda2 0.7499999999999998 [dLambda -0.050000000000000044]
TCL: Setting parameter firsttimestep to 0
TCL: Setting parameter alchLambda to 0.7999999999999998
Info: NONBONDED TABLE R-SQUARED SPACING: 0.0625
Info: NONBONDED TABLE SIZE: 705 POINTS
TCL: Setting parameter alchLambda2 to 0.7499999999999998
Info: NONBONDED TABLE R-SQUARED SPACING: 0.0625
Info: NONBONDED TABLE SIZE: 705 POINTS
TCL: Running for 1500000 steps
ETITLE: TS BOND ANGLE DIHED IMPRP ELECT VDW BOUNDARY MISC KINETIC TOTAL TEMP POTENTIAL TOTALAVG TEMPAVG PRESSURE GPRESSURE VOLUME PRESSAVG GPRESSAVG
ENERGY: 0 2.0712 5.4437 6.8049 0.0000 -10737.8166 1435.8488 0.0000 0.0000 1715.2315 -7572.4165 290.2787 -9287.6480 -7572.4165 290.2787 -254.6355 -170.0174 30811.1776 -254.6355 -170.0174
ENERGY: 300000 1.1421 4.0798 7.4542 0.0000 -10693.9829 1412.8058 0.0000 0.0000 1776.8460 -7491.6550 300.7061 -9268.5010 -7532.3055 295.2423 -319.7546 -238.3712 31183.3375 -92.1335 -40.0913
ENERGY: 600000 3.3512 7.0505 8.0381 0.0000 -10803.0890 1438.3870 0.0000 0.0000 1763.1802 -7583.0820 298.3934 -9346.2622 -7537.3829 297.1162 -214.5670 -189.7078 30553.7877 -294.5017 -233.4668
ENERGY: 900000 0.8628 6.0089 7.2037 0.0000 -10673.9733 1424.2394 0.0000 0.0000 1716.6013 -7519.0571 290.5105 -9235.6584 -7540.7225 296.8479 -227.8383 -163.8587 30932.1194 -174.2231 -114.7740
ENERGY: 1200000 2.3409 6.5334 6.9479 0.0000 -10740.6842 1447.8481 0.0000 0.0000 1787.4298 -7489.5842 302.4973 -9277.0141 -7533.7478 297.7749 194.8346 230.1393 30515.7985 -158.2125 -97.7976
ENERGY: 1500000 1.0331 7.4746 7.0329 0.0000 -10784.0964 1470.8252 0.0000 0.0000 1777.4272 -7520.3034 300.8045 -9297.7306 -7533.1646 298.2926 216.6609 302.2686 30575.2947 -75.0453 -15.5962
TCL: Running FEP window   6: Lambda1 0.7499999999999998 Lambda2 0.6999999999999997 [dLambda -0.050000000000000044]
TCL: Setting parameter firsttimestep to 0
TCL: Setting parameter alchLambda to 0.7499999999999998
Info: NONBONDED TABLE R-SQUARED SPACING: 0.0625
Info: NONBONDED TABLE SIZE: 705 POINTS
TCL: Setting parameter alchLambda2 to 0.6999999999999997
Info: NONBONDED TABLE R-SQUARED SPACING: 0.0625
Info: NONBONDED TABLE SIZE: 705 POINTS
TCL: Running for 1500000 steps
ETITLE: TS BOND ANGLE DIHED IMPRP ELECT VDW BOUNDARY MISC KINETIC TOTAL TEMP POTENTIAL TOTALAVG TEMPAVG PRESSURE GPRESSURE VOLUME PRESSAVG GPRESSAVG
ENERGY: 0 1.0331 7.4746 7.0329 0.0000 -10782.9242 1471.0490 0.0000 0.0000 1776.5543 -7519.7801 300.6567 -9296.3345 -7519.7801 300.6567 206.7774 299.4746 30575.2947 206.7774 299.4746
ENERGY: 300000 1.0047 12.2214 7.3336 0.0000 -10770.3746 1479.3426 0.0000 0.0000 1781.0644 -7489.4079 301.4200 -9270.4723 -7483.0223 299.6120 258.5279 263.1722 30810.3694 -201.4229 -135.9584
ENERGY: 600000 1.4527 7.7563 6.8599 0.0000 -11001.6588 1585.8294 0.0000 0.0000 1831.4070 -7568.3534 309.9398 -9399.7604 -7516.2297 300.7587 948.2797 998.7851 30337.2951 23.7566 102.8457
ENERGY: 900000 2.0437 4.2731 7.5084 0.0000 -10881.5489 1479.3183 0.0000 0.0000 1768.0926 -7620.3127 299.2247 -9388.4053 -7536.0755 300.0993 400.6025 471.7475 29938.5403 -3.6618 63.1869
ENERGY: 1200000 1.3033 6.2546 6.4796 0.0000 -10681.4146 1449.4868 0.0000 0.0000 1739.4657 -7478.4246 294.3800 -9217.8903 -7540.1978 299.6982 395.6641 425.2575 30410.0819 -45.0753 17.9190
ENERGY: 1500000 0.7226 6.8939 6.5060 0.0000 -10740.8663 1464.7844 0.0000 0.0000 1745.7192 -7516.2401 295.4383 -9261.9593 -7537.6220 298.8847 516.5675 583.7614 30105.8290 -13.2660 51.4499
TCL: Running FEP window   7: Lambda1 0.6999999999999997 Lambda2 0.6499999999999997 [dLambda -0.050000000000000044]
TCL: Setting parameter firsttimestep to 0
TCL: Setting parameter alchLambda to 0.6999999999999997
Info: NONBONDED TABLE R-SQUARED SPACING: 0.0625
Info: NONBONDED TABLE SIZE: 705 POINTS
TCL: Setting parameter alchLambda2 to 0.6499999999999997
Info: NONBONDED TABLE R-SQUARED SPACING: 0.0625
Info: NONBONDED TABLE SIZE: 705 POINTS
TCL: Running for 1500000 steps
ETITLE: TS BOND ANGLE DIHED IMPRP ELECT VDW BOUNDARY MISC KINETIC TOTAL TEMP POTENTIAL TOTALAVG TEMPAVG PRESSURE GPRESSURE VOLUME PRESSAVG GPRESSAVG
ENERGY: 0 0.7226 6.8939 6.5060 0.0000 -10739.1543 1465.0594 0.0000 0.0000 1744.8295 -7515.1429 295.2877 -9259.9723 -7515.1429 295.2877 487.5358 582.2260 30105.8290 487.5358 582.2260
ENERGY: 300000 4.3400 3.6394 6.6668 0.0000 -10804.9356 1464.7070 0.0000 0.0000 1741.6115 -7583.9709 294.7432 -9325.5824 -7546.0120 300.5072 -86.4165 8.3770 30505.3097 128.5359 202.0388
ENERGY: 600000 2.8113 6.0977 8.5739 0.0000 -10699.8220 1382.2353 0.0000 0.0000 1764.2921 -7535.8117 298.5815 -9300.1039 -7528.1200 299.7888 -776.3415 -665.6869 30816.7839 -47.5409 25.8412
ENERGY: 900000 2.9205 4.4568 7.3254 0.0000 -10724.4545 1437.7182 0.0000 0.0000 1817.1618 -7454.8717 307.5290 -9272.0335 -7521.0488 300.9410 11.7297 95.1658 30625.9522 -96.5122 -28.9039
ENERGY: 1200000 2.3949 4.7386 6.4510 0.0000 -10682.5011 1354.4075 0.0000 0.0000 1734.7036 -7579.8056 293.5741 -9314.5092 -7526.5985 300.0079 -734.5882 -652.7181 30460.5639 -169.5701 -102.9897
ENERGY: 1500000 1.7020 4.2591 9.7688 0.0000 -10722.7052 1468.6479 0.0000 0.0000 1825.8705 -7412.4569 309.0028 -9238.3274 -7515.8520 300.4298 372.3461 409.0767 30548.2713 -117.9018 -56.8381
TCL: Running FEP window   8: Lambda1 0.6499999999999997 Lambda2 0.5999999999999996 [dLambda -0.050000000000000044]
TCL: Setting parameter firsttimestep to 0
TCL: Setting parameter alchLambda to 0.6499999999999997
Info: NONBONDED TABLE R-SQUARED SPACING: 0.0625
Info: NONBONDED TABLE SIZE: 705 POINTS
TCL: Setting parameter alchLambda2 to 0.5999999999999996
Info: NONBONDED TABLE R-SQUARED SPACING: 0.0625
Info: NONBONDED TABLE SIZE: 705 POINTS
TCL: Running for 1500000 steps
ETITLE: TS BOND ANGLE DIHED IMPRP ELECT VDW BOUNDARY MISC KINETIC TOTAL TEMP POTENTIAL TOTALAVG TEMPAVG PRESSURE GPRESSURE VOLUME PRESSAVG GPRESSAVG
ENERGY: 0 1.7020 4.2591 9.7688 0.0000 -10722.1124 1469.0795 0.0000 0.0000 1825.0021 -7412.3009 308.8558 -9237.3030 -7412.3009 308.8558 345.2200 412.2635 30548.2713 345.2200 412.2635
ENERGY: 300000 2.1189 10.8497 7.5695 0.0000 -10846.9957 1478.6615 0.0000 0.0000 1757.3366 -7590.4596 297.4044 -9347.7961 -7495.2471 301.2024 153.2213 228.2528 30175.8998 415.2818 467.0093
ENERGY: 600000 7.1461 8.2159 7.2460 0.0000 -10788.1940 1454.1457 0.0000 0.0000 1734.3053 -7577.1350 293.5067 -9311.4403 -7521.5290 298.3130 44.2156 128.2334 30217.6953 127.0417 191.1503
ENERGY: 900000 0.7492 4.2493 6.6156 0.0000 -10914.0229 1583.6068 0.0000 0.0000 1772.7211 -7546.0809 300.0080 -9318.8020 -7528.0984 298.7130 1009.0227 1000.1634 30393.8138 294.1513 350.1413
ENERGY: 1200000 1.5718 7.5782 7.2221 0.0000 -10845.1729 1559.0745 0.0000 0.0000 1796.5217 -7473.2047 304.0359 -9269.7264 -7510.5393 300.5910 907.7968 972.0298 30444.2368 312.3112 371.6874
ENERGY: 1500000 2.2317 10.1630 6.3410 0.0000 -10893.0582 1492.9552 0.0000 0.0000 1778.7781 -7602.5893 301.0331 -9381.3674 -7519.2934 301.5699 192.2594 175.8573 30344.2497 169.9421 222.3596
TCL: Running FEP window   9: Lambda1 0.5999999999999996 Lambda2 0.5499999999999996 [dLambda -0.050000000000000044]
TCL: Setting parameter firsttimestep to 0
TCL: Setting parameter alchLambda to 0.5999999999999996
Info: NONBONDED TABLE R-SQUARED SPACING: 0.0625
Info: NONBONDED TABLE SIZE: 705 POINTS
TCL: Setting parameter alchLambda2 to 0.5499999999999996
Info: NONBONDED TABLE R-SQUARED SPACING: 0.0625
Info: NONBONDED TABLE SIZE: 705 POINTS
TCL: Running for 1500000 steps
ETITLE: TS BOND ANGLE DIHED IMPRP ELECT VDW BOUNDARY MISC KINETIC TOTAL TEMP POTENTIAL TOTALAVG TEMPAVG PRESSURE GPRESSURE VOLUME PRESSAVG GPRESSAVG
ENERGY: 0 2.2317 10.1630 6.3410 0.0000 -10891.5812 1492.7842 0.0000 0.0000 1777.8936 -7602.1678 300.8834 -9380.0614 -7602.1678 300.8834 85.9377 168.9978 30344.2497 85.9377 168.9978
ENERGY: 300000 5.6637 6.9053 6.9777 0.0000 -10698.7608 1443.3192 0.0000 0.0000 1771.0114 -7464.8835 299.7187 -9235.8948 -7532.5794 298.9735 216.9253 238.4215 30953.5708 -102.2384 -62.9569
ENERGY: 600000 1.5262 3.8882 6.6583 0.0000 -10871.4732 1532.1185 0.0000 0.0000 1754.5313 -7572.7508 296.9297 -9327.2821 -7546.2999 298.5007 802.5416 895.9524 30238.5484 117.0293 168.4892
ENERGY: 900000 2.1297 7.4711 6.6819 0.0000 -10810.4383 1492.3575 0.0000 0.0000 1760.0524 -7541.7455 297.8640 -9301.7979 -7556.8667 299.0385 491.4726 555.6962 30437.7920 199.4606 261.9472
ENERGY: 1200000 1.0403 5.7878 6.9598 0.0000 -10689.5010 1387.0182 0.0000 0.0000 1763.2124 -7525.4826 298.3988 -9288.6950 -7536.3078 299.3463 -384.1948 -298.8396 30386.8577 243.7651 306.1798
ENERGY: 1500000 6.2082 3.8872 7.0455 0.0000 -10701.4277 1388.4982 0.0000 0.0000 1789.8687 -7505.9199 302.9100 -9295.7886 -7531.9325 299.6336 -655.5852 -579.7575 30559.2620 162.0804 227.1451
TCL: Running FEP window  10: Lambda1 0.5499999999999996 Lambda2 0.4999999999999996 [dLambda -0.04999999999999999]
TCL: Setting parameter firsttimestep to 0
TCL: Setting parameter alchLambda to 0.5499999999999996
Info: NONBONDED TABLE R-SQUARED SPACING: 0.0625
Info: NONBONDED TABLE SIZE: 705 POINTS
TCL: Setting parameter alchLambda2 to 0.4999999999999996
Info: NONBONDED TABLE R-SQUARED SPACING: 0.0625
Info: NONBONDED TABLE SIZE: 705 POINTS
TCL: Running for 1500000 steps
ETITLE: TS BOND ANGLE DIHED IMPRP ELECT VDW BOUNDARY MISC KINETIC TOTAL TEMP POTENTIAL TOTALAVG TEMPAVG PRESSURE GPRESSURE VOLUME PRESSAVG GPRESSAVG
ENERGY: 0 6.2082 3.8872 7.0455 0.0000 -10700.5288 1388.8288 0.0000 0.0000 1789.0059 -7505.5532 302.7640 -9294.5592 -7505.5532 302.7640 -669.1837 -584.1677 30559.2620 -669.1837 -584.1677
ENERGY: 300000 1.6191 4.9889 7.4990 0.0000 -10838.0339 1475.1274 0.0000 0.0000 1793.7908 -7555.0086 303.5738 -9348.7994 -7528.5666 300.4132 376.3425 452.4936 30111.9180 -60.0409 -2.8776
ENERGY: 600000 4.6729 7.0701 7.0906 0.0000 -10817.5683 1439.0651 0.0000 0.0000 1741.8904 -7617.7792 294.7904 -9359.6696 -7530.5645 302.0704 -307.0725 -280.3596 30607.5758 -134.7352 -75.5882
ENERGY: 900000 2.2901 5.3671 6.9600 0.0000 -10789.1130 1461.1900 0.0000 0.0000 1839.2820 -7474.0238 311.2725 -9313.3059 -7513.5113 302.6911 348.6127 369.6619 30201.2110 -125.5416 -75.4797
ENERGY: 1200000 0.8568 6.3436 8.3095 0.0000 -10696.4913 1437.2811 0.0000 0.0000 1709.5121 -7534.1880 289.3108 -9243.7002 -7515.4143 300.3785 64.4297 125.1582 30595.9267 -106.7146 -44.2639
ENERGY: 1500000 2.0344 5.7852 7.0110 0.0000 -10834.9299 1506.4413 0.0000 0.0000 1794.9678 -7518.6901 303.7730 -9313.6579 -7512.1939 301.8803 880.7169 860.7293 30021.1076 -18.8281 32.1613
TCL: Running FEP window  11: Lambda1 0.4999999999999996 Lambda2 0.4499999999999996 [dLambda -0.04999999999999999]
TCL: Setting parameter firsttimestep to 0
TCL: Setting parameter alchLambda to 0.4999999999999996
Info: NONBONDED TABLE R-SQUARED SPACING: 0.0625
Info: NONBONDED TABLE SIZE: 705 POINTS
TCL: Setting parameter alchLambda2 to 0.4499999999999996
Info: NONBONDED TABLE R-SQUARED SPACING: 0.0625
Info: NONBONDED TABLE SIZE: 705 POINTS
TCL: Running for 1500000 steps
ETITLE: TS BOND ANGLE DIHED IMPRP ELECT VDW BOUNDARY MISC KINETIC TOTAL TEMP POTENTIAL TOTALAVG TEMPAVG PRESSURE GPRESSURE VOLUME PRESSAVG GPRESSAVG
ENERGY: 0 2.0344 5.7852 7.0110 0.0000 -10834.7817 1506.8756 0.0000 0.0000 1794.0616 -7519.0139 303.6196 -9313.0755 -7519.0139 303.6196 771.5352 856.7172 30021.1076 771.5352 856.7172
ENERGY: 300000 1.3641 4.9016 6.6664 0.0000 -10894.8279 1551.4634 0.0000 0.0000 1755.4926 -7574.9398 297.0923 -9330.4324 -7484.3895 300.7647 747.1241 830.5458 30398.3929 274.2917 334.5940
ENERGY: 600000 3.0935 8.0367 6.9622 0.0000 -10802.0979 1424.7814 0.0000 0.0000 1809.3183 -7549.9058 306.2016 -9359.2240 -7531.2033 299.5961 -479.6714 -387.4378 30562.0594 98.2764 161.3851
ENERGY: 900000 1.4667 4.3260 6.8359 0.0000 -10652.7260 1471.0280 0.0000 0.0000 1776.3151 -7392.7542 300.6163 -9169.0693 -7515.4262 300.0695 725.1197 710.7593 30433.0125 126.8012 178.1543
ENERGY: 1200000 2.4548 6.2910 6.3626 0.0000 -10852.3165 1487.4668 0.0000 0.0000 1745.6157 -7604.1255 295.4208 -9349.7412 -7524.5657 300.0992 160.9715 229.3549 30515.5472 69.1919 121.4813
ENERGY: 1500000 2.1459 5.8785 6.9047 0.0000 -10937.2781 1550.5226 0.0000 0.0000 1684.7324 -7687.0941 285.1172 -9371.8264 -7535.0898 298.9396 551.4724 624.3009 30303.6418 93.3570 155.0152
TCL: Running FEP window  12: Lambda1 0.4499999999999996 Lambda2 0.39999999999999963 [dLambda -0.04999999999999999]
TCL: Setting parameter firsttimestep to 0
TCL: Setting parameter alchLambda to 0.4499999999999996
Info: NONBONDED TABLE R-SQUARED SPACING: 0.0625
Info: NONBONDED TABLE SIZE: 705 POINTS
TCL: Setting parameter alchLambda2 to 0.39999999999999963
Info: NONBONDED TABLE R-SQUARED SPACING: 0.0625
Info: NONBONDED TABLE SIZE: 705 POINTS
TCL: Running for 1500000 steps
ETITLE: TS BOND ANGLE DIHED IMPRP ELECT VDW BOUNDARY MISC KINETIC TOTAL TEMP POTENTIAL TOTALAVG TEMPAVG PRESSURE GPRESSURE VOLUME PRESSAVG GPRESSAVG
ENERGY: 0 2.1459 5.8785 6.9047 0.0000 -10937.2787 1550.3511 0.0000 0.0000 1683.8286 -7688.1700 284.9642 -9371.9986 -7688.1700 284.9642 528.3269 616.3006 30303.6418 528.3269 616.3006
ENERGY: 300000 2.6750 8.9222 7.2350 0.0000 -10834.9962 1503.8777 0.0000 0.0000 1725.1307 -7587.1555 291.9540 -9312.2863 -7604.1708 294.2131 199.2963 328.9271 30596.3832 298.3820 356.4870
ENERGY: 600000 1.9807 11.0063 7.0516 0.0000 -10689.6946 1397.9894 0.0000 0.0000 1778.6140 -7493.0527 301.0053 -9271.6667 -7572.6760 296.4693 -342.6233 -349.6251 30683.7901 302.1893 360.2272
ENERGY: 900000 3.2332 2.8426 7.2834 0.0000 -10792.8297 1502.0045 0.0000 0.0000 1787.4317 -7490.0343 302.4976 -9277.4660 -7540.9136 298.7844 563.5581 603.9867 30337.1053 318.8325 371.0682
ENERGY: 1200000 3.9637 5.8592 6.9386 0.0000 -10810.0711 1470.9960 0.0000 0.0000 1769.4739 -7552.8397 299.4585 -9322.3136 -7536.3949 299.3682 627.6895 635.7035 29740.7514 372.3280 421.4831
ENERGY: 1500000 1.4928 4.5835 7.9080 0.0000 -10889.7043 1501.0495 0.0000 0.0000 1791.1622 -7583.5083 303.1289 -9374.6705 -7534.3008 299.8683 409.3879 426.1857 30133.2636 330.1654 374.8807
TCL: Running FEP window  13: Lambda1 0.39999999999999963 Lambda2 0.34999999999999964 [dLambda -0.04999999999999999]
TCL: Setting parameter firsttimestep to 0
TCL: Setting parameter alchLambda to 0.39999999999999963
Info: NONBONDED TABLE R-SQUARED SPACING: 0.0625
Info: NONBONDED TABLE SIZE: 705 POINTS
TCL: Setting parameter alchLambda2 to 0.34999999999999964
Info: NONBONDED TABLE R-SQUARED SPACING: 0.0625
Info: NONBONDED TABLE SIZE: 705 POINTS
TCL: Running for 1500000 steps
ETITLE: TS BOND ANGLE DIHED IMPRP ELECT VDW BOUNDARY MISC KINETIC TOTAL TEMP POTENTIAL TOTALAVG TEMPAVG PRESSURE GPRESSURE VOLUME PRESSAVG GPRESSAVG
ENERGY: 0 1.4928 4.5835 7.9080 0.0000 -10889.7045 1500.8822 0.0000 0.0000 1790.2724 -7584.5657 302.9783 -9374.8380 -7584.5657 302.9783 330.5012 416.1603 30133.2636 330.5012 416.1603
ENERGY: 300000 0.6230 7.2546 8.3108 0.0000 -10759.7177 1456.3721 0.0000 0.0000 1799.6480 -7487.5092 304.5650 -9287.1572 -7551.0313 301.3008 -84.4645 -25.5419 30948.7946 187.2193 266.6384
ENERGY: 600000 3.4418 5.9083 6.4593 0.0000 -10808.1292 1450.9551 0.0000 0.0000 1787.3368 -7554.0279 302.4815 -9341.3647 -7532.5949 301.2754 -316.5158 -244.4434 30728.6289 -50.2074 22.8431
ENERGY: 900000 1.6807 5.2507 7.1175 0.0000 -10927.9245 1506.0197 0.0000 0.0000 1774.7252 -7633.1308 300.3472 -9407.8560 -7550.1359 300.2300 408.8564 503.1253 30084.5372 52.7822 126.7918
ENERGY: 1200000 2.3805 7.3452 6.2175 0.0000 -10849.1997 1502.1142 0.0000 0.0000 1747.2576 -7583.8846 295.6987 -9331.1423 -7546.7178 299.6611 23.9952 69.3556 30849.0173 85.4815 145.5038
ENERGY: 1500000 3.3681 5.1254 8.1355 0.0000 -10784.8226 1476.9287 0.0000 0.0000 1789.7308 -7501.5341 302.8867 -9291.2648 -7547.1406 299.0878 624.9027 712.9832 29961.3585 103.9087 163.5590
TCL: Running FEP window  14: Lambda1 0.34999999999999964 Lambda2 0.29999999999999966 [dLambda -0.04999999999999999]
TCL: Setting parameter firsttimestep to 0
TCL: Setting parameter alchLambda to 0.34999999999999964
Info: NONBONDED TABLE R-SQUARED SPACING: 0.0625
Info: NONBONDED TABLE SIZE: 705 POINTS
TCL: Setting parameter alchLambda2 to 0.29999999999999966
Info: NONBONDED TABLE R-SQUARED SPACING: 0.0625
Info: NONBONDED TABLE SIZE: 705 POINTS
TCL: Running for 1500000 steps
ETITLE: TS BOND ANGLE DIHED IMPRP ELECT VDW BOUNDARY MISC KINETIC TOTAL TEMP POTENTIAL TOTALAVG TEMPAVG PRESSURE GPRESSURE VOLUME PRESSAVG GPRESSAVG
ENERGY: 0 3.3681 5.1254 8.1355 0.0000 -10784.8236 1476.4220 0.0000 0.0000 1788.8459 -7502.9268 302.7369 -9291.7727 -7502.9268 302.7369 615.3873 703.4792 29961.3585 615.3873 703.4792
ENERGY: 300000 1.7614 4.8686 6.5209 0.0000 -10778.4590 1496.8253 0.0000 0.0000 1772.9301 -7495.5526 300.0434 -9268.4827 -7512.4039 301.8982 585.3692 686.2697 30415.1920 598.8706 665.7950
ENERGY: 600000 2.2616 7.3964 6.3754 0.0000 -10674.8408 1306.2268 0.0000 0.0000 1747.6212 -7604.9594 295.7602 -9352.5806 -7501.2280 303.0907 -1199.3174 -1165.6688 30202.6210 250.7188 312.2617
ENERGY: 900000 2.4930 10.1051 7.0646 0.0000 -10822.3739 1509.4860 0.0000 0.0000 1824.3917 -7468.8336 308.7525 -9293.2253 -7499.7274 303.7426 413.5418 498.8628 30378.2941 185.5384 245.3453
ENERGY: 1200000 1.4541 3.3506 6.3816 0.0000 -10870.7967 1476.8652 0.0000 0.0000 1817.5550 -7565.1902 307.5955 -9382.7451 -7512.8190 302.4827 -110.2285 -61.7242 30897.6887 114.3896 175.6164
ENERGY: 1500000 2.1401 9.2527 6.5941 0.0000 -10742.9298 1407.4297 0.0000 0.0000 1820.0986 -7497.4145 308.0260 -9317.5131 -7508.7740 302.8887 -221.1412 -165.4268 30308.9997 51.8688 111.8448
TCL: Running FEP window  15: Lambda1 0.29999999999999966 Lambda2 0.24999999999999967 [dLambda -0.04999999999999999]
TCL: Setting parameter firsttimestep to 0
TCL: Setting parameter alchLambda to 0.29999999999999966
Info: NONBONDED TABLE R-SQUARED SPACING: 0.0625
Info: NONBONDED TABLE SIZE: 705 POINTS
TCL: Setting parameter alchLambda2 to 0.24999999999999967
Info: NONBONDED TABLE R-SQUARED SPACING: 0.0625
Info: NONBONDED TABLE SIZE: 705 POINTS
TCL: Running for 1500000 steps
ETITLE: TS BOND ANGLE DIHED IMPRP ELECT VDW BOUNDARY MISC KINETIC TOTAL TEMP POTENTIAL TOTALAVG TEMPAVG PRESSURE GPRESSURE VOLUME PRESSAVG GPRESSAVG
ENERGY: 0 2.1401 9.2527 6.5941 0.0000 -10742.9307 1407.7172 0.0000 0.0000 1819.2164 -7498.0101 307.8767 -9317.2265 -7498.0101 307.8767 -242.4790 -170.2136 30308.9997 -242.4790 -170.2136
ENERGY: 300000 2.6263 6.9979 6.6214 0.0000 -10631.5268 1322.3720 0.0000 0.0000 1801.1439 -7491.7653 304.8182 -9292.9091 -7495.7029 302.1589 -1043.5402 -968.3381 30448.6484 -141.9822 -83.1511
ENERGY: 600000 1.9956 6.3461 7.4333 0.0000 -10824.4968 1437.9001 0.0000 0.0000 1699.9629 -7670.8589 287.6947 -9370.8217 -7536.9139 298.8360 -369.7782 -278.3653 30298.3472 -191.2117 -128.7862
ENERGY: 900000 1.3397 9.4716 6.7862 0.0000 -10672.1628 1341.7915 0.0000 0.0000 1753.8203 -7558.9536 296.8093 -9312.7739 -7537.5443 298.1693 -830.9953 -826.7225 30621.1730 -309.3187 -246.7017
ENERGY: 1200000 1.5051 8.6105 6.4881 0.0000 -10608.0303 1439.3732 0.0000 0.0000 1751.5892 -7400.4643 296.4317 -9152.0535 -7523.7174 298.6453 453.0049 534.0015 30368.3755 -220.8895 -158.7385
ENERGY: 1500000 1.4096 5.7427 6.5199 0.0000 -10752.3196 1420.3367 0.0000 0.0000 1698.5771 -7619.7336 287.4602 -9318.3107 -7524.1349 298.4352 -197.5613 -195.4414 30146.4207 -232.4108 -167.7514
TCL: Running FEP window  16: Lambda1 0.24999999999999967 Lambda2 0.19999999999999968 [dLambda -0.04999999999999999]
TCL: Setting parameter firsttimestep to 0
TCL: Setting parameter alchLambda to 0.24999999999999967
Info: NONBONDED TABLE R-SQUARED SPACING: 0.0625
Info: NONBONDED TABLE SIZE: 705 POINTS
TCL: Setting parameter alchLambda2 to 0.19999999999999968
Info: NONBONDED TABLE R-SQUARED SPACING: 0.0625
Info: NONBONDED TABLE SIZE: 705 POINTS
TCL: Running for 1500000 steps
ETITLE: TS BOND ANGLE DIHED IMPRP ELECT VDW BOUNDARY MISC KINETIC TOTAL TEMP POTENTIAL TOTALAVG TEMPAVG PRESSURE GPRESSURE VOLUME PRESSAVG GPRESSAVG
ENERGY: 0 1.4096 5.7427 6.5199 0.0000 -10752.3198 1420.5051 0.0000 0.0000 1697.7083 -7620.4342 287.3132 -9318.1425 -7620.4342 287.3132 -272.5268 -196.7678 30146.4207 -272.5268 -196.7678
ENERGY: 300000 3.1654 4.4548 7.4937 0.0000 -10759.7262 1429.1120 0.0000 0.0000 1796.9048 -7518.5955 304.1008 -9315.5003 -7552.7466 297.8622 -173.1826 -196.1232 30813.2261 -132.1148 -112.7945
ENERGY: 600000 2.1592 3.8426 7.0248 0.0000 -10690.5107 1478.0149 0.0000 0.0000 1842.6176 -7356.8516 311.8370 -9199.4691 -7524.7288 300.7806 502.3879 566.5887 30568.1509 -128.2529 -89.7387
ENERGY: 900000 2.7308 10.4393 7.9157 0.0000 -10588.6614 1355.7855 0.0000 0.0000 1758.8404 -7452.9498 297.6589 -9211.7901 -7510.5225 300.7588 -289.2037 -272.1499 30391.3942 -133.3409 -90.5348
ENERGY: 1200000 2.3617 9.3112 6.8149 0.0000 -10568.7292 1374.0029 0.0000 0.0000 1742.0685 -7434.1700 294.8205 -9176.2385 -7503.9154 300.6405 -412.5756 -310.5495 30947.4659 -246.3938 -196.1911
ENERGY: 1500000 2.4681 7.5103 6.2177 0.0000 -10800.0905 1470.0565 0.0000 0.0000 1797.7416 -7516.0962 304.2424 -9313.8379 -7502.5598 301.2953 529.2430 611.9132 29714.9769 -176.8655 -121.4078
TCL: Running FEP window  17: Lambda1 0.19999999999999968 Lambda2 0.1499999999999997 [dLambda -0.04999999999999999]
TCL: Setting parameter firsttimestep to 0
TCL: Setting parameter alchLambda to 0.19999999999999968
Info: NONBONDED TABLE R-SQUARED SPACING: 0.0625
Info: NONBONDED TABLE SIZE: 705 POINTS
TCL: Setting parameter alchLambda2 to 0.1499999999999997
Info: NONBONDED TABLE R-SQUARED SPACING: 0.0625
Info: NONBONDED TABLE SIZE: 705 POINTS
TCL: Running for 1500000 steps
ETITLE: TS BOND ANGLE DIHED IMPRP ELECT VDW BOUNDARY MISC KINETIC TOTAL TEMP POTENTIAL TOTALAVG TEMPAVG PRESSURE GPRESSURE VOLUME PRESSAVG GPRESSAVG
ENERGY: 0 2.4681 7.5103 6.2177 0.0000 -10800.0906 1470.1760 0.0000 0.0000 1796.8746 -7516.8439 304.0957 -9313.7185 -7516.8439 304.0957 529.0417 608.9347 29714.9769 529.0417 608.9347
ENERGY: 300000 2.4459 9.1940 6.7289 0.0000 -10743.2155 1434.2197 0.0000 0.0000 1793.2521 -7497.3749 303.4826 -9290.6270 -7499.1542 302.0437 -85.4424 -53.8634 30609.9942 38.3962 111.4911
ENERGY: 600000 3.2443 5.4048 7.9056 0.0000 -10855.8848 1494.3086 0.0000 0.0000 1810.4945 -7534.5269 306.4006 -9345.0214 -7507.1899 303.3986 312.5806 311.7813 30597.0855 72.7152 134.1758
ENERGY: 900000 1.6011 5.3521 7.0093 0.0000 -10544.6550 1381.8171 0.0000 0.0000 1825.6280 -7323.2474 308.9618 -9148.8754 -7490.7271 303.1493 -321.2281 -297.1378 31034.2355 -16.2209 41.3974
ENERGY: 1200000 1.1645 8.4556 6.3065 0.0000 -10800.3055 1463.6003 0.0000 0.0000 1757.5934 -7563.1852 297.4479 -9320.7786 -7503.0515 302.3350 -58.7048 -32.7435 30561.0033 -8.4895 48.8971
ENERGY: 1500000 0.4682 7.5343 6.7502 0.0000 -10751.6855 1493.7167 0.0000 0.0000 1806.1711 -7437.0451 305.6689 -9243.2162 -7508.3244 302.0606 366.8129 360.7040 30651.4235 19.2896 81.3868
TCL: Running FEP window  18: Lambda1 0.1499999999999997 Lambda2 0.09999999999999969 [dLambda -0.05 ]
TCL: Setting parameter firsttimestep to 0
TCL: Setting parameter alchLambda to 0.1499999999999997
Info: NONBONDED TABLE R-SQUARED SPACING: 0.0625
Info: NONBONDED TABLE SIZE: 705 POINTS
TCL: Setting parameter alchLambda2 to 0.09999999999999969
Info: NONBONDED TABLE R-SQUARED SPACING: 0.0625
Info: NONBONDED TABLE SIZE: 705 POINTS
TCL: Running for 1500000 steps
ETITLE: TS BOND ANGLE DIHED IMPRP ELECT VDW BOUNDARY MISC KINETIC TOTAL TEMP POTENTIAL TOTALAVG TEMPAVG PRESSURE GPRESSURE VOLUME PRESSAVG GPRESSAVG
ENERGY: 0 0.4682 7.5343 6.7502 0.0000 -10751.6859 1493.2647 0.0000 0.0000 1805.2804 -7438.3881 305.5182 -9243.6685 -7438.3881 305.5182 280.0479 355.8692 30651.4235 280.0479 355.8692
ENERGY: 300000 2.4914 5.4628 6.7620 0.0000 -10629.3332 1398.1217 0.0000 0.0000 1841.2360 -7375.2594 311.6032 -9216.4954 -7491.3608 301.9397 -183.8602 -157.3910 30579.4926 104.5636 164.6560
ENERGY: 600000 0.8766 9.8024 8.2245 0.0000 -10824.9424 1418.5296 0.0000 0.0000 1773.1496 -7614.3597 300.0805 -9387.5094 -7511.4466 301.9249 -233.5235 -118.1057 29697.9695 99.7739 170.1605
ENERGY: 900000 1.3614 13.3058 7.7203 0.0000 -10685.1198 1409.4480 0.0000 0.0000 1756.0629 -7497.2213 297.1888 -9253.2842 -7508.3161 300.9573 -28.7666 -18.2056 30237.8928 55.2839 116.1024
ENERGY: 1200000 2.9233 4.4765 7.5560 0.0000 -10746.6155 1411.2792 0.0000 0.0000 1685.6619 -7634.7186 285.2745 -9320.3805 -7520.4374 300.3146 -607.0754 -507.9766 30620.2055 30.7456 100.2562
ENERGY: 1500000 2.0475 4.8149 6.5709 0.0000 -10671.2071 1426.4176 0.0000 0.0000 1758.0314 -7473.3247 297.5220 -9231.3561 -7521.9863 299.5776 -329.1293 -342.3137 31139.3866 37.7095 96.6294
TCL: Running FEP window  19: Lambda1 0.09999999999999969 Lambda2 0.049999999999999684 [dLambda -0.05 ]
TCL: Setting parameter firsttimestep to 0
TCL: Setting parameter alchLambda to 0.09999999999999969
Info: NONBONDED TABLE R-SQUARED SPACING: 0.0625
Info: NONBONDED TABLE SIZE: 705 POINTS
TCL: Setting parameter alchLambda2 to 0.049999999999999684
Info: NONBONDED TABLE R-SQUARED SPACING: 0.0625
Info: NONBONDED TABLE SIZE: 705 POINTS
TCL: Running for 1500000 steps
ETITLE: TS BOND ANGLE DIHED IMPRP ELECT VDW BOUNDARY MISC KINETIC TOTAL TEMP POTENTIAL TOTALAVG TEMPAVG PRESSURE GPRESSURE VOLUME PRESSAVG GPRESSAVG
ENERGY: 0 2.0475 4.8149 6.5709 0.0000 -10671.2062 1426.8563 0.0000 0.0000 1757.1059 -7473.8106 297.3654 -9230.9166 -7473.8106 297.3654 -424.8080 -343.0508 31139.3866 -424.8080 -343.0508
ENERGY: 300000 5.2848 8.0248 7.3697 0.0000 -10676.7176 1459.9937 0.0000 0.0000 1774.5820 -7421.4626 300.3229 -9196.0446 -7440.0896 302.0950 122.0252 181.1426 30598.8548 -20.8222 52.1462
ENERGY: 600000 3.5599 14.4061 6.6243 0.0000 -10799.5196 1453.6175 0.0000 0.0000 1801.4437 -7519.8681 304.8689 -9321.3118 -7494.3172 302.0221 -17.2478 11.4116 30177.8849 -90.2391 -20.0591
ENERGY: 900000 0.5479 6.0964 8.7978 0.0000 -10615.1918 1370.4778 0.0000 0.0000 1775.2506 -7454.0213 300.4361 -9229.2719 -7487.0892 302.5144 -386.8890 -335.7994 30515.6413 -84.7346 -18.1798
ENERGY: 1200000 2.5813 7.0497 6.5385 0.0000 -10721.9483 1435.1936 0.0000 0.0000 1732.9660 -7537.6192 293.2800 -9270.5852 -7500.7874 302.3572 -146.2464 -122.3782 30863.1477 -106.7386 -43.0694
ENERGY: 1500000 3.8502 6.7245 7.9142 0.0000 -10678.2786 1403.1566 0.0000 0.0000 1806.8188 -7449.8143 305.7786 -9256.6332 -7501.6790 302.6046 -317.2520 -351.4027 30912.0647 -110.0185 -50.4936
TCL: Running FEP window  20: Lambda1 0.049999999999999684 Lambda2 0.0    [dLambda -0.049999999999999684]
TCL: Setting parameter firsttimestep to 0
TCL: Setting parameter alchLambda to 0.049999999999999684
Info: NONBONDED TABLE R-SQUARED SPACING: 0.0625
Info: NONBONDED TABLE SIZE: 705 POINTS
TCL: Setting parameter alchLambda2 to 0.0
Info: NONBONDED TABLE R-SQUARED SPACING: 0.0625
Info: NONBONDED TABLE SIZE: 705 POINTS
TCL: Running for 1500000 steps
ETITLE: TS BOND ANGLE DIHED IMPRP ELECT VDW BOUNDARY MISC KINETIC TOTAL TEMP POTENTIAL TOTALAVG TEMPAVG PRESSURE GPRESSURE VOLUME PRESSAVG GPRESSAVG
ENERGY: 0 3.8502 6.7245 7.9142 0.0000 -10678.2772 1403.3023 0.0000 0.0000 1805.9391 -7450.5469 305.6297 -9256.4860 -7450.5469 305.6297 -420.9127 -348.8556 30912.0647 -420.9127 -348.8556
ENERGY: 300000 2.5040 5.7225 6.4529 0.0000 -10698.2925 1403.8729 0.0000 0.0000 1803.2238 -7476.5164 305.1702 -9279.7403 -7517.8755 299.8072 -378.2014 -342.6736 30450.9205 -498.3465 -422.0360
ENERGY: 600000 1.6763 5.3273 6.4899 0.0000 -10621.1621 1352.7088 0.0000 0.0000 1809.1200 -7445.8398 306.1680 -9254.9598 -7504.0641 299.7380 -840.0483 -743.1945 30593.2531 -577.6188 -512.0209
ENERGY: 900000 0.8475 6.9245 7.2639 0.0000 -10821.0903 1508.7220 0.0000 0.0000 1800.2463 -7497.0862 304.6663 -9297.3324 -7511.0670 299.7057 494.6883 622.5608 30204.6456 -383.8003 -320.1494
ENERGY: 1200000 3.2258 8.6794 6.9965 0.0000 -10779.7156 1471.3202 0.0000 0.0000 1787.6944 -7501.7993 302.5420 -9289.4937 -7513.8925 300.5626 51.0202 213.5609 30382.5552 -305.6514 -241.8393
ENERGY: 1500000 2.9613 5.6877 6.9593 0.0000 -10812.1769 1511.7396 0.0000 0.0000 1742.3535 -7542.4755 294.8687 -9284.8290 -7516.9283 300.4352 593.5577 638.6134 30418.1121 -217.7767 -159.2561
TCL: Exiting due to exit command.
