Info: SIMULATION PARAMETERS:
Info: TIMESTEP               2
Info: NUMBER OF STEPS        0
Info: STEPS PER CYCLE        10
Info: PERIODIC CELL BASIS 1  30.2535 0 0
Info: PERIODIC CELL BASIS 2  0 31.5109 0
Info: PERIODIC CELL BASIS 3  0 0 32.2121
Info: PERIODIC CELL CENTER   0 0 0
Info: WRAPPING WATERS AROUND PERIODIC BOUNDARIES ON OUTPUT.
Info: WRAPPING ALL CLUSTERS AROUND PERIODIC BOUNDARIES ON OUTPUT.
Info: FIRST LDB TIMESTEP     50
Info: LAST LDB TIMESTEP     -1
Info: HOM BACKGROUND SCALING 1
Info: PME BACKGROUND SCALING 1
Info: MIN ATOMS PER PATCH    40
Info: EMPTY PATCH LOAD       40 ATOMS
Info: VELOCITY FILE          mobley_2881590_equil.vel
Info: CENTER OF MASS MOVING INITIALLY? NO
Info: DIELECTRIC             1
Info: EXCLUDE                SCALED ONE-FOUR
Info: 1-4 ELECTROSTATICS SCALED BY 0.833333
Info: MODIFIED 1-4 VDW PARAMETERS WILL BE USED
Info: DCD FILENAME           mobley_2881590_prod.dcd
Info: DCD FREQUENCY          100000
Info: DCD FIRST STEP         100000
Info: DCD FILE WILL CONTAIN UNIT CELL DATA
Info: XST FILENAME           mobley_2881590_prod.xst
Info: XST FREQUENCY          100000
Info: NO VELOCITY DCD OUTPUT
Info: NO FORCE DCD OUTPUT
Info: OUTPUT FILENAME        mobley_2881590_prod
Info: BINARY OUTPUT FILES WILL BE USED
Info: RESTART FILENAME       mobley_2881590_prod.restart
Info: RESTART FREQUENCY      100000
Info: BINARY RESTART FILES WILL BE USED
Info: CUTOFF                 9
Info: PAIRLIST DISTANCE      11
Info: PAIRLIST SHRINK RATE   0.01
Info: PAIRLIST GROW RATE     0.01
Info: PAIRLIST TRIGGER       0.3
Info: PAIRLISTS PER CYCLE    2
Info: PAIRLISTS ENABLED
Info: MARGIN                 2
Info: HYDROGEN GROUP CUTOFF  2.5
Info: PATCH DIMENSION        15.5
Info: ENERGY OUTPUT STEPS    100000
Info: ENERGY EVALUATION STEPS    100000
Info: OUTPUT ENERGY PRECISION 4
Info: CROSSTERM ENERGY INCLUDED IN DIHEDRAL
Info: TIMING OUTPUT STEPS    1000000
Info: PRESSURE OUTPUT STEPS  100000
Info: ALCHEMICAL FEP ON
Info: FEP CURRENT LAMBDA VALUE     0
Info: FEP COMPARISON LAMBDA VALUE  0.05
Info: FEP INTRA-ALCHEMICAL NON-BONDED INTERACTIONS WILL BE RETAINED
Info: FEP INTRA-ALCHEMICAL BONDED INTERACTIONS WILL BE RETAINED
Info: FEP VDW SHIFTING COEFFICIENT 5
Info: FEP ELEC. ACTIVE FOR ANNIHILATED PARTICLES BETWEEN LAMBDA = 0 AND LAMBDA = 0.5
Info: FEP ELEC. ACTIVE FOR EXNIHILATED PARTICLES BETWEEN LAMBDA = 0.5 AND LAMBDA = 1
Info: FEP VDW ACTIVE FOR ANNIHILATED PARTICLES BETWEEN LAMBDA = 0 AND LAMBDA = 1
Info: FEP VDW ACTIVE FOR EXNIHILATED PARTICLES BETWEEN LAMBDA = 0 AND LAMBDA = 1
Info: FEP BOND ACTIVE FOR ANNIHILATED PARTICLES BETWEEN LAMBDA = 1 AND LAMBDA = 1
Info: FEP BOND ACTIVE FOR EXNIHILATED PARTICLES BETWEEN LAMBDA = 0 AND LAMBDA = 0
Info: LANGEVIN DYNAMICS ACTIVE
Info: LANGEVIN TEMPERATURE   300
Info: LANGEVIN USING BBK INTEGRATOR
Info: LANGEVIN DAMPING COEFFICIENT IS 1 INVERSE PS
Info: LANGEVIN DYNAMICS APPLIED TO HYDROGENS
Info: LANGEVIN PISTON PRESSURE CONTROL ACTIVE
Info:        TARGET PRESSURE IS 1.01325 BAR
Info:     OSCILLATION PERIOD IS 50 FS
Info:             DECAY TIME IS 25 FS
Info:     PISTON TEMPERATURE IS 300 K
Info:       PRESSURE CONTROL IS GROUP-BASED
Info:    INITIAL STRAIN RATE IS 0.000609677 0.000609677 0.000609677
Info:       CELL FLUCTUATION IS ISOTROPIC
Info: PARTICLE MESH EWALD (PME) ACTIVE
Info: PME TOLERANCE               1e-06
Info: PME EWALD COEFFICIENT       0.348832
Info: PME INTERPOLATION ORDER     4
Info: PME GRID DIMENSIONS         32 32 36
Info: PME MAXIMUM GRID SPACING    1
Info: PME CALCULATION WILL BE PERFORMED ON GPU
Info: FULL ELECTROSTATIC EVALUATION FREQUENCY      2
Info: USING VERLET I (r-RESPA) MTS SCHEME.
Info: C1 SPLITTING OF LONG RANGE ELECTROSTATICS
Info: PLACING ATOMS IN PATCHES BY HYDROGEN GROUPS
Info: RIGID BONDS TO HYDROGEN : ALL
Info:         ERROR TOLERANCE : 1e-08
Info:          MAX ITERATIONS : 100
Info: RIGID WATER USING SETTLE ALGORITHM
Info: RANDOM NUMBER SEED     1743912801
Info: USE HYDROGEN BONDS?    NO
Info: Using AMBER format force field!
Info: AMBER PARM FILE        mobley_2881590.prmtop
Info: COORDINATE PDB         mobley_2881590.pdb
Info: Exclusions will be read from PARM file!
Info: SCNB (VDW SCALING)     2
Info: USING ARITHMETIC MEAN TO COMBINE L-J SIGMA PARAMETERS
Info: BINARY COORDINATES     mobley_2881590_equil.coor
Info: SUMMARY OF PARAMETERS:
Info: 8 BONDS
Info: 10 ANGLES
Info:   10 HARMONIC
Info:   0 COSINE-BASED
Info: 7 DIHEDRAL
Info: 0 IMPROPER
Info: 0 CROSSTERM
Info: 0 VDW
Info: 36 VDW_PAIRS
Info: 0 NBTHOLE_PAIRS
Info: To read alchdata from file: mobley_2881590.pdb
Info: To read alchflag data from column: 5
Info: STRUCTURE SUMMARY:
Info: 2963 ATOMS
Info: 2962 BONDS
Info: 28 ANGLES
Info: 33 DIHEDRALS
Info: 0 IMPROPERS
Info: 0 CROSSTERMS
Info: 3022 EXCLUSIONS
Info: 2955 RIGID BONDS
Info: ALCH: 0 ATOMS TO DISAPPEAR IN FINAL STATE
Info: ALCH: 17 ATOMS TO APPEAR IN FINAL STATE
Info: 5934 DEGREES OF FREEDOM
Info: 990 HYDROGEN GROUPS
Info: 4 ATOMS IN LARGEST HYDROGEN GROUP
Info: 990 MIGRATION GROUPS
Info: 4 ATOMS IN LARGEST MIGRATION GROUP
Info: TOTAL MASS = 17810.8 amu
Info: TOTAL CHARGE = -0.000200003 e
Info: MASS DENSITY = 0.96314 g/cm^3
Info: ATOM DENSITY = 0.0964889 atoms/A^3
Info: ADDED 0 IMPLICIT EXCLUSIONS
Info: NONBONDED TABLE R-SQUARED SPACING: 0.0625
Info: NONBONDED TABLE SIZE: 705 POINTS
Info: REMOVING COM VELOCITY -0.0121099 -0.0945775 0.0897492
Info: Use 3D box decompostion in PME FFT.
Info: Updated CUDA force table with 4096 elements.
Info: Updated CUDA LJ table with 8 x 8 elements.
Info: Found 20 unique exclusion lists needing 48 bytes
TCL: Running for 1500000 steps
ETITLE: TS BOND ANGLE DIHED IMPRP ELECT VDW BOUNDARY MISC KINETIC TOTAL TEMP POTENTIAL TOTALAVG TEMPAVG PRESSURE GPRESSURE VOLUME PRESSAVG GPRESSAVG
ENERGY: 0 2.2685 12.8905 1.7219 0.0000 -10677.6278 1401.7617 0.0000 0.0000 1818.1131 -7440.8720 308.3641 -9258.9851 -7440.8720 308.3641 -512.5995 -430.7359 30708.1812 -512.5995 -430.7359
ENERGY: 300000 2.0328 7.9192 1.3847 0.0000 -10790.5569 1517.8272 0.0000 0.0000 1741.6075 -7519.7854 295.3882 -9261.3929 -7507.2403 300.7855 394.1809 466.3934 30718.4800 227.2379 308.2263
ENERGY: 600000 0.9229 5.7907 1.0369 0.0000 -10698.1741 1481.1189 0.0000 0.0000 1793.7026 -7415.6020 304.2239 -9209.3046 -7498.2982 300.5606 638.3715 737.3276 30093.5267 303.4312 380.5144
ENERGY: 900000 4.5265 9.5255 2.4548 0.0000 -10717.3729 1442.4225 0.0000 0.0000 1840.9707 -7417.4729 312.2408 -9258.4436 -7497.6064 300.8220 86.9349 137.4927 29864.7739 133.0623 209.2691
ENERGY: 1200000 2.0425 7.5242 1.7086 0.0000 -10668.5595 1388.3706 0.0000 0.0000 1753.8703 -7515.0433 297.4680 -9268.9136 -7497.7361 300.5311 -652.2805 -633.3801 30654.9687 -15.5551 48.1836
ENERGY: 1500000 2.2357 6.0364 1.0453 0.0000 -10680.4800 1403.6014 0.0000 0.0000 1750.6168 -7516.9444 296.9162 -9267.5612 -7493.4906 300.3298 -241.9381 -155.7136 30290.4779 -72.9546 -8.3428
TCL: Running FEP window   2: Lambda1 0.05   Lambda2 0.1    [dLambda 0.05  ]
TCL: Setting parameter firsttimestep to 0
TCL: Setting parameter alchLambda to 0.05
Info: NONBONDED TABLE R-SQUARED SPACING: 0.0625
Info: NONBONDED TABLE SIZE: 705 POINTS
TCL: Setting parameter alchLambda2 to 0.1
Info: NONBONDED TABLE R-SQUARED SPACING: 0.0625
Info: NONBONDED TABLE SIZE: 705 POINTS
TCL: Running for 1500000 steps
ETITLE: TS BOND ANGLE DIHED IMPRP ELECT VDW BOUNDARY MISC KINETIC TOTAL TEMP POTENTIAL TOTALAVG TEMPAVG PRESSURE GPRESSURE VOLUME PRESSAVG GPRESSAVG
ENERGY: 0 2.2357 6.0364 1.0453 0.0000 -10680.4793 1404.5000 0.0000 0.0000 1749.7324 -7516.9295 296.7662 -9266.6619 -7516.9295 296.7662 -240.2807 -152.0982 30290.4779 -240.2807 -152.0982
ENERGY: 300000 5.0621 10.4882 2.7077 0.0000 -10860.7335 1499.9159 0.0000 0.0000 1710.5055 -7632.0540 290.1131 -9342.5595 -7513.1433 295.7232 107.5403 208.3936 30099.2937 -263.5942 -199.0743
ENERGY: 600000 1.7292 8.9099 2.0507 0.0000 -10602.8922 1369.1442 0.0000 0.0000 1789.9527 -7431.1054 303.5879 -9221.0582 -7511.2460 296.5115 -689.4807 -640.6857 30637.5465 -212.9789 -147.3303
ENERGY: 900000 1.5265 7.6080 1.6035 0.0000 -10544.8351 1398.6125 0.0000 0.0000 1768.3997 -7367.0849 299.9323 -9135.4846 -7497.2362 297.7078 95.7978 154.0427 30415.3875 -214.9916 -148.6167
ENERGY: 1200000 1.6775 8.9097 3.1300 0.0000 -10689.7130 1441.1132 0.0000 0.0000 1802.8100 -7432.0726 305.7685 -9234.8827 -7504.6081 298.1315 296.7771 323.0052 30122.4065 -166.9717 -109.5380
ENERGY: 1500000 0.6952 8.4698 1.5948 0.0000 -10652.5800 1367.5622 0.0000 0.0000 1759.1372 -7515.1208 298.3613 -9274.2580 -7510.6560 298.3570 -536.4088 -420.7619 30182.7699 -203.6502 -146.0969
TCL: Running FEP window   3: Lambda1 0.1    Lambda2 0.15000000000000002 [dLambda 0.05000000000000002]
TCL: Setting parameter firsttimestep to 0
TCL: Setting parameter alchLambda to 0.1
Info: NONBONDED TABLE R-SQUARED SPACING: 0.0625
Info: NONBONDED TABLE SIZE: 705 POINTS
TCL: Setting parameter alchLambda2 to 0.15000000000000002
Info: NONBONDED TABLE R-SQUARED SPACING: 0.0625
Info: NONBONDED TABLE SIZE: 705 POINTS
TCL: Running for 1500000 steps
ETITLE: TS BOND ANGLE DIHED IMPRP ELECT VDW BOUNDARY MISC KINETIC TOTAL TEMP POTENTIAL TOTALAVG TEMPAVG PRESSURE GPRESSURE VOLUME PRESSAVG GPRESSAVG
ENERGY: 0 0.6952 8.4698 1.5948 0.0000 -10652.5810 1369.6793 0.0000 0.0000 1758.2302 -7513.9117 298.2075 -9272.1419 -7513.9117 298.2075 -510.6655 -413.5096 30182.7699 -510.6655 -413.5096
ENERGY: 300000 1.4713 5.2843 2.8825 0.0000 -10646.0197 1352.6572 0.0000 0.0000 1749.6910 -7534.0335 296.7592 -9283.7245 -7484.7675 300.4332 -723.1304 -709.2102 30256.1442 -686.8312 -639.7419
ENERGY: 600000 1.3385 8.1412 2.6392 0.0000 -10609.3776 1440.2377 0.0000 0.0000 1812.3961 -7344.6250 307.3944 -9157.0211 -7472.1178 300.9627 217.2206 209.2549 30593.3110 -430.2545 -381.3302
ENERGY: 900000 0.7290 6.3948 3.4002 0.0000 -10700.6976 1376.1243 0.0000 0.0000 1734.3048 -7579.7444 294.1496 -9314.0493 -7497.3187 299.8935 -723.4772 -725.5269 30719.4881 -428.9494 -385.1502
ENERGY: 1200000 0.7435 6.8161 1.8315 0.0000 -10725.5540 1427.8925 0.0000 0.0000 1771.0469 -7517.2234 300.3813 -9288.2703 -7506.0510 299.0410 -330.2492 -220.6618 30405.1363 -339.8232 -287.1853
ENERGY: 1500000 1.5522 7.4030 1.2885 0.0000 -10802.7376 1432.2316 0.0000 0.0000 1775.2261 -7585.0363 301.0901 -9360.2623 -7510.0590 298.6433 -389.5753 -318.4330 30426.3285 -266.2461 -211.5654
TCL: Running FEP window   4: Lambda1 0.15000000000000002 Lambda2 0.2    [dLambda 0.04999999999999999]
TCL: Setting parameter firsttimestep to 0
TCL: Setting parameter alchLambda to 0.15000000000000002
Info: NONBONDED TABLE R-SQUARED SPACING: 0.0625
Info: NONBONDED TABLE SIZE: 705 POINTS
TCL: Setting parameter alchLambda2 to 0.2
Info: NONBONDED TABLE R-SQUARED SPACING: 0.0625
Info: NONBONDED TABLE SIZE: 705 POINTS
TCL: Running for 1500000 steps
ETITLE: TS BOND ANGLE DIHED IMPRP ELECT VDW BOUNDARY MISC KINETIC TOTAL TEMP POTENTIAL TOTALAVG TEMPAVG PRESSURE GPRESSURE VOLUME PRESSAVG GPRESSAVG
ENERGY: 0 1.5522 7.4030 1.2885 0.0000 -10802.7379 1433.7594 0.0000 0.0000 1774.3263 -7584.4086 300.9375 -9358.7349 -7584.4086 300.9375 -387.1833 -311.7557 30426.3285 -387.1833 -311.7557
ENERGY: 300000 3.0935 6.7698 1.5877 0.0000 -10613.6555 1327.7446 0.0000 0.0000 1734.3204 -7540.1395 294.1522 -9274.4599 -7539.2923 299.7705 -889.6243 -817.1526 30266.3541 -87.1534 -14.5129
ENERGY: 600000 3.2472 8.3848 1.7403 0.0000 -10753.5718 1491.4425 0.0000 0.0000 1769.8755 -7478.8816 300.1826 -9248.7571 -7506.0754 301.6294 422.4310 451.2521 30326.0276 -145.9227 -76.3594
ENERGY: 900000 1.9429 6.5572 1.4116 0.0000 -10719.9516 1383.5336 0.0000 0.0000 1791.2245 -7535.2818 303.8036 -9326.5063 -7492.7098 300.7329 -675.0726 -690.3254 30566.1186 -154.3759 -98.0904
ENERGY: 1200000 1.8311 6.7507 1.6764 0.0000 -10708.3053 1514.7023 0.0000 0.0000 1752.7962 -7430.5485 297.2859 -9183.3447 -7482.6541 301.0498 866.4579 941.1335 29885.4469 -71.8465 -14.1544
ENERGY: 1500000 1.5190 6.8725 1.0971 0.0000 -10775.7876 1459.3459 0.0000 0.0000 1774.0740 -7532.8791 300.8947 -9306.9531 -7494.0529 300.0603 144.5136 142.9578 30009.4569 -129.8172 -72.4949
TCL: Running FEP window   5: Lambda1 0.2    Lambda2 0.25   [dLambda 0.04999999999999999]
TCL: Setting parameter firsttimestep to 0
TCL: Setting parameter alchLambda to 0.2
Info: NONBONDED TABLE R-SQUARED SPACING: 0.0625
Info: NONBONDED TABLE SIZE: 705 POINTS
TCL: Setting parameter alchLambda2 to 0.25
Info: NONBONDED TABLE R-SQUARED SPACING: 0.0625
Info: NONBONDED TABLE SIZE: 705 POINTS
TCL: Running for 1500000 steps
ETITLE: TS BOND ANGLE DIHED IMPRP ELECT VDW BOUNDARY MISC KINETIC TOTAL TEMP POTENTIAL TOTALAVG TEMPAVG PRESSURE GPRESSURE VOLUME PRESSAVG GPRESSAVG
ENERGY: 0 1.5190 6.8725 1.0971 0.0000 -10775.7869 1460.3053 0.0000 0.0000 1773.2178 -7532.7753 300.7495 -9305.9931 -7532.7753 300.7495 66.7712 147.6932 30009.4569 66.7712 147.6932
ENERGY: 300000 3.6104 6.8140 0.4049 0.0000 -10812.7886 1434.7438 0.0000 0.0000 1783.6210 -7583.5946 302.5140 -9367.2155 -7534.7199 301.7970 -390.8284 -372.2834 30328.1754 -169.5336 -101.3787
ENERGY: 600000 1.3876 14.3070 2.4604 0.0000 -10608.6257 1340.2810 0.0000 0.0000 1807.3826 -7442.8071 306.5441 -9250.1897 -7509.2754 303.1546 -857.8702 -861.4317 30685.9597 -253.1619 -196.5013
ENERGY: 900000 3.8649 5.0248 1.1926 0.0000 -10713.9454 1444.8711 0.0000 0.0000 1769.4828 -7489.5091 300.1160 -9258.9919 -7503.2256 302.4407 -398.5633 -236.1416 30753.4512 -218.6383 -147.7560
ENERGY: 1200000 2.2454 7.2358 2.9130 0.0000 -10792.1665 1511.2779 0.0000 0.0000 1785.6166 -7482.8778 302.8524 -9268.4944 -7487.6790 303.0507 468.4530 546.0220 30360.3816 -73.4080 -0.9536
ENERGY: 1500000 2.4629 4.6910 1.0241 0.0000 -10807.5481 1533.1517 0.0000 0.0000 1751.8226 -7514.3957 297.1207 -9266.2183 -7479.3034 302.2070 533.2957 579.8849 30528.0304 -9.0571 64.4514
TCL: Running FEP window   6: Lambda1 0.25   Lambda2 0.3    [dLambda 0.04999999999999999]
TCL: Setting parameter firsttimestep to 0
TCL: Setting parameter alchLambda to 0.25
Info: NONBONDED TABLE R-SQUARED SPACING: 0.0625
Info: NONBONDED TABLE SIZE: 705 POINTS
TCL: Setting parameter alchLambda2 to 0.3
Info: NONBONDED TABLE R-SQUARED SPACING: 0.0625
Info: NONBONDED TABLE SIZE: 705 POINTS
TCL: Running for 1500000 steps
ETITLE: TS BOND ANGLE DIHED IMPRP ELECT VDW BOUNDARY MISC KINETIC TOTAL TEMP POTENTIAL TOTALAVG TEMPAVG PRESSURE GPRESSURE VOLUME PRESSAVG GPRESSAVG
ENERGY: 0 2.4629 4.6910 1.0241 0.0000 -10807.5476 1533.1394 0.0000 0.0000 1750.9499 -7515.2802 296.9727 -9266.2301 -7515.2802 296.9727 504.4539 584.0671 30528.0304 504.4539 584.0671
ENERGY: 300000 3.2443 4.2804 2.5369 0.0000 -10709.3047 1405.0170 0.0000 0.0000 1831.7900 -7462.4361 310.6837 -9294.2261 -7484.3297 303.5392 -438.0393 -373.4917 30472.9266 10.8387 82.6215
ENERGY: 600000 1.1838 10.2578 2.5218 0.0000 -10732.9005 1383.6881 0.0000 0.0000 1759.6560 -7575.5929 298.4493 -9335.2489 -7509.3063 301.3555 -765.9097 -654.5951 30693.8464 41.6347 118.7937
ENERGY: 900000 0.7606 7.2137 1.5840 0.0000 -10771.3632 1479.4994 0.0000 0.0000 1727.1698 -7555.1358 292.9395 -9282.3055 -7527.8057 299.5975 111.8662 191.2136 30576.0107 47.3642 122.7194
ENERGY: 1200000 1.6943 5.8484 2.9129 0.0000 -10835.7054 1500.3220 0.0000 0.0000 1846.7431 -7478.1846 313.2199 -9324.9277 -7522.6688 300.5979 246.2218 293.8251 30370.0057 18.0791 82.0825
ENERGY: 1500000 1.0028 10.8128 0.3835 0.0000 -10722.6081 1378.5357 0.0000 0.0000 1790.8998 -7540.9736 303.7485 -9331.8733 -7523.8620 300.7708 -492.7596 -368.5850 29985.7890 -48.4306 18.8916
TCL: Running FEP window   7: Lambda1 0.3    Lambda2 0.35   [dLambda 0.04999999999999999]
TCL: Setting parameter firsttimestep to 0
TCL: Setting parameter alchLambda to 0.3
Info: NONBONDED TABLE R-SQUARED SPACING: 0.0625
Info: NONBONDED TABLE SIZE: 705 POINTS
TCL: Setting parameter alchLambda2 to 0.35
Info: NONBONDED TABLE R-SQUARED SPACING: 0.0625
Info: NONBONDED TABLE SIZE: 705 POINTS
TCL: Running for 1500000 steps
ETITLE: TS BOND ANGLE DIHED IMPRP ELECT VDW BOUNDARY MISC KINETIC TOTAL TEMP POTENTIAL TOTALAVG TEMPAVG PRESSURE GPRESSURE VOLUME PRESSAVG GPRESSAVG
ENERGY: 0 1.0027 10.8128 0.3835 0.0000 -10722.6068 1380.1083 0.0000 0.0000 1789.9935 -7540.3060 303.5948 -9330.2995 -7540.3060 303.5948 -433.5202 -351.0271 29985.7890 -433.5202 -351.0271
ENERGY: 300000 4.6802 6.9572 4.1259 0.0000 -10810.9630 1535.0141 0.0000 0.0000 1818.6527 -7441.5328 308.4556 -9260.1855 -7523.7336 300.4080 655.7378 719.0273 30398.5852 -245.1913 -161.6908
ENERGY: 600000 3.3130 6.8220 1.0006 0.0000 -10561.0452 1334.0090 0.0000 0.0000 1765.6837 -7450.2169 299.4717 -9215.9005 -7505.1425 300.9521 -1109.6778 -988.9435 30963.8084 -255.2383 -176.7395
ENERGY: 900000 1.1194 4.8051 4.4277 0.0000 -10584.9176 1338.9407 0.0000 0.0000 1800.8211 -7434.8037 305.4312 -9235.6248 -7500.7577 300.8834 -1007.1620 -1006.7570 30992.9192 -213.8131 -141.4229
ENERGY: 1200000 1.0303 9.2795 3.5347 0.0000 -10669.1371 1362.1958 0.0000 0.0000 1783.9915 -7509.1053 302.5768 -9293.0968 -7486.5595 302.0774 -668.0024 -581.8978 30298.9263 -306.3827 -239.1336
ENERGY: 1500000 1.8780 6.2748 2.2385 0.0000 -10656.8365 1394.1064 0.0000 0.0000 1754.8506 -7497.4882 297.6343 -9252.3389 -7471.6543 302.1009 -480.1480 -428.3871 30676.3607 -276.1474 -207.8959
TCL: Running FEP window   8: Lambda1 0.35   Lambda2 0.39999999999999997 [dLambda 0.04999999999999999]
TCL: Setting parameter firsttimestep to 0
TCL: Setting parameter alchLambda to 0.35
Info: NONBONDED TABLE R-SQUARED SPACING: 0.0625
Info: NONBONDED TABLE SIZE: 705 POINTS
TCL: Setting parameter alchLambda2 to 0.39999999999999997
Info: NONBONDED TABLE R-SQUARED SPACING: 0.0625
Info: NONBONDED TABLE SIZE: 705 POINTS
TCL: Running for 1500000 steps
ETITLE: TS BOND ANGLE DIHED IMPRP ELECT VDW BOUNDARY MISC KINETIC TOTAL TEMP POTENTIAL TOTALAVG TEMPAVG PRESSURE GPRESSURE VOLUME PRESSAVG GPRESSAVG
ENERGY: 0 1.8780 6.2748 2.2385 0.0000 -10656.8374 1393.7803 0.0000 0.0000 1753.9729 -7498.6929 297.4854 -9252.6658 -7498.6929 297.4854 -513.8571 -425.5603 30676.3607 -513.8571 -425.5603
ENERGY: 300000 1.6556 9.7348 2.8550 0.0000 -10733.9395 1436.0983 0.0000 0.0000 1746.2274 -7537.3684 296.1718 -9283.5958 -7496.8162 298.6843 -319.8432 -247.3524 30538.7109 -308.8050 -256.1806
ENERGY: 600000 2.5889 7.3644 2.6670 0.0000 -10717.8171 1483.8033 0.0000 0.0000 1749.2626 -7472.1310 296.6865 -9221.3935 -7496.4483 299.7940 232.1702 308.7972 30572.6653 -248.4325 -188.9009
ENERGY: 900000 2.3353 9.3114 3.5470 0.0000 -10763.0728 1484.0072 0.0000 0.0000 1762.1652 -7501.7067 298.8749 -9263.8719 -7496.5017 300.1788 26.8960 58.1153 30773.4898 -56.6345 15.3146
ENERGY: 1200000 3.4245 8.3219 1.1314 0.0000 -10765.7542 1478.8743 0.0000 0.0000 1757.1178 -7516.8843 298.0188 -9274.0021 -7501.2233 299.7246 -16.4029 49.9080 30543.7268 -47.2984 19.7679
ENERGY: 1500000 2.3910 6.8499 1.6054 0.0000 -10660.3843 1436.2530 0.0000 0.0000 1723.3698 -7489.9152 292.2950 -9213.2851 -7503.4576 299.1504 -76.8892 -70.0892 30660.4497 -51.1102 13.0791
TCL: Running FEP window   9: Lambda1 0.39999999999999997 Lambda2 0.44999999999999996 [dLambda 0.04999999999999999]
TCL: Setting parameter firsttimestep to 0
TCL: Setting parameter alchLambda to 0.39999999999999997
Info: NONBONDED TABLE R-SQUARED SPACING: 0.0625
Info: NONBONDED TABLE SIZE: 705 POINTS
TCL: Setting parameter alchLambda2 to 0.44999999999999996
Info: NONBONDED TABLE R-SQUARED SPACING: 0.0625
Info: NONBONDED TABLE SIZE: 705 POINTS
TCL: Running for 1500000 steps
ETITLE: TS BOND ANGLE DIHED IMPRP ELECT VDW BOUNDARY MISC KINETIC TOTAL TEMP POTENTIAL TOTALAVG TEMPAVG PRESSURE GPRESSURE VOLUME PRESSAVG GPRESSAVG
ENERGY: 0 2.3910 6.8499 1.6054 0.0000 -10660.3846 1438.0845 0.0000 0.0000 1722.4588 -7488.9951 292.1404 -9211.4538 -7488.9951 292.1404 -149.8618 -54.5065 30660.4497 -149.8618 -54.5065
ENERGY: 300000 2.9183 4.5910 2.5107 0.0000 -10540.8598 1360.9580 0.0000 0.0000 1772.9738 -7396.9080 300.7081 -9169.8818 -7510.1700 296.9010 -618.0120 -559.0106 30895.2260 -413.3224 -365.1063
ENERGY: 600000 2.1058 5.6723 1.1596 0.0000 -10867.9838 1583.0663 0.0000 0.0000 1755.5505 -7520.4293 297.7530 -9275.9798 -7521.3827 298.7679 1229.9315 1249.7762 30037.6959 -58.2228 -19.4023
ENERGY: 900000 1.0294 7.9619 1.2128 0.0000 -10737.6970 1397.1964 0.0000 0.0000 1809.3189 -7520.9777 306.8725 -9330.2965 -7509.0405 299.2401 -240.9623 -186.9116 30155.2975 -84.6744 -40.4779
ENERGY: 1200000 3.8380 8.3090 2.7809 0.0000 -10694.5287 1483.0605 0.0000 0.0000 1802.3752 -7394.1651 305.6948 -9196.5403 -7491.0263 300.0027 824.5580 817.4588 30110.3569 -71.9761 -30.5168
ENERGY: 1500000 1.8779 11.3040 2.2952 0.0000 -10633.1515 1372.2366 0.0000 0.0000 1746.0613 -7499.3764 296.1436 -9245.4377 -7487.8075 300.2123 -566.3958 -524.0503 30536.4248 -119.4499 -81.5825
TCL: Running FEP window  10: Lambda1 0.44999999999999996 Lambda2 0.49999999999999994 [dLambda 0.04999999999999999]
TCL: Setting parameter firsttimestep to 0
TCL: Setting parameter alchLambda to 0.44999999999999996
Info: NONBONDED TABLE R-SQUARED SPACING: 0.0625
Info: NONBONDED TABLE SIZE: 705 POINTS
TCL: Setting parameter alchLambda2 to 0.49999999999999994
Info: NONBONDED TABLE R-SQUARED SPACING: 0.0625
Info: NONBONDED TABLE SIZE: 705 POINTS
TCL: Running for 1500000 steps
ETITLE: TS BOND ANGLE DIHED IMPRP ELECT VDW BOUNDARY MISC KINETIC TOTAL TEMP POTENTIAL TOTALAVG TEMPAVG PRESSURE GPRESSURE VOLUME PRESSAVG GPRESSAVG
ENERGY: 0 1.8779 11.3040 2.2952 0.0000 -10633.1510 1371.9031 0.0000 0.0000 1745.1476 -7500.6231 295.9886 -9245.7707 -7500.6231 295.9886 -608.5883 -519.0265 30536.4248 -608.5883 -519.0265
ENERGY: 300000 3.5706 6.7340 4.7728 0.0000 -10740.4388 1454.0644 0.0000 0.0000 1837.4007 -7433.8963 311.6354 -9271.2970 -7499.0967 302.6626 2.3087 41.0160 30519.8533 -230.0542 -182.7187
ENERGY: 600000 4.4932 10.0306 1.7151 0.0000 -10831.0387 1426.9751 0.0000 0.0000 1793.3394 -7594.4852 304.1623 -9387.8246 -7510.8647 303.3391 -170.4022 -97.0827 30000.6763 -186.0761 -116.1947
ENERGY: 900000 0.9353 6.8332 2.4754 0.0000 -10900.4969 1556.3030 0.0000 0.0000 1786.4111 -7547.5389 302.9872 -9333.9500 -7505.2044 301.7828 822.6043 883.3290 30279.0988 -105.0328 -39.5022
ENERGY: 1200000 0.3317 6.2549 0.9936 0.0000 -10595.7606 1367.1842 0.0000 0.0000 1810.2725 -7410.7236 307.0342 -9220.9961 -7478.7448 303.6313 -314.4564 -241.2383 30644.9808 -104.6370 -40.3481
ENERGY: 1500000 2.2893 9.4519 2.5337 0.0000 -10830.9170 1533.1818 0.0000 0.0000 1804.2421 -7479.2182 306.0114 -9283.4602 -7478.9426 302.7221 946.6555 1022.5356 29987.9270 19.8351 81.3561
TCL: Running FEP window  11: Lambda1 0.49999999999999994 Lambda2 0.5499999999999999 [dLambda 0.04999999999999999]
TCL: Setting parameter firsttimestep to 0
TCL: Setting parameter alchLambda to 0.49999999999999994
Info: NONBONDED TABLE R-SQUARED SPACING: 0.0625
Info: NONBONDED TABLE SIZE: 705 POINTS
TCL: Setting parameter alchLambda2 to 0.5499999999999999
Info: NONBONDED TABLE R-SQUARED SPACING: 0.0625
Info: NONBONDED TABLE SIZE: 705 POINTS
TCL: Running for 1500000 steps
ETITLE: TS BOND ANGLE DIHED IMPRP ELECT VDW BOUNDARY MISC KINETIC TOTAL TEMP POTENTIAL TOTALAVG TEMPAVG PRESSURE GPRESSURE VOLUME PRESSAVG GPRESSAVG
ENERGY: 0 2.2893 9.4519 2.5337 0.0000 -10830.9176 1532.6710 0.0000 0.0000 1803.3723 -7480.5994 305.8639 -9283.9716 -7480.5994 305.8639 938.4236 1025.0582 29987.9270 938.4236 1025.0582
ENERGY: 300000 2.2116 5.8761 3.2359 0.0000 -10548.3755 1313.3514 0.0000 0.0000 1752.2483 -7471.4522 297.1929 -9223.7005 -7478.0270 301.8301 -1169.8804 -1084.9016 30814.2893 120.5222 195.3887
ENERGY: 600000 1.0379 8.4208 2.9166 0.0000 -10747.3757 1503.6319 0.0000 0.0000 1783.1671 -7448.2014 302.4370 -9231.3685 -7484.2842 301.3633 564.4984 599.0571 30483.9369 192.8596 256.7357
ENERGY: 900000 2.9933 20.0287 2.5217 0.0000 -10831.6155 1464.7506 0.0000 0.0000 1760.2037 -7581.1175 298.5422 -9341.3212 -7495.3736 300.7514 88.0419 187.2006 30184.2544 140.1265 205.9307
ENERGY: 1200000 1.6601 8.1909 2.0897 0.0000 -10591.1485 1385.0116 0.0000 0.0000 1772.2156 -7421.9806 300.5795 -9194.1962 -7500.4566 300.0825 -227.4021 -142.1975 30490.4273 63.1509 126.1386
ENERGY: 1500000 1.3828 6.6734 2.3638 0.0000 -10740.0931 1412.1818 0.0000 0.0000 1736.1266 -7581.3646 294.4586 -9317.4913 -7504.8971 299.5599 -374.5988 -376.1608 30584.7780 81.0487 134.7114
TCL: Running FEP window  12: Lambda1 0.5499999999999999 Lambda2 0.6    [dLambda 0.050000000000000044]
TCL: Setting parameter firsttimestep to 0
TCL: Setting parameter alchLambda to 0.5499999999999999
Info: NONBONDED TABLE R-SQUARED SPACING: 0.0625
Info: NONBONDED TABLE SIZE: 705 POINTS
TCL: Setting parameter alchLambda2 to 0.6
Info: NONBONDED TABLE R-SQUARED SPACING: 0.0625
Info: NONBONDED TABLE SIZE: 705 POINTS
TCL: Running for 1500000 steps
ETITLE: TS BOND ANGLE DIHED IMPRP ELECT VDW BOUNDARY MISC KINETIC TOTAL TEMP POTENTIAL TOTALAVG TEMPAVG PRESSURE GPRESSURE VOLUME PRESSAVG GPRESSAVG
ENERGY: 0 1.3828 6.6734 2.3638 0.0000 -10740.2458 1413.4279 0.0000 0.0000 1735.2570 -7581.1409 294.3111 -9316.3979 -7581.1409 294.3111 -442.9639 -359.4066 30584.7780 -442.9639 -359.4066
ENERGY: 300000 1.1168 11.3216 1.0340 0.0000 -10832.1826 1505.3935 0.0000 0.0000 1799.1753 -7514.1415 305.1521 -9313.3168 -7543.4740 299.7566 455.4730 551.1795 30409.0896 -91.5484 -0.9672
ENERGY: 600000 2.0339 3.2485 1.1870 0.0000 -10615.2744 1321.7977 0.0000 0.0000 1779.1915 -7507.8158 301.7627 -9287.0074 -7520.7696 300.6651 -780.9919 -720.3742 30197.9981 -133.2235 -60.7404
ENERGY: 900000 3.4103 9.0397 2.9888 0.0000 -10867.6651 1493.2427 0.0000 0.0000 1779.0449 -7579.9386 301.7378 -9358.9835 -7517.1699 300.6110 162.5743 212.1713 30010.5509 -157.3449 -90.0780
ENERGY: 1200000 4.2189 6.6773 1.3390 0.0000 -10641.7316 1410.2037 0.0000 0.0000 1758.0325 -7461.2603 298.1740 -9219.2928 -7514.7438 300.2354 -282.7443 -175.7533 30498.6672 -160.0845 -88.6469
ENERGY: 1500000 1.0700 6.1475 1.6046 0.0000 -10690.0681 1434.2467 0.0000 0.0000 1726.4219 -7520.5774 292.8126 -9246.9993 -7515.8906 299.5028 14.8346 56.6421 30531.6407 -126.1314 -60.1533
TCL: Running FEP window  13: Lambda1 0.6    Lambda2 0.65   [dLambda 0.050000000000000044]
TCL: Setting parameter firsttimestep to 0
TCL: Setting parameter alchLambda to 0.6
Info: NONBONDED TABLE R-SQUARED SPACING: 0.0625
Info: NONBONDED TABLE SIZE: 705 POINTS
TCL: Setting parameter alchLambda2 to 0.65
Info: NONBONDED TABLE R-SQUARED SPACING: 0.0625
Info: NONBONDED TABLE SIZE: 705 POINTS
TCL: Running for 1500000 steps
ETITLE: TS BOND ANGLE DIHED IMPRP ELECT VDW BOUNDARY MISC KINETIC TOTAL TEMP POTENTIAL TOTALAVG TEMPAVG PRESSURE GPRESSURE VOLUME PRESSAVG GPRESSAVG
ENERGY: 0 1.0700 6.1475 1.6046 0.0000 -10690.0001 1434.0766 0.0000 0.0000 1725.5411 -7521.5602 292.6632 -9247.1013 -7521.5602 292.6632 -22.8837 61.4301 30531.6407 -22.8837 61.4301
ENERGY: 300000 1.6063 7.5357 2.5180 0.0000 -10785.5752 1489.5276 0.0000 0.0000 1773.4551 -7510.9325 300.7898 -9284.3876 -7540.5686 297.4372 734.4972 731.2120 29895.8016 186.7864 219.4279
ENERGY: 600000 2.0156 7.4330 2.3748 0.0000 -10770.7326 1438.7299 0.0000 0.0000 1741.0952 -7579.0843 295.3013 -9320.1794 -7539.8379 298.1405 -267.0046 -221.8940 30779.0121 50.2355 89.3871
ENERGY: 900000 1.3057 4.5985 1.5655 0.0000 -10623.6921 1361.8554 0.0000 0.0000 1780.7703 -7473.5968 302.0305 -9254.3670 -7541.2215 297.7481 -713.9913 -573.9708 30807.1364 -105.0260 -56.4349
ENERGY: 1200000 0.9641 7.4694 1.8999 0.0000 -10726.9146 1400.2596 0.0000 0.0000 1735.9278 -7580.3938 294.4249 -9316.3216 -7540.9419 298.3163 -462.0473 -335.4669 30249.9614 -135.0297 -74.3554
ENERGY: 1500000 2.7689 7.9882 4.3880 0.0000 -10783.8678 1480.2546 0.0000 0.0000 1768.1456 -7520.3224 299.8892 -9288.4680 -7534.6437 299.4592 123.7903 152.5519 30646.8723 -160.1699 -101.0749
TCL: Running FEP window  14: Lambda1 0.65   Lambda2 0.7000000000000001 [dLambda 0.050000000000000044]
TCL: Setting parameter firsttimestep to 0
TCL: Setting parameter alchLambda to 0.65
Info: NONBONDED TABLE R-SQUARED SPACING: 0.0625
Info: NONBONDED TABLE SIZE: 705 POINTS
TCL: Setting parameter alchLambda2 to 0.7000000000000001
Info: NONBONDED TABLE R-SQUARED SPACING: 0.0625
Info: NONBONDED TABLE SIZE: 705 POINTS
TCL: Running for 1500000 steps
ETITLE: TS BOND ANGLE DIHED IMPRP ELECT VDW BOUNDARY MISC KINETIC TOTAL TEMP POTENTIAL TOTALAVG TEMPAVG PRESSURE GPRESSURE VOLUME PRESSAVG GPRESSAVG
ENERGY: 0 2.7689 7.9882 4.3880 0.0000 -10783.8035 1480.8843 0.0000 0.0000 1767.2735 -7520.5006 299.7413 -9287.7740 -7520.5006 299.7413 94.3899 168.0921 30646.8723 94.3899 168.0921
ENERGY: 300000 1.7389 5.1776 1.9014 0.0000 -10730.6084 1469.6955 0.0000 0.0000 1804.3969 -7447.6981 306.0377 -9252.0950 -7506.1207 300.2044 125.6968 119.3877 30766.9511 -152.2853 -92.2328
ENERGY: 600000 1.5416 7.0141 1.5585 0.0000 -10754.4398 1425.9569 0.0000 0.0000 1794.9529 -7523.4158 304.4359 -9318.3687 -7515.8116 300.2171 -62.2367 -19.5312 30527.6193 -163.6979 -106.1011
ENERGY: 900000 2.2559 10.5284 1.1385 0.0000 -10642.4155 1395.9877 0.0000 0.0000 1745.3002 -7487.2048 296.0145 -9232.5050 -7509.3621 300.8049 -257.1637 -208.5886 30243.2611 -101.7988 -45.9830
ENERGY: 1200000 1.4447 6.6402 1.1299 0.0000 -10830.1638 1455.8888 0.0000 0.0000 1825.8856 -7539.1745 309.6823 -9365.0601 -7502.1722 301.8680 261.0638 334.1412 29738.4909 -95.4623 -39.7975
ENERGY: 1500000 1.9998 6.5649 1.5841 0.0000 -10746.0206 1384.0267 0.0000 0.0000 1814.7338 -7537.1112 307.7909 -9351.8451 -7509.1183 301.0773 -690.8623 -622.9251 30752.0633 -165.6880 -108.6562
TCL: Running FEP window  15: Lambda1 0.7000000000000001 Lambda2 0.7500000000000001 [dLambda 0.050000000000000044]
TCL: Setting parameter firsttimestep to 0
TCL: Setting parameter alchLambda to 0.7000000000000001
Info: NONBONDED TABLE R-SQUARED SPACING: 0.0625
Info: NONBONDED TABLE SIZE: 705 POINTS
TCL: Setting parameter alchLambda2 to 0.7500000000000001
Info: NONBONDED TABLE R-SQUARED SPACING: 0.0625
Info: NONBONDED TABLE SIZE: 705 POINTS
TCL: Running for 1500000 steps
ETITLE: TS BOND ANGLE DIHED IMPRP ELECT VDW BOUNDARY MISC KINETIC TOTAL TEMP POTENTIAL TOTALAVG TEMPAVG PRESSURE GPRESSURE VOLUME PRESSAVG GPRESSAVG
ENERGY: 0 1.9998 6.5649 1.5841 0.0000 -10746.0847 1383.9022 0.0000 0.0000 1813.8143 -7538.2194 307.6349 -9352.0337 -7538.2194 307.6349 -700.8941 -612.7068 30752.0633 -700.8941 -612.7068
ENERGY: 300000 2.4223 9.4163 1.0028 0.0000 -10764.4563 1477.1689 0.0000 0.0000 1762.6226 -7511.8233 298.9525 -9274.4460 -7491.6945 303.3360 411.3615 496.6247 30083.1794 -114.4141 -38.9065
ENERGY: 600000 2.7048 10.2004 1.9618 0.0000 -10787.0588 1462.0002 0.0000 0.0000 1761.6150 -7548.5766 298.7816 -9310.1916 -7483.9230 302.2534 235.5515 280.1636 30145.6299 -73.6975 -12.4335
ENERGY: 900000 1.0046 7.9349 2.6152 0.0000 -10767.2784 1411.6386 0.0000 0.0000 1718.1862 -7625.8989 291.4158 -9344.0850 -7515.2340 299.6371 -415.9332 -337.8147 30360.7888 -220.5536 -153.4808
ENERGY: 1200000 1.6265 6.3981 0.2954 0.0000 -10751.1832 1511.4929 0.0000 0.0000 1726.2519 -7505.1183 292.7838 -9231.3702 -7511.0134 298.9697 585.1672 640.7590 30347.1471 -102.7033 -35.5838
ENERGY: 1500000 1.4423 5.3253 2.1604 0.0000 -10820.9921 1477.5596 0.0000 0.0000 1784.1832 -7550.3214 302.6093 -9334.5046 -7515.9340 299.7752 262.9013 333.8460 30125.4525 -123.2723 -58.0014
TCL: Running FEP window  16: Lambda1 0.7500000000000001 Lambda2 0.8000000000000002 [dLambda 0.050000000000000044]
TCL: Setting parameter firsttimestep to 0
TCL: Setting parameter alchLambda to 0.7500000000000001
Info: NONBONDED TABLE R-SQUARED SPACING: 0.0625
Info: NONBONDED TABLE SIZE: 705 POINTS
TCL: Setting parameter alchLambda2 to 0.8000000000000002
Info: NONBONDED TABLE R-SQUARED SPACING: 0.0625
Info: NONBONDED TABLE SIZE: 705 POINTS
TCL: Running for 1500000 steps
ETITLE: TS BOND ANGLE DIHED IMPRP ELECT VDW BOUNDARY MISC KINETIC TOTAL TEMP POTENTIAL TOTALAVG TEMPAVG PRESSURE GPRESSURE VOLUME PRESSAVG GPRESSAVG
ENERGY: 0 1.4423 5.3253 2.1604 0.0000 -10821.2582 1477.2127 0.0000 0.0000 1783.2864 -7551.8310 302.4572 -9335.1174 -7551.8310 302.4572 260.4380 338.6669 30125.4525 260.4380 338.6669
ENERGY: 300000 2.9359 9.8133 0.7644 0.0000 -10793.5590 1540.5571 0.0000 0.0000 1793.5626 -7445.9257 304.2001 -9239.4883 -7487.7289 302.5014 750.3987 828.4164 30621.9193 280.8690 352.8218
ENERGY: 600000 1.0851 8.9779 2.8301 0.0000 -10609.3276 1362.3176 0.0000 0.0000 1710.1934 -7523.9235 290.0601 -9234.1168 -7513.7322 299.1545 -628.7365 -586.5258 30602.7997 -55.6954 0.8266
ENERGY: 900000 1.5847 8.9860 3.6986 0.0000 -10714.9045 1408.7676 0.0000 0.0000 1782.7077 -7509.1600 302.3591 -9291.8676 -7519.4419 299.1506 -218.6808 -148.4789 30431.5380 -75.6653 -21.3914
ENERGY: 1200000 1.1763 6.3377 2.5149 0.0000 -10792.6352 1509.2928 0.0000 0.0000 1795.6769 -7477.6365 304.5587 -9273.3135 -7513.6997 300.0883 393.8678 476.3345 30744.8843 -49.2829 5.7042
ENERGY: 1500000 1.6036 4.8555 2.1003 0.0000 -10641.4427 1325.2088 0.0000 0.0000 1726.4429 -7581.2317 292.8162 -9307.6746 -7503.6000 300.1856 -874.6815 -791.1792 30313.0278 -67.1068 -6.0320
TCL: Running FEP window  17: Lambda1 0.8000000000000002 Lambda2 0.8500000000000002 [dLambda 0.050000000000000044]
TCL: Setting parameter firsttimestep to 0
TCL: Setting parameter alchLambda to 0.8000000000000002
Info: NONBONDED TABLE R-SQUARED SPACING: 0.0625
Info: NONBONDED TABLE SIZE: 705 POINTS
TCL: Setting parameter alchLambda2 to 0.8500000000000002
Info: NONBONDED TABLE R-SQUARED SPACING: 0.0625
Info: NONBONDED TABLE SIZE: 705 POINTS
TCL: Running for 1500000 steps
ETITLE: TS BOND ANGLE DIHED IMPRP ELECT VDW BOUNDARY MISC KINETIC TOTAL TEMP POTENTIAL TOTALAVG TEMPAVG PRESSURE GPRESSURE VOLUME PRESSAVG GPRESSAVG
ENERGY: 0 1.6036 4.8555 2.1003 0.0000 -10641.4672 1324.7843 0.0000 0.0000 1725.5333 -7582.5903 292.6619 -9308.1235 -7582.5903 292.6619 -849.5781 -787.0345 30313.0278 -849.5781 -787.0345
ENERGY: 300000 0.8477 7.8370 3.0345 0.0000 -10673.7447 1396.3176 0.0000 0.0000 1718.0270 -7547.6810 291.3888 -9265.7080 -7534.4457 296.8274 -294.1788 -231.5761 30258.1123 -460.9562 -399.4874
ENERGY: 600000 2.5388 2.0975 2.1846 0.0000 -10790.1608 1455.1324 0.0000 0.0000 1808.8835 -7519.3240 306.7987 -9328.2076 -7535.6948 297.9667 198.0783 241.6726 30149.8793 -70.2257 -8.8844
ENERGY: 900000 2.7556 5.9956 2.4431 0.0000 -10682.9721 1476.0693 0.0000 0.0000 1733.3199 -7462.3885 293.9826 -9195.7084 -7524.2462 298.0610 546.0436 592.9659 30513.4028 -3.8851 59.8378
ENERGY: 1200000 2.3192 6.8361 2.1616 0.0000 -10660.7294 1368.2833 0.0000 0.0000 1742.8025 -7538.3267 295.5909 -9281.1292 -7519.1383 298.2656 -439.2341 -414.5972 30516.4697 -64.5420 -9.5372
ENERGY: 1500000 2.1065 4.8752 1.8084 0.0000 -10659.2806 1429.5968 0.0000 0.0000 1725.9559 -7494.9377 292.7336 -9220.8937 -7509.8191 298.3692 -199.5756 -102.9519 30694.5998 -67.8244 -10.4832
TCL: Running FEP window  18: Lambda1 0.8500000000000002 Lambda2 0.9000000000000002 [dLambda 0.050000000000000044]
TCL: Setting parameter firsttimestep to 0
TCL: Setting parameter alchLambda to 0.8500000000000002
Info: NONBONDED TABLE R-SQUARED SPACING: 0.0625
Info: NONBONDED TABLE SIZE: 705 POINTS
TCL: Setting parameter alchLambda2 to 0.9000000000000002
Info: NONBONDED TABLE R-SQUARED SPACING: 0.0625
Info: NONBONDED TABLE SIZE: 705 POINTS
TCL: Running for 1500000 steps
ETITLE: TS BOND ANGLE DIHED IMPRP ELECT VDW BOUNDARY MISC KINETIC TOTAL TEMP POTENTIAL TOTALAVG TEMPAVG PRESSURE GPRESSURE VOLUME PRESSAVG GPRESSAVG
ENERGY: 0 2.1065 4.8752 1.8084 0.0000 -10659.5917 1429.2869 0.0000 0.0000 1725.1074 -7496.4071 292.5897 -9221.5146 -7496.4071 292.5897 -179.7151 -94.6463 30694.5998 -179.7151 -94.6463
ENERGY: 300000 2.9469 6.0771 2.0039 0.0000 -10646.0903 1400.4352 0.0000 0.0000 1787.8984 -7446.7288 303.2394 -9234.6272 -7449.3602 302.2420 -73.8911 -51.3146 30592.0756 -151.0476 -105.3814
ENERGY: 600000 0.8557 5.8863 2.8280 0.0000 -10813.9297 1503.0235 0.0000 0.0000 1719.3246 -7582.0117 291.6089 -9301.3363 -7506.7266 297.4979 509.8922 549.8092 30290.3254 -80.4481 -14.6052
ENERGY: 900000 2.4522 10.1292 1.7790 0.0000 -10867.6283 1501.4023 0.0000 0.0000 1739.8909 -7611.9747 295.0970 -9351.8656 -7525.7209 296.9532 247.5216 252.6070 30309.9989 -105.0884 -45.2323
ENERGY: 1200000 2.9748 14.5529 2.9038 0.0000 -10793.2953 1397.5798 0.0000 0.0000 1697.9695 -7677.3146 287.9869 -9375.2841 -7538.0908 296.2802 -842.1183 -710.4394 30551.7995 -222.7559 -156.0280
ENERGY: 1500000 1.5674 6.2779 1.9836 0.0000 -10794.5443 1434.8823 0.0000 0.0000 1736.4846 -7613.3485 294.5193 -9349.8331 -7536.6298 296.7816 2.0487 107.6100 29869.9424 -209.0013 -136.4126
TCL: Running FEP window  19: Lambda1 0.9000000000000002 Lambda2 0.9500000000000003 [dLambda 0.050000000000000044]
TCL: Setting parameter firsttimestep to 0
TCL: Setting parameter alchLambda to 0.9000000000000002
Info: NONBONDED TABLE R-SQUARED SPACING: 0.0625
Info: NONBONDED TABLE SIZE: 705 POINTS
TCL: Setting parameter alchLambda2 to 0.9500000000000003
Info: NONBONDED TABLE R-SQUARED SPACING: 0.0625
Info: NONBONDED TABLE SIZE: 705 POINTS
TCL: Running for 1500000 steps
ETITLE: TS BOND ANGLE DIHED IMPRP ELECT VDW BOUNDARY MISC KINETIC TOTAL TEMP POTENTIAL TOTALAVG TEMPAVG PRESSURE GPRESSURE VOLUME PRESSAVG GPRESSAVG
ENERGY: 0 1.5674 6.2779 1.9836 0.0000 -10795.0298 1434.7965 0.0000 0.0000 1735.6385 -7614.7659 294.3758 -9350.4045 -7614.7659 294.3758 19.5273 115.2076 29869.9424 19.5273 115.2076
ENERGY: 300000 3.1996 5.1887 3.8535 0.0000 -10819.6144 1490.8495 0.0000 0.0000 1777.7285 -7538.7945 301.5146 -9316.5230 -7533.7751 298.7185 331.2798 379.3664 30479.9309 -136.9302 -84.8837
ENERGY: 600000 2.6219 8.4497 1.9220 0.0000 -10587.2887 1371.4483 0.0000 0.0000 1719.7406 -7483.1061 291.6794 -9202.8467 -7514.4327 298.6399 -398.9678 -333.3138 30556.8300 -66.5767 -9.3702
ENERGY: 900000 1.4876 7.9742 2.9226 0.0000 -10731.9188 1506.0171 0.0000 0.0000 1719.1941 -7494.3231 291.5867 -9213.5173 -7510.3292 298.7411 321.2235 467.3854 30770.4603 4.7146 74.1412
ENERGY: 1200000 5.1202 3.7963 1.6178 0.0000 -10738.3270 1425.0619 0.0000 0.0000 1758.1996 -7544.5313 298.2023 -9302.7309 -7513.5130 299.2544 -8.7019 -2.7579 29718.1830 37.6883 97.6056
ENERGY: 1500000 2.3351 11.9899 1.6044 0.0000 -10757.8766 1419.4538 0.0000 0.0000 1745.3229 -7577.1705 296.0183 -9322.4934 -7519.1434 299.4689 -97.1114 -22.4967 30245.8972 17.4461 80.2646
TCL: Running FEP window  20: Lambda1 0.9500000000000003 Lambda2 1.0    [dLambda 0.04999999999999971]
TCL: Setting parameter firsttimestep to 0
TCL: Setting parameter alchLambda to 0.9500000000000003
Info: NONBONDED TABLE R-SQUARED SPACING: 0.0625
Info: NONBONDED TABLE SIZE: 705 POINTS
TCL: Setting parameter alchLambda2 to 1.0
Info: NONBONDED TABLE R-SQUARED SPACING: 0.0625
Info: NONBONDED TABLE SIZE: 705 POINTS
TCL: Running for 1500000 steps
ETITLE: TS BOND ANGLE DIHED IMPRP ELECT VDW BOUNDARY MISC KINETIC TOTAL TEMP POTENTIAL TOTALAVG TEMPAVG PRESSURE GPRESSURE VOLUME PRESSAVG GPRESSAVG
ENERGY: 0 2.3351 11.9899 1.6044 0.0000 -10758.3317 1419.8179 0.0000 0.0000 1744.4618 -7578.1226 295.8723 -9322.5844 -7578.1226 295.8723 -91.0421 -6.0472 30245.8972 -91.0421 -6.0472
ENERGY: 300000 2.7984 7.0205 1.2603 0.0000 -10718.9686 1371.3810 0.0000 0.0000 1801.8760 -7534.6324 305.6101 -9336.5084 -7559.7334 297.5105 -573.3351 -470.7728 30294.0302 -207.6266 -135.1674
ENERGY: 600000 3.2543 6.0397 1.7857 0.0000 -10843.5584 1491.8950 0.0000 0.0000 1784.2951 -7556.2886 302.6283 -9340.5837 -7549.5814 297.3186 164.0138 244.0928 30481.4861 -31.4984 29.3435
ENERGY: 900000 0.8385 7.0813 1.4914 0.0000 -10677.7679 1412.5132 0.0000 0.0000 1692.1355 -7563.7080 286.9974 -9255.8435 -7552.1608 297.3541 -163.5617 -22.3574 30493.7146 -58.3079 8.2676
ENERGY: 1200000 1.5902 10.2134 1.3296 0.0000 -10733.3813 1389.2735 0.0000 0.0000 1779.0170 -7551.9576 301.7331 -9330.9746 -7555.9049 297.2716 -642.1027 -564.6787 30637.1667 -23.2183 51.4750
ENERGY: 1500000 2.6891 9.4703 2.4128 0.0000 -10780.7483 1467.0891 0.0000 0.0000 1752.4140 -7546.6729 297.2210 -9299.0869 -7549.1661 298.0208 332.7144 426.4294 30020.5502 1.8674 83.7712
TCL: Exiting due to exit command.
