Info: SIMULATION PARAMETERS:
Info: TIMESTEP               2
Info: NUMBER OF STEPS        0
Info: STEPS PER CYCLE        10
Info: PERIODIC CELL BASIS 1  31.8659 0 0
Info: PERIODIC CELL BASIS 2  0 31.4847 0
Info: PERIODIC CELL BASIS 3  0 0 30.4597
Info: PERIODIC CELL CENTER   0 0 0
Info: WRAPPING WATERS AROUND PERIODIC BOUNDARIES ON OUTPUT.
Info: WRAPPING ALL CLUSTERS AROUND PERIODIC BOUNDARIES ON OUTPUT.
Info: FIRST LDB TIMESTEP     50
Info: LAST LDB TIMESTEP     -1
Info: HOM BACKGROUND SCALING 1
Info: PME BACKGROUND SCALING 1
Info: MIN ATOMS PER PATCH    40
Info: EMPTY PATCH LOAD       40 ATOMS
Info: VELOCITY FILE          mobley_5690766_equil.vel
Info: CENTER OF MASS MOVING INITIALLY? NO
Info: DIELECTRIC             1
Info: EXCLUDE                SCALED ONE-FOUR
Info: 1-4 ELECTROSTATICS SCALED BY 0.833333
Info: MODIFIED 1-4 VDW PARAMETERS WILL BE USED
Info: DCD FILENAME           mobley_5690766_prod.dcd
Info: DCD FREQUENCY          100000
Info: DCD FIRST STEP         100000
Info: DCD FILE WILL CONTAIN UNIT CELL DATA
Info: XST FILENAME           mobley_5690766_prod.xst
Info: XST FREQUENCY          100000
Info: NO VELOCITY DCD OUTPUT
Info: NO FORCE DCD OUTPUT
Info: OUTPUT FILENAME        mobley_5690766_prod
Info: BINARY OUTPUT FILES WILL BE USED
Info: RESTART FILENAME       mobley_5690766_prod.restart
Info: RESTART FREQUENCY      100000
Info: BINARY RESTART FILES WILL BE USED
Info: CUTOFF                 9
Info: PAIRLIST DISTANCE      11
Info: PAIRLIST SHRINK RATE   0.01
Info: PAIRLIST GROW RATE     0.01
Info: PAIRLIST TRIGGER       0.3
Info: PAIRLISTS PER CYCLE    2
Info: PAIRLISTS ENABLED
Info: MARGIN                 2
Info: HYDROGEN GROUP CUTOFF  2.5
Info: PATCH DIMENSION        15.5
Info: ENERGY OUTPUT STEPS    100000
Info: ENERGY EVALUATION STEPS    100000
Info: OUTPUT ENERGY PRECISION 4
Info: CROSSTERM ENERGY INCLUDED IN DIHEDRAL
Info: TIMING OUTPUT STEPS    1000000
Info: PRESSURE OUTPUT STEPS  100000
Info: ALCHEMICAL FEP ON
Info: FEP CURRENT LAMBDA VALUE     1
Info: FEP COMPARISON LAMBDA VALUE  0.95
Info: FEP INTRA-ALCHEMICAL NON-BONDED INTERACTIONS WILL BE RETAINED
Info: FEP INTRA-ALCHEMICAL BONDED INTERACTIONS WILL BE RETAINED
Info: FEP VDW SHIFTING COEFFICIENT 5
Info: FEP ELEC. ACTIVE FOR ANNIHILATED PARTICLES BETWEEN LAMBDA = 0 AND LAMBDA = 0.5
Info: FEP ELEC. ACTIVE FOR EXNIHILATED PARTICLES BETWEEN LAMBDA = 0.5 AND LAMBDA = 1
Info: FEP VDW ACTIVE FOR ANNIHILATED PARTICLES BETWEEN LAMBDA = 0 AND LAMBDA = 1
Info: FEP VDW ACTIVE FOR EXNIHILATED PARTICLES BETWEEN LAMBDA = 0 AND LAMBDA = 1
Info: FEP BOND ACTIVE FOR ANNIHILATED PARTICLES BETWEEN LAMBDA = 1 AND LAMBDA = 1
Info: FEP BOND ACTIVE FOR EXNIHILATED PARTICLES BETWEEN LAMBDA = 0 AND LAMBDA = 0
Info: LANGEVIN DYNAMICS ACTIVE
Info: LANGEVIN TEMPERATURE   300
Info: LANGEVIN USING BBK INTEGRATOR
Info: LANGEVIN DAMPING COEFFICIENT IS 1 INVERSE PS
Info: LANGEVIN DYNAMICS APPLIED TO HYDROGENS
Info: LANGEVIN PISTON PRESSURE CONTROL ACTIVE
Info:        TARGET PRESSURE IS 1.01325 BAR
Info:     OSCILLATION PERIOD IS 50 FS
Info:             DECAY TIME IS 25 FS
Info:     PISTON TEMPERATURE IS 300 K
Info:       PRESSURE CONTROL IS GROUP-BASED
Info:    INITIAL STRAIN RATE IS -0.000195397 -0.000195397 -0.000195397
Info:       CELL FLUCTUATION IS ISOTROPIC
Info: PARTICLE MESH EWALD (PME) ACTIVE
Info: PME TOLERANCE               1e-06
Info: PME EWALD COEFFICIENT       0.348832
Info: PME INTERPOLATION ORDER     4
Info: PME GRID DIMENSIONS         32 32 32
Info: PME MAXIMUM GRID SPACING    1
Info: PME CALCULATION WILL BE PERFORMED ON GPU
Info: FULL ELECTROSTATIC EVALUATION FREQUENCY      2
Info: USING VERLET I (r-RESPA) MTS SCHEME.
Info: C1 SPLITTING OF LONG RANGE ELECTROSTATICS
Info: PLACING ATOMS IN PATCHES BY HYDROGEN GROUPS
Info: RIGID BONDS TO HYDROGEN : ALL
Info:         ERROR TOLERANCE : 1e-08
Info:          MAX ITERATIONS : 100
Info: RIGID WATER USING SETTLE ALGORITHM
Info: RANDOM NUMBER SEED     1743905723
Info: USE HYDROGEN BONDS?    NO
Info: Using AMBER format force field!
Info: AMBER PARM FILE        mobley_5690766.prmtop
Info: COORDINATE PDB         mobley_5690766.pdb
Info: Exclusions will be read from PARM file!
Info: SCNB (VDW SCALING)     2
Info: USING ARITHMETIC MEAN TO COMBINE L-J SIGMA PARAMETERS
Info: BINARY COORDINATES     mobley_5690766_equil.coor
Info: SUMMARY OF PARAMETERS:
Info: 7 BONDS
Info: 8 ANGLES
Info:   8 HARMONIC
Info:   0 COSINE-BASED
Info: 7 DIHEDRAL
Info: 0 IMPROPER
Info: 0 CROSSTERM
Info: 0 VDW
Info: 21 VDW_PAIRS
Info: 0 NBTHOLE_PAIRS
Info: To read alchdata from file: mobley_5690766.pdb
Info: To read alchflag data from column: 5
Info: STRUCTURE SUMMARY:
Info: 2959 ATOMS
Info: 2958 BONDS
Info: 24 ANGLES
Info: 41 DIHEDRALS
Info: 0 IMPROPERS
Info: 0 CROSSTERMS
Info: 3011 EXCLUSIONS
Info: 2953 RIGID BONDS
Info: ALCH: 0 ATOMS TO DISAPPEAR IN FINAL STATE
Info: ALCH: 16 ATOMS TO APPEAR IN FINAL STATE
Info: 5924 DEGREES OF FREEDOM
Info: 987 HYDROGEN GROUPS
Info: 3 ATOMS IN LARGEST HYDROGEN GROUP
Info: 987 MIGRATION GROUPS
Info: 3 ATOMS IN LARGEST MIGRATION GROUP
Info: TOTAL MASS = 17755.8 amu
Info: TOTAL CHARGE = -2.23517e-08 e
Info: MASS DENSITY = 0.964827 g/cm^3
Info: ATOM DENSITY = 0.0968264 atoms/A^3
Info: ADDED 0 IMPLICIT EXCLUSIONS
Info: NONBONDED TABLE R-SQUARED SPACING: 0.0625
Info: NONBONDED TABLE SIZE: 705 POINTS
Info: REDUCING NUMBER OF PATCHES TO IMPROVE LOAD BALANCE
Info: REMOVING COM VELOCITY 0.0325486 0.126102 -0.0218443
Info: Use 3D box decompostion in PME FFT.
Info: Updated CUDA force table with 4096 elements.
Info: Updated CUDA LJ table with 6 x 6 elements.
Info: Found 18 unique exclusion lists needing 40 bytes
TCL: Running for 1500000 steps
ETITLE: TS BOND ANGLE DIHED IMPRP ELECT VDW BOUNDARY MISC KINETIC TOTAL TEMP POTENTIAL TOTALAVG TEMPAVG PRESSURE GPRESSURE VOLUME PRESSAVG GPRESSAVG
ENERGY: 0 1.8016 5.6714 11.1751 0.0000 -10626.5971 1399.9725 0.0000 0.0000 1814.1128 -7393.8637 308.2050 -9207.9765 -7393.8637 308.2050 -87.7057 -7.0522 30559.8388 -87.7057 -7.0522
ENERGY: 300000 1.0783 4.8417 6.9445 0.0000 -10779.1526 1521.2970 0.0000 0.0000 1712.6703 -7532.3208 290.9706 -9244.9911 -7499.3961 297.2993 563.1096 624.4732 30391.0680 -13.6871 64.5343
ENERGY: 600000 1.3426 3.4730 10.9265 0.0000 -10636.6410 1418.1861 0.0000 0.0000 1834.2313 -7368.4815 311.6230 -9202.7128 -7475.3021 299.3976 25.6798 47.4157 30701.2274 27.9902 98.8513
ENERGY: 900000 1.0512 3.1976 8.0381 0.0000 -10812.9498 1468.9179 0.0000 0.0000 1776.6354 -7555.1096 301.8378 -9331.7450 -7495.3631 299.7222 77.4861 169.7431 30356.2355 -19.1487 62.6938
ENERGY: 1200000 0.6110 5.1334 7.8757 0.0000 -10704.4651 1458.6737 0.0000 0.0000 1719.3814 -7512.7899 292.1108 -9232.1713 -7498.4236 298.2394 203.3308 264.6418 30592.1814 -37.1534 39.1249
ENERGY: 1500000 0.8249 7.1599 7.3518 0.0000 -10678.3027 1432.0831 0.0000 0.0000 1739.8015 -7491.0814 295.5800 -9230.8829 -7497.6172 298.7896 37.3080 89.1300 30262.0758 -60.5881 12.9102
TCL: Running FEP window   2: Lambda1 0.95   Lambda2 0.8999999999999999 [dLambda -0.050000000000000044]
TCL: Setting parameter firsttimestep to 0
TCL: Setting parameter alchLambda to 0.95
Info: NONBONDED TABLE R-SQUARED SPACING: 0.0625
Info: NONBONDED TABLE SIZE: 705 POINTS
TCL: Setting parameter alchLambda2 to 0.8999999999999999
Info: NONBONDED TABLE R-SQUARED SPACING: 0.0625
Info: NONBONDED TABLE SIZE: 705 POINTS
TCL: Running for 1500000 steps
ETITLE: TS BOND ANGLE DIHED IMPRP ELECT VDW BOUNDARY MISC KINETIC TOTAL TEMP POTENTIAL TOTALAVG TEMPAVG PRESSURE GPRESSURE VOLUME PRESSAVG GPRESSAVG
ENERGY: 0 0.8249 7.1599 7.3518 0.0000 -10678.3531 1431.9468 0.0000 0.0000 1738.9343 -7492.1353 295.4327 -9231.0696 -7492.1353 295.4327 -0.9882 79.5625 30262.0758 -0.9882 79.5625
ENERGY: 300000 3.1792 3.7692 7.2684 0.0000 -10766.6771 1469.5347 0.0000 0.0000 1769.4742 -7513.4514 300.6212 -9282.9257 -7510.9044 297.0002 197.6299 283.2231 30293.0089 286.1753 337.3352
ENERGY: 600000 1.0858 5.6192 7.4859 0.0000 -10866.4432 1523.7012 0.0000 0.0000 1776.7697 -7551.7814 301.8606 -9328.5512 -7498.4459 298.6735 351.2437 431.8624 30729.6002 210.0125 264.3243
ENERGY: 900000 3.2398 9.2295 6.5477 0.0000 -10536.3106 1280.2826 0.0000 0.0000 1772.5448 -7464.4662 301.1428 -9237.0110 -7490.3395 298.5579 -1349.4613 -1265.2365 30695.1694 4.1229 63.7022
ENERGY: 1200000 1.9611 4.2846 6.4997 0.0000 -10690.3095 1449.8805 0.0000 0.0000 1760.1193 -7467.5642 299.0318 -9227.6835 -7490.0759 298.7645 -94.1316 -92.0528 30867.4330 -51.5126 5.6709
ENERGY: 1500000 1.1767 5.1867 5.8992 0.0000 -10652.8517 1413.4726 0.0000 0.0000 1803.9067 -7423.2098 306.4710 -9227.1165 -7487.3669 298.8357 -34.5972 -3.9081 30456.2927 -62.0036 -12.0321
TCL: Running FEP window   3: Lambda1 0.8999999999999999 Lambda2 0.8499999999999999 [dLambda -0.050000000000000044]
TCL: Setting parameter firsttimestep to 0
TCL: Setting parameter alchLambda to 0.8999999999999999
Info: NONBONDED TABLE R-SQUARED SPACING: 0.0625
Info: NONBONDED TABLE SIZE: 705 POINTS
TCL: Setting parameter alchLambda2 to 0.8499999999999999
Info: NONBONDED TABLE R-SQUARED SPACING: 0.0625
Info: NONBONDED TABLE SIZE: 705 POINTS
TCL: Running for 1500000 steps
ETITLE: TS BOND ANGLE DIHED IMPRP ELECT VDW BOUNDARY MISC KINETIC TOTAL TEMP POTENTIAL TOTALAVG TEMPAVG PRESSURE GPRESSURE VOLUME PRESSAVG GPRESSAVG
ENERGY: 0 1.1767 5.1867 5.8992 0.0000 -10652.4767 1413.7175 0.0000 0.0000 1803.0475 -7423.4492 306.3250 -9226.4967 -7423.4492 306.3250 -92.7895 -12.2857 30456.2927 -92.7895 -12.2857
ENERGY: 300000 1.4007 3.1442 8.7057 0.0000 -10754.1560 1432.3307 0.0000 0.0000 1751.5391 -7557.0357 297.5741 -9308.5748 -7483.0191 301.0749 -165.8684 -114.3093 30109.1487 -197.1282 -101.9086
ENERGY: 600000 1.0984 7.8814 9.6421 0.0000 -10875.1558 1526.4107 0.0000 0.0000 1784.7111 -7545.4121 303.2098 -9330.1232 -7504.0141 299.4009 308.5313 392.2150 30459.6730 -92.8985 1.0519
ENERGY: 900000 1.8586 3.4678 8.1145 0.0000 -10746.2527 1473.8388 0.0000 0.0000 1776.1622 -7482.8109 301.7574 -9258.9730 -7496.8036 299.7266 367.1094 424.0895 30569.4993 -43.1404 34.3520
ENERGY: 1200000 2.5521 5.9976 7.9591 0.0000 -10674.1606 1450.0518 0.0000 0.0000 1680.5307 -7527.0693 285.5103 -9207.6000 -7501.9090 297.9393 207.8702 299.0560 30553.3485 26.6981 103.2938
ENERGY: 1500000 2.7124 5.8426 5.3678 0.0000 -10633.1731 1367.7176 0.0000 0.0000 1795.7014 -7455.8314 305.0770 -9251.5327 -7500.1292 298.1448 -646.3632 -538.0656 30643.3751 40.9528 111.7037
TCL: Running FEP window   4: Lambda1 0.8499999999999999 Lambda2 0.7999999999999998 [dLambda -0.050000000000000044]
TCL: Setting parameter firsttimestep to 0
TCL: Setting parameter alchLambda to 0.8499999999999999
Info: NONBONDED TABLE R-SQUARED SPACING: 0.0625
Info: NONBONDED TABLE SIZE: 705 POINTS
TCL: Setting parameter alchLambda2 to 0.7999999999999998
Info: NONBONDED TABLE R-SQUARED SPACING: 0.0625
Info: NONBONDED TABLE SIZE: 705 POINTS
TCL: Running for 1500000 steps
ETITLE: TS BOND ANGLE DIHED IMPRP ELECT VDW BOUNDARY MISC KINETIC TOTAL TEMP POTENTIAL TOTALAVG TEMPAVG PRESSURE GPRESSURE VOLUME PRESSAVG GPRESSAVG
ENERGY: 0 2.7124 5.8426 5.3678 0.0000 -10632.9843 1368.2624 0.0000 0.0000 1794.8192 -7455.9799 304.9271 -9250.7991 -7455.9799 304.9271 -642.1028 -538.6750 30643.3751 -642.1028 -538.6750
ENERGY: 300000 1.9053 7.4608 3.4969 0.0000 -10722.0389 1356.0261 0.0000 0.0000 1799.1694 -7553.9803 305.6662 -9353.1497 -7487.5089 303.5135 -749.0164 -687.8973 29963.3280 -289.8212 -223.6587
ENERGY: 600000 2.1812 5.4627 8.5971 0.0000 -10725.4682 1429.5324 0.0000 0.0000 1776.6496 -7503.0451 301.8402 -9279.6947 -7486.3889 302.4049 44.5334 63.3963 30391.9883 -100.4248 -39.0175
ENERGY: 900000 1.1839 3.2225 9.5438 0.0000 -10790.3690 1483.0717 0.0000 0.0000 1800.9542 -7492.3930 305.9694 -9293.3472 -7480.0096 302.9768 133.1708 225.1535 30459.5590 -197.3318 -131.1971
ENERGY: 1200000 3.4532 3.9909 7.4363 0.0000 -10669.6317 1438.1760 0.0000 0.0000 1833.2200 -7383.3552 311.4511 -9216.5752 -7470.8903 303.6071 23.0960 -23.4109 30985.6848 -283.7735 -239.4496
ENERGY: 1500000 1.9889 6.1448 7.0550 0.0000 -10761.6713 1457.6742 0.0000 0.0000 1794.0612 -7494.7472 304.7983 -9288.8083 -7481.9258 302.8985 -39.3497 30.0541 30597.9413 -230.2423 -183.5799
TCL: Running FEP window   5: Lambda1 0.7999999999999998 Lambda2 0.7499999999999998 [dLambda -0.050000000000000044]
TCL: Setting parameter firsttimestep to 0
TCL: Setting parameter alchLambda to 0.7999999999999998
Info: NONBONDED TABLE R-SQUARED SPACING: 0.0625
Info: NONBONDED TABLE SIZE: 705 POINTS
TCL: Setting parameter alchLambda2 to 0.7499999999999998
Info: NONBONDED TABLE R-SQUARED SPACING: 0.0625
Info: NONBONDED TABLE SIZE: 705 POINTS
TCL: Running for 1500000 steps
ETITLE: TS BOND ANGLE DIHED IMPRP ELECT VDW BOUNDARY MISC KINETIC TOTAL TEMP POTENTIAL TOTALAVG TEMPAVG PRESSURE GPRESSURE VOLUME PRESSAVG GPRESSAVG
ENERGY: 0 1.9889 6.1448 7.0550 0.0000 -10761.3465 1457.9000 0.0000 0.0000 1793.2024 -7495.0553 304.6524 -9288.2578 -7495.0553 304.6524 -68.2577 23.3468 30597.9413 -68.2577 23.3468
ENERGY: 300000 2.9215 6.3506 10.3949 0.0000 -10705.8556 1411.8101 0.0000 0.0000 1778.3404 -7496.0381 302.1275 -9274.3785 -7470.8627 305.4371 -117.2600 -52.9909 29953.6666 -248.9085 -182.2985
ENERGY: 600000 2.5611 4.8398 7.4254 0.0000 -10676.6889 1361.4106 0.0000 0.0000 1732.1820 -7568.2700 294.2855 -9300.4519 -7488.8700 303.0225 -722.0916 -668.3471 30504.8441 -216.6862 -154.4409
ENERGY: 900000 0.5551 8.3765 7.6876 0.0000 -10813.0599 1505.4305 0.0000 0.0000 1781.0065 -7510.0037 302.5804 -9291.0103 -7507.8740 301.3267 323.1531 405.5014 30325.7319 -207.8008 -136.7897
ENERGY: 1200000 1.4034 2.5282 8.4969 0.0000 -10792.8082 1434.3178 0.0000 0.0000 1785.2000 -7560.8618 303.2929 -9346.0619 -7523.8830 300.3440 -265.6412 -196.3712 30373.7462 -176.1362 -107.2626
ENERGY: 1500000 0.6911 6.1757 7.1297 0.0000 -10659.5733 1394.8122 0.0000 0.0000 1780.8537 -7469.9110 302.5545 -9250.7646 -7518.8485 301.3179 -269.3991 -184.8659 30286.7683 -93.3717 -20.0179
TCL: Running FEP window   6: Lambda1 0.7499999999999998 Lambda2 0.6999999999999997 [dLambda -0.050000000000000044]
TCL: Setting parameter firsttimestep to 0
TCL: Setting parameter alchLambda to 0.7499999999999998
Info: NONBONDED TABLE R-SQUARED SPACING: 0.0625
Info: NONBONDED TABLE SIZE: 705 POINTS
TCL: Setting parameter alchLambda2 to 0.6999999999999997
Info: NONBONDED TABLE R-SQUARED SPACING: 0.0625
Info: NONBONDED TABLE SIZE: 705 POINTS
TCL: Running for 1500000 steps
ETITLE: TS BOND ANGLE DIHED IMPRP ELECT VDW BOUNDARY MISC KINETIC TOTAL TEMP POTENTIAL TOTALAVG TEMPAVG PRESSURE GPRESSURE VOLUME PRESSAVG GPRESSAVG
ENERGY: 0 0.6911 6.1757 7.1297 0.0000 -10659.5775 1395.4003 0.0000 0.0000 1779.9714 -7470.2094 302.4046 -9250.1808 -7470.2094 302.4046 -273.4282 -184.8931 30286.7683 -273.4282 -184.8931
ENERGY: 300000 1.1568 6.4256 8.3731 0.0000 -10758.7544 1539.1965 0.0000 0.0000 1753.3101 -7450.2923 297.8750 -9203.6024 -7463.8903 299.3602 678.5954 720.2638 30868.7855 73.8302 130.4192
ENERGY: 600000 0.9436 6.3502 5.3434 0.0000 -10541.9548 1361.4112 0.0000 0.0000 1774.1167 -7393.7897 301.4099 -9167.9065 -7473.7650 297.7305 -551.1999 -441.9069 31010.1838 -153.5600 -70.3334
ENERGY: 900000 4.1179 8.6943 8.3534 0.0000 -10611.6433 1494.9214 0.0000 0.0000 1797.9448 -7297.6115 305.4581 -9095.5563 -7445.9088 299.2126 860.3493 903.9491 30729.3859 -119.0458 -49.1543
ENERGY: 1200000 3.1970 5.9193 6.7626 0.0000 -10690.8692 1472.9480 0.0000 0.0000 1750.8624 -7451.1799 297.4592 -9202.0423 -7454.8610 299.2026 -32.1203 -4.2259 31206.6854 -97.3909 -32.6276
ENERGY: 1500000 1.0977 6.3981 9.2537 0.0000 -10711.7534 1413.1014 0.0000 0.0000 1824.2384 -7457.6641 309.9252 -9281.9025 -7464.4279 299.9757 -537.4077 -436.9553 30672.7714 -64.4767 -4.6367
TCL: Running FEP window   7: Lambda1 0.6999999999999997 Lambda2 0.6499999999999997 [dLambda -0.050000000000000044]
TCL: Setting parameter firsttimestep to 0
TCL: Setting parameter alchLambda to 0.6999999999999997
Info: NONBONDED TABLE R-SQUARED SPACING: 0.0625
Info: NONBONDED TABLE SIZE: 705 POINTS
TCL: Setting parameter alchLambda2 to 0.6499999999999997
Info: NONBONDED TABLE R-SQUARED SPACING: 0.0625
Info: NONBONDED TABLE SIZE: 705 POINTS
TCL: Running for 1500000 steps
ETITLE: TS BOND ANGLE DIHED IMPRP ELECT VDW BOUNDARY MISC KINETIC TOTAL TEMP POTENTIAL TOTALAVG TEMPAVG PRESSURE GPRESSURE VOLUME PRESSAVG GPRESSAVG
ENERGY: 0 1.0977 6.3981 9.2537 0.0000 -10711.7052 1413.5014 0.0000 0.0000 1823.3720 -7458.0822 309.7780 -9281.4542 -7458.0822 309.7780 -512.1691 -437.7031 30672.7714 -512.1691 -437.7031
ENERGY: 300000 1.2680 5.8773 5.5191 0.0000 -10700.2256 1452.7388 0.0000 0.0000 1818.9361 -7415.8862 309.0244 -9234.8224 -7494.2120 302.4342 416.2889 503.2221 29993.0784 186.0870 262.7633
ENERGY: 600000 2.4692 6.8652 7.2072 0.0000 -10789.3785 1484.9714 0.0000 0.0000 1793.2748 -7494.5907 304.6647 -9287.8655 -7491.4808 300.8045 95.5886 99.5216 30531.3298 -52.0096 12.2052
ENERGY: 900000 2.5857 5.3620 8.4566 0.0000 -10836.2903 1511.6868 0.0000 0.0000 1799.4136 -7508.7855 305.7077 -9308.1992 -7485.9203 301.3614 760.4596 836.2450 30051.7839 -90.3861 -26.6350
ENERGY: 1200000 0.8764 6.9203 8.5118 0.0000 -10680.6567 1353.5144 0.0000 0.0000 1744.1158 -7566.7180 296.3130 -9310.8338 -7493.0040 301.2328 -1032.8660 -996.1703 30753.4647 -148.6785 -88.0096
ENERGY: 1500000 2.9765 3.8884 8.2868 0.0000 -10627.0964 1336.0962 0.0000 0.0000 1768.8393 -7507.0092 300.5133 -9275.8485 -7488.3713 300.9242 -1082.4239 -1000.6495 30545.3411 -164.0817 -97.0823
TCL: Running FEP window   8: Lambda1 0.6499999999999997 Lambda2 0.5999999999999996 [dLambda -0.050000000000000044]
TCL: Setting parameter firsttimestep to 0
TCL: Setting parameter alchLambda to 0.6499999999999997
Info: NONBONDED TABLE R-SQUARED SPACING: 0.0625
Info: NONBONDED TABLE SIZE: 705 POINTS
TCL: Setting parameter alchLambda2 to 0.5999999999999996
Info: NONBONDED TABLE R-SQUARED SPACING: 0.0625
Info: NONBONDED TABLE SIZE: 705 POINTS
TCL: Running for 1500000 steps
ETITLE: TS BOND ANGLE DIHED IMPRP ELECT VDW BOUNDARY MISC KINETIC TOTAL TEMP POTENTIAL TOTALAVG TEMPAVG PRESSURE GPRESSURE VOLUME PRESSAVG GPRESSAVG
ENERGY: 0 2.9765 3.8884 8.2868 0.0000 -10626.9136 1336.2145 0.0000 0.0000 1767.9197 -7507.6277 300.3571 -9275.5474 -7507.6277 300.3571 -1081.6450 -1003.7610 30545.3411 -1081.6450 -1003.7610
ENERGY: 300000 2.3703 5.4615 9.1140 0.0000 -10686.8083 1413.3600 0.0000 0.0000 1778.1823 -7478.3202 302.1006 -9256.5025 -7513.0138 299.6242 -407.9301 -317.1647 30382.3548 -478.3906 -404.7582
ENERGY: 600000 0.9816 10.3247 8.0438 0.0000 -10694.8857 1431.5156 0.0000 0.0000 1789.0112 -7455.0088 303.9404 -9244.0200 -7487.6474 301.3844 -255.4777 -229.0503 30846.6375 -478.6079 -419.6244
ENERGY: 900000 1.0360 7.4603 5.8877 0.0000 -10635.8515 1372.9154 0.0000 0.0000 1754.2341 -7494.3180 298.0320 -9248.5520 -7483.0899 301.6401 -323.6438 -263.7994 30029.5187 -357.3557 -290.9332
ENERGY: 1200000 1.9551 5.7252 7.8000 0.0000 -10814.2270 1469.5594 0.0000 0.0000 1792.0272 -7537.1601 304.4528 -9329.1873 -7489.3968 302.2219 155.0666 233.2613 30370.6897 -317.3031 -246.7205
ENERGY: 1500000 0.2444 4.1930 8.6333 0.0000 -10708.0749 1418.9103 0.0000 0.0000 1787.7992 -7488.2946 303.7345 -9276.0938 -7483.9337 302.7784 -238.7882 -127.1328 30469.5444 -289.5975 -218.2278
TCL: Running FEP window   9: Lambda1 0.5999999999999996 Lambda2 0.5499999999999996 [dLambda -0.050000000000000044]
TCL: Setting parameter firsttimestep to 0
TCL: Setting parameter alchLambda to 0.5999999999999996
Info: NONBONDED TABLE R-SQUARED SPACING: 0.0625
Info: NONBONDED TABLE SIZE: 705 POINTS
TCL: Setting parameter alchLambda2 to 0.5499999999999996
Info: NONBONDED TABLE R-SQUARED SPACING: 0.0625
Info: NONBONDED TABLE SIZE: 705 POINTS
TCL: Running for 1500000 steps
ETITLE: TS BOND ANGLE DIHED IMPRP ELECT VDW BOUNDARY MISC KINETIC TOTAL TEMP POTENTIAL TOTALAVG TEMPAVG PRESSURE GPRESSURE VOLUME PRESSAVG GPRESSAVG
ENERGY: 0 0.2444 4.1930 8.6333 0.0000 -10708.0809 1419.5055 0.0000 0.0000 1786.9074 -7488.5972 303.5830 -9275.5046 -7488.5972 303.5830 -221.9967 -130.2567 30469.5444 -221.9967 -130.2567
ENERGY: 300000 3.4794 6.2950 6.2935 0.0000 -10676.1152 1456.6180 0.0000 0.0000 1784.5307 -7418.8987 303.1792 -9203.4293 -7469.1747 302.7654 46.4400 127.2140 30457.2110 -46.1259 50.3612
ENERGY: 600000 1.7141 6.6936 8.3572 0.0000 -10602.6827 1378.7405 0.0000 0.0000 1797.0983 -7410.0789 305.3143 -9207.1772 -7465.9962 302.3019 -322.4119 -234.2787 30553.3960 -185.0953 -99.7661
ENERGY: 900000 1.8428 4.7380 8.3749 0.0000 -10802.3714 1477.7214 0.0000 0.0000 1773.8414 -7535.8529 301.3631 -9309.6942 -7484.9123 300.9749 111.5888 207.7388 30471.2305 -155.6295 -65.7842
ENERGY: 1200000 5.7419 7.4822 10.3935 0.0000 -10806.8409 1536.4988 0.0000 0.0000 1735.8251 -7510.8994 294.9044 -9246.7245 -7486.1543 300.2751 827.9023 935.1702 30331.9132 27.4549 114.3666
ENERGY: 1500000 0.9112 6.0136 8.5796 0.0000 -10607.0867 1373.2506 0.0000 0.0000 1798.6390 -7419.6927 305.5761 -9218.3317 -7483.3655 300.9920 -432.4984 -366.9647 30488.5869 -56.2844 21.8265
TCL: Running FEP window  10: Lambda1 0.5499999999999996 Lambda2 0.4999999999999996 [dLambda -0.04999999999999999]
TCL: Setting parameter firsttimestep to 0
TCL: Setting parameter alchLambda to 0.5499999999999996
Info: NONBONDED TABLE R-SQUARED SPACING: 0.0625
Info: NONBONDED TABLE SIZE: 705 POINTS
TCL: Setting parameter alchLambda2 to 0.4999999999999996
Info: NONBONDED TABLE R-SQUARED SPACING: 0.0625
Info: NONBONDED TABLE SIZE: 705 POINTS
TCL: Running for 1500000 steps
ETITLE: TS BOND ANGLE DIHED IMPRP ELECT VDW BOUNDARY MISC KINETIC TOTAL TEMP POTENTIAL TOTALAVG TEMPAVG PRESSURE GPRESSURE VOLUME PRESSAVG GPRESSAVG
ENERGY: 0 0.9112 6.0136 8.5796 0.0000 -10606.9744 1373.2762 0.0000 0.0000 1797.7981 -7420.3956 305.4332 -9218.1937 -7420.3956 305.4332 -429.8814 -372.4392 30488.5869 -429.8814 -372.4392
ENERGY: 300000 2.8510 7.0036 8.0769 0.0000 -10706.7692 1421.1344 0.0000 0.0000 1752.3233 -7515.3801 297.7074 -9267.7034 -7468.4075 298.2636 -231.3353 -190.9316 30454.4843 -125.1708 -64.0468
ENERGY: 600000 0.8653 8.7069 5.2160 0.0000 -10725.6140 1432.0580 0.0000 0.0000 1658.9626 -7619.8052 281.8460 -9278.7678 -7493.9845 295.4937 -276.3674 -158.3016 30341.6361 0.6010 70.5610
ENERGY: 900000 0.6682 5.5275 10.0737 0.0000 -10637.3129 1376.3936 0.0000 0.0000 1770.4133 -7474.2365 300.7807 -9244.6498 -7480.0115 298.3360 -545.7611 -492.3768 30494.6657 -194.0502 -127.6276
ENERGY: 1200000 0.8250 3.3556 6.8965 0.0000 -10664.5093 1441.3649 0.0000 0.0000 1743.2501 -7468.8173 296.1659 -9212.0673 -7491.0988 298.4541 -208.6488 -168.9229 30959.5188 -194.4926 -136.5909
ENERGY: 1500000 1.3671 5.7876 5.8800 0.0000 -10771.0986 1469.0243 0.0000 0.0000 1731.0683 -7557.9713 294.0963 -9289.0397 -7503.7196 298.0274 227.6519 244.8402 30132.8980 -61.4946 -6.8634
TCL: Running FEP window  11: Lambda1 0.4999999999999996 Lambda2 0.4499999999999996 [dLambda -0.04999999999999999]
TCL: Setting parameter firsttimestep to 0
TCL: Setting parameter alchLambda to 0.4999999999999996
Info: NONBONDED TABLE R-SQUARED SPACING: 0.0625
Info: NONBONDED TABLE SIZE: 705 POINTS
TCL: Setting parameter alchLambda2 to 0.4499999999999996
Info: NONBONDED TABLE R-SQUARED SPACING: 0.0625
Info: NONBONDED TABLE SIZE: 705 POINTS
TCL: Running for 1500000 steps
ETITLE: TS BOND ANGLE DIHED IMPRP ELECT VDW BOUNDARY MISC KINETIC TOTAL TEMP POTENTIAL TOTALAVG TEMPAVG PRESSURE GPRESSURE VOLUME PRESSAVG GPRESSAVG
ENERGY: 0 1.3671 5.7876 5.8800 0.0000 -10771.0714 1469.0530 0.0000 0.0000 1730.1765 -7558.8073 293.9448 -9288.9838 -7558.8073 293.9448 173.6802 238.3761 30132.8980 173.6802 238.3761
ENERGY: 300000 1.2438 6.1940 7.6907 0.0000 -10783.7548 1478.5686 0.0000 0.0000 1766.9274 -7523.1303 300.1885 -9290.0577 -7531.9930 295.8333 145.0015 223.9281 30570.7030 -186.4973 -101.0465
ENERGY: 600000 1.1900 10.7812 5.9345 0.0000 -10551.5508 1363.6568 0.0000 0.0000 1691.1605 -7478.8279 287.3162 -9169.9884 -7527.3785 294.3410 -455.5710 -391.5987 30636.8849 -251.1479 -182.1188
ENERGY: 900000 2.1354 5.2664 8.7538 0.0000 -10605.1519 1362.9325 0.0000 0.0000 1797.9193 -7428.1445 305.4538 -9226.0638 -7510.5368 296.3176 -515.0137 -423.4468 30418.0740 -197.4806 -131.7496
ENERGY: 1200000 0.4731 2.5166 6.8214 0.0000 -10870.8325 1546.4663 0.0000 0.0000 1786.3147 -7528.2404 303.4823 -9314.5551 -7502.6026 297.3625 762.9210 743.7665 30242.3693 -106.4657 -49.1507
ENERGY: 1500000 0.9305 8.2449 7.6328 0.0000 -10661.4933 1438.6803 0.0000 0.0000 1756.9214 -7449.0833 298.4885 -9206.0047 -7503.6690 297.5509 262.6958 330.0134 30039.0700 -103.8739 -46.5210
TCL: Running FEP window  12: Lambda1 0.4499999999999996 Lambda2 0.39999999999999963 [dLambda -0.04999999999999999]
TCL: Setting parameter firsttimestep to 0
TCL: Setting parameter alchLambda to 0.4499999999999996
Info: NONBONDED TABLE R-SQUARED SPACING: 0.0625
Info: NONBONDED TABLE SIZE: 705 POINTS
TCL: Setting parameter alchLambda2 to 0.39999999999999963
Info: NONBONDED TABLE R-SQUARED SPACING: 0.0625
Info: NONBONDED TABLE SIZE: 705 POINTS
TCL: Running for 1500000 steps
ETITLE: TS BOND ANGLE DIHED IMPRP ELECT VDW BOUNDARY MISC KINETIC TOTAL TEMP POTENTIAL TOTALAVG TEMPAVG PRESSURE GPRESSURE VOLUME PRESSAVG GPRESSAVG
ENERGY: 0 0.9305 8.2449 7.6328 0.0000 -10661.4939 1438.9646 0.0000 0.0000 1756.0351 -7449.6858 298.3380 -9205.7209 -7449.6858 298.3380 248.0736 327.0794 30039.0700 248.0736 327.0794
ENERGY: 300000 1.9105 5.8962 7.3451 0.0000 -10764.7028 1457.5319 0.0000 0.0000 1792.7221 -7499.2970 304.5708 -9292.0191 -7481.0255 300.0892 111.6939 151.2251 30055.7491 221.4659 255.3944
ENERGY: 600000 5.9731 3.4281 8.2909 0.0000 -10737.4201 1420.7643 0.0000 0.0000 1681.5686 -7617.3951 285.6866 -9298.9637 -7509.8249 297.0350 -590.1697 -517.2923 30443.7771 -38.8141 11.6537
ENERGY: 900000 0.6634 3.7752 6.8879 0.0000 -10703.3044 1422.8515 0.0000 0.0000 1729.3619 -7539.7645 293.8064 -9269.1264 -7511.4574 296.8029 -315.8034 -251.1344 30716.6231 -102.4159 -47.2389
ENERGY: 1200000 1.3981 3.4340 7.0233 0.0000 -10627.1788 1412.7198 0.0000 0.0000 1790.5435 -7412.0601 304.2007 -9202.6036 -7493.1889 297.8730 -67.0673 -55.6392 30448.6243 -177.6506 -124.9919
ENERGY: 1500000 3.0543 8.6450 7.4175 0.0000 -10733.4404 1423.7606 0.0000 0.0000 1777.9781 -7512.5849 302.0659 -9290.5630 -7507.4472 298.0064 -348.3407 -341.5045 30518.5649 -111.6058 -66.2872
TCL: Running FEP window  13: Lambda1 0.39999999999999963 Lambda2 0.34999999999999964 [dLambda -0.04999999999999999]
TCL: Setting parameter firsttimestep to 0
TCL: Setting parameter alchLambda to 0.39999999999999963
Info: NONBONDED TABLE R-SQUARED SPACING: 0.0625
Info: NONBONDED TABLE SIZE: 705 POINTS
TCL: Setting parameter alchLambda2 to 0.34999999999999964
Info: NONBONDED TABLE R-SQUARED SPACING: 0.0625
Info: NONBONDED TABLE SIZE: 705 POINTS
TCL: Running for 1500000 steps
ETITLE: TS BOND ANGLE DIHED IMPRP ELECT VDW BOUNDARY MISC KINETIC TOTAL TEMP POTENTIAL TOTALAVG TEMPAVG PRESSURE GPRESSURE VOLUME PRESSAVG GPRESSAVG
ENERGY: 0 3.0543 8.6450 7.4175 0.0000 -10733.4404 1423.3604 0.0000 0.0000 1777.0612 -7513.9020 301.9102 -9290.9633 -7513.9020 301.9102 -435.7481 -349.9276 30518.5649 -435.7481 -349.9276
ENERGY: 300000 1.6841 8.2650 11.1084 0.0000 -10751.7969 1494.4434 0.0000 0.0000 1754.4818 -7481.8142 298.0741 -9236.2960 -7498.5493 300.0928 280.2598 383.2061 30733.2260 -99.3086 -41.1078
ENERGY: 600000 0.2582 11.0238 7.4435 0.0000 -10701.9722 1451.9159 0.0000 0.0000 1765.9218 -7465.4090 300.0177 -9231.3308 -7495.0080 299.5569 32.5491 84.0508 30758.1094 -168.7908 -104.1357
ENERGY: 900000 0.6829 5.5416 8.2286 0.0000 -10689.7161 1344.7225 0.0000 0.0000 1751.8692 -7578.6712 297.6302 -9330.5405 -7512.9411 298.9597 -923.2280 -928.6181 30481.5931 -215.8684 -157.1046
ENERGY: 1200000 1.5229 5.6440 10.8308 0.0000 -10906.6293 1603.9896 0.0000 0.0000 1696.1971 -7588.4450 288.1719 -9284.6421 -7514.0824 297.9514 1249.9463 1382.3769 29873.7006 -192.8850 -124.3979
ENERGY: 1500000 0.6526 3.7142 9.6980 0.0000 -10758.1979 1479.3352 0.0000 0.0000 1764.5694 -7500.2285 299.7879 -9264.7979 -7519.0703 298.1698 382.2268 414.2815 30147.8039 -137.5279 -69.4814
TCL: Running FEP window  14: Lambda1 0.34999999999999964 Lambda2 0.29999999999999966 [dLambda -0.04999999999999999]
TCL: Setting parameter firsttimestep to 0
TCL: Setting parameter alchLambda to 0.34999999999999964
Info: NONBONDED TABLE R-SQUARED SPACING: 0.0625
Info: NONBONDED TABLE SIZE: 705 POINTS
TCL: Setting parameter alchLambda2 to 0.29999999999999966
Info: NONBONDED TABLE R-SQUARED SPACING: 0.0625
Info: NONBONDED TABLE SIZE: 705 POINTS
TCL: Running for 1500000 steps
ETITLE: TS BOND ANGLE DIHED IMPRP ELECT VDW BOUNDARY MISC KINETIC TOTAL TEMP POTENTIAL TOTALAVG TEMPAVG PRESSURE GPRESSURE VOLUME PRESSAVG GPRESSAVG
ENERGY: 0 0.6526 3.7142 9.6980 0.0000 -10758.1983 1479.5342 0.0000 0.0000 1763.7088 -7500.8905 299.6417 -9264.5993 -7500.8905 299.6417 326.7990 410.4884 30147.8039 326.7990 410.4884
ENERGY: 300000 1.3173 6.7369 6.4828 0.0000 -10769.2794 1473.3306 0.0000 0.0000 1770.0410 -7511.3708 300.7175 -9281.4118 -7510.2804 297.1471 317.1971 413.7557 29978.5115 26.3671 104.0136
ENERGY: 600000 3.4898 7.0732 6.2906 0.0000 -10562.0689 1383.9924 0.0000 0.0000 1770.1224 -7391.1004 300.7313 -9161.2228 -7460.0773 300.7742 -448.0586 -408.2953 31019.7775 -72.6801 -2.5191
ENERGY: 900000 2.5957 6.3171 5.7444 0.0000 -10748.6239 1443.8430 0.0000 0.0000 1750.1480 -7539.9758 297.3378 -9290.1238 -7484.4667 298.9908 -129.1368 -57.1078 30442.2542 -104.6319 -31.4487
ENERGY: 1200000 1.6451 5.9651 7.5219 0.0000 -10826.4562 1461.8894 0.0000 0.0000 1829.4734 -7519.9613 310.8146 -9349.4347 -7487.1466 300.1914 9.7623 65.0247 30072.0301 -210.2192 -137.5105
ENERGY: 1500000 1.7088 4.9412 7.8939 0.0000 -10650.1824 1398.6695 0.0000 0.0000 1754.1068 -7482.8624 298.0104 -9236.9692 -7484.9447 300.1066 -466.3215 -400.9813 30982.3473 -196.1053 -124.4368
TCL: Running FEP window  15: Lambda1 0.29999999999999966 Lambda2 0.24999999999999967 [dLambda -0.04999999999999999]
TCL: Setting parameter firsttimestep to 0
TCL: Setting parameter alchLambda to 0.29999999999999966
Info: NONBONDED TABLE R-SQUARED SPACING: 0.0625
Info: NONBONDED TABLE SIZE: 705 POINTS
TCL: Setting parameter alchLambda2 to 0.24999999999999967
Info: NONBONDED TABLE R-SQUARED SPACING: 0.0625
Info: NONBONDED TABLE SIZE: 705 POINTS
TCL: Running for 1500000 steps
ETITLE: TS BOND ANGLE DIHED IMPRP ELECT VDW BOUNDARY MISC KINETIC TOTAL TEMP POTENTIAL TOTALAVG TEMPAVG PRESSURE GPRESSURE VOLUME PRESSAVG GPRESSAVG
ENERGY: 0 1.7088 4.9412 7.8939 0.0000 -10650.1817 1399.1735 0.0000 0.0000 1753.2693 -7483.1951 297.8681 -9236.4644 -7483.1951 297.8681 -471.6440 -399.3264 30982.3473 -471.6440 -399.3264
ENERGY: 300000 1.5640 3.0620 8.0795 0.0000 -10628.4532 1396.8384 0.0000 0.0000 1812.3384 -7406.5709 307.9035 -9218.9093 -7446.4802 302.2181 -164.5350 -11.4748 30077.2995 -180.2073 -87.1733
ENERGY: 600000 0.7290 4.0844 9.5306 0.0000 -10681.6804 1411.6622 0.0000 0.0000 1757.8956 -7497.7785 298.6541 -9255.6740 -7450.0641 302.1715 -38.4067 23.1817 30050.6576 -116.6315 -42.9938
ENERGY: 900000 0.9592 9.1703 5.2158 0.0000 -10798.4121 1475.3288 0.0000 0.0000 1816.4149 -7491.3231 308.5961 -9307.7380 -7462.1362 302.6776 150.9723 197.2648 30296.4896 -67.7759 6.4246
ENERGY: 1200000 1.2144 5.0204 8.4499 0.0000 -10678.3772 1419.6775 0.0000 0.0000 1840.1749 -7403.8401 312.6327 -9244.0150 -7462.0328 303.6027 -173.9071 -96.4947 30254.2150 -77.7220 -1.5944
ENERGY: 1500000 1.1055 4.9179 6.3808 0.0000 -10684.5663 1415.4676 0.0000 0.0000 1761.6283 -7495.0662 299.2882 -9256.6945 -7478.4634 302.6142 -485.4272 -454.2069 30793.1535 -50.0934 19.0427
TCL: Running FEP window  16: Lambda1 0.24999999999999967 Lambda2 0.19999999999999968 [dLambda -0.04999999999999999]
TCL: Setting parameter firsttimestep to 0
TCL: Setting parameter alchLambda to 0.24999999999999967
Info: NONBONDED TABLE R-SQUARED SPACING: 0.0625
Info: NONBONDED TABLE SIZE: 705 POINTS
TCL: Setting parameter alchLambda2 to 0.19999999999999968
Info: NONBONDED TABLE R-SQUARED SPACING: 0.0625
Info: NONBONDED TABLE SIZE: 705 POINTS
TCL: Running for 1500000 steps
ETITLE: TS BOND ANGLE DIHED IMPRP ELECT VDW BOUNDARY MISC KINETIC TOTAL TEMP POTENTIAL TOTALAVG TEMPAVG PRESSURE GPRESSURE VOLUME PRESSAVG GPRESSAVG
ENERGY: 0 1.1055 4.9179 6.3808 0.0000 -10684.5661 1415.6639 0.0000 0.0000 1760.7222 -7495.7759 299.1343 -9256.4981 -7495.7759 299.1343 -532.5229 -455.9359 30793.1535 -532.5229 -455.9359
ENERGY: 300000 0.3583 5.2311 6.6021 0.0000 -10568.6639 1407.3859 0.0000 0.0000 1763.4521 -7385.6343 299.5981 -9149.0865 -7510.1135 297.2018 48.0314 69.3468 30881.2732 -303.1596 -241.6917
ENERGY: 600000 1.8708 6.9395 6.3301 0.0000 -10739.0932 1439.2409 0.0000 0.0000 1748.2322 -7536.4798 297.0123 -9284.7119 -7518.7075 297.1445 -216.7756 -172.5342 30366.6980 -283.7386 -220.0671
ENERGY: 900000 1.9816 5.6759 7.5589 0.0000 -10714.9553 1457.6152 0.0000 0.0000 1766.2108 -7475.9129 300.0667 -9242.1237 -7501.4967 297.7054 160.4478 256.0726 30260.9333 -174.4739 -102.5209
ENERGY: 1200000 0.6663 5.4885 6.9631 0.0000 -10619.8407 1343.6416 0.0000 0.0000 1766.3455 -7496.7358 300.0896 -9263.0812 -7492.7991 298.8061 -879.4714 -727.9264 30382.5039 -220.8512 -138.3614
ENERGY: 1500000 0.7873 3.9247 6.5952 0.0000 -10786.2092 1489.4667 0.0000 0.0000 1735.2146 -7550.2207 294.8007 -9285.4353 -7493.6636 298.8294 388.4681 428.8454 29931.7975 -194.9823 -112.9291
TCL: Running FEP window  17: Lambda1 0.19999999999999968 Lambda2 0.1499999999999997 [dLambda -0.04999999999999999]
TCL: Setting parameter firsttimestep to 0
TCL: Setting parameter alchLambda to 0.19999999999999968
Info: NONBONDED TABLE R-SQUARED SPACING: 0.0625
Info: NONBONDED TABLE SIZE: 705 POINTS
TCL: Setting parameter alchLambda2 to 0.1499999999999997
Info: NONBONDED TABLE R-SQUARED SPACING: 0.0625
Info: NONBONDED TABLE SIZE: 705 POINTS
TCL: Running for 1500000 steps
ETITLE: TS BOND ANGLE DIHED IMPRP ELECT VDW BOUNDARY MISC KINETIC TOTAL TEMP POTENTIAL TOTALAVG TEMPAVG PRESSURE GPRESSURE VOLUME PRESSAVG GPRESSAVG
ENERGY: 0 0.7873 3.9247 6.5952 0.0000 -10786.2086 1489.0197 0.0000 0.0000 1734.3288 -7551.5528 294.6502 -9285.8816 -7551.5528 294.6502 343.7995 420.5057 29931.7975 343.7995 420.5057
ENERGY: 300000 1.5813 6.2749 9.0532 0.0000 -10518.8309 1372.9836 0.0000 0.0000 1728.9919 -7399.9460 293.7435 -9128.9379 -7517.7755 295.3129 -620.7196 -604.9916 31030.9146 -282.5980 -253.0812
ENERGY: 600000 2.1212 5.3333 7.5349 0.0000 -10595.7785 1390.1138 0.0000 0.0000 1693.0712 -7497.6041 287.6409 -9190.6754 -7522.7417 293.8569 -527.6794 -428.3651 30472.0197 -333.6284 -290.2771
ENERGY: 900000 2.1576 4.3172 8.7452 0.0000 -10680.2519 1420.9562 0.0000 0.0000 1765.3502 -7478.7255 299.9205 -9244.0757 -7515.9758 296.0643 -144.8477 -122.0527 30423.4736 -292.6186 -253.0605
ENERGY: 1200000 2.7774 3.7663 9.9379 0.0000 -10706.3618 1449.4151 0.0000 0.0000 1821.7843 -7418.6807 309.5083 -9240.4651 -7487.2642 298.6881 -136.4631 -133.7818 30845.6393 -315.6854 -276.0300
ENERGY: 1500000 1.6029 6.8969 8.2934 0.0000 -10856.7834 1542.1339 0.0000 0.0000 1815.2899 -7482.5664 308.4049 -9297.8563 -7490.6980 299.2901 903.5856 917.4567 29853.1490 -227.3775 -196.5172
TCL: Running FEP window  18: Lambda1 0.1499999999999997 Lambda2 0.09999999999999969 [dLambda -0.05 ]
TCL: Setting parameter firsttimestep to 0
TCL: Setting parameter alchLambda to 0.1499999999999997
Info: NONBONDED TABLE R-SQUARED SPACING: 0.0625
Info: NONBONDED TABLE SIZE: 705 POINTS
TCL: Setting parameter alchLambda2 to 0.09999999999999969
Info: NONBONDED TABLE R-SQUARED SPACING: 0.0625
Info: NONBONDED TABLE SIZE: 705 POINTS
TCL: Running for 1500000 steps
ETITLE: TS BOND ANGLE DIHED IMPRP ELECT VDW BOUNDARY MISC KINETIC TOTAL TEMP POTENTIAL TOTALAVG TEMPAVG PRESSURE GPRESSURE VOLUME PRESSAVG GPRESSAVG
ENERGY: 0 1.6029 6.8969 8.2934 0.0000 -10856.7835 1542.3805 0.0000 0.0000 1814.3817 -7483.2281 308.2506 -9297.6098 -7483.2281 308.2506 853.8944 916.2226 29853.1490 853.8944 916.2226
ENERGY: 300000 1.7431 6.1793 5.5847 0.0000 -10699.4277 1454.7701 0.0000 0.0000 1796.5458 -7434.6047 305.2205 -9231.1505 -7439.8828 305.9630 173.8865 206.6921 30321.6739 -16.5420 59.0434
ENERGY: 600000 1.2803 7.0038 5.6855 0.0000 -10668.8895 1423.5942 0.0000 0.0000 1750.2813 -7481.0445 297.3604 -9231.3258 -7441.8049 303.0496 -201.9320 -200.0069 30368.9059 -75.4915 -19.2061
ENERGY: 900000 2.8179 5.3769 8.4942 0.0000 -10633.8533 1419.0851 0.0000 0.0000 1774.2344 -7423.8449 301.4299 -9198.0793 -7447.6957 302.2205 119.6900 229.8210 29853.9980 -121.7921 -59.7673
ENERGY: 1200000 0.6189 4.3357 9.9072 0.0000 -10770.9981 1401.6569 0.0000 0.0000 1749.9186 -7604.5607 297.2988 -9354.4793 -7467.0379 301.1601 -678.4075 -595.5864 30243.0341 -249.7322 -188.1117
ENERGY: 1500000 0.9515 4.4244 6.7051 0.0000 -10743.7930 1502.0485 0.0000 0.0000 1776.2725 -7453.3909 301.7762 -9229.6634 -7467.5216 300.4076 669.5458 739.2644 30201.9616 -200.4497 -146.6068
TCL: Running FEP window  19: Lambda1 0.09999999999999969 Lambda2 0.049999999999999684 [dLambda -0.05 ]
TCL: Setting parameter firsttimestep to 0
TCL: Setting parameter alchLambda to 0.09999999999999969
Info: NONBONDED TABLE R-SQUARED SPACING: 0.0625
Info: NONBONDED TABLE SIZE: 705 POINTS
TCL: Setting parameter alchLambda2 to 0.049999999999999684
Info: NONBONDED TABLE R-SQUARED SPACING: 0.0625
Info: NONBONDED TABLE SIZE: 705 POINTS
TCL: Running for 1500000 steps
ETITLE: TS BOND ANGLE DIHED IMPRP ELECT VDW BOUNDARY MISC KINETIC TOTAL TEMP POTENTIAL TOTALAVG TEMPAVG PRESSURE GPRESSURE VOLUME PRESSAVG GPRESSAVG
ENERGY: 0 0.9515 4.4244 6.7051 0.0000 -10743.7924 1502.1727 0.0000 0.0000 1775.4102 -7454.1284 301.6297 -9229.5386 -7454.1284 301.6297 649.3852 735.2391 30201.9616 649.3852 735.2391
ENERGY: 300000 1.6721 4.8581 5.9877 0.0000 -10803.5506 1481.3051 0.0000 0.0000 1788.1284 -7521.5991 303.7904 -9309.7275 -7433.8720 302.4622 -69.2271 -67.3299 30602.4452 79.9981 138.2023
ENERGY: 600000 1.3188 7.4849 6.7898 0.0000 -10636.5468 1430.3313 0.0000 0.0000 1813.3381 -7377.2839 308.0733 -9190.6220 -7433.7620 303.3644 205.4067 296.3885 30060.0171 -114.3624 -54.1667
ENERGY: 900000 1.7916 5.8169 9.5279 0.0000 -10612.1234 1383.2548 0.0000 0.0000 1793.2621 -7418.4702 304.6626 -9211.7323 -7442.4568 303.6889 -570.6172 -473.0541 30478.7972 -188.0504 -125.0152
ENERGY: 1200000 1.1845 4.0855 5.8076 0.0000 -10857.6542 1520.6435 0.0000 0.0000 1786.4714 -7539.4616 303.5089 -9325.9331 -7461.0753 303.2218 527.8146 621.8479 29850.1931 -127.8258 -60.6713
ENERGY: 1500000 1.9889 4.5519 3.7234 0.0000 -10680.7671 1410.9435 0.0000 0.0000 1774.5026 -7485.0567 301.4755 -9259.5593 -7462.3738 302.4367 -544.7154 -417.2260 30687.7196 -166.2773 -88.9243
TCL: Running FEP window  20: Lambda1 0.049999999999999684 Lambda2 0.0    [dLambda -0.049999999999999684]
TCL: Setting parameter firsttimestep to 0
TCL: Setting parameter alchLambda to 0.049999999999999684
Info: NONBONDED TABLE R-SQUARED SPACING: 0.0625
Info: NONBONDED TABLE SIZE: 705 POINTS
TCL: Setting parameter alchLambda2 to 0.0
Info: NONBONDED TABLE R-SQUARED SPACING: 0.0625
Info: NONBONDED TABLE SIZE: 705 POINTS
TCL: Running for 1500000 steps
ETITLE: TS BOND ANGLE DIHED IMPRP ELECT VDW BOUNDARY MISC KINETIC TOTAL TEMP POTENTIAL TOTALAVG TEMPAVG PRESSURE GPRESSURE VOLUME PRESSAVG GPRESSAVG
ENERGY: 0 1.9889 4.5519 3.7234 0.0000 -10680.7676 1410.7856 0.0000 0.0000 1773.6469 -7486.0709 301.3301 -9259.7178 -7486.0709 301.3301 -506.2445 -420.3367 30687.7196 -506.2445 -420.3367
ENERGY: 300000 0.3328 4.7488 7.5419 0.0000 -10540.1033 1348.3402 0.0000 0.0000 1809.7972 -7369.3424 307.4718 -9179.1396 -7445.5635 304.3163 -489.4158 -459.5095 30531.6105 -104.5776 -63.4715
ENERGY: 600000 1.3937 7.0513 7.5826 0.0000 -10824.0968 1489.4720 0.0000 0.0000 1745.7748 -7572.8225 296.5948 -9318.5973 -7493.5088 302.8659 1.3666 70.8574 30535.6130 -136.1601 -91.2279
ENERGY: 900000 0.2523 5.7255 4.8679 0.0000 -10711.0446 1498.1591 0.0000 0.0000 1803.4363 -7398.6035 306.3911 -9202.0399 -7468.9193 303.2626 883.7235 882.7537 30013.2610 -32.3209 10.7832
ENERGY: 1200000 7.6512 5.1142 7.6487 0.0000 -10736.5589 1466.5138 0.0000 0.0000 1779.3128 -7470.3182 302.2927 -9249.6310 -7471.8303 302.0721 -168.0373 -120.6875 30549.8943 -198.7926 -155.2584
ENERGY: 1500000 0.9897 3.1508 8.5058 0.0000 -10736.5728 1400.6903 0.0000 0.0000 1822.7950 -7500.4412 309.6800 -9323.2362 -7478.9642 302.0998 -637.4569 -587.3585 30466.6396 -238.6112 -194.0855
TCL: Exiting due to exit command.
