Info: SIMULATION PARAMETERS:
Info: TIMESTEP               2
Info: NUMBER OF STEPS        0
Info: STEPS PER CYCLE        10
Info: PERIODIC CELL BASIS 1  31.707 0 0
Info: PERIODIC CELL BASIS 2  0 32.3736 0
Info: PERIODIC CELL BASIS 3  0 0 30.5401
Info: PERIODIC CELL CENTER   0 0 0
Info: WRAPPING WATERS AROUND PERIODIC BOUNDARIES ON OUTPUT.
Info: WRAPPING ALL CLUSTERS AROUND PERIODIC BOUNDARIES ON OUTPUT.
Info: FIRST LDB TIMESTEP     50
Info: LAST LDB TIMESTEP     -1
Info: HOM BACKGROUND SCALING 1
Info: PME BACKGROUND SCALING 1
Info: MIN ATOMS PER PATCH    40
Info: EMPTY PATCH LOAD       40 ATOMS
Info: VELOCITY FILE          mobley_6006813_equil.vel
Info: CENTER OF MASS MOVING INITIALLY? NO
Info: DIELECTRIC             1
Info: EXCLUDE                SCALED ONE-FOUR
Info: 1-4 ELECTROSTATICS SCALED BY 0.833333
Info: MODIFIED 1-4 VDW PARAMETERS WILL BE USED
Info: DCD FILENAME           mobley_6006813_prod.dcd
Info: DCD FREQUENCY          100000
Info: DCD FIRST STEP         100000
Info: DCD FILE WILL CONTAIN UNIT CELL DATA
Info: XST FILENAME           mobley_6006813_prod.xst
Info: XST FREQUENCY          100000
Info: NO VELOCITY DCD OUTPUT
Info: NO FORCE DCD OUTPUT
Info: OUTPUT FILENAME        mobley_6006813_prod
Info: BINARY OUTPUT FILES WILL BE USED
Info: RESTART FILENAME       mobley_6006813_prod.restart
Info: RESTART FREQUENCY      100000
Info: BINARY RESTART FILES WILL BE USED
Info: CUTOFF                 9
Info: PAIRLIST DISTANCE      11
Info: PAIRLIST SHRINK RATE   0.01
Info: PAIRLIST GROW RATE     0.01
Info: PAIRLIST TRIGGER       0.3
Info: PAIRLISTS PER CYCLE    2
Info: PAIRLISTS ENABLED
Info: MARGIN                 2
Info: HYDROGEN GROUP CUTOFF  2.5
Info: PATCH DIMENSION        15.5
Info: ENERGY OUTPUT STEPS    100000
Info: ENERGY EVALUATION STEPS    100000
Info: OUTPUT ENERGY PRECISION 4
Info: CROSSTERM ENERGY INCLUDED IN DIHEDRAL
Info: TIMING OUTPUT STEPS    1000000
Info: PRESSURE OUTPUT STEPS  100000
Info: ALCHEMICAL FEP ON
Info: FEP CURRENT LAMBDA VALUE     0
Info: FEP COMPARISON LAMBDA VALUE  0.05
Info: FEP INTRA-ALCHEMICAL NON-BONDED INTERACTIONS WILL BE RETAINED
Info: FEP INTRA-ALCHEMICAL BONDED INTERACTIONS WILL BE RETAINED
Info: FEP VDW SHIFTING COEFFICIENT 5
Info: FEP ELEC. ACTIVE FOR ANNIHILATED PARTICLES BETWEEN LAMBDA = 0 AND LAMBDA = 0.5
Info: FEP ELEC. ACTIVE FOR EXNIHILATED PARTICLES BETWEEN LAMBDA = 0.5 AND LAMBDA = 1
Info: FEP VDW ACTIVE FOR ANNIHILATED PARTICLES BETWEEN LAMBDA = 0 AND LAMBDA = 1
Info: FEP VDW ACTIVE FOR EXNIHILATED PARTICLES BETWEEN LAMBDA = 0 AND LAMBDA = 1
Info: FEP BOND ACTIVE FOR ANNIHILATED PARTICLES BETWEEN LAMBDA = 1 AND LAMBDA = 1
Info: FEP BOND ACTIVE FOR EXNIHILATED PARTICLES BETWEEN LAMBDA = 0 AND LAMBDA = 0
Info: LANGEVIN DYNAMICS ACTIVE
Info: LANGEVIN TEMPERATURE   300
Info: LANGEVIN USING BBK INTEGRATOR
Info: LANGEVIN DAMPING COEFFICIENT IS 1 INVERSE PS
Info: LANGEVIN DYNAMICS APPLIED TO HYDROGENS
Info: LANGEVIN PISTON PRESSURE CONTROL ACTIVE
Info:        TARGET PRESSURE IS 1.01325 BAR
Info:     OSCILLATION PERIOD IS 50 FS
Info:             DECAY TIME IS 25 FS
Info:     PISTON TEMPERATURE IS 300 K
Info:       PRESSURE CONTROL IS GROUP-BASED
Info:    INITIAL STRAIN RATE IS 0.000363591 0.000363591 0.000363591
Info:       CELL FLUCTUATION IS ISOTROPIC
Info: PARTICLE MESH EWALD (PME) ACTIVE
Info: PME TOLERANCE               1e-06
Info: PME EWALD COEFFICIENT       0.348832
Info: PME INTERPOLATION ORDER     4
Info: PME GRID DIMENSIONS         32 36 32
Info: PME MAXIMUM GRID SPACING    1
Info: PME CALCULATION WILL BE PERFORMED ON GPU
Info: FULL ELECTROSTATIC EVALUATION FREQUENCY      2
Info: USING VERLET I (r-RESPA) MTS SCHEME.
Info: C1 SPLITTING OF LONG RANGE ELECTROSTATICS
Info: PLACING ATOMS IN PATCHES BY HYDROGEN GROUPS
Info: RIGID BONDS TO HYDROGEN : ALL
Info:         ERROR TOLERANCE : 1e-08
Info:          MAX ITERATIONS : 100
Info: RIGID WATER USING SETTLE ALGORITHM
Info: RANDOM NUMBER SEED     1743902827
Info: USE HYDROGEN BONDS?    NO
Info: Using AMBER format force field!
Info: AMBER PARM FILE        mobley_6006813.prmtop
Info: COORDINATE PDB         mobley_6006813.pdb
Info: Exclusions will be read from PARM file!
Info: SCNB (VDW SCALING)     2
Info: USING ARITHMETIC MEAN TO COMBINE L-J SIGMA PARAMETERS
Info: BINARY COORDINATES     mobley_6006813_equil.coor
Info: SUMMARY OF PARAMETERS:
Info: 7 BONDS
Info: 9 ANGLES
Info:   9 HARMONIC
Info:   0 COSINE-BASED
Info: 7 DIHEDRAL
Info: 0 IMPROPER
Info: 0 CROSSTERM
Info: 0 VDW
Info: 28 VDW_PAIRS
Info: 0 NBTHOLE_PAIRS
Info: To read alchdata from file: mobley_6006813.pdb
Info: To read alchflag data from column: 5
Info: STRUCTURE SUMMARY:
Info: 2995 ATOMS
Info: 2994 BONDS
Info: 27 ANGLES
Info: 35 DIHEDRALS
Info: 0 IMPROPERS
Info: 0 CROSSTERMS
Info: 3054 EXCLUSIONS
Info: 2988 RIGID BONDS
Info: ALCH: 0 ATOMS TO DISAPPEAR IN FINAL STATE
Info: ALCH: 16 ATOMS TO APPEAR IN FINAL STATE
Info: 5997 DEGREES OF FREEDOM
Info: 1000 HYDROGEN GROUPS
Info: 4 ATOMS IN LARGEST HYDROGEN GROUP
Info: 1000 MIGRATION GROUPS
Info: 4 ATOMS IN LARGEST MIGRATION GROUP
Info: TOTAL MASS = 17993 amu
Info: TOTAL CHARGE = -9.99905e-05 e
Info: MASS DENSITY = 0.953118 g/cm^3
Info: ATOM DENSITY = 0.0955389 atoms/A^3
Info: ADDED 0 IMPLICIT EXCLUSIONS
Info: NONBONDED TABLE R-SQUARED SPACING: 0.0625
Info: NONBONDED TABLE SIZE: 705 POINTS
Info: REDUCING NUMBER OF PATCHES TO IMPROVE LOAD BALANCE
Info: REMOVING COM VELOCITY 0.23003 -0.0500341 -0.165728
Info: Use 3D box decompostion in PME FFT.
Info: Updated CUDA force table with 4096 elements.
Info: Updated CUDA LJ table with 7 x 7 elements.
Info: Found 19 unique exclusion lists needing 44 bytes
TCL: Running for 1500000 steps
ETITLE: TS BOND ANGLE DIHED IMPRP ELECT VDW BOUNDARY MISC KINETIC TOTAL TEMP POTENTIAL TOTALAVG TEMPAVG PRESSURE GPRESSURE VOLUME PRESSAVG GPRESSAVG
ENERGY: 0 3.0095 5.8227 1.0205 0.0000 -10744.2986 1404.8528 0.0000 0.0000 1776.0528 -7553.5403 298.0658 -9329.5931 -7553.5403 298.0658 -688.9906 -599.7952 31348.4788 -688.9906 -599.7952
ENERGY: 300000 2.0975 9.2457 0.8621 0.0000 -10844.8738 1412.8416 0.0000 0.0000 1768.8417 -7650.9853 296.8556 -9419.8270 -7597.0541 298.1181 -221.7236 -186.2210 30362.6637 -352.2486 -313.5102
ENERGY: 600000 1.1362 8.0909 2.1754 0.0000 -10857.7547 1471.0000 0.0000 0.0000 1815.7622 -7559.5901 304.7301 -9375.3522 -7611.6393 297.6331 -18.3788 103.4446 30761.0158 -288.5664 -239.8405
ENERGY: 900000 0.4514 5.6587 1.0820 0.0000 -10930.7911 1492.2997 0.0000 0.0000 1777.9740 -7653.3253 298.3883 -9431.2993 -7592.5542 299.7706 -25.0227 36.7110 30703.3160 -102.5309 -54.3762
ENERGY: 1200000 2.5219 6.2753 2.2644 0.0000 -10959.5017 1532.7052 0.0000 0.0000 1780.7048 -7635.0300 298.8466 -9415.7348 -7592.4593 299.9226 432.7651 461.7698 30401.3860 -12.1228 43.4086
ENERGY: 1500000 0.2499 9.1787 0.8345 0.0000 -10946.5722 1529.6556 0.0000 0.0000 1812.1738 -7594.4797 304.1279 -9406.6535 -7587.5464 300.6294 704.2074 778.4253 30299.1938 17.9602 66.7629
TCL: Running FEP window   2: Lambda1 0.05   Lambda2 0.1    [dLambda 0.05  ]
TCL: Setting parameter firsttimestep to 0
TCL: Setting parameter alchLambda to 0.05
Info: NONBONDED TABLE R-SQUARED SPACING: 0.0625
Info: NONBONDED TABLE SIZE: 705 POINTS
TCL: Setting parameter alchLambda2 to 0.1
Info: NONBONDED TABLE R-SQUARED SPACING: 0.0625
Info: NONBONDED TABLE SIZE: 705 POINTS
TCL: Running for 1500000 steps
ETITLE: TS BOND ANGLE DIHED IMPRP ELECT VDW BOUNDARY MISC KINETIC TOTAL TEMP POTENTIAL TOTALAVG TEMPAVG PRESSURE GPRESSURE VOLUME PRESSAVG GPRESSAVG
ENERGY: 0 0.2499 9.1787 0.8345 0.0000 -10946.5721 1531.1439 0.0000 0.0000 1811.2840 -7593.8811 303.9785 -9405.1650 -7593.8811 303.9785 694.9100 784.2191 30299.1938 694.9100 784.2191
ENERGY: 300000 2.7601 6.6420 1.8960 0.0000 -10675.0759 1433.8775 0.0000 0.0000 1812.1501 -7417.7502 304.1239 -9229.9004 -7541.4588 303.6477 262.5744 323.0887 30887.6203 198.8581 273.4131
ENERGY: 600000 1.1732 5.8862 1.5437 0.0000 -10838.6389 1402.4481 0.0000 0.0000 1801.9057 -7625.6820 302.4046 -9427.5877 -7551.1231 303.3054 -686.8216 -558.8192 30591.1730 -96.0999 -21.6159
ENERGY: 900000 2.8752 5.5108 0.8137 0.0000 -10903.6624 1499.9793 0.0000 0.0000 1842.7360 -7551.7474 309.2569 -9394.4833 -7554.7258 302.4562 192.7572 242.8240 30777.5574 -109.0744 -45.7939
ENERGY: 1200000 0.8123 7.5704 1.4067 0.0000 -10872.6279 1459.8151 0.0000 0.0000 1766.1860 -7636.8373 296.4100 -9403.0233 -7575.5068 301.1642 -346.3847 -263.3651 31061.1882 -126.7090 -62.3451
ENERGY: 1500000 2.8055 6.2857 0.8875 0.0000 -10824.8330 1380.7121 0.0000 0.0000 1835.1647 -7598.9776 307.9863 -9434.1422 -7588.9256 300.7218 -1031.4168 -1026.8738 31152.9648 -196.2463 -136.6538
TCL: Running FEP window   3: Lambda1 0.1    Lambda2 0.15000000000000002 [dLambda 0.05000000000000002]
TCL: Setting parameter firsttimestep to 0
TCL: Setting parameter alchLambda to 0.1
Info: NONBONDED TABLE R-SQUARED SPACING: 0.0625
Info: NONBONDED TABLE SIZE: 705 POINTS
TCL: Setting parameter alchLambda2 to 0.15000000000000002
Info: NONBONDED TABLE R-SQUARED SPACING: 0.0625
Info: NONBONDED TABLE SIZE: 705 POINTS
TCL: Running for 1500000 steps
ETITLE: TS BOND ANGLE DIHED IMPRP ELECT VDW BOUNDARY MISC KINETIC TOTAL TEMP POTENTIAL TOTALAVG TEMPAVG PRESSURE GPRESSURE VOLUME PRESSAVG GPRESSAVG
ENERGY: 0 2.8055 6.2857 0.8875 0.0000 -10824.8336 1383.0588 0.0000 0.0000 1834.2704 -7597.5256 307.8362 -9431.7960 -7597.5256 307.8362 -1093.6957 -1016.7032 31152.9648 -1093.6957 -1016.7032
ENERGY: 300000 1.7112 6.7951 0.6097 0.0000 -10857.2001 1483.1752 0.0000 0.0000 1787.6244 -7577.2846 300.0078 -9364.9089 -7601.6152 301.3740 383.0443 391.6873 30204.6898 -119.4430 -57.3583
ENERGY: 600000 1.0172 7.2614 1.7939 0.0000 -10829.4281 1420.8920 0.0000 0.0000 1769.0501 -7629.4135 296.8906 -9398.4636 -7612.3078 298.0892 -307.5838 -261.2563 30463.6506 -205.8168 -152.8132
ENERGY: 900000 2.1197 4.9595 2.1980 0.0000 -10805.4567 1431.6459 0.0000 0.0000 1753.9894 -7610.5441 294.3631 -9364.5335 -7597.6364 298.5776 -36.7256 -23.1334 30786.6898 -112.9693 -54.3380
ENERGY: 1200000 4.9149 5.8637 3.0387 0.0000 -10742.3102 1373.7367 0.0000 0.0000 1786.0680 -7568.6881 299.7466 -9354.7561 -7592.6883 298.8156 -904.5539 -817.6840 30889.2957 -181.7654 -124.9970
ENERGY: 1500000 2.6918 8.7584 1.1738 0.0000 -10843.4192 1456.2100 0.0000 0.0000 1768.4640 -7606.1211 296.7923 -9374.5851 -7594.7695 299.4376 -303.9444 -175.7390 30671.4727 -147.3522 -83.0936
TCL: Running FEP window   4: Lambda1 0.15000000000000002 Lambda2 0.2    [dLambda 0.04999999999999999]
TCL: Setting parameter firsttimestep to 0
TCL: Setting parameter alchLambda to 0.15000000000000002
Info: NONBONDED TABLE R-SQUARED SPACING: 0.0625
Info: NONBONDED TABLE SIZE: 705 POINTS
TCL: Setting parameter alchLambda2 to 0.2
Info: NONBONDED TABLE R-SQUARED SPACING: 0.0625
Info: NONBONDED TABLE SIZE: 705 POINTS
TCL: Running for 1500000 steps
ETITLE: TS BOND ANGLE DIHED IMPRP ELECT VDW BOUNDARY MISC KINETIC TOTAL TEMP POTENTIAL TOTALAVG TEMPAVG PRESSURE GPRESSURE VOLUME PRESSAVG GPRESSAVG
ENERGY: 0 2.6918 8.7584 1.1738 0.0000 -10843.4183 1457.4502 0.0000 0.0000 1767.5753 -7605.7688 296.6431 -9373.3441 -7605.7688 296.6431 -247.6440 -167.8445 30671.4727 -247.6440 -167.8445
ENERGY: 300000 3.3132 3.6287 0.8256 0.0000 -10902.0302 1492.3575 0.0000 0.0000 1800.3656 -7601.5395 302.1461 -9401.9051 -7588.9080 301.6683 221.2502 286.2329 30785.8615 149.6056 190.7602
ENERGY: 600000 1.6188 7.1420 1.9131 0.0000 -10866.9165 1428.4217 0.0000 0.0000 1764.8887 -7662.9322 296.1922 -9427.8209 -7604.6913 299.3473 -413.0291 -366.4932 30700.6370 18.1518 53.9983
ENERGY: 900000 1.1452 8.2845 2.4459 0.0000 -10581.0343 1278.8355 0.0000 0.0000 1789.0448 -7501.2785 300.2462 -9290.3233 -7591.8893 300.0293 -1406.4014 -1297.9421 31234.9794 -105.5812 -56.5516
ENERGY: 1200000 2.1504 7.7752 3.3262 0.0000 -10971.9650 1542.7086 0.0000 0.0000 1774.2089 -7641.7957 297.7564 -9416.0046 -7597.4843 299.5065 540.5802 586.0131 30490.9145 -19.6047 25.3721
ENERGY: 1500000 7.1081 8.8730 1.5115 0.0000 -10923.9013 1529.6429 0.0000 0.0000 1811.3186 -7565.4471 303.9843 -9376.7657 -7592.7783 299.9879 371.5313 392.2288 30841.4586 22.3354 70.5478
TCL: Running FEP window   5: Lambda1 0.2    Lambda2 0.25   [dLambda 0.04999999999999999]
TCL: Setting parameter firsttimestep to 0
TCL: Setting parameter alchLambda to 0.2
Info: NONBONDED TABLE R-SQUARED SPACING: 0.0625
Info: NONBONDED TABLE SIZE: 705 POINTS
TCL: Setting parameter alchLambda2 to 0.25
Info: NONBONDED TABLE R-SQUARED SPACING: 0.0625
Info: NONBONDED TABLE SIZE: 705 POINTS
TCL: Running for 1500000 steps
ETITLE: TS BOND ANGLE DIHED IMPRP ELECT VDW BOUNDARY MISC KINETIC TOTAL TEMP POTENTIAL TOTALAVG TEMPAVG PRESSURE GPRESSURE VOLUME PRESSAVG GPRESSAVG
ENERGY: 0 7.1081 8.8730 1.5115 0.0000 -10923.9014 1529.9452 0.0000 0.0000 1810.4224 -7566.0411 303.8339 -9376.4635 -7566.0411 303.8339 309.0105 399.2479 30841.4586 309.0105 399.2479
ENERGY: 300000 1.6467 6.7763 0.7582 0.0000 -10804.1317 1384.4116 0.0000 0.0000 1768.0243 -7642.5147 296.7185 -9410.5390 -7573.3757 301.1365 -694.2963 -589.7378 30822.5438 -9.1402 65.3493
ENERGY: 600000 0.9067 5.9494 0.9705 0.0000 -10710.8225 1354.3400 0.0000 0.0000 1834.9926 -7513.6633 307.9574 -9348.6559 -7569.6931 302.4254 -631.5985 -520.5482 30693.7306 -127.7454 -58.1303
ENERGY: 900000 4.1474 5.1558 0.8199 0.0000 -10763.2291 1463.0362 0.0000 0.0000 1723.0284 -7567.0414 289.1670 -9290.0697 -7568.1871 301.8362 142.5931 222.4545 30828.6933 10.6995 85.0151
ENERGY: 1200000 1.3613 11.6046 0.6914 0.0000 -10975.0161 1534.4808 0.0000 0.0000 1779.2928 -7647.5852 298.6096 -9426.8780 -7585.1939 301.1710 418.7867 397.5153 30923.5845 56.2713 116.5081
ENERGY: 1500000 1.7726 3.2962 2.1015 0.0000 -10866.7617 1451.2831 0.0000 0.0000 1779.3641 -7628.9442 298.6216 -9408.3082 -7590.4082 301.5083 -178.0901 -140.6611 30973.9215 59.4134 118.3576
TCL: Running FEP window   6: Lambda1 0.25   Lambda2 0.3    [dLambda 0.04999999999999999]
TCL: Setting parameter firsttimestep to 0
TCL: Setting parameter alchLambda to 0.25
Info: NONBONDED TABLE R-SQUARED SPACING: 0.0625
Info: NONBONDED TABLE SIZE: 705 POINTS
TCL: Setting parameter alchLambda2 to 0.3
Info: NONBONDED TABLE R-SQUARED SPACING: 0.0625
Info: NONBONDED TABLE SIZE: 705 POINTS
TCL: Running for 1500000 steps
ETITLE: TS BOND ANGLE DIHED IMPRP ELECT VDW BOUNDARY MISC KINETIC TOTAL TEMP POTENTIAL TOTALAVG TEMPAVG PRESSURE GPRESSURE VOLUME PRESSAVG GPRESSAVG
ENERGY: 0 1.7726 3.2962 2.1015 0.0000 -10866.7622 1450.8125 0.0000 0.0000 1778.4682 -7630.3111 298.4712 -9408.7793 -7630.3111 298.4712 -226.6706 -141.2192 30973.9215 -226.6706 -141.2192
ENERGY: 300000 2.9888 7.5488 1.6425 0.0000 -10884.9236 1484.8452 0.0000 0.0000 1824.1979 -7563.7005 306.1458 -9387.8984 -7621.9284 300.6559 268.4296 318.3513 30701.1033 151.5403 237.6602
ENERGY: 600000 2.6336 11.0417 1.8495 0.0000 -10785.1901 1377.5553 0.0000 0.0000 1796.0681 -7596.0420 301.4249 -9392.1101 -7614.5313 300.4273 -627.2296 -595.2174 30450.7366 -190.5242 -116.0416
ENERGY: 900000 2.1598 5.9312 0.8530 0.0000 -10807.5911 1514.0497 0.0000 0.0000 1770.1919 -7514.4055 297.0822 -9284.5974 -7596.6513 300.4269 337.5831 424.6315 31091.4289 -149.9929 -75.4827
ENERGY: 1200000 1.5306 6.9503 1.0536 0.0000 -10875.6274 1480.0760 0.0000 0.0000 1811.5913 -7574.4255 304.0301 -9386.0168 -7583.0749 301.9322 93.1084 103.3787 30931.3696 -39.9845 26.6238
ENERGY: 1500000 0.6860 6.7267 0.7739 0.0000 -10844.7540 1451.5723 0.0000 0.0000 1753.0202 -7631.9749 294.2004 -9384.9951 -7574.6227 301.7307 -305.4353 -225.0931 31496.0714 -23.3076 46.9879
TCL: Running FEP window   7: Lambda1 0.3    Lambda2 0.35   [dLambda 0.04999999999999999]
TCL: Setting parameter firsttimestep to 0
TCL: Setting parameter alchLambda to 0.3
Info: NONBONDED TABLE R-SQUARED SPACING: 0.0625
Info: NONBONDED TABLE SIZE: 705 POINTS
TCL: Setting parameter alchLambda2 to 0.35
Info: NONBONDED TABLE R-SQUARED SPACING: 0.0625
Info: NONBONDED TABLE SIZE: 705 POINTS
TCL: Running for 1500000 steps
ETITLE: TS BOND ANGLE DIHED IMPRP ELECT VDW BOUNDARY MISC KINETIC TOTAL TEMP POTENTIAL TOTALAVG TEMPAVG PRESSURE GPRESSURE VOLUME PRESSAVG GPRESSAVG
ENERGY: 0 0.6860 6.7267 0.7739 0.0000 -10844.7561 1451.4001 0.0000 0.0000 1752.1421 -7633.0272 294.0530 -9385.1693 -7633.0272 294.0530 -300.2800 -222.7564 31496.0714 -300.2800 -222.7564
ENERGY: 300000 2.5285 7.9892 1.1863 0.0000 -10930.4009 1496.4137 0.0000 0.0000 1775.5954 -7646.6877 297.9891 -9422.2831 -7613.3624 296.1057 289.0639 344.9597 30473.6589 -139.1744 -85.2252
ENERGY: 600000 2.0863 7.7743 0.8436 0.0000 -10757.0647 1438.5780 0.0000 0.0000 1755.2131 -7552.5695 294.5684 -9307.7826 -7602.4550 296.7491 91.6168 171.4367 30447.3453 -75.2493 -22.7630
ENERGY: 900000 1.9556 7.3006 0.8347 0.0000 -10910.3325 1499.9721 0.0000 0.0000 1774.5858 -7625.6836 297.8196 -9400.2695 -7612.5307 297.4140 -13.4001 56.9704 31253.0621 33.2345 82.1650
ENERGY: 1200000 3.0508 6.0896 1.5675 0.0000 -10932.2934 1484.4170 0.0000 0.0000 1800.1285 -7637.0399 302.1063 -9437.1684 -7609.8208 298.4328 36.1277 144.2193 30441.1202 124.0564 180.2733
ENERGY: 1500000 1.2199 7.8951 0.8736 0.0000 -10741.3687 1344.3339 0.0000 0.0000 1785.4989 -7601.5472 299.6511 -9387.0462 -7601.8136 299.2728 -1126.2115 -1080.1872 31174.0906 -5.5010 54.5479
TCL: Running FEP window   8: Lambda1 0.35   Lambda2 0.39999999999999997 [dLambda 0.04999999999999999]
TCL: Setting parameter firsttimestep to 0
TCL: Setting parameter alchLambda to 0.35
Info: NONBONDED TABLE R-SQUARED SPACING: 0.0625
Info: NONBONDED TABLE SIZE: 705 POINTS
TCL: Setting parameter alchLambda2 to 0.39999999999999997
Info: NONBONDED TABLE R-SQUARED SPACING: 0.0625
Info: NONBONDED TABLE SIZE: 705 POINTS
TCL: Running for 1500000 steps
ETITLE: TS BOND ANGLE DIHED IMPRP ELECT VDW BOUNDARY MISC KINETIC TOTAL TEMP POTENTIAL TOTALAVG TEMPAVG PRESSURE GPRESSURE VOLUME PRESSAVG GPRESSAVG
ENERGY: 0 1.2199 7.8951 0.8736 0.0000 -10741.3692 1344.9034 0.0000 0.0000 1784.6491 -7601.8281 299.5085 -9386.4772 -7601.8281 299.5085 -1150.8621 -1072.0112 31174.0906 -1150.8621 -1072.0112
ENERGY: 300000 0.8358 7.4810 2.2397 0.0000 -10848.5237 1387.3566 0.0000 0.0000 1774.0625 -7676.5481 297.7318 -9450.6106 -7604.0955 301.7315 -704.7855 -661.6346 30535.0375 -368.8795 -293.5529
ENERGY: 600000 3.1706 8.5461 0.5993 0.0000 -10769.0458 1396.9155 0.0000 0.0000 1791.0326 -7568.7817 300.5798 -9359.8144 -7576.3339 303.1892 -255.3131 -243.8542 30511.4311 -360.0025 -300.0587
ENERGY: 900000 3.0068 8.9504 0.9869 0.0000 -10906.2032 1477.8032 0.0000 0.0000 1781.7860 -7633.6700 299.0280 -9415.4560 -7580.8680 302.1216 201.7556 236.8742 30457.5117 -321.9304 -266.1469
ENERGY: 1200000 0.7961 6.1700 1.8467 0.0000 -10967.7110 1531.8556 0.0000 0.0000 1787.8805 -7639.1621 300.0508 -9427.0426 -7590.5077 301.9248 504.1748 591.0597 30572.0112 -237.0490 -177.5491
ENERGY: 1500000 3.2651 8.9635 0.8960 0.0000 -10868.7549 1467.1778 0.0000 0.0000 1783.0208 -7605.4317 299.2352 -9388.4525 -7587.1238 302.1571 -141.8339 -31.7283 31168.5147 -182.5116 -118.1482
TCL: Running FEP window   9: Lambda1 0.39999999999999997 Lambda2 0.44999999999999996 [dLambda 0.04999999999999999]
TCL: Setting parameter firsttimestep to 0
TCL: Setting parameter alchLambda to 0.39999999999999997
Info: NONBONDED TABLE R-SQUARED SPACING: 0.0625
Info: NONBONDED TABLE SIZE: 705 POINTS
TCL: Setting parameter alchLambda2 to 0.44999999999999996
Info: NONBONDED TABLE R-SQUARED SPACING: 0.0625
Info: NONBONDED TABLE SIZE: 705 POINTS
TCL: Running for 1500000 steps
ETITLE: TS BOND ANGLE DIHED IMPRP ELECT VDW BOUNDARY MISC KINETIC TOTAL TEMP POTENTIAL TOTALAVG TEMPAVG PRESSURE GPRESSURE VOLUME PRESSAVG GPRESSAVG
ENERGY: 0 3.2651 8.9635 0.8960 0.0000 -10868.7540 1468.4155 0.0000 0.0000 1782.1179 -7605.0960 299.0837 -9387.2139 -7605.0960 299.0837 -90.4942 -22.1078 31168.5147 -90.4942 -22.1078
ENERGY: 300000 2.4300 7.9673 1.8231 0.0000 -10927.7070 1498.0335 0.0000 0.0000 1816.7267 -7600.7263 304.8919 -9417.4531 -7592.8031 303.8052 60.8148 137.4554 30859.2446 39.5601 101.4474
ENERGY: 600000 1.8591 5.1058 1.1182 0.0000 -10718.7928 1482.8296 0.0000 0.0000 1759.1521 -7468.7279 295.2295 -9227.8800 -7588.1899 299.7861 462.7495 495.4441 31289.4317 119.5150 159.8492
ENERGY: 900000 1.8785 8.4487 2.3143 0.0000 -10851.2403 1471.0597 0.0000 0.0000 1714.8208 -7652.7182 287.7896 -9367.5390 -7596.9269 297.5314 -5.2910 75.6895 30505.8315 196.5694 243.3040
ENERGY: 1200000 1.0056 5.4399 1.1205 0.0000 -10960.8682 1502.5171 0.0000 0.0000 1726.1074 -7724.6777 289.6838 -9450.7851 -7608.3773 297.5596 159.2351 241.9835 30868.8291 216.9531 270.0551
ENERGY: 1500000 0.5564 7.9470 1.7302 0.0000 -10776.5945 1409.6295 0.0000 0.0000 1811.4830 -7545.2483 304.0119 -9356.7313 -7602.0465 298.6422 -323.1964 -317.1713 30839.6382 205.9250 253.5884
TCL: Running FEP window  10: Lambda1 0.44999999999999996 Lambda2 0.49999999999999994 [dLambda 0.04999999999999999]
TCL: Setting parameter firsttimestep to 0
TCL: Setting parameter alchLambda to 0.44999999999999996
Info: NONBONDED TABLE R-SQUARED SPACING: 0.0625
Info: NONBONDED TABLE SIZE: 705 POINTS
TCL: Setting parameter alchLambda2 to 0.49999999999999994
Info: NONBONDED TABLE R-SQUARED SPACING: 0.0625
Info: NONBONDED TABLE SIZE: 705 POINTS
TCL: Running for 1500000 steps
ETITLE: TS BOND ANGLE DIHED IMPRP ELECT VDW BOUNDARY MISC KINETIC TOTAL TEMP POTENTIAL TOTALAVG TEMPAVG PRESSURE GPRESSURE VOLUME PRESSAVG GPRESSAVG
ENERGY: 0 0.5564 7.9470 1.7302 0.0000 -10776.5945 1410.4895 0.0000 0.0000 1810.6266 -7545.2446 303.8682 -9355.8712 -7545.2446 303.8682 -397.9299 -307.8337 30839.6382 -397.9299 -307.8337
ENERGY: 300000 0.9139 7.6004 2.3823 0.0000 -10749.7959 1394.0573 0.0000 0.0000 1797.4692 -7547.3727 301.6600 -9344.8419 -7524.6468 307.3282 -514.1069 -457.0181 31254.4227 -266.6495 -201.9973
ENERGY: 600000 2.1247 10.7481 1.6321 0.0000 -10849.4821 1451.7483 0.0000 0.0000 1767.7270 -7615.5020 296.6686 -9383.2290 -7557.5275 304.9877 44.2217 91.0530 30826.2723 -165.5851 -96.4288
ENERGY: 900000 0.6590 5.5058 1.1446 0.0000 -10862.6123 1523.7152 0.0000 0.0000 1811.3051 -7520.2827 303.9820 -9331.5878 -7560.7756 304.5091 719.9121 749.8511 30692.3770 -12.6711 56.9128
ENERGY: 1200000 1.3339 10.3898 1.4400 0.0000 -10742.4089 1376.2041 0.0000 0.0000 1791.0314 -7562.0098 300.5796 -9353.0412 -7557.2271 303.8778 -478.4118 -356.8479 30520.1669 -41.2520 29.0024
ENERGY: 1500000 2.0506 3.4874 0.8058 0.0000 -10765.0488 1392.8717 0.0000 0.0000 1795.0904 -7570.7429 301.2608 -9365.8333 -7560.7707 304.0626 -639.0740 -579.4873 31234.7301 -85.2046 -18.8352
TCL: Running FEP window  11: Lambda1 0.49999999999999994 Lambda2 0.5499999999999999 [dLambda 0.04999999999999999]
TCL: Setting parameter firsttimestep to 0
TCL: Setting parameter alchLambda to 0.49999999999999994
Info: NONBONDED TABLE R-SQUARED SPACING: 0.0625
Info: NONBONDED TABLE SIZE: 705 POINTS
TCL: Setting parameter alchLambda2 to 0.5499999999999999
Info: NONBONDED TABLE R-SQUARED SPACING: 0.0625
Info: NONBONDED TABLE SIZE: 705 POINTS
TCL: Running for 1500000 steps
ETITLE: TS BOND ANGLE DIHED IMPRP ELECT VDW BOUNDARY MISC KINETIC TOTAL TEMP POTENTIAL TOTALAVG TEMPAVG PRESSURE GPRESSURE VOLUME PRESSAVG GPRESSAVG
ENERGY: 0 2.0506 3.4874 0.8058 0.0000 -10765.0500 1393.0325 0.0000 0.0000 1794.2025 -7571.4711 301.1118 -9365.6736 -7571.4711 301.1118 -670.0461 -575.7429 31234.7301 -670.0461 -575.7429
ENERGY: 300000 3.2823 4.5889 2.5260 0.0000 -10872.0712 1499.6106 0.0000 0.0000 1739.1215 -7622.9418 291.8678 -9362.0633 -7573.8898 301.6219 369.0552 484.3511 30637.8693 -377.1282 -296.5233
ENERGY: 600000 3.7523 4.4149 1.7095 0.0000 -10979.1448 1511.4150 0.0000 0.0000 1847.4079 -7610.4451 310.0410 -9457.8530 -7588.8109 303.1474 136.0161 173.4909 30663.4102 -382.4786 -315.6001
ENERGY: 900000 0.9428 8.3969 3.1391 0.0000 -10951.3410 1502.1530 0.0000 0.0000 1783.0190 -7653.6902 299.2349 -9436.7092 -7604.7226 301.8653 103.0492 157.8744 30545.7709 -201.8063 -140.3679
ENERGY: 1200000 1.7459 8.6225 0.8306 0.0000 -10896.8224 1530.4892 0.0000 0.0000 1774.6055 -7580.5287 297.8230 -9355.1342 -7593.6395 301.0962 677.1000 724.1034 30603.2780 -101.5088 -51.6923
ENERGY: 1500000 1.1621 5.6261 0.8032 0.0000 -10943.3764 1536.9241 0.0000 0.0000 1768.3465 -7630.5144 296.7725 -9398.8609 -7596.9516 300.8755 522.3406 605.6803 30789.6071 -102.6974 -49.2456
TCL: Running FEP window  12: Lambda1 0.5499999999999999 Lambda2 0.6    [dLambda 0.050000000000000044]
TCL: Setting parameter firsttimestep to 0
TCL: Setting parameter alchLambda to 0.5499999999999999
Info: NONBONDED TABLE R-SQUARED SPACING: 0.0625
Info: NONBONDED TABLE SIZE: 705 POINTS
TCL: Setting parameter alchLambda2 to 0.6
Info: NONBONDED TABLE R-SQUARED SPACING: 0.0625
Info: NONBONDED TABLE SIZE: 705 POINTS
TCL: Running for 1500000 steps
ETITLE: TS BOND ANGLE DIHED IMPRP ELECT VDW BOUNDARY MISC KINETIC TOTAL TEMP POTENTIAL TOTALAVG TEMPAVG PRESSURE GPRESSURE VOLUME PRESSAVG GPRESSAVG
ENERGY: 0 1.1621 5.6261 0.8032 0.0000 -10943.3764 1536.8406 0.0000 0.0000 1767.4493 -7631.4951 296.6220 -9398.9444 -7631.4951 296.6220 529.6091 612.7158 30789.6071 529.6091 612.7158
ENERGY: 300000 1.4552 5.5427 0.8337 0.0000 -10823.7422 1459.4075 0.0000 0.0000 1789.8895 -7566.6135 300.3880 -9356.5030 -7605.9370 303.4410 -133.4368 -32.7089 31008.5366 177.9570 250.1348
ENERGY: 600000 3.8866 9.2844 0.8584 0.0000 -10820.3003 1398.0681 0.0000 0.0000 1807.6545 -7600.5482 303.3694 -9408.2028 -7600.0929 302.9911 -631.6240 -579.9245 30773.5831 53.8666 122.0401
ENERGY: 900000 2.0037 9.7827 3.5660 0.0000 -10810.4619 1499.9890 0.0000 0.0000 1819.8238 -7475.2967 305.4117 -9295.1205 -7596.2901 300.5654 527.6681 599.9373 30759.4487 130.5316 195.4041
ENERGY: 1200000 2.3510 6.4772 1.9816 0.0000 -10771.4649 1430.8647 0.0000 0.0000 1762.5574 -7567.2330 295.8010 -9329.7904 -7599.6766 299.5943 97.1397 157.1749 30545.4879 100.6233 169.0448
ENERGY: 1500000 0.8228 7.8694 1.3356 0.0000 -10753.1718 1409.3434 0.0000 0.0000 1763.3785 -7570.4222 295.9388 -9333.8007 -7600.5022 300.0712 -324.1747 -203.4503 30906.4184 107.2384 167.7505
TCL: Running FEP window  13: Lambda1 0.6    Lambda2 0.65   [dLambda 0.050000000000000044]
TCL: Setting parameter firsttimestep to 0
TCL: Setting parameter alchLambda to 0.6
Info: NONBONDED TABLE R-SQUARED SPACING: 0.0625
Info: NONBONDED TABLE SIZE: 705 POINTS
TCL: Setting parameter alchLambda2 to 0.65
Info: NONBONDED TABLE R-SQUARED SPACING: 0.0625
Info: NONBONDED TABLE SIZE: 705 POINTS
TCL: Running for 1500000 steps
ETITLE: TS BOND ANGLE DIHED IMPRP ELECT VDW BOUNDARY MISC KINETIC TOTAL TEMP POTENTIAL TOTALAVG TEMPAVG PRESSURE GPRESSURE VOLUME PRESSAVG GPRESSAVG
ENERGY: 0 0.8228 7.8694 1.3356 0.0000 -10752.9145 1409.6720 0.0000 0.0000 1762.4488 -7570.7659 295.7828 -9333.2147 -7570.7659 295.7828 -273.3552 -189.6092 30906.4184 -273.3552 -189.6092
ENERGY: 300000 1.0355 3.2522 0.7812 0.0000 -10622.1146 1288.4051 0.0000 0.0000 1750.9938 -7577.6468 293.8603 -9328.6406 -7580.9052 297.6917 -1171.8472 -1135.7426 30804.7598 -263.5007 -218.5340
ENERGY: 600000 1.0346 9.5736 1.6568 0.0000 -10865.3530 1456.1880 0.0000 0.0000 1842.1757 -7554.7242 309.1629 -9396.9000 -7578.0363 300.5253 32.1777 110.7380 30569.7430 -64.4635 -9.6392
ENERGY: 900000 0.6177 6.8235 0.7095 0.0000 -10971.1257 1576.4827 0.0000 0.0000 1857.3812 -7529.1112 311.7148 -9386.4923 -7582.8750 301.8989 835.8882 887.9930 30769.9695 -29.3110 25.7573
ENERGY: 1200000 3.5367 12.3946 1.0069 0.0000 -10785.3863 1399.5507 0.0000 0.0000 1757.7029 -7611.1945 294.9863 -9368.8974 -7578.5688 300.7943 -449.7271 -374.8780 30758.7005 -152.1125 -96.5603
ENERGY: 1500000 2.1003 5.7371 3.0177 0.0000 -10837.6488 1424.0664 0.0000 0.0000 1761.4363 -7641.2910 295.6128 -9402.7274 -7586.3408 299.9605 -542.3484 -457.7550 31243.5485 -230.4640 -171.2185
TCL: Running FEP window  14: Lambda1 0.65   Lambda2 0.7000000000000001 [dLambda 0.050000000000000044]
TCL: Setting parameter firsttimestep to 0
TCL: Setting parameter alchLambda to 0.65
Info: NONBONDED TABLE R-SQUARED SPACING: 0.0625
Info: NONBONDED TABLE SIZE: 705 POINTS
TCL: Setting parameter alchLambda2 to 0.7000000000000001
Info: NONBONDED TABLE R-SQUARED SPACING: 0.0625
Info: NONBONDED TABLE SIZE: 705 POINTS
TCL: Running for 1500000 steps
ETITLE: TS BOND ANGLE DIHED IMPRP ELECT VDW BOUNDARY MISC KINETIC TOTAL TEMP POTENTIAL TOTALAVG TEMPAVG PRESSURE GPRESSURE VOLUME PRESSAVG GPRESSAVG
ENERGY: 0 2.1003 5.7370 3.0177 0.0000 -10838.1111 1424.3875 0.0000 0.0000 1760.5571 -7642.3113 295.4653 -9402.8685 -7642.3113 295.4653 -523.4522 -445.8422 31243.5485 -523.4522 -445.8422
ENERGY: 300000 2.0891 7.7913 3.5984 0.0000 -10704.9965 1360.3925 0.0000 0.0000 1812.1553 -7518.9700 304.1247 -9331.1252 -7609.9951 297.1241 -534.4000 -512.0249 30844.8087 -117.2533 -65.5790
ENERGY: 600000 2.3143 7.1994 1.9849 0.0000 -10865.3177 1452.9312 0.0000 0.0000 1786.7037 -7614.1842 299.8533 -9400.8879 -7615.1783 298.2465 89.6103 180.9717 30366.0345 -80.5103 -12.9822
ENERGY: 900000 1.9393 7.4538 0.7877 0.0000 -10844.9029 1464.9002 0.0000 0.0000 1836.6242 -7533.1976 308.2312 -9369.8219 -7615.0372 298.6806 207.8459 222.7647 30736.6579 -194.4631 -134.0665
ENERGY: 1200000 0.3676 11.2302 2.0726 0.0000 -10798.9441 1487.0160 0.0000 0.0000 1810.7718 -7487.4861 303.8925 -9298.2578 -7593.5109 300.8228 440.4523 513.6598 31031.7777 -78.4890 -12.6282
ENERGY: 1500000 1.7843 4.7229 2.1194 0.0000 -10682.3149 1305.6154 0.0000 0.0000 1764.5903 -7603.4826 296.1421 -9368.0728 -7596.8428 300.2269 -1425.3937 -1334.6796 31359.8596 -124.4397 -60.0377
TCL: Running FEP window  15: Lambda1 0.7000000000000001 Lambda2 0.7500000000000001 [dLambda 0.050000000000000044]
TCL: Setting parameter firsttimestep to 0
TCL: Setting parameter alchLambda to 0.7000000000000001
Info: NONBONDED TABLE R-SQUARED SPACING: 0.0625
Info: NONBONDED TABLE SIZE: 705 POINTS
TCL: Setting parameter alchLambda2 to 0.7500000000000001
Info: NONBONDED TABLE R-SQUARED SPACING: 0.0625
Info: NONBONDED TABLE SIZE: 705 POINTS
TCL: Running for 1500000 steps
ETITLE: TS BOND ANGLE DIHED IMPRP ELECT VDW BOUNDARY MISC KINETIC TOTAL TEMP POTENTIAL TOTALAVG TEMPAVG PRESSURE GPRESSURE VOLUME PRESSAVG GPRESSAVG
ENERGY: 0 1.7843 4.7229 2.1194 0.0000 -10682.7409 1305.3950 0.0000 0.0000 1763.7273 -7604.9919 295.9973 -9368.7193 -7604.9919 295.9973 -1433.8942 -1326.2988 31359.8596 -1433.8942 -1326.2988
ENERGY: 300000 0.6070 5.3257 0.9641 0.0000 -10980.2641 1571.2605 0.0000 0.0000 1773.2458 -7628.8609 297.5948 -9402.1067 -7627.3987 299.0747 1090.5039 1159.5636 30173.3046 168.5684 233.9883
ENERGY: 600000 4.4592 7.1354 1.1746 0.0000 -10740.7748 1439.0849 0.0000 0.0000 1853.3275 -7435.5932 311.0344 -9288.9207 -7589.2460 301.3978 -82.4997 -3.8221 31352.5367 27.4731 86.1387
ENERGY: 900000 2.9118 4.9787 0.8058 0.0000 -10879.1554 1528.0007 0.0000 0.0000 1805.1855 -7537.2728 302.9550 -9342.4583 -7571.0539 302.5174 435.7173 457.6582 31062.2263 -38.7698 17.6261
ENERGY: 1200000 2.8715 8.7660 2.1473 0.0000 -10848.3265 1471.9229 0.0000 0.0000 1759.3973 -7603.2214 295.2706 -9362.6188 -7580.8583 302.2107 176.5444 276.4092 30602.5433 -75.5662 -11.5801
ENERGY: 1500000 0.9266 5.5475 1.5740 0.0000 -10735.9941 1401.1213 0.0000 0.0000 1772.0139 -7554.8108 297.3880 -9326.8247 -7586.8185 300.9197 -183.6219 -82.6463 30639.5170 -43.8948 22.4274
TCL: Running FEP window  16: Lambda1 0.7500000000000001 Lambda2 0.8000000000000002 [dLambda 0.050000000000000044]
TCL: Setting parameter firsttimestep to 0
TCL: Setting parameter alchLambda to 0.7500000000000001
Info: NONBONDED TABLE R-SQUARED SPACING: 0.0625
Info: NONBONDED TABLE SIZE: 705 POINTS
TCL: Setting parameter alchLambda2 to 0.8000000000000002
Info: NONBONDED TABLE R-SQUARED SPACING: 0.0625
Info: NONBONDED TABLE SIZE: 705 POINTS
TCL: Running for 1500000 steps
ETITLE: TS BOND ANGLE DIHED IMPRP ELECT VDW BOUNDARY MISC KINETIC TOTAL TEMP POTENTIAL TOTALAVG TEMPAVG PRESSURE GPRESSURE VOLUME PRESSAVG GPRESSAVG
ENERGY: 0 0.9266 5.5475 1.5740 0.0000 -10736.5556 1401.1947 0.0000 0.0000 1771.0880 -7556.2248 297.2326 -9327.3128 -7556.2248 297.2326 -163.2530 -72.7953 30639.5170 -163.2530 -72.7953
ENERGY: 300000 3.2635 6.5767 0.9405 0.0000 -10805.5538 1376.8387 0.0000 0.0000 1782.2681 -7635.6664 299.1089 -9417.9344 -7584.1845 298.6966 -892.0819 -836.8573 31254.2837 -585.4629 -538.7704
ENERGY: 600000 2.1175 8.5050 1.1964 0.0000 -10889.2076 1508.6890 0.0000 0.0000 1830.3389 -7538.3608 307.1764 -9368.6996 -7587.3160 299.4721 749.4686 764.5957 30422.3923 -92.5343 -40.6521
ENERGY: 900000 3.3144 6.2090 3.6667 0.0000 -10847.2890 1461.2108 0.0000 0.0000 1779.4411 -7593.4471 298.6345 -9372.8881 -7580.6632 299.9262 330.6410 409.2679 30381.4808 -25.7526 33.4812
ENERGY: 1200000 1.3626 5.4682 2.4095 0.0000 -10738.1094 1363.1023 0.0000 0.0000 1841.7252 -7524.0415 309.0873 -9365.7667 -7576.1300 300.8310 -818.4120 -743.4525 31592.9074 -58.2852 4.7108
ENERGY: 1500000 3.3093 7.5447 1.3002 0.0000 -10662.3449 1333.6057 0.0000 0.0000 1777.5758 -7539.0091 298.3214 -9316.5849 -7574.9911 301.2426 -1037.6867 -966.1681 31117.9358 -149.8172 -87.7415
TCL: Running FEP window  17: Lambda1 0.8000000000000002 Lambda2 0.8500000000000002 [dLambda 0.050000000000000044]
TCL: Setting parameter firsttimestep to 0
TCL: Setting parameter alchLambda to 0.8000000000000002
Info: NONBONDED TABLE R-SQUARED SPACING: 0.0625
Info: NONBONDED TABLE SIZE: 705 POINTS
TCL: Setting parameter alchLambda2 to 0.8500000000000002
Info: NONBONDED TABLE R-SQUARED SPACING: 0.0625
Info: NONBONDED TABLE SIZE: 705 POINTS
TCL: Running for 1500000 steps
ETITLE: TS BOND ANGLE DIHED IMPRP ELECT VDW BOUNDARY MISC KINETIC TOTAL TEMP POTENTIAL TOTALAVG TEMPAVG PRESSURE GPRESSURE VOLUME PRESSAVG GPRESSAVG
ENERGY: 0 3.3093 7.5447 1.3002 0.0000 -10662.5728 1334.1856 0.0000 0.0000 1776.7044 -7539.5286 298.1752 -9316.2330 -7539.5286 298.1752 -1036.9674 -949.4075 31117.9358 -1036.9674 -949.4075
ENERGY: 300000 0.1747 7.3956 1.0375 0.0000 -10876.5628 1436.0194 0.0000 0.0000 1786.4822 -7645.4535 299.8162 -9431.9357 -7595.1253 299.6070 -175.8277 -216.7005 30686.6202 -189.7958 -140.2909
ENERGY: 600000 2.0494 6.5995 1.7659 0.0000 -10980.6459 1438.4721 0.0000 0.0000 1774.4881 -7757.2710 297.8032 -9531.7591 -7617.2376 297.5387 -483.8071 -486.4674 30819.7871 -364.0096 -327.7906
ENERGY: 900000 2.8173 6.3865 1.8306 0.0000 -10936.7378 1490.3136 0.0000 0.0000 1793.7138 -7641.6759 301.0298 -9435.3897 -7619.1161 297.9564 172.9979 245.3945 30948.5955 -264.1476 -219.1283
ENERGY: 1200000 1.8706 6.1348 1.0017 0.0000 -10825.0851 1467.8406 0.0000 0.0000 1782.1482 -7566.0891 299.0888 -9348.2373 -7619.5726 298.3454 -20.2587 78.1482 31025.8500 -322.1302 -264.4002
ENERGY: 1500000 0.3573 8.5874 1.3917 0.0000 -10874.3823 1461.4719 0.0000 0.0000 1817.4558 -7585.1183 305.0143 -9402.5741 -7616.9784 298.7692 32.3729 110.2953 30680.7538 -243.5581 -188.7667
TCL: Running FEP window  18: Lambda1 0.8500000000000002 Lambda2 0.9000000000000002 [dLambda 0.050000000000000044]
TCL: Setting parameter firsttimestep to 0
TCL: Setting parameter alchLambda to 0.8500000000000002
Info: NONBONDED TABLE R-SQUARED SPACING: 0.0625
Info: NONBONDED TABLE SIZE: 705 POINTS
TCL: Setting parameter alchLambda2 to 0.9000000000000002
Info: NONBONDED TABLE R-SQUARED SPACING: 0.0625
Info: NONBONDED TABLE SIZE: 705 POINTS
TCL: Running for 1500000 steps
ETITLE: TS BOND ANGLE DIHED IMPRP ELECT VDW BOUNDARY MISC KINETIC TOTAL TEMP POTENTIAL TOTALAVG TEMPAVG PRESSURE GPRESSURE VOLUME PRESSAVG GPRESSAVG
ENERGY: 0 0.3573 8.5874 1.3917 0.0000 -10874.8268 1461.1920 0.0000 0.0000 1816.5572 -7586.7412 304.8635 -9403.2984 -7586.7412 304.8635 27.2836 117.5389 30680.7538 27.2836 117.5389
ENERGY: 300000 4.9963 6.5209 1.3863 0.0000 -10919.8863 1508.6669 0.0000 0.0000 1766.4853 -7631.8307 296.4602 -9398.3160 -7591.1934 298.3363 375.4368 468.1665 30543.1276 -82.8771 -7.2511
ENERGY: 600000 2.5355 6.0928 1.8866 0.0000 -10783.3785 1402.0305 0.0000 0.0000 1746.3503 -7624.4828 293.0810 -9370.8331 -7598.0631 297.7971 -330.8885 -341.3689 30755.3563 -79.4130 -12.4999
ENERGY: 900000 2.2076 7.4038 1.1184 0.0000 -10767.8838 1423.2806 0.0000 0.0000 1819.3452 -7514.5281 305.3314 -9333.8733 -7591.8542 299.6383 -62.8467 -1.4971 30820.2886 -70.9026 -9.5566
ENERGY: 1200000 1.4493 10.4659 1.0054 0.0000 -10842.7273 1400.3476 0.0000 0.0000 1801.7282 -7627.7309 302.3748 -9429.4591 -7603.4928 299.1293 -474.8129 -455.3810 30929.1737 -49.3497 5.5659
ENERGY: 1500000 2.7223 6.6992 1.3152 0.0000 -10937.0262 1500.5773 0.0000 0.0000 1798.1555 -7627.5568 301.7752 -9425.7122 -7603.4130 299.7770 613.7835 581.0069 30553.0535 24.2490 76.5076
TCL: Running FEP window  19: Lambda1 0.9000000000000002 Lambda2 0.9500000000000003 [dLambda 0.050000000000000044]
TCL: Setting parameter firsttimestep to 0
TCL: Setting parameter alchLambda to 0.9000000000000002
Info: NONBONDED TABLE R-SQUARED SPACING: 0.0625
Info: NONBONDED TABLE SIZE: 705 POINTS
TCL: Setting parameter alchLambda2 to 0.9500000000000003
Info: NONBONDED TABLE R-SQUARED SPACING: 0.0625
Info: NONBONDED TABLE SIZE: 705 POINTS
TCL: Running for 1500000 steps
ETITLE: TS BOND ANGLE DIHED IMPRP ELECT VDW BOUNDARY MISC KINETIC TOTAL TEMP POTENTIAL TOTALAVG TEMPAVG PRESSURE GPRESSURE VOLUME PRESSAVG GPRESSAVG
ENERGY: 0 2.7223 6.6992 1.3152 0.0000 -10937.7258 1500.2201 0.0000 0.0000 1797.2560 -7629.5130 301.6243 -9426.7690 -7629.5130 301.6243 520.3630 585.5083 30553.0535 520.3630 585.5083
ENERGY: 300000 5.4626 11.1440 4.0573 0.0000 -10909.2046 1482.9916 0.0000 0.0000 1756.1983 -7649.3508 294.7338 -9405.5491 -7599.3532 301.0060 153.0704 239.6401 30702.0227 213.0338 307.9308
ENERGY: 600000 3.7583 8.4639 1.7636 0.0000 -10736.7451 1399.1194 0.0000 0.0000 1774.9666 -7548.6733 297.8836 -9323.6399 -7574.4275 301.1496 -354.5791 -301.7795 30818.8374 77.9928 167.4412
ENERGY: 900000 0.1398 8.5488 0.9293 0.0000 -10765.3395 1433.2441 0.0000 0.0000 1754.5878 -7567.8897 294.4635 -9322.4775 -7592.3976 299.2108 -84.3964 12.5682 30833.8872 55.9593 136.6231
ENERGY: 1200000 0.6727 3.3078 0.7053 0.0000 -10880.9243 1387.4527 0.0000 0.0000 1826.9785 -7661.8074 306.6124 -9488.7859 -7606.8857 299.1049 -795.4875 -789.3681 31096.5755 53.6053 129.9169
ENERGY: 1500000 0.6745 4.8893 0.5044 0.0000 -10877.8433 1440.1948 0.0000 0.0000 1759.5648 -7672.0154 295.2988 -9431.5802 -7613.2735 299.1561 -288.5940 -229.8589 30774.4109 26.9668 104.6397
TCL: Running FEP window  20: Lambda1 0.9500000000000003 Lambda2 1.0    [dLambda 0.04999999999999971]
TCL: Setting parameter firsttimestep to 0
TCL: Setting parameter alchLambda to 0.9500000000000003
Info: NONBONDED TABLE R-SQUARED SPACING: 0.0625
Info: NONBONDED TABLE SIZE: 705 POINTS
TCL: Setting parameter alchLambda2 to 1.0
Info: NONBONDED TABLE R-SQUARED SPACING: 0.0625
Info: NONBONDED TABLE SIZE: 705 POINTS
TCL: Running for 1500000 steps
ETITLE: TS BOND ANGLE DIHED IMPRP ELECT VDW BOUNDARY MISC KINETIC TOTAL TEMP POTENTIAL TOTALAVG TEMPAVG PRESSURE GPRESSURE VOLUME PRESSAVG GPRESSAVG
ENERGY: 0 0.6745 4.8893 0.5044 0.0000 -10878.1764 1440.2858 0.0000 0.0000 1758.6806 -7673.1417 295.1504 -9431.8224 -7673.1417 295.1504 -310.8210 -218.5682 30774.4109 -310.8210 -218.5682
ENERGY: 300000 1.8734 11.6843 1.2224 0.0000 -10853.3705 1462.6949 0.0000 0.0000 1809.7381 -7566.1575 303.7191 -9375.8956 -7638.6049 297.9550 48.1855 175.0574 30890.9400 -26.5912 63.9825
ENERGY: 600000 2.2972 6.5548 2.0783 0.0000 -10710.5452 1361.9653 0.0000 0.0000 1790.8374 -7546.8121 300.5471 -9337.6496 -7599.4297 298.7310 -487.9782 -373.5025 30902.8931 42.1698 113.7500
ENERGY: 900000 3.3587 8.5638 0.9536 0.0000 -10900.5067 1421.9028 0.0000 0.0000 1777.0862 -7688.6416 298.2393 -9465.7278 -7622.2214 298.4054 -572.9688 -513.0772 30831.4765 -64.2692 11.5797
ENERGY: 1200000 0.9084 8.8315 1.9782 0.0000 -10925.9496 1486.0438 0.0000 0.0000 1827.4886 -7600.6990 306.6981 -9428.1877 -7619.5590 299.3432 164.9465 221.0844 30789.3757 -23.6602 48.0076
ENERGY: 1500000 1.3093 4.8859 1.8574 0.0000 -10905.2983 1522.3050 0.0000 0.0000 1728.0055 -7646.9352 290.0023 -9374.9407 -7616.7921 299.2758 842.6032 908.7180 30422.3369 74.6375 141.7827
TCL: Exiting due to exit command.
