Info: SIMULATION PARAMETERS:
Info: TIMESTEP               2
Info: NUMBER OF STEPS        0
Info: STEPS PER CYCLE        10
Info: PERIODIC CELL BASIS 1  30.9381 0 0
Info: PERIODIC CELL BASIS 2  0 30.2961 0
Info: PERIODIC CELL BASIS 3  0 0 32.8915
Info: PERIODIC CELL CENTER   0 0 0
Info: WRAPPING WATERS AROUND PERIODIC BOUNDARIES ON OUTPUT.
Info: WRAPPING ALL CLUSTERS AROUND PERIODIC BOUNDARIES ON OUTPUT.
Info: FIRST LDB TIMESTEP     50
Info: LAST LDB TIMESTEP     -1
Info: HOM BACKGROUND SCALING 1
Info: PME BACKGROUND SCALING 1
Info: MIN ATOMS PER PATCH    40
Info: EMPTY PATCH LOAD       40 ATOMS
Info: VELOCITY FILE          mobley_4613090_equil.vel
Info: CENTER OF MASS MOVING INITIALLY? NO
Info: DIELECTRIC             1
Info: EXCLUDE                SCALED ONE-FOUR
Info: 1-4 ELECTROSTATICS SCALED BY 0.833333
Info: MODIFIED 1-4 VDW PARAMETERS WILL BE USED
Info: DCD FILENAME           mobley_4613090_prod.dcd
Info: DCD FREQUENCY          100000
Info: DCD FIRST STEP         100000
Info: DCD FILE WILL CONTAIN UNIT CELL DATA
Info: XST FILENAME           mobley_4613090_prod.xst
Info: XST FREQUENCY          100000
Info: NO VELOCITY DCD OUTPUT
Info: NO FORCE DCD OUTPUT
Info: OUTPUT FILENAME        mobley_4613090_prod
Info: BINARY OUTPUT FILES WILL BE USED
Info: RESTART FILENAME       mobley_4613090_prod.restart
Info: RESTART FREQUENCY      100000
Info: BINARY RESTART FILES WILL BE USED
Info: CUTOFF                 9
Info: PAIRLIST DISTANCE      11
Info: PAIRLIST SHRINK RATE   0.01
Info: PAIRLIST GROW RATE     0.01
Info: PAIRLIST TRIGGER       0.3
Info: PAIRLISTS PER CYCLE    2
Info: PAIRLISTS ENABLED
Info: MARGIN                 2
Info: HYDROGEN GROUP CUTOFF  2.5
Info: PATCH DIMENSION        15.5
Info: ENERGY OUTPUT STEPS    100000
Info: ENERGY EVALUATION STEPS    100000
Info: OUTPUT ENERGY PRECISION 4
Info: CROSSTERM ENERGY INCLUDED IN DIHEDRAL
Info: TIMING OUTPUT STEPS    1000000
Info: PRESSURE OUTPUT STEPS  100000
Info: ALCHEMICAL FEP ON
Info: FEP CURRENT LAMBDA VALUE     1
Info: FEP COMPARISON LAMBDA VALUE  0.95
Info: FEP INTRA-ALCHEMICAL NON-BONDED INTERACTIONS WILL BE RETAINED
Info: FEP INTRA-ALCHEMICAL BONDED INTERACTIONS WILL BE RETAINED
Info: FEP VDW SHIFTING COEFFICIENT 5
Info: FEP ELEC. ACTIVE FOR ANNIHILATED PARTICLES BETWEEN LAMBDA = 0 AND LAMBDA = 0.5
Info: FEP ELEC. ACTIVE FOR EXNIHILATED PARTICLES BETWEEN LAMBDA = 0.5 AND LAMBDA = 1
Info: FEP VDW ACTIVE FOR ANNIHILATED PARTICLES BETWEEN LAMBDA = 0 AND LAMBDA = 1
Info: FEP VDW ACTIVE FOR EXNIHILATED PARTICLES BETWEEN LAMBDA = 0 AND LAMBDA = 1
Info: FEP BOND ACTIVE FOR ANNIHILATED PARTICLES BETWEEN LAMBDA = 1 AND LAMBDA = 1
Info: FEP BOND ACTIVE FOR EXNIHILATED PARTICLES BETWEEN LAMBDA = 0 AND LAMBDA = 0
Info: LANGEVIN DYNAMICS ACTIVE
Info: LANGEVIN TEMPERATURE   300
Info: LANGEVIN USING BBK INTEGRATOR
Info: LANGEVIN DAMPING COEFFICIENT IS 1 INVERSE PS
Info: LANGEVIN DYNAMICS APPLIED TO HYDROGENS
Info: LANGEVIN PISTON PRESSURE CONTROL ACTIVE
Info:        TARGET PRESSURE IS 1.01325 BAR
Info:     OSCILLATION PERIOD IS 50 FS
Info:             DECAY TIME IS 25 FS
Info:     PISTON TEMPERATURE IS 300 K
Info:       PRESSURE CONTROL IS GROUP-BASED
Info:    INITIAL STRAIN RATE IS 1.42312e-05 1.42312e-05 1.42312e-05
Info:       CELL FLUCTUATION IS ISOTROPIC
Info: PARTICLE MESH EWALD (PME) ACTIVE
Info: PME TOLERANCE               1e-06
Info: PME EWALD COEFFICIENT       0.348832
Info: PME INTERPOLATION ORDER     4
Info: PME GRID DIMENSIONS         32 32 36
Info: PME MAXIMUM GRID SPACING    1
Info: PME CALCULATION WILL BE PERFORMED ON GPU
Info: FULL ELECTROSTATIC EVALUATION FREQUENCY      2
Info: USING VERLET I (r-RESPA) MTS SCHEME.
Info: C1 SPLITTING OF LONG RANGE ELECTROSTATICS
Info: PLACING ATOMS IN PATCHES BY HYDROGEN GROUPS
Info: RIGID BONDS TO HYDROGEN : ALL
Info:         ERROR TOLERANCE : 1e-08
Info:          MAX ITERATIONS : 100
Info: RIGID WATER USING SETTLE ALGORITHM
Info: RANDOM NUMBER SEED     1743881959
Info: USE HYDROGEN BONDS?    NO
Info: Using AMBER format force field!
Info: AMBER PARM FILE        mobley_4613090.prmtop
Info: COORDINATE PDB         mobley_4613090.pdb
Info: Exclusions will be read from PARM file!
Info: SCNB (VDW SCALING)     2
Info: USING ARITHMETIC MEAN TO COMBINE L-J SIGMA PARAMETERS
Info: BINARY COORDINATES     mobley_4613090_equil.coor
Info: SUMMARY OF PARAMETERS:
Info: 14 BONDS
Info: 19 ANGLES
Info:   19 HARMONIC
Info:   0 COSINE-BASED
Info: 6 DIHEDRAL
Info: 0 IMPROPER
Info: 0 CROSSTERM
Info: 0 VDW
Info: 45 VDW_PAIRS
Info: 0 NBTHOLE_PAIRS
Info: To read alchdata from file: mobley_4613090.pdb
Info: To read alchflag data from column: 5
Info: STRUCTURE SUMMARY:
Info: 2995 ATOMS
Info: 2996 BONDS
Info: 37 ANGLES
Info: 62 DIHEDRALS
Info: 0 IMPROPERS
Info: 0 CROSSTERMS
Info: 3077 EXCLUSIONS
Info: 2983 RIGID BONDS
Info: ALCH: 0 ATOMS TO DISAPPEAR IN FINAL STATE
Info: ALCH: 22 ATOMS TO APPEAR IN FINAL STATE
Info: 6002 DEGREES OF FREEDOM
Info: 1003 HYDROGEN GROUPS
Info: 3 ATOMS IN LARGEST HYDROGEN GROUP
Info: 1003 MIGRATION GROUPS
Info: 3 ATOMS IN LARGEST MIGRATION GROUP
Info: TOTAL MASS = 18012.1 amu
Info: TOTAL CHARGE = -9.99682e-05 e
Info: MASS DENSITY = 0.970192 g/cm^3
Info: ATOM DENSITY = 0.0971476 atoms/A^3
Info: ADDED 0 IMPLICIT EXCLUSIONS
Info: NONBONDED TABLE R-SQUARED SPACING: 0.0625
Info: NONBONDED TABLE SIZE: 705 POINTS
Info: REMOVING COM VELOCITY 0.0890585 0.0322211 0.193553
Info: Use 3D box decompostion in PME FFT.
Info: Updated CUDA force table with 4096 elements.
Info: Updated CUDA LJ table with 9 x 9 elements.
Info: Found 22 unique exclusion lists needing 68 bytes
TCL: Running for 1500000 steps
ETITLE: TS BOND ANGLE DIHED IMPRP ELECT VDW BOUNDARY MISC KINETIC TOTAL TEMP POTENTIAL TOTALAVG TEMPAVG PRESSURE GPRESSURE VOLUME PRESSAVG GPRESSAVG
ENERGY: 0 3.7745 9.6442 3.5961 0.0000 -10873.1181 1499.5081 0.0000 0.0000 1778.9011 -7577.6939 298.2952 -9356.5950 -7577.6939 298.2952 523.1538 601.1602 30829.3833 523.1538 601.1602
ENERGY: 300000 3.0556 5.1906 4.3435 0.0000 -10737.9952 1419.6921 0.0000 0.0000 1799.1173 -7506.5961 301.6851 -9305.7134 -7533.3747 301.2712 122.9385 160.6137 30394.6468 78.3252 141.0200
ENERGY: 600000 4.8584 9.8356 6.2271 0.0000 -10897.1342 1460.0811 0.0000 0.0000 1756.8759 -7659.2561 294.6019 -9416.1320 -7552.6498 299.4055 -252.6454 -150.6080 30706.6778 -226.3674 -152.2146
ENERGY: 900000 2.2830 6.5800 2.2979 0.0000 -10781.3976 1368.4572 0.0000 0.0000 1803.0905 -7598.6889 302.3513 -9401.7794 -7564.2505 298.8352 -902.5153 -802.2833 31139.2981 -304.0568 -232.8851
ENERGY: 1200000 7.2461 4.3943 2.9805 0.0000 -11049.7544 1544.7259 0.0000 0.0000 1840.9492 -7649.4584 308.6997 -9490.4076 -7580.2270 299.2231 410.4878 468.8660 30479.0695 -219.2178 -146.3865
ENERGY: 1500000 4.1909 6.6388 3.5452 0.0000 -10900.6733 1534.6805 0.0000 0.0000 1834.6299 -7516.9880 307.6400 -9351.6179 -7570.2258 300.1582 695.4825 753.7892 30890.1271 -213.2334 -142.1865
TCL: Running FEP window   2: Lambda1 0.95   Lambda2 0.8999999999999999 [dLambda -0.050000000000000044]
TCL: Setting parameter firsttimestep to 0
TCL: Setting parameter alchLambda to 0.95
Info: NONBONDED TABLE R-SQUARED SPACING: 0.0625
Info: NONBONDED TABLE SIZE: 705 POINTS
TCL: Setting parameter alchLambda2 to 0.8999999999999999
Info: NONBONDED TABLE R-SQUARED SPACING: 0.0625
Info: NONBONDED TABLE SIZE: 705 POINTS
TCL: Running for 1500000 steps
ETITLE: TS BOND ANGLE DIHED IMPRP ELECT VDW BOUNDARY MISC KINETIC TOTAL TEMP POTENTIAL TOTALAVG TEMPAVG PRESSURE GPRESSURE VOLUME PRESSAVG GPRESSAVG
ENERGY: 0 4.1909 6.6388 3.5452 0.0000 -10898.2685 1533.8228 0.0000 0.0000 1833.7681 -7516.3027 307.4955 -9350.0707 -7516.3027 307.4955 652.4682 732.3758 30890.1271 652.4682 732.3758
ENERGY: 300000 4.2473 5.5501 4.7827 0.0000 -10870.3975 1492.9672 0.0000 0.0000 1748.6073 -7614.2430 293.2153 -9362.8503 -7603.0497 298.4001 304.4813 413.2201 30852.0682 394.3802 472.8831
ENERGY: 600000 5.8055 6.6828 4.4675 0.0000 -10917.6409 1521.2796 0.0000 0.0000 1796.1111 -7583.2943 301.1810 -9379.4054 -7597.8875 298.3264 612.2905 620.0318 30587.3847 348.4355 411.9993
ENERGY: 900000 5.2789 6.2850 4.1480 0.0000 -10714.7846 1386.2605 0.0000 0.0000 1728.1995 -7584.6128 289.7933 -9312.8123 -7589.8196 297.8116 -453.0953 -384.6784 30997.1759 263.5991 335.4115
ENERGY: 1200000 1.6390 7.1610 6.3884 0.0000 -10873.6499 1429.9413 0.0000 0.0000 1786.8838 -7641.6364 299.6337 -9428.5202 -7597.0010 297.9140 -340.1560 -230.2034 30768.0518 247.3993 321.0705
ENERGY: 1500000 2.7035 7.2218 6.5104 0.0000 -10780.3500 1381.5184 0.0000 0.0000 1761.1927 -7621.2032 295.3257 -9382.3958 -7603.7388 298.2027 -747.7686 -671.8866 31062.2971 234.0029 303.6009
TCL: Running FEP window   3: Lambda1 0.8999999999999999 Lambda2 0.8499999999999999 [dLambda -0.050000000000000044]
TCL: Setting parameter firsttimestep to 0
TCL: Setting parameter alchLambda to 0.8999999999999999
Info: NONBONDED TABLE R-SQUARED SPACING: 0.0625
Info: NONBONDED TABLE SIZE: 705 POINTS
TCL: Setting parameter alchLambda2 to 0.8499999999999999
Info: NONBONDED TABLE R-SQUARED SPACING: 0.0625
Info: NONBONDED TABLE SIZE: 705 POINTS
TCL: Running for 1500000 steps
ETITLE: TS BOND ANGLE DIHED IMPRP ELECT VDW BOUNDARY MISC KINETIC TOTAL TEMP POTENTIAL TOTALAVG TEMPAVG PRESSURE GPRESSURE VOLUME PRESSAVG GPRESSAVG
ENERGY: 0 2.7035 7.2218 6.5104 0.0000 -10778.1974 1380.7709 0.0000 0.0000 1760.2983 -7620.6925 295.1757 -9380.9908 -7620.6925 295.1757 -769.5793 -692.9204 31062.2971 -769.5793 -692.9204
ENERGY: 300000 5.2841 6.4478 3.3876 0.0000 -10774.5151 1382.5797 0.0000 0.0000 1765.8713 -7610.9446 296.1102 -9376.8159 -7577.0975 299.4661 -531.8243 -502.4085 31200.8788 -493.6345 -446.3176
ENERGY: 600000 6.0518 7.5879 6.4067 0.0000 -10830.6469 1455.2966 0.0000 0.0000 1805.1676 -7550.1362 302.6996 -9355.3038 -7587.5382 299.2702 -209.1204 -159.3535 30931.6235 -266.3728 -214.8424
ENERGY: 900000 4.1235 10.5818 1.3308 0.0000 -10955.1798 1488.5125 0.0000 0.0000 1804.0725 -7646.5587 302.5160 -9450.6312 -7595.5526 299.9283 51.3555 100.2311 30747.2529 -301.2813 -245.1700
ENERGY: 1200000 2.9897 6.3257 5.7084 0.0000 -10751.6313 1429.5230 0.0000 0.0000 1775.8763 -7531.2080 297.7879 -9307.0844 -7581.7162 299.6184 -146.9068 -143.6563 31466.3519 -271.9506 -218.8717
ENERGY: 1500000 5.9655 6.5385 3.0476 0.0000 -10835.9695 1452.8903 0.0000 0.0000 1797.6473 -7569.8803 301.4386 -9367.5276 -7585.1253 299.6627 176.1406 272.6537 30711.0977 -214.9188 -153.9051
TCL: Running FEP window   4: Lambda1 0.8499999999999999 Lambda2 0.7999999999999998 [dLambda -0.050000000000000044]
TCL: Setting parameter firsttimestep to 0
TCL: Setting parameter alchLambda to 0.8499999999999999
Info: NONBONDED TABLE R-SQUARED SPACING: 0.0625
Info: NONBONDED TABLE SIZE: 705 POINTS
TCL: Setting parameter alchLambda2 to 0.7999999999999998
Info: NONBONDED TABLE R-SQUARED SPACING: 0.0625
Info: NONBONDED TABLE SIZE: 705 POINTS
TCL: Running for 1500000 steps
ETITLE: TS BOND ANGLE DIHED IMPRP ELECT VDW BOUNDARY MISC KINETIC TOTAL TEMP POTENTIAL TOTALAVG TEMPAVG PRESSURE GPRESSURE VOLUME PRESSAVG GPRESSAVG
ENERGY: 0 5.9655 6.5385 3.0476 0.0000 -10834.5709 1452.9665 0.0000 0.0000 1796.7731 -7569.2797 301.2920 -9366.0528 -7569.2797 301.2920 173.3924 262.1607 30711.0977 173.3924 262.1607
ENERGY: 300000 4.9446 6.5264 3.2681 0.0000 -10883.3001 1474.4503 0.0000 0.0000 1817.9472 -7576.1634 304.8426 -9394.1106 -7556.6930 304.5367 -225.3316 -146.5327 31265.2818 87.9308 139.0580
ENERGY: 600000 2.4220 8.1324 2.5150 0.0000 -10784.7804 1401.5975 0.0000 0.0000 1760.4012 -7609.7123 295.1930 -9370.1136 -7585.1922 302.2992 -480.1040 -381.0869 31301.8601 -63.7148 -11.2320
ENERGY: 900000 2.2057 5.8007 2.8432 0.0000 -10661.3027 1291.6223 0.0000 0.0000 1805.0241 -7553.8066 302.6756 -9358.8308 -7574.8514 303.2661 -1135.3060 -1066.5579 31074.7606 -188.4525 -125.7280
ENERGY: 1200000 7.0626 9.2762 3.5380 0.0000 -10799.5494 1386.8845 0.0000 0.0000 1793.3302 -7599.4579 300.7147 -9392.7880 -7590.1350 301.9624 -732.5552 -680.6531 30891.6437 -84.5931 -25.2123
ENERGY: 1500000 2.7484 7.3706 4.8047 0.0000 -10878.9997 1457.2402 0.0000 0.0000 1792.0340 -7614.8018 300.4974 -9406.8358 -7590.7943 301.8815 -125.8968 -39.5349 30978.4250 -113.5827 -52.2708
TCL: Running FEP window   5: Lambda1 0.7999999999999998 Lambda2 0.7499999999999998 [dLambda -0.050000000000000044]
TCL: Setting parameter firsttimestep to 0
TCL: Setting parameter alchLambda to 0.7999999999999998
Info: NONBONDED TABLE R-SQUARED SPACING: 0.0625
Info: NONBONDED TABLE SIZE: 705 POINTS
TCL: Setting parameter alchLambda2 to 0.7499999999999998
Info: NONBONDED TABLE R-SQUARED SPACING: 0.0625
Info: NONBONDED TABLE SIZE: 705 POINTS
TCL: Running for 1500000 steps
ETITLE: TS BOND ANGLE DIHED IMPRP ELECT VDW BOUNDARY MISC KINETIC TOTAL TEMP POTENTIAL TOTALAVG TEMPAVG PRESSURE GPRESSURE VOLUME PRESSAVG GPRESSAVG
ENERGY: 0 2.7484 7.3706 4.8046 0.0000 -10876.4494 1456.6897 0.0000 0.0000 1791.1281 -7613.7079 300.3454 -9404.8360 -7613.7079 300.3454 -139.7074 -56.9538 30978.4250 -139.7074 -56.9538
ENERGY: 300000 2.2592 8.1644 7.7445 0.0000 -10872.2918 1538.1804 0.0000 0.0000 1796.7002 -7519.2431 301.2798 -9315.9433 -7612.1686 296.3131 929.1659 1019.6237 30494.1237 217.7712 317.7246
ENERGY: 600000 2.3137 7.0210 4.5754 0.0000 -10768.0099 1371.2937 0.0000 0.0000 1797.3427 -7585.4635 301.3875 -9382.8062 -7599.9072 297.3182 -553.6619 -461.0768 30452.5877 -8.5812 87.1493
ENERGY: 900000 2.2287 4.9260 3.0697 0.0000 -10699.5959 1342.0690 0.0000 0.0000 1807.2752 -7540.0273 303.0531 -9347.3025 -7566.6832 299.4023 -528.1514 -457.2109 30855.3047 -72.5209 14.0253
ENERGY: 1200000 5.8214 8.4271 4.5374 0.0000 -10818.9342 1452.5542 0.0000 0.0000 1803.4796 -7544.1144 302.4166 -9347.5941 -7556.7845 299.7705 239.7921 320.5531 30523.3891 -1.1488 81.6038
ENERGY: 1500000 8.2685 4.3462 3.9497 0.0000 -10830.5744 1420.0527 0.0000 0.0000 1796.8654 -7597.0920 301.3075 -9393.9574 -7558.7377 299.8180 -422.6038 -401.7002 30779.5347 -83.6511 -8.3334
TCL: Running FEP window   6: Lambda1 0.7499999999999998 Lambda2 0.6999999999999997 [dLambda -0.050000000000000044]
TCL: Setting parameter firsttimestep to 0
TCL: Setting parameter alchLambda to 0.7499999999999998
Info: NONBONDED TABLE R-SQUARED SPACING: 0.0625
Info: NONBONDED TABLE SIZE: 705 POINTS
TCL: Setting parameter alchLambda2 to 0.6999999999999997
Info: NONBONDED TABLE R-SQUARED SPACING: 0.0625
Info: NONBONDED TABLE SIZE: 705 POINTS
TCL: Running for 1500000 steps
ETITLE: TS BOND ANGLE DIHED IMPRP ELECT VDW BOUNDARY MISC KINETIC TOTAL TEMP POTENTIAL TOTALAVG TEMPAVG PRESSURE GPRESSURE VOLUME PRESSAVG GPRESSAVG
ENERGY: 0 8.2685 4.3462 3.9497 0.0000 -10828.9865 1419.5498 0.0000 0.0000 1795.9668 -7596.9056 301.1568 -9392.8723 -7596.9056 301.1568 -495.9931 -419.5720 30779.5347 -495.9931 -419.5720
ENERGY: 300000 3.0127 7.3939 5.7064 0.0000 -10949.5792 1529.2309 0.0000 0.0000 1781.1539 -7623.0813 298.6729 -9404.2353 -7593.5503 298.8624 439.4293 510.8727 31014.5789 -45.3272 16.0968
ENERGY: 600000 5.6727 6.6356 4.3498 0.0000 -10987.2289 1570.8309 0.0000 0.0000 1743.2158 -7656.5240 292.3113 -9399.7399 -7582.7680 297.5398 839.8635 882.4689 30420.7365 87.0900 153.8021
ENERGY: 900000 3.4332 6.8824 3.2227 0.0000 -10810.8940 1490.4716 0.0000 0.0000 1812.1490 -7494.7350 303.8703 -9306.8841 -7566.2901 298.9609 40.5953 141.8474 31614.6095 33.7842 98.0068
ENERGY: 1200000 4.1380 5.0079 4.3671 0.0000 -10903.4524 1477.7826 0.0000 0.0000 1806.7269 -7605.4299 302.9611 -9412.1568 -7564.8919 298.9241 263.9313 347.6985 30467.3212 62.8972 131.3576
ENERGY: 1500000 5.0437 6.6965 7.2798 0.0000 -10910.0406 1487.9529 0.0000 0.0000 1827.0420 -7576.0258 306.3677 -9403.0678 -7554.0393 299.5069 -73.6227 47.8815 30599.0421 5.2306 81.6367
TCL: Running FEP window   7: Lambda1 0.6999999999999997 Lambda2 0.6499999999999997 [dLambda -0.050000000000000044]
TCL: Setting parameter firsttimestep to 0
TCL: Setting parameter alchLambda to 0.6999999999999997
Info: NONBONDED TABLE R-SQUARED SPACING: 0.0625
Info: NONBONDED TABLE SIZE: 705 POINTS
TCL: Setting parameter alchLambda2 to 0.6499999999999997
Info: NONBONDED TABLE R-SQUARED SPACING: 0.0625
Info: NONBONDED TABLE SIZE: 705 POINTS
TCL: Running for 1500000 steps
ETITLE: TS BOND ANGLE DIHED IMPRP ELECT VDW BOUNDARY MISC KINETIC TOTAL TEMP POTENTIAL TOTALAVG TEMPAVG PRESSURE GPRESSURE VOLUME PRESSAVG GPRESSAVG
ENERGY: 0 5.0437 6.6965 7.2798 0.0000 -10908.9801 1488.6226 0.0000 0.0000 1826.1144 -7575.2231 306.2121 -9401.3375 -7575.2231 306.2121 -39.0930 44.3779 30599.0421 -39.0930 44.3779
ENERGY: 300000 5.5049 7.5475 2.9411 0.0000 -10776.2240 1403.8289 0.0000 0.0000 1857.8154 -7498.5862 311.5279 -9356.4016 -7542.5302 306.8370 -257.8462 -249.3552 30837.8061 -82.9782 -46.1589
ENERGY: 600000 5.2039 8.1755 1.8503 0.0000 -10814.4077 1423.7569 0.0000 0.0000 1781.2315 -7594.1896 298.6859 -9375.4210 -7564.6896 303.6262 -603.3235 -542.2273 31303.0778 -191.9897 -128.0057
ENERGY: 900000 3.8015 6.7085 3.2935 0.0000 -10857.5483 1464.0843 0.0000 0.0000 1737.1087 -7642.5519 291.2872 -9379.6606 -7561.4423 300.8515 -270.8665 -110.7529 31035.1850 -143.5100 -70.2994
ENERGY: 1200000 4.0557 7.9997 7.1147 0.0000 -10887.0198 1530.7761 0.0000 0.0000 1774.0487 -7563.0249 297.4815 -9337.0735 -7561.1760 300.6320 454.0179 466.8730 30956.9150 -153.1843 -82.3809
ENERGY: 1500000 6.8822 8.8878 3.7032 0.0000 -10968.4834 1537.9396 0.0000 0.0000 1787.2696 -7623.8010 299.6984 -9411.0706 -7556.3461 301.4690 639.1945 733.2629 30122.4346 -50.9854 15.9964
TCL: Running FEP window   8: Lambda1 0.6499999999999997 Lambda2 0.5999999999999996 [dLambda -0.050000000000000044]
TCL: Setting parameter firsttimestep to 0
TCL: Setting parameter alchLambda to 0.6499999999999997
Info: NONBONDED TABLE R-SQUARED SPACING: 0.0625
Info: NONBONDED TABLE SIZE: 705 POINTS
TCL: Setting parameter alchLambda2 to 0.5999999999999996
Info: NONBONDED TABLE R-SQUARED SPACING: 0.0625
Info: NONBONDED TABLE SIZE: 705 POINTS
TCL: Running for 1500000 steps
ETITLE: TS BOND ANGLE DIHED IMPRP ELECT VDW BOUNDARY MISC KINETIC TOTAL TEMP POTENTIAL TOTALAVG TEMPAVG PRESSURE GPRESSURE VOLUME PRESSAVG GPRESSAVG
ENERGY: 0 6.8822 8.8878 3.7032 0.0000 -10967.5337 1537.6209 0.0000 0.0000 1786.3667 -7624.0729 299.5470 -9410.4396 -7624.0729 299.5470 645.7600 718.9452 30122.4346 645.7600 718.9452
ENERGY: 300000 4.0993 11.1829 4.2822 0.0000 -10860.4289 1487.0656 0.0000 0.0000 1721.2391 -7632.5598 288.6261 -9353.7989 -7566.4857 300.8007 258.7343 329.0136 30708.2641 327.9957 390.9623
ENERGY: 600000 4.9142 7.3491 3.2735 0.0000 -10856.5105 1428.4026 0.0000 0.0000 1806.1656 -7606.4055 302.8670 -9412.5711 -7558.8404 301.9800 -539.0660 -468.6105 31055.4532 271.1312 328.4808
ENERGY: 900000 4.8764 4.7988 4.1536 0.0000 -10890.9432 1513.8549 0.0000 0.0000 1800.1475 -7563.1120 301.8579 -9363.2595 -7550.2318 302.0449 728.8228 766.3327 30729.8058 255.0624 311.7799
ENERGY: 1200000 4.0771 4.7211 4.7317 0.0000 -10777.7293 1433.5888 0.0000 0.0000 1807.8343 -7522.7763 303.1468 -9330.6106 -7545.7650 302.1914 -327.5649 -205.7143 31074.6289 313.3469 379.2704
ENERGY: 1500000 2.9761 3.3694 5.2736 0.0000 -10855.1505 1502.4497 0.0000 0.0000 1766.1533 -7574.9284 296.1575 -9341.0816 -7556.9831 301.2799 689.2202 717.3374 30393.6948 343.8390 403.9288
TCL: Running FEP window   9: Lambda1 0.5999999999999996 Lambda2 0.5499999999999996 [dLambda -0.050000000000000044]
TCL: Setting parameter firsttimestep to 0
TCL: Setting parameter alchLambda to 0.5999999999999996
Info: NONBONDED TABLE R-SQUARED SPACING: 0.0625
Info: NONBONDED TABLE SIZE: 705 POINTS
TCL: Setting parameter alchLambda2 to 0.5499999999999996
Info: NONBONDED TABLE R-SQUARED SPACING: 0.0625
Info: NONBONDED TABLE SIZE: 705 POINTS
TCL: Running for 1500000 steps
ETITLE: TS BOND ANGLE DIHED IMPRP ELECT VDW BOUNDARY MISC KINETIC TOTAL TEMP POTENTIAL TOTALAVG TEMPAVG PRESSURE GPRESSURE VOLUME PRESSAVG GPRESSAVG
ENERGY: 0 2.9761 3.3694 5.2736 0.0000 -10854.4068 1502.9529 0.0000 0.0000 1765.2783 -7574.5565 296.0108 -9339.8348 -7574.5565 296.0108 640.3618 713.0721 30393.6948 640.3618 713.0721
ENERGY: 300000 3.7167 5.9368 2.8377 0.0000 -10706.5574 1347.2989 0.0000 0.0000 1780.1240 -7566.6433 298.5002 -9346.7673 -7552.0240 300.1016 -829.0378 -749.7484 31025.7841 -17.8342 33.7748
ENERGY: 600000 3.8596 11.4276 5.0728 0.0000 -10897.0291 1552.6620 0.0000 0.0000 1802.3556 -7521.6516 302.2281 -9324.0071 -7543.3630 301.1954 880.5359 906.8538 31138.8166 219.7250 268.2280
ENERGY: 900000 2.2594 8.3124 7.1331 0.0000 -10763.7382 1450.7691 0.0000 0.0000 1836.2212 -7459.0429 307.9069 -9295.2642 -7541.9718 300.7614 131.1570 173.6741 30987.7390 124.4961 187.9206
ENERGY: 1200000 2.3703 10.4366 5.0632 0.0000 -10784.5474 1439.1198 0.0000 0.0000 1823.0425 -7504.5151 305.6970 -9327.5576 -7546.5712 300.4355 -171.1096 -126.4306 31057.8234 28.5106 93.7002
ENERGY: 1500000 2.4465 6.3482 3.2643 0.0000 -10879.0946 1492.6101 0.0000 0.0000 1827.7918 -7546.6336 306.4934 -9374.4255 -7551.8235 300.7265 576.9389 638.0432 30106.3554 -44.1796 19.7856
TCL: Running FEP window  10: Lambda1 0.5499999999999996 Lambda2 0.4999999999999996 [dLambda -0.04999999999999999]
TCL: Setting parameter firsttimestep to 0
TCL: Setting parameter alchLambda to 0.5499999999999996
Info: NONBONDED TABLE R-SQUARED SPACING: 0.0625
Info: NONBONDED TABLE SIZE: 705 POINTS
TCL: Setting parameter alchLambda2 to 0.4999999999999996
Info: NONBONDED TABLE R-SQUARED SPACING: 0.0625
Info: NONBONDED TABLE SIZE: 705 POINTS
TCL: Running for 1500000 steps
ETITLE: TS BOND ANGLE DIHED IMPRP ELECT VDW BOUNDARY MISC KINETIC TOTAL TEMP POTENTIAL TOTALAVG TEMPAVG PRESSURE GPRESSURE VOLUME PRESSAVG GPRESSAVG
ENERGY: 0 2.4465 6.3482 3.2643 0.0000 -10878.0749 1492.9388 0.0000 0.0000 1826.9150 -7546.1620 306.3464 -9373.0770 -7546.1620 306.3464 543.9703 634.2255 30106.3554 543.9703 634.2255
ENERGY: 300000 3.7227 8.0423 5.5928 0.0000 -10761.0328 1472.6491 0.0000 0.0000 1836.8219 -7434.2041 308.0076 -9271.0259 -7533.3434 302.2242 247.0523 204.8121 31358.8010 156.5701 185.6760
ENERGY: 600000 3.6464 6.0930 6.8027 0.0000 -10896.4611 1491.3048 0.0000 0.0000 1825.8408 -7562.7734 306.1662 -9388.6141 -7543.5415 304.2257 75.5555 138.3794 30748.7645 79.1909 125.0993
ENERGY: 900000 3.1913 6.9942 3.6469 0.0000 -10804.5471 1430.6136 0.0000 0.0000 1752.3908 -7607.7102 293.8498 -9360.1010 -7555.6099 302.8005 70.6696 98.0215 30627.8366 126.1882 175.8050
ENERGY: 1200000 4.0025 5.9111 1.8711 0.0000 -11070.2558 1570.2466 0.0000 0.0000 1762.8831 -7725.3415 295.6092 -9488.2245 -7573.4912 301.8976 625.4102 679.0149 30648.9310 61.2953 109.8970
ENERGY: 1500000 5.1505 4.9767 7.2268 0.0000 -10622.9270 1345.7921 0.0000 0.0000 1792.8440 -7466.9369 300.6332 -9259.7809 -7563.4281 301.5152 -840.2652 -710.4615 30916.9986 60.6083 113.3352
TCL: Running FEP window  11: Lambda1 0.4999999999999996 Lambda2 0.4499999999999996 [dLambda -0.04999999999999999]
TCL: Setting parameter firsttimestep to 0
TCL: Setting parameter alchLambda to 0.4999999999999996
Info: NONBONDED TABLE R-SQUARED SPACING: 0.0625
Info: NONBONDED TABLE SIZE: 705 POINTS
TCL: Setting parameter alchLambda2 to 0.4499999999999996
Info: NONBONDED TABLE R-SQUARED SPACING: 0.0625
Info: NONBONDED TABLE SIZE: 705 POINTS
TCL: Running for 1500000 steps
ETITLE: TS BOND ANGLE DIHED IMPRP ELECT VDW BOUNDARY MISC KINETIC TOTAL TEMP POTENTIAL TOTALAVG TEMPAVG PRESSURE GPRESSURE VOLUME PRESSAVG GPRESSAVG
ENERGY: 0 5.1505 4.9767 7.2268 0.0000 -10622.9182 1345.7511 0.0000 0.0000 1791.9638 -7467.8493 300.4856 -9259.8131 -7467.8493 300.4856 -812.4835 -717.6771 30916.9986 -812.4835 -717.6771
ENERGY: 300000 1.3033 4.9839 4.3901 0.0000 -10705.8132 1440.0021 0.0000 0.0000 1802.3873 -7452.7465 302.2334 -9255.1338 -7529.3877 300.2457 219.5478 263.3824 31004.8651 -476.4818 -411.1967
ENERGY: 600000 2.1961 6.1861 5.2306 0.0000 -10835.5430 1485.2393 0.0000 0.0000 1759.3533 -7577.3375 295.0173 -9336.6908 -7534.2432 301.5430 143.1903 162.4649 30851.9998 -220.8852 -164.8609
ENERGY: 900000 4.8898 7.6865 7.5199 0.0000 -10849.8033 1441.7681 0.0000 0.0000 1818.5702 -7569.3689 304.9471 -9387.9391 -7538.7203 302.0670 -236.5681 -165.6671 30701.5849 -185.1410 -138.6611
ENERGY: 1200000 1.7900 7.4497 0.9531 0.0000 -10809.9708 1433.5687 0.0000 0.0000 1759.2641 -7606.9453 295.0023 -9366.2094 -7556.3978 300.2562 -83.1318 -8.4521 30770.8115 -174.5087 -120.3056
ENERGY: 1500000 1.1416 6.8123 8.3449 0.0000 -10702.3995 1391.0797 0.0000 0.0000 1792.5221 -7502.4989 300.5792 -9295.0210 -7548.0161 300.5612 -335.5430 -292.4047 30727.8790 -259.0313 -207.4057
TCL: Running FEP window  12: Lambda1 0.4499999999999996 Lambda2 0.39999999999999963 [dLambda -0.04999999999999999]
TCL: Setting parameter firsttimestep to 0
TCL: Setting parameter alchLambda to 0.4499999999999996
Info: NONBONDED TABLE R-SQUARED SPACING: 0.0625
Info: NONBONDED TABLE SIZE: 705 POINTS
TCL: Setting parameter alchLambda2 to 0.39999999999999963
Info: NONBONDED TABLE R-SQUARED SPACING: 0.0625
Info: NONBONDED TABLE SIZE: 705 POINTS
TCL: Running for 1500000 steps
ETITLE: TS BOND ANGLE DIHED IMPRP ELECT VDW BOUNDARY MISC KINETIC TOTAL TEMP POTENTIAL TOTALAVG TEMPAVG PRESSURE GPRESSURE VOLUME PRESSAVG GPRESSAVG
ENERGY: 0 1.1416 6.8123 8.3449 0.0000 -10702.3994 1391.5553 0.0000 0.0000 1791.5702 -7502.9750 300.4196 -9294.5453 -7502.9750 300.4196 -386.6048 -294.9612 30727.8790 -386.6048 -294.9612
ENERGY: 300000 4.3821 5.3535 6.2282 0.0000 -10667.8734 1373.8682 0.0000 0.0000 1800.7198 -7477.3217 301.9538 -9278.0415 -7486.7571 301.3534 -420.6037 -398.0877 30755.8086 96.0414 149.3748
ENERGY: 600000 2.5413 8.2847 5.0835 0.0000 -10879.9029 1445.0961 0.0000 0.0000 1757.9247 -7660.9726 294.7777 -9418.8973 -7555.8344 300.0029 -232.6534 -139.8149 30822.6751 170.9140 234.6541
ENERGY: 900000 6.8673 6.5411 6.0292 0.0000 -10804.7661 1479.4571 0.0000 0.0000 1809.1495 -7496.7219 303.3674 -9305.8714 -7548.4255 300.7983 384.6802 427.6881 30829.0204 72.8117 122.8107
ENERGY: 1200000 7.3989 9.3018 3.9323 0.0000 -10776.9225 1464.4309 0.0000 0.0000 1756.7862 -7535.0723 294.5868 -9291.8585 -7549.3572 300.6279 83.3247 155.5143 30782.4495 66.8790 114.2669
ENERGY: 1500000 2.4190 10.5326 3.1293 0.0000 -10882.4226 1557.1473 0.0000 0.0000 1765.2659 -7543.9286 296.0087 -9309.1945 -7548.6544 299.9171 780.1952 863.7399 30829.7890 92.2230 141.6623
TCL: Running FEP window  13: Lambda1 0.39999999999999963 Lambda2 0.34999999999999964 [dLambda -0.04999999999999999]
TCL: Setting parameter firsttimestep to 0
TCL: Setting parameter alchLambda to 0.39999999999999963
Info: NONBONDED TABLE R-SQUARED SPACING: 0.0625
Info: NONBONDED TABLE SIZE: 705 POINTS
TCL: Setting parameter alchLambda2 to 0.34999999999999964
Info: NONBONDED TABLE R-SQUARED SPACING: 0.0625
Info: NONBONDED TABLE SIZE: 705 POINTS
TCL: Running for 1500000 steps
ETITLE: TS BOND ANGLE DIHED IMPRP ELECT VDW BOUNDARY MISC KINETIC TOTAL TEMP POTENTIAL TOTALAVG TEMPAVG PRESSURE GPRESSURE VOLUME PRESSAVG GPRESSAVG
ENERGY: 0 2.4190 10.5326 3.1293 0.0000 -10882.4222 1557.7884 0.0000 0.0000 1764.3368 -7544.2162 295.8529 -9308.5530 -7544.2162 295.8529 777.7983 864.8317 30829.7890 777.7983 864.8317
ENERGY: 300000 5.7924 5.8996 3.2563 0.0000 -10684.9444 1328.0996 0.0000 0.0000 1746.4480 -7595.4486 292.8532 -9341.8966 -7549.8581 296.2802 -934.8024 -891.3019 30673.5756 93.9770 179.4889
ENERGY: 600000 3.6507 6.7088 3.6200 0.0000 -10656.8435 1350.7392 0.0000 0.0000 1797.0728 -7495.0521 301.3423 -9292.1249 -7536.7724 298.5497 -464.4813 -439.8525 30967.1914 -128.7815 -61.1182
ENERGY: 900000 5.0169 7.1954 4.1574 0.0000 -10808.1490 1430.6328 0.0000 0.0000 1782.1721 -7578.9744 298.8436 -9361.1465 -7556.9734 297.5733 -337.0226 -358.4041 30781.6371 -216.4388 -154.7341
ENERGY: 1200000 5.0498 5.2211 1.9868 0.0000 -10920.9173 1471.7951 0.0000 0.0000 1756.7285 -7680.1359 294.5771 -9436.8644 -7566.9266 298.4028 130.7488 164.8156 30345.1172 -167.4594 -101.4038
ENERGY: 1500000 5.7387 7.0374 5.1983 0.0000 -10797.2311 1421.4342 0.0000 0.0000 1777.6953 -7580.1272 298.0930 -9357.8224 -7566.8349 298.7964 -301.9103 -249.1317 30644.2671 -183.0029 -125.9377
TCL: Running FEP window  14: Lambda1 0.34999999999999964 Lambda2 0.29999999999999966 [dLambda -0.04999999999999999]
TCL: Setting parameter firsttimestep to 0
TCL: Setting parameter alchLambda to 0.34999999999999964
Info: NONBONDED TABLE R-SQUARED SPACING: 0.0625
Info: NONBONDED TABLE SIZE: 705 POINTS
TCL: Setting parameter alchLambda2 to 0.29999999999999966
Info: NONBONDED TABLE R-SQUARED SPACING: 0.0625
Info: NONBONDED TABLE SIZE: 705 POINTS
TCL: Running for 1500000 steps
ETITLE: TS BOND ANGLE DIHED IMPRP ELECT VDW BOUNDARY MISC KINETIC TOTAL TEMP POTENTIAL TOTALAVG TEMPAVG PRESSURE GPRESSURE VOLUME PRESSAVG GPRESSAVG
ENERGY: 0 5.7387 7.0374 5.1983 0.0000 -10797.2302 1421.8799 0.0000 0.0000 1776.8293 -7580.5466 297.9477 -9357.3759 -7580.5466 297.9477 -348.0038 -251.8974 30644.2671 -348.0038 -251.8974
ENERGY: 300000 3.7753 5.0749 7.5474 0.0000 -10819.2288 1497.7729 0.0000 0.0000 1762.3316 -7542.7268 295.5167 -9305.0584 -7557.4711 297.0192 411.4878 460.0517 30766.0618 3.7510 85.8948
ENERGY: 600000 4.9784 11.5582 2.3039 0.0000 -10972.8357 1556.1849 0.0000 0.0000 1778.7704 -7619.0398 298.2732 -9397.8102 -7572.1720 297.8422 780.5561 826.6195 30550.7667 74.9196 142.5778
ENERGY: 900000 2.7363 6.0275 4.7018 0.0000 -10878.0081 1456.6441 0.0000 0.0000 1771.0312 -7636.8673 296.9755 -9407.8984 -7574.9398 298.4351 -165.2290 -102.2397 30555.5393 78.3128 135.8926
ENERGY: 1200000 4.1189 8.9631 3.3699 0.0000 -10830.1123 1468.4293 0.0000 0.0000 1817.9845 -7527.2466 304.8489 -9345.2311 -7564.2444 298.9831 106.8447 173.7568 30584.2647 86.5709 145.2986
ENERGY: 1500000 4.3759 5.3302 5.7842 0.0000 -10759.5386 1444.8887 0.0000 0.0000 1732.2771 -7566.8826 290.4770 -9299.1596 -7567.1655 298.0930 40.9785 108.7110 30790.9599 48.9903 110.0591
TCL: Running FEP window  15: Lambda1 0.29999999999999966 Lambda2 0.24999999999999967 [dLambda -0.04999999999999999]
TCL: Setting parameter firsttimestep to 0
TCL: Setting parameter alchLambda to 0.29999999999999966
Info: NONBONDED TABLE R-SQUARED SPACING: 0.0625
Info: NONBONDED TABLE SIZE: 705 POINTS
TCL: Setting parameter alchLambda2 to 0.24999999999999967
Info: NONBONDED TABLE R-SQUARED SPACING: 0.0625
Info: NONBONDED TABLE SIZE: 705 POINTS
TCL: Running for 1500000 steps
ETITLE: TS BOND ANGLE DIHED IMPRP ELECT VDW BOUNDARY MISC KINETIC TOTAL TEMP POTENTIAL TOTALAVG TEMPAVG PRESSURE GPRESSURE VOLUME PRESSAVG GPRESSAVG
ENERGY: 0 4.3759 5.3302 5.7842 0.0000 -10759.5390 1445.1556 0.0000 0.0000 1731.4007 -7567.4924 290.3300 -9298.8931 -7567.4924 290.3300 23.8302 102.4039 30790.9599 23.8302 102.4039
ENERGY: 300000 3.4701 5.5409 3.2304 0.0000 -10797.5700 1469.2363 0.0000 0.0000 1777.6566 -7538.4357 298.0865 -9316.0922 -7542.2623 299.8911 330.0445 346.3772 30362.9862 54.6365 100.0553
ENERGY: 600000 4.2325 6.6113 6.7306 0.0000 -10740.8454 1420.1212 0.0000 0.0000 1775.9880 -7527.1619 297.8067 -9303.1499 -7525.3497 300.6913 -136.6550 -60.7777 30426.5494 27.1551 97.3985
ENERGY: 900000 4.9613 5.7491 4.0067 0.0000 -10890.1423 1481.0547 0.0000 0.0000 1807.9524 -7586.4181 303.1666 -9394.3704 -7536.0960 303.0002 -175.2532 -144.7650 30968.2255 24.0279 95.9610
ENERGY: 1200000 5.0341 4.5374 6.0248 0.0000 -10854.9434 1486.1170 0.0000 0.0000 1736.1543 -7617.0757 291.1272 -9353.2301 -7541.9102 301.3602 -11.3601 34.5220 30597.9467 -69.1926 -1.0491
ENERGY: 1500000 5.6982 5.4666 6.7208 0.0000 -10836.7065 1471.1364 0.0000 0.0000 1763.8121 -7583.8724 295.7649 -9347.6845 -7542.2214 301.0671 -19.3806 63.0824 30888.0352 -60.3389 7.7673
TCL: Running FEP window  16: Lambda1 0.24999999999999967 Lambda2 0.19999999999999968 [dLambda -0.04999999999999999]
TCL: Setting parameter firsttimestep to 0
TCL: Setting parameter alchLambda to 0.24999999999999967
Info: NONBONDED TABLE R-SQUARED SPACING: 0.0625
Info: NONBONDED TABLE SIZE: 705 POINTS
TCL: Setting parameter alchLambda2 to 0.19999999999999968
Info: NONBONDED TABLE R-SQUARED SPACING: 0.0625
Info: NONBONDED TABLE SIZE: 705 POINTS
TCL: Running for 1500000 steps
ETITLE: TS BOND ANGLE DIHED IMPRP ELECT VDW BOUNDARY MISC KINETIC TOTAL TEMP POTENTIAL TOTALAVG TEMPAVG PRESSURE GPRESSURE VOLUME PRESSAVG GPRESSAVG
ENERGY: 0 5.6982 5.4666 6.7208 0.0000 -10836.7071 1471.7206 0.0000 0.0000 1762.9229 -7584.1780 295.6158 -9347.1009 -7584.1780 295.6158 -10.3811 60.9686 30888.0352 -10.3811 60.9686
ENERGY: 300000 4.5227 3.8883 4.0799 0.0000 -10674.3771 1392.1538 0.0000 0.0000 1756.9298 -7512.8026 294.6109 -9269.7324 -7546.2733 300.4012 -536.4814 -490.8451 31122.1819 -275.4586 -213.2259
ENERGY: 600000 3.5056 9.6889 3.0499 0.0000 -10980.8175 1538.9426 0.0000 0.0000 1881.3258 -7544.3046 315.4702 -9425.6305 -7545.0259 303.7584 570.4982 572.9832 30470.7882 -93.1687 -50.6088
ENERGY: 900000 4.5256 7.5438 3.5802 0.0000 -10709.5322 1409.7148 0.0000 0.0000 1820.2677 -7463.9000 305.2317 -9284.1677 -7532.6180 303.6698 -392.6577 -333.8644 30783.0047 -45.9564 0.1353
ENERGY: 1200000 5.0630 7.0694 6.5471 0.0000 -10735.5333 1440.1893 0.0000 0.0000 1774.1615 -7502.5031 297.5004 -9276.6646 -7543.9872 302.7338 -159.1092 -102.4892 31257.4474 -77.1398 -30.4916
ENERGY: 1500000 5.7376 8.9332 3.4932 0.0000 -10790.1654 1448.8393 0.0000 0.0000 1751.4133 -7571.7487 293.6859 -9323.1620 -7543.9494 302.3648 -219.7407 -142.7142 30968.7379 -83.6495 -32.6184
TCL: Running FEP window  17: Lambda1 0.19999999999999968 Lambda2 0.1499999999999997 [dLambda -0.04999999999999999]
TCL: Setting parameter firsttimestep to 0
TCL: Setting parameter alchLambda to 0.19999999999999968
Info: NONBONDED TABLE R-SQUARED SPACING: 0.0625
Info: NONBONDED TABLE SIZE: 705 POINTS
TCL: Setting parameter alchLambda2 to 0.1499999999999997
Info: NONBONDED TABLE R-SQUARED SPACING: 0.0625
Info: NONBONDED TABLE SIZE: 705 POINTS
TCL: Running for 1500000 steps
ETITLE: TS BOND ANGLE DIHED IMPRP ELECT VDW BOUNDARY MISC KINETIC TOTAL TEMP POTENTIAL TOTALAVG TEMPAVG PRESSURE GPRESSURE VOLUME PRESSAVG GPRESSAVG
ENERGY: 0 5.7376 8.9332 3.4932 0.0000 -10790.1653 1449.1657 0.0000 0.0000 1750.5695 -7572.2661 293.5444 -9322.8356 -7572.2661 293.5444 -235.1981 -146.9014 30968.7379 -235.1981 -146.9014
ENERGY: 300000 2.8012 5.4551 3.4836 0.0000 -10849.2520 1468.3433 0.0000 0.0000 1729.7135 -7639.4553 290.0471 -9369.1688 -7572.5126 297.6399 -18.6466 39.1378 30695.3517 -47.3414 28.5456
ENERGY: 600000 2.6274 10.0066 6.9805 0.0000 -10859.9956 1488.6661 0.0000 0.0000 1768.9084 -7582.8067 296.6195 -9351.7151 -7571.6653 298.0036 272.7692 329.4485 30600.5856 207.8239 268.0185
ENERGY: 900000 3.8947 7.5453 6.8779 0.0000 -10842.7968 1488.1984 0.0000 0.0000 1783.1811 -7553.0995 299.0128 -9336.2806 -7573.3526 298.0030 546.4355 555.9290 30347.4530 213.4652 267.6222
ENERGY: 1200000 4.7824 4.3275 4.2863 0.0000 -10760.7921 1429.9479 0.0000 0.0000 1790.6581 -7526.7899 300.2666 -9317.4479 -7569.6313 297.7816 -88.5320 -55.6731 30513.0230 294.3524 352.3307
ENERGY: 1500000 4.3330 6.3751 4.4684 0.0000 -10653.8609 1368.8755 0.0000 0.0000 1801.4293 -7468.3797 302.0728 -9269.8090 -7568.5675 298.0289 -622.4561 -544.8016 31199.0923 206.2739 267.5076
TCL: Running FEP window  18: Lambda1 0.1499999999999997 Lambda2 0.09999999999999969 [dLambda -0.05 ]
TCL: Setting parameter firsttimestep to 0
TCL: Setting parameter alchLambda to 0.1499999999999997
Info: NONBONDED TABLE R-SQUARED SPACING: 0.0625
Info: NONBONDED TABLE SIZE: 705 POINTS
TCL: Setting parameter alchLambda2 to 0.09999999999999969
Info: NONBONDED TABLE R-SQUARED SPACING: 0.0625
Info: NONBONDED TABLE SIZE: 705 POINTS
TCL: Running for 1500000 steps
ETITLE: TS BOND ANGLE DIHED IMPRP ELECT VDW BOUNDARY MISC KINETIC TOTAL TEMP POTENTIAL TOTALAVG TEMPAVG PRESSURE GPRESSURE VOLUME PRESSAVG GPRESSAVG
ENERGY: 0 4.3329 6.3751 4.4684 0.0000 -10653.8617 1369.4284 0.0000 0.0000 1800.5592 -7468.6976 301.9269 -9269.2569 -7468.6976 301.9269 -630.0094 -544.6713 31199.0923 -630.0094 -544.6713
ENERGY: 300000 3.5262 6.5086 4.4847 0.0000 -10741.5625 1392.0611 0.0000 0.0000 1762.7715 -7572.2103 295.5905 -9334.9818 -7549.7304 296.3313 -293.1036 -228.7813 30695.5188 -256.0221 -173.0756
ENERGY: 600000 4.2619 8.7112 2.6020 0.0000 -10813.8098 1499.2194 0.0000 0.0000 1791.5632 -7507.4521 300.4184 -9299.0153 -7542.0216 298.0751 498.6305 530.9766 30501.1163 -299.4281 -237.6837
ENERGY: 900000 4.6554 3.6756 2.9264 0.0000 -10817.8723 1402.8401 0.0000 0.0000 1764.7810 -7638.9939 295.9274 -9403.7749 -7547.1566 299.3219 -757.3538 -712.8956 30783.3922 -182.2660 -131.2889
ENERGY: 1200000 10.1166 6.3881 4.2369 0.0000 -10767.0816 1400.2618 0.0000 0.0000 1822.7597 -7523.3185 305.6496 -9346.0783 -7544.7831 300.0511 -727.5521 -702.1327 30748.5035 -277.7793 -221.6705
ENERGY: 1500000 6.6631 5.6848 7.5279 0.0000 -10696.6462 1342.7354 0.0000 0.0000 1837.1068 -7496.9282 308.0554 -9334.0350 -7532.2065 301.1075 -950.0685 -886.2848 31011.1826 -311.4837 -257.6957
TCL: Running FEP window  19: Lambda1 0.09999999999999969 Lambda2 0.049999999999999684 [dLambda -0.05 ]
TCL: Setting parameter firsttimestep to 0
TCL: Setting parameter alchLambda to 0.09999999999999969
Info: NONBONDED TABLE R-SQUARED SPACING: 0.0625
Info: NONBONDED TABLE SIZE: 705 POINTS
TCL: Setting parameter alchLambda2 to 0.049999999999999684
Info: NONBONDED TABLE R-SQUARED SPACING: 0.0625
Info: NONBONDED TABLE SIZE: 705 POINTS
TCL: Running for 1500000 steps
ETITLE: TS BOND ANGLE DIHED IMPRP ELECT VDW BOUNDARY MISC KINETIC TOTAL TEMP POTENTIAL TOTALAVG TEMPAVG PRESSURE GPRESSURE VOLUME PRESSAVG GPRESSAVG
ENERGY: 0 6.6631 5.6848 7.5279 0.0000 -10696.6458 1342.4884 0.0000 0.0000 1836.2265 -7498.0550 307.9078 -9334.2816 -7498.0550 307.9078 -977.9872 -890.1675 31011.1826 -977.9872 -890.1675
ENERGY: 300000 2.6571 8.5126 6.7192 0.0000 -10793.6549 1481.1004 0.0000 0.0000 1790.7693 -7503.8963 300.2853 -9294.6656 -7504.2033 299.4092 392.3064 512.1314 30314.9840 -289.2063 -225.4725
ENERGY: 600000 5.2699 5.4297 3.3750 0.0000 -10829.6549 1423.1453 0.0000 0.0000 1844.4600 -7547.9750 309.2884 -9392.4350 -7526.3860 301.8697 -521.8352 -488.5839 31006.6869 -188.7344 -124.1985
ENERGY: 900000 8.5756 8.9698 6.5778 0.0000 -10810.5469 1417.0247 0.0000 0.0000 1770.4073 -7598.9917 296.8709 -9369.3990 -7527.5535 302.0327 -215.9913 -106.6486 30352.7273 -67.3467 12.7284
ENERGY: 1200000 4.0502 10.9369 7.0321 0.0000 -10771.5250 1401.2820 0.0000 0.0000 1779.5658 -7568.6579 298.4066 -9348.2237 -7528.6451 301.8808 -586.0121 -565.5115 30706.3402 -112.0160 -44.8614
ENERGY: 1500000 3.9360 8.6617 3.5253 0.0000 -10739.9903 1410.2313 0.0000 0.0000 1798.3016 -7515.3344 301.5483 -9313.6360 -7523.9270 301.6431 -146.5085 -107.0319 30637.2953 -122.0986 -61.6426
TCL: Running FEP window  20: Lambda1 0.049999999999999684 Lambda2 0.0    [dLambda -0.049999999999999684]
TCL: Setting parameter firsttimestep to 0
TCL: Setting parameter alchLambda to 0.049999999999999684
Info: NONBONDED TABLE R-SQUARED SPACING: 0.0625
Info: NONBONDED TABLE SIZE: 705 POINTS
TCL: Setting parameter alchLambda2 to 0.0
Info: NONBONDED TABLE R-SQUARED SPACING: 0.0625
Info: NONBONDED TABLE SIZE: 705 POINTS
TCL: Running for 1500000 steps
ETITLE: TS BOND ANGLE DIHED IMPRP ELECT VDW BOUNDARY MISC KINETIC TOTAL TEMP POTENTIAL TOTALAVG TEMPAVG PRESSURE GPRESSURE VOLUME PRESSAVG GPRESSAVG
ENERGY: 0 3.9360 8.6617 3.5253 0.0000 -10739.9898 1410.5072 0.0000 0.0000 1797.3510 -7516.0086 301.3889 -9313.3596 -7516.0086 301.3889 -196.3348 -107.4822 30637.2953 -196.3348 -107.4822
ENERGY: 300000 4.9472 3.6102 2.5254 0.0000 -10598.6837 1353.1394 0.0000 0.0000 1741.9004 -7492.5612 292.0907 -9234.4616 -7562.2716 299.1849 -450.5847 -365.7531 30516.8040 42.0834 111.6940
ENERGY: 600000 1.9230 4.9511 2.4035 0.0000 -10723.6629 1393.6635 0.0000 0.0000 1790.0793 -7530.6425 300.1696 -9320.7218 -7553.9662 300.5683 -451.6620 -333.8151 30763.5074 -208.6404 -131.3590
ENERGY: 900000 3.1924 3.0187 6.1197 0.0000 -10880.5814 1492.8970 0.0000 0.0000 1790.3992 -7584.9544 300.2232 -9375.3537 -7554.5013 301.2794 193.7407 295.6437 30307.0591 -1.8671 68.2545
ENERGY: 1200000 2.5910 5.7405 4.8499 0.0000 -10784.8386 1450.0972 0.0000 0.0000 1783.1203 -7538.4396 299.0027 -9321.5599 -7554.1014 300.8258 -32.3223 65.7209 30685.4856 37.3418 104.6740
ENERGY: 1500000 4.9833 9.1110 5.4248 0.0000 -10943.0650 1544.9058 0.0000 0.0000 1783.1270 -7595.5131 299.0038 -9378.6401 -7552.7060 301.3760 624.4016 732.5254 30101.0084 74.2153 144.0009
TCL: Exiting due to exit command.
