Info: SIMULATION PARAMETERS:
Info: TIMESTEP               2
Info: NUMBER OF STEPS        0
Info: STEPS PER CYCLE        10
Info: PERIODIC CELL BASIS 1  31.9301 0 0
Info: PERIODIC CELL BASIS 2  0 30.0107 0
Info: PERIODIC CELL BASIS 3  0 0 31.439
Info: PERIODIC CELL CENTER   0 0 0
Info: WRAPPING WATERS AROUND PERIODIC BOUNDARIES ON OUTPUT.
Info: WRAPPING ALL CLUSTERS AROUND PERIODIC BOUNDARIES ON OUTPUT.
Info: FIRST LDB TIMESTEP     50
Info: LAST LDB TIMESTEP     -1
Info: HOM BACKGROUND SCALING 1
Info: PME BACKGROUND SCALING 1
Info: MIN ATOMS PER PATCH    40
Info: EMPTY PATCH LOAD       40 ATOMS
Info: VELOCITY FILE          mobley_3777264_equil.vel
Info: CENTER OF MASS MOVING INITIALLY? NO
Info: DIELECTRIC             1
Info: EXCLUDE                SCALED ONE-FOUR
Info: 1-4 ELECTROSTATICS SCALED BY 0.833333
Info: MODIFIED 1-4 VDW PARAMETERS WILL BE USED
Info: DCD FILENAME           mobley_3777264_prod.dcd
Info: DCD FREQUENCY          100000
Info: DCD FIRST STEP         100000
Info: DCD FILE WILL CONTAIN UNIT CELL DATA
Info: XST FILENAME           mobley_3777264_prod.xst
Info: XST FREQUENCY          100000
Info: NO VELOCITY DCD OUTPUT
Info: NO FORCE DCD OUTPUT
Info: OUTPUT FILENAME        mobley_3777264_prod
Info: BINARY OUTPUT FILES WILL BE USED
Info: RESTART FILENAME       mobley_3777264_prod.restart
Info: RESTART FREQUENCY      100000
Info: BINARY RESTART FILES WILL BE USED
Info: CUTOFF                 9
Info: PAIRLIST DISTANCE      11
Info: PAIRLIST SHRINK RATE   0.01
Info: PAIRLIST GROW RATE     0.01
Info: PAIRLIST TRIGGER       0.3
Info: PAIRLISTS PER CYCLE    2
Info: PAIRLISTS ENABLED
Info: MARGIN                 2
Info: HYDROGEN GROUP CUTOFF  2.5
Info: PATCH DIMENSION        15.5
Info: ENERGY OUTPUT STEPS    100000
Info: ENERGY EVALUATION STEPS    100000
Info: OUTPUT ENERGY PRECISION 4
Info: CROSSTERM ENERGY INCLUDED IN DIHEDRAL
Info: TIMING OUTPUT STEPS    1000000
Info: PRESSURE OUTPUT STEPS  100000
Info: ALCHEMICAL FEP ON
Info: FEP CURRENT LAMBDA VALUE     0
Info: FEP COMPARISON LAMBDA VALUE  0.05
Info: FEP INTRA-ALCHEMICAL NON-BONDED INTERACTIONS WILL BE RETAINED
Info: FEP INTRA-ALCHEMICAL BONDED INTERACTIONS WILL BE RETAINED
Info: FEP VDW SHIFTING COEFFICIENT 5
Info: FEP ELEC. ACTIVE FOR ANNIHILATED PARTICLES BETWEEN LAMBDA = 0 AND LAMBDA = 0.5
Info: FEP ELEC. ACTIVE FOR EXNIHILATED PARTICLES BETWEEN LAMBDA = 0.5 AND LAMBDA = 1
Info: FEP VDW ACTIVE FOR ANNIHILATED PARTICLES BETWEEN LAMBDA = 0 AND LAMBDA = 1
Info: FEP VDW ACTIVE FOR EXNIHILATED PARTICLES BETWEEN LAMBDA = 0 AND LAMBDA = 1
Info: FEP BOND ACTIVE FOR ANNIHILATED PARTICLES BETWEEN LAMBDA = 1 AND LAMBDA = 1
Info: FEP BOND ACTIVE FOR EXNIHILATED PARTICLES BETWEEN LAMBDA = 0 AND LAMBDA = 0
Info: LANGEVIN DYNAMICS ACTIVE
Info: LANGEVIN TEMPERATURE   300
Info: LANGEVIN USING BBK INTEGRATOR
Info: LANGEVIN DAMPING COEFFICIENT IS 1 INVERSE PS
Info: LANGEVIN DYNAMICS APPLIED TO HYDROGENS
Info: LANGEVIN PISTON PRESSURE CONTROL ACTIVE
Info:        TARGET PRESSURE IS 1.01325 BAR
Info:     OSCILLATION PERIOD IS 50 FS
Info:             DECAY TIME IS 25 FS
Info:     PISTON TEMPERATURE IS 300 K
Info:       PRESSURE CONTROL IS GROUP-BASED
Info:    INITIAL STRAIN RATE IS 0.000166511 0.000166511 0.000166511
Info:       CELL FLUCTUATION IS ISOTROPIC
Info: PARTICLE MESH EWALD (PME) ACTIVE
Info: PME TOLERANCE               1e-06
Info: PME EWALD COEFFICIENT       0.348832
Info: PME INTERPOLATION ORDER     4
Info: PME GRID DIMENSIONS         32 32 32
Info: PME MAXIMUM GRID SPACING    1
Info: PME CALCULATION WILL BE PERFORMED ON GPU
Info: FULL ELECTROSTATIC EVALUATION FREQUENCY      2
Info: USING VERLET I (r-RESPA) MTS SCHEME.
Info: C1 SPLITTING OF LONG RANGE ELECTROSTATICS
Info: PLACING ATOMS IN PATCHES BY HYDROGEN GROUPS
Info: RIGID BONDS TO HYDROGEN : ALL
Info:         ERROR TOLERANCE : 1e-08
Info:          MAX ITERATIONS : 100
Info: RIGID WATER USING SETTLE ALGORITHM
Info: RANDOM NUMBER SEED     1743754084
Info: USE HYDROGEN BONDS?    NO
Info: Using AMBER format force field!
Info: AMBER PARM FILE        mobley_3777264.prmtop
Info: COORDINATE PDB         mobley_3777264.pdb
Info: Exclusions will be read from PARM file!
Info: SCNB (VDW SCALING)     2
Info: USING ARITHMETIC MEAN TO COMBINE L-J SIGMA PARAMETERS
Info: BINARY COORDINATES     mobley_3777264_equil.coor
Info: SUMMARY OF PARAMETERS:
Info: 8 BONDS
Info: 8 ANGLES
Info:   8 HARMONIC
Info:   0 COSINE-BASED
Info: 4 DIHEDRAL
Info: 0 IMPROPER
Info: 0 CROSSTERM
Info: 0 VDW
Info: 28 VDW_PAIRS
Info: 0 NBTHOLE_PAIRS
Info: To read alchdata from file: mobley_3777264.pdb
Info: To read alchflag data from column: 5
Info: STRUCTURE SUMMARY:
Info: 2902 ATOMS
Info: 2902 BONDS
Info: 24 ANGLES
Info: 39 DIHEDRALS
Info: 0 IMPROPERS
Info: 0 CROSSTERMS
Info: 2955 EXCLUSIONS
Info: 2892 RIGID BONDS
Info: ALCH: 0 ATOMS TO DISAPPEAR IN FINAL STATE
Info: ALCH: 16 ATOMS TO APPEAR IN FINAL STATE
Info: 5814 DEGREES OF FREEDOM
Info: 972 HYDROGEN GROUPS
Info: 3 ATOMS IN LARGEST HYDROGEN GROUP
Info: 972 MIGRATION GROUPS
Info: 3 ATOMS IN LARGEST MIGRATION GROUP
Info: TOTAL MASS = 17469.5 amu
Info: TOTAL CHARGE = 0.000200003 e
Info: MASS DENSITY = 0.96293 g/cm^3
Info: ATOM DENSITY = 0.0963279 atoms/A^3
Info: ADDED 0 IMPLICIT EXCLUSIONS
Info: NONBONDED TABLE R-SQUARED SPACING: 0.0625
Info: NONBONDED TABLE SIZE: 705 POINTS
Info: REMOVING COM VELOCITY 0.159944 0.163335 -0.0339305
Info: Use 3D box decompostion in PME FFT.
Info: Updated CUDA force table with 4096 elements.
Info: Updated CUDA LJ table with 7 x 7 elements.
Info: Found 19 unique exclusion lists needing 44 bytes
TCL: Running for 1500000 steps
ETITLE: TS BOND ANGLE DIHED IMPRP ELECT VDW BOUNDARY MISC KINETIC TOTAL TEMP POTENTIAL TOTALAVG TEMPAVG PRESSURE GPRESSURE VOLUME PRESSAVG GPRESSAVG
ENERGY: 0 3.0590 3.5396 6.3951 0.0000 -10377.7147 1381.8006 0.0000 0.0000 1710.8467 -7272.0737 296.1600 -8982.9204 -7272.0737 296.1600 -300.3431 -212.3229 30126.2652 -300.3431 -212.3229
ENERGY: 300000 2.9715 6.1388 3.7669 0.0000 -10449.1623 1305.1601 0.0000 0.0000 1739.5607 -7391.5643 301.1306 -9131.1251 -7372.5229 297.2456 -848.6718 -793.2415 29587.6874 -573.9430 -508.9108
ENERGY: 600000 3.3523 4.7987 6.5794 0.0000 -10378.1614 1383.0556 0.0000 0.0000 1754.9733 -7225.4021 303.7987 -8980.3755 -7351.4297 298.0240 -152.9113 -84.5454 30051.8840 -515.5443 -434.1305
ENERGY: 900000 4.8520 4.4762 4.0790 0.0000 -10483.9147 1372.8726 0.0000 0.0000 1715.2348 -7382.4002 296.9196 -9097.6349 -7364.4527 297.3780 -798.7932 -720.5479 30640.8354 -595.1650 -510.0950
ENERGY: 1200000 4.2549 4.0129 4.5504 0.0000 -10462.3398 1343.4597 0.0000 0.0000 1765.0959 -7340.9660 305.5510 -9106.0619 -7360.0531 298.7772 -455.3397 -411.9794 29569.1950 -445.6014 -372.0438
ENERGY: 1500000 3.6331 4.8788 2.6935 0.0000 -10568.6125 1425.5169 0.0000 0.0000 1696.1481 -7435.7420 293.6156 -9131.8901 -7361.4549 298.7098 -342.0215 -293.3768 29900.6899 -320.5971 -251.7548
TCL: Running FEP window   2: Lambda1 0.05   Lambda2 0.1    [dLambda 0.05  ]
TCL: Setting parameter firsttimestep to 0
TCL: Setting parameter alchLambda to 0.05
Info: NONBONDED TABLE R-SQUARED SPACING: 0.0625
Info: NONBONDED TABLE SIZE: 705 POINTS
TCL: Setting parameter alchLambda2 to 0.1
Info: NONBONDED TABLE R-SQUARED SPACING: 0.0625
Info: NONBONDED TABLE SIZE: 705 POINTS
TCL: Running for 1500000 steps
ETITLE: TS BOND ANGLE DIHED IMPRP ELECT VDW BOUNDARY MISC KINETIC TOTAL TEMP POTENTIAL TOTALAVG TEMPAVG PRESSURE GPRESSURE VOLUME PRESSAVG GPRESSAVG
ENERGY: 0 3.6331 4.8788 2.6935 0.0000 -10568.6134 1429.8711 0.0000 0.0000 1695.3304 -7432.2065 293.4741 -9127.5369 -7432.2065 293.4741 -356.9166 -286.3575 29900.6899 -356.9166 -286.3575
ENERGY: 300000 1.6101 3.4014 4.8178 0.0000 -10557.5261 1414.5679 0.0000 0.0000 1721.4473 -7411.6816 297.9951 -9133.1289 -7387.6620 298.2431 -271.4908 -258.7281 29883.1820 -421.8759 -348.3827
ENERGY: 600000 4.4065 4.2426 4.5009 0.0000 -10510.7844 1351.2178 0.0000 0.0000 1699.5660 -7446.8506 294.2073 -9146.4167 -7386.0665 297.9295 -599.0479 -523.9408 29224.6515 -283.2766 -192.2000
ENERGY: 900000 2.8551 3.9863 3.3764 0.0000 -10560.1190 1399.7873 0.0000 0.0000 1700.8697 -7449.2441 294.4329 -9150.1138 -7380.3368 297.8585 -375.2592 -306.5578 29813.5447 -212.9761 -129.4444
ENERGY: 1200000 1.0658 6.3611 6.6678 0.0000 -10532.8889 1454.2694 0.0000 0.0000 1707.8886 -7356.6362 295.6480 -9064.5248 -7377.2567 298.5398 333.3285 378.1230 29998.7620 -187.0932 -114.5587
ENERGY: 1500000 5.8227 3.3771 5.8632 0.0000 -10459.7036 1354.2171 0.0000 0.0000 1759.0224 -7331.4012 304.4996 -9090.4235 -7371.3110 299.6154 -661.4135 -525.4035 29646.9407 -170.6587 -93.2358
TCL: Running FEP window   3: Lambda1 0.1    Lambda2 0.15000000000000002 [dLambda 0.05000000000000002]
TCL: Setting parameter firsttimestep to 0
TCL: Setting parameter alchLambda to 0.1
Info: NONBONDED TABLE R-SQUARED SPACING: 0.0625
Info: NONBONDED TABLE SIZE: 705 POINTS
TCL: Setting parameter alchLambda2 to 0.15000000000000002
Info: NONBONDED TABLE R-SQUARED SPACING: 0.0625
Info: NONBONDED TABLE SIZE: 705 POINTS
TCL: Running for 1500000 steps
ETITLE: TS BOND ANGLE DIHED IMPRP ELECT VDW BOUNDARY MISC KINETIC TOTAL TEMP POTENTIAL TOTALAVG TEMPAVG PRESSURE GPRESSURE VOLUME PRESSAVG GPRESSAVG
ENERGY: 0 5.8227 3.3771 5.8632 0.0000 -10459.7053 1355.8913 0.0000 0.0000 1758.2122 -7330.5389 304.3593 -9088.7511 -7330.5389 304.3593 -596.6079 -519.8981 29646.9407 -596.6079 -519.8981
ENERGY: 300000 5.2294 6.2839 5.1599 0.0000 -10413.7951 1328.0877 0.0000 0.0000 1745.8010 -7323.2331 302.2109 -9069.0342 -7364.4482 301.4536 -920.3057 -817.1793 29782.3176 -561.6845 -470.4070
ENERGY: 600000 2.9039 5.6918 4.7042 0.0000 -10572.4766 1511.2814 0.0000 0.0000 1764.2894 -7283.6060 305.4114 -9047.8954 -7350.1316 302.9655 780.2045 868.7636 29711.4529 -197.8978 -114.2813
ENERGY: 900000 2.4004 4.4342 2.8720 0.0000 -10510.0681 1412.3839 0.0000 0.0000 1721.8232 -7366.1544 298.0601 -9087.9776 -7368.8980 301.3035 139.5929 132.4352 29262.6756 -148.7451 -78.4795
ENERGY: 1200000 8.5797 3.9061 7.3934 0.0000 -10535.7013 1422.2539 0.0000 0.0000 1711.9927 -7381.5753 296.3584 -9093.5681 -7378.1802 300.1747 -355.7076 -226.9350 29662.8102 -169.8311 -94.1075
ENERGY: 1500000 3.6344 3.3144 2.1661 0.0000 -10544.8699 1437.6526 0.0000 0.0000 1743.4368 -7354.6656 301.8016 -9098.1024 -7370.0360 300.4498 -272.8164 -181.1128 30114.3272 -150.9724 -72.9580
TCL: Running FEP window   4: Lambda1 0.15000000000000002 Lambda2 0.2    [dLambda 0.04999999999999999]
TCL: Setting parameter firsttimestep to 0
TCL: Setting parameter alchLambda to 0.15000000000000002
Info: NONBONDED TABLE R-SQUARED SPACING: 0.0625
Info: NONBONDED TABLE SIZE: 705 POINTS
TCL: Setting parameter alchLambda2 to 0.2
Info: NONBONDED TABLE R-SQUARED SPACING: 0.0625
Info: NONBONDED TABLE SIZE: 705 POINTS
TCL: Running for 1500000 steps
ETITLE: TS BOND ANGLE DIHED IMPRP ELECT VDW BOUNDARY MISC KINETIC TOTAL TEMP POTENTIAL TOTALAVG TEMPAVG PRESSURE GPRESSURE VOLUME PRESSAVG GPRESSAVG
ENERGY: 0 3.6344 3.3144 2.1661 0.0000 -10544.8695 1438.4244 0.0000 0.0000 1742.5676 -7354.7625 301.6512 -9097.3301 -7354.7625 301.6512 -235.9743 -173.5290 30114.3272 -235.9743 -173.5290
ENERGY: 300000 1.5512 5.0033 3.6791 0.0000 -10498.8301 1360.8226 0.0000 0.0000 1768.7539 -7359.0199 306.1842 -9127.7739 -7382.2008 299.7773 -374.0732 -312.4621 29389.6303 -331.8780 -284.6390
ENERGY: 600000 4.2071 5.8415 5.8315 0.0000 -10566.5786 1400.9464 0.0000 0.0000 1732.9614 -7416.7909 299.9883 -9149.7523 -7368.0580 301.0951 -655.3090 -522.5081 29812.4326 -358.8587 -281.1079
ENERGY: 900000 4.8353 5.4325 4.9614 0.0000 -10527.2915 1431.6561 0.0000 0.0000 1688.5876 -7391.8186 292.3068 -9080.4061 -7367.1768 299.2282 312.7260 446.4665 29523.0364 -185.4139 -114.5632
ENERGY: 1200000 2.5819 9.9121 4.6844 0.0000 -10664.4074 1479.3430 0.0000 0.0000 1816.4801 -7351.4059 314.4459 -9167.8860 -7358.5717 300.4476 202.5647 205.9282 29687.6296 -88.2354 -22.7695
ENERGY: 1500000 2.2292 6.9360 5.9336 0.0000 -10553.7665 1424.8541 0.0000 0.0000 1754.0284 -7359.7853 303.6351 -9113.8137 -7362.6864 300.7071 230.2228 313.1711 29278.9700 -113.9563 -45.8141
TCL: Running FEP window   5: Lambda1 0.2    Lambda2 0.25   [dLambda 0.04999999999999999]
TCL: Setting parameter firsttimestep to 0
TCL: Setting parameter alchLambda to 0.2
Info: NONBONDED TABLE R-SQUARED SPACING: 0.0625
Info: NONBONDED TABLE SIZE: 705 POINTS
TCL: Setting parameter alchLambda2 to 0.25
Info: NONBONDED TABLE R-SQUARED SPACING: 0.0625
Info: NONBONDED TABLE SIZE: 705 POINTS
TCL: Running for 1500000 steps
ETITLE: TS BOND ANGLE DIHED IMPRP ELECT VDW BOUNDARY MISC KINETIC TOTAL TEMP POTENTIAL TOTALAVG TEMPAVG PRESSURE GPRESSURE VOLUME PRESSAVG GPRESSAVG
ENERGY: 0 2.2292 6.9360 5.9336 0.0000 -10553.7675 1425.6688 0.0000 0.0000 1753.1735 -7359.8265 303.4871 -9113.0000 -7359.8265 303.4871 232.6281 322.3538 29278.9700 232.6281 322.3538
ENERGY: 300000 4.6210 4.4929 2.8837 0.0000 -10461.0703 1394.1356 0.0000 0.0000 1713.9980 -7340.9391 296.7055 -9054.9371 -7309.6865 302.0245 -367.5782 -343.6305 30313.9170 -183.1774 -141.0562
ENERGY: 600000 1.8684 3.6781 3.6449 0.0000 -10465.5634 1417.6875 0.0000 0.0000 1728.7082 -7309.9763 299.2520 -9038.6845 -7328.2802 301.0492 -164.4468 -62.3138 30311.0085 -360.2253 -320.4792
ENERGY: 900000 4.3157 2.1930 7.0723 0.0000 -10570.1163 1493.9157 0.0000 0.0000 1683.2853 -7379.3342 291.3890 -9062.6195 -7354.1030 298.9583 657.0655 738.6708 29614.6431 -115.8468 -65.0884
ENERGY: 1200000 1.8388 4.8329 3.6650 0.0000 -10481.2713 1389.6529 0.0000 0.0000 1750.4094 -7330.8723 303.0086 -9081.2817 -7351.4314 299.5813 -372.0475 -309.9547 29926.5060 -86.6935 -36.0514
ENERGY: 1500000 2.4499 5.8270 2.3736 0.0000 -10572.2521 1437.4358 0.0000 0.0000 1698.4162 -7425.7495 294.0082 -9124.1658 -7362.6229 298.5419 392.8693 430.9557 29464.6215 -80.3463 -30.0705
TCL: Running FEP window   6: Lambda1 0.25   Lambda2 0.3    [dLambda 0.04999999999999999]
TCL: Setting parameter firsttimestep to 0
TCL: Setting parameter alchLambda to 0.25
Info: NONBONDED TABLE R-SQUARED SPACING: 0.0625
Info: NONBONDED TABLE SIZE: 705 POINTS
TCL: Setting parameter alchLambda2 to 0.3
Info: NONBONDED TABLE R-SQUARED SPACING: 0.0625
Info: NONBONDED TABLE SIZE: 705 POINTS
TCL: Running for 1500000 steps
ETITLE: TS BOND ANGLE DIHED IMPRP ELECT VDW BOUNDARY MISC KINETIC TOTAL TEMP POTENTIAL TOTALAVG TEMPAVG PRESSURE GPRESSURE VOLUME PRESSAVG GPRESSAVG
ENERGY: 0 2.4499 5.8270 2.3736 0.0000 -10572.2524 1437.9096 0.0000 0.0000 1697.5209 -7426.1714 293.8532 -9123.6923 -7426.1714 293.8532 350.0864 439.2238 29464.6215 350.0864 439.2238
ENERGY: 300000 2.8269 2.6639 6.6599 0.0000 -10499.7066 1401.8802 0.0000 0.0000 1722.2815 -7363.3941 298.1395 -9085.6756 -7337.7770 298.4177 -121.2395 -54.8439 29747.6916 -16.9172 66.4828
ENERGY: 600000 4.0566 3.6378 5.3730 0.0000 -10421.2392 1367.7865 0.0000 0.0000 1726.5261 -7313.8592 298.8743 -9040.3853 -7354.3348 298.3229 -368.6109 -284.9447 29741.0136 -26.1957 46.8232
ENERGY: 900000 2.5407 4.2715 6.1801 0.0000 -10522.4093 1434.7343 0.0000 0.0000 1742.7047 -7331.9781 301.6749 -9074.6828 -7360.1697 298.3438 465.0997 482.7983 29397.2178 -73.2752 -7.5925
ENERGY: 1200000 2.9235 4.9399 3.8280 0.0000 -10498.4091 1404.3698 0.0000 0.0000 1712.7746 -7369.5734 296.4938 -9082.3479 -7346.0986 299.6467 -417.6137 -305.3326 30108.4981 -0.7723 66.6504
ENERGY: 1500000 3.7999 3.7521 3.4114 0.0000 -10468.7883 1400.2994 0.0000 0.0000 1698.8589 -7358.6665 294.0849 -9057.5254 -7338.9366 300.3539 -210.4861 -134.8775 30351.2133 -41.4267 27.3232
TCL: Running FEP window   7: Lambda1 0.3    Lambda2 0.35   [dLambda 0.04999999999999999]
TCL: Setting parameter firsttimestep to 0
TCL: Setting parameter alchLambda to 0.3
Info: NONBONDED TABLE R-SQUARED SPACING: 0.0625
Info: NONBONDED TABLE SIZE: 705 POINTS
TCL: Setting parameter alchLambda2 to 0.35
Info: NONBONDED TABLE R-SQUARED SPACING: 0.0625
Info: NONBONDED TABLE SIZE: 705 POINTS
TCL: Running for 1500000 steps
ETITLE: TS BOND ANGLE DIHED IMPRP ELECT VDW BOUNDARY MISC KINETIC TOTAL TEMP POTENTIAL TOTALAVG TEMPAVG PRESSURE GPRESSURE VOLUME PRESSAVG GPRESSAVG
ENERGY: 0 3.7999 3.7521 3.4114 0.0000 -10468.7892 1400.3982 0.0000 0.0000 1698.0082 -7359.4194 293.9376 -9057.4276 -7359.4194 293.9376 -206.5420 -128.9115 30351.2133 -206.5420 -128.9115
ENERGY: 300000 3.3401 3.1735 5.2054 0.0000 -10510.1192 1392.0798 0.0000 0.0000 1753.6717 -7352.6488 303.5734 -9106.3205 -7331.1421 303.7569 92.0560 108.8110 29343.4553 -29.9960 23.6371
ENERGY: 600000 4.7662 2.7924 3.1484 0.0000 -10657.1494 1506.6845 0.0000 0.0000 1703.7604 -7435.9974 294.9334 -9139.7578 -7366.4943 299.5247 840.3638 817.1347 29743.0681 -61.2988 -23.0327
ENERGY: 900000 7.5234 2.9423 6.2514 0.0000 -10662.9211 1399.6831 0.0000 0.0000 1730.4262 -7516.0947 299.5494 -9246.5209 -7385.4004 299.6122 -224.8487 -258.2292 29466.1318 43.7493 81.5185
ENERGY: 1200000 3.8175 3.8621 3.7812 0.0000 -10339.6809 1345.1387 0.0000 0.0000 1763.6814 -7219.3999 305.3061 -8983.0813 -7369.1343 299.5219 -235.0664 -161.3948 30099.6847 46.8673 86.3926
ENERGY: 1500000 4.1458 3.0572 5.8114 0.0000 -10571.9638 1408.1322 0.0000 0.0000 1740.8567 -7409.9605 301.3550 -9150.8172 -7369.2583 299.3239 61.7260 128.8846 29338.0634 70.4987 113.6397
TCL: Running FEP window   8: Lambda1 0.35   Lambda2 0.39999999999999997 [dLambda 0.04999999999999999]
TCL: Setting parameter firsttimestep to 0
TCL: Setting parameter alchLambda to 0.35
Info: NONBONDED TABLE R-SQUARED SPACING: 0.0625
Info: NONBONDED TABLE SIZE: 705 POINTS
TCL: Setting parameter alchLambda2 to 0.39999999999999997
Info: NONBONDED TABLE R-SQUARED SPACING: 0.0625
Info: NONBONDED TABLE SIZE: 705 POINTS
TCL: Running for 1500000 steps
ETITLE: TS BOND ANGLE DIHED IMPRP ELECT VDW BOUNDARY MISC KINETIC TOTAL TEMP POTENTIAL TOTALAVG TEMPAVG PRESSURE GPRESSURE VOLUME PRESSAVG GPRESSAVG
ENERGY: 0 4.1458 3.0572 5.8114 0.0000 -10571.9632 1408.2337 0.0000 0.0000 1739.9974 -7410.7177 301.2062 -9150.7151 -7410.7177 301.2062 66.2158 135.4223 29338.0634 66.2158 135.4223
ENERGY: 300000 4.0969 3.2146 7.8100 0.0000 -10389.2240 1308.6962 0.0000 0.0000 1773.9034 -7291.5029 307.0756 -9065.4063 -7419.3395 299.3786 -933.3109 -834.1596 30034.9158 84.6351 148.7893
ENERGY: 600000 3.7010 4.1551 9.0877 0.0000 -10558.5051 1398.8367 0.0000 0.0000 1739.9406 -7402.7840 301.1964 -9142.7245 -7392.5993 300.4714 -402.4167 -365.9137 29867.1588 -18.2348 50.0216
ENERGY: 900000 4.1631 3.9259 3.6172 0.0000 -10606.8779 1448.6866 0.0000 0.0000 1745.8349 -7400.6503 302.2167 -9146.4851 -7387.0628 299.7344 -76.2841 -36.6779 29623.1506 -67.5294 -2.4783
ENERGY: 1200000 0.9627 3.5150 5.8544 0.0000 -10579.2163 1421.4960 0.0000 0.0000 1753.2388 -7394.1493 303.4984 -9147.3881 -7384.2486 300.2074 81.6022 185.1321 29425.0983 -36.5387 29.2745
ENERGY: 1500000 2.6828 6.9767 2.4871 0.0000 -10532.3152 1336.5199 0.0000 0.0000 1656.3633 -7527.2854 286.7286 -9183.6487 -7384.6150 300.1364 -1165.6076 -1136.1029 30050.9423 -118.5408 -49.5776
TCL: Running FEP window   9: Lambda1 0.39999999999999997 Lambda2 0.44999999999999996 [dLambda 0.04999999999999999]
TCL: Setting parameter firsttimestep to 0
TCL: Setting parameter alchLambda to 0.39999999999999997
Info: NONBONDED TABLE R-SQUARED SPACING: 0.0625
Info: NONBONDED TABLE SIZE: 705 POINTS
TCL: Setting parameter alchLambda2 to 0.44999999999999996
Info: NONBONDED TABLE R-SQUARED SPACING: 0.0625
Info: NONBONDED TABLE SIZE: 705 POINTS
TCL: Running for 1500000 steps
ETITLE: TS BOND ANGLE DIHED IMPRP ELECT VDW BOUNDARY MISC KINETIC TOTAL TEMP POTENTIAL TOTALAVG TEMPAVG PRESSURE GPRESSURE VOLUME PRESSAVG GPRESSAVG
ENERGY: 0 2.6828 6.9767 2.4871 0.0000 -10532.3141 1336.2962 0.0000 0.0000 1655.4756 -7528.3958 286.5749 -9183.8713 -7528.3958 286.5749 -1218.1097 -1132.1707 30050.9423 -1218.1097 -1132.1707
ENERGY: 300000 2.5975 2.8943 4.3325 0.0000 -10497.9458 1365.3828 0.0000 0.0000 1810.9643 -7311.7745 313.4911 -9122.7387 -7424.1710 300.6458 -207.4344 -149.8756 29645.0747 -376.4661 -316.9417
ENERGY: 600000 2.7279 4.9634 5.3647 0.0000 -10554.1323 1422.8276 0.0000 0.0000 1731.8144 -7386.4342 299.7897 -9118.2486 -7405.3575 301.8856 -126.0283 7.8665 30117.0408 -79.8016 -11.8441
ENERGY: 900000 3.9506 3.8421 5.3921 0.0000 -10532.4571 1429.5855 0.0000 0.0000 1704.8449 -7384.8419 295.1211 -9089.6868 -7400.4335 301.7562 349.0320 437.6436 29464.2324 27.4710 85.5851
ENERGY: 1200000 3.3850 4.1731 2.6875 0.0000 -10618.9603 1510.6899 0.0000 0.0000 1762.5962 -7335.4286 305.1182 -9098.0248 -7397.4869 301.5265 723.7975 763.3432 29661.6868 50.4800 110.8709
ENERGY: 1500000 4.1863 3.0035 3.6421 0.0000 -10328.6183 1310.8742 0.0000 0.0000 1731.6436 -7275.2685 299.7601 -9006.9121 -7384.6991 301.4847 -668.2572 -563.2363 29897.7287 66.6598 128.1352
TCL: Running FEP window  10: Lambda1 0.44999999999999996 Lambda2 0.49999999999999994 [dLambda 0.04999999999999999]
TCL: Setting parameter firsttimestep to 0
TCL: Setting parameter alchLambda to 0.44999999999999996
Info: NONBONDED TABLE R-SQUARED SPACING: 0.0625
Info: NONBONDED TABLE SIZE: 705 POINTS
TCL: Setting parameter alchLambda2 to 0.49999999999999994
Info: NONBONDED TABLE R-SQUARED SPACING: 0.0625
Info: NONBONDED TABLE SIZE: 705 POINTS
TCL: Running for 1500000 steps
ETITLE: TS BOND ANGLE DIHED IMPRP ELECT VDW BOUNDARY MISC KINETIC TOTAL TEMP POTENTIAL TOTALAVG TEMPAVG PRESSURE GPRESSURE VOLUME PRESSAVG GPRESSAVG
ENERGY: 0 4.1863 3.0035 3.6421 0.0000 -10328.6180 1311.1957 0.0000 0.0000 1730.8107 -7275.7796 299.6159 -9006.5903 -7275.7796 299.6159 -627.3353 -555.3452 29897.7287 -627.3353 -555.3452
ENERGY: 300000 3.1815 3.2009 5.6617 0.0000 -10458.9472 1315.2996 0.0000 0.0000 1789.7938 -7341.8096 309.8264 -9131.6034 -7341.9265 301.6425 -1325.5947 -1224.9656 30173.4676 -535.5384 -462.4760
ENERGY: 600000 1.4866 2.5341 6.6577 0.0000 -10553.7747 1420.7090 0.0000 0.0000 1752.6757 -7369.7117 303.4009 -9122.3873 -7341.4897 302.5992 -209.4417 -54.2745 29976.6559 -333.0123 -240.6464
ENERGY: 900000 4.6241 8.1421 4.5233 0.0000 -10473.9281 1359.3353 0.0000 0.0000 1691.0921 -7406.2112 292.7404 -9097.3033 -7358.6309 301.1035 -655.4969 -622.6172 30003.2797 -275.3790 -200.7957
ENERGY: 1200000 5.0600 3.5053 2.3767 0.0000 -10607.4475 1447.8131 0.0000 0.0000 1704.0904 -7444.6020 294.9905 -9148.6924 -7370.6693 299.8224 -56.7142 10.6611 29938.1227 -322.3369 -243.3522
ENERGY: 1500000 3.2488 4.8040 5.8173 0.0000 -10520.0560 1365.2889 0.0000 0.0000 1737.8950 -7403.0021 300.8423 -9140.8971 -7361.6130 300.1948 -813.3632 -712.4225 29937.2379 -352.7507 -273.1970
TCL: Running FEP window  11: Lambda1 0.49999999999999994 Lambda2 0.5499999999999999 [dLambda 0.04999999999999999]
TCL: Setting parameter firsttimestep to 0
TCL: Setting parameter alchLambda to 0.49999999999999994
Info: NONBONDED TABLE R-SQUARED SPACING: 0.0625
Info: NONBONDED TABLE SIZE: 705 POINTS
TCL: Setting parameter alchLambda2 to 0.5499999999999999
Info: NONBONDED TABLE R-SQUARED SPACING: 0.0625
Info: NONBONDED TABLE SIZE: 705 POINTS
TCL: Running for 1500000 steps
ETITLE: TS BOND ANGLE DIHED IMPRP ELECT VDW BOUNDARY MISC KINETIC TOTAL TEMP POTENTIAL TOTALAVG TEMPAVG PRESSURE GPRESSURE VOLUME PRESSAVG GPRESSAVG
ENERGY: 0 3.2488 4.8040 5.8173 0.0000 -10520.0560 1365.0966 0.0000 0.0000 1737.0118 -7404.0776 300.6894 -9141.0894 -7404.0776 300.6894 -776.8275 -705.1585 29937.2379 -776.8275 -705.1585
ENERGY: 300000 1.5496 4.1671 6.2462 0.0000 -10541.2922 1441.6932 0.0000 0.0000 1753.1473 -7334.4888 303.4826 -9087.6361 -7388.8095 300.5961 254.4560 307.0806 29735.6365 -75.9879 -16.9532
ENERGY: 600000 3.4483 6.0353 6.0257 0.0000 -10598.6696 1480.4874 0.0000 0.0000 1745.5366 -7357.1362 302.1651 -9102.6729 -7374.1553 298.4772 635.6353 714.4170 29611.4277 -92.4780 -29.7382
ENERGY: 900000 3.1695 3.6139 5.9252 0.0000 -10465.6302 1365.4181 0.0000 0.0000 1722.2176 -7365.2859 298.1284 -9087.5035 -7370.9888 297.3570 -278.5794 -206.5084 29674.9172 -161.7215 -101.0309
ENERGY: 1200000 3.5932 2.3929 3.0279 0.0000 -10485.2564 1335.0570 0.0000 0.0000 1721.2220 -7419.9634 297.9561 -9141.1854 -7377.5831 297.5764 -911.4800 -846.7913 30138.8088 -130.5854 -63.9840
ENERGY: 1500000 4.1132 5.3593 5.5891 0.0000 -10565.0837 1450.1584 0.0000 0.0000 1752.5470 -7347.3167 303.3787 -9099.8637 -7376.2740 297.7990 242.8282 282.8230 29913.2170 -87.9726 -21.1031
TCL: Running FEP window  12: Lambda1 0.5499999999999999 Lambda2 0.6    [dLambda 0.050000000000000044]
TCL: Setting parameter firsttimestep to 0
TCL: Setting parameter alchLambda to 0.5499999999999999
Info: NONBONDED TABLE R-SQUARED SPACING: 0.0625
Info: NONBONDED TABLE SIZE: 705 POINTS
TCL: Setting parameter alchLambda2 to 0.6
Info: NONBONDED TABLE R-SQUARED SPACING: 0.0625
Info: NONBONDED TABLE SIZE: 705 POINTS
TCL: Running for 1500000 steps
ETITLE: TS BOND ANGLE DIHED IMPRP ELECT VDW BOUNDARY MISC KINETIC TOTAL TEMP POTENTIAL TOTALAVG TEMPAVG PRESSURE GPRESSURE VOLUME PRESSAVG GPRESSAVG
ENERGY: 0 4.1132 5.3593 5.5891 0.0000 -10565.1093 1449.6367 0.0000 0.0000 1751.6640 -7348.7469 303.2258 -9100.4109 -7348.7469 303.2258 199.1789 285.6437 29913.2170 199.1789 285.6437
ENERGY: 300000 6.1720 4.9703 4.8098 0.0000 -10471.5806 1374.7310 0.0000 0.0000 1774.7635 -7306.1340 307.2245 -9080.8975 -7352.1692 301.6669 -372.7121 -336.9746 30024.1986 -24.4420 31.0227
ENERGY: 600000 6.6265 6.6317 10.0378 0.0000 -10525.6703 1358.8507 0.0000 0.0000 1735.4611 -7408.0625 300.4210 -9143.5236 -7357.9089 302.0552 -684.3465 -612.7878 29881.8366 -55.3169 0.5604
ENERGY: 900000 1.8152 4.6609 3.7711 0.0000 -10448.1981 1416.5260 0.0000 0.0000 1811.2728 -7210.1520 313.5445 -9021.4248 -7333.4401 303.3205 179.3263 182.2458 30007.3326 -34.3437 14.8275
ENERGY: 1200000 1.4584 3.2929 4.8101 0.0000 -10509.3228 1403.4782 0.0000 0.0000 1726.4553 -7369.8280 298.8620 -9096.2833 -7339.4934 302.2380 -390.5243 -251.1668 30209.5521 -77.8059 -22.1327
ENERGY: 1500000 3.3139 4.0513 2.0297 0.0000 -10497.0698 1388.7648 0.0000 0.0000 1794.1269 -7304.7832 310.5765 -9098.9102 -7340.0237 302.8111 -269.0822 -171.1105 29794.8087 -99.0889 -44.0710
TCL: Running FEP window  13: Lambda1 0.6    Lambda2 0.65   [dLambda 0.050000000000000044]
TCL: Setting parameter firsttimestep to 0
TCL: Setting parameter alchLambda to 0.6
Info: NONBONDED TABLE R-SQUARED SPACING: 0.0625
Info: NONBONDED TABLE SIZE: 705 POINTS
TCL: Setting parameter alchLambda2 to 0.65
Info: NONBONDED TABLE R-SQUARED SPACING: 0.0625
Info: NONBONDED TABLE SIZE: 705 POINTS
TCL: Running for 1500000 steps
ETITLE: TS BOND ANGLE DIHED IMPRP ELECT VDW BOUNDARY MISC KINETIC TOTAL TEMP POTENTIAL TOTALAVG TEMPAVG PRESSURE GPRESSURE VOLUME PRESSAVG GPRESSAVG
ENERGY: 0 3.3139 4.0513 2.0297 0.0000 -10497.0860 1388.4456 0.0000 0.0000 1793.2727 -7305.9728 310.4286 -9099.2455 -7305.9728 310.4286 -246.8464 -166.2861 29794.8087 -246.8464 -166.2861
ENERGY: 300000 2.3125 3.9644 4.6631 0.0000 -10452.0112 1373.8733 0.0000 0.0000 1830.6861 -7236.5117 316.9051 -9067.1978 -7318.1761 308.0089 221.5040 260.1908 29528.2266 35.5507 94.8879
ENERGY: 600000 4.5729 4.2732 2.3173 0.0000 -10450.4474 1376.0142 0.0000 0.0000 1781.7085 -7281.5612 308.4267 -9063.2697 -7328.5768 307.1264 -468.3630 -379.2262 30415.4342 -49.3672 16.8847
ENERGY: 900000 3.5333 3.8291 2.1594 0.0000 -10474.1478 1348.2635 0.0000 0.0000 1700.9450 -7415.4175 294.4460 -9116.3625 -7342.3140 304.7864 -395.3468 -427.5936 29546.3430 -25.3015 37.2155
ENERGY: 1200000 2.6950 3.6843 3.0292 0.0000 -10386.1124 1335.8732 0.0000 0.0000 1808.4010 -7232.4298 313.0474 -9040.8308 -7337.0892 305.2306 -377.9876 -322.3230 29938.0965 -9.5433 50.0228
ENERGY: 1500000 2.8099 3.1991 6.4747 0.0000 -10542.8234 1461.0199 0.0000 0.0000 1760.4110 -7308.9088 304.7400 -9069.3198 -7339.7075 304.9519 571.1116 632.6073 29802.0125 23.7979 90.2329
TCL: Running FEP window  14: Lambda1 0.65   Lambda2 0.7000000000000001 [dLambda 0.050000000000000044]
TCL: Setting parameter firsttimestep to 0
TCL: Setting parameter alchLambda to 0.65
Info: NONBONDED TABLE R-SQUARED SPACING: 0.0625
Info: NONBONDED TABLE SIZE: 705 POINTS
TCL: Setting parameter alchLambda2 to 0.7000000000000001
Info: NONBONDED TABLE R-SQUARED SPACING: 0.0625
Info: NONBONDED TABLE SIZE: 705 POINTS
TCL: Running for 1500000 steps
ETITLE: TS BOND ANGLE DIHED IMPRP ELECT VDW BOUNDARY MISC KINETIC TOTAL TEMP POTENTIAL TOTALAVG TEMPAVG PRESSURE GPRESSURE VOLUME PRESSAVG GPRESSAVG
ENERGY: 0 2.8099 3.1991 6.4747 0.0000 -10543.7731 1461.6048 0.0000 0.0000 1759.5524 -7310.1322 304.5913 -9069.6845 -7310.1322 304.5913 556.5392 645.0652 29802.0125 556.5392 645.0652
ENERGY: 300000 1.5069 4.7087 3.1634 0.0000 -10617.0156 1455.7185 0.0000 0.0000 1717.5967 -7434.3213 297.3285 -9151.9180 -7362.1060 298.8641 241.1182 306.7611 29609.0291 258.4672 339.4002
ENERGY: 600000 2.7513 4.7247 11.5503 0.0000 -10664.5511 1492.6015 0.0000 0.0000 1755.3586 -7397.5647 303.8654 -9152.9233 -7362.6558 298.4283 506.2280 588.9808 29530.9711 163.1032 228.5744
ENERGY: 900000 5.3645 2.5268 4.1685 0.0000 -10418.3790 1295.7910 0.0000 0.0000 1774.0792 -7336.4491 307.1060 -9110.5283 -7356.9646 299.5392 -1062.3404 -974.4010 29714.8037 -40.7643 26.6219
ENERGY: 1200000 2.2828 5.4679 3.0535 0.0000 -10494.0834 1345.7185 0.0000 0.0000 1758.4416 -7379.1191 304.3991 -9137.5607 -7365.8188 299.4097 -826.5434 -800.5312 30372.7067 -75.4669 -8.4964
ENERGY: 1500000 4.8079 2.9641 4.9797 0.0000 -10526.3373 1420.0145 0.0000 0.0000 1744.9931 -7348.5780 302.0710 -9093.5712 -7354.6812 300.2917 223.3206 279.4482 29874.8170 -67.3876 -4.6529
TCL: Running FEP window  15: Lambda1 0.7000000000000001 Lambda2 0.7500000000000001 [dLambda 0.050000000000000044]
TCL: Setting parameter firsttimestep to 0
TCL: Setting parameter alchLambda to 0.7000000000000001
Info: NONBONDED TABLE R-SQUARED SPACING: 0.0625
Info: NONBONDED TABLE SIZE: 705 POINTS
TCL: Setting parameter alchLambda2 to 0.7500000000000001
Info: NONBONDED TABLE R-SQUARED SPACING: 0.0625
Info: NONBONDED TABLE SIZE: 705 POINTS
TCL: Running for 1500000 steps
ETITLE: TS BOND ANGLE DIHED IMPRP ELECT VDW BOUNDARY MISC KINETIC TOTAL TEMP POTENTIAL TOTALAVG TEMPAVG PRESSURE GPRESSURE VOLUME PRESSAVG GPRESSAVG
ENERGY: 0 4.8079 2.9641 4.9797 0.0000 -10527.6344 1421.7114 0.0000 0.0000 1744.1692 -7349.0021 301.9284 -9093.1713 -7349.0021 301.9284 212.4141 299.1847 29874.8170 212.4141 299.1847
ENERGY: 300000 1.6128 3.7599 3.4324 0.0000 -10567.8172 1439.5760 0.0000 0.0000 1708.3800 -7411.0562 295.7330 -9119.4361 -7384.8788 297.2652 162.4175 195.0896 29928.0732 94.9867 147.5139
ENERGY: 600000 1.0236 5.0254 7.4550 0.0000 -10634.9772 1458.6270 0.0000 0.0000 1761.2145 -7401.6318 304.8791 -9162.8463 -7370.6391 300.0529 117.2525 256.9644 29869.6380 140.8957 222.3398
ENERGY: 900000 4.0956 4.0120 1.8686 0.0000 -10587.3169 1508.8215 0.0000 0.0000 1736.7748 -7331.7444 300.6484 -9068.5192 -7366.1451 300.0321 1063.2010 1077.6641 29764.6690 156.5219 219.1178
ENERGY: 1200000 1.2286 5.5678 4.4309 0.0000 -10655.4745 1466.3045 0.0000 0.0000 1743.2610 -7434.6817 301.7712 -9177.9427 -7372.6057 299.9736 72.3661 209.0547 29962.2840 67.3246 137.8644
ENERGY: 1500000 4.0180 4.6446 5.4479 0.0000 -10415.0719 1307.2228 0.0000 0.0000 1635.3380 -7458.4005 283.0889 -9093.7385 -7376.0342 299.2588 -1045.6134 -1030.2689 30156.9110 15.0838 85.1540
TCL: Running FEP window  16: Lambda1 0.7500000000000001 Lambda2 0.8000000000000002 [dLambda 0.050000000000000044]
TCL: Setting parameter firsttimestep to 0
TCL: Setting parameter alchLambda to 0.7500000000000001
Info: NONBONDED TABLE R-SQUARED SPACING: 0.0625
Info: NONBONDED TABLE SIZE: 705 POINTS
TCL: Setting parameter alchLambda2 to 0.8000000000000002
Info: NONBONDED TABLE R-SQUARED SPACING: 0.0625
Info: NONBONDED TABLE SIZE: 705 POINTS
TCL: Running for 1500000 steps
ETITLE: TS BOND ANGLE DIHED IMPRP ELECT VDW BOUNDARY MISC KINETIC TOTAL TEMP POTENTIAL TOTALAVG TEMPAVG PRESSURE GPRESSURE VOLUME PRESSAVG GPRESSAVG
ENERGY: 0 4.0180 4.6446 5.4479 0.0000 -10416.4424 1307.5100 0.0000 0.0000 1634.4909 -7460.3310 282.9423 -9094.8219 -7460.3310 282.9423 -1097.6456 -1018.0946 30156.9110 -1097.6456 -1018.0946
ENERGY: 300000 5.0514 4.5960 6.1736 0.0000 -10587.2208 1458.3181 0.0000 0.0000 1707.8226 -7405.2591 295.6365 -9113.0817 -7407.0297 296.2475 219.9413 272.0455 29784.6622 -71.3441 7.5216
ENERGY: 600000 2.7883 3.8243 4.8725 0.0000 -10477.9666 1376.1177 0.0000 0.0000 1772.5143 -7317.8495 306.8351 -9090.3638 -7381.2877 297.3567 -352.7944 -264.8805 30034.3512 -250.9044 -187.8276
ENERGY: 900000 2.1555 4.9032 5.6341 0.0000 -10628.0983 1483.4447 0.0000 0.0000 1741.6094 -7390.3514 301.4853 -9131.9608 -7383.0711 298.3638 469.9339 474.1593 30299.8601 -228.5868 -170.8092
ENERGY: 1200000 3.1090 6.4220 3.1770 0.0000 -10370.5065 1335.4863 0.0000 0.0000 1675.9911 -7346.3211 290.1263 -9022.3122 -7382.9128 297.4010 -398.2839 -350.5982 30010.1901 -87.3841 -26.8901
ENERGY: 1500000 3.6323 5.2285 2.9461 0.0000 -10499.7508 1416.9446 0.0000 0.0000 1735.5973 -7335.4021 300.4445 -9070.9994 -7379.7611 296.8904 125.6096 196.7272 29793.8190 -41.1890 13.4663
TCL: Running FEP window  17: Lambda1 0.8000000000000002 Lambda2 0.8500000000000002 [dLambda 0.050000000000000044]
TCL: Setting parameter firsttimestep to 0
TCL: Setting parameter alchLambda to 0.8000000000000002
Info: NONBONDED TABLE R-SQUARED SPACING: 0.0625
Info: NONBONDED TABLE SIZE: 705 POINTS
TCL: Setting parameter alchLambda2 to 0.8500000000000002
Info: NONBONDED TABLE R-SQUARED SPACING: 0.0625
Info: NONBONDED TABLE SIZE: 705 POINTS
TCL: Running for 1500000 steps
ETITLE: TS BOND ANGLE DIHED IMPRP ELECT VDW BOUNDARY MISC KINETIC TOTAL TEMP POTENTIAL TOTALAVG TEMPAVG PRESSURE GPRESSURE VOLUME PRESSAVG GPRESSAVG
ENERGY: 0 3.6323 5.2285 2.9461 0.0000 -10502.2710 1418.0875 0.0000 0.0000 1734.7680 -7337.6086 300.3010 -9072.3766 -7337.6086 300.3010 134.5173 213.7380 29793.8190 134.5173 213.7380
ENERGY: 300000 2.2302 4.1240 4.4243 0.0000 -10438.3488 1350.4465 0.0000 0.0000 1693.8267 -7383.2971 293.2138 -9077.1238 -7350.3272 297.9676 -553.1127 -564.2069 30210.1441 101.1760 135.4273
ENERGY: 600000 3.5010 3.9972 6.3398 0.0000 -10515.1618 1375.6162 0.0000 0.0000 1753.3318 -7372.3758 303.5145 -9125.7076 -7361.1076 298.5626 -418.7718 -330.9346 30029.1492 18.3667 61.5691
ENERGY: 900000 6.2534 4.0404 5.1631 0.0000 -10517.2145 1397.1980 0.0000 0.0000 1725.7624 -7378.7972 298.7421 -9104.5597 -7362.8674 298.5653 -314.4817 -205.0353 29832.8841 -69.4055 -16.8365
ENERGY: 1200000 4.8870 4.0654 5.0162 0.0000 -10597.0089 1481.6314 0.0000 0.0000 1739.6711 -7361.7378 301.1498 -9101.4089 -7362.7531 298.3737 507.8618 558.4081 29807.0487 62.8274 115.8334
ENERGY: 1500000 5.1895 1.9878 3.8777 0.0000 -10433.2325 1378.1609 0.0000 0.0000 1769.7637 -7274.2528 306.3590 -9044.0166 -7357.7485 299.1438 -163.4379 -23.8185 30131.1707 16.3255 72.4127
TCL: Running FEP window  18: Lambda1 0.8500000000000002 Lambda2 0.9000000000000002 [dLambda 0.050000000000000044]
TCL: Setting parameter firsttimestep to 0
TCL: Setting parameter alchLambda to 0.8500000000000002
Info: NONBONDED TABLE R-SQUARED SPACING: 0.0625
Info: NONBONDED TABLE SIZE: 705 POINTS
TCL: Setting parameter alchLambda2 to 0.9000000000000002
Info: NONBONDED TABLE R-SQUARED SPACING: 0.0625
Info: NONBONDED TABLE SIZE: 705 POINTS
TCL: Running for 1500000 steps
ETITLE: TS BOND ANGLE DIHED IMPRP ELECT VDW BOUNDARY MISC KINETIC TOTAL TEMP POTENTIAL TOTALAVG TEMPAVG PRESSURE GPRESSURE VOLUME PRESSAVG GPRESSAVG
ENERGY: 0 5.1896 1.9877 3.8777 0.0000 -10434.4241 1377.8879 0.0000 0.0000 1768.9092 -7276.5719 306.2111 -9045.4811 -7276.5719 306.2111 -98.3887 -16.7233 30131.1707 -98.3887 -16.7233
ENERGY: 300000 3.5677 4.0115 3.7307 0.0000 -10402.3732 1385.4981 0.0000 0.0000 1760.9898 -7244.5754 304.8402 -9005.5651 -7342.2867 301.0835 -11.1308 5.2863 30099.1398 -115.8481 -45.3490
ENERGY: 600000 4.0355 2.6291 2.6397 0.0000 -10448.9405 1374.4955 0.0000 0.0000 1759.9485 -7305.1923 304.6599 -9065.1408 -7356.5925 300.3248 186.6961 242.0950 29473.2376 -59.3809 6.9208
ENERGY: 900000 1.2967 5.2875 7.2064 0.0000 -10662.6215 1503.9203 0.0000 0.0000 1688.8989 -7456.0117 292.3607 -9144.9106 -7355.0397 300.4355 684.4938 768.2659 29524.5325 22.6758 93.3727
ENERGY: 1200000 2.4473 3.2128 6.2544 0.0000 -10507.5348 1380.0479 0.0000 0.0000 1692.2313 -7423.3410 292.9376 -9115.5723 -7360.1152 299.7764 -313.4371 -323.0330 30270.1328 -50.2580 8.6712
ENERGY: 1500000 4.1211 4.0243 6.8249 0.0000 -10636.4737 1496.1033 0.0000 0.0000 1771.8054 -7353.5948 306.7124 -9125.4002 -7360.9166 300.4593 859.7234 900.1463 29871.0235 -19.9819 37.0335
TCL: Running FEP window  19: Lambda1 0.9000000000000002 Lambda2 0.9500000000000003 [dLambda 0.050000000000000044]
TCL: Setting parameter firsttimestep to 0
TCL: Setting parameter alchLambda to 0.9000000000000002
Info: NONBONDED TABLE R-SQUARED SPACING: 0.0625
Info: NONBONDED TABLE SIZE: 705 POINTS
TCL: Setting parameter alchLambda2 to 0.9500000000000003
Info: NONBONDED TABLE R-SQUARED SPACING: 0.0625
Info: NONBONDED TABLE SIZE: 705 POINTS
TCL: Running for 1500000 steps
ETITLE: TS BOND ANGLE DIHED IMPRP ELECT VDW BOUNDARY MISC KINETIC TOTAL TEMP POTENTIAL TOTALAVG TEMPAVG PRESSURE GPRESSURE VOLUME PRESSAVG GPRESSAVG
ENERGY: 0 4.1211 4.0243 6.8249 0.0000 -10637.5909 1496.0153 0.0000 0.0000 1770.9333 -7355.6720 306.5615 -9126.6053 -7355.6720 306.5615 835.2756 910.1702 29871.0235 835.2756 910.1702
ENERGY: 300000 1.9287 5.1048 1.9402 0.0000 -10694.9908 1504.6839 0.0000 0.0000 1744.1298 -7437.2034 301.9216 -9181.3332 -7399.3443 302.3261 653.9419 641.3167 29498.4189 125.5632 172.7219
ENERGY: 600000 2.9981 2.0740 5.8046 0.0000 -10544.2485 1477.1641 0.0000 0.0000 1703.9187 -7352.2890 294.9607 -9056.2077 -7374.9407 301.5402 556.5540 615.8295 30066.2971 49.3554 107.6019
ENERGY: 900000 6.9709 3.9795 4.2471 0.0000 -10501.1176 1481.5750 0.0000 0.0000 1727.0461 -7277.2990 298.9643 -9004.3451 -7377.6658 298.8132 845.0149 877.8291 30109.9869 227.3014 274.3811
ENERGY: 1200000 1.4070 2.4347 3.4499 0.0000 -10463.9865 1355.9612 0.0000 0.0000 1688.6649 -7412.0688 292.3202 -9100.7337 -7392.2098 297.8762 -794.9290 -703.0367 30516.2667 235.8835 285.6721
ENERGY: 1500000 1.3746 6.1996 7.3893 0.0000 -10336.7354 1244.6629 0.0000 0.0000 1744.5690 -7332.5401 301.9976 -9077.1091 -7388.1592 298.0624 -1134.5616 -1129.4427 30107.6793 71.7001 116.6849
TCL: Running FEP window  20: Lambda1 0.9500000000000003 Lambda2 1.0    [dLambda 0.04999999999999971]
TCL: Setting parameter firsttimestep to 0
TCL: Setting parameter alchLambda to 0.9500000000000003
Info: NONBONDED TABLE R-SQUARED SPACING: 0.0625
Info: NONBONDED TABLE SIZE: 705 POINTS
TCL: Setting parameter alchLambda2 to 1.0
Info: NONBONDED TABLE R-SQUARED SPACING: 0.0625
Info: NONBONDED TABLE SIZE: 705 POINTS
TCL: Running for 1500000 steps
ETITLE: TS BOND ANGLE DIHED IMPRP ELECT VDW BOUNDARY MISC KINETIC TOTAL TEMP POTENTIAL TOTALAVG TEMPAVG PRESSURE GPRESSURE VOLUME PRESSAVG GPRESSAVG
ENERGY: 0 1.3746 6.1996 7.3893 0.0000 -10338.4572 1244.9845 0.0000 0.0000 1743.7044 -7334.8048 301.8479 -9078.5092 -7334.8048 301.8479 -1183.6625 -1116.7942 30107.6793 -1183.6625 -1116.7942
ENERGY: 300000 3.5345 3.5895 5.7505 0.0000 -10412.6729 1326.9598 0.0000 0.0000 1677.8691 -7394.9695 290.4514 -9072.8386 -7382.7552 298.0883 -674.3342 -614.7842 30500.1503 -513.9724 -464.5650
ENERGY: 600000 4.2868 7.2707 4.1570 0.0000 -10509.7710 1385.1393 0.0000 0.0000 1756.3650 -7352.5522 304.0396 -9108.9172 -7364.2084 301.1528 -424.7461 -381.6460 30330.2959 -503.4919 -436.7876
ENERGY: 900000 5.2676 4.6185 2.1481 0.0000 -10531.7888 1421.7526 0.0000 0.0000 1756.2361 -7341.7660 304.0173 -9098.0021 -7357.9109 300.8971 351.0442 372.7350 29429.2676 -290.1095 -233.5043
ENERGY: 1200000 1.8981 4.3316 3.5488 0.0000 -10472.5125 1339.7103 0.0000 0.0000 1702.3303 -7420.6933 294.6858 -9123.0236 -7365.2971 300.7642 -450.0521 -421.3940 29820.5394 -220.0604 -165.7454
ENERGY: 1500000 3.5713 5.7677 4.1134 0.0000 -10470.3209 1349.0971 0.0000 0.0000 1751.8168 -7355.9545 303.2523 -9107.7714 -7362.9646 301.6907 -250.1495 -168.2156 29650.9791 -152.3663 -100.6429
TCL: Exiting due to exit command.
