Info: SIMULATION PARAMETERS:
Info: TIMESTEP               2
Info: NUMBER OF STEPS        0
Info: STEPS PER CYCLE        10
Info: PERIODIC CELL BASIS 1  30.1976 0 0
Info: PERIODIC CELL BASIS 2  0 31.5853 0
Info: PERIODIC CELL BASIS 3  0 0 31.6533
Info: PERIODIC CELL CENTER   0 0 0
Info: WRAPPING WATERS AROUND PERIODIC BOUNDARIES ON OUTPUT.
Info: WRAPPING ALL CLUSTERS AROUND PERIODIC BOUNDARIES ON OUTPUT.
Info: FIRST LDB TIMESTEP     50
Info: LAST LDB TIMESTEP     -1
Info: HOM BACKGROUND SCALING 1
Info: PME BACKGROUND SCALING 1
Info: MIN ATOMS PER PATCH    40
Info: EMPTY PATCH LOAD       40 ATOMS
Info: VELOCITY FILE          mobley_1139153_equil.vel
Info: CENTER OF MASS MOVING INITIALLY? NO
Info: DIELECTRIC             1
Info: EXCLUDE                SCALED ONE-FOUR
Info: 1-4 ELECTROSTATICS SCALED BY 0.833333
Info: MODIFIED 1-4 VDW PARAMETERS WILL BE USED
Info: DCD FILENAME           mobley_1139153_prod.dcd
Info: DCD FREQUENCY          100000
Info: DCD FIRST STEP         100000
Info: DCD FILE WILL CONTAIN UNIT CELL DATA
Info: XST FILENAME           mobley_1139153_prod.xst
Info: XST FREQUENCY          100000
Info: NO VELOCITY DCD OUTPUT
Info: NO FORCE DCD OUTPUT
Info: OUTPUT FILENAME        mobley_1139153_prod
Info: BINARY OUTPUT FILES WILL BE USED
Info: RESTART FILENAME       mobley_1139153_prod.restart
Info: RESTART FREQUENCY      100000
Info: BINARY RESTART FILES WILL BE USED
Info: CUTOFF                 9
Info: PAIRLIST DISTANCE      11
Info: PAIRLIST SHRINK RATE   0.01
Info: PAIRLIST GROW RATE     0.01
Info: PAIRLIST TRIGGER       0.3
Info: PAIRLISTS PER CYCLE    2
Info: PAIRLISTS ENABLED
Info: MARGIN                 2
Info: HYDROGEN GROUP CUTOFF  2.5
Info: PATCH DIMENSION        15.5
Info: ENERGY OUTPUT STEPS    100000
Info: ENERGY EVALUATION STEPS    100000
Info: OUTPUT ENERGY PRECISION 4
Info: CROSSTERM ENERGY INCLUDED IN DIHEDRAL
Info: TIMING OUTPUT STEPS    1000000
Info: PRESSURE OUTPUT STEPS  100000
Info: ALCHEMICAL FEP ON
Info: FEP CURRENT LAMBDA VALUE     1
Info: FEP COMPARISON LAMBDA VALUE  0.95
Info: FEP INTRA-ALCHEMICAL NON-BONDED INTERACTIONS WILL BE RETAINED
Info: FEP INTRA-ALCHEMICAL BONDED INTERACTIONS WILL BE RETAINED
Info: FEP VDW SHIFTING COEFFICIENT 5
Info: FEP ELEC. ACTIVE FOR ANNIHILATED PARTICLES BETWEEN LAMBDA = 0 AND LAMBDA = 0.5
Info: FEP ELEC. ACTIVE FOR EXNIHILATED PARTICLES BETWEEN LAMBDA = 0.5 AND LAMBDA = 1
Info: FEP VDW ACTIVE FOR ANNIHILATED PARTICLES BETWEEN LAMBDA = 0 AND LAMBDA = 1
Info: FEP VDW ACTIVE FOR EXNIHILATED PARTICLES BETWEEN LAMBDA = 0 AND LAMBDA = 1
Info: FEP BOND ACTIVE FOR ANNIHILATED PARTICLES BETWEEN LAMBDA = 1 AND LAMBDA = 1
Info: FEP BOND ACTIVE FOR EXNIHILATED PARTICLES BETWEEN LAMBDA = 0 AND LAMBDA = 0
Info: LANGEVIN DYNAMICS ACTIVE
Info: LANGEVIN TEMPERATURE   300
Info: LANGEVIN USING BBK INTEGRATOR
Info: LANGEVIN DAMPING COEFFICIENT IS 1 INVERSE PS
Info: LANGEVIN DYNAMICS APPLIED TO HYDROGENS
Info: LANGEVIN PISTON PRESSURE CONTROL ACTIVE
Info:        TARGET PRESSURE IS 1.01325 BAR
Info:     OSCILLATION PERIOD IS 50 FS
Info:             DECAY TIME IS 25 FS
Info:     PISTON TEMPERATURE IS 300 K
Info:       PRESSURE CONTROL IS GROUP-BASED
Info:    INITIAL STRAIN RATE IS -0.00019579 -0.00019579 -0.00019579
Info:       CELL FLUCTUATION IS ISOTROPIC
Info: PARTICLE MESH EWALD (PME) ACTIVE
Info: PME TOLERANCE               1e-06
Info: PME EWALD COEFFICIENT       0.348832
Info: PME INTERPOLATION ORDER     4
Info: PME GRID DIMENSIONS         32 32 32
Info: PME MAXIMUM GRID SPACING    1
Info: PME CALCULATION WILL BE PERFORMED ON GPU
Info: FULL ELECTROSTATIC EVALUATION FREQUENCY      2
Info: USING VERLET I (r-RESPA) MTS SCHEME.
Info: C1 SPLITTING OF LONG RANGE ELECTROSTATICS
Info: PLACING ATOMS IN PATCHES BY HYDROGEN GROUPS
Info: RIGID BONDS TO HYDROGEN : ALL
Info:         ERROR TOLERANCE : 1e-08
Info:          MAX ITERATIONS : 100
Info: RIGID WATER USING SETTLE ALGORITHM
Info: RANDOM NUMBER SEED     1743814634
Info: USE HYDROGEN BONDS?    NO
Info: Using AMBER format force field!
Info: AMBER PARM FILE        mobley_1139153.prmtop
Info: COORDINATE PDB         mobley_1139153.pdb
Info: Exclusions will be read from PARM file!
Info: SCNB (VDW SCALING)     2
Info: USING ARITHMETIC MEAN TO COMBINE L-J SIGMA PARAMETERS
Info: BINARY COORDINATES     mobley_1139153_equil.coor
Info: SUMMARY OF PARAMETERS:
Info: 4 BONDS
Info: 3 ANGLES
Info:   3 HARMONIC
Info:   0 COSINE-BASED
Info: 5 DIHEDRAL
Info: 0 IMPROPER
Info: 0 CROSSTERM
Info: 0 VDW
Info: 10 VDW_PAIRS
Info: 0 NBTHOLE_PAIRS
Info: To read alchdata from file: mobley_1139153.pdb
Info: To read alchflag data from column: 5
Info: STRUCTURE SUMMARY:
Info: 2939 ATOMS
Info: 2938 BONDS
Info: 48 ANGLES
Info: 73 DIHEDRALS
Info: 0 IMPROPERS
Info: 0 CROSSTERMS
Info: 3049 EXCLUSIONS
Info: 2931 RIGID BONDS
Info: ALCH: 0 ATOMS TO DISAPPEAR IN FINAL STATE
Info: ALCH: 26 ATOMS TO APPEAR IN FINAL STATE
Info: 5886 DEGREES OF FREEDOM
Info: 979 HYDROGEN GROUPS
Info: 4 ATOMS IN LARGEST HYDROGEN GROUP
Info: 979 MIGRATION GROUPS
Info: 4 ATOMS IN LARGEST MIGRATION GROUP
Info: TOTAL MASS = 17607.8 amu
Info: TOTAL CHARGE = -0.000100009 e
Info: MASS DENSITY = 0.968473 g/cm^3
Info: ATOM DENSITY = 0.0973473 atoms/A^3
Info: ADDED 0 IMPLICIT EXCLUSIONS
Info: NONBONDED TABLE R-SQUARED SPACING: 0.0625
Info: NONBONDED TABLE SIZE: 705 POINTS
Info: REMOVING COM VELOCITY -0.18674 -0.161956 0.000695291
Info: Use 3D box decompostion in PME FFT.
Info: Updated CUDA force table with 4096 elements.
Info: Updated CUDA LJ table with 4 x 4 elements.
Info: Found 29 unique exclusion lists needing 100 bytes
TCL: Running for 1500000 steps
ETITLE: TS BOND ANGLE DIHED IMPRP ELECT VDW BOUNDARY MISC KINETIC TOTAL TEMP POTENTIAL TOTALAVG TEMPAVG PRESSURE GPRESSURE VOLUME PRESSAVG GPRESSAVG
ENERGY: 0 5.1580 8.2675 4.4075 0.0000 -10614.7032 1325.7285 0.0000 0.0000 1710.0432 -7561.0984 292.3999 -9271.1416 -7561.0984 292.3999 -1162.3690 -1079.2460 30190.8809 -1162.3690 -1079.2460
ENERGY: 300000 2.4828 16.5383 7.4005 0.0000 -10583.6115 1417.1371 0.0000 0.0000 1749.5730 -7390.4798 299.1591 -9140.0528 -7463.8747 300.1607 -230.2419 -194.9238 30735.0259 -189.8841 -136.4045
ENERGY: 600000 1.4205 14.5050 6.3538 0.0000 -10653.0094 1394.5844 0.0000 0.0000 1785.7631 -7450.3825 305.3472 -9236.1456 -7442.3280 302.6685 -244.8552 -154.6525 30066.1243 -220.4954 -153.7343
ENERGY: 900000 2.7268 16.6177 4.6814 0.0000 -10647.1028 1493.8896 0.0000 0.0000 1792.2362 -7336.9512 306.4540 -9129.1873 -7434.5399 301.3442 524.1297 509.6573 30800.2822 -116.4031 -46.9932
ENERGY: 1200000 1.6449 14.0157 6.5672 0.0000 -10626.3874 1388.3895 0.0000 0.0000 1728.9064 -7486.8636 295.6253 -9215.7701 -7440.9815 299.5196 -544.2476 -445.7516 30080.9679 -177.0484 -109.6461
ENERGY: 1500000 2.6586 10.7137 6.9733 0.0000 -10487.3448 1409.7947 0.0000 0.0000 1785.7643 -7271.4403 305.3474 -9057.2046 -7418.4751 300.2012 173.5515 210.8430 30376.0393 -137.2163 -70.8693
TCL: Running FEP window   2: Lambda1 0.95   Lambda2 0.8999999999999999 [dLambda -0.050000000000000044]
TCL: Setting parameter firsttimestep to 0
TCL: Setting parameter alchLambda to 0.95
Info: NONBONDED TABLE R-SQUARED SPACING: 0.0625
Info: NONBONDED TABLE SIZE: 705 POINTS
TCL: Setting parameter alchLambda2 to 0.8999999999999999
Info: NONBONDED TABLE R-SQUARED SPACING: 0.0625
Info: NONBONDED TABLE SIZE: 705 POINTS
TCL: Running for 1500000 steps
ETITLE: TS BOND ANGLE DIHED IMPRP ELECT VDW BOUNDARY MISC KINETIC TOTAL TEMP POTENTIAL TOTALAVG TEMPAVG PRESSURE GPRESSURE VOLUME PRESSAVG GPRESSAVG
ENERGY: 0 2.6586 10.7137 6.9733 0.0000 -10487.3282 1410.4162 0.0000 0.0000 1784.9224 -7271.6441 305.2035 -9056.5665 -7271.6441 305.2035 120.4437 201.4806 30376.0393 120.4437 201.4806
ENERGY: 300000 3.8241 21.1294 4.8297 0.0000 -10555.2331 1350.1623 0.0000 0.0000 1750.6954 -7424.5922 299.3510 -9175.2877 -7401.8814 299.8957 -505.6498 -498.0753 30326.2260 -112.8768 -50.3919
ENERGY: 600000 1.5523 10.7382 4.4853 0.0000 -10539.2300 1345.6207 0.0000 0.0000 1775.0103 -7401.8232 303.5086 -9176.8336 -7381.1165 299.2577 -617.8495 -525.9850 30228.6639 -275.5930 -215.3387
ENERGY: 900000 1.8028 13.9278 4.6241 0.0000 -10685.1988 1437.0064 0.0000 0.0000 1796.0483 -7431.7894 307.1059 -9227.8377 -7398.8002 300.2083 115.4285 209.3754 30111.7135 -259.6167 -196.5230
ENERGY: 1200000 6.1604 9.3976 7.4317 0.0000 -10483.4509 1334.5489 0.0000 0.0000 1794.7662 -7331.1461 306.8867 -9125.9123 -7385.1821 301.5929 -917.3033 -799.4183 30492.0344 -295.0526 -225.2218
ENERGY: 1500000 2.2206 12.5473 6.0275 0.0000 -10643.0008 1461.8238 0.0000 0.0000 1739.8177 -7420.5640 297.4910 -9160.3817 -7392.8196 301.0166 -212.5636 -44.4250 30887.5840 -214.8400 -142.4859
TCL: Running FEP window   3: Lambda1 0.8999999999999999 Lambda2 0.8499999999999999 [dLambda -0.050000000000000044]
TCL: Setting parameter firsttimestep to 0
TCL: Setting parameter alchLambda to 0.8999999999999999
Info: NONBONDED TABLE R-SQUARED SPACING: 0.0625
Info: NONBONDED TABLE SIZE: 705 POINTS
TCL: Setting parameter alchLambda2 to 0.8499999999999999
Info: NONBONDED TABLE R-SQUARED SPACING: 0.0625
Info: NONBONDED TABLE SIZE: 705 POINTS
TCL: Running for 1500000 steps
ETITLE: TS BOND ANGLE DIHED IMPRP ELECT VDW BOUNDARY MISC KINETIC TOTAL TEMP POTENTIAL TOTALAVG TEMPAVG PRESSURE GPRESSURE VOLUME PRESSAVG GPRESSAVG
ENERGY: 0 2.2206 12.5473 6.0275 0.0000 -10643.0203 1462.3019 0.0000 0.0000 1738.9408 -7420.9823 297.3411 -9159.9231 -7420.9823 297.3411 -147.3060 -50.8036 30887.5840 -147.3060 -50.8036
ENERGY: 300000 1.6910 9.3197 6.0685 0.0000 -10544.8489 1422.2612 0.0000 0.0000 1735.8153 -7369.6932 296.8067 -9105.5086 -7397.5597 297.0824 392.8909 453.9767 29753.3119 84.0477 170.1902
ENERGY: 600000 1.1787 16.4166 9.1622 0.0000 -10770.5017 1514.9286 0.0000 0.0000 1744.8899 -7483.9257 298.3583 -9228.8156 -7393.1500 299.2158 255.3952 330.2416 30525.1406 71.3802 147.4041
ENERGY: 900000 4.2224 13.9359 5.0220 0.0000 -10554.5517 1402.5087 0.0000 0.0000 1793.4529 -7335.4099 306.6621 -9128.8628 -7386.0784 301.5386 -315.9722 -272.5544 30798.4306 -3.5959 61.7376
ENERGY: 1200000 3.4214 12.5443 5.8846 0.0000 -10660.0122 1416.5411 0.0000 0.0000 1774.6897 -7446.9312 303.4538 -9221.6209 -7387.3927 301.5537 -91.0884 -62.6442 29785.0851 84.5647 142.3243
ENERGY: 1500000 1.9383 12.6755 4.9391 0.0000 -10623.0327 1433.1393 0.0000 0.0000 1749.9151 -7420.4254 299.2176 -9170.3406 -7384.6739 302.0178 230.0478 295.1898 30017.1098 156.1580 216.8637
TCL: Running FEP window   4: Lambda1 0.8499999999999999 Lambda2 0.7999999999999998 [dLambda -0.050000000000000044]
TCL: Setting parameter firsttimestep to 0
TCL: Setting parameter alchLambda to 0.8499999999999999
Info: NONBONDED TABLE R-SQUARED SPACING: 0.0625
Info: NONBONDED TABLE SIZE: 705 POINTS
TCL: Setting parameter alchLambda2 to 0.7999999999999998
Info: NONBONDED TABLE R-SQUARED SPACING: 0.0625
Info: NONBONDED TABLE SIZE: 705 POINTS
TCL: Running for 1500000 steps
ETITLE: TS BOND ANGLE DIHED IMPRP ELECT VDW BOUNDARY MISC KINETIC TOTAL TEMP POTENTIAL TOTALAVG TEMPAVG PRESSURE GPRESSURE VOLUME PRESSAVG GPRESSAVG
ENERGY: 0 1.9383 12.6755 4.9391 0.0000 -10623.0182 1432.6678 0.0000 0.0000 1749.0495 -7421.7480 299.0696 -9170.7975 -7421.7480 299.0696 195.8432 271.8545 30017.1098 195.8432 271.8545
ENERGY: 300000 2.4602 15.0693 7.0091 0.0000 -10555.3725 1397.1832 0.0000 0.0000 1759.1982 -7374.4525 300.8049 -9133.6507 -7422.9577 299.2544 109.2055 212.6762 29886.6072 -131.7388 -68.7909
ENERGY: 600000 2.4289 15.7512 7.9166 0.0000 -10570.8856 1392.2110 0.0000 0.0000 1815.8057 -7336.7722 310.4842 -9152.5778 -7408.7928 301.6290 7.0283 62.0189 29827.4890 -224.9568 -173.6626
ENERGY: 900000 2.7388 7.9829 6.5932 0.0000 -10715.1184 1505.3505 0.0000 0.0000 1747.8876 -7444.5653 298.8709 -9192.4530 -7414.3869 299.8828 612.8662 695.4249 30080.0589 -57.0912 -11.6032
ENERGY: 1200000 2.5819 16.6681 6.0973 0.0000 -10682.6018 1462.0156 0.0000 0.0000 1749.5248 -7445.7142 299.1508 -9195.2389 -7435.2817 299.4162 64.5092 160.3573 30312.6681 -70.1367 -19.7444
ENERGY: 1500000 2.0056 14.4353 5.3769 0.0000 -10600.6697 1392.1323 0.0000 0.0000 1704.3874 -7482.3321 291.4328 -9186.7196 -7425.8731 299.1865 -466.4251 -374.4170 30514.3728 -84.6414 -30.9565
TCL: Running FEP window   5: Lambda1 0.7999999999999998 Lambda2 0.7499999999999998 [dLambda -0.050000000000000044]
TCL: Setting parameter firsttimestep to 0
TCL: Setting parameter alchLambda to 0.7999999999999998
Info: NONBONDED TABLE R-SQUARED SPACING: 0.0625
Info: NONBONDED TABLE SIZE: 705 POINTS
TCL: Setting parameter alchLambda2 to 0.7499999999999998
Info: NONBONDED TABLE R-SQUARED SPACING: 0.0625
Info: NONBONDED TABLE SIZE: 705 POINTS
TCL: Running for 1500000 steps
ETITLE: TS BOND ANGLE DIHED IMPRP ELECT VDW BOUNDARY MISC KINETIC TOTAL TEMP POTENTIAL TOTALAVG TEMPAVG PRESSURE GPRESSURE VOLUME PRESSAVG GPRESSAVG
ENERGY: 0 2.0056 14.4353 5.3769 0.0000 -10600.6988 1392.2576 0.0000 0.0000 1703.5079 -7483.1156 291.2824 -9186.6235 -7483.1156 291.2824 -476.7110 -387.6335 30514.3728 -476.7110 -387.6335
ENERGY: 300000 4.9649 18.6666 4.9877 0.0000 -10597.6693 1450.1683 0.0000 0.0000 1758.5142 -7360.3676 300.6879 -9118.8818 -7408.9237 298.4796 117.0239 151.4941 30475.6892 -286.5094 -223.6788
ENERGY: 600000 5.2652 19.0586 3.7505 0.0000 -10621.7399 1399.5634 0.0000 0.0000 1797.2854 -7396.8167 307.3174 -9194.1022 -7408.6136 298.3476 -455.8898 -381.1887 30283.9718 -256.3655 -191.9670
ENERGY: 900000 3.2126 12.7699 6.7992 0.0000 -10672.0602 1466.4111 0.0000 0.0000 1819.6323 -7363.2352 311.1385 -9182.8675 -7406.8885 299.2562 128.6384 216.5602 30032.5870 -325.7707 -256.8788
ENERGY: 1200000 3.0664 13.8624 5.6933 0.0000 -10556.0532 1368.9833 0.0000 0.0000 1695.5416 -7468.9061 289.9203 -9164.4478 -7408.1663 298.7622 -419.4503 -347.8670 30054.6994 -266.1599 -193.6559
ENERGY: 1500000 2.5495 17.9731 7.2871 0.0000 -10607.3619 1487.7761 0.0000 0.0000 1744.2440 -7347.5321 298.2479 -9091.7761 -7404.2568 298.3628 537.1110 570.5897 30352.7411 -120.8725 -49.2644
TCL: Running FEP window   6: Lambda1 0.7499999999999998 Lambda2 0.6999999999999997 [dLambda -0.050000000000000044]
TCL: Setting parameter firsttimestep to 0
TCL: Setting parameter alchLambda to 0.7499999999999998
Info: NONBONDED TABLE R-SQUARED SPACING: 0.0625
Info: NONBONDED TABLE SIZE: 705 POINTS
TCL: Setting parameter alchLambda2 to 0.6999999999999997
Info: NONBONDED TABLE R-SQUARED SPACING: 0.0625
Info: NONBONDED TABLE SIZE: 705 POINTS
TCL: Running for 1500000 steps
ETITLE: TS BOND ANGLE DIHED IMPRP ELECT VDW BOUNDARY MISC KINETIC TOTAL TEMP POTENTIAL TOTALAVG TEMPAVG PRESSURE GPRESSURE VOLUME PRESSAVG GPRESSAVG
ENERGY: 0 2.5495 17.9731 7.2871 0.0000 -10607.3644 1487.3322 0.0000 0.0000 1743.3706 -7348.8519 298.0985 -9092.2225 -7348.8519 298.0985 479.7607 552.0647 30352.7411 479.7607 552.0647
ENERGY: 300000 4.8067 9.8112 6.2328 0.0000 -10422.0256 1341.8041 0.0000 0.0000 1794.3918 -7264.9790 306.8226 -9059.3708 -7332.6219 303.1386 -586.9756 -548.1612 30689.0155 225.0896 264.6210
ENERGY: 600000 4.2064 15.8551 3.7924 0.0000 -10648.3516 1473.6327 0.0000 0.0000 1705.1740 -7445.6911 291.5673 -9150.8650 -7362.3951 300.9937 345.7667 320.1226 30457.7891 251.7453 290.1231
ENERGY: 900000 2.1985 13.8642 4.7585 0.0000 -10683.5849 1506.2762 0.0000 0.0000 1714.5542 -7441.9332 293.1712 -9156.4874 -7377.5532 300.5663 306.7241 372.1655 30739.9568 128.6604 164.6739
ENERGY: 1200000 3.1078 20.0206 6.5082 0.0000 -10640.3779 1469.3564 0.0000 0.0000 1699.5294 -7441.8554 290.6021 -9141.3848 -7381.5053 299.6504 -9.5790 51.1276 30643.0447 86.1136 128.0669
ENERGY: 1500000 1.6882 12.3609 3.9032 0.0000 -10572.1955 1409.7796 0.0000 0.0000 1794.9791 -7349.4846 306.9231 -9144.4636 -7372.1526 300.9291 -171.8745 -82.1088 30451.3566 21.9423 70.9599
TCL: Running FEP window   7: Lambda1 0.6999999999999997 Lambda2 0.6499999999999997 [dLambda -0.050000000000000044]
TCL: Setting parameter firsttimestep to 0
TCL: Setting parameter alchLambda to 0.6999999999999997
Info: NONBONDED TABLE R-SQUARED SPACING: 0.0625
Info: NONBONDED TABLE SIZE: 705 POINTS
TCL: Setting parameter alchLambda2 to 0.6499999999999997
Info: NONBONDED TABLE R-SQUARED SPACING: 0.0625
Info: NONBONDED TABLE SIZE: 705 POINTS
TCL: Running for 1500000 steps
ETITLE: TS BOND ANGLE DIHED IMPRP ELECT VDW BOUNDARY MISC KINETIC TOTAL TEMP POTENTIAL TOTALAVG TEMPAVG PRESSURE GPRESSURE VOLUME PRESSAVG GPRESSAVG
ENERGY: 0 1.6882 12.3609 3.9032 0.0000 -10572.1994 1409.1819 0.0000 0.0000 1794.1260 -7350.9392 306.7772 -9145.0652 -7350.9392 306.7772 -168.9650 -99.1730 30451.3566 -168.9650 -99.1730
ENERGY: 300000 1.3419 20.4626 6.3392 0.0000 -10552.9822 1437.9171 0.0000 0.0000 1761.0870 -7325.8344 301.1279 -9086.9214 -7369.9166 301.9157 153.8149 193.0466 30438.7392 -130.6189 -76.1151
ENERGY: 600000 4.4212 13.7281 7.1604 0.0000 -10586.5966 1463.7275 0.0000 0.0000 1739.0502 -7358.5092 297.3598 -9097.5594 -7354.4855 301.3781 263.5191 357.8955 30343.3984 -148.5276 -75.8747
ENERGY: 900000 6.1043 13.7846 6.2139 0.0000 -10552.4837 1431.5559 0.0000 0.0000 1685.3743 -7409.4507 288.1818 -9094.8250 -7360.8509 300.5211 239.4872 248.8604 30092.7295 -38.8265 29.4228
ENERGY: 1200000 4.4492 11.4658 7.5166 0.0000 -10730.1263 1485.9467 0.0000 0.0000 1745.4703 -7475.2777 298.4576 -9220.7479 -7381.6855 299.0703 327.3630 461.5197 29878.2625 30.4064 101.9245
ENERGY: 1500000 1.0871 12.8889 5.1027 0.0000 -10699.9810 1459.5084 0.0000 0.0000 1706.7604 -7514.6335 291.8386 -9221.3939 -7396.4109 298.7314 421.1034 472.2786 29667.1157 16.7416 83.3769
TCL: Running FEP window   8: Lambda1 0.6499999999999997 Lambda2 0.5999999999999996 [dLambda -0.050000000000000044]
TCL: Setting parameter firsttimestep to 0
TCL: Setting parameter alchLambda to 0.6499999999999997
Info: NONBONDED TABLE R-SQUARED SPACING: 0.0625
Info: NONBONDED TABLE SIZE: 705 POINTS
TCL: Setting parameter alchLambda2 to 0.5999999999999996
Info: NONBONDED TABLE R-SQUARED SPACING: 0.0625
Info: NONBONDED TABLE SIZE: 705 POINTS
TCL: Running for 1500000 steps
ETITLE: TS BOND ANGLE DIHED IMPRP ELECT VDW BOUNDARY MISC KINETIC TOTAL TEMP POTENTIAL TOTALAVG TEMPAVG PRESSURE GPRESSURE VOLUME PRESSAVG GPRESSAVG
ENERGY: 0 1.0871 12.8889 5.1027 0.0000 -10699.9520 1459.7340 0.0000 0.0000 1705.8617 -7515.2776 291.6849 -9221.1393 -7515.2776 291.6849 382.1648 465.6369 29667.1157 382.1648 465.6369
ENERGY: 300000 2.2491 15.2525 5.2050 0.0000 -10632.6310 1410.7717 0.0000 0.0000 1709.8654 -7489.2873 292.3695 -9199.1526 -7453.3034 296.8710 -202.0774 -141.6773 29998.9940 48.3049 92.1582
ENERGY: 600000 2.5204 16.4117 4.2852 0.0000 -10667.5232 1413.1977 0.0000 0.0000 1709.2702 -7521.8380 292.2677 -9231.1082 -7436.7976 298.4983 -307.6757 -228.4904 29878.2655 118.8317 176.0562
ENERGY: 900000 2.5546 16.8396 6.0235 0.0000 -10541.6511 1395.0058 0.0000 0.0000 1736.4310 -7384.7967 296.9119 -9121.2277 -7425.1661 299.4335 -345.5834 -243.3329 30362.7900 -6.7098 52.9913
ENERGY: 1200000 3.8074 14.7854 7.0935 0.0000 -10652.7066 1400.3759 0.0000 0.0000 1738.9299 -7487.7145 297.3392 -9226.6444 -7412.4449 300.2794 -753.8930 -680.6935 30530.8206 -96.2456 -38.6165
ENERGY: 1500000 2.8507 14.1184 5.6537 0.0000 -10576.7480 1421.5382 0.0000 0.0000 1730.9038 -7401.6832 295.9668 -9132.5870 -7418.3632 299.6183 67.7669 57.8087 30329.5784 -96.7126 -46.4852
TCL: Running FEP window   9: Lambda1 0.5999999999999996 Lambda2 0.5499999999999996 [dLambda -0.050000000000000044]
TCL: Setting parameter firsttimestep to 0
TCL: Setting parameter alchLambda to 0.5999999999999996
Info: NONBONDED TABLE R-SQUARED SPACING: 0.0625
Info: NONBONDED TABLE SIZE: 705 POINTS
TCL: Setting parameter alchLambda2 to 0.5499999999999996
Info: NONBONDED TABLE R-SQUARED SPACING: 0.0625
Info: NONBONDED TABLE SIZE: 705 POINTS
TCL: Running for 1500000 steps
ETITLE: TS BOND ANGLE DIHED IMPRP ELECT VDW BOUNDARY MISC KINETIC TOTAL TEMP POTENTIAL TOTALAVG TEMPAVG PRESSURE GPRESSURE VOLUME PRESSAVG GPRESSAVG
ENERGY: 0 2.8507 14.1184 5.6537 0.0000 -10576.7196 1421.8566 0.0000 0.0000 1730.0250 -7402.2151 295.8166 -9132.2401 -7402.2151 295.8166 -22.5674 49.8008 30329.5784 -22.5674 49.8008
ENERGY: 300000 1.4691 15.8490 5.7589 0.0000 -10658.6097 1436.1566 0.0000 0.0000 1767.3289 -7432.0472 302.1952 -9199.3761 -7381.2064 300.5490 88.6089 151.3887 29936.8708 -107.1371 -35.1438
ENERGY: 600000 3.1072 14.6033 5.1912 0.0000 -10625.9157 1439.3612 0.0000 0.0000 1724.1879 -7439.4649 294.8185 -9163.6528 -7396.7829 299.2237 -9.0523 41.8780 30214.6924 -13.3439 37.6075
ENERGY: 900000 1.6303 14.9622 5.3843 0.0000 -10611.1889 1379.1715 0.0000 0.0000 1769.7095 -7440.3311 302.6022 -9210.0407 -7402.9131 298.5591 -265.1626 -199.1599 29671.4264 -11.7834 34.1656
ENERGY: 1200000 2.0374 16.5052 6.0150 0.0000 -10669.7340 1432.7374 0.0000 0.0000 1780.1926 -7432.2464 304.3947 -9212.4390 -7395.7795 299.2723 -222.9450 -172.6934 30332.9847 -12.1956 31.1958
ENERGY: 1500000 4.8777 13.7733 5.4081 0.0000 -10464.6922 1326.3757 0.0000 0.0000 1738.6343 -7375.6232 297.2887 -9114.2575 -7397.4919 299.7143 -896.3945 -852.0017 30386.2189 -41.7844 3.7990
TCL: Running FEP window  10: Lambda1 0.5499999999999996 Lambda2 0.4999999999999996 [dLambda -0.04999999999999999]
TCL: Setting parameter firsttimestep to 0
TCL: Setting parameter alchLambda to 0.5499999999999996
Info: NONBONDED TABLE R-SQUARED SPACING: 0.0625
Info: NONBONDED TABLE SIZE: 705 POINTS
TCL: Setting parameter alchLambda2 to 0.4999999999999996
Info: NONBONDED TABLE R-SQUARED SPACING: 0.0625
Info: NONBONDED TABLE SIZE: 705 POINTS
TCL: Running for 1500000 steps
ETITLE: TS BOND ANGLE DIHED IMPRP ELECT VDW BOUNDARY MISC KINETIC TOTAL TEMP POTENTIAL TOTALAVG TEMPAVG PRESSURE GPRESSURE VOLUME PRESSAVG GPRESSAVG
ENERGY: 0 4.8777 13.7733 5.4081 0.0000 -10464.7225 1326.8484 0.0000 0.0000 1737.7735 -7376.0414 297.1415 -9113.8150 -7376.0414 297.1415 -934.0520 -855.3907 30386.2189 -934.0520 -855.3907
ENERGY: 300000 7.9169 21.0170 4.5131 0.0000 -10629.7705 1375.3279 0.0000 0.0000 1742.7492 -7478.2465 297.9923 -9220.9957 -7392.4507 302.2538 -831.9837 -730.6920 30506.7341 -677.3448 -628.6129
ENERGY: 600000 1.3833 17.1475 6.8628 0.0000 -10555.3725 1392.4665 0.0000 0.0000 1687.5867 -7449.9256 288.5601 -9137.5123 -7418.2386 297.5996 -365.7614 -327.0416 30401.2470 -423.3061 -383.5801
ENERGY: 900000 1.8967 12.3271 6.8489 0.0000 -10547.0542 1406.7217 0.0000 0.0000 1731.2516 -7388.0083 296.0263 -9119.2599 -7417.4125 296.8800 285.8034 380.6424 29589.9987 -276.6775 -234.3050
ENERGY: 1200000 1.8066 16.7329 4.1816 0.0000 -10608.2006 1403.4689 0.0000 0.0000 1755.0862 -7426.9243 300.1018 -9182.0105 -7412.2696 298.1466 -284.0860 -259.7100 30066.1498 -303.4531 -254.7792
ENERGY: 1500000 3.1873 10.9514 5.7743 0.0000 -10482.8616 1366.3996 0.0000 0.0000 1766.4406 -7330.1085 302.0433 -9096.5491 -7405.4991 298.5619 -558.7635 -542.8177 30432.3224 -321.0845 -272.1255
TCL: Running FEP window  11: Lambda1 0.4999999999999996 Lambda2 0.4499999999999996 [dLambda -0.04999999999999999]
TCL: Setting parameter firsttimestep to 0
TCL: Setting parameter alchLambda to 0.4999999999999996
Info: NONBONDED TABLE R-SQUARED SPACING: 0.0625
Info: NONBONDED TABLE SIZE: 705 POINTS
TCL: Setting parameter alchLambda2 to 0.4499999999999996
Info: NONBONDED TABLE R-SQUARED SPACING: 0.0625
Info: NONBONDED TABLE SIZE: 705 POINTS
TCL: Running for 1500000 steps
ETITLE: TS BOND ANGLE DIHED IMPRP ELECT VDW BOUNDARY MISC KINETIC TOTAL TEMP POTENTIAL TOTALAVG TEMPAVG PRESSURE GPRESSURE VOLUME PRESSAVG GPRESSAVG
ENERGY: 0 3.1873 10.9514 5.7743 0.0000 -10482.8767 1366.7634 0.0000 0.0000 1765.5891 -7330.6112 301.8977 -9096.2003 -7330.6112 301.8977 -626.3388 -545.0601 30432.3224 -626.3388 -545.0601
ENERGY: 300000 1.0179 17.4627 4.5483 0.0000 -10773.5273 1540.7764 0.0000 0.0000 1742.8039 -7466.9180 298.0016 -9209.7219 -7402.1462 298.6538 1066.0068 1105.4925 29713.6613 -190.8078 -124.7300
ENERGY: 600000 2.5852 11.6742 5.7329 0.0000 -10511.1032 1305.4607 0.0000 0.0000 1737.4594 -7448.1908 297.0878 -9185.6502 -7394.5228 300.1181 -1029.5919 -943.9033 30234.2255 -206.0420 -145.7431
ENERGY: 900000 3.2330 11.4457 6.6823 0.0000 -10664.0444 1456.8963 0.0000 0.0000 1733.5152 -7452.2718 296.4134 -9185.7870 -7403.0874 299.9780 103.3376 188.8895 29960.7619 -294.4786 -226.8710
ENERGY: 1200000 4.4672 15.3996 4.7745 0.0000 -10591.6829 1405.6990 0.0000 0.0000 1769.4643 -7391.8784 302.5603 -9161.3426 -7402.8425 300.0109 -369.2235 -386.9094 30302.1891 -241.5990 -180.8299
ENERGY: 1500000 4.0001 8.0313 7.0722 0.0000 -10401.6432 1233.8756 0.0000 0.0000 1713.9230 -7434.7411 293.0633 -9148.6641 -7406.5141 298.9287 -1665.5199 -1583.3267 30282.2312 -290.9650 -230.0218
TCL: Running FEP window  12: Lambda1 0.4499999999999996 Lambda2 0.39999999999999963 [dLambda -0.04999999999999999]
TCL: Setting parameter firsttimestep to 0
TCL: Setting parameter alchLambda to 0.4499999999999996
Info: NONBONDED TABLE R-SQUARED SPACING: 0.0625
Info: NONBONDED TABLE SIZE: 705 POINTS
TCL: Setting parameter alchLambda2 to 0.39999999999999963
Info: NONBONDED TABLE R-SQUARED SPACING: 0.0625
Info: NONBONDED TABLE SIZE: 705 POINTS
TCL: Running for 1500000 steps
ETITLE: TS BOND ANGLE DIHED IMPRP ELECT VDW BOUNDARY MISC KINETIC TOTAL TEMP POTENTIAL TOTALAVG TEMPAVG PRESSURE GPRESSURE VOLUME PRESSAVG GPRESSAVG
ENERGY: 0 4.0001 8.0313 7.0722 0.0000 -10401.6425 1233.3313 0.0000 0.0000 1713.0547 -7436.1529 292.9148 -9149.2076 -7436.1529 292.9148 -1681.6326 -1594.9752 30282.2312 -1681.6326 -1594.9752
ENERGY: 300000 2.0410 13.6406 7.6035 0.0000 -10571.7671 1385.0917 0.0000 0.0000 1746.3488 -7417.0415 298.6078 -9163.3903 -7420.8897 297.1399 -194.9651 -120.8354 29905.8746 -799.0548 -732.8384
ENERGY: 600000 1.0441 10.4394 5.7445 0.0000 -10614.4831 1446.6142 0.0000 0.0000 1802.4891 -7348.1517 308.2072 -9150.6409 -7408.3842 299.5639 439.8265 431.5367 29918.3110 -208.5945 -158.0607
ENERGY: 900000 1.2243 10.7760 6.6580 0.0000 -10655.6339 1480.4623 0.0000 0.0000 1754.0567 -7402.4565 299.9258 -9156.5133 -7412.5094 299.4186 223.5852 291.2983 30368.0862 -131.3941 -80.4126
ENERGY: 1200000 1.4151 13.3786 5.6554 0.0000 -10713.3253 1503.6722 0.0000 0.0000 1765.7141 -7423.4899 301.9190 -9189.2040 -7404.1944 300.4485 382.4927 415.4665 30381.9222 -128.9200 -72.9171
ENERGY: 1500000 3.6844 15.0658 6.6561 0.0000 -10618.6351 1442.9707 0.0000 0.0000 1773.0379 -7377.2202 303.1713 -9150.2581 -7392.2077 300.4571 182.2267 223.3931 29937.5182 -144.8068 -89.3866
TCL: Running FEP window  13: Lambda1 0.39999999999999963 Lambda2 0.34999999999999964 [dLambda -0.04999999999999999]
TCL: Setting parameter firsttimestep to 0
TCL: Setting parameter alchLambda to 0.39999999999999963
Info: NONBONDED TABLE R-SQUARED SPACING: 0.0625
Info: NONBONDED TABLE SIZE: 705 POINTS
TCL: Setting parameter alchLambda2 to 0.34999999999999964
Info: NONBONDED TABLE R-SQUARED SPACING: 0.0625
Info: NONBONDED TABLE SIZE: 705 POINTS
TCL: Running for 1500000 steps
ETITLE: TS BOND ANGLE DIHED IMPRP ELECT VDW BOUNDARY MISC KINETIC TOTAL TEMP POTENTIAL TOTALAVG TEMPAVG PRESSURE GPRESSURE VOLUME PRESSAVG GPRESSAVG
ENERGY: 0 3.6844 15.0658 6.6561 0.0000 -10618.6364 1442.9868 0.0000 0.0000 1772.1652 -7378.0780 303.0221 -9150.2432 -7378.0780 303.0221 132.7452 215.8682 29937.5182 132.7452 215.8682
ENERGY: 300000 3.4389 14.8523 5.8893 0.0000 -10501.7993 1399.6756 0.0000 0.0000 1764.2208 -7313.7224 301.6637 -9077.9432 -7363.9071 301.1115 146.9738 224.9674 29799.0830 -129.2693 -55.4978
ENERGY: 600000 1.9302 15.0371 4.2360 0.0000 -10623.5926 1407.0698 0.0000 0.0000 1731.0595 -7464.2600 295.9935 -9195.3195 -7385.6127 301.3058 -272.1040 -153.7588 29797.5307 5.3181 76.9002
ENERGY: 900000 1.9607 15.2263 4.2728 0.0000 -10504.0158 1443.0467 0.0000 0.0000 1747.4361 -7292.0733 298.7937 -9039.5093 -7367.5184 300.7502 178.2388 274.3269 30728.0946 38.4758 108.0337
ENERGY: 1200000 5.4828 14.3224 5.2535 0.0000 -10628.9431 1441.2242 0.0000 0.0000 1753.3816 -7409.2787 299.8103 -9162.6603 -7370.8193 301.1485 103.5314 153.6212 29824.6689 25.7746 88.0745
ENERGY: 1500000 2.4516 15.3658 5.8553 0.0000 -10569.9566 1414.5991 0.0000 0.0000 1768.5805 -7363.1043 302.4092 -9131.6848 -7371.7224 302.0696 -110.9960 -76.6223 30491.8816 45.8088 109.0611
TCL: Running FEP window  14: Lambda1 0.34999999999999964 Lambda2 0.29999999999999966 [dLambda -0.04999999999999999]
TCL: Setting parameter firsttimestep to 0
TCL: Setting parameter alchLambda to 0.34999999999999964
Info: NONBONDED TABLE R-SQUARED SPACING: 0.0625
Info: NONBONDED TABLE SIZE: 705 POINTS
TCL: Setting parameter alchLambda2 to 0.29999999999999966
Info: NONBONDED TABLE R-SQUARED SPACING: 0.0625
Info: NONBONDED TABLE SIZE: 705 POINTS
TCL: Running for 1500000 steps
ETITLE: TS BOND ANGLE DIHED IMPRP ELECT VDW BOUNDARY MISC KINETIC TOTAL TEMP POTENTIAL TOTALAVG TEMPAVG PRESSURE GPRESSURE VOLUME PRESSAVG GPRESSAVG
ENERGY: 0 2.4516 15.3658 5.8553 0.0000 -10569.9582 1415.2301 0.0000 0.0000 1767.6920 -7363.3634 302.2572 -9131.0554 -7363.3634 302.2572 -144.1566 -75.6399 30491.8816 -144.1566 -75.6399
ENERGY: 300000 2.7823 15.6025 6.5960 0.0000 -10564.1249 1396.3204 0.0000 0.0000 1819.9996 -7322.8241 311.2013 -9142.8237 -7364.4661 307.3667 -388.1262 -327.2333 30402.0908 -241.0417 -179.7774
ENERGY: 600000 1.2333 12.7541 5.8370 0.0000 -10570.0936 1402.2770 0.0000 0.0000 1804.2099 -7343.7824 308.5014 -9147.9923 -7388.3855 303.2235 -23.1179 56.6548 29781.0833 -198.9564 -140.7897
ENERGY: 900000 2.8251 13.9354 4.0404 0.0000 -10510.3283 1357.4110 0.0000 0.0000 1803.8932 -7328.2232 308.4473 -9132.1163 -7376.9450 303.3730 -705.2355 -644.1177 30669.3135 -276.3351 -221.6908
ENERGY: 1200000 5.1947 13.9086 4.5267 0.0000 -10533.4266 1406.1312 0.0000 0.0000 1741.2661 -7362.3992 297.7387 -9103.6653 -7383.7969 303.4661 -386.7393 -308.2216 30705.3139 -246.6517 -201.2885
ENERGY: 1500000 5.6571 13.2915 9.4057 0.0000 -10648.6927 1552.4484 0.0000 0.0000 1734.7845 -7333.1055 296.6304 -9067.8900 -7374.3461 303.2420 1136.7479 1145.2235 30187.0482 -111.5098 -67.7258
TCL: Running FEP window  15: Lambda1 0.29999999999999966 Lambda2 0.24999999999999967 [dLambda -0.04999999999999999]
TCL: Setting parameter firsttimestep to 0
TCL: Setting parameter alchLambda to 0.29999999999999966
Info: NONBONDED TABLE R-SQUARED SPACING: 0.0625
Info: NONBONDED TABLE SIZE: 705 POINTS
TCL: Setting parameter alchLambda2 to 0.24999999999999967
Info: NONBONDED TABLE R-SQUARED SPACING: 0.0625
Info: NONBONDED TABLE SIZE: 705 POINTS
TCL: Running for 1500000 steps
ETITLE: TS BOND ANGLE DIHED IMPRP ELECT VDW BOUNDARY MISC KINETIC TOTAL TEMP POTENTIAL TOTALAVG TEMPAVG PRESSURE GPRESSURE VOLUME PRESSAVG GPRESSAVG
ENERGY: 0 5.6571 13.2915 9.4057 0.0000 -10648.6924 1553.0274 0.0000 0.0000 1733.9194 -7333.3911 296.4825 -9067.3106 -7333.3911 296.4825 1061.5652 1144.1956 30187.0482 1061.5652 1144.1956
ENERGY: 300000 2.2114 12.1563 7.3125 0.0000 -10602.4708 1373.4943 0.0000 0.0000 1757.4045 -7449.8918 300.4982 -9207.2963 -7410.1716 296.8579 -696.0615 -695.3605 30357.0726 392.1847 460.3274
ENERGY: 600000 2.9475 10.7111 6.5538 0.0000 -10480.1387 1321.4240 0.0000 0.0000 1768.1551 -7370.3472 302.3364 -9138.5023 -7423.0858 297.4781 -987.9887 -923.8054 30585.9584 107.4101 170.7069
ENERGY: 900000 3.1766 15.8530 4.1153 0.0000 -10600.3049 1410.0750 0.0000 0.0000 1740.1871 -7426.8979 297.5542 -9167.0850 -7410.4648 298.7642 -342.6902 -248.7904 29954.0978 -16.7101 40.9441
ENERGY: 1200000 1.8671 14.3731 6.8840 0.0000 -10648.7022 1416.9823 0.0000 0.0000 1708.7202 -7499.8755 292.1737 -9208.5956 -7405.6176 298.6181 -304.7690 -234.9141 30139.1408 -91.2944 -31.0181
ENERGY: 1500000 0.8281 9.9182 7.0030 0.0000 -10485.2385 1307.2524 0.0000 0.0000 1773.3189 -7386.9180 303.2194 -9160.2368 -7406.5142 298.8872 -968.0849 -909.7712 30435.6508 -140.4640 -81.5630
TCL: Running FEP window  16: Lambda1 0.24999999999999967 Lambda2 0.19999999999999968 [dLambda -0.04999999999999999]
TCL: Setting parameter firsttimestep to 0
TCL: Setting parameter alchLambda to 0.24999999999999967
Info: NONBONDED TABLE R-SQUARED SPACING: 0.0625
Info: NONBONDED TABLE SIZE: 705 POINTS
TCL: Setting parameter alchLambda2 to 0.19999999999999968
Info: NONBONDED TABLE R-SQUARED SPACING: 0.0625
Info: NONBONDED TABLE SIZE: 705 POINTS
TCL: Running for 1500000 steps
ETITLE: TS BOND ANGLE DIHED IMPRP ELECT VDW BOUNDARY MISC KINETIC TOTAL TEMP POTENTIAL TOTALAVG TEMPAVG PRESSURE GPRESSURE VOLUME PRESSAVG GPRESSAVG
ENERGY: 0 0.8281 9.9182 7.0030 0.0000 -10485.2383 1307.8725 0.0000 0.0000 1772.4543 -7387.1622 303.0715 -9159.6165 -7387.1622 303.0715 -1007.9272 -912.0289 30435.6508 -1007.9272 -912.0289
ENERGY: 300000 2.0717 14.2000 6.5850 0.0000 -10660.2221 1476.2371 0.0000 0.0000 1706.3196 -7454.8085 291.7632 -9161.1282 -7392.6206 300.0597 383.2467 388.1892 29958.6827 69.5679 121.2881
ENERGY: 600000 0.8036 17.1442 7.2481 0.0000 -10586.8014 1405.2012 0.0000 0.0000 1754.5889 -7401.8154 300.0168 -9156.4043 -7387.3744 300.5908 -86.7223 -1.4583 30042.7743 97.6940 148.4449
ENERGY: 900000 2.0120 12.6842 6.3444 0.0000 -10611.9452 1431.4672 0.0000 0.0000 1727.3428 -7432.0946 295.3579 -9159.4374 -7405.3596 300.4370 143.5523 210.0430 29925.1981 26.8243 81.1115
ENERGY: 1200000 6.8686 15.0757 5.2450 0.0000 -10623.6973 1445.4144 0.0000 0.0000 1748.7326 -7402.3610 299.0154 -9151.0936 -7390.0258 301.3920 -73.6658 -39.8919 30423.4425 -88.1137 -37.3860
ENERGY: 1500000 6.7428 16.8106 5.3973 0.0000 -10553.0513 1386.6654 0.0000 0.0000 1751.4414 -7385.9939 299.4786 -9137.4353 -7393.8387 300.0787 -407.7655 -353.7465 30101.4707 -189.9994 -140.2878
TCL: Running FEP window  17: Lambda1 0.19999999999999968 Lambda2 0.1499999999999997 [dLambda -0.04999999999999999]
TCL: Setting parameter firsttimestep to 0
TCL: Setting parameter alchLambda to 0.19999999999999968
Info: NONBONDED TABLE R-SQUARED SPACING: 0.0625
Info: NONBONDED TABLE SIZE: 705 POINTS
TCL: Setting parameter alchLambda2 to 0.1499999999999997
Info: NONBONDED TABLE R-SQUARED SPACING: 0.0625
Info: NONBONDED TABLE SIZE: 705 POINTS
TCL: Running for 1500000 steps
ETITLE: TS BOND ANGLE DIHED IMPRP ELECT VDW BOUNDARY MISC KINETIC TOTAL TEMP POTENTIAL TOTALAVG TEMPAVG PRESSURE GPRESSURE VOLUME PRESSAVG GPRESSAVG
ENERGY: 0 6.7428 16.8106 5.3973 0.0000 -10553.0513 1387.2959 0.0000 0.0000 1750.5835 -7386.2213 299.3319 -9136.8048 -7386.2213 299.3319 -435.6826 -355.4723 30101.4707 -435.6826 -355.4723
ENERGY: 300000 6.1430 12.4259 7.0955 0.0000 -10637.2701 1451.9686 0.0000 0.0000 1788.4184 -7371.2188 305.8012 -9159.6372 -7375.5223 303.9792 332.8332 401.9052 29594.0204 -91.6144 -17.3356
ENERGY: 600000 1.1865 13.5796 7.1071 0.0000 -10625.0323 1473.6158 0.0000 0.0000 1749.3390 -7380.2043 299.1191 -9129.5433 -7407.5244 301.4019 594.9915 654.0079 29806.6742 303.2557 356.6755
ENERGY: 900000 3.1476 15.4959 4.8806 0.0000 -10727.1746 1511.4763 0.0000 0.0000 1718.6770 -7473.4972 293.8762 -9192.1743 -7412.4183 301.0243 531.8946 654.3414 29955.4714 381.6124 449.0849
ENERGY: 1200000 1.4586 14.4224 3.3352 0.0000 -10616.2006 1432.5564 0.0000 0.0000 1739.3010 -7425.1271 297.4027 -9164.4281 -7411.3601 299.6420 104.2950 121.5189 29997.6777 256.7909 314.5324
ENERGY: 1500000 4.7013 20.2584 7.8449 0.0000 -10437.9974 1374.1867 0.0000 0.0000 1725.3992 -7305.6071 295.0256 -9031.0062 -7404.5762 298.7891 -367.1412 -350.4010 30239.1891 112.1185 166.3468
TCL: Running FEP window  18: Lambda1 0.1499999999999997 Lambda2 0.09999999999999969 [dLambda -0.05 ]
TCL: Setting parameter firsttimestep to 0
TCL: Setting parameter alchLambda to 0.1499999999999997
Info: NONBONDED TABLE R-SQUARED SPACING: 0.0625
Info: NONBONDED TABLE SIZE: 705 POINTS
TCL: Setting parameter alchLambda2 to 0.09999999999999969
Info: NONBONDED TABLE R-SQUARED SPACING: 0.0625
Info: NONBONDED TABLE SIZE: 705 POINTS
TCL: Running for 1500000 steps
ETITLE: TS BOND ANGLE DIHED IMPRP ELECT VDW BOUNDARY MISC KINETIC TOTAL TEMP POTENTIAL TOTALAVG TEMPAVG PRESSURE GPRESSURE VOLUME PRESSAVG GPRESSAVG
ENERGY: 0 4.7013 20.2584 7.8449 0.0000 -10437.9971 1373.8527 0.0000 0.0000 1724.4846 -7306.8552 294.8692 -9031.3399 -7306.8552 294.8692 -428.4975 -350.8620 30239.1891 -428.4975 -350.8620
ENERGY: 300000 4.9557 13.1134 4.5051 0.0000 -10625.7948 1416.5517 0.0000 0.0000 1744.5879 -7442.0810 298.3067 -9186.6689 -7402.7467 297.1297 -448.0800 -457.2854 30345.4675 -374.6302 -323.8141
ENERGY: 600000 4.5899 13.6732 4.0028 0.0000 -10542.7102 1452.1094 0.0000 0.0000 1708.9330 -7359.4019 292.2101 -9068.3349 -7423.5673 297.0181 316.7496 347.1580 30117.2179 -68.1626 -7.5791
ENERGY: 900000 0.3395 18.9980 6.3585 0.0000 -10627.5480 1463.3549 0.0000 0.0000 1779.5297 -7358.9674 304.2814 -9138.4972 -7413.3597 298.3963 159.2374 255.2391 30240.5308 -43.5453 18.7600
ENERGY: 1200000 4.6799 11.7325 6.1271 0.0000 -10450.6186 1338.6973 0.0000 0.0000 1709.0641 -7380.3178 292.2325 -9089.3818 -7401.4356 299.0166 -771.5884 -712.8020 30164.5492 -142.3380 -75.3372
ENERGY: 1500000 3.6869 14.0533 5.7641 0.0000 -10530.8580 1401.6637 0.0000 0.0000 1715.3799 -7390.3101 293.3124 -9105.6900 -7398.9853 299.1744 -313.1180 -245.2615 30217.5798 -78.9986 -15.5101
TCL: Running FEP window  19: Lambda1 0.09999999999999969 Lambda2 0.049999999999999684 [dLambda -0.05 ]
TCL: Setting parameter firsttimestep to 0
TCL: Setting parameter alchLambda to 0.09999999999999969
Info: NONBONDED TABLE R-SQUARED SPACING: 0.0625
Info: NONBONDED TABLE SIZE: 705 POINTS
TCL: Setting parameter alchLambda2 to 0.049999999999999684
Info: NONBONDED TABLE R-SQUARED SPACING: 0.0625
Info: NONBONDED TABLE SIZE: 705 POINTS
TCL: Running for 1500000 steps
ETITLE: TS BOND ANGLE DIHED IMPRP ELECT VDW BOUNDARY MISC KINETIC TOTAL TEMP POTENTIAL TOTALAVG TEMPAVG PRESSURE GPRESSURE VOLUME PRESSAVG GPRESSAVG
ENERGY: 0 3.6869 14.0533 5.7641 0.0000 -10530.8582 1401.5760 0.0000 0.0000 1714.5053 -7391.2726 293.1629 -9105.7779 -7391.2726 293.1629 -342.8138 -249.7732 30217.5798 -342.8138 -249.7732
ENERGY: 300000 1.9438 14.2721 6.3041 0.0000 -10550.2407 1400.3015 0.0000 0.0000 1731.7446 -7395.6747 296.1106 -9127.4192 -7382.3024 295.0415 -448.2005 -347.6088 30301.7764 -488.0681 -412.5611
ENERGY: 600000 0.9948 15.5785 3.8983 0.0000 -10591.3901 1463.1012 0.0000 0.0000 1759.8060 -7348.0113 300.9088 -9107.8173 -7377.9042 297.2413 300.4414 299.8624 30365.4432 -300.3526 -245.2373
ENERGY: 900000 3.3772 17.0169 5.6529 0.0000 -10523.0009 1365.9223 0.0000 0.0000 1767.7473 -7363.2843 302.2667 -9131.0316 -7378.3305 298.8793 -592.6420 -487.0936 30072.0052 -270.7968 -210.8831
ENERGY: 1200000 3.1969 12.9772 5.2242 0.0000 -10635.0966 1485.1340 0.0000 0.0000 1789.1825 -7339.3819 305.9319 -9128.5644 -7377.2504 299.5853 801.4660 837.5625 29522.8397 -119.4449 -62.6370
ENERGY: 1500000 5.2253 14.5166 5.5432 0.0000 -10462.8183 1361.8766 0.0000 0.0000 1778.8053 -7296.8512 304.1575 -9075.6565 -7383.8858 300.0124 -220.4186 -127.3970 29700.2712 -93.3001 -38.6972
TCL: Running FEP window  20: Lambda1 0.049999999999999684 Lambda2 0.0    [dLambda -0.049999999999999684]
TCL: Setting parameter firsttimestep to 0
TCL: Setting parameter alchLambda to 0.049999999999999684
Info: NONBONDED TABLE R-SQUARED SPACING: 0.0625
Info: NONBONDED TABLE SIZE: 705 POINTS
TCL: Setting parameter alchLambda2 to 0.0
Info: NONBONDED TABLE R-SQUARED SPACING: 0.0625
Info: NONBONDED TABLE SIZE: 705 POINTS
TCL: Running for 1500000 steps
ETITLE: TS BOND ANGLE DIHED IMPRP ELECT VDW BOUNDARY MISC KINETIC TOTAL TEMP POTENTIAL TOTALAVG TEMPAVG PRESSURE GPRESSURE VOLUME PRESSAVG GPRESSAVG
ENERGY: 0 5.2253 14.5166 5.5432 0.0000 -10462.8174 1362.4339 0.0000 0.0000 1777.9451 -7297.1533 304.0104 -9075.0983 -7297.1533 304.0104 -225.3935 -128.4749 29700.2712 -225.3935 -128.4749
ENERGY: 300000 2.5190 11.2121 8.0918 0.0000 -10573.2766 1415.3198 0.0000 0.0000 1713.6773 -7422.4566 293.0213 -9136.1338 -7385.5733 299.3546 -310.3011 -285.7447 30592.7292 61.5025 123.5280
ENERGY: 600000 4.9902 18.7224 3.7686 0.0000 -10444.7465 1296.7168 0.0000 0.0000 1775.3488 -7345.1997 303.5665 -9120.5485 -7381.3407 300.5070 -1091.2852 -1041.7995 30175.2316 -154.6433 -95.5702
ENERGY: 900000 2.6415 14.4343 6.6090 0.0000 -10658.0514 1427.4897 0.0000 0.0000 1742.7884 -7464.0887 297.9990 -9206.8770 -7395.7794 300.9530 400.6490 422.6063 29127.0113 51.1914 109.2936
ENERGY: 1200000 1.0254 18.2715 5.9542 0.0000 -10785.0279 1522.0409 0.0000 0.0000 1820.9615 -7416.7743 311.3658 -9237.7359 -7391.6245 301.6590 381.7078 430.5929 30176.4456 76.2218 117.7504
ENERGY: 1500000 3.6509 16.6243 3.5972 0.0000 -10531.6249 1425.2112 0.0000 0.0000 1745.9057 -7336.6356 298.5320 -9082.5413 -7391.9973 301.3284 -185.9907 -189.0550 30734.9491 120.2346 159.6022
TCL: Exiting due to exit command.
