Info: SIMULATION PARAMETERS:
Info: TIMESTEP               2
Info: NUMBER OF STEPS        0
Info: STEPS PER CYCLE        10
Info: PERIODIC CELL BASIS 1  31.0596 0 0
Info: PERIODIC CELL BASIS 2  0 31.7419 0
Info: PERIODIC CELL BASIS 3  0 0 31.6221
Info: PERIODIC CELL CENTER   0 0 0
Info: WRAPPING WATERS AROUND PERIODIC BOUNDARIES ON OUTPUT.
Info: WRAPPING ALL CLUSTERS AROUND PERIODIC BOUNDARIES ON OUTPUT.
Info: FIRST LDB TIMESTEP     50
Info: LAST LDB TIMESTEP     -1
Info: HOM BACKGROUND SCALING 1
Info: PME BACKGROUND SCALING 1
Info: MIN ATOMS PER PATCH    40
Info: EMPTY PATCH LOAD       40 ATOMS
Info: VELOCITY FILE          mobley_1923244_equil.vel
Info: CENTER OF MASS MOVING INITIALLY? NO
Info: DIELECTRIC             1
Info: EXCLUDE                SCALED ONE-FOUR
Info: 1-4 ELECTROSTATICS SCALED BY 0.833333
Info: MODIFIED 1-4 VDW PARAMETERS WILL BE USED
Info: DCD FILENAME           mobley_1923244_prod.dcd
Info: DCD FREQUENCY          100000
Info: DCD FIRST STEP         100000
Info: DCD FILE WILL CONTAIN UNIT CELL DATA
Info: XST FILENAME           mobley_1923244_prod.xst
Info: XST FREQUENCY          100000
Info: NO VELOCITY DCD OUTPUT
Info: NO FORCE DCD OUTPUT
Info: OUTPUT FILENAME        mobley_1923244_prod
Info: BINARY OUTPUT FILES WILL BE USED
Info: RESTART FILENAME       mobley_1923244_prod.restart
Info: RESTART FREQUENCY      100000
Info: BINARY RESTART FILES WILL BE USED
Info: CUTOFF                 9
Info: PAIRLIST DISTANCE      11
Info: PAIRLIST SHRINK RATE   0.01
Info: PAIRLIST GROW RATE     0.01
Info: PAIRLIST TRIGGER       0.3
Info: PAIRLISTS PER CYCLE    2
Info: PAIRLISTS ENABLED
Info: MARGIN                 2
Info: HYDROGEN GROUP CUTOFF  2.5
Info: PATCH DIMENSION        15.5
Info: ENERGY OUTPUT STEPS    100000
Info: ENERGY EVALUATION STEPS    100000
Info: OUTPUT ENERGY PRECISION 4
Info: CROSSTERM ENERGY INCLUDED IN DIHEDRAL
Info: TIMING OUTPUT STEPS    1000000
Info: PRESSURE OUTPUT STEPS  100000
Info: ALCHEMICAL FEP ON
Info: FEP CURRENT LAMBDA VALUE     1
Info: FEP COMPARISON LAMBDA VALUE  0.95
Info: FEP INTRA-ALCHEMICAL NON-BONDED INTERACTIONS WILL BE RETAINED
Info: FEP INTRA-ALCHEMICAL BONDED INTERACTIONS WILL BE RETAINED
Info: FEP VDW SHIFTING COEFFICIENT 5
Info: FEP ELEC. ACTIVE FOR ANNIHILATED PARTICLES BETWEEN LAMBDA = 0 AND LAMBDA = 0.5
Info: FEP ELEC. ACTIVE FOR EXNIHILATED PARTICLES BETWEEN LAMBDA = 0.5 AND LAMBDA = 1
Info: FEP VDW ACTIVE FOR ANNIHILATED PARTICLES BETWEEN LAMBDA = 0 AND LAMBDA = 1
Info: FEP VDW ACTIVE FOR EXNIHILATED PARTICLES BETWEEN LAMBDA = 0 AND LAMBDA = 1
Info: FEP BOND ACTIVE FOR ANNIHILATED PARTICLES BETWEEN LAMBDA = 1 AND LAMBDA = 1
Info: FEP BOND ACTIVE FOR EXNIHILATED PARTICLES BETWEEN LAMBDA = 0 AND LAMBDA = 0
Info: LANGEVIN DYNAMICS ACTIVE
Info: LANGEVIN TEMPERATURE   300
Info: LANGEVIN USING BBK INTEGRATOR
Info: LANGEVIN DAMPING COEFFICIENT IS 1 INVERSE PS
Info: LANGEVIN DYNAMICS APPLIED TO HYDROGENS
Info: LANGEVIN PISTON PRESSURE CONTROL ACTIVE
Info:        TARGET PRESSURE IS 1.01325 BAR
Info:     OSCILLATION PERIOD IS 50 FS
Info:             DECAY TIME IS 25 FS
Info:     PISTON TEMPERATURE IS 300 K
Info:       PRESSURE CONTROL IS GROUP-BASED
Info:    INITIAL STRAIN RATE IS 0.000272571 0.000272571 0.000272571
Info:       CELL FLUCTUATION IS ISOTROPIC
Info: PARTICLE MESH EWALD (PME) ACTIVE
Info: PME TOLERANCE               1e-06
Info: PME EWALD COEFFICIENT       0.348832
Info: PME INTERPOLATION ORDER     4
Info: PME GRID DIMENSIONS         32 32 32
Info: PME MAXIMUM GRID SPACING    1
Info: PME CALCULATION WILL BE PERFORMED ON GPU
Info: FULL ELECTROSTATIC EVALUATION FREQUENCY      2
Info: USING VERLET I (r-RESPA) MTS SCHEME.
Info: C1 SPLITTING OF LONG RANGE ELECTROSTATICS
Info: PLACING ATOMS IN PATCHES BY HYDROGEN GROUPS
Info: RIGID BONDS TO HYDROGEN : ALL
Info:         ERROR TOLERANCE : 1e-08
Info:          MAX ITERATIONS : 100
Info: RIGID WATER USING SETTLE ALGORITHM
Info: RANDOM NUMBER SEED     1743738490
Info: USE HYDROGEN BONDS?    NO
Info: Using AMBER format force field!
Info: AMBER PARM FILE        mobley_1923244.prmtop
Info: COORDINATE PDB         mobley_1923244.pdb
Info: Exclusions will be read from PARM file!
Info: SCNB (VDW SCALING)     2
Info: USING ARITHMETIC MEAN TO COMBINE L-J SIGMA PARAMETERS
Info: BINARY COORDINATES     mobley_1923244_equil.coor
Info: SUMMARY OF PARAMETERS:
Info: 4 BONDS
Info: 3 ANGLES
Info:   3 HARMONIC
Info:   0 COSINE-BASED
Info: 5 DIHEDRAL
Info: 0 IMPROPER
Info: 0 CROSSTERM
Info: 0 VDW
Info: 10 VDW_PAIRS
Info: 0 NBTHOLE_PAIRS
Info: To read alchdata from file: mobley_1923244.pdb
Info: To read alchflag data from column: 5
Info: STRUCTURE SUMMARY:
Info: 2981 ATOMS
Info: 2980 BONDS
Info: 24 ANGLES
Info: 29 DIHEDRALS
Info: 0 IMPROPERS
Info: 0 CROSSTERMS
Info: 3031 EXCLUSIONS
Info: 2977 RIGID BONDS
Info: ALCH: 0 ATOMS TO DISAPPEAR IN FINAL STATE
Info: ALCH: 14 ATOMS TO APPEAR IN FINAL STATE
Info: 5966 DEGREES OF FREEDOM
Info: 993 HYDROGEN GROUPS
Info: 4 ATOMS IN LARGEST HYDROGEN GROUP
Info: 993 MIGRATION GROUPS
Info: 4 ATOMS IN LARGEST MIGRATION GROUP
Info: TOTAL MASS = 17875.9 amu
Info: TOTAL CHARGE = 0.000200011 e
Info: MASS DENSITY = 0.952159 g/cm^3
Info: ATOM DENSITY = 0.0956188 atoms/A^3
Info: ADDED 0 IMPLICIT EXCLUSIONS
Info: NONBONDED TABLE R-SQUARED SPACING: 0.0625
Info: NONBONDED TABLE SIZE: 705 POINTS
Info: REDUCING NUMBER OF PATCHES TO IMPROVE LOAD BALANCE
Info: REMOVING COM VELOCITY 0.0623052 0.000743677 -0.00134514
Info: Use 3D box decompostion in PME FFT.
Info: Updated CUDA force table with 4096 elements.
Info: Updated CUDA LJ table with 4 x 4 elements.
Info: Found 17 unique exclusion lists needing 36 bytes
TCL: Running for 1500000 steps
ETITLE: TS BOND ANGLE DIHED IMPRP ELECT VDW BOUNDARY MISC KINETIC TOTAL TEMP POTENTIAL TOTALAVG TEMPAVG PRESSURE GPRESSURE VOLUME PRESSAVG GPRESSAVG
ENERGY: 0 0.4655 4.6605 0.7092 0.0000 -10566.1282 1276.9405 0.0000 0.0000 1778.0313 -7505.3211 299.9484 -9283.3524 -7505.3211 299.9484 -1400.3691 -1325.3564 31175.8937 -1400.3691 -1325.3564
ENERGY: 300000 3.3417 9.8956 1.3883 0.0000 -10707.4977 1432.8560 0.0000 0.0000 1809.3738 -7450.6423 305.2358 -9260.0161 -7496.9639 303.4726 128.1391 184.6951 30623.2305 -336.4138 -255.8624
ENERGY: 600000 0.6624 8.7262 2.3868 0.0000 -10767.8935 1400.8064 0.0000 0.0000 1816.9596 -7538.3522 306.5155 -9355.3118 -7517.5434 303.5692 -420.1730 -350.9925 30666.6336 -198.4474 -129.3105
ENERGY: 900000 0.5345 4.2438 0.6747 0.0000 -10906.0819 1481.9320 0.0000 0.0000 1785.2658 -7633.4311 301.1688 -9418.6969 -7555.6850 301.5099 116.0973 202.9315 30855.4235 -145.3557 -79.5208
ENERGY: 1200000 0.9392 6.9249 1.5395 0.0000 -10759.9064 1426.0532 0.0000 0.0000 1819.7880 -7504.6616 306.9926 -9324.4495 -7551.3248 302.3663 34.1057 142.7351 30337.4306 -143.3465 -68.1493
ENERGY: 1500000 1.1674 5.8147 2.9999 0.0000 -10812.2407 1475.4761 0.0000 0.0000 1762.2795 -7564.5032 297.2911 -9326.7827 -7551.0672 302.0045 394.6359 379.9179 30319.0809 -71.7045 -2.6054
TCL: Running FEP window   2: Lambda1 0.95   Lambda2 0.8999999999999999 [dLambda -0.050000000000000044]
TCL: Setting parameter firsttimestep to 0
TCL: Setting parameter alchLambda to 0.95
Info: NONBONDED TABLE R-SQUARED SPACING: 0.0625
Info: NONBONDED TABLE SIZE: 705 POINTS
TCL: Setting parameter alchLambda2 to 0.8999999999999999
Info: NONBONDED TABLE R-SQUARED SPACING: 0.0625
Info: NONBONDED TABLE SIZE: 705 POINTS
TCL: Running for 1500000 steps
ETITLE: TS BOND ANGLE DIHED IMPRP ELECT VDW BOUNDARY MISC KINETIC TOTAL TEMP POTENTIAL TOTALAVG TEMPAVG PRESSURE GPRESSURE VOLUME PRESSAVG GPRESSAVG
ENERGY: 0 1.1674 5.8147 2.9999 0.0000 -10812.2285 1475.6998 0.0000 0.0000 1761.3937 -7565.1531 297.1417 -9326.5468 -7565.1531 297.1417 299.4207 374.2961 30319.0809 299.4207 374.2961
ENERGY: 300000 1.4023 4.9551 4.0853 0.0000 -10797.1428 1478.4198 0.0000 0.0000 1822.6396 -7485.6406 307.4737 -9308.2802 -7508.0439 304.8246 288.1533 382.8313 30613.4624 309.5027 387.8622
ENERGY: 600000 0.0810 7.5607 1.5681 0.0000 -10757.4562 1390.3089 0.0000 0.0000 1765.0004 -7592.9372 297.7501 -9357.9376 -7537.9124 302.7153 -729.7420 -655.8015 30948.4002 -10.5363 57.1657
ENERGY: 900000 1.1877 4.6255 2.7878 0.0000 -10933.0558 1559.8178 0.0000 0.0000 1752.0427 -7612.5944 295.5642 -9364.6370 -7570.4610 300.1849 814.8227 853.0612 30509.8961 39.9899 99.6047
ENERGY: 1200000 0.8247 8.1226 1.5786 0.0000 -10766.7781 1439.2169 0.0000 0.0000 1791.6891 -7525.3462 302.2524 -9317.0353 -7563.9032 299.9632 -29.7557 44.5283 30658.6796 17.4364 74.4710
ENERGY: 1500000 0.4647 6.4589 1.9152 0.0000 -10626.1814 1307.3981 0.0000 0.0000 1812.0015 -7497.9430 305.6791 -9309.9445 -7555.3067 300.7590 -973.7050 -952.3984 30824.6588 -0.7553 57.2978
TCL: Running FEP window   3: Lambda1 0.8999999999999999 Lambda2 0.8499999999999999 [dLambda -0.050000000000000044]
TCL: Setting parameter firsttimestep to 0
TCL: Setting parameter alchLambda to 0.8999999999999999
Info: NONBONDED TABLE R-SQUARED SPACING: 0.0625
Info: NONBONDED TABLE SIZE: 705 POINTS
TCL: Setting parameter alchLambda2 to 0.8499999999999999
Info: NONBONDED TABLE R-SQUARED SPACING: 0.0625
Info: NONBONDED TABLE SIZE: 705 POINTS
TCL: Running for 1500000 steps
ETITLE: TS BOND ANGLE DIHED IMPRP ELECT VDW BOUNDARY MISC KINETIC TOTAL TEMP POTENTIAL TOTALAVG TEMPAVG PRESSURE GPRESSURE VOLUME PRESSAVG GPRESSAVG
ENERGY: 0 0.4647 6.4589 1.9152 0.0000 -10626.1776 1307.3317 0.0000 0.0000 1811.1063 -7498.9009 305.5280 -9310.0071 -7498.9009 305.5280 -1051.5996 -961.9018 30824.6588 -1051.5996 -961.9018
ENERGY: 300000 0.0546 3.3053 1.3015 0.0000 -10693.7850 1399.5218 0.0000 0.0000 1752.3760 -7537.2257 295.6204 -9289.6017 -7525.1822 296.8262 -420.8720 -347.5275 31055.0799 -648.0066 -566.5376
ENERGY: 600000 0.0818 8.4566 1.2187 0.0000 -10631.2105 1349.1876 0.0000 0.0000 1795.6099 -7476.6559 302.9138 -9272.2657 -7549.2620 297.1422 -501.5776 -514.0687 30644.8983 -589.7011 -541.6960
ENERGY: 900000 1.0162 6.8945 1.7614 0.0000 -10710.6817 1384.3817 0.0000 0.0000 1795.8740 -7520.7540 302.9584 -9316.6279 -7537.6526 298.5530 -601.1470 -572.3074 30772.9287 -447.4045 -404.4625
ENERGY: 1200000 0.2739 3.9410 1.0076 0.0000 -10811.6747 1455.2127 0.0000 0.0000 1739.2269 -7612.0127 293.4022 -9351.2396 -7544.0777 299.1657 -264.8525 -176.4629 30974.3565 -354.0308 -302.3816
ENERGY: 1500000 0.3579 5.4445 0.8033 0.0000 -10747.4795 1427.5151 0.0000 0.0000 1747.2750 -7566.0836 294.7599 -9313.3586 -7544.7379 299.4337 -246.7155 -116.9128 30827.2495 -305.6311 -251.0387
TCL: Running FEP window   4: Lambda1 0.8499999999999999 Lambda2 0.7999999999999998 [dLambda -0.050000000000000044]
TCL: Setting parameter firsttimestep to 0
TCL: Setting parameter alchLambda to 0.8499999999999999
Info: NONBONDED TABLE R-SQUARED SPACING: 0.0625
Info: NONBONDED TABLE SIZE: 705 POINTS
TCL: Setting parameter alchLambda2 to 0.7999999999999998
Info: NONBONDED TABLE R-SQUARED SPACING: 0.0625
Info: NONBONDED TABLE SIZE: 705 POINTS
TCL: Running for 1500000 steps
ETITLE: TS BOND ANGLE DIHED IMPRP ELECT VDW BOUNDARY MISC KINETIC TOTAL TEMP POTENTIAL TOTALAVG TEMPAVG PRESSURE GPRESSURE VOLUME PRESSAVG GPRESSAVG
ENERGY: 0 0.3579 5.4445 0.8033 0.0000 -10747.4839 1427.4435 0.0000 0.0000 1746.4020 -7567.0327 294.6126 -9313.4346 -7567.0327 294.6126 -207.5880 -129.6985 30827.2495 -207.5880 -129.6985
ENERGY: 300000 1.0837 8.7368 1.0877 0.0000 -10824.9211 1438.6702 0.0000 0.0000 1827.1895 -7548.1532 308.2412 -9375.3427 -7566.3252 301.6342 80.4701 100.6459 30185.4900 -48.7653 0.4403
ENERGY: 600000 0.8288 7.1690 2.2974 0.0000 -10777.6514 1494.3398 0.0000 0.0000 1770.1381 -7502.8783 298.6168 -9273.0164 -7536.3445 300.7220 399.1944 365.6936 31035.2324 81.7064 121.6527
ENERGY: 900000 0.4508 6.0080 1.9589 0.0000 -10763.9443 1424.4974 0.0000 0.0000 1761.4757 -7569.5535 297.1555 -9331.0292 -7551.8217 299.8968 -263.5288 -197.7893 30989.7812 58.5534 98.5715
ENERGY: 1200000 2.4549 6.3391 2.0773 0.0000 -10783.2263 1351.4271 0.0000 0.0000 1756.2076 -7664.7202 296.2668 -9420.9278 -7570.0287 299.9306 -1045.4967 -1018.5860 30800.5454 -42.1515 -0.0240
ENERGY: 1500000 0.3992 5.4231 1.0437 0.0000 -10837.0362 1445.6388 0.0000 0.0000 1789.5292 -7595.0022 301.8881 -9384.5314 -7578.5222 299.8921 -55.8429 37.5363 30643.6278 -27.3904 14.4746
TCL: Running FEP window   5: Lambda1 0.7999999999999998 Lambda2 0.7499999999999998 [dLambda -0.050000000000000044]
TCL: Setting parameter firsttimestep to 0
TCL: Setting parameter alchLambda to 0.7999999999999998
Info: NONBONDED TABLE R-SQUARED SPACING: 0.0625
Info: NONBONDED TABLE SIZE: 705 POINTS
TCL: Setting parameter alchLambda2 to 0.7499999999999998
Info: NONBONDED TABLE R-SQUARED SPACING: 0.0625
Info: NONBONDED TABLE SIZE: 705 POINTS
TCL: Running for 1500000 steps
ETITLE: TS BOND ANGLE DIHED IMPRP ELECT VDW BOUNDARY MISC KINETIC TOTAL TEMP POTENTIAL TOTALAVG TEMPAVG PRESSURE GPRESSURE VOLUME PRESSAVG GPRESSAVG
ENERGY: 0 0.3992 5.4231 1.0437 0.0000 -10837.0366 1445.7253 0.0000 0.0000 1788.6209 -7595.8244 301.7348 -9384.4453 -7595.8244 301.7348 -71.8820 30.5718 30643.6278 -71.8820 30.5718
ENERGY: 300000 0.4314 5.9364 1.3211 0.0000 -10755.3439 1455.9669 0.0000 0.0000 1815.6018 -7476.0863 306.2864 -9291.6882 -7496.7034 303.5428 229.4897 343.8246 30314.8512 -115.4442 -28.2602
ENERGY: 600000 0.7202 5.2916 1.2344 0.0000 -10567.4345 1351.1269 0.0000 0.0000 1785.7400 -7423.3214 301.2488 -9209.0614 -7510.3590 301.5111 -654.7534 -611.3367 31487.3391 -138.3854 -62.5736
ENERGY: 900000 2.8887 4.4957 0.6306 0.0000 -10785.6326 1436.7589 0.0000 0.0000 1791.7189 -7549.1398 302.2574 -9340.8586 -7535.0165 302.8680 -432.6923 -313.6267 30854.3364 -109.3689 -36.6405
ENERGY: 1200000 0.0247 7.9754 0.8212 0.0000 -10669.7224 1352.7900 0.0000 0.0000 1818.8987 -7489.2124 306.8426 -9308.1111 -7525.1003 303.3111 -728.2341 -678.9164 31076.3730 -156.3741 -85.1847
ENERGY: 1500000 0.7586 5.7400 1.3972 0.0000 -10756.6165 1384.4656 0.0000 0.0000 1768.5903 -7595.6648 298.3557 -9364.2551 -7534.2603 302.3669 -436.1099 -381.6325 30282.9611 -83.0504 -13.1668
TCL: Running FEP window   6: Lambda1 0.7499999999999998 Lambda2 0.6999999999999997 [dLambda -0.050000000000000044]
TCL: Setting parameter firsttimestep to 0
TCL: Setting parameter alchLambda to 0.7499999999999998
Info: NONBONDED TABLE R-SQUARED SPACING: 0.0625
Info: NONBONDED TABLE SIZE: 705 POINTS
TCL: Setting parameter alchLambda2 to 0.6999999999999997
Info: NONBONDED TABLE R-SQUARED SPACING: 0.0625
Info: NONBONDED TABLE SIZE: 705 POINTS
TCL: Running for 1500000 steps
ETITLE: TS BOND ANGLE DIHED IMPRP ELECT VDW BOUNDARY MISC KINETIC TOTAL TEMP POTENTIAL TOTALAVG TEMPAVG PRESSURE GPRESSURE VOLUME PRESSAVG GPRESSAVG
ENERGY: 0 0.7586 5.7400 1.3972 0.0000 -10756.6223 1384.5515 0.0000 0.0000 1767.6930 -7596.4820 298.2044 -9364.1750 -7596.4820 298.2044 -457.2434 -388.1015 30282.9611 -457.2434 -388.1015
ENERGY: 300000 2.5220 4.6307 1.3836 0.0000 -10692.2447 1404.6076 0.0000 0.0000 1839.1631 -7439.9377 310.2611 -9279.1008 -7553.2665 302.7629 4.4011 63.3490 30573.6370 -302.7375 -230.3495
ENERGY: 600000 0.6882 9.5717 0.8743 0.0000 -10737.4640 1391.4958 0.0000 0.0000 1799.3082 -7535.5257 303.5377 -9334.8339 -7549.3123 301.6549 -559.7447 -446.0278 30916.5394 -353.2085 -284.1335
ENERGY: 900000 0.3027 4.7157 1.2372 0.0000 -10769.7367 1407.1092 0.0000 0.0000 1821.9276 -7534.4444 307.3536 -9356.3720 -7558.8291 302.2625 -494.5725 -455.8981 30991.9204 -374.7996 -307.8209
ENERGY: 1200000 0.5244 3.0918 2.4742 0.0000 -10630.8997 1423.8339 0.0000 0.0000 1776.6373 -7424.3382 299.7132 -9200.9755 -7563.9080 300.8068 -137.6009 -80.9776 31395.3857 -257.4213 -195.3170
ENERGY: 1500000 1.3886 8.2669 1.0108 0.0000 -10819.2860 1434.4824 0.0000 0.0000 1777.0580 -7597.0793 299.7842 -9374.1373 -7565.7777 300.4007 -410.9275 -282.6710 30590.7060 -281.1804 -214.5469
TCL: Running FEP window   7: Lambda1 0.6999999999999997 Lambda2 0.6499999999999997 [dLambda -0.050000000000000044]
TCL: Setting parameter firsttimestep to 0
TCL: Setting parameter alchLambda to 0.6999999999999997
Info: NONBONDED TABLE R-SQUARED SPACING: 0.0625
Info: NONBONDED TABLE SIZE: 705 POINTS
TCL: Setting parameter alchLambda2 to 0.6499999999999997
Info: NONBONDED TABLE R-SQUARED SPACING: 0.0625
Info: NONBONDED TABLE SIZE: 705 POINTS
TCL: Running for 1500000 steps
ETITLE: TS BOND ANGLE DIHED IMPRP ELECT VDW BOUNDARY MISC KINETIC TOTAL TEMP POTENTIAL TOTALAVG TEMPAVG PRESSURE GPRESSURE VOLUME PRESSAVG GPRESSAVG
ENERGY: 0 1.3886 8.2669 1.0108 0.0000 -10819.2747 1434.4915 0.0000 0.0000 1776.1459 -7597.9710 299.6303 -9374.1169 -7597.9710 299.6303 -381.9624 -291.5025 30590.7060 -381.9624 -291.5025
ENERGY: 300000 0.3796 5.9712 1.1536 0.0000 -10752.5619 1410.3350 0.0000 0.0000 1792.8961 -7541.8264 302.4560 -9334.7225 -7562.7941 300.3391 -450.5121 -407.3132 31186.3790 -150.6907 -96.5320
ENERGY: 600000 1.4916 5.8722 1.3828 0.0000 -10729.2550 1423.0687 0.0000 0.0000 1855.8333 -7441.6062 313.0734 -9297.4396 -7526.1837 302.0149 222.4691 286.1975 30291.1451 61.8206 122.1458
ENERGY: 900000 0.3171 4.6459 3.3358 0.0000 -10709.0320 1424.6627 0.0000 0.0000 1781.0246 -7495.0459 300.4533 -9276.0705 -7523.7972 301.9866 -46.2690 30.0510 30766.9959 104.4387 172.3951
ENERGY: 1200000 0.5147 4.9614 0.8257 0.0000 -10854.9333 1499.3746 0.0000 0.0000 1747.7489 -7601.5080 294.8398 -9349.2568 -7535.0800 301.3624 496.0912 483.4475 30479.9714 108.4066 164.2643
ENERGY: 1500000 0.0793 6.8849 2.1844 0.0000 -10843.7682 1441.4794 0.0000 0.0000 1786.1350 -7607.0052 301.3155 -9393.1402 -7539.1944 301.0091 -209.4640 -126.3799 30492.5340 171.0286 225.3919
TCL: Running FEP window   8: Lambda1 0.6499999999999997 Lambda2 0.5999999999999996 [dLambda -0.050000000000000044]
TCL: Setting parameter firsttimestep to 0
TCL: Setting parameter alchLambda to 0.6499999999999997
Info: NONBONDED TABLE R-SQUARED SPACING: 0.0625
Info: NONBONDED TABLE SIZE: 705 POINTS
TCL: Setting parameter alchLambda2 to 0.5999999999999996
Info: NONBONDED TABLE R-SQUARED SPACING: 0.0625
Info: NONBONDED TABLE SIZE: 705 POINTS
TCL: Running for 1500000 steps
ETITLE: TS BOND ANGLE DIHED IMPRP ELECT VDW BOUNDARY MISC KINETIC TOTAL TEMP POTENTIAL TOTALAVG TEMPAVG PRESSURE GPRESSURE VOLUME PRESSAVG GPRESSAVG
ENERGY: 0 0.0793 6.8849 2.1844 0.0000 -10843.7737 1441.8393 0.0000 0.0000 1785.2747 -7607.5111 301.1703 -9392.7858 -7607.5111 301.1703 -215.5213 -129.6589 30492.5340 -215.5213 -129.6589
ENERGY: 300000 0.5895 6.9769 1.0957 0.0000 -10829.6094 1439.2510 0.0000 0.0000 1863.2463 -7518.4501 314.3239 -9381.6963 -7532.3520 306.6960 -320.7570 -240.6039 31018.4232 -258.8856 -194.8360
ENERGY: 600000 0.7126 4.5806 0.9217 0.0000 -10891.6160 1521.0629 0.0000 0.0000 1770.9671 -7593.3711 298.7567 -9364.3382 -7551.7545 305.1191 631.0322 648.3925 30139.4463 31.0298 89.4799
ENERGY: 900000 2.0210 5.5045 0.7010 0.0000 -10774.1969 1453.2008 0.0000 0.0000 1743.8026 -7568.9669 294.1741 -9312.7695 -7543.8510 304.4761 359.3812 378.6811 30298.9289 -62.8322 0.9402
ENERGY: 1200000 1.1600 8.4364 0.6888 0.0000 -10737.1301 1409.9174 0.0000 0.0000 1773.5581 -7543.3695 299.1938 -9316.9276 -7537.5476 303.8770 -480.2744 -387.7548 30920.9194 -112.9509 -45.5436
ENERGY: 1500000 0.9356 5.0410 1.2193 0.0000 -10685.1287 1384.2417 0.0000 0.0000 1742.3074 -7551.3837 293.9219 -9293.6911 -7543.6316 302.4383 -382.1335 -353.0680 30739.1885 -83.3312 -22.1705
TCL: Running FEP window   9: Lambda1 0.5999999999999996 Lambda2 0.5499999999999996 [dLambda -0.050000000000000044]
TCL: Setting parameter firsttimestep to 0
TCL: Setting parameter alchLambda to 0.5999999999999996
Info: NONBONDED TABLE R-SQUARED SPACING: 0.0625
Info: NONBONDED TABLE SIZE: 705 POINTS
TCL: Setting parameter alchLambda2 to 0.5499999999999996
Info: NONBONDED TABLE R-SQUARED SPACING: 0.0625
Info: NONBONDED TABLE SIZE: 705 POINTS
TCL: Running for 1500000 steps
ETITLE: TS BOND ANGLE DIHED IMPRP ELECT VDW BOUNDARY MISC KINETIC TOTAL TEMP POTENTIAL TOTALAVG TEMPAVG PRESSURE GPRESSURE VOLUME PRESSAVG GPRESSAVG
ENERGY: 0 0.9356 5.0410 1.2193 0.0000 -10685.1997 1382.8250 0.0000 0.0000 1741.4292 -7553.7497 293.7737 -9295.1789 -7553.7497 293.7737 -463.1037 -375.6644 30739.1885 -463.1037 -375.6644
ENERGY: 300000 0.1680 8.3406 1.4360 0.0000 -10717.2823 1370.5768 0.0000 0.0000 1803.3866 -7533.3743 304.2258 -9336.7609 -7570.4323 298.3305 -843.1851 -753.8593 30851.8363 -622.2237 -542.8638
ENERGY: 600000 1.0562 3.8365 1.9293 0.0000 -10747.9839 1400.8652 0.0000 0.0000 1757.0224 -7583.2743 296.4043 -9340.2968 -7555.8745 298.6330 -334.0708 -259.1172 30825.0548 -500.8845 -432.1740
ENERGY: 900000 0.4780 10.4791 1.0821 0.0000 -10694.8007 1361.9865 0.0000 0.0000 1758.7651 -7562.0099 296.6982 -9320.7750 -7557.0067 299.0413 -877.1629 -798.4323 31112.2027 -378.1028 -310.3828
ENERGY: 1200000 0.4003 6.1759 1.4391 0.0000 -10667.5049 1349.6893 0.0000 0.0000 1811.7302 -7498.0702 305.6333 -9309.8004 -7547.5031 298.9807 -822.6658 -748.4097 30869.7926 -390.8793 -327.5845
ENERGY: 1500000 0.4711 5.9849 1.7761 0.0000 -10672.9608 1348.3258 0.0000 0.0000 1802.4434 -7513.9596 304.0666 -9316.4030 -7542.0779 300.1912 -729.0639 -637.9671 30793.9980 -492.3658 -433.3085
TCL: Running FEP window  10: Lambda1 0.5499999999999996 Lambda2 0.4999999999999996 [dLambda -0.04999999999999999]
TCL: Setting parameter firsttimestep to 0
TCL: Setting parameter alchLambda to 0.5499999999999996
Info: NONBONDED TABLE R-SQUARED SPACING: 0.0625
Info: NONBONDED TABLE SIZE: 705 POINTS
TCL: Setting parameter alchLambda2 to 0.4999999999999996
Info: NONBONDED TABLE R-SQUARED SPACING: 0.0625
Info: NONBONDED TABLE SIZE: 705 POINTS
TCL: Running for 1500000 steps
ETITLE: TS BOND ANGLE DIHED IMPRP ELECT VDW BOUNDARY MISC KINETIC TOTAL TEMP POTENTIAL TOTALAVG TEMPAVG PRESSURE GPRESSURE VOLUME PRESSAVG GPRESSAVG
ENERGY: 0 0.4711 5.9849 1.7761 0.0000 -10672.9513 1348.2580 0.0000 0.0000 1801.5877 -7514.8736 303.9223 -9316.4613 -7514.8736 303.9223 -722.0153 -645.8997 30793.9980 -722.0153 -645.8997
ENERGY: 300000 1.1946 2.7462 1.0053 0.0000 -10834.1017 1505.2386 0.0000 0.0000 1824.0913 -7499.8257 307.7186 -9323.9170 -7545.5799 301.3585 283.9148 363.3929 30770.7481 -274.7200 -202.9247
ENERGY: 600000 0.2442 5.3982 0.9136 0.0000 -10677.8411 1348.3684 0.0000 0.0000 1773.0210 -7549.8958 299.1032 -9322.9167 -7557.3754 299.7065 -601.1155 -537.2765 30575.8667 -64.2171 -8.8117
ENERGY: 900000 1.1445 3.3146 0.9521 0.0000 -10751.8350 1398.6477 0.0000 0.0000 1737.7510 -7610.0252 293.1532 -9347.7762 -7566.7587 299.5551 -361.5083 -344.1295 30567.7167 -78.5025 -21.7165
ENERGY: 1200000 0.9910 6.7539 0.9295 0.0000 -10807.0354 1450.3281 0.0000 0.0000 1817.0405 -7530.9925 306.5291 -9348.0330 -7562.8222 300.4579 -77.5585 -25.3599 30703.4504 -40.0682 18.4428
ENERGY: 1500000 2.0654 6.3095 0.7014 0.0000 -10696.9890 1395.6077 0.0000 0.0000 1808.3423 -7483.9628 305.0618 -9292.3051 -7561.3284 300.5934 -375.6189 -299.4948 30563.2444 -58.7146 4.6842
TCL: Running FEP window  11: Lambda1 0.4999999999999996 Lambda2 0.4499999999999996 [dLambda -0.04999999999999999]
TCL: Setting parameter firsttimestep to 0
TCL: Setting parameter alchLambda to 0.4999999999999996
Info: NONBONDED TABLE R-SQUARED SPACING: 0.0625
Info: NONBONDED TABLE SIZE: 705 POINTS
TCL: Setting parameter alchLambda2 to 0.4499999999999996
Info: NONBONDED TABLE R-SQUARED SPACING: 0.0625
Info: NONBONDED TABLE SIZE: 705 POINTS
TCL: Running for 1500000 steps
ETITLE: TS BOND ANGLE DIHED IMPRP ELECT VDW BOUNDARY MISC KINETIC TOTAL TEMP POTENTIAL TOTALAVG TEMPAVG PRESSURE GPRESSURE VOLUME PRESSAVG GPRESSAVG
ENERGY: 0 2.0654 6.3095 0.7014 0.0000 -10696.9730 1395.7365 0.0000 0.0000 1807.4336 -7484.7266 304.9085 -9292.1603 -7484.7266 304.9085 -391.5077 -301.3087 30563.2444 -391.5077 -301.3087
ENERGY: 300000 1.1509 4.7105 1.3666 0.0000 -10924.9356 1554.7654 0.0000 0.0000 1788.0391 -7574.9031 301.6367 -9362.9422 -7571.3126 300.2515 788.6472 856.3673 30592.3563 96.1743 141.2073
ENERGY: 600000 1.8885 3.9662 0.9946 0.0000 -10756.3898 1335.6212 0.0000 0.0000 1775.7159 -7638.2034 299.5578 -9413.9193 -7590.7429 300.9200 -1169.0423 -1118.5344 30717.5547 -95.5696 -58.3934
ENERGY: 900000 1.6492 8.6053 1.3084 0.0000 -10941.3945 1562.8814 0.0000 0.0000 1774.7448 -7592.2055 299.3940 -9366.9503 -7588.7686 299.2578 705.4962 747.1580 30509.8746 -113.8842 -74.4266
ENERGY: 1200000 0.9271 7.5796 0.6883 0.0000 -10829.3595 1513.1090 0.0000 0.0000 1770.1971 -7536.8583 298.6268 -9307.0554 -7575.9835 300.2105 469.4376 598.3511 30571.8569 -52.6943 10.4693
ENERGY: 1500000 1.2426 5.6511 1.5345 0.0000 -10781.7723 1455.1367 0.0000 0.0000 1803.4907 -7514.7166 304.2433 -9318.2073 -7577.3156 299.7515 -166.4245 -139.3917 31131.7827 10.4497 72.6684
TCL: Running FEP window  12: Lambda1 0.4499999999999996 Lambda2 0.39999999999999963 [dLambda -0.04999999999999999]
TCL: Setting parameter firsttimestep to 0
TCL: Setting parameter alchLambda to 0.4499999999999996
Info: NONBONDED TABLE R-SQUARED SPACING: 0.0625
Info: NONBONDED TABLE SIZE: 705 POINTS
TCL: Setting parameter alchLambda2 to 0.39999999999999963
Info: NONBONDED TABLE R-SQUARED SPACING: 0.0625
Info: NONBONDED TABLE SIZE: 705 POINTS
TCL: Running for 1500000 steps
ETITLE: TS BOND ANGLE DIHED IMPRP ELECT VDW BOUNDARY MISC KINETIC TOTAL TEMP POTENTIAL TOTALAVG TEMPAVG PRESSURE GPRESSURE VOLUME PRESSAVG GPRESSAVG
ENERGY: 0 1.2426 5.6511 1.5345 0.0000 -10781.7726 1455.5666 0.0000 0.0000 1802.5950 -7515.1828 304.0922 -9317.7778 -7515.1828 304.0922 -225.2760 -140.1329 31131.7827 -225.2760 -140.1329
ENERGY: 300000 0.2259 7.2829 1.2705 0.0000 -10732.4094 1381.1610 0.0000 0.0000 1724.0080 -7618.4610 290.8348 -9342.4691 -7589.7636 296.9415 -529.5080 -453.2192 30512.3121 132.7395 185.0136
ENERGY: 600000 0.6167 3.7877 0.9379 0.0000 -10682.0901 1371.5280 0.0000 0.0000 1840.4947 -7464.7251 310.4858 -9305.2198 -7556.9710 299.9349 -780.7952 -679.7714 31220.4953 19.6163 96.8929
ENERGY: 900000 1.9028 12.1799 2.1936 0.0000 -10902.8065 1514.9158 0.0000 0.0000 1793.2928 -7578.3216 302.5230 -9371.6144 -7565.5078 299.9647 81.5771 138.4065 30986.8312 130.6364 203.0978
ENERGY: 1200000 1.5374 8.9297 1.9755 0.0000 -10809.8515 1463.0702 0.0000 0.0000 1797.9257 -7536.4131 303.3045 -9334.3388 -7570.7703 299.8832 -123.2525 -39.4989 30866.1044 187.8245 250.5738
ENERGY: 1500000 0.3382 10.9206 1.7113 0.0000 -10866.1753 1459.7762 0.0000 0.0000 1716.1499 -7677.2790 289.5092 -9393.4289 -7574.5867 298.7929 -114.7694 -75.0619 30591.2110 66.5585 128.6111
TCL: Running FEP window  13: Lambda1 0.39999999999999963 Lambda2 0.34999999999999964 [dLambda -0.04999999999999999]
TCL: Setting parameter firsttimestep to 0
TCL: Setting parameter alchLambda to 0.39999999999999963
Info: NONBONDED TABLE R-SQUARED SPACING: 0.0625
Info: NONBONDED TABLE SIZE: 705 POINTS
TCL: Setting parameter alchLambda2 to 0.34999999999999964
Info: NONBONDED TABLE R-SQUARED SPACING: 0.0625
Info: NONBONDED TABLE SIZE: 705 POINTS
TCL: Running for 1500000 steps
ETITLE: TS BOND ANGLE DIHED IMPRP ELECT VDW BOUNDARY MISC KINETIC TOTAL TEMP POTENTIAL TOTALAVG TEMPAVG PRESSURE GPRESSURE VOLUME PRESSAVG GPRESSAVG
ENERGY: 0 0.3382 10.9206 1.7113 0.0000 -10866.1749 1459.9298 0.0000 0.0000 1715.2496 -7678.0254 289.3573 -9393.2750 -7678.0254 289.3573 -159.9558 -77.2377 30591.2110 -159.9558 -77.2377
ENERGY: 300000 2.5975 6.5585 0.9287 0.0000 -10881.8572 1479.7887 0.0000 0.0000 1781.7084 -7610.2754 300.5687 -9391.9838 -7626.5223 296.8531 126.5714 183.6027 30350.1822 -88.9662 -23.8517
ENERGY: 600000 1.1230 6.4288 1.8302 0.0000 -10812.7348 1456.9425 0.0000 0.0000 1739.3747 -7607.0357 293.4271 -9346.4104 -7589.9089 298.4983 -37.9374 38.7444 30595.3052 -51.7993 15.1890
ENERGY: 900000 0.2873 11.8332 1.5266 0.0000 -10779.0138 1376.1283 0.0000 0.0000 1747.0968 -7642.1415 294.7298 -9389.2383 -7592.8243 298.8378 -876.5110 -802.2836 30719.3647 -158.4457 -94.0004
ENERGY: 1200000 0.1286 6.0456 1.5189 0.0000 -10781.8266 1457.7086 0.0000 0.0000 1808.3728 -7508.0521 305.0669 -9316.4248 -7576.6860 300.2628 206.2754 187.4052 30678.8378 -126.6592 -71.7694
ENERGY: 1500000 1.0009 6.5832 2.2827 0.0000 -10762.7230 1440.2030 0.0000 0.0000 1830.9096 -7481.7436 308.8688 -9312.6532 -7573.0568 300.6695 104.5454 199.4389 30297.7819 -67.9447 -13.9595
TCL: Running FEP window  14: Lambda1 0.34999999999999964 Lambda2 0.29999999999999966 [dLambda -0.04999999999999999]
TCL: Setting parameter firsttimestep to 0
TCL: Setting parameter alchLambda to 0.34999999999999964
Info: NONBONDED TABLE R-SQUARED SPACING: 0.0625
Info: NONBONDED TABLE SIZE: 705 POINTS
TCL: Setting parameter alchLambda2 to 0.29999999999999966
Info: NONBONDED TABLE R-SQUARED SPACING: 0.0625
Info: NONBONDED TABLE SIZE: 705 POINTS
TCL: Running for 1500000 steps
ETITLE: TS BOND ANGLE DIHED IMPRP ELECT VDW BOUNDARY MISC KINETIC TOTAL TEMP POTENTIAL TOTALAVG TEMPAVG PRESSURE GPRESSURE VOLUME PRESSAVG GPRESSAVG
ENERGY: 0 1.0009 6.5832 2.2827 0.0000 -10762.7227 1440.2961 0.0000 0.0000 1829.9401 -7482.6198 308.7052 -9312.5599 -7482.6198 308.7052 109.5275 196.7334 30297.7819 109.5275 196.7334
ENERGY: 300000 0.6563 6.0495 0.7053 0.0000 -10888.1723 1529.6752 0.0000 0.0000 1757.2503 -7593.8358 296.4427 -9351.0861 -7521.9430 302.8940 498.0658 556.3348 30623.2805 271.7508 327.3304
ENERGY: 600000 0.9581 3.5399 0.7248 0.0000 -10757.2627 1455.3007 0.0000 0.0000 1802.3053 -7494.4339 304.0433 -9296.7392 -7525.0577 303.2634 -99.5776 -57.2512 31035.2804 72.1987 122.3386
ENERGY: 900000 1.7292 5.3178 1.6855 0.0000 -10778.3667 1432.9941 0.0000 0.0000 1829.8998 -7506.7404 308.6984 -9336.6402 -7523.1741 304.5584 -403.2013 -263.9753 30705.6069 -25.0531 44.6753
ENERGY: 1200000 1.0665 4.9057 1.8657 0.0000 -10832.8519 1438.6256 0.0000 0.0000 1806.8331 -7579.5553 304.8072 -9386.3884 -7534.9128 303.7238 -453.9615 -334.1148 30695.2627 -68.0690 3.4529
ENERGY: 1500000 0.7359 5.3632 1.4946 0.0000 -10743.5146 1423.1607 0.0000 0.0000 1885.9639 -7426.7962 318.1563 -9312.7601 -7536.4705 303.6838 -140.1999 -100.1592 30879.8237 -54.4376 9.7452
TCL: Running FEP window  15: Lambda1 0.29999999999999966 Lambda2 0.24999999999999967 [dLambda -0.04999999999999999]
TCL: Setting parameter firsttimestep to 0
TCL: Setting parameter alchLambda to 0.29999999999999966
Info: NONBONDED TABLE R-SQUARED SPACING: 0.0625
Info: NONBONDED TABLE SIZE: 705 POINTS
TCL: Setting parameter alchLambda2 to 0.24999999999999967
Info: NONBONDED TABLE R-SQUARED SPACING: 0.0625
Info: NONBONDED TABLE SIZE: 705 POINTS
TCL: Running for 1500000 steps
ETITLE: TS BOND ANGLE DIHED IMPRP ELECT VDW BOUNDARY MISC KINETIC TOTAL TEMP POTENTIAL TOTALAVG TEMPAVG PRESSURE GPRESSURE VOLUME PRESSAVG GPRESSAVG
ENERGY: 0 0.7359 5.3632 1.4946 0.0000 -10743.5144 1423.3749 0.0000 0.0000 1885.0977 -7427.4481 318.0102 -9312.5458 -7427.4481 318.0102 -188.2500 -103.9622 30879.8237 -188.2500 -103.9622
ENERGY: 300000 0.3002 4.7214 0.9423 0.0000 -10937.1326 1500.7758 0.0000 0.0000 1777.3196 -7653.0733 299.8283 -9430.3929 -7548.1800 300.0404 138.9230 209.3000 30260.9485 -232.1760 -158.1790
ENERGY: 600000 2.2007 7.7825 2.2527 0.0000 -10677.6896 1398.4369 0.0000 0.0000 1796.4493 -7470.5674 303.0555 -9267.0167 -7548.0107 300.0875 -267.9035 -194.9708 30607.1956 -116.3736 -27.6704
ENERGY: 900000 1.4510 3.6225 0.9143 0.0000 -10804.5620 1507.9493 0.0000 0.0000 1759.4043 -7531.2208 296.8061 -9290.6250 -7557.1110 299.2555 240.4272 342.3496 30914.8662 67.9741 146.3943
ENERGY: 1200000 0.4518 6.1301 1.3395 0.0000 -10751.6298 1383.7342 0.0000 0.0000 1793.8596 -7566.1147 302.6186 -9359.9743 -7554.5242 299.6361 -608.0890 -538.5410 30711.0338 -76.2194 -3.4877
ENERGY: 1500000 1.1898 8.9620 0.6952 0.0000 -10964.0773 1552.7458 0.0000 0.0000 1737.3811 -7663.1033 293.0908 -9400.4844 -7565.2864 299.2272 605.3629 617.2681 30448.3567 -43.6280 21.6434
TCL: Running FEP window  16: Lambda1 0.24999999999999967 Lambda2 0.19999999999999968 [dLambda -0.04999999999999999]
TCL: Setting parameter firsttimestep to 0
TCL: Setting parameter alchLambda to 0.24999999999999967
Info: NONBONDED TABLE R-SQUARED SPACING: 0.0625
Info: NONBONDED TABLE SIZE: 705 POINTS
TCL: Setting parameter alchLambda2 to 0.19999999999999968
Info: NONBONDED TABLE R-SQUARED SPACING: 0.0625
Info: NONBONDED TABLE SIZE: 705 POINTS
TCL: Running for 1500000 steps
ETITLE: TS BOND ANGLE DIHED IMPRP ELECT VDW BOUNDARY MISC KINETIC TOTAL TEMP POTENTIAL TOTALAVG TEMPAVG PRESSURE GPRESSURE VOLUME PRESSAVG GPRESSAVG
ENERGY: 0 1.1898 8.9620 0.6952 0.0000 -10964.0776 1552.4323 0.0000 0.0000 1736.4550 -7664.3432 292.9346 -9400.7982 -7664.3432 292.9346 525.2084 612.6154 30448.3567 525.2084 612.6154
ENERGY: 300000 0.0904 3.7251 1.0501 0.0000 -10628.2110 1341.2572 0.0000 0.0000 1817.0495 -7465.0386 306.5306 -9282.0881 -7543.5405 301.0816 -714.3098 -648.4920 30890.4662 -52.7739 0.0841
ENERGY: 600000 1.0382 6.6411 1.6583 0.0000 -10890.9817 1526.3352 0.0000 0.0000 1770.2725 -7585.0363 298.6395 -9355.3089 -7553.0961 300.3737 617.0573 640.1303 30341.1055 -110.4297 -75.4187
ENERGY: 900000 0.1697 6.3771 1.3916 0.0000 -10622.2498 1360.2296 0.0000 0.0000 1752.7729 -7501.3089 295.6874 -9254.0818 -7551.5923 298.9469 -496.4594 -461.1504 30759.2927 -197.0054 -158.2250
ENERGY: 1200000 2.1305 5.1774 1.8459 0.0000 -10747.9731 1407.2113 0.0000 0.0000 1772.3234 -7559.2846 298.9855 -9331.6080 -7556.6591 298.8624 -362.7157 -299.5490 30453.9901 -260.7166 -215.0215
ENERGY: 1500000 2.1460 5.3663 1.5409 0.0000 -10905.9913 1512.9107 0.0000 0.0000 1822.8834 -7561.1440 307.5148 -9384.0273 -7556.7457 300.1640 331.7110 391.7116 30075.6331 -152.5967 -107.5704
TCL: Running FEP window  17: Lambda1 0.19999999999999968 Lambda2 0.1499999999999997 [dLambda -0.04999999999999999]
TCL: Setting parameter firsttimestep to 0
TCL: Setting parameter alchLambda to 0.19999999999999968
Info: NONBONDED TABLE R-SQUARED SPACING: 0.0625
Info: NONBONDED TABLE SIZE: 705 POINTS
TCL: Setting parameter alchLambda2 to 0.1499999999999997
Info: NONBONDED TABLE R-SQUARED SPACING: 0.0625
Info: NONBONDED TABLE SIZE: 705 POINTS
TCL: Running for 1500000 steps
ETITLE: TS BOND ANGLE DIHED IMPRP ELECT VDW BOUNDARY MISC KINETIC TOTAL TEMP POTENTIAL TOTALAVG TEMPAVG PRESSURE GPRESSURE VOLUME PRESSAVG GPRESSAVG
ENERGY: 0 2.1460 5.3663 1.5409 0.0000 -10905.9912 1513.2875 0.0000 0.0000 1821.9746 -7561.6759 307.3615 -9383.6505 -7561.6759 307.3615 297.3067 389.0919 30075.6331 297.3067 389.0919
ENERGY: 300000 0.8049 5.0516 1.6125 0.0000 -10867.0916 1503.8025 0.0000 0.0000 1780.3163 -7575.5039 300.3339 -9355.8201 -7549.1406 303.5945 154.8436 261.5407 30806.7043 124.7713 182.0090
ENERGY: 600000 0.2665 6.9862 0.6158 0.0000 -10747.7098 1444.1379 0.0000 0.0000 1764.3442 -7531.3593 297.6394 -9295.7035 -7566.7823 303.0590 122.1997 142.8743 30412.4783 -108.4851 -56.7317
ENERGY: 900000 0.9174 9.1305 2.4983 0.0000 -10778.8635 1487.0666 0.0000 0.0000 1766.0543 -7513.1963 297.9279 -9279.2506 -7574.1942 301.4722 179.8378 271.0885 30730.4419 -131.5981 -76.8609
ENERGY: 1200000 0.9754 5.2608 1.6156 0.0000 -10571.6206 1353.7224 0.0000 0.0000 1800.0352 -7410.0112 303.6604 -9210.0465 -7568.3265 300.2610 -590.3438 -427.0897 30656.3651 -78.9390 -15.0931
ENERGY: 1500000 0.7346 5.0133 2.0013 0.0000 -10785.9964 1512.7975 0.0000 0.0000 1726.1166 -7539.3330 291.1905 -9265.4496 -7564.8932 299.5375 650.7338 747.3349 30597.0490 21.0789 86.1027
TCL: Running FEP window  18: Lambda1 0.1499999999999997 Lambda2 0.09999999999999969 [dLambda -0.05 ]
TCL: Setting parameter firsttimestep to 0
TCL: Setting parameter alchLambda to 0.1499999999999997
Info: NONBONDED TABLE R-SQUARED SPACING: 0.0625
Info: NONBONDED TABLE SIZE: 705 POINTS
TCL: Setting parameter alchLambda2 to 0.09999999999999969
Info: NONBONDED TABLE R-SQUARED SPACING: 0.0625
Info: NONBONDED TABLE SIZE: 705 POINTS
TCL: Running for 1500000 steps
ETITLE: TS BOND ANGLE DIHED IMPRP ELECT VDW BOUNDARY MISC KINETIC TOTAL TEMP POTENTIAL TOTALAVG TEMPAVG PRESSURE GPRESSURE VOLUME PRESSAVG GPRESSAVG
ENERGY: 0 0.7346 5.0133 2.0013 0.0000 -10785.9963 1512.6960 0.0000 0.0000 1725.2368 -7540.3142 291.0421 -9265.5510 -7540.3142 291.0421 650.6573 744.5455 30597.0490 650.6573 744.5455
ENERGY: 300000 0.3013 7.3488 1.6519 0.0000 -10599.9813 1363.2424 0.0000 0.0000 1779.9590 -7447.4779 300.2736 -9227.4369 -7516.3427 300.0726 -538.9918 -509.2821 30878.7696 136.9879 191.5333
ENERGY: 600000 2.2238 7.3073 1.2234 0.0000 -10730.4119 1432.5354 0.0000 0.0000 1786.5404 -7500.5816 301.3838 -9287.1219 -7527.8331 300.5112 -419.9879 -336.5842 31071.4521 -104.5792 -42.3029
ENERGY: 900000 0.0549 5.6372 1.7163 0.0000 -10717.4459 1371.4977 0.0000 0.0000 1746.3574 -7592.1825 294.6051 -9338.5399 -7541.7150 300.2007 -929.6797 -834.9339 30845.8836 -117.9716 -55.9221
ENERGY: 1200000 0.6726 3.2568 0.5497 0.0000 -10660.9672 1377.1358 0.0000 0.0000 1790.4270 -7488.9253 302.0395 -9279.3524 -7515.6585 301.7184 -357.2684 -346.4569 30711.9956 -111.0543 -51.2392
ENERGY: 1500000 0.7112 8.2676 0.8047 0.0000 -10982.8682 1555.2389 0.0000 0.0000 1808.4866 -7609.3592 305.0861 -9417.8458 -7530.2076 301.2411 615.8027 661.3509 30334.9435 -74.0502 -13.7664
TCL: Running FEP window  19: Lambda1 0.09999999999999969 Lambda2 0.049999999999999684 [dLambda -0.05 ]
TCL: Setting parameter firsttimestep to 0
TCL: Setting parameter alchLambda to 0.09999999999999969
Info: NONBONDED TABLE R-SQUARED SPACING: 0.0625
Info: NONBONDED TABLE SIZE: 705 POINTS
TCL: Setting parameter alchLambda2 to 0.049999999999999684
Info: NONBONDED TABLE R-SQUARED SPACING: 0.0625
Info: NONBONDED TABLE SIZE: 705 POINTS
TCL: Running for 1500000 steps
ETITLE: TS BOND ANGLE DIHED IMPRP ELECT VDW BOUNDARY MISC KINETIC TOTAL TEMP POTENTIAL TOTALAVG TEMPAVG PRESSURE GPRESSURE VOLUME PRESSAVG GPRESSAVG
ENERGY: 0 0.7112 8.2676 0.8047 0.0000 -10982.8675 1554.6848 0.0000 0.0000 1807.6224 -7610.7768 304.9403 -9418.3992 -7610.7768 304.9403 576.1322 655.3083 30334.9435 576.1322 655.3083
ENERGY: 300000 0.3162 7.9979 3.0987 0.0000 -10823.6243 1455.6580 0.0000 0.0000 1764.4802 -7592.0734 297.6624 -9356.5536 -7559.8955 302.2022 56.4438 137.0316 30269.3958 275.4149 355.4197
ENERGY: 600000 0.0860 3.9138 1.4771 0.0000 -10706.4606 1451.1040 0.0000 0.0000 1782.1580 -7467.7216 300.6446 -9249.8796 -7554.8787 300.9546 243.8772 272.8705 30574.4176 25.3853 96.2579
ENERGY: 900000 0.7486 6.9334 2.0753 0.0000 -10991.1367 1554.9315 0.0000 0.0000 1809.2550 -7617.1930 305.2157 -9426.4480 -7565.8950 301.6680 846.2861 916.1100 29861.2862 47.0800 119.3432
ENERGY: 1200000 1.8349 5.6772 1.6263 0.0000 -10976.7247 1568.5896 0.0000 0.0000 1751.3972 -7647.5994 295.4553 -9398.9966 -7576.0707 301.0611 987.2801 1009.6881 30098.8484 89.8206 149.4799
ENERGY: 1500000 1.7345 9.9877 0.5892 0.0000 -10717.0256 1395.3693 0.0000 0.0000 1735.6678 -7573.6771 292.8018 -9309.3449 -7573.3907 300.1505 -377.0910 -328.2205 30334.9451 43.8146 101.2958
TCL: Running FEP window  20: Lambda1 0.049999999999999684 Lambda2 0.0    [dLambda -0.049999999999999684]
TCL: Setting parameter firsttimestep to 0
TCL: Setting parameter alchLambda to 0.049999999999999684
Info: NONBONDED TABLE R-SQUARED SPACING: 0.0625
Info: NONBONDED TABLE SIZE: 705 POINTS
TCL: Setting parameter alchLambda2 to 0.0
Info: NONBONDED TABLE R-SQUARED SPACING: 0.0625
Info: NONBONDED TABLE SIZE: 705 POINTS
TCL: Running for 1500000 steps
ETITLE: TS BOND ANGLE DIHED IMPRP ELECT VDW BOUNDARY MISC KINETIC TOTAL TEMP POTENTIAL TOTALAVG TEMPAVG PRESSURE GPRESSURE VOLUME PRESSAVG GPRESSAVG
ENERGY: 0 1.7345 9.9877 0.5892 0.0000 -10717.0262 1395.7703 0.0000 0.0000 1734.7946 -7574.1498 292.6545 -9308.9445 -7574.1498 292.6545 -392.2946 -326.8617 30334.9451 -392.2946 -326.8617
ENERGY: 300000 0.0374 7.9492 2.0893 0.0000 -10796.4244 1463.7705 0.0000 0.0000 1805.0600 -7517.5182 304.5080 -9322.5781 -7557.4361 298.1096 33.8120 123.9146 30370.8194 -19.1912 35.6235
ENERGY: 600000 0.6692 8.7926 2.2833 0.0000 -10726.3237 1407.5505 0.0000 0.0000 1755.5925 -7551.4357 296.1630 -9307.0282 -7548.2564 298.6250 -513.6165 -445.4790 30860.6666 -117.2259 -56.4191
ENERGY: 900000 1.0803 7.1731 1.7580 0.0000 -10777.6384 1424.5381 0.0000 0.0000 1748.6567 -7594.4322 294.9930 -9343.0889 -7557.4165 298.6173 -265.7786 -160.3733 30421.2886 -135.7753 -70.8508
ENERGY: 1200000 0.5726 4.7218 2.0175 0.0000 -10646.2153 1345.9500 0.0000 0.0000 1833.8462 -7459.1072 309.3642 -9292.9534 -7553.1779 300.2967 -742.7397 -614.4859 30707.6222 -236.2298 -170.8553
ENERGY: 1500000 0.3766 7.1604 1.2186 0.0000 -10753.7439 1407.5324 0.0000 0.0000 1785.6927 -7551.7632 301.2408 -9337.4559 -7553.4835 300.7456 -320.6753 -272.3808 30485.2878 -216.3195 -151.9314
TCL: Exiting due to exit command.
