Info: SIMULATION PARAMETERS:
Info: TIMESTEP               2
Info: NUMBER OF STEPS        0
Info: STEPS PER CYCLE        10
Info: PERIODIC CELL BASIS 1  30.4082 0 0
Info: PERIODIC CELL BASIS 2  0 29.6144 0
Info: PERIODIC CELL BASIS 3  0 0 34.1169
Info: PERIODIC CELL CENTER   0 0 0
Info: WRAPPING WATERS AROUND PERIODIC BOUNDARIES ON OUTPUT.
Info: WRAPPING ALL CLUSTERS AROUND PERIODIC BOUNDARIES ON OUTPUT.
Info: FIRST LDB TIMESTEP     50
Info: LAST LDB TIMESTEP     -1
Info: HOM BACKGROUND SCALING 1
Info: PME BACKGROUND SCALING 1
Info: MIN ATOMS PER PATCH    40
Info: EMPTY PATCH LOAD       40 ATOMS
Info: VELOCITY FILE          mobley_2763835_equil.vel
Info: CENTER OF MASS MOVING INITIALLY? NO
Info: DIELECTRIC             1
Info: EXCLUDE                SCALED ONE-FOUR
Info: 1-4 ELECTROSTATICS SCALED BY 0.833333
Info: MODIFIED 1-4 VDW PARAMETERS WILL BE USED
Info: DCD FILENAME           mobley_2763835_prod.dcd
Info: DCD FREQUENCY          100000
Info: DCD FIRST STEP         100000
Info: DCD FILE WILL CONTAIN UNIT CELL DATA
Info: XST FILENAME           mobley_2763835_prod.xst
Info: XST FREQUENCY          100000
Info: NO VELOCITY DCD OUTPUT
Info: NO FORCE DCD OUTPUT
Info: OUTPUT FILENAME        mobley_2763835_prod
Info: BINARY OUTPUT FILES WILL BE USED
Info: RESTART FILENAME       mobley_2763835_prod.restart
Info: RESTART FREQUENCY      100000
Info: BINARY RESTART FILES WILL BE USED
Info: CUTOFF                 9
Info: PAIRLIST DISTANCE      11
Info: PAIRLIST SHRINK RATE   0.01
Info: PAIRLIST GROW RATE     0.01
Info: PAIRLIST TRIGGER       0.3
Info: PAIRLISTS PER CYCLE    2
Info: PAIRLISTS ENABLED
Info: MARGIN                 2
Info: HYDROGEN GROUP CUTOFF  2.5
Info: PATCH DIMENSION        15.5
Info: ENERGY OUTPUT STEPS    100000
Info: ENERGY EVALUATION STEPS    100000
Info: OUTPUT ENERGY PRECISION 4
Info: CROSSTERM ENERGY INCLUDED IN DIHEDRAL
Info: TIMING OUTPUT STEPS    1000000
Info: PRESSURE OUTPUT STEPS  100000
Info: ALCHEMICAL FEP ON
Info: FEP CURRENT LAMBDA VALUE     0
Info: FEP COMPARISON LAMBDA VALUE  0.05
Info: FEP INTRA-ALCHEMICAL NON-BONDED INTERACTIONS WILL BE RETAINED
Info: FEP INTRA-ALCHEMICAL BONDED INTERACTIONS WILL BE RETAINED
Info: FEP VDW SHIFTING COEFFICIENT 5
Info: FEP ELEC. ACTIVE FOR ANNIHILATED PARTICLES BETWEEN LAMBDA = 0 AND LAMBDA = 0.5
Info: FEP ELEC. ACTIVE FOR EXNIHILATED PARTICLES BETWEEN LAMBDA = 0.5 AND LAMBDA = 1
Info: FEP VDW ACTIVE FOR ANNIHILATED PARTICLES BETWEEN LAMBDA = 0 AND LAMBDA = 1
Info: FEP VDW ACTIVE FOR EXNIHILATED PARTICLES BETWEEN LAMBDA = 0 AND LAMBDA = 1
Info: FEP BOND ACTIVE FOR ANNIHILATED PARTICLES BETWEEN LAMBDA = 1 AND LAMBDA = 1
Info: FEP BOND ACTIVE FOR EXNIHILATED PARTICLES BETWEEN LAMBDA = 0 AND LAMBDA = 0
Info: LANGEVIN DYNAMICS ACTIVE
Info: LANGEVIN TEMPERATURE   300
Info: LANGEVIN USING BBK INTEGRATOR
Info: LANGEVIN DAMPING COEFFICIENT IS 1 INVERSE PS
Info: LANGEVIN DYNAMICS APPLIED TO HYDROGENS
Info: LANGEVIN PISTON PRESSURE CONTROL ACTIVE
Info:        TARGET PRESSURE IS 1.01325 BAR
Info:     OSCILLATION PERIOD IS 50 FS
Info:             DECAY TIME IS 25 FS
Info:     PISTON TEMPERATURE IS 300 K
Info:       PRESSURE CONTROL IS GROUP-BASED
Info:    INITIAL STRAIN RATE IS -0.000181727 -0.000181727 -0.000181727
Info:       CELL FLUCTUATION IS ISOTROPIC
Info: PARTICLE MESH EWALD (PME) ACTIVE
Info: PME TOLERANCE               1e-06
Info: PME EWALD COEFFICIENT       0.348832
Info: PME INTERPOLATION ORDER     4
Info: PME GRID DIMENSIONS         32 32 36
Info: PME MAXIMUM GRID SPACING    1
Info: PME CALCULATION WILL BE PERFORMED ON GPU
Info: FULL ELECTROSTATIC EVALUATION FREQUENCY      2
Info: USING VERLET I (r-RESPA) MTS SCHEME.
Info: C1 SPLITTING OF LONG RANGE ELECTROSTATICS
Info: PLACING ATOMS IN PATCHES BY HYDROGEN GROUPS
Info: RIGID BONDS TO HYDROGEN : ALL
Info:         ERROR TOLERANCE : 1e-08
Info:          MAX ITERATIONS : 100
Info: RIGID WATER USING SETTLE ALGORITHM
Info: RANDOM NUMBER SEED     1743857306
Info: USE HYDROGEN BONDS?    NO
Info: Using AMBER format force field!
Info: AMBER PARM FILE        mobley_2763835.prmtop
Info: COORDINATE PDB         mobley_2763835.pdb
Info: Exclusions will be read from PARM file!
Info: SCNB (VDW SCALING)     2
Info: USING ARITHMETIC MEAN TO COMBINE L-J SIGMA PARAMETERS
Info: BINARY COORDINATES     mobley_2763835_equil.coor
Info: SUMMARY OF PARAMETERS:
Info: 9 BONDS
Info: 10 ANGLES
Info:   10 HARMONIC
Info:   0 COSINE-BASED
Info: 7 DIHEDRAL
Info: 0 IMPROPER
Info: 0 CROSSTERM
Info: 0 VDW
Info: 36 VDW_PAIRS
Info: 0 NBTHOLE_PAIRS
Info: To read alchdata from file: mobley_2763835.pdb
Info: To read alchflag data from column: 5
Info: STRUCTURE SUMMARY:
Info: 2953 ATOMS
Info: 2953 BONDS
Info: 31 ANGLES
Info: 47 DIHEDRALS
Info: 0 IMPROPERS
Info: 0 CROSSTERMS
Info: 3019 EXCLUSIONS
Info: 2944 RIGID BONDS
Info: ALCH: 0 ATOMS TO DISAPPEAR IN FINAL STATE
Info: ALCH: 19 ATOMS TO APPEAR IN FINAL STATE
Info: 5915 DEGREES OF FREEDOM
Info: 987 HYDROGEN GROUPS
Info: 4 ATOMS IN LARGEST HYDROGEN GROUP
Info: 987 MIGRATION GROUPS
Info: 4 ATOMS IN LARGEST MIGRATION GROUP
Info: TOTAL MASS = 17741.8 amu
Info: TOTAL CHARGE = -0.000100017 e
Info: MASS DENSITY = 0.958945 g/cm^3
Info: ATOM DENSITY = 0.096117 atoms/A^3
Info: ADDED 0 IMPLICIT EXCLUSIONS
Info: NONBONDED TABLE R-SQUARED SPACING: 0.0625
Info: NONBONDED TABLE SIZE: 705 POINTS
Info: REMOVING COM VELOCITY 0.0224973 -0.224735 0.0501418
Info: Use 3D box decompostion in PME FFT.
Info: Updated CUDA force table with 4096 elements.
Info: Updated CUDA LJ table with 8 x 8 elements.
Info: Found 18 unique exclusion lists needing 48 bytes
TCL: Running for 1500000 steps
ETITLE: TS BOND ANGLE DIHED IMPRP ELECT VDW BOUNDARY MISC KINETIC TOTAL TEMP POTENTIAL TOTALAVG TEMPAVG PRESSURE GPRESSURE VOLUME PRESSAVG GPRESSAVG
ENERGY: 0 4.7196 5.6511 4.9407 0.0000 -10479.4766 1376.4994 0.0000 0.0000 1763.9138 -7323.7519 300.1325 -9087.6657 -7323.7519 300.1325 -305.8451 -220.5571 30722.9704 -305.8451 -220.5571
ENERGY: 300000 3.0714 4.2799 6.2105 0.0000 -10818.8141 1535.2983 0.0000 0.0000 1791.6112 -7478.3429 304.8452 -9269.9540 -7424.6732 301.4003 883.6716 940.6439 30054.9441 270.0813 338.0163
ENERGY: 600000 2.2016 6.3242 8.1064 0.0000 -10630.3286 1393.6967 0.0000 0.0000 1815.7393 -7404.2605 308.9507 -9219.9997 -7428.2366 302.6387 -301.1325 -215.9380 30429.4960 -19.7483 48.4561
ENERGY: 900000 3.9833 5.9010 4.0372 0.0000 -10795.4168 1497.2345 0.0000 0.0000 1768.8519 -7515.4089 300.9727 -9284.2609 -7446.3934 301.3961 43.7476 135.4539 30411.4117 -23.2631 57.8707
ENERGY: 1200000 1.8461 10.5257 4.0908 0.0000 -10588.3084 1376.2020 0.0000 0.0000 1729.2706 -7466.3732 294.2379 -9195.6438 -7455.7295 300.5559 -315.5179 -300.0590 30197.3994 -83.4242 -2.1194
ENERGY: 1500000 1.7800 7.6086 6.8088 0.0000 -10626.7787 1468.0041 0.0000 0.0000 1838.4578 -7304.1194 312.8162 -9142.5771 -7445.7415 301.5901 589.5634 643.2985 30163.1381 -155.3710 -76.2254
TCL: Running FEP window   2: Lambda1 0.05   Lambda2 0.1    [dLambda 0.05  ]
TCL: Setting parameter firsttimestep to 0
TCL: Setting parameter alchLambda to 0.05
Info: NONBONDED TABLE R-SQUARED SPACING: 0.0625
Info: NONBONDED TABLE SIZE: 705 POINTS
TCL: Setting parameter alchLambda2 to 0.1
Info: NONBONDED TABLE R-SQUARED SPACING: 0.0625
Info: NONBONDED TABLE SIZE: 705 POINTS
TCL: Running for 1500000 steps
ETITLE: TS BOND ANGLE DIHED IMPRP ELECT VDW BOUNDARY MISC KINETIC TOTAL TEMP POTENTIAL TOTALAVG TEMPAVG PRESSURE GPRESSURE VOLUME PRESSAVG GPRESSAVG
ENERGY: 0 1.7800 7.6086 6.8088 0.0000 -10626.7802 1469.7358 0.0000 0.0000 1837.5448 -7303.3021 312.6609 -9140.8470 -7303.3021 312.6609 566.9886 650.2055 30163.1381 566.9886 650.2055
ENERGY: 300000 2.2332 7.1295 4.8394 0.0000 -10733.9840 1412.5979 0.0000 0.0000 1761.4780 -7545.7060 299.7180 -9307.1840 -7417.5597 306.0044 -470.8334 -436.6630 30431.5992 3.1964 85.5591
ENERGY: 600000 2.2452 3.8668 8.2603 0.0000 -10794.8783 1494.5093 0.0000 0.0000 1736.1040 -7549.8927 295.4006 -9285.9967 -7459.6761 303.0827 277.6727 414.9843 29948.2212 -70.3447 15.1104
ENERGY: 900000 3.4100 7.3317 2.9914 0.0000 -10754.5153 1549.8040 0.0000 0.0000 1758.7942 -7432.1840 299.2614 -9190.9782 -7455.3627 301.5263 904.7658 986.8576 30266.8473 -7.8146 79.9767
ENERGY: 1200000 2.6491 7.1168 4.9149 0.0000 -10655.3749 1431.1087 0.0000 0.0000 1768.5930 -7440.9924 300.9287 -9209.5854 -7448.7048 302.5322 -122.8448 -100.5141 30311.4108 -3.5801 65.3157
ENERGY: 1500000 3.8133 2.3138 4.5813 0.0000 -10729.0568 1456.9271 0.0000 0.0000 1737.9985 -7523.4227 295.7229 -9261.4212 -7455.3085 302.4634 62.7509 91.5523 30115.6966 12.5188 77.8210
TCL: Running FEP window   3: Lambda1 0.1    Lambda2 0.15000000000000002 [dLambda 0.05000000000000002]
TCL: Setting parameter firsttimestep to 0
TCL: Setting parameter alchLambda to 0.1
Info: NONBONDED TABLE R-SQUARED SPACING: 0.0625
Info: NONBONDED TABLE SIZE: 705 POINTS
TCL: Setting parameter alchLambda2 to 0.15000000000000002
Info: NONBONDED TABLE R-SQUARED SPACING: 0.0625
Info: NONBONDED TABLE SIZE: 705 POINTS
TCL: Running for 1500000 steps
ETITLE: TS BOND ANGLE DIHED IMPRP ELECT VDW BOUNDARY MISC KINETIC TOTAL TEMP POTENTIAL TOTALAVG TEMPAVG PRESSURE GPRESSURE VOLUME PRESSAVG GPRESSAVG
ENERGY: 0 3.8133 2.3138 4.5813 0.0000 -10729.0558 1458.1421 0.0000 0.0000 1737.1341 -7523.0712 295.5759 -9260.2052 -7523.0712 295.5759 13.1912 100.1151 30115.6966 13.1912 100.1151
ENERGY: 300000 1.8418 7.5107 4.7208 0.0000 -10731.2786 1496.1277 0.0000 0.0000 1767.2315 -7453.8461 300.6970 -9221.0776 -7491.5040 300.1586 358.8086 371.8193 30817.9939 310.8743 365.4961
ENERGY: 600000 0.9183 3.7761 3.9964 0.0000 -10503.0980 1354.0565 0.0000 0.0000 1755.0762 -7385.2746 298.6287 -9140.3508 -7453.7278 300.1315 -481.5888 -478.5345 30646.6949 133.9861 179.8468
ENERGY: 900000 1.8939 9.9028 6.9023 0.0000 -10708.4366 1407.5845 0.0000 0.0000 1792.8984 -7489.2548 305.0642 -9282.1531 -7457.2870 301.7659 -300.7688 -216.7864 29970.8432 6.6804 66.7988
ENERGY: 1200000 3.6956 5.1748 4.3377 0.0000 -10781.4089 1480.2265 0.0000 0.0000 1720.8241 -7567.1502 292.8007 -9287.9743 -7474.9378 299.7763 125.9148 207.7041 30059.3556 -13.1400 46.2283
ENERGY: 1500000 3.3989 6.4337 4.5545 0.0000 -10508.1059 1361.6043 0.0000 0.0000 1751.0727 -7381.0418 297.9476 -9132.1146 -7476.1110 299.4719 -475.9413 -416.2404 30455.6860 0.8831 58.0594
TCL: Running FEP window   4: Lambda1 0.15000000000000002 Lambda2 0.2    [dLambda 0.04999999999999999]
TCL: Setting parameter firsttimestep to 0
TCL: Setting parameter alchLambda to 0.15000000000000002
Info: NONBONDED TABLE R-SQUARED SPACING: 0.0625
Info: NONBONDED TABLE SIZE: 705 POINTS
TCL: Setting parameter alchLambda2 to 0.2
Info: NONBONDED TABLE R-SQUARED SPACING: 0.0625
Info: NONBONDED TABLE SIZE: 705 POINTS
TCL: Running for 1500000 steps
ETITLE: TS BOND ANGLE DIHED IMPRP ELECT VDW BOUNDARY MISC KINETIC TOTAL TEMP POTENTIAL TOTALAVG TEMPAVG PRESSURE GPRESSURE VOLUME PRESSAVG GPRESSAVG
ENERGY: 0 3.3989 6.4337 4.5545 0.0000 -10508.1071 1362.0783 0.0000 0.0000 1750.2074 -7381.4343 297.8003 -9131.6417 -7381.4343 297.8003 -495.8118 -410.6105 30455.6860 -495.8118 -410.6105
ENERGY: 300000 3.5451 6.2123 7.6797 0.0000 -10658.0822 1394.5021 0.0000 0.0000 1715.1710 -7530.9721 291.8388 -9246.1431 -7464.2796 295.5529 -611.2623 -545.6311 30594.3775 25.7723 95.0604
ENERGY: 600000 2.0565 4.7142 5.5493 0.0000 -10689.2833 1423.6376 0.0000 0.0000 1769.2175 -7484.1081 301.0349 -9253.3256 -7445.2538 300.1677 119.7965 178.0684 30048.4500 182.4675 239.6759
ENERGY: 900000 2.5115 9.4949 4.2632 0.0000 -10757.9183 1456.9023 0.0000 0.0000 1761.3484 -7523.3980 299.6960 -9284.7464 -7443.0991 300.8857 20.1460 109.9602 30074.8921 158.8424 210.3544
ENERGY: 1200000 2.1888 4.3400 9.5089 0.0000 -10774.7311 1444.9524 0.0000 0.0000 1777.5097 -7536.2312 302.4458 -9313.7409 -7465.7132 300.8459 -411.2735 -321.0188 30581.1283 67.6916 122.3823
ENERGY: 1500000 3.9698 5.6159 7.1444 0.0000 -10766.6347 1471.8090 0.0000 0.0000 1764.3476 -7513.7479 300.2063 -9278.0956 -7475.4746 300.7790 121.5314 171.4587 29799.1509 106.2885 164.1581
TCL: Running FEP window   5: Lambda1 0.2    Lambda2 0.25   [dLambda 0.04999999999999999]
TCL: Setting parameter firsttimestep to 0
TCL: Setting parameter alchLambda to 0.2
Info: NONBONDED TABLE R-SQUARED SPACING: 0.0625
Info: NONBONDED TABLE SIZE: 705 POINTS
TCL: Setting parameter alchLambda2 to 0.25
Info: NONBONDED TABLE R-SQUARED SPACING: 0.0625
Info: NONBONDED TABLE SIZE: 705 POINTS
TCL: Running for 1500000 steps
ETITLE: TS BOND ANGLE DIHED IMPRP ELECT VDW BOUNDARY MISC KINETIC TOTAL TEMP POTENTIAL TOTALAVG TEMPAVG PRESSURE GPRESSURE VOLUME PRESSAVG GPRESSAVG
ENERGY: 0 3.9699 5.6159 7.1444 0.0000 -10766.6345 1473.3732 0.0000 0.0000 1763.4606 -7513.0706 300.0554 -9276.5311 -7513.0706 300.0554 92.2185 180.6271 29799.1509 92.2185 180.6271
ENERGY: 300000 4.2375 8.5988 4.9478 0.0000 -10477.2498 1297.9519 0.0000 0.0000 1750.7998 -7410.7139 297.9011 -9161.5137 -7483.3021 299.1330 -1181.5729 -1152.5428 30562.5006 -137.6943 -81.8585
ENERGY: 600000 2.1558 8.3318 7.1011 0.0000 -10796.6167 1475.2713 0.0000 0.0000 1745.0425 -7558.7142 296.9215 -9303.7567 -7487.7990 298.5151 -262.2528 -140.1312 30520.7564 -145.8297 -79.4869
ENERGY: 900000 2.5227 4.0043 5.3491 0.0000 -10676.1000 1483.9101 0.0000 0.0000 1782.6162 -7397.6976 303.3147 -9180.3139 -7480.5232 297.8519 424.6867 491.3755 30568.9159 -64.0050 -2.6786
ENERGY: 1200000 2.0748 7.2742 4.6526 0.0000 -10629.4721 1386.2462 0.0000 0.0000 1740.5298 -7488.6946 296.1536 -9229.2244 -7467.6254 298.7088 -495.6041 -461.0682 30513.0245 -110.9826 -59.0961
ENERGY: 1500000 3.0711 8.1496 6.9568 0.0000 -10678.1931 1439.1235 0.0000 0.0000 1832.6167 -7388.2753 311.8224 -9220.8920 -7462.0189 299.9279 101.6381 151.3247 30493.6083 -197.4842 -146.5140
TCL: Running FEP window   6: Lambda1 0.25   Lambda2 0.3    [dLambda 0.04999999999999999]
TCL: Setting parameter firsttimestep to 0
TCL: Setting parameter alchLambda to 0.25
Info: NONBONDED TABLE R-SQUARED SPACING: 0.0625
Info: NONBONDED TABLE SIZE: 705 POINTS
TCL: Setting parameter alchLambda2 to 0.3
Info: NONBONDED TABLE R-SQUARED SPACING: 0.0625
Info: NONBONDED TABLE SIZE: 705 POINTS
TCL: Running for 1500000 steps
ETITLE: TS BOND ANGLE DIHED IMPRP ELECT VDW BOUNDARY MISC KINETIC TOTAL TEMP POTENTIAL TOTALAVG TEMPAVG PRESSURE GPRESSURE VOLUME PRESSAVG GPRESSAVG
ENERGY: 0 3.0711 8.1496 6.9568 0.0000 -10678.1930 1438.6594 0.0000 0.0000 1831.7400 -7389.6161 311.6732 -9221.3561 -7389.6161 311.6732 72.0224 153.7653 30493.6083 72.0224 153.7653
ENERGY: 300000 5.5110 11.2123 5.9002 0.0000 -10699.3865 1398.5662 0.0000 0.0000 1768.8074 -7509.3894 300.9651 -9278.1967 -7437.2213 303.3843 -631.5131 -587.9234 30254.8069 -117.6186 -40.0824
ENERGY: 600000 3.2190 9.9518 3.6911 0.0000 -10795.6613 1549.9476 0.0000 0.0000 1734.1327 -7494.7191 295.0652 -9228.8518 -7437.1547 301.5253 901.6860 965.8299 30133.0966 245.1619 310.4228
ENERGY: 900000 2.1436 7.4303 5.2138 0.0000 -10780.7033 1508.8455 0.0000 0.0000 1794.1239 -7462.9462 305.2728 -9257.0701 -7447.8994 300.3123 401.4578 501.8150 30245.7365 180.4133 250.4954
ENERGY: 1200000 1.5000 11.9148 5.4545 0.0000 -10620.7025 1454.0770 0.0000 0.0000 1732.9233 -7414.8329 294.8594 -9147.7563 -7458.7650 298.9763 163.1189 215.7203 30411.5014 193.5097 247.9406
ENERGY: 1500000 2.0782 6.8469 8.5816 0.0000 -10728.1757 1442.4850 0.0000 0.0000 1705.8763 -7562.3077 290.2573 -9268.1840 -7461.2390 299.1593 -113.8653 -6.3687 30283.1446 132.1419 188.9119
TCL: Running FEP window   7: Lambda1 0.3    Lambda2 0.35   [dLambda 0.04999999999999999]
TCL: Setting parameter firsttimestep to 0
TCL: Setting parameter alchLambda to 0.3
Info: NONBONDED TABLE R-SQUARED SPACING: 0.0625
Info: NONBONDED TABLE SIZE: 705 POINTS
TCL: Setting parameter alchLambda2 to 0.35
Info: NONBONDED TABLE R-SQUARED SPACING: 0.0625
Info: NONBONDED TABLE SIZE: 705 POINTS
TCL: Running for 1500000 steps
ETITLE: TS BOND ANGLE DIHED IMPRP ELECT VDW BOUNDARY MISC KINETIC TOTAL TEMP POTENTIAL TOTALAVG TEMPAVG PRESSURE GPRESSURE VOLUME PRESSAVG GPRESSAVG
ENERGY: 0 2.0782 6.8469 8.5816 0.0000 -10728.1766 1442.5917 0.0000 0.0000 1705.0164 -7563.0617 290.1110 -9268.0782 -7563.0617 290.1110 -87.8417 -5.7143 30283.1446 -87.8417 -5.7143
ENERGY: 300000 3.4967 6.3512 3.4909 0.0000 -10727.1382 1463.7350 0.0000 0.0000 1755.8963 -7494.1682 298.7683 -9250.0645 -7510.7729 295.1786 -224.0965 -71.9194 30364.8199 -233.7830 -179.7189
ENERGY: 600000 3.4783 7.8060 2.6274 0.0000 -10603.5828 1362.3895 0.0000 0.0000 1760.0393 -7467.2422 299.4732 -9227.2815 -7499.5025 299.2738 -575.5074 -512.9603 30481.4227 -177.4156 -107.2268
ENERGY: 900000 3.3015 9.0460 3.7338 0.0000 -10717.8693 1461.7978 0.0000 0.0000 1773.6618 -7466.3283 301.7911 -9239.9901 -7498.5168 299.4066 138.8907 172.3316 30358.8789 -121.9303 -54.6218
ENERGY: 1200000 3.1496 6.0863 3.7074 0.0000 -10690.8753 1425.2104 0.0000 0.0000 1810.9979 -7441.7237 308.1439 -9252.7216 -7495.8433 300.4659 -50.9652 34.7073 29733.0834 -119.0372 -45.0744
ENERGY: 1500000 2.2008 9.5774 8.6589 0.0000 -10703.9577 1502.4327 0.0000 0.0000 1737.7056 -7443.3824 295.6731 -9181.0879 -7501.4564 299.0417 582.1344 669.3052 30137.0838 -75.5633 -4.1134
TCL: Running FEP window   8: Lambda1 0.35   Lambda2 0.39999999999999997 [dLambda 0.04999999999999999]
TCL: Setting parameter firsttimestep to 0
TCL: Setting parameter alchLambda to 0.35
Info: NONBONDED TABLE R-SQUARED SPACING: 0.0625
Info: NONBONDED TABLE SIZE: 705 POINTS
TCL: Setting parameter alchLambda2 to 0.39999999999999997
Info: NONBONDED TABLE R-SQUARED SPACING: 0.0625
Info: NONBONDED TABLE SIZE: 705 POINTS
TCL: Running for 1500000 steps
ETITLE: TS BOND ANGLE DIHED IMPRP ELECT VDW BOUNDARY MISC KINETIC TOTAL TEMP POTENTIAL TOTALAVG TEMPAVG PRESSURE GPRESSURE VOLUME PRESSAVG GPRESSAVG
ENERGY: 0 2.2008 9.5774 8.6589 0.0000 -10703.9578 1502.4878 0.0000 0.0000 1736.8743 -7444.1585 295.5317 -9181.0329 -7444.1585 295.5317 588.7750 672.8750 30137.0838 588.7750 672.8750
ENERGY: 300000 1.7952 6.1083 6.6663 0.0000 -10799.5023 1527.9518 0.0000 0.0000 1853.0640 -7403.9167 315.3015 -9256.9807 -7453.4407 302.1811 957.1496 1003.3595 29896.2923 351.2688 435.6713
ENERGY: 600000 4.0094 3.3466 3.6736 0.0000 -10658.0816 1446.8580 0.0000 0.0000 1780.0168 -7420.1772 302.8724 -9200.1940 -7466.4034 301.2933 195.3528 241.5476 30387.3703 102.7298 174.9942
ENERGY: 900000 0.5640 8.3444 9.6376 0.0000 -10769.0414 1512.2702 0.0000 0.0000 1817.8993 -7420.3258 309.3182 -9238.2252 -7462.8765 301.6541 455.1729 531.1416 30341.9920 120.3624 195.7786
ENERGY: 1200000 2.8871 9.2491 3.4596 0.0000 -10799.0870 1503.3480 0.0000 0.0000 1766.8947 -7513.2485 300.6397 -9280.1432 -7469.7008 300.3086 620.9511 665.9119 29869.3350 25.5020 90.3393
ENERGY: 1500000 1.6152 5.0215 5.1487 0.0000 -10669.1133 1362.2310 0.0000 0.0000 1782.9197 -7512.1772 303.3664 -9295.0969 -7478.6199 299.8797 -578.3471 -583.1965 30316.3652 -81.1845 -18.8096
TCL: Running FEP window   9: Lambda1 0.39999999999999997 Lambda2 0.44999999999999996 [dLambda 0.04999999999999999]
TCL: Setting parameter firsttimestep to 0
TCL: Setting parameter alchLambda to 0.39999999999999997
Info: NONBONDED TABLE R-SQUARED SPACING: 0.0625
Info: NONBONDED TABLE SIZE: 705 POINTS
TCL: Setting parameter alchLambda2 to 0.44999999999999996
Info: NONBONDED TABLE R-SQUARED SPACING: 0.0625
Info: NONBONDED TABLE SIZE: 705 POINTS
TCL: Running for 1500000 steps
ETITLE: TS BOND ANGLE DIHED IMPRP ELECT VDW BOUNDARY MISC KINETIC TOTAL TEMP POTENTIAL TOTALAVG TEMPAVG PRESSURE GPRESSURE VOLUME PRESSAVG GPRESSAVG
ENERGY: 0 1.6152 5.0215 5.1487 0.0000 -10669.1143 1362.0471 0.0000 0.0000 1782.0297 -7513.2521 303.2149 -9295.2818 -7513.2521 303.2149 -656.3799 -580.8386 30316.3652 -656.3799 -580.8386
ENERGY: 300000 2.4032 8.5641 4.1610 0.0000 -10601.0518 1419.4960 0.0000 0.0000 1764.1054 -7402.3221 300.1651 -9166.4275 -7467.1380 300.6234 89.8385 130.0766 30310.5459 134.6817 185.9989
ENERGY: 600000 2.5155 5.9093 7.1927 0.0000 -10660.9942 1404.5001 0.0000 0.0000 1738.0319 -7502.8448 295.7286 -9240.8766 -7476.7660 299.3807 -296.5836 -262.5457 30348.4726 -49.3362 6.2642
ENERGY: 900000 8.6012 5.2535 7.2306 0.0000 -10750.1374 1436.2194 0.0000 0.0000 1738.9186 -7553.9142 295.8795 -9292.8328 -7490.9500 298.6708 -429.2283 -308.4839 29797.9811 -92.1934 -26.6526
ENERGY: 1200000 2.4804 4.0571 7.0850 0.0000 -10607.7412 1430.0651 0.0000 0.0000 1732.2117 -7431.8418 294.7383 -9164.0535 -7497.6291 298.0552 -184.3944 -136.8173 30672.6313 -17.9455 46.8349
ENERGY: 1500000 2.2898 6.7177 4.9336 0.0000 -10678.7614 1446.7307 0.0000 0.0000 1804.9947 -7413.0950 307.1225 -9218.0897 -7495.9699 299.2589 16.1051 67.7776 30462.1329 66.4514 131.4191
TCL: Running FEP window  10: Lambda1 0.44999999999999996 Lambda2 0.49999999999999994 [dLambda 0.04999999999999999]
TCL: Setting parameter firsttimestep to 0
TCL: Setting parameter alchLambda to 0.44999999999999996
Info: NONBONDED TABLE R-SQUARED SPACING: 0.0625
Info: NONBONDED TABLE SIZE: 705 POINTS
TCL: Setting parameter alchLambda2 to 0.49999999999999994
Info: NONBONDED TABLE R-SQUARED SPACING: 0.0625
Info: NONBONDED TABLE SIZE: 705 POINTS
TCL: Running for 1500000 steps
ETITLE: TS BOND ANGLE DIHED IMPRP ELECT VDW BOUNDARY MISC KINETIC TOTAL TEMP POTENTIAL TOTALAVG TEMPAVG PRESSURE GPRESSURE VOLUME PRESSAVG GPRESSAVG
ENERGY: 0 2.2898 6.7177 4.9336 0.0000 -10678.7617 1446.6911 0.0000 0.0000 1804.1106 -7414.0190 306.9720 -9218.1296 -7414.0190 306.9720 -7.6662 73.2781 30462.1329 -7.6662 73.2781
ENERGY: 300000 4.4696 5.2676 4.4795 0.0000 -10630.9319 1370.5390 0.0000 0.0000 1763.2699 -7482.9064 300.0229 -9246.1763 -7447.4215 303.1740 -573.5424 -561.8281 30573.0401 102.0028 158.8049
ENERGY: 600000 1.9956 7.3087 4.8218 0.0000 -10740.2824 1439.9419 0.0000 0.0000 1754.2531 -7531.9611 298.4887 -9286.2143 -7480.0984 300.7222 -177.1294 -45.4871 30244.2667 110.0919 174.5251
ENERGY: 900000 1.7111 6.8906 11.7300 0.0000 -10803.1831 1511.6530 0.0000 0.0000 1801.4003 -7469.7982 306.5109 -9271.1984 -7483.9725 300.9473 257.7923 414.7568 30530.4052 40.5757 102.0897
ENERGY: 1200000 0.8852 5.3394 6.8757 0.0000 -10585.2790 1367.5972 0.0000 0.0000 1795.1306 -7409.4509 305.4441 -9204.5815 -7473.1200 301.2596 -272.0148 -152.5077 30238.9609 -31.6115 31.9861
ENERGY: 1500000 2.8063 6.9154 7.0272 0.0000 -10697.9988 1437.3947 0.0000 0.0000 1776.0362 -7467.8190 302.1951 -9243.8552 -7473.2272 300.8185 -119.0475 -71.0324 30368.3076 54.9522 109.3377
TCL: Running FEP window  11: Lambda1 0.49999999999999994 Lambda2 0.5499999999999999 [dLambda 0.04999999999999999]
TCL: Setting parameter firsttimestep to 0
TCL: Setting parameter alchLambda to 0.49999999999999994
Info: NONBONDED TABLE R-SQUARED SPACING: 0.0625
Info: NONBONDED TABLE SIZE: 705 POINTS
TCL: Setting parameter alchLambda2 to 0.5499999999999999
Info: NONBONDED TABLE R-SQUARED SPACING: 0.0625
Info: NONBONDED TABLE SIZE: 705 POINTS
TCL: Running for 1500000 steps
ETITLE: TS BOND ANGLE DIHED IMPRP ELECT VDW BOUNDARY MISC KINETIC TOTAL TEMP POTENTIAL TOTALAVG TEMPAVG PRESSURE GPRESSURE VOLUME PRESSAVG GPRESSAVG
ENERGY: 0 2.8063 6.9154 7.0272 0.0000 -10697.9995 1437.1559 0.0000 0.0000 1775.1720 -7468.9227 302.0481 -9244.0947 -7468.9227 302.0481 -143.7576 -63.3735 30368.3076 -143.7576 -63.3735
ENERGY: 300000 2.2487 5.1504 8.2256 0.0000 -10758.6019 1511.9799 0.0000 0.0000 1822.3469 -7408.6504 310.0750 -9230.9973 -7458.0830 303.2276 622.7571 645.5187 30354.7314 -55.3551 -9.8873
ENERGY: 600000 2.8340 13.4669 4.8280 0.0000 -10585.0222 1389.9128 0.0000 0.0000 1751.7705 -7422.2099 298.0663 -9173.9805 -7435.2758 304.1861 -466.7154 -460.2375 30720.6600 -265.5525 -222.2069
ENERGY: 900000 2.0674 5.3648 6.0114 0.0000 -10633.4442 1379.2307 0.0000 0.0000 1744.2318 -7496.5381 296.7836 -9240.7699 -7448.7591 303.0338 -726.7954 -637.2010 30690.2632 -284.0933 -234.8781
ENERGY: 1200000 2.9349 6.3042 6.4067 0.0000 -10729.0138 1425.1002 0.0000 0.0000 1743.9487 -7544.3190 296.7354 -9288.2677 -7466.8202 301.5020 -353.1728 -279.2032 30249.2646 -238.7177 -186.1632
ENERGY: 1500000 0.6574 7.3940 6.7276 0.0000 -10612.0275 1380.4578 0.0000 0.0000 1797.5990 -7419.1918 305.8641 -9216.7907 -7467.6971 301.3608 -335.8353 -219.9378 30218.1182 -204.0436 -146.2619
TCL: Running FEP window  12: Lambda1 0.5499999999999999 Lambda2 0.6    [dLambda 0.050000000000000044]
TCL: Setting parameter firsttimestep to 0
TCL: Setting parameter alchLambda to 0.5499999999999999
Info: NONBONDED TABLE R-SQUARED SPACING: 0.0625
Info: NONBONDED TABLE SIZE: 705 POINTS
TCL: Setting parameter alchLambda2 to 0.6
Info: NONBONDED TABLE R-SQUARED SPACING: 0.0625
Info: NONBONDED TABLE SIZE: 705 POINTS
TCL: Running for 1500000 steps
ETITLE: TS BOND ANGLE DIHED IMPRP ELECT VDW BOUNDARY MISC KINETIC TOTAL TEMP POTENTIAL TOTALAVG TEMPAVG PRESSURE GPRESSURE VOLUME PRESSAVG GPRESSAVG
ENERGY: 0 0.6574 7.3940 6.7276 0.0000 -10612.1044 1381.1000 0.0000 0.0000 1796.6855 -7419.5398 305.7086 -9216.2253 -7419.5398 305.7086 -282.2306 -204.1365 30218.1182 -282.2306 -204.1365
ENERGY: 300000 0.8854 8.7253 7.4702 0.0000 -10698.5159 1455.9270 0.0000 0.0000 1795.1425 -7430.3654 305.4461 -9225.5079 -7459.6843 302.2958 104.8282 227.3017 30385.8563 -540.6794 -465.4463
ENERGY: 600000 2.8573 7.5573 4.2040 0.0000 -10718.9543 1395.6053 0.0000 0.0000 1734.7378 -7573.9924 295.1681 -9308.7303 -7470.3510 301.1773 -595.3039 -463.1773 30342.2014 -437.1125 -356.6759
ENERGY: 900000 2.3075 9.4238 2.7856 0.0000 -10781.9488 1476.1861 0.0000 0.0000 1781.8577 -7509.3880 303.1857 -9291.2457 -7478.8473 300.5243 164.4000 163.2728 30185.0415 -224.6544 -165.6663
ENERGY: 1200000 4.7019 7.5431 8.7681 0.0000 -10684.7088 1394.2522 0.0000 0.0000 1707.3930 -7562.0504 290.5154 -9269.4435 -7479.5730 299.7641 -881.9445 -740.0732 30523.4882 -299.1767 -233.9592
ENERGY: 1500000 2.5490 9.2072 3.5493 0.0000 -10693.6907 1469.0388 0.0000 0.0000 1779.2197 -7430.1267 302.7368 -9209.3464 -7491.1062 299.3885 309.0623 317.8568 30502.4627 -284.9009 -219.9683
TCL: Running FEP window  13: Lambda1 0.6    Lambda2 0.65   [dLambda 0.050000000000000044]
TCL: Setting parameter firsttimestep to 0
TCL: Setting parameter alchLambda to 0.6
Info: NONBONDED TABLE R-SQUARED SPACING: 0.0625
Info: NONBONDED TABLE SIZE: 705 POINTS
TCL: Setting parameter alchLambda2 to 0.65
Info: NONBONDED TABLE R-SQUARED SPACING: 0.0625
Info: NONBONDED TABLE SIZE: 705 POINTS
TCL: Running for 1500000 steps
ETITLE: TS BOND ANGLE DIHED IMPRP ELECT VDW BOUNDARY MISC KINETIC TOTAL TEMP POTENTIAL TOTALAVG TEMPAVG PRESSURE GPRESSURE VOLUME PRESSAVG GPRESSAVG
ENERGY: 0 2.5490 9.2072 3.5493 0.0000 -10693.8720 1469.7974 0.0000 0.0000 1778.3762 -7430.3927 302.5933 -9208.7690 -7430.3927 302.5933 258.5606 334.9341 30502.4627 258.5606 334.9341
ENERGY: 300000 2.5239 8.8380 7.5038 0.0000 -10651.8882 1376.1329 0.0000 0.0000 1815.0597 -7441.8299 308.8350 -9256.8896 -7461.6897 303.8054 -570.6352 -458.0815 30401.9721 294.9030 375.6357
ENERGY: 600000 2.1762 4.4523 3.9957 0.0000 -10815.3982 1483.4719 0.0000 0.0000 1707.7361 -7613.5658 290.5738 -9321.3020 -7495.5509 299.8404 102.5436 104.0600 30221.5257 133.0834 190.8176
ENERGY: 900000 2.5693 7.3781 5.1343 0.0000 -10668.9890 1438.9223 0.0000 0.0000 1778.5853 -7436.3995 302.6289 -9214.9849 -7494.5674 299.9990 -16.2152 23.1100 30536.0053 134.8650 175.5594
ENERGY: 1200000 4.4856 3.1512 7.6614 0.0000 -10723.7691 1460.6042 0.0000 0.0000 1817.3462 -7430.5205 309.2241 -9247.8667 -7488.5737 300.4732 -51.9221 26.2770 30279.9678 -7.2138 38.3303
ENERGY: 1500000 2.8173 10.1628 4.6433 0.0000 -10712.2946 1412.7686 0.0000 0.0000 1749.4428 -7532.4598 297.6702 -9281.9027 -7490.4691 300.1788 -516.9898 -467.2992 30338.8047 -64.8071 -15.5924
TCL: Running FEP window  14: Lambda1 0.65   Lambda2 0.7000000000000001 [dLambda 0.050000000000000044]
TCL: Setting parameter firsttimestep to 0
TCL: Setting parameter alchLambda to 0.65
Info: NONBONDED TABLE R-SQUARED SPACING: 0.0625
Info: NONBONDED TABLE SIZE: 705 POINTS
TCL: Setting parameter alchLambda2 to 0.7000000000000001
Info: NONBONDED TABLE R-SQUARED SPACING: 0.0625
Info: NONBONDED TABLE SIZE: 705 POINTS
TCL: Running for 1500000 steps
ETITLE: TS BOND ANGLE DIHED IMPRP ELECT VDW BOUNDARY MISC KINETIC TOTAL TEMP POTENTIAL TOTALAVG TEMPAVG PRESSURE GPRESSURE VOLUME PRESSAVG GPRESSAVG
ENERGY: 0 2.8173 10.1628 4.6433 0.0000 -10712.5375 1412.6804 0.0000 0.0000 1748.5303 -7533.7035 297.5150 -9282.2338 -7533.7035 297.5150 -535.0065 -463.1689 30338.8047 -535.0065 -463.1689
ENERGY: 300000 3.3566 6.8331 5.0556 0.0000 -10603.8702 1411.5825 0.0000 0.0000 1735.1921 -7441.8503 295.2454 -9177.0423 -7477.0403 301.7364 -153.8947 -65.4019 30300.3905 14.9502 93.4546
ENERGY: 600000 1.9515 5.4824 2.9629 0.0000 -10692.8294 1435.3758 0.0000 0.0000 1785.1227 -7461.9341 303.7412 -9247.0568 -7472.7460 300.5042 -47.4488 38.0236 30160.7862 31.3392 114.8898
ENERGY: 900000 1.7744 7.5597 5.1254 0.0000 -10702.8862 1479.1581 0.0000 0.0000 1804.4270 -7404.8416 307.0259 -9209.2687 -7475.9734 300.3564 296.7031 392.5546 30359.1031 17.8195 102.6935
ENERGY: 1200000 0.9444 6.8469 8.0544 0.0000 -10752.0579 1456.3315 0.0000 0.0000 1778.8017 -7501.0789 302.6657 -9279.8807 -7480.5732 300.5511 -30.8899 13.8008 30471.6925 25.2481 102.3594
ENERGY: 1500000 1.1542 4.2004 5.3735 0.0000 -10651.2148 1450.3256 0.0000 0.0000 1814.1612 -7375.9999 308.6822 -9190.1612 -7473.9062 300.7832 322.8310 356.0692 30600.8932 -42.7594 35.9687
TCL: Running FEP window  15: Lambda1 0.7000000000000001 Lambda2 0.7500000000000001 [dLambda 0.050000000000000044]
TCL: Setting parameter firsttimestep to 0
TCL: Setting parameter alchLambda to 0.7000000000000001
Info: NONBONDED TABLE R-SQUARED SPACING: 0.0625
Info: NONBONDED TABLE SIZE: 705 POINTS
TCL: Setting parameter alchLambda2 to 0.7500000000000001
Info: NONBONDED TABLE R-SQUARED SPACING: 0.0625
Info: NONBONDED TABLE SIZE: 705 POINTS
TCL: Running for 1500000 steps
ETITLE: TS BOND ANGLE DIHED IMPRP ELECT VDW BOUNDARY MISC KINETIC TOTAL TEMP POTENTIAL TOTALAVG TEMPAVG PRESSURE GPRESSURE VOLUME PRESSAVG GPRESSAVG
ENERGY: 0 1.1542 4.2004 5.3735 0.0000 -10651.6674 1450.4174 0.0000 0.0000 1813.2776 -7377.2443 308.5318 -9190.5219 -7377.2443 308.5318 275.3199 367.8906 30600.8932 275.3199 367.8906
ENERGY: 300000 2.3607 5.8291 4.2377 0.0000 -10648.1886 1382.9359 0.0000 0.0000 1716.8709 -7535.9543 292.1281 -9252.8252 -7475.2932 300.6718 -522.5841 -453.0703 30763.4601 -66.2774 0.0886
ENERGY: 600000 3.4354 3.9654 2.8726 0.0000 -10702.8215 1410.1056 0.0000 0.0000 1747.4496 -7534.9928 297.3311 -9282.4424 -7487.6443 301.0204 -595.8795 -539.8049 30724.0276 -207.2200 -142.2524
ENERGY: 900000 4.9576 5.0142 5.6791 0.0000 -10620.5378 1334.0224 0.0000 0.0000 1817.3360 -7453.5285 309.2223 -9270.8645 -7488.2120 301.5447 -699.6339 -581.7726 29927.0039 -274.6018 -210.9606
ENERGY: 1200000 2.3289 6.7838 7.7383 0.0000 -10683.5227 1362.4998 0.0000 0.0000 1738.4068 -7565.7650 295.7924 -9304.1718 -7487.1098 300.8646 -725.3799 -711.8112 30464.9355 -264.8563 -204.5307
ENERGY: 1500000 2.7992 6.3158 3.2089 0.0000 -10607.5007 1423.3986 0.0000 0.0000 1780.8917 -7390.8865 303.0213 -9171.7783 -7483.1982 300.7656 122.4583 198.2016 30515.7823 -187.9644 -127.6561
TCL: Running FEP window  16: Lambda1 0.7500000000000001 Lambda2 0.8000000000000002 [dLambda 0.050000000000000044]
TCL: Setting parameter firsttimestep to 0
TCL: Setting parameter alchLambda to 0.7500000000000001
Info: NONBONDED TABLE R-SQUARED SPACING: 0.0625
Info: NONBONDED TABLE SIZE: 705 POINTS
TCL: Setting parameter alchLambda2 to 0.8000000000000002
Info: NONBONDED TABLE R-SQUARED SPACING: 0.0625
Info: NONBONDED TABLE SIZE: 705 POINTS
TCL: Running for 1500000 steps
ETITLE: TS BOND ANGLE DIHED IMPRP ELECT VDW BOUNDARY MISC KINETIC TOTAL TEMP POTENTIAL TOTALAVG TEMPAVG PRESSURE GPRESSURE VOLUME PRESSAVG GPRESSAVG
ENERGY: 0 2.7991 6.3158 3.2089 0.0000 -10607.6269 1423.2441 0.0000 0.0000 1780.0187 -7392.0403 302.8727 -9172.0590 -7392.0403 302.8727 126.0655 208.2458 30515.7823 126.0655 208.2458
ENERGY: 300000 1.7186 6.0971 5.4611 0.0000 -10655.1348 1382.2989 0.0000 0.0000 1804.4964 -7455.0627 307.0377 -9259.5591 -7453.2897 300.1646 -482.4661 -445.6418 30528.8704 -106.1998 -58.9291
ENERGY: 600000 4.5036 5.6384 7.1282 0.0000 -10867.6571 1578.5697 0.0000 0.0000 1788.2080 -7483.6092 304.2662 -9271.8173 -7474.0079 299.9011 1016.3953 1086.1998 30263.3133 -50.0027 12.3353
ENERGY: 900000 7.9075 5.0162 7.4523 0.0000 -10731.0917 1468.4357 0.0000 0.0000 1734.3593 -7507.9206 295.1037 -9242.2799 -7478.1268 299.8000 -164.4955 -96.1049 30526.6029 -39.5229 23.3526
ENERGY: 1200000 2.0054 7.2556 2.7771 0.0000 -10582.2557 1363.4045 0.0000 0.0000 1750.1332 -7456.6799 297.7877 -9206.8131 -7463.9524 299.8163 -586.8978 -478.0748 30288.1352 28.6510 97.0189
ENERGY: 1500000 1.0976 6.7033 2.8588 0.0000 -10770.1227 1492.2776 0.0000 0.0000 1741.2536 -7525.9318 296.2768 -9267.1854 -7474.7115 299.2237 473.3230 619.4698 30185.4381 65.9176 138.3162
TCL: Running FEP window  17: Lambda1 0.8000000000000002 Lambda2 0.8500000000000002 [dLambda 0.050000000000000044]
TCL: Setting parameter firsttimestep to 0
TCL: Setting parameter alchLambda to 0.8000000000000002
Info: NONBONDED TABLE R-SQUARED SPACING: 0.0625
Info: NONBONDED TABLE SIZE: 705 POINTS
TCL: Setting parameter alchLambda2 to 0.8500000000000002
Info: NONBONDED TABLE R-SQUARED SPACING: 0.0625
Info: NONBONDED TABLE SIZE: 705 POINTS
TCL: Running for 1500000 steps
ETITLE: TS BOND ANGLE DIHED IMPRP ELECT VDW BOUNDARY MISC KINETIC TOTAL TEMP POTENTIAL TOTALAVG TEMPAVG PRESSURE GPRESSURE VOLUME PRESSAVG GPRESSAVG
ENERGY: 0 1.0976 6.7033 2.8587 0.0000 -10770.6963 1493.4993 0.0000 0.0000 1740.3769 -7526.1605 296.1276 -9266.5374 -7526.1605 296.1276 555.1446 644.2136 30185.4381 555.1446 644.2136
ENERGY: 300000 1.6867 6.9720 3.5861 0.0000 -10732.3886 1451.0487 0.0000 0.0000 1743.8343 -7525.2608 296.7159 -9269.0951 -7495.9556 297.2181 -100.8553 -57.8210 30713.6803 47.5756 102.8463
ENERGY: 600000 1.8476 3.8874 11.3371 0.0000 -10586.0684 1404.1979 0.0000 0.0000 1769.2348 -7395.5636 301.0379 -9164.7984 -7494.9988 298.3618 200.9810 207.8235 30182.5931 105.7532 158.8825
ENERGY: 900000 0.7595 8.7108 6.1827 0.0000 -10745.7238 1462.7555 0.0000 0.0000 1768.2888 -7499.0265 300.8769 -9267.3153 -7489.1937 298.7689 134.8560 231.6371 30266.1516 44.7585 98.6101
ENERGY: 1200000 1.5561 3.9545 6.8082 0.0000 -10734.4748 1483.4448 0.0000 0.0000 1733.6393 -7505.0719 294.9812 -9238.7112 -7478.4042 298.6498 420.9443 463.7478 30364.1701 -12.1667 43.9070
ENERGY: 1500000 3.8285 9.1361 4.4443 0.0000 -10646.3932 1388.7970 0.0000 0.0000 1747.5167 -7492.6706 297.3425 -9240.1873 -7473.8322 299.0436 -31.2430 -44.5276 30231.7592 -16.0956 37.2877
TCL: Running FEP window  18: Lambda1 0.8500000000000002 Lambda2 0.9000000000000002 [dLambda 0.050000000000000044]
TCL: Setting parameter firsttimestep to 0
TCL: Setting parameter alchLambda to 0.8500000000000002
Info: NONBONDED TABLE R-SQUARED SPACING: 0.0625
Info: NONBONDED TABLE SIZE: 705 POINTS
TCL: Setting parameter alchLambda2 to 0.9000000000000002
Info: NONBONDED TABLE R-SQUARED SPACING: 0.0625
Info: NONBONDED TABLE SIZE: 705 POINTS
TCL: Running for 1500000 steps
ETITLE: TS BOND ANGLE DIHED IMPRP ELECT VDW BOUNDARY MISC KINETIC TOTAL TEMP POTENTIAL TOTALAVG TEMPAVG PRESSURE GPRESSURE VOLUME PRESSAVG GPRESSAVG
ENERGY: 0 3.8285 9.1361 4.4443 0.0000 -10647.4117 1389.7473 0.0000 0.0000 1746.6360 -7493.6194 297.1926 -9240.2554 -7493.6194 297.1926 -104.4280 -21.7160 30231.7592 -104.4280 -21.7160
ENERGY: 300000 4.7255 6.1322 2.3147 0.0000 -10655.7072 1424.0229 0.0000 0.0000 1756.3131 -7462.1988 298.8392 -9218.5119 -7447.6689 303.6506 -221.6365 -161.5469 30602.5165 45.9741 106.9526
ENERGY: 600000 3.8436 4.6858 5.3011 0.0000 -10624.0830 1385.3853 0.0000 0.0000 1809.1711 -7415.6960 307.8331 -9224.8671 -7456.9050 303.6143 -319.4077 -195.9125 30486.6566 165.0274 228.3262
ENERGY: 900000 2.0862 5.6144 7.3471 0.0000 -10718.7649 1446.0084 0.0000 0.0000 1793.0433 -7464.6654 305.0889 -9257.7088 -7471.7338 303.1086 379.4523 447.2088 29963.8141 124.8919 185.8666
ENERGY: 1200000 5.3212 4.4754 3.2394 0.0000 -10825.4224 1527.1034 0.0000 0.0000 1698.9353 -7586.3477 289.0763 -9285.2830 -7481.2403 302.0493 643.9994 732.1880 30196.1450 103.7643 170.1791
ENERGY: 1500000 3.3836 7.1251 5.7056 0.0000 -10671.7099 1374.5667 0.0000 0.0000 1769.9377 -7510.9912 301.1575 -9280.9289 -7483.8819 301.0546 -844.5979 -748.9845 30716.3123 -22.4309 49.7132
TCL: Running FEP window  19: Lambda1 0.9000000000000002 Lambda2 0.9500000000000003 [dLambda 0.050000000000000044]
TCL: Setting parameter firsttimestep to 0
TCL: Setting parameter alchLambda to 0.9000000000000002
Info: NONBONDED TABLE R-SQUARED SPACING: 0.0625
Info: NONBONDED TABLE SIZE: 705 POINTS
TCL: Setting parameter alchLambda2 to 0.9500000000000003
Info: NONBONDED TABLE R-SQUARED SPACING: 0.0625
Info: NONBONDED TABLE SIZE: 705 POINTS
TCL: Running for 1500000 steps
ETITLE: TS BOND ANGLE DIHED IMPRP ELECT VDW BOUNDARY MISC KINETIC TOTAL TEMP POTENTIAL TOTALAVG TEMPAVG PRESSURE GPRESSURE VOLUME PRESSAVG GPRESSAVG
ENERGY: 0 3.3836 7.1251 5.7056 0.0000 -10672.3433 1374.6251 0.0000 0.0000 1769.0419 -7512.4619 301.0050 -9281.5039 -7512.4619 301.0050 -813.5327 -735.2774 30716.3123 -813.5327 -735.2774
ENERGY: 300000 3.8584 7.0871 3.4537 0.0000 -10524.4489 1384.8354 0.0000 0.0000 1779.3533 -7345.8610 302.7595 -9125.2144 -7464.4415 299.8701 -42.3116 30.0860 30803.9938 -478.1322 -407.5052
ENERGY: 600000 2.6587 6.8420 2.9314 0.0000 -10732.5111 1432.5425 0.0000 0.0000 1771.4209 -7516.1155 301.4098 -9287.5364 -7481.4915 300.0803 -185.7672 -92.4836 30426.8707 -342.4319 -277.0291
ENERGY: 900000 2.2267 5.3003 8.2893 0.0000 -10573.6910 1350.6274 0.0000 0.0000 1768.9057 -7438.3416 300.9818 -9207.2472 -7492.6100 298.8251 -718.8375 -649.3949 30575.0122 -381.2022 -316.6499
ENERGY: 1200000 1.5880 7.9226 6.1916 0.0000 -10743.9964 1446.7145 0.0000 0.0000 1807.0004 -7474.5794 307.4637 -9281.5798 -7491.5087 299.2438 -61.2246 -22.8746 30446.0906 -205.5668 -143.9639
ENERGY: 1500000 1.2864 8.1940 6.7046 0.0000 -10614.1284 1395.3596 0.0000 0.0000 1704.9177 -7497.6661 290.0942 -9202.5838 -7483.3831 298.6451 -301.8446 -272.2020 30554.5291 -187.7233 -126.4987
TCL: Running FEP window  20: Lambda1 0.9500000000000003 Lambda2 1.0    [dLambda 0.04999999999999971]
TCL: Setting parameter firsttimestep to 0
TCL: Setting parameter alchLambda to 0.9500000000000003
Info: NONBONDED TABLE R-SQUARED SPACING: 0.0625
Info: NONBONDED TABLE SIZE: 705 POINTS
TCL: Setting parameter alchLambda2 to 1.0
Info: NONBONDED TABLE R-SQUARED SPACING: 0.0625
Info: NONBONDED TABLE SIZE: 705 POINTS
TCL: Running for 1500000 steps
ETITLE: TS BOND ANGLE DIHED IMPRP ELECT VDW BOUNDARY MISC KINETIC TOTAL TEMP POTENTIAL TOTALAVG TEMPAVG PRESSURE GPRESSURE VOLUME PRESSAVG GPRESSAVG
ENERGY: 0 1.2864 8.1940 6.7046 0.0000 -10614.8107 1395.3584 0.0000 0.0000 1704.0527 -7499.2146 289.9470 -9203.2673 -7499.2146 289.9470 -344.0157 -258.3566 30554.5291 -344.0157 -258.3566
ENERGY: 300000 3.2828 4.6364 6.6729 0.0000 -10636.8801 1399.5749 0.0000 0.0000 1766.3103 -7456.4028 300.5402 -9222.7131 -7483.3846 297.4486 -360.2912 -313.0797 30544.6801 124.8905 161.4750
ENERGY: 600000 2.8014 7.8895 4.7909 0.0000 -10695.7101 1437.6174 0.0000 0.0000 1780.1266 -7462.4842 302.8911 -9242.6108 -7455.4913 302.3170 -38.9110 5.9624 30567.7060 51.9639 108.5083
ENERGY: 900000 4.5795 4.8765 5.5203 0.0000 -10769.2028 1434.1527 0.0000 0.0000 1741.6168 -7578.4570 296.3386 -9320.0738 -7482.7266 301.4200 -183.7294 -129.1242 30211.9357 19.5323 76.0388
ENERGY: 1200000 3.4907 3.0313 4.9021 0.0000 -10662.8277 1438.9053 0.0000 0.0000 1775.0639 -7437.4344 302.0297 -9212.4983 -7486.1983 301.1483 -72.5247 14.6591 30353.8654 53.2252 113.7171
ENERGY: 1500000 2.4523 5.1200 5.0777 0.0000 -10761.1204 1477.0948 0.0000 0.0000 1753.8306 -7517.5450 298.4168 -9271.3756 -7491.6562 299.8416 70.6860 143.6183 30472.5547 16.7555 80.4859
TCL: Exiting due to exit command.
