Info: SIMULATION PARAMETERS:
Info: TIMESTEP               2
Info: NUMBER OF STEPS        0
Info: STEPS PER CYCLE        10
Info: PERIODIC CELL BASIS 1  32.097 0 0
Info: PERIODIC CELL BASIS 2  0 29.7783 0
Info: PERIODIC CELL BASIS 3  0 0 32.6123
Info: PERIODIC CELL CENTER   0 0 0
Info: WRAPPING WATERS AROUND PERIODIC BOUNDARIES ON OUTPUT.
Info: WRAPPING ALL CLUSTERS AROUND PERIODIC BOUNDARIES ON OUTPUT.
Info: FIRST LDB TIMESTEP     50
Info: LAST LDB TIMESTEP     -1
Info: HOM BACKGROUND SCALING 1
Info: PME BACKGROUND SCALING 1
Info: MIN ATOMS PER PATCH    40
Info: EMPTY PATCH LOAD       40 ATOMS
Info: VELOCITY FILE          mobley_9626434_equil.vel
Info: CENTER OF MASS MOVING INITIALLY? NO
Info: DIELECTRIC             1
Info: EXCLUDE                SCALED ONE-FOUR
Info: 1-4 ELECTROSTATICS SCALED BY 0.833333
Info: MODIFIED 1-4 VDW PARAMETERS WILL BE USED
Info: DCD FILENAME           mobley_9626434_prod.dcd
Info: DCD FREQUENCY          100000
Info: DCD FIRST STEP         100000
Info: DCD FILE WILL CONTAIN UNIT CELL DATA
Info: XST FILENAME           mobley_9626434_prod.xst
Info: XST FREQUENCY          100000
Info: NO VELOCITY DCD OUTPUT
Info: NO FORCE DCD OUTPUT
Info: OUTPUT FILENAME        mobley_9626434_prod
Info: BINARY OUTPUT FILES WILL BE USED
Info: RESTART FILENAME       mobley_9626434_prod.restart
Info: RESTART FREQUENCY      100000
Info: BINARY RESTART FILES WILL BE USED
Info: CUTOFF                 9
Info: PAIRLIST DISTANCE      11
Info: PAIRLIST SHRINK RATE   0.01
Info: PAIRLIST GROW RATE     0.01
Info: PAIRLIST TRIGGER       0.3
Info: PAIRLISTS PER CYCLE    2
Info: PAIRLISTS ENABLED
Info: MARGIN                 2
Info: HYDROGEN GROUP CUTOFF  2.5
Info: PATCH DIMENSION        15.5
Info: ENERGY OUTPUT STEPS    100000
Info: ENERGY EVALUATION STEPS    100000
Info: OUTPUT ENERGY PRECISION 4
Info: CROSSTERM ENERGY INCLUDED IN DIHEDRAL
Info: TIMING OUTPUT STEPS    1000000
Info: PRESSURE OUTPUT STEPS  100000
Info: ALCHEMICAL FEP ON
Info: FEP CURRENT LAMBDA VALUE     0
Info: FEP COMPARISON LAMBDA VALUE  0.05
Info: FEP INTRA-ALCHEMICAL NON-BONDED INTERACTIONS WILL BE RETAINED
Info: FEP INTRA-ALCHEMICAL BONDED INTERACTIONS WILL BE RETAINED
Info: FEP VDW SHIFTING COEFFICIENT 5
Info: FEP ELEC. ACTIVE FOR ANNIHILATED PARTICLES BETWEEN LAMBDA = 0 AND LAMBDA = 0.5
Info: FEP ELEC. ACTIVE FOR EXNIHILATED PARTICLES BETWEEN LAMBDA = 0.5 AND LAMBDA = 1
Info: FEP VDW ACTIVE FOR ANNIHILATED PARTICLES BETWEEN LAMBDA = 0 AND LAMBDA = 1
Info: FEP VDW ACTIVE FOR EXNIHILATED PARTICLES BETWEEN LAMBDA = 0 AND LAMBDA = 1
Info: FEP BOND ACTIVE FOR ANNIHILATED PARTICLES BETWEEN LAMBDA = 1 AND LAMBDA = 1
Info: FEP BOND ACTIVE FOR EXNIHILATED PARTICLES BETWEEN LAMBDA = 0 AND LAMBDA = 0
Info: LANGEVIN DYNAMICS ACTIVE
Info: LANGEVIN TEMPERATURE   300
Info: LANGEVIN USING BBK INTEGRATOR
Info: LANGEVIN DAMPING COEFFICIENT IS 1 INVERSE PS
Info: LANGEVIN DYNAMICS APPLIED TO HYDROGENS
Info: LANGEVIN PISTON PRESSURE CONTROL ACTIVE
Info:        TARGET PRESSURE IS 1.01325 BAR
Info:     OSCILLATION PERIOD IS 50 FS
Info:             DECAY TIME IS 25 FS
Info:     PISTON TEMPERATURE IS 300 K
Info:       PRESSURE CONTROL IS GROUP-BASED
Info:    INITIAL STRAIN RATE IS -0.00014504 -0.00014504 -0.00014504
Info:       CELL FLUCTUATION IS ISOTROPIC
Info: PARTICLE MESH EWALD (PME) ACTIVE
Info: PME TOLERANCE               1e-06
Info: PME EWALD COEFFICIENT       0.348832
Info: PME INTERPOLATION ORDER     4
Info: PME GRID DIMENSIONS         36 32 36
Info: PME MAXIMUM GRID SPACING    1
Info: PME CALCULATION WILL BE PERFORMED ON GPU
Info: FULL ELECTROSTATIC EVALUATION FREQUENCY      2
Info: USING VERLET I (r-RESPA) MTS SCHEME.
Info: C1 SPLITTING OF LONG RANGE ELECTROSTATICS
Info: PLACING ATOMS IN PATCHES BY HYDROGEN GROUPS
Info: RIGID BONDS TO HYDROGEN : ALL
Info:         ERROR TOLERANCE : 1e-08
Info:          MAX ITERATIONS : 100
Info: RIGID WATER USING SETTLE ALGORITHM
Info: RANDOM NUMBER SEED     1743906156
Info: USE HYDROGEN BONDS?    NO
Info: Using AMBER format force field!
Info: AMBER PARM FILE        mobley_9626434.prmtop
Info: COORDINATE PDB         mobley_9626434.pdb
Info: Exclusions will be read from PARM file!
Info: SCNB (VDW SCALING)     2
Info: USING ARITHMETIC MEAN TO COMBINE L-J SIGMA PARAMETERS
Info: BINARY COORDINATES     mobley_9626434_equil.coor
Info: SUMMARY OF PARAMETERS:
Info: 8 BONDS
Info: 10 ANGLES
Info:   10 HARMONIC
Info:   0 COSINE-BASED
Info: 10 DIHEDRAL
Info: 0 IMPROPER
Info: 0 CROSSTERM
Info: 0 VDW
Info: 28 VDW_PAIRS
Info: 0 NBTHOLE_PAIRS
Info: To read alchdata from file: mobley_9626434.pdb
Info: To read alchflag data from column: 5
Info: STRUCTURE SUMMARY:
Info: 2965 ATOMS
Info: 2964 BONDS
Info: 26 ANGLES
Info: 38 DIHEDRALS
Info: 0 IMPROPERS
Info: 0 CROSSTERMS
Info: 3017 EXCLUSIONS
Info: 2959 RIGID BONDS
Info: ALCH: 0 ATOMS TO DISAPPEAR IN FINAL STATE
Info: ALCH: 16 ATOMS TO APPEAR IN FINAL STATE
Info: 5936 DEGREES OF FREEDOM
Info: 989 HYDROGEN GROUPS
Info: 4 ATOMS IN LARGEST HYDROGEN GROUP
Info: 989 MIGRATION GROUPS
Info: 4 ATOMS IN LARGEST MIGRATION GROUP
Info: TOTAL MASS = 17799.8 amu
Info: TOTAL CHARGE = -9.99831e-05 e
Info: MASS DENSITY = 0.948263 g/cm^3
Info: ATOM DENSITY = 0.0951213 atoms/A^3
Info: ADDED 0 IMPLICIT EXCLUSIONS
Info: NONBONDED TABLE R-SQUARED SPACING: 0.0625
Info: NONBONDED TABLE SIZE: 705 POINTS
Info: REMOVING COM VELOCITY -0.0930479 0.101885 -0.0120163
Info: Use 3D box decompostion in PME FFT.
Info: Updated CUDA force table with 4096 elements.
Info: Updated CUDA LJ table with 7 x 7 elements.
Info: Found 17 unique exclusion lists needing 40 bytes
TCL: Running for 1500000 steps
ETITLE: TS BOND ANGLE DIHED IMPRP ELECT VDW BOUNDARY MISC KINETIC TOTAL TEMP POTENTIAL TOTALAVG TEMPAVG PRESSURE GPRESSURE VOLUME PRESSAVG GPRESSAVG
ENERGY: 0 0.2174 8.5590 3.9289 0.0000 -10589.4259 1410.9597 0.0000 0.0000 1760.6489 -7405.1120 298.5171 -9165.7609 -7405.1120 298.5171 -325.9541 -251.9484 31170.7099 -325.9541 -251.9484
ENERGY: 300000 0.7416 6.7404 3.5748 0.0000 -10672.4809 1439.1131 0.0000 0.0000 1836.1931 -7386.1179 311.3256 -9222.3109 -7453.8110 300.9098 174.5682 193.6589 30409.1049 -60.0907 7.7015
ENERGY: 600000 1.5614 4.4520 2.3452 0.0000 -10640.8747 1396.0823 0.0000 0.0000 1762.1018 -7474.3320 298.7635 -9236.4337 -7461.8420 302.8066 -362.1609 -334.0824 30636.3782 11.2801 69.1368
ENERGY: 900000 1.1641 8.8783 4.0448 0.0000 -10751.3179 1447.9258 0.0000 0.0000 1714.7535 -7574.5515 290.7356 -9289.3050 -7476.3617 300.6572 107.7063 119.9549 30402.4815 -85.7326 -34.1575
ENERGY: 1200000 1.2531 6.9569 2.6606 0.0000 -10726.7552 1464.6292 0.0000 0.0000 1803.3060 -7447.9495 305.7496 -9251.2555 -7489.1865 300.8964 392.0492 490.5262 30123.9695 -13.7732 42.4105
ENERGY: 1500000 1.2478 4.4410 5.1025 0.0000 -10678.9216 1381.1773 0.0000 0.0000 1767.8988 -7519.0542 299.7463 -9286.9530 -7478.5755 301.3315 -640.5144 -532.7981 30264.1825 -2.9407 54.1800
TCL: Running FEP window   2: Lambda1 0.05   Lambda2 0.1    [dLambda 0.05  ]
TCL: Setting parameter firsttimestep to 0
TCL: Setting parameter alchLambda to 0.05
Info: NONBONDED TABLE R-SQUARED SPACING: 0.0625
Info: NONBONDED TABLE SIZE: 705 POINTS
TCL: Setting parameter alchLambda2 to 0.1
Info: NONBONDED TABLE R-SQUARED SPACING: 0.0625
Info: NONBONDED TABLE SIZE: 705 POINTS
TCL: Running for 1500000 steps
ETITLE: TS BOND ANGLE DIHED IMPRP ELECT VDW BOUNDARY MISC KINETIC TOTAL TEMP POTENTIAL TOTALAVG TEMPAVG PRESSURE GPRESSURE VOLUME PRESSAVG GPRESSAVG
ENERGY: 0 1.2478 4.4410 5.1025 0.0000 -10678.9210 1384.4386 0.0000 0.0000 1766.9954 -7516.6957 299.5932 -9283.6911 -7516.6957 299.5932 -622.8629 -524.6956 30264.1825 -622.8629 -524.6956
ENERGY: 300000 1.1981 3.6483 3.9151 0.0000 -10717.8532 1391.4612 0.0000 0.0000 1730.4494 -7587.1811 293.3968 -9317.6305 -7582.1422 295.2709 -297.3529 -228.7003 29773.1952 -498.6393 -425.0838
ENERGY: 600000 4.0635 6.5178 3.4840 0.0000 -10822.3498 1510.2966 0.0000 0.0000 1785.8760 -7512.1119 302.7944 -9297.9879 -7529.9188 300.5703 203.4093 266.7405 30428.3254 -191.6851 -127.2169
ENERGY: 900000 0.9515 9.0283 3.6438 0.0000 -10693.3572 1414.7850 0.0000 0.0000 1792.3589 -7472.5897 303.8935 -9264.9487 -7517.8056 301.2614 -311.7827 -266.3859 30536.3711 -261.8167 -199.8029
ENERGY: 1200000 0.2430 5.9612 3.3166 0.0000 -10707.7572 1388.5887 0.0000 0.0000 1806.1173 -7503.5304 306.2263 -9309.6477 -7531.0823 300.2082 -404.5175 -360.3178 30115.6565 -223.2506 -163.8616
ENERGY: 1500000 3.1376 6.2724 3.5424 0.0000 -10846.3861 1464.3780 0.0000 0.0000 1844.7012 -7524.3545 312.7682 -9369.0557 -7525.6267 301.2338 143.3766 186.9175 29939.2066 -208.8468 -152.1787
TCL: Running FEP window   3: Lambda1 0.1    Lambda2 0.15000000000000002 [dLambda 0.05000000000000002]
TCL: Setting parameter firsttimestep to 0
TCL: Setting parameter alchLambda to 0.1
Info: NONBONDED TABLE R-SQUARED SPACING: 0.0625
Info: NONBONDED TABLE SIZE: 705 POINTS
TCL: Setting parameter alchLambda2 to 0.15000000000000002
Info: NONBONDED TABLE R-SQUARED SPACING: 0.0625
Info: NONBONDED TABLE SIZE: 705 POINTS
TCL: Running for 1500000 steps
ETITLE: TS BOND ANGLE DIHED IMPRP ELECT VDW BOUNDARY MISC KINETIC TOTAL TEMP POTENTIAL TOTALAVG TEMPAVG PRESSURE GPRESSURE VOLUME PRESSAVG GPRESSAVG
ENERGY: 0 3.1376 6.2724 3.5424 0.0000 -10846.3866 1464.5700 0.0000 0.0000 1843.8282 -7525.0361 312.6201 -9368.8642 -7525.0361 312.6201 92.3748 191.6569 29939.2066 92.3748 191.6569
ENERGY: 300000 0.7310 6.1336 3.8344 0.0000 -10838.6066 1508.5356 0.0000 0.0000 1777.1020 -7542.2700 301.3067 -9319.3720 -7527.2150 302.8229 166.9207 264.3064 30509.0961 360.9684 440.5599
ENERGY: 600000 0.4039 9.0951 3.5937 0.0000 -10622.8400 1409.4028 0.0000 0.0000 1768.0158 -7432.3286 299.7662 -9200.3444 -7515.4947 303.0609 -242.6686 -181.9892 30787.3854 212.1291 290.9050
ENERGY: 900000 1.5484 2.2888 2.9521 0.0000 -10675.8990 1400.1524 0.0000 0.0000 1725.2808 -7543.6765 292.5205 -9268.9574 -7502.5592 302.1444 -294.5949 -262.2991 30405.9672 134.5544 207.4007
ENERGY: 1200000 2.0370 7.4990 3.2480 0.0000 -10736.9082 1414.6126 0.0000 0.0000 1784.5669 -7524.9447 302.5724 -9309.5116 -7500.3991 303.1294 -324.9705 -258.6842 30257.4242 -5.3931 65.3812
ENERGY: 1500000 1.5623 7.2155 3.0763 0.0000 -10680.3273 1401.9540 0.0000 0.0000 1764.3226 -7502.1966 299.1400 -9266.5192 -7503.8352 302.5438 -80.2147 -36.6986 29911.0147 -5.6229 65.4347
TCL: Running FEP window   4: Lambda1 0.15000000000000002 Lambda2 0.2    [dLambda 0.04999999999999999]
TCL: Setting parameter firsttimestep to 0
TCL: Setting parameter alchLambda to 0.15000000000000002
Info: NONBONDED TABLE R-SQUARED SPACING: 0.0625
Info: NONBONDED TABLE SIZE: 705 POINTS
TCL: Setting parameter alchLambda2 to 0.2
Info: NONBONDED TABLE R-SQUARED SPACING: 0.0625
Info: NONBONDED TABLE SIZE: 705 POINTS
TCL: Running for 1500000 steps
ETITLE: TS BOND ANGLE DIHED IMPRP ELECT VDW BOUNDARY MISC KINETIC TOTAL TEMP POTENTIAL TOTALAVG TEMPAVG PRESSURE GPRESSURE VOLUME PRESSAVG GPRESSAVG
ENERGY: 0 1.5623 7.2155 3.0763 0.0000 -10680.3267 1401.6436 0.0000 0.0000 1763.4510 -7503.3780 298.9922 -9266.8290 -7503.3780 298.9922 -110.7375 -34.9976 29911.0147 -110.7375 -34.9976
ENERGY: 300000 5.3862 8.6923 3.0692 0.0000 -10788.5039 1483.4762 0.0000 0.0000 1828.8120 -7459.0680 310.0742 -9287.8800 -7477.7512 305.2660 372.5105 428.9537 29978.4672 350.3793 423.1979
ENERGY: 600000 4.9776 5.4818 3.2422 0.0000 -10661.7815 1375.2691 0.0000 0.0000 1767.1949 -7505.6158 299.6270 -9272.8108 -7487.9032 303.0939 -675.5027 -626.3895 30603.2807 20.3115 91.5076
ENERGY: 900000 2.5757 8.8134 5.7655 0.0000 -10752.7548 1459.1065 0.0000 0.0000 1756.3920 -7520.1018 297.7954 -9276.4938 -7493.7954 301.5457 220.1987 341.4899 29885.6854 73.4580 150.8058
ENERGY: 1200000 0.7973 7.9351 3.6196 0.0000 -10599.1407 1417.7374 0.0000 0.0000 1801.1040 -7367.9473 305.3763 -9169.0513 -7485.1218 301.8797 216.4753 302.5272 30424.1256 141.4233 217.1678
ENERGY: 1500000 3.0681 6.6819 3.1289 0.0000 -10868.4830 1525.3512 0.0000 0.0000 1792.3126 -7537.9403 303.8857 -9330.2529 -7492.3270 302.2723 430.1559 476.5269 30473.5401 207.1924 280.5676
TCL: Running FEP window   5: Lambda1 0.2    Lambda2 0.25   [dLambda 0.04999999999999999]
TCL: Setting parameter firsttimestep to 0
TCL: Setting parameter alchLambda to 0.2
Info: NONBONDED TABLE R-SQUARED SPACING: 0.0625
Info: NONBONDED TABLE SIZE: 705 POINTS
TCL: Setting parameter alchLambda2 to 0.25
Info: NONBONDED TABLE R-SQUARED SPACING: 0.0625
Info: NONBONDED TABLE SIZE: 705 POINTS
TCL: Running for 1500000 steps
ETITLE: TS BOND ANGLE DIHED IMPRP ELECT VDW BOUNDARY MISC KINETIC TOTAL TEMP POTENTIAL TOTALAVG TEMPAVG PRESSURE GPRESSURE VOLUME PRESSAVG GPRESSAVG
ENERGY: 0 3.0681 6.6819 3.1289 0.0000 -10868.4824 1524.9661 0.0000 0.0000 1791.4549 -7539.1826 303.7403 -9330.6375 -7539.1826 303.7403 390.9999 477.8350 30473.5401 390.9999 477.8350
ENERGY: 300000 1.2461 8.3413 6.1280 0.0000 -10679.1799 1382.2190 0.0000 0.0000 1785.4866 -7495.7589 302.7283 -9281.2455 -7537.2270 300.7720 -360.2591 -331.8412 30142.6826 -81.4335 -26.7565
ENERGY: 600000 0.8349 9.7373 3.9487 0.0000 -10643.6613 1394.2928 0.0000 0.0000 1762.0998 -7472.7478 298.7631 -9234.8476 -7523.1620 299.5009 -343.5377 -371.5854 30803.1664 -134.0640 -95.6102
ENERGY: 900000 1.6438 3.6307 2.4076 0.0000 -10560.9650 1340.4374 0.0000 0.0000 1715.9545 -7496.8909 290.9392 -9212.8455 -7522.0609 298.1822 -898.7212 -831.0660 30635.1625 -159.0592 -114.4257
ENERGY: 1200000 1.3126 7.9015 6.9749 0.0000 -10655.1164 1394.6457 0.0000 0.0000 1785.3327 -7458.9491 302.7022 -9244.2818 -7499.8136 299.8523 -278.0775 -210.3852 30416.4823 -102.4050 -54.0539
ENERGY: 1500000 1.0138 5.7928 4.7597 0.0000 -10705.0382 1425.1905 0.0000 0.0000 1793.6214 -7474.6600 304.1076 -9268.2814 -7489.0900 300.1256 3.5288 26.1799 30011.5595 -74.4970 -25.2395
TCL: Running FEP window   6: Lambda1 0.25   Lambda2 0.3    [dLambda 0.04999999999999999]
TCL: Setting parameter firsttimestep to 0
TCL: Setting parameter alchLambda to 0.25
Info: NONBONDED TABLE R-SQUARED SPACING: 0.0625
Info: NONBONDED TABLE SIZE: 705 POINTS
TCL: Setting parameter alchLambda2 to 0.3
Info: NONBONDED TABLE R-SQUARED SPACING: 0.0625
Info: NONBONDED TABLE SIZE: 705 POINTS
TCL: Running for 1500000 steps
ETITLE: TS BOND ANGLE DIHED IMPRP ELECT VDW BOUNDARY MISC KINETIC TOTAL TEMP POTENTIAL TOTALAVG TEMPAVG PRESSURE GPRESSURE VOLUME PRESSAVG GPRESSAVG
ENERGY: 0 1.0137 5.7928 4.7597 0.0000 -10705.0387 1425.3062 0.0000 0.0000 1792.7776 -7475.3886 303.9645 -9268.1662 -7475.3886 303.9645 -53.2445 30.3061 30011.5595 -53.2445 30.3061
ENERGY: 300000 0.4861 5.3602 4.7983 0.0000 -10774.8059 1493.0468 0.0000 0.0000 1723.5142 -7547.6003 292.2210 -9271.1145 -7489.2439 299.9331 299.4399 360.4395 30424.8743 -9.9454 63.6198
ENERGY: 600000 1.0428 7.9100 3.1735 0.0000 -10637.2944 1360.2755 0.0000 0.0000 1791.5624 -7473.3302 303.7585 -9264.8927 -7507.6920 299.2733 -439.4113 -373.6414 29970.0965 -82.9393 -8.4283
ENERGY: 900000 0.2355 5.7868 4.5403 0.0000 -10770.9879 1449.3880 0.0000 0.0000 1753.4303 -7557.6071 297.2932 -9311.0373 -7524.8950 298.9155 -137.5219 -78.8082 30558.6505 -201.5377 -133.0711
ENERGY: 1200000 0.7961 5.7840 4.3774 0.0000 -10853.9180 1511.7096 0.0000 0.0000 1742.2764 -7588.9746 295.4021 -9331.2510 -7525.8500 299.0796 203.0273 237.0711 30595.4614 -148.9488 -82.6264
ENERGY: 1500000 0.6014 5.5278 3.3968 0.0000 -10672.0161 1422.8137 0.0000 0.0000 1811.1365 -7428.5400 307.0773 -9239.6765 -7519.2680 300.3688 -105.7256 -29.2704 30471.6856 -175.7516 -108.7024
TCL: Running FEP window   7: Lambda1 0.3    Lambda2 0.35   [dLambda 0.04999999999999999]
TCL: Setting parameter firsttimestep to 0
TCL: Setting parameter alchLambda to 0.3
Info: NONBONDED TABLE R-SQUARED SPACING: 0.0625
Info: NONBONDED TABLE SIZE: 705 POINTS
TCL: Setting parameter alchLambda2 to 0.35
Info: NONBONDED TABLE R-SQUARED SPACING: 0.0625
Info: NONBONDED TABLE SIZE: 705 POINTS
TCL: Running for 1500000 steps
ETITLE: TS BOND ANGLE DIHED IMPRP ELECT VDW BOUNDARY MISC KINETIC TOTAL TEMP POTENTIAL TOTALAVG TEMPAVG PRESSURE GPRESSURE VOLUME PRESSAVG GPRESSAVG
ENERGY: 0 0.6013 5.5278 3.3968 0.0000 -10672.0162 1422.5667 0.0000 0.0000 1810.2715 -7429.6522 306.9306 -9239.9236 -7429.6522 306.9306 -116.9610 -27.1312 30471.6856 -116.9610 -27.1312
ENERGY: 300000 0.6771 7.5830 3.3299 0.0000 -10759.1989 1447.5891 0.0000 0.0000 1793.7537 -7506.2661 304.1300 -9300.0198 -7458.0971 306.0030 19.8810 -16.1794 30714.8013 -118.2302 -62.0767
ENERGY: 600000 3.3661 6.4284 2.9027 0.0000 -10607.4109 1415.2558 0.0000 0.0000 1768.1052 -7411.3528 299.7813 -9179.4580 -7443.8248 303.2116 -297.8741 -245.8440 30961.3717 -11.2348 32.2953
ENERGY: 900000 0.4688 5.0978 2.7701 0.0000 -10553.2159 1256.6137 0.0000 0.0000 1698.2583 -7590.0072 287.9388 -9288.2655 -7488.7838 299.8311 -1519.0956 -1461.7707 30739.1511 -82.3186 -31.2204
ENERGY: 1200000 0.2620 4.9221 4.5889 0.0000 -10794.3299 1452.6955 0.0000 0.0000 1753.2924 -7578.5689 297.2698 -9331.8614 -7504.2793 299.2076 -38.6852 1.0051 30350.2640 -137.9604 -89.0970
ENERGY: 1500000 3.9168 7.3565 5.1325 0.0000 -10785.6663 1518.8070 0.0000 0.0000 1731.2612 -7519.1922 293.5345 -9250.4535 -7498.8689 299.2873 724.8726 744.3857 29956.3206 -145.6429 -92.6469
TCL: Running FEP window   8: Lambda1 0.35   Lambda2 0.39999999999999997 [dLambda 0.04999999999999999]
TCL: Setting parameter firsttimestep to 0
TCL: Setting parameter alchLambda to 0.35
Info: NONBONDED TABLE R-SQUARED SPACING: 0.0625
Info: NONBONDED TABLE SIZE: 705 POINTS
TCL: Setting parameter alchLambda2 to 0.39999999999999997
Info: NONBONDED TABLE R-SQUARED SPACING: 0.0625
Info: NONBONDED TABLE SIZE: 705 POINTS
TCL: Running for 1500000 steps
ETITLE: TS BOND ANGLE DIHED IMPRP ELECT VDW BOUNDARY MISC KINETIC TOTAL TEMP POTENTIAL TOTALAVG TEMPAVG PRESSURE GPRESSURE VOLUME PRESSAVG GPRESSAVG
ENERGY: 0 3.9168 7.3565 5.1325 0.0000 -10785.6661 1520.2109 0.0000 0.0000 1730.3726 -7518.6768 293.3838 -9249.0494 -7518.6768 293.3838 672.7806 756.9342 29956.3206 672.7806 756.9342
ENERGY: 300000 1.9310 7.3851 2.6734 0.0000 -10563.2627 1373.7457 0.0000 0.0000 1738.2094 -7439.3181 294.7125 -9177.5274 -7474.8401 298.0347 -560.8208 -513.8663 31342.0045 -171.5586 -88.8386
ENERGY: 600000 3.2223 10.3378 3.2920 0.0000 -10754.1043 1398.0243 0.0000 0.0000 1798.4578 -7540.7701 304.9276 -9339.2279 -7488.3708 298.6056 -570.3508 -476.3094 30246.5225 -293.7008 -214.0249
ENERGY: 900000 3.9035 9.1955 4.2457 0.0000 -10746.3417 1412.2020 0.0000 0.0000 1766.1668 -7550.6281 299.4527 -9316.7949 -7491.6664 299.5067 -370.8263 -273.0075 30483.2986 -228.2557 -143.8053
ENERGY: 1200000 1.7100 6.6643 5.3248 0.0000 -10711.9421 1428.3189 0.0000 0.0000 1788.5100 -7481.4141 303.2410 -9269.9241 -7503.8090 299.5516 -303.5096 -268.3061 30599.0762 -252.7491 -166.0428
ENERGY: 1500000 1.0949 5.4817 4.1701 0.0000 -10694.5469 1407.7054 0.0000 0.0000 1806.8257 -7469.2690 306.3464 -9276.0947 -7499.8465 300.3823 -371.0603 -324.3674 30370.5821 -183.7301 -99.8730
TCL: Running FEP window   9: Lambda1 0.39999999999999997 Lambda2 0.44999999999999996 [dLambda 0.04999999999999999]
TCL: Setting parameter firsttimestep to 0
TCL: Setting parameter alchLambda to 0.39999999999999997
Info: NONBONDED TABLE R-SQUARED SPACING: 0.0625
Info: NONBONDED TABLE SIZE: 705 POINTS
TCL: Setting parameter alchLambda2 to 0.44999999999999996
Info: NONBONDED TABLE R-SQUARED SPACING: 0.0625
Info: NONBONDED TABLE SIZE: 705 POINTS
TCL: Running for 1500000 steps
ETITLE: TS BOND ANGLE DIHED IMPRP ELECT VDW BOUNDARY MISC KINETIC TOTAL TEMP POTENTIAL TOTALAVG TEMPAVG PRESSURE GPRESSURE VOLUME PRESSAVG GPRESSAVG
ENERGY: 0 1.0949 5.4817 4.1701 0.0000 -10694.5461 1408.0231 0.0000 0.0000 1805.9603 -7469.8159 306.1997 -9275.7763 -7469.8159 306.1997 -389.3084 -314.5946 30370.5821 -389.3084 -314.5946
ENERGY: 300000 1.6531 5.9149 4.4992 0.0000 -10663.7930 1448.1646 0.0000 0.0000 1782.0409 -7421.5203 302.1441 -9203.5612 -7456.1878 302.7619 -35.6124 65.0088 30663.7899 -540.2661 -467.2622
ENERGY: 600000 1.8040 7.3329 2.9178 0.0000 -10670.7299 1391.5559 0.0000 0.0000 1805.7134 -7461.4058 306.1578 -9267.1192 -7456.3997 302.9211 -411.1619 -355.2636 30567.1237 -182.5937 -114.1038
ENERGY: 900000 0.3083 5.3794 3.6959 0.0000 -10573.7792 1384.9675 0.0000 0.0000 1801.7440 -7377.6841 305.4848 -9179.4281 -7461.7856 303.1672 -308.2440 -301.5859 30602.4869 -81.3814 -19.8218
ENERGY: 1200000 0.7967 3.1473 4.8262 0.0000 -10708.1334 1401.3345 0.0000 0.0000 1753.6345 -7544.3942 297.3278 -9298.0287 -7476.9277 301.9944 -241.6918 -180.8691 30264.3759 -116.3022 -46.9657
ENERGY: 1500000 0.5893 9.3010 4.3615 0.0000 -10788.0093 1454.9545 0.0000 0.0000 1738.5235 -7580.2796 294.7658 -9318.8032 -7486.6495 301.1060 -220.3224 -108.7162 30536.3855 -118.6642 -43.2373
TCL: Running FEP window  10: Lambda1 0.44999999999999996 Lambda2 0.49999999999999994 [dLambda 0.04999999999999999]
TCL: Setting parameter firsttimestep to 0
TCL: Setting parameter alchLambda to 0.44999999999999996
Info: NONBONDED TABLE R-SQUARED SPACING: 0.0625
Info: NONBONDED TABLE SIZE: 705 POINTS
TCL: Setting parameter alchLambda2 to 0.49999999999999994
Info: NONBONDED TABLE R-SQUARED SPACING: 0.0625
Info: NONBONDED TABLE SIZE: 705 POINTS
TCL: Running for 1500000 steps
ETITLE: TS BOND ANGLE DIHED IMPRP ELECT VDW BOUNDARY MISC KINETIC TOTAL TEMP POTENTIAL TOTALAVG TEMPAVG PRESSURE GPRESSURE VOLUME PRESSAVG GPRESSAVG
ENERGY: 0 0.5893 9.3010 4.3615 0.0000 -10788.0091 1454.9215 0.0000 0.0000 1737.6510 -7581.1849 294.6178 -9318.8359 -7581.1849 294.6178 -198.0473 -102.7580 30536.3855 -198.0473 -102.7580
ENERGY: 300000 1.7141 7.5646 3.1367 0.0000 -10604.7358 1392.3784 0.0000 0.0000 1794.3693 -7405.5727 304.2344 -9199.9421 -7503.9270 301.0867 -362.0516 -263.8933 30927.4725 -106.9419 -34.7766
ENERGY: 600000 2.0804 5.9391 3.4633 0.0000 -10823.4439 1515.0809 0.0000 0.0000 1805.8141 -7491.0661 306.1749 -9296.8802 -7491.2934 302.9714 360.1311 434.5708 30506.4048 10.6891 64.0610
ENERGY: 900000 1.1146 6.3077 4.4845 0.0000 -10544.0031 1305.6835 0.0000 0.0000 1755.0562 -7471.3565 297.5689 -9226.4127 -7489.7853 301.9604 -784.3666 -827.4824 30433.9929 -171.2529 -119.3356
ENERGY: 1200000 3.2231 5.9301 3.8571 0.0000 -10637.0230 1405.0687 0.0000 0.0000 1711.7006 -7507.2434 290.2180 -9218.9440 -7494.0340 300.5772 12.6358 58.8046 30076.1602 -130.8752 -76.4619
ENERGY: 1500000 0.5384 6.8179 4.8024 0.0000 -10715.0112 1424.4380 0.0000 0.0000 1722.3146 -7556.1000 292.0176 -9278.4145 -7504.5936 299.1144 -242.4516 -110.3245 30411.7198 -149.3158 -91.6567
TCL: Running FEP window  11: Lambda1 0.49999999999999994 Lambda2 0.5499999999999999 [dLambda 0.04999999999999999]
TCL: Setting parameter firsttimestep to 0
TCL: Setting parameter alchLambda to 0.49999999999999994
Info: NONBONDED TABLE R-SQUARED SPACING: 0.0625
Info: NONBONDED TABLE SIZE: 705 POINTS
TCL: Setting parameter alchLambda2 to 0.5499999999999999
Info: NONBONDED TABLE R-SQUARED SPACING: 0.0625
Info: NONBONDED TABLE SIZE: 705 POINTS
TCL: Running for 1500000 steps
ETITLE: TS BOND ANGLE DIHED IMPRP ELECT VDW BOUNDARY MISC KINETIC TOTAL TEMP POTENTIAL TOTALAVG TEMPAVG PRESSURE GPRESSURE VOLUME PRESSAVG GPRESSAVG
ENERGY: 0 0.5384 6.8179 4.8024 0.0000 -10715.0114 1424.9773 0.0000 0.0000 1721.4518 -7556.4236 291.8713 -9277.8754 -7556.4236 291.8713 -196.6818 -100.1892 30411.7198 -196.6818 -100.1892
ENERGY: 300000 1.5008 6.3600 6.5544 0.0000 -10659.4671 1365.5730 0.0000 0.0000 1780.1855 -7499.2935 301.8295 -9279.4789 -7515.7145 300.1238 -604.7575 -524.6252 30539.5064 -187.3109 -109.5312
ENERGY: 600000 2.3744 6.2065 2.7534 0.0000 -10785.1926 1463.7211 0.0000 0.0000 1750.3388 -7559.7984 296.7691 -9310.1372 -7526.2650 298.9482 78.4590 97.5505 30475.0211 -134.3645 -69.1293
ENERGY: 900000 1.3830 9.0312 3.3346 0.0000 -10782.5489 1420.8109 0.0000 0.0000 1800.2692 -7547.7200 305.2347 -9347.9892 -7526.8015 299.2620 23.6688 0.6989 30117.2537 -157.7008 -100.5709
ENERGY: 1200000 5.8886 5.2884 3.8693 0.0000 -10779.6068 1476.4071 0.0000 0.0000 1710.2688 -7577.8845 289.9752 -9288.1534 -7519.7170 298.2114 -11.9398 57.2156 30642.4848 -105.8913 -47.5440
ENERGY: 1500000 0.7692 6.1227 6.1616 0.0000 -10803.5138 1507.3602 0.0000 0.0000 1765.1950 -7517.9053 299.2879 -9283.1002 -7528.2859 297.4161 444.7191 475.2074 30615.9274 -127.7243 -68.9983
TCL: Running FEP window  12: Lambda1 0.5499999999999999 Lambda2 0.6    [dLambda 0.050000000000000044]
TCL: Setting parameter firsttimestep to 0
TCL: Setting parameter alchLambda to 0.5499999999999999
Info: NONBONDED TABLE R-SQUARED SPACING: 0.0625
Info: NONBONDED TABLE SIZE: 705 POINTS
TCL: Setting parameter alchLambda2 to 0.6
Info: NONBONDED TABLE R-SQUARED SPACING: 0.0625
Info: NONBONDED TABLE SIZE: 705 POINTS
TCL: Running for 1500000 steps
ETITLE: TS BOND ANGLE DIHED IMPRP ELECT VDW BOUNDARY MISC KINETIC TOTAL TEMP POTENTIAL TOTALAVG TEMPAVG PRESSURE GPRESSURE VOLUME PRESSAVG GPRESSAVG
ENERGY: 0 0.7692 6.1227 6.1616 0.0000 -10803.3412 1507.5987 0.0000 0.0000 1764.3302 -7518.3589 299.1413 -9282.6891 -7518.3589 299.1413 419.6838 484.9414 30615.9274 419.6838 484.9414
ENERGY: 300000 1.9401 9.9982 3.0683 0.0000 -10801.5437 1461.0909 0.0000 0.0000 1769.9557 -7555.4905 300.0951 -9325.4462 -7491.9022 299.8857 -152.6296 -132.7406 30514.5741 251.4027 304.7069
ENERGY: 600000 2.2880 5.9406 3.4627 0.0000 -10663.2464 1416.1644 0.0000 0.0000 1759.5874 -7475.8032 298.3371 -9235.3906 -7501.0973 298.8762 -122.4655 -62.6354 30586.4152 38.3607 100.3463
ENERGY: 900000 0.8519 7.2940 4.9938 0.0000 -10628.8182 1371.8523 0.0000 0.0000 1737.8162 -7506.0101 294.6459 -9243.8263 -7492.4873 299.4294 -695.9404 -581.1680 30673.9600 -60.3237 5.6054
ENERGY: 1200000 0.4498 8.0651 2.8207 0.0000 -10851.0528 1527.6499 0.0000 0.0000 1745.7004 -7566.3671 295.9826 -9312.0675 -7498.3880 299.3694 406.8861 491.5418 30474.2661 -15.7901 57.9270
ENERGY: 1500000 0.6978 5.1766 3.4715 0.0000 -10745.4865 1477.9318 0.0000 0.0000 1734.8967 -7523.3121 294.1508 -9258.2087 -7501.7217 299.0158 125.1812 204.0764 30777.3496 -44.7667 34.5534
TCL: Running FEP window  13: Lambda1 0.6    Lambda2 0.65   [dLambda 0.050000000000000044]
TCL: Setting parameter firsttimestep to 0
TCL: Setting parameter alchLambda to 0.6
Info: NONBONDED TABLE R-SQUARED SPACING: 0.0625
Info: NONBONDED TABLE SIZE: 705 POINTS
TCL: Setting parameter alchLambda2 to 0.65
Info: NONBONDED TABLE R-SQUARED SPACING: 0.0625
Info: NONBONDED TABLE SIZE: 705 POINTS
TCL: Running for 1500000 steps
ETITLE: TS BOND ANGLE DIHED IMPRP ELECT VDW BOUNDARY MISC KINETIC TOTAL TEMP POTENTIAL TOTALAVG TEMPAVG PRESSURE GPRESSURE VOLUME PRESSAVG GPRESSAVG
ENERGY: 0 0.6978 5.1766 3.4715 0.0000 -10745.9639 1477.3120 0.0000 0.0000 1734.0540 -7525.2519 294.0080 -9259.3060 -7525.2519 294.0080 117.4070 205.1628 30777.3496 117.4070 205.1628
ENERGY: 300000 0.5862 5.3354 4.5579 0.0000 -10812.4783 1505.3563 0.0000 0.0000 1796.2796 -7500.3629 304.5583 -9296.6426 -7530.1564 299.2435 327.3528 333.9821 30801.8567 52.2004 95.2274
ENERGY: 600000 1.5916 9.9552 4.2437 0.0000 -10723.6935 1489.0261 0.0000 0.0000 1760.1007 -7458.7761 298.4242 -9218.8768 -7535.3282 299.2851 205.4220 232.4436 30855.9270 -17.3889 39.3027
ENERGY: 900000 1.7633 3.8682 3.8076 0.0000 -10693.7840 1387.5955 0.0000 0.0000 1747.9974 -7548.7520 296.3721 -9296.7495 -7546.9954 297.8664 -140.9868 -147.5013 30187.2566 -128.0305 -72.9328
ENERGY: 1200000 0.7345 5.5310 4.2763 0.0000 -10785.8158 1486.0499 0.0000 0.0000 1860.0660 -7429.1581 315.3733 -9289.2242 -7529.2847 300.1862 123.3761 217.5667 30549.1592 -61.5876 -10.2274
ENERGY: 1500000 0.1904 15.7808 5.5745 0.0000 -10741.8625 1450.7610 0.0000 0.0000 1686.5387 -7583.0172 285.9518 -9269.5559 -7533.5309 299.3814 80.2695 137.4984 30295.3714 -89.4313 -34.9044
TCL: Running FEP window  14: Lambda1 0.65   Lambda2 0.7000000000000001 [dLambda 0.050000000000000044]
TCL: Setting parameter firsttimestep to 0
TCL: Setting parameter alchLambda to 0.65
Info: NONBONDED TABLE R-SQUARED SPACING: 0.0625
Info: NONBONDED TABLE SIZE: 705 POINTS
TCL: Setting parameter alchLambda2 to 0.7000000000000001
Info: NONBONDED TABLE R-SQUARED SPACING: 0.0625
Info: NONBONDED TABLE SIZE: 705 POINTS
TCL: Running for 1500000 steps
ETITLE: TS BOND ANGLE DIHED IMPRP ELECT VDW BOUNDARY MISC KINETIC TOTAL TEMP POTENTIAL TOTALAVG TEMPAVG PRESSURE GPRESSURE VOLUME PRESSAVG GPRESSAVG
ENERGY: 0 0.1904 15.7808 5.5745 0.0000 -10742.0344 1450.1976 0.0000 0.0000 1685.6719 -7584.6192 285.8048 -9270.2911 -7584.6192 285.8048 45.2058 133.2998 30295.3714 45.2058 133.2998
ENERGY: 300000 0.9442 3.1637 5.3641 0.0000 -10778.2864 1423.4251 0.0000 0.0000 1742.1505 -7603.2388 295.3807 -9345.3893 -7544.8359 295.2428 -264.7771 -174.2381 30395.1754 -276.8440 -197.7954
ENERGY: 600000 3.1213 9.8405 2.7211 0.0000 -10718.6768 1383.0331 0.0000 0.0000 1785.7793 -7534.1815 302.7780 -9319.9608 -7522.7262 297.9260 -624.5397 -538.5635 30716.3757 -255.4792 -175.7710
ENERGY: 900000 0.5206 5.3997 3.0673 0.0000 -10713.4038 1441.3085 0.0000 0.0000 1758.3299 -7504.7778 298.1239 -9263.1077 -7518.9094 297.9871 64.6557 63.2127 30311.7127 -263.3792 -194.4778
ENERGY: 1200000 1.5572 8.7420 3.5970 0.0000 -10700.9893 1390.6046 0.0000 0.0000 1774.6681 -7521.8203 300.8941 -9296.4885 -7509.3905 298.3097 -473.7814 -469.3125 30548.8280 -228.4491 -165.4158
ENERGY: 1500000 1.5508 5.9688 5.4535 0.0000 -10714.2166 1440.4972 0.0000 0.0000 1777.4306 -7483.3157 301.3624 -9260.7462 -7496.3324 299.2394 2.6768 25.3624 30541.8356 -204.5843 -143.4478
TCL: Running FEP window  15: Lambda1 0.7000000000000001 Lambda2 0.7500000000000001 [dLambda 0.050000000000000044]
TCL: Setting parameter firsttimestep to 0
TCL: Setting parameter alchLambda to 0.7000000000000001
Info: NONBONDED TABLE R-SQUARED SPACING: 0.0625
Info: NONBONDED TABLE SIZE: 705 POINTS
TCL: Setting parameter alchLambda2 to 0.7500000000000001
Info: NONBONDED TABLE R-SQUARED SPACING: 0.0625
Info: NONBONDED TABLE SIZE: 705 POINTS
TCL: Running for 1500000 steps
ETITLE: TS BOND ANGLE DIHED IMPRP ELECT VDW BOUNDARY MISC KINETIC TOTAL TEMP POTENTIAL TOTALAVG TEMPAVG PRESSURE GPRESSURE VOLUME PRESSAVG GPRESSAVG
ENERGY: 0 1.5508 5.9688 5.4535 0.0000 -10715.3609 1440.5459 0.0000 0.0000 1776.6028 -7485.2391 301.2221 -9261.8418 -7485.2391 301.2221 -47.8438 29.0215 30541.8356 -47.8438 29.0215
ENERGY: 300000 0.8493 12.7970 3.4376 0.0000 -10725.2433 1393.0419 0.0000 0.0000 1709.4314 -7605.6862 289.8332 -9315.1176 -7550.1710 299.9308 -546.3530 -490.5833 30405.0748 -181.9442 -135.8909
ENERGY: 600000 0.9688 7.6063 4.4370 0.0000 -10788.3867 1445.1847 0.0000 0.0000 1685.5701 -7644.6198 285.7876 -9330.1898 -7525.2554 297.9182 -381.7104 -340.3756 30585.7296 -235.6649 -179.1265
ENERGY: 900000 3.4930 10.9690 3.4584 0.0000 -10698.3206 1371.1826 0.0000 0.0000 1743.3486 -7565.8689 295.5839 -9309.2175 -7525.4639 297.0986 -669.9208 -601.6207 30397.5172 -313.5348 -252.7519
ENERGY: 1200000 0.6222 7.4224 4.6397 0.0000 -10524.5095 1293.2087 0.0000 0.0000 1782.4612 -7436.1553 302.2154 -9218.6166 -7508.7260 299.1945 -1171.2175 -1124.1244 31006.9642 -360.9987 -305.1831
ENERGY: 1500000 1.7271 8.5596 5.0252 0.0000 -10638.5887 1391.7825 0.0000 0.0000 1785.1226 -7446.3716 302.6666 -9231.4942 -7500.7338 300.2092 -170.2101 -137.2804 30307.4891 -333.3565 -278.1812
TCL: Running FEP window  16: Lambda1 0.7500000000000001 Lambda2 0.8000000000000002 [dLambda 0.050000000000000044]
TCL: Setting parameter firsttimestep to 0
TCL: Setting parameter alchLambda to 0.7500000000000001
Info: NONBONDED TABLE R-SQUARED SPACING: 0.0625
Info: NONBONDED TABLE SIZE: 705 POINTS
TCL: Setting parameter alchLambda2 to 0.8000000000000002
Info: NONBONDED TABLE R-SQUARED SPACING: 0.0625
Info: NONBONDED TABLE SIZE: 705 POINTS
TCL: Running for 1500000 steps
ETITLE: TS BOND ANGLE DIHED IMPRP ELECT VDW BOUNDARY MISC KINETIC TOTAL TEMP POTENTIAL TOTALAVG TEMPAVG PRESSURE GPRESSURE VOLUME PRESSAVG GPRESSAVG
ENERGY: 0 1.7271 8.5596 5.0252 0.0000 -10639.7634 1392.5304 0.0000 0.0000 1784.2000 -7447.7211 302.5102 -9231.9211 -7447.7211 302.5102 -222.3379 -123.4572 30307.4891 -222.3379 -123.4572
ENERGY: 300000 2.7037 9.2614 4.1844 0.0000 -10693.8293 1453.1789 0.0000 0.0000 1758.0581 -7466.4428 298.0778 -9224.5008 -7491.4170 299.0570 285.4996 285.0946 30588.9450 -118.9541 -41.7084
ENERGY: 600000 2.2778 5.6590 3.3247 0.0000 -10687.5908 1404.5456 0.0000 0.0000 1768.9603 -7502.8234 299.9263 -9271.7838 -7509.6728 298.4636 -372.0882 -291.1988 30534.1831 -113.6175 -35.7007
ENERGY: 900000 0.8657 6.8912 3.7134 0.0000 -10667.2505 1411.2053 0.0000 0.0000 1757.3112 -7487.2638 297.9512 -9244.5750 -7488.9024 300.2990 -138.7772 -93.3800 30554.4794 -97.0899 -35.6788
ENERGY: 1200000 1.3312 6.7527 4.1400 0.0000 -10840.4628 1523.9744 0.0000 0.0000 1851.0819 -7453.1826 313.8500 -9304.2645 -7494.0127 300.1403 577.4031 636.5375 30622.2486 -14.0762 47.5428
ENERGY: 1500000 0.3385 6.7542 5.1536 0.0000 -10682.9495 1409.4219 0.0000 0.0000 1758.4921 -7502.7891 298.1514 -9261.2813 -7494.3612 299.8671 -402.4389 -301.1125 31038.5105 -48.8586 11.7651
TCL: Running FEP window  17: Lambda1 0.8000000000000002 Lambda2 0.8500000000000002 [dLambda 0.050000000000000044]
TCL: Setting parameter firsttimestep to 0
TCL: Setting parameter alchLambda to 0.8000000000000002
Info: NONBONDED TABLE R-SQUARED SPACING: 0.0625
Info: NONBONDED TABLE SIZE: 705 POINTS
TCL: Setting parameter alchLambda2 to 0.8500000000000002
Info: NONBONDED TABLE R-SQUARED SPACING: 0.0625
Info: NONBONDED TABLE SIZE: 705 POINTS
TCL: Running for 1500000 steps
ETITLE: TS BOND ANGLE DIHED IMPRP ELECT VDW BOUNDARY MISC KINETIC TOTAL TEMP POTENTIAL TOTALAVG TEMPAVG PRESSURE GPRESSURE VOLUME PRESSAVG GPRESSAVG
ENERGY: 0 0.3385 6.7542 5.1536 0.0000 -10684.3808 1410.5703 0.0000 0.0000 1757.5958 -7503.9683 297.9995 -9261.5642 -7503.9683 297.9995 -376.1094 -282.5143 31038.5105 -376.1094 -282.5143
ENERGY: 300000 1.8984 4.0531 2.7360 0.0000 -10736.5115 1403.0838 0.0000 0.0000 1757.4366 -7567.3037 297.9725 -9324.7403 -7550.6857 298.0528 -503.5974 -460.6821 30717.2684 -350.3112 -279.1238
ENERGY: 600000 1.5332 4.9975 3.0163 0.0000 -10718.8253 1443.8869 0.0000 0.0000 1797.4705 -7467.9208 304.7602 -9265.3914 -7539.7575 298.8096 151.4605 201.3765 30551.5920 -80.3289 -12.0869
ENERGY: 900000 1.3918 6.8813 4.1158 0.0000 -10730.3066 1422.1802 0.0000 0.0000 1760.3899 -7535.3476 298.4732 -9295.7375 -7528.3574 298.6471 -191.6355 -112.1977 30662.3592 -66.4722 2.9168
ENERGY: 1200000 1.4944 4.1287 2.7100 0.0000 -10719.3300 1406.7359 0.0000 0.0000 1774.1393 -7530.1217 300.8044 -9304.2610 -7522.1396 297.8767 -347.3812 -273.2047 30386.2122 -74.8318 -9.8312
ENERGY: 1500000 1.6546 7.1484 3.8449 0.0000 -10927.4028 1571.1224 0.0000 0.0000 1764.5929 -7579.0396 299.1858 -9343.6325 -7516.8833 299.2663 1029.1307 1084.1251 30054.7715 65.6526 128.8388
TCL: Running FEP window  18: Lambda1 0.8500000000000002 Lambda2 0.9000000000000002 [dLambda 0.050000000000000044]
TCL: Setting parameter firsttimestep to 0
TCL: Setting parameter alchLambda to 0.8500000000000002
Info: NONBONDED TABLE R-SQUARED SPACING: 0.0625
Info: NONBONDED TABLE SIZE: 705 POINTS
TCL: Setting parameter alchLambda2 to 0.9000000000000002
Info: NONBONDED TABLE R-SQUARED SPACING: 0.0625
Info: NONBONDED TABLE SIZE: 705 POINTS
TCL: Running for 1500000 steps
ETITLE: TS BOND ANGLE DIHED IMPRP ELECT VDW BOUNDARY MISC KINETIC TOTAL TEMP POTENTIAL TOTALAVG TEMPAVG PRESSURE GPRESSURE VOLUME PRESSAVG GPRESSAVG
ENERGY: 0 1.6546 7.1484 3.8449 0.0000 -10929.0801 1572.1996 0.0000 0.0000 1763.7107 -7580.5218 299.0363 -9344.2325 -7580.5218 299.0363 1017.3633 1100.3968 30054.7715 1017.3633 1100.3968
ENERGY: 300000 0.6605 8.9840 5.3273 0.0000 -10733.3187 1481.1960 0.0000 0.0000 1717.7573 -7519.3937 291.2449 -9237.1510 -7515.1507 299.7896 441.9757 460.8511 30314.7940 249.3721 277.8035
ENERGY: 600000 0.9283 3.4236 2.2081 0.0000 -10770.6669 1495.7375 0.0000 0.0000 1726.4248 -7541.9445 292.7144 -9268.3692 -7513.2778 298.5832 590.3968 624.6813 30130.6645 187.0477 224.1114
ENERGY: 900000 1.8058 11.8068 2.7633 0.0000 -10844.3475 1576.9442 0.0000 0.0000 1715.0225 -7536.0048 290.7812 -9251.0273 -7509.4677 298.2348 932.0994 1007.9763 30521.9146 184.8285 228.2187
ENERGY: 1200000 2.6486 8.2915 3.0921 0.0000 -10783.1894 1429.1174 0.0000 0.0000 1758.6080 -7581.4319 298.1711 -9340.0398 -7506.6731 298.8548 -255.0456 -195.7739 30674.8444 29.0716 69.1855
ENERGY: 1500000 1.5364 9.0880 4.9574 0.0000 -10750.6155 1420.4983 0.0000 0.0000 1780.2693 -7534.2660 301.8437 -9314.5353 -7498.8430 299.9157 -108.5981 -42.9403 29995.8758 33.8995 74.8680
TCL: Running FEP window  19: Lambda1 0.9000000000000002 Lambda2 0.9500000000000003 [dLambda 0.050000000000000044]
TCL: Setting parameter firsttimestep to 0
TCL: Setting parameter alchLambda to 0.9000000000000002
Info: NONBONDED TABLE R-SQUARED SPACING: 0.0625
Info: NONBONDED TABLE SIZE: 705 POINTS
TCL: Setting parameter alchLambda2 to 0.9500000000000003
Info: NONBONDED TABLE R-SQUARED SPACING: 0.0625
Info: NONBONDED TABLE SIZE: 705 POINTS
TCL: Running for 1500000 steps
ETITLE: TS BOND ANGLE DIHED IMPRP ELECT VDW BOUNDARY MISC KINETIC TOTAL TEMP POTENTIAL TOTALAVG TEMPAVG PRESSURE GPRESSURE VOLUME PRESSAVG GPRESSAVG
ENERGY: 0 1.5364 9.0880 4.9574 0.0000 -10751.3222 1420.7598 0.0000 0.0000 1779.3996 -7535.5809 301.6963 -9314.9806 -7535.5809 301.6963 -126.3003 -28.3807 29995.8758 -126.3003 -28.3807
ENERGY: 300000 1.7037 5.7968 5.8819 0.0000 -10927.6876 1611.4593 0.0000 0.0000 1806.1162 -7496.7298 306.2261 -9302.8460 -7519.3738 302.9015 1079.8908 1079.4113 30841.2851 238.5749 279.7269
ENERGY: 600000 1.1475 5.2383 3.4901 0.0000 -10629.7835 1396.2494 0.0000 0.0000 1745.2546 -7478.4035 295.9070 -9223.6582 -7535.3555 298.8465 -268.9485 -217.2266 30564.5102 -34.4580 5.7479
ENERGY: 900000 2.8413 5.1937 3.0186 0.0000 -10754.4621 1434.5713 0.0000 0.0000 1739.2574 -7569.5799 294.8902 -9308.8373 -7532.9829 299.4801 -195.0940 -163.0418 30377.5496 -101.5189 -60.0731
ENERGY: 1200000 1.8117 5.8761 2.8760 0.0000 -10901.7191 1517.7044 0.0000 0.0000 1767.6377 -7605.8133 299.7021 -9373.4510 -7524.0678 299.5524 291.3381 339.0997 30318.4333 -65.4320 -19.4434
ENERGY: 1500000 1.5956 6.1489 3.9728 0.0000 -10560.5307 1350.8450 0.0000 0.0000 1804.6590 -7393.3094 305.9790 -9197.9684 -7515.0059 300.4674 -244.1760 -133.9442 30127.5732 -45.5267 3.9841
TCL: Running FEP window  20: Lambda1 0.9500000000000003 Lambda2 1.0    [dLambda 0.04999999999999971]
TCL: Setting parameter firsttimestep to 0
TCL: Setting parameter alchLambda to 0.9500000000000003
Info: NONBONDED TABLE R-SQUARED SPACING: 0.0625
Info: NONBONDED TABLE SIZE: 705 POINTS
TCL: Setting parameter alchLambda2 to 1.0
Info: NONBONDED TABLE R-SQUARED SPACING: 0.0625
Info: NONBONDED TABLE SIZE: 705 POINTS
TCL: Running for 1500000 steps
ETITLE: TS BOND ANGLE DIHED IMPRP ELECT VDW BOUNDARY MISC KINETIC TOTAL TEMP POTENTIAL TOTALAVG TEMPAVG PRESSURE GPRESSURE VOLUME PRESSAVG GPRESSAVG
ENERGY: 0 1.5956 6.1489 3.9728 0.0000 -10562.1713 1352.9195 0.0000 0.0000 1803.7765 -7393.7580 305.8294 -9197.5345 -7393.7580 305.8294 -184.8259 -100.6606 30127.5732 -184.8259 -100.6606
ENERGY: 300000 1.8114 5.6557 4.1041 0.0000 -10716.1246 1466.2949 0.0000 0.0000 1765.3546 -7472.9039 299.3150 -9238.2585 -7475.6094 302.7332 120.9560 194.6131 30837.2944 -147.6422 -73.3176
ENERGY: 600000 0.3423 6.0424 3.4604 0.0000 -10576.6058 1372.8641 0.0000 0.0000 1794.7115 -7399.1852 304.2924 -9193.8967 -7464.4924 303.7564 -416.0937 -399.2010 30966.4035 -84.0951 -14.2684
ENERGY: 900000 2.7906 6.5134 3.1340 0.0000 -10867.5039 1489.0621 0.0000 0.0000 1840.5546 -7525.4492 312.0651 -9366.0039 -7489.3794 303.0024 508.9535 576.4874 29792.8969 -98.8702 -30.2393
ENERGY: 1200000 0.7315 3.6195 4.6006 0.0000 -10871.1441 1486.6342 0.0000 0.0000 1822.6342 -7552.9241 309.0267 -9375.5583 -7502.9288 303.0559 222.2598 273.8714 30329.1709 -126.7097 -56.3379
ENERGY: 1500000 1.6223 4.0239 4.1938 0.0000 -10530.8866 1324.8819 0.0000 0.0000 1730.9655 -7465.1993 293.4843 -9196.1647 -7506.2586 302.6310 -973.3803 -935.0967 31167.5302 -207.6804 -144.3931
TCL: Exiting due to exit command.
