Info: SIMULATION PARAMETERS:
Info: TIMESTEP               2
Info: NUMBER OF STEPS        0
Info: STEPS PER CYCLE        10
Info: PERIODIC CELL BASIS 1  30.971 0 0
Info: PERIODIC CELL BASIS 2  0 30.3283 0
Info: PERIODIC CELL BASIS 3  0 0 32.0448
Info: PERIODIC CELL CENTER   0 0 0
Info: WRAPPING WATERS AROUND PERIODIC BOUNDARIES ON OUTPUT.
Info: WRAPPING ALL CLUSTERS AROUND PERIODIC BOUNDARIES ON OUTPUT.
Info: FIRST LDB TIMESTEP     50
Info: LAST LDB TIMESTEP     -1
Info: HOM BACKGROUND SCALING 1
Info: PME BACKGROUND SCALING 1
Info: MIN ATOMS PER PATCH    40
Info: EMPTY PATCH LOAD       40 ATOMS
Info: VELOCITY FILE          mobley_1977493_equil.vel
Info: CENTER OF MASS MOVING INITIALLY? NO
Info: DIELECTRIC             1
Info: EXCLUDE                SCALED ONE-FOUR
Info: 1-4 ELECTROSTATICS SCALED BY 0.833333
Info: MODIFIED 1-4 VDW PARAMETERS WILL BE USED
Info: DCD FILENAME           mobley_1977493_prod.dcd
Info: DCD FREQUENCY          100000
Info: DCD FIRST STEP         100000
Info: DCD FILE WILL CONTAIN UNIT CELL DATA
Info: XST FILENAME           mobley_1977493_prod.xst
Info: XST FREQUENCY          100000
Info: NO VELOCITY DCD OUTPUT
Info: NO FORCE DCD OUTPUT
Info: OUTPUT FILENAME        mobley_1977493_prod
Info: BINARY OUTPUT FILES WILL BE USED
Info: RESTART FILENAME       mobley_1977493_prod.restart
Info: RESTART FREQUENCY      100000
Info: BINARY RESTART FILES WILL BE USED
Info: CUTOFF                 9
Info: PAIRLIST DISTANCE      11
Info: PAIRLIST SHRINK RATE   0.01
Info: PAIRLIST GROW RATE     0.01
Info: PAIRLIST TRIGGER       0.3
Info: PAIRLISTS PER CYCLE    2
Info: PAIRLISTS ENABLED
Info: MARGIN                 2
Info: HYDROGEN GROUP CUTOFF  2.5
Info: PATCH DIMENSION        15.5
Info: ENERGY OUTPUT STEPS    100000
Info: ENERGY EVALUATION STEPS    100000
Info: OUTPUT ENERGY PRECISION 4
Info: CROSSTERM ENERGY INCLUDED IN DIHEDRAL
Info: TIMING OUTPUT STEPS    1000000
Info: PRESSURE OUTPUT STEPS  100000
Info: ALCHEMICAL FEP ON
Info: FEP CURRENT LAMBDA VALUE     0
Info: FEP COMPARISON LAMBDA VALUE  0.05
Info: FEP INTRA-ALCHEMICAL NON-BONDED INTERACTIONS WILL BE RETAINED
Info: FEP INTRA-ALCHEMICAL BONDED INTERACTIONS WILL BE RETAINED
Info: FEP VDW SHIFTING COEFFICIENT 5
Info: FEP ELEC. ACTIVE FOR ANNIHILATED PARTICLES BETWEEN LAMBDA = 0 AND LAMBDA = 0.5
Info: FEP ELEC. ACTIVE FOR EXNIHILATED PARTICLES BETWEEN LAMBDA = 0.5 AND LAMBDA = 1
Info: FEP VDW ACTIVE FOR ANNIHILATED PARTICLES BETWEEN LAMBDA = 0 AND LAMBDA = 1
Info: FEP VDW ACTIVE FOR EXNIHILATED PARTICLES BETWEEN LAMBDA = 0 AND LAMBDA = 1
Info: FEP BOND ACTIVE FOR ANNIHILATED PARTICLES BETWEEN LAMBDA = 1 AND LAMBDA = 1
Info: FEP BOND ACTIVE FOR EXNIHILATED PARTICLES BETWEEN LAMBDA = 0 AND LAMBDA = 0
Info: LANGEVIN DYNAMICS ACTIVE
Info: LANGEVIN TEMPERATURE   300
Info: LANGEVIN USING BBK INTEGRATOR
Info: LANGEVIN DAMPING COEFFICIENT IS 1 INVERSE PS
Info: LANGEVIN DYNAMICS APPLIED TO HYDROGENS
Info: LANGEVIN PISTON PRESSURE CONTROL ACTIVE
Info:        TARGET PRESSURE IS 1.01325 BAR
Info:     OSCILLATION PERIOD IS 50 FS
Info:             DECAY TIME IS 25 FS
Info:     PISTON TEMPERATURE IS 300 K
Info:       PRESSURE CONTROL IS GROUP-BASED
Info:    INITIAL STRAIN RATE IS -2.53103e-05 -2.53103e-05 -2.53103e-05
Info:       CELL FLUCTUATION IS ISOTROPIC
Info: PARTICLE MESH EWALD (PME) ACTIVE
Info: PME TOLERANCE               1e-06
Info: PME EWALD COEFFICIENT       0.348832
Info: PME INTERPOLATION ORDER     4
Info: PME GRID DIMENSIONS         32 32 36
Info: PME MAXIMUM GRID SPACING    1
Info: PME CALCULATION WILL BE PERFORMED ON GPU
Info: FULL ELECTROSTATIC EVALUATION FREQUENCY      2
Info: USING VERLET I (r-RESPA) MTS SCHEME.
Info: C1 SPLITTING OF LONG RANGE ELECTROSTATICS
Info: PLACING ATOMS IN PATCHES BY HYDROGEN GROUPS
Info: RIGID BONDS TO HYDROGEN : ALL
Info:         ERROR TOLERANCE : 1e-08
Info:          MAX ITERATIONS : 100
Info: RIGID WATER USING SETTLE ALGORITHM
Info: RANDOM NUMBER SEED     1743681046
Info: USE HYDROGEN BONDS?    NO
Info: Using AMBER format force field!
Info: AMBER PARM FILE        mobley_1977493.prmtop
Info: COORDINATE PDB         mobley_1977493.pdb
Info: Exclusions will be read from PARM file!
Info: SCNB (VDW SCALING)     2
Info: USING ARITHMETIC MEAN TO COMBINE L-J SIGMA PARAMETERS
Info: BINARY COORDINATES     mobley_1977493_equil.coor
Info: SUMMARY OF PARAMETERS:
Info: 6 BONDS
Info: 7 ANGLES
Info:   7 HARMONIC
Info:   0 COSINE-BASED
Info: 5 DIHEDRAL
Info: 0 IMPROPER
Info: 0 CROSSTERM
Info: 0 VDW
Info: 21 VDW_PAIRS
Info: 0 NBTHOLE_PAIRS
Info: To read alchdata from file: mobley_1977493.pdb
Info: To read alchflag data from column: 5
Info: STRUCTURE SUMMARY:
Info: 2918 ATOMS
Info: 2917 BONDS
Info: 18 ANGLES
Info: 20 DIHEDRALS
Info: 0 IMPROPERS
Info: 0 CROSSTERMS
Info: 2953 EXCLUSIONS
Info: 2914 RIGID BONDS
Info: ALCH: 0 ATOMS TO DISAPPEAR IN FINAL STATE
Info: ALCH: 11 ATOMS TO APPEAR IN FINAL STATE
Info: 5840 DEGREES OF FREEDOM
Info: 973 HYDROGEN GROUPS
Info: 4 ATOMS IN LARGEST HYDROGEN GROUP
Info: 973 MIGRATION GROUPS
Info: 4 ATOMS IN LARGEST MIGRATION GROUP
Info: TOTAL MASS = 17536 amu
Info: TOTAL CHARGE = -0.000100009 e
Info: MASS DENSITY = 0.967454 g/cm^3
Info: ATOM DENSITY = 0.0969448 atoms/A^3
Info: ADDED 0 IMPLICIT EXCLUSIONS
Info: NONBONDED TABLE R-SQUARED SPACING: 0.0625
Info: NONBONDED TABLE SIZE: 705 POINTS
Info: REMOVING COM VELOCITY -0.185917 0.0585055 0.155706
Info: Use 3D box decompostion in PME FFT.
Info: Updated CUDA force table with 4096 elements.
Info: Updated CUDA LJ table with 6 x 6 elements.
Info: Found 14 unique exclusion lists needing 24 bytes
TCL: Running for 1500000 steps
ETITLE: TS BOND ANGLE DIHED IMPRP ELECT VDW BOUNDARY MISC KINETIC TOTAL TEMP POTENTIAL TOTALAVG TEMPAVG PRESSURE GPRESSURE VOLUME PRESSAVG GPRESSAVG
ENERGY: 0 1.5201 4.5826 1.8608 0.0000 -10548.9850 1423.9215 0.0000 0.0000 1691.5067 -7425.5933 291.5085 -9117.1001 -7425.5933 291.5085 -108.8654 -21.3464 30099.5931 -108.8654 -21.3464
ENERGY: 300000 1.0065 7.4829 0.9815 0.0000 -10626.5115 1422.0070 0.0000 0.0000 1735.1099 -7459.9237 299.0229 -9195.0336 -7370.7682 298.5917 -12.6084 49.0659 29715.5827 -111.4320 -52.6539
ENERGY: 600000 0.5151 10.6751 1.5354 0.0000 -10651.5457 1492.7307 0.0000 0.0000 1777.1215 -7368.9679 306.2631 -9146.0894 -7360.3309 299.9891 433.8693 541.6946 30127.9957 -47.5374 18.2981
ENERGY: 900000 0.5384 2.7148 1.3802 0.0000 -10667.5851 1439.2984 0.0000 0.0000 1788.3051 -7435.3483 308.1904 -9223.6534 -7380.0782 300.8949 -89.2855 3.6585 29564.3626 146.0721 213.2875
ENERGY: 1200000 0.4425 8.6123 1.0648 0.0000 -10684.3950 1435.4673 0.0000 0.0000 1722.5958 -7516.2124 296.8663 -9238.8081 -7395.0576 300.7869 -296.2303 -214.6551 29793.1895 133.1173 190.7498
ENERGY: 1500000 0.3712 3.8114 1.0910 0.0000 -10626.3448 1404.8966 0.0000 0.0000 1722.9098 -7493.2648 296.9204 -9216.1746 -7406.6601 300.6592 -323.5836 -310.6542 29904.2763 39.2624 97.6529
TCL: Running FEP window   2: Lambda1 0.05   Lambda2 0.1    [dLambda 0.05  ]
TCL: Setting parameter firsttimestep to 0
TCL: Setting parameter alchLambda to 0.05
Info: NONBONDED TABLE R-SQUARED SPACING: 0.0625
Info: NONBONDED TABLE SIZE: 705 POINTS
TCL: Setting parameter alchLambda2 to 0.1
Info: NONBONDED TABLE R-SQUARED SPACING: 0.0625
Info: NONBONDED TABLE SIZE: 705 POINTS
TCL: Running for 1500000 steps
ETITLE: TS BOND ANGLE DIHED IMPRP ELECT VDW BOUNDARY MISC KINETIC TOTAL TEMP POTENTIAL TOTALAVG TEMPAVG PRESSURE GPRESSURE VOLUME PRESSAVG GPRESSAVG
ENERGY: 0 0.3712 3.8114 1.0910 0.0000 -10626.3448 1408.8055 0.0000 0.0000 1722.0346 -7490.2312 296.7696 -9212.2658 -7490.2312 296.7696 -377.0087 -304.3821 29904.2763 -377.0087 -304.3821
ENERGY: 300000 0.8283 3.1804 2.7322 0.0000 -10459.3100 1356.3434 0.0000 0.0000 1744.6952 -7351.5305 300.6749 -9096.2257 -7424.7906 299.0019 -358.2729 -366.2230 29937.7347 -293.8423 -224.5873
ENERGY: 600000 0.6658 2.9683 0.8430 0.0000 -10499.6726 1409.2577 0.0000 0.0000 1718.4606 -7367.4772 296.1537 -9085.9378 -7400.3319 299.6595 101.6826 114.6306 29874.4763 -216.7024 -153.3938
ENERGY: 900000 2.0326 1.8254 1.1835 0.0000 -10573.1097 1430.2650 0.0000 0.0000 1730.6563 -7407.1469 298.2554 -9137.8033 -7400.8120 299.2712 -147.3029 -64.0590 30158.3915 -111.2909 -39.2208
ENERGY: 1200000 1.0313 4.9120 2.0921 0.0000 -10598.1984 1443.9162 0.0000 0.0000 1762.2979 -7383.9489 303.7084 -9146.2468 -7384.0122 300.1577 98.9975 175.5906 29941.2590 -8.8372 63.1462
ENERGY: 1500000 0.5423 3.1201 1.5738 0.0000 -10531.4150 1314.1077 0.0000 0.0000 1715.1522 -7496.9189 295.5835 -9212.0711 -7389.0172 300.4747 -1226.5049 -1124.5255 30261.2156 -152.2747 -75.6243
TCL: Running FEP window   3: Lambda1 0.1    Lambda2 0.15000000000000002 [dLambda 0.05000000000000002]
TCL: Setting parameter firsttimestep to 0
TCL: Setting parameter alchLambda to 0.1
Info: NONBONDED TABLE R-SQUARED SPACING: 0.0625
Info: NONBONDED TABLE SIZE: 705 POINTS
TCL: Setting parameter alchLambda2 to 0.15000000000000002
Info: NONBONDED TABLE R-SQUARED SPACING: 0.0625
Info: NONBONDED TABLE SIZE: 705 POINTS
TCL: Running for 1500000 steps
ETITLE: TS BOND ANGLE DIHED IMPRP ELECT VDW BOUNDARY MISC KINETIC TOTAL TEMP POTENTIAL TOTALAVG TEMPAVG PRESSURE GPRESSURE VOLUME PRESSAVG GPRESSAVG
ENERGY: 0 0.5423 3.1201 1.5738 0.0000 -10531.4181 1316.0226 0.0000 0.0000 1714.2647 -7495.8946 295.4306 -9210.1592 -7495.8946 295.4306 -1194.5680 -1113.9142 30261.2156 -1194.5680 -1113.9142
ENERGY: 300000 0.7011 4.6556 0.8023 0.0000 -10582.9499 1411.8061 0.0000 0.0000 1701.8674 -7463.1174 293.2940 -9164.9848 -7424.3924 299.0198 -243.8171 -228.8562 29993.7316 -329.6040 -276.8492
ENERGY: 600000 0.8230 5.0388 0.6635 0.0000 -10443.7128 1369.8582 0.0000 0.0000 1772.0268 -7295.3026 305.3851 -9067.3293 -7403.3523 299.3840 -71.7148 -30.5482 29758.8516 -342.9848 -285.9147
ENERGY: 900000 0.3453 2.0278 1.5338 0.0000 -10557.2156 1451.1454 0.0000 0.0000 1748.1184 -7354.0450 301.2648 -9102.1633 -7393.8793 298.8595 380.3141 406.9843 29879.1544 -285.2655 -228.4726
ENERGY: 1200000 1.2626 3.3914 1.2030 0.0000 -10593.1839 1474.0525 0.0000 0.0000 1699.6596 -7413.6147 292.9136 -9113.2743 -7400.5068 298.2119 568.5440 566.1714 29655.6127 -284.6021 -236.1480
ENERGY: 1500000 0.4158 6.2302 3.2622 0.0000 -10579.9022 1372.5966 0.0000 0.0000 1741.2030 -7456.1943 300.0730 -9197.3973 -7400.1786 298.9641 -290.4540 -295.4669 29414.3593 -235.9184 -179.0670
TCL: Running FEP window   4: Lambda1 0.15000000000000002 Lambda2 0.2    [dLambda 0.04999999999999999]
TCL: Setting parameter firsttimestep to 0
TCL: Setting parameter alchLambda to 0.15000000000000002
Info: NONBONDED TABLE R-SQUARED SPACING: 0.0625
Info: NONBONDED TABLE SIZE: 705 POINTS
TCL: Setting parameter alchLambda2 to 0.2
Info: NONBONDED TABLE R-SQUARED SPACING: 0.0625
Info: NONBONDED TABLE SIZE: 705 POINTS
TCL: Running for 1500000 steps
ETITLE: TS BOND ANGLE DIHED IMPRP ELECT VDW BOUNDARY MISC KINETIC TOTAL TEMP POTENTIAL TOTALAVG TEMPAVG PRESSURE GPRESSURE VOLUME PRESSAVG GPRESSAVG
ENERGY: 0 0.4158 6.2302 3.2622 0.0000 -10579.9021 1374.5464 0.0000 0.0000 1740.3242 -7455.1231 299.9216 -9195.4474 -7455.1231 299.9216 -365.9964 -286.5623 29414.3593 -365.9964 -286.5623
ENERGY: 300000 1.8123 3.2827 0.4880 0.0000 -10410.2490 1293.1936 0.0000 0.0000 1737.2312 -7374.2411 299.3885 -9111.4723 -7429.2514 298.4566 -1112.4153 -984.3207 30193.4553 -265.2196 -188.3210
ENERGY: 600000 0.2018 7.1570 1.1264 0.0000 -10630.8721 1455.0332 0.0000 0.0000 1747.9285 -7419.4253 301.2321 -9167.3537 -7420.2946 300.2706 330.6672 367.7056 29712.8552 -215.0315 -145.2350
ENERGY: 900000 1.0506 3.1858 0.5176 0.0000 -10606.2209 1398.2262 0.0000 0.0000 1723.8869 -7479.3537 297.0888 -9203.2406 -7439.9117 299.5070 -426.7344 -316.2419 30093.9982 -191.1171 -122.4539
ENERGY: 1200000 0.3017 4.4205 0.6376 0.0000 -10600.7720 1446.8496 0.0000 0.0000 1706.9606 -7441.6020 294.1718 -9148.5627 -7438.3709 298.9018 150.6142 209.6722 30013.9587 -68.3757 1.8348
ENERGY: 1500000 0.3042 6.6999 1.1175 0.0000 -10548.5306 1408.0358 0.0000 0.0000 1774.2563 -7358.1170 305.7693 -9132.3733 -7431.3287 299.5926 -147.3057 -105.9644 30264.2555 -55.9183 8.0211
TCL: Running FEP window   5: Lambda1 0.2    Lambda2 0.25   [dLambda 0.04999999999999999]
TCL: Setting parameter firsttimestep to 0
TCL: Setting parameter alchLambda to 0.2
Info: NONBONDED TABLE R-SQUARED SPACING: 0.0625
Info: NONBONDED TABLE SIZE: 705 POINTS
TCL: Setting parameter alchLambda2 to 0.25
Info: NONBONDED TABLE R-SQUARED SPACING: 0.0625
Info: NONBONDED TABLE SIZE: 705 POINTS
TCL: Running for 1500000 steps
ETITLE: TS BOND ANGLE DIHED IMPRP ELECT VDW BOUNDARY MISC KINETIC TOTAL TEMP POTENTIAL TOTALAVG TEMPAVG PRESSURE GPRESSURE VOLUME PRESSAVG GPRESSAVG
ENERGY: 0 0.3042 6.6999 1.1175 0.0000 -10548.5310 1409.6213 0.0000 0.0000 1773.3925 -7357.3957 305.6205 -9130.7882 -7357.3957 305.6205 -186.8337 -94.8065 30264.2555 -186.8337 -94.8065
ENERGY: 300000 0.2560 4.1914 1.6130 0.0000 -10602.1163 1401.1053 0.0000 0.0000 1739.7588 -7455.1917 299.8241 -9194.9506 -7398.1183 298.8640 -590.5698 -566.6594 30551.0386 -233.2849 -179.2491
ENERGY: 600000 0.7555 5.2457 0.6685 0.0000 -10670.4752 1467.8543 0.0000 0.0000 1754.3078 -7441.6433 302.3315 -9195.9511 -7416.3365 298.9035 95.0824 172.3197 29935.9955 11.2736 66.4932
ENERGY: 900000 1.3334 4.9362 1.4860 0.0000 -10444.2408 1357.0693 0.0000 0.0000 1759.7719 -7319.6440 303.2731 -9079.4159 -7422.1128 298.2605 -571.0685 -536.9575 30526.9936 -107.9907 -50.5817
ENERGY: 1200000 0.2248 3.9020 1.5735 0.0000 -10588.1792 1426.2723 0.0000 0.0000 1804.0262 -7352.1804 310.8998 -9156.2066 -7422.5063 299.1525 -202.1812 -89.5927 30694.6342 -92.9541 -31.9495
ENERGY: 1500000 1.5116 7.8981 1.2106 0.0000 -10594.6715 1495.2152 0.0000 0.0000 1739.5232 -7349.3127 299.7835 -9088.8360 -7415.8171 299.4826 650.9165 722.0399 29863.5405 -62.4381 -3.7520
TCL: Running FEP window   6: Lambda1 0.25   Lambda2 0.3    [dLambda 0.04999999999999999]
TCL: Setting parameter firsttimestep to 0
TCL: Setting parameter alchLambda to 0.25
Info: NONBONDED TABLE R-SQUARED SPACING: 0.0625
Info: NONBONDED TABLE SIZE: 705 POINTS
TCL: Setting parameter alchLambda2 to 0.3
Info: NONBONDED TABLE R-SQUARED SPACING: 0.0625
Info: NONBONDED TABLE SIZE: 705 POINTS
TCL: Running for 1500000 steps
ETITLE: TS BOND ANGLE DIHED IMPRP ELECT VDW BOUNDARY MISC KINETIC TOTAL TEMP POTENTIAL TOTALAVG TEMPAVG PRESSURE GPRESSURE VOLUME PRESSAVG GPRESSAVG
ENERGY: 0 1.5116 7.8981 1.2106 0.0000 -10594.6715 1495.2919 0.0000 0.0000 1738.6571 -7350.1022 299.6343 -9088.7593 -7350.1022 299.6343 648.8063 727.5252 29863.5405 648.8063 727.5252
ENERGY: 300000 0.3021 4.7049 0.6269 0.0000 -10514.0518 1401.9227 0.0000 0.0000 1742.7312 -7363.7638 300.3364 -9106.4951 -7374.9191 299.8141 -88.9746 7.3530 30016.8766 163.4130 236.1314
ENERGY: 600000 0.6830 4.7766 2.9483 0.0000 -10652.6225 1470.1016 0.0000 0.0000 1690.2100 -7483.9029 291.2851 -9174.1129 -7397.2405 298.3421 415.7800 414.6768 29671.7766 33.5967 98.1175
ENERGY: 900000 0.6212 3.0383 0.7851 0.0000 -10639.4658 1472.1451 0.0000 0.0000 1740.6212 -7422.2549 299.9728 -9162.8761 -7409.1061 298.7065 269.8606 386.3598 29650.5959 -79.3398 -10.8758
ENERGY: 1200000 0.1417 4.0571 0.9821 0.0000 -10639.0879 1417.7082 0.0000 0.0000 1751.1031 -7465.0957 301.7792 -9216.1988 -7423.9010 299.0707 -76.3828 -0.0803 29511.0574 -92.0344 -30.4374
ENERGY: 1500000 1.6752 5.0398 1.1659 0.0000 -10564.6797 1434.3910 0.0000 0.0000 1665.4132 -7456.9946 287.0117 -9122.4078 -7425.3772 298.4626 13.1226 52.6009 29980.2454 -136.1660 -77.7102
TCL: Running FEP window   7: Lambda1 0.3    Lambda2 0.35   [dLambda 0.04999999999999999]
TCL: Setting parameter firsttimestep to 0
TCL: Setting parameter alchLambda to 0.3
Info: NONBONDED TABLE R-SQUARED SPACING: 0.0625
Info: NONBONDED TABLE SIZE: 705 POINTS
TCL: Setting parameter alchLambda2 to 0.35
Info: NONBONDED TABLE R-SQUARED SPACING: 0.0625
Info: NONBONDED TABLE SIZE: 705 POINTS
TCL: Running for 1500000 steps
ETITLE: TS BOND ANGLE DIHED IMPRP ELECT VDW BOUNDARY MISC KINETIC TOTAL TEMP POTENTIAL TOTALAVG TEMPAVG PRESSURE GPRESSURE VOLUME PRESSAVG GPRESSAVG
ENERGY: 0 1.6752 5.0398 1.1659 0.0000 -10564.6805 1434.6639 0.0000 0.0000 1664.5274 -7457.6083 286.8590 -9122.1356 -7457.6083 286.8590 -39.7306 55.2504 29980.2454 -39.7306 55.2504
ENERGY: 300000 0.4866 4.5663 0.6543 0.0000 -10565.3398 1379.6721 0.0000 0.0000 1739.4468 -7440.5137 299.7704 -9179.9605 -7408.5023 298.2532 -392.8840 -390.7907 30158.2328 -44.4134 0.4469
ENERGY: 600000 2.0345 4.3993 1.0999 0.0000 -10588.9744 1471.7482 0.0000 0.0000 1703.1321 -7406.5604 293.5120 -9109.6925 -7404.7965 298.6557 103.4068 169.9972 30499.5152 -128.5355 -79.4371
ENERGY: 900000 1.5670 2.6084 0.8718 0.0000 -10655.8965 1442.5153 0.0000 0.0000 1735.6119 -7472.7220 299.1095 -9208.3339 -7422.5297 298.9747 155.2112 153.5334 29479.7489 -145.1949 -94.3157
ENERGY: 1200000 0.2835 3.0829 0.9607 0.0000 -10487.8428 1387.6138 0.0000 0.0000 1684.3360 -7411.5660 290.2728 -9095.9020 -7414.7060 298.8915 -198.6447 -163.4516 29894.6877 -202.8938 -157.8309
ENERGY: 1500000 0.5974 6.0544 2.1955 0.0000 -10598.2755 1470.9603 0.0000 0.0000 1748.2627 -7370.2052 301.2897 -9118.4679 -7406.7013 299.5281 409.0778 498.0626 29911.0019 -110.5886 -60.7448
TCL: Running FEP window   8: Lambda1 0.35   Lambda2 0.39999999999999997 [dLambda 0.04999999999999999]
TCL: Setting parameter firsttimestep to 0
TCL: Setting parameter alchLambda to 0.35
Info: NONBONDED TABLE R-SQUARED SPACING: 0.0625
Info: NONBONDED TABLE SIZE: 705 POINTS
TCL: Setting parameter alchLambda2 to 0.39999999999999997
Info: NONBONDED TABLE R-SQUARED SPACING: 0.0625
Info: NONBONDED TABLE SIZE: 705 POINTS
TCL: Running for 1500000 steps
ETITLE: TS BOND ANGLE DIHED IMPRP ELECT VDW BOUNDARY MISC KINETIC TOTAL TEMP POTENTIAL TOTALAVG TEMPAVG PRESSURE GPRESSURE VOLUME PRESSAVG GPRESSAVG
ENERGY: 0 0.5974 6.0544 2.1955 0.0000 -10598.2758 1470.7105 0.0000 0.0000 1747.3639 -7371.3541 301.1348 -9118.7180 -7371.3541 301.1348 417.8894 502.4320 29911.0019 417.8894 502.4320
ENERGY: 300000 1.4659 3.4582 1.1529 0.0000 -10553.3677 1397.8882 0.0000 0.0000 1695.7759 -7453.6266 292.2443 -9149.4025 -7436.8821 295.3447 -453.4454 -373.2633 30381.4676 -114.4536 -35.5630
ENERGY: 600000 2.4421 4.9531 0.6954 0.0000 -10614.5907 1475.1420 0.0000 0.0000 1735.8338 -7395.5244 299.1477 -9131.3583 -7425.2369 296.6253 508.4439 566.9871 30073.7888 -49.9236 12.7636
ENERGY: 900000 2.7057 5.0267 0.9178 0.0000 -10648.6353 1452.3138 0.0000 0.0000 1767.2916 -7420.3797 304.5690 -9187.6713 -7427.9959 297.9308 -26.7201 -13.6113 30234.5244 -55.4121 4.4705
ENERGY: 1200000 1.3896 4.9624 1.8137 0.0000 -10374.3637 1309.5030 0.0000 0.0000 1747.3061 -7309.3890 301.1248 -9056.6951 -7412.5741 298.8691 -886.2866 -855.4596 30437.2694 -84.5348 -31.1842
ENERGY: 1500000 1.1578 4.6856 1.1210 0.0000 -10626.5350 1403.8269 0.0000 0.0000 1759.9934 -7455.7504 303.3113 -9215.7438 -7411.9113 299.4904 -232.4550 -265.6193 29936.2339 -136.2866 -80.9209
TCL: Running FEP window   9: Lambda1 0.39999999999999997 Lambda2 0.44999999999999996 [dLambda 0.04999999999999999]
TCL: Setting parameter firsttimestep to 0
TCL: Setting parameter alchLambda to 0.39999999999999997
Info: NONBONDED TABLE R-SQUARED SPACING: 0.0625
Info: NONBONDED TABLE SIZE: 705 POINTS
TCL: Setting parameter alchLambda2 to 0.44999999999999996
Info: NONBONDED TABLE R-SQUARED SPACING: 0.0625
Info: NONBONDED TABLE SIZE: 705 POINTS
TCL: Running for 1500000 steps
ETITLE: TS BOND ANGLE DIHED IMPRP ELECT VDW BOUNDARY MISC KINETIC TOTAL TEMP POTENTIAL TOTALAVG TEMPAVG PRESSURE GPRESSURE VOLUME PRESSAVG GPRESSAVG
ENERGY: 0 1.1578 4.6856 1.1210 0.0000 -10626.5357 1403.4216 0.0000 0.0000 1759.0832 -7457.0666 303.1544 -9216.1498 -7457.0666 303.1544 -353.0844 -265.1176 29936.2339 -353.0844 -265.1176
ENERGY: 300000 0.9180 5.3748 1.0042 0.0000 -10674.2423 1515.1547 0.0000 0.0000 1786.3030 -7365.4876 307.8454 -9151.7906 -7415.6813 300.0298 833.3968 961.9816 29536.9457 226.0538 318.6539
ENERGY: 600000 0.6410 6.7477 0.9921 0.0000 -10600.0048 1405.5704 0.0000 0.0000 1713.2444 -7472.8093 295.2547 -9186.0537 -7422.7265 300.8521 -415.8290 -403.6173 30191.5303 -53.1112 30.5157
ENERGY: 900000 0.3380 3.1717 0.8178 0.0000 -10716.9221 1501.5690 0.0000 0.0000 1703.6942 -7507.3314 293.6089 -9211.0256 -7437.0744 300.1863 492.7615 554.4314 29939.8277 -31.3875 37.9087
ENERGY: 1200000 0.3853 6.6915 0.4470 0.0000 -10497.6294 1364.7304 0.0000 0.0000 1786.4581 -7338.9171 307.8721 -9125.3753 -7422.2914 301.2180 -435.3490 -366.2356 30131.8849 -30.7582 39.3336
ENERGY: 1500000 2.2136 4.8942 0.9526 0.0000 -10557.7349 1408.7757 0.0000 0.0000 1732.8586 -7408.0401 298.6350 -9140.8987 -7427.6587 300.4568 -67.4362 -80.8427 30079.8619 -90.7625 -31.1856
TCL: Running FEP window  10: Lambda1 0.44999999999999996 Lambda2 0.49999999999999994 [dLambda 0.04999999999999999]
TCL: Setting parameter firsttimestep to 0
TCL: Setting parameter alchLambda to 0.44999999999999996
Info: NONBONDED TABLE R-SQUARED SPACING: 0.0625
Info: NONBONDED TABLE SIZE: 705 POINTS
TCL: Setting parameter alchLambda2 to 0.49999999999999994
Info: NONBONDED TABLE R-SQUARED SPACING: 0.0625
Info: NONBONDED TABLE SIZE: 705 POINTS
TCL: Running for 1500000 steps
ETITLE: TS BOND ANGLE DIHED IMPRP ELECT VDW BOUNDARY MISC KINETIC TOTAL TEMP POTENTIAL TOTALAVG TEMPAVG PRESSURE GPRESSURE VOLUME PRESSAVG GPRESSAVG
ENERGY: 0 2.2136 4.8942 0.9526 0.0000 -10557.7320 1409.0402 0.0000 0.0000 1732.0072 -7408.6242 298.4882 -9140.6315 -7408.6242 298.4882 -163.7674 -76.5981 30079.8619 -163.7674 -76.5981
ENERGY: 300000 0.1520 5.5634 0.5400 0.0000 -10727.9787 1521.4189 0.0000 0.0000 1714.8379 -7485.4665 295.5293 -9200.3044 -7419.4978 301.1223 1027.9556 1071.1229 29388.6342 283.8709 337.7137
ENERGY: 600000 1.9140 4.2124 0.9923 0.0000 -10679.7354 1501.8354 0.0000 0.0000 1719.1120 -7451.6694 296.2659 -9170.7813 -7416.9190 301.1842 542.1844 593.6971 30032.6185 20.4829 74.4899
ENERGY: 900000 0.1970 3.4137 1.1360 0.0000 -10440.8699 1367.4351 0.0000 0.0000 1749.5246 -7319.1636 301.5071 -9068.6882 -7402.6478 301.4343 -332.2061 -275.7405 30317.6290 113.2025 167.8669
ENERGY: 1200000 3.8769 4.8457 2.6673 0.0000 -10639.7992 1502.4901 0.0000 0.0000 1723.1731 -7402.7461 296.9658 -9125.9192 -7410.1856 300.3647 503.6674 474.7807 30271.0760 37.8949 84.8564
ENERGY: 1500000 0.5677 4.4624 0.9425 0.0000 -10667.2148 1502.7502 0.0000 0.0000 1757.3758 -7401.1162 302.8602 -9158.4920 -7411.5416 300.5077 610.6126 641.1945 29953.9925 66.6003 116.5402
TCL: Running FEP window  11: Lambda1 0.49999999999999994 Lambda2 0.5499999999999999 [dLambda 0.04999999999999999]
TCL: Setting parameter firsttimestep to 0
TCL: Setting parameter alchLambda to 0.49999999999999994
Info: NONBONDED TABLE R-SQUARED SPACING: 0.0625
Info: NONBONDED TABLE SIZE: 705 POINTS
TCL: Setting parameter alchLambda2 to 0.5499999999999999
Info: NONBONDED TABLE R-SQUARED SPACING: 0.0625
Info: NONBONDED TABLE SIZE: 705 POINTS
TCL: Running for 1500000 steps
ETITLE: TS BOND ANGLE DIHED IMPRP ELECT VDW BOUNDARY MISC KINETIC TOTAL TEMP POTENTIAL TOTALAVG TEMPAVG PRESSURE GPRESSURE VOLUME PRESSAVG GPRESSAVG
ENERGY: 0 0.5677 4.4624 0.9425 0.0000 -10667.2148 1503.0913 0.0000 0.0000 1756.5273 -7401.6235 302.7140 -9158.1508 -7401.6235 302.7140 585.0615 649.4487 29953.9925 585.0615 649.4487
ENERGY: 300000 0.8912 5.6849 0.5961 0.0000 -10563.5090 1437.9744 0.0000 0.0000 1730.1529 -7388.2095 298.1687 -9118.3624 -7395.1440 299.2511 234.1923 242.5546 29835.2615 323.0703 365.6109
ENERGY: 600000 1.0508 5.7930 1.4418 0.0000 -10617.1420 1420.3389 0.0000 0.0000 1767.8465 -7420.6711 304.6647 -9188.5176 -7393.0850 300.1694 221.6821 294.5075 29663.9786 159.7518 227.1282
ENERGY: 900000 0.5552 2.9435 1.8804 0.0000 -10579.0966 1413.4527 0.0000 0.0000 1779.2221 -7381.0427 306.6251 -9160.2648 -7390.5585 301.2486 -77.6562 -25.8685 30281.5538 128.2415 190.4490
ENERGY: 1200000 0.8151 5.9574 0.9757 0.0000 -10586.8830 1368.0412 0.0000 0.0000 1736.3291 -7474.7646 299.2331 -9211.0937 -7402.3321 301.3521 -691.9778 -657.4423 30152.9133 40.3161 97.1342
ENERGY: 1500000 2.3834 6.6176 1.1666 0.0000 -10569.9005 1426.1194 0.0000 0.0000 1708.7699 -7424.8437 294.4836 -9133.6136 -7408.2278 299.8988 55.4451 71.1891 29873.6100 74.8281 126.1485
TCL: Running FEP window  12: Lambda1 0.5499999999999999 Lambda2 0.6    [dLambda 0.050000000000000044]
TCL: Setting parameter firsttimestep to 0
TCL: Setting parameter alchLambda to 0.5499999999999999
Info: NONBONDED TABLE R-SQUARED SPACING: 0.0625
Info: NONBONDED TABLE SIZE: 705 POINTS
TCL: Setting parameter alchLambda2 to 0.6
Info: NONBONDED TABLE R-SQUARED SPACING: 0.0625
Info: NONBONDED TABLE SIZE: 705 POINTS
TCL: Running for 1500000 steps
ETITLE: TS BOND ANGLE DIHED IMPRP ELECT VDW BOUNDARY MISC KINETIC TOTAL TEMP POTENTIAL TOTALAVG TEMPAVG PRESSURE GPRESSURE VOLUME PRESSAVG GPRESSAVG
ENERGY: 0 2.3834 6.6176 1.1666 0.0000 -10569.9304 1426.1815 0.0000 0.0000 1707.8985 -7425.6829 294.3334 -9133.5814 -7425.6829 294.3334 -13.1966 77.0357 29873.6100 -13.1966 77.0357
ENERGY: 300000 1.2377 5.4826 0.8870 0.0000 -10468.8406 1275.2605 0.0000 0.0000 1701.4082 -7484.5646 293.2149 -9185.9728 -7451.1787 298.6131 -1435.7181 -1381.0636 30365.3806 -216.4101 -135.2395
ENERGY: 600000 0.4532 3.6531 0.7375 0.0000 -10561.2710 1416.4043 0.0000 0.0000 1774.1529 -7365.8700 305.7515 -9140.0229 -7433.2236 298.5725 51.2630 83.4355 29984.1626 -203.0245 -128.7411
ENERGY: 900000 0.4534 4.0085 1.0034 0.0000 -10557.1715 1459.0950 0.0000 0.0000 1743.2693 -7349.3419 300.4291 -9092.6112 -7419.1080 299.0671 303.4729 374.2369 30227.6918 -7.9192 70.7084
ENERGY: 1200000 1.2325 5.5807 1.6320 0.0000 -10521.7579 1407.2846 0.0000 0.0000 1704.7041 -7401.3240 293.7829 -9106.0282 -7421.4061 298.8472 -27.5108 83.1868 29998.2197 -61.5569 18.9824
ENERGY: 1500000 0.4421 3.8100 0.8961 0.0000 -10652.6399 1441.2590 0.0000 0.0000 1742.9051 -7463.3275 300.3664 -9206.2326 -7424.2037 299.5583 -125.7453 -60.7832 30141.6234 -47.5318 26.8342
TCL: Running FEP window  13: Lambda1 0.6    Lambda2 0.65   [dLambda 0.050000000000000044]
TCL: Setting parameter firsttimestep to 0
TCL: Setting parameter alchLambda to 0.6
Info: NONBONDED TABLE R-SQUARED SPACING: 0.0625
Info: NONBONDED TABLE SIZE: 705 POINTS
TCL: Setting parameter alchLambda2 to 0.65
Info: NONBONDED TABLE R-SQUARED SPACING: 0.0625
Info: NONBONDED TABLE SIZE: 705 POINTS
TCL: Running for 1500000 steps
ETITLE: TS BOND ANGLE DIHED IMPRP ELECT VDW BOUNDARY MISC KINETIC TOTAL TEMP POTENTIAL TOTALAVG TEMPAVG PRESSURE GPRESSURE VOLUME PRESSAVG GPRESSAVG
ENERGY: 0 0.4421 3.8100 0.8961 0.0000 -10652.5917 1441.0481 0.0000 0.0000 1742.0722 -7464.3232 300.2228 -9206.3954 -7464.3232 300.2228 -139.5038 -57.8591 30141.6234 -139.5038 -57.8591
ENERGY: 300000 0.1459 4.5606 1.1636 0.0000 -10586.2737 1428.7357 0.0000 0.0000 1767.5606 -7384.1073 304.6154 -9151.6678 -7405.8829 300.6539 109.1951 159.8304 29819.4598 14.1026 69.3240
ENERGY: 600000 0.5491 5.2154 0.4879 0.0000 -10697.3701 1433.2317 0.0000 0.0000 1792.2739 -7465.6120 308.8744 -9257.8859 -7412.6658 301.1086 -163.4171 -90.4125 29866.7402 -250.9682 -188.9019
ENERGY: 900000 2.7405 4.1056 1.3828 0.0000 -10524.6458 1397.2840 0.0000 0.0000 1782.3300 -7336.8029 307.1607 -9119.1329 -7401.4712 303.3109 185.0972 199.8706 29724.8327 -83.9939 -26.6649
ENERGY: 1200000 0.0402 4.2244 2.0783 0.0000 -10548.9439 1397.5144 0.0000 0.0000 1734.2969 -7410.7896 298.8828 -9145.0866 -7403.1591 301.3053 -214.6604 -141.0001 30010.0890 -88.4274 -24.5344
ENERGY: 1500000 0.7685 6.4227 0.7977 0.0000 -10746.8469 1506.5823 0.0000 0.0000 1742.8712 -7489.4045 300.3605 -9232.2757 -7404.5937 301.3196 582.4233 644.7981 29460.1482 -81.5736 -17.5744
TCL: Running FEP window  14: Lambda1 0.65   Lambda2 0.7000000000000001 [dLambda 0.050000000000000044]
TCL: Setting parameter firsttimestep to 0
TCL: Setting parameter alchLambda to 0.65
Info: NONBONDED TABLE R-SQUARED SPACING: 0.0625
Info: NONBONDED TABLE SIZE: 705 POINTS
TCL: Setting parameter alchLambda2 to 0.7000000000000001
Info: NONBONDED TABLE R-SQUARED SPACING: 0.0625
Info: NONBONDED TABLE SIZE: 705 POINTS
TCL: Running for 1500000 steps
ETITLE: TS BOND ANGLE DIHED IMPRP ELECT VDW BOUNDARY MISC KINETIC TOTAL TEMP POTENTIAL TOTALAVG TEMPAVG PRESSURE GPRESSURE VOLUME PRESSAVG GPRESSAVG
ENERGY: 0 0.7685 6.4227 0.7977 0.0000 -10746.8848 1506.4137 0.0000 0.0000 1742.0294 -7490.4528 300.2154 -9232.4822 -7490.4528 300.2154 579.9690 649.6099 29460.1482 579.9690 649.6099
ENERGY: 300000 2.8586 8.5092 0.8196 0.0000 -10669.6164 1468.3667 0.0000 0.0000 1701.3962 -7487.6661 293.2128 -9189.0623 -7468.9408 298.8094 -121.3779 -56.0899 30239.0324 131.5160 209.0631
ENERGY: 600000 0.7119 8.6945 2.3974 0.0000 -10513.8462 1351.1282 0.0000 0.0000 1791.9828 -7358.9313 308.8242 -9150.9141 -7451.7713 298.9145 -532.0694 -460.8295 30175.6662 118.8878 201.7517
ENERGY: 900000 0.6929 4.6130 1.4650 0.0000 -10529.1254 1411.1024 0.0000 0.0000 1799.2039 -7312.0481 310.0687 -9111.2520 -7431.9650 300.3079 -47.0815 28.0083 30245.4979 35.0214 109.7962
ENERGY: 1200000 2.1889 4.8934 0.4890 0.0000 -10496.8529 1351.7692 0.0000 0.0000 1729.4469 -7408.0654 298.0470 -9137.5123 -7430.4405 300.4069 -717.0416 -617.5550 30175.6785 49.7981 118.3762
ENERGY: 1500000 0.3727 1.8577 0.5835 0.0000 -10679.1647 1466.3701 0.0000 0.0000 1723.1174 -7486.8634 296.9562 -9209.9808 -7439.6516 298.8304 277.0570 328.8209 29732.1412 147.8743 209.1430
TCL: Running FEP window  15: Lambda1 0.7000000000000001 Lambda2 0.7500000000000001 [dLambda 0.050000000000000044]
TCL: Setting parameter firsttimestep to 0
TCL: Setting parameter alchLambda to 0.7000000000000001
Info: NONBONDED TABLE R-SQUARED SPACING: 0.0625
Info: NONBONDED TABLE SIZE: 705 POINTS
TCL: Setting parameter alchLambda2 to 0.7500000000000001
Info: NONBONDED TABLE R-SQUARED SPACING: 0.0625
Info: NONBONDED TABLE SIZE: 705 POINTS
TCL: Running for 1500000 steps
ETITLE: TS BOND ANGLE DIHED IMPRP ELECT VDW BOUNDARY MISC KINETIC TOTAL TEMP POTENTIAL TOTALAVG TEMPAVG PRESSURE GPRESSURE VOLUME PRESSAVG GPRESSAVG
ENERGY: 0 0.3727 1.8577 0.5835 0.0000 -10679.5473 1466.7917 0.0000 0.0000 1722.2422 -7487.6996 296.8054 -9209.9418 -7487.6996 296.8054 259.3132 336.7112 29732.1412 259.3132 336.7112
ENERGY: 300000 1.1171 4.2374 1.8241 0.0000 -10456.6379 1383.6788 0.0000 0.0000 1761.0579 -7304.7227 303.4947 -9065.7806 -7416.3425 301.0339 -17.9758 128.1174 30132.6837 23.4155 121.1508
ENERGY: 600000 0.1135 4.4205 0.5916 0.0000 -10647.9548 1495.7325 0.0000 0.0000 1722.2640 -7424.8327 296.8091 -9147.0967 -7398.3231 302.1848 635.2082 663.7538 29911.1629 91.6229 173.7345
ENERGY: 900000 0.8610 3.5459 1.5118 0.0000 -10649.7016 1450.5196 0.0000 0.0000 1787.2143 -7406.0490 308.0025 -9193.2633 -7413.9425 302.4312 324.6706 341.8278 29715.9258 127.2157 196.1948
ENERGY: 1200000 0.1854 6.1334 2.4407 0.0000 -10755.0656 1504.8978 0.0000 0.0000 1789.4464 -7451.9618 308.3871 -9241.4082 -7412.4826 302.3961 782.1275 780.0713 29580.9787 142.3037 204.6897
ENERGY: 1500000 0.7084 3.7446 0.9825 0.0000 -10760.0708 1516.0838 0.0000 0.0000 1767.6610 -7470.8904 304.6327 -9238.5514 -7411.6293 301.7216 533.4572 662.5387 29904.0039 225.0117 289.9046
TCL: Running FEP window  16: Lambda1 0.7500000000000001 Lambda2 0.8000000000000002 [dLambda 0.050000000000000044]
TCL: Setting parameter firsttimestep to 0
TCL: Setting parameter alchLambda to 0.7500000000000001
Info: NONBONDED TABLE R-SQUARED SPACING: 0.0625
Info: NONBONDED TABLE SIZE: 705 POINTS
TCL: Setting parameter alchLambda2 to 0.8000000000000002
Info: NONBONDED TABLE R-SQUARED SPACING: 0.0625
Info: NONBONDED TABLE SIZE: 705 POINTS
TCL: Running for 1500000 steps
ETITLE: TS BOND ANGLE DIHED IMPRP ELECT VDW BOUNDARY MISC KINETIC TOTAL TEMP POTENTIAL TOTALAVG TEMPAVG PRESSURE GPRESSURE VOLUME PRESSAVG GPRESSAVG
ENERGY: 0 0.7084 3.7446 0.9825 0.0000 -10760.1312 1516.4615 0.0000 0.0000 1766.7712 -7471.4629 304.4794 -9238.2341 -7471.4629 304.4794 584.2031 670.7227 29904.0039 584.2031 670.7227
ENERGY: 300000 0.9464 4.1599 0.9254 0.0000 -10518.2805 1388.8369 0.0000 0.0000 1735.7012 -7387.7108 299.1249 -9123.4119 -7405.6849 297.2937 -284.3782 -272.4139 30128.6127 -89.3273 -33.9281
ENERGY: 600000 0.3495 4.6077 1.2752 0.0000 -10616.5065 1480.1536 0.0000 0.0000 1734.4629 -7395.6577 298.9114 -9130.1206 -7414.3452 296.8730 344.1283 417.0761 30281.7975 186.0977 244.2866
ENERGY: 900000 1.2338 2.8356 1.5314 0.0000 -10627.0000 1463.0153 0.0000 0.0000 1801.2655 -7357.1183 310.4240 -9158.3838 -7413.6131 298.3251 307.7104 333.8204 30282.0873 83.0797 141.7271
ENERGY: 1200000 0.4060 8.0437 1.7401 0.0000 -10627.6613 1393.2865 0.0000 0.0000 1735.0767 -7489.1081 299.0172 -9224.1848 -7416.0745 298.1105 -608.6961 -577.5794 30258.7869 40.7168 100.8510
ENERGY: 1500000 0.1281 3.6959 1.6747 0.0000 -10602.6898 1419.1905 0.0000 0.0000 1693.8282 -7484.1724 291.9086 -9178.0006 -7429.5571 297.4306 -260.1474 -137.5939 30235.3824 29.6595 92.2046
TCL: Running FEP window  17: Lambda1 0.8000000000000002 Lambda2 0.8500000000000002 [dLambda 0.050000000000000044]
TCL: Setting parameter firsttimestep to 0
TCL: Setting parameter alchLambda to 0.8000000000000002
Info: NONBONDED TABLE R-SQUARED SPACING: 0.0625
Info: NONBONDED TABLE SIZE: 705 POINTS
TCL: Setting parameter alchLambda2 to 0.8500000000000002
Info: NONBONDED TABLE R-SQUARED SPACING: 0.0625
Info: NONBONDED TABLE SIZE: 705 POINTS
TCL: Running for 1500000 steps
ETITLE: TS BOND ANGLE DIHED IMPRP ELECT VDW BOUNDARY MISC KINETIC TOTAL TEMP POTENTIAL TOTALAVG TEMPAVG PRESSURE GPRESSURE VOLUME PRESSAVG GPRESSAVG
ENERGY: 0 0.1281 3.6959 1.6747 0.0000 -10602.9001 1419.4653 0.0000 0.0000 1692.9498 -7484.9863 291.7572 -9177.9361 -7484.9863 291.7572 -221.7876 -127.1723 30235.3824 -221.7876 -127.1723
ENERGY: 300000 0.3366 5.6195 1.7283 0.0000 -10564.7515 1420.0370 0.0000 0.0000 1774.5379 -7362.4922 305.8178 -9137.0301 -7389.5356 303.1149 229.2308 288.0612 29503.1258 -56.6587 -6.8878
ENERGY: 600000 1.6615 2.7215 1.2346 0.0000 -10622.8169 1393.2991 0.0000 0.0000 1722.8369 -7501.0632 296.9079 -9223.9001 -7413.6301 300.0158 -439.2956 -406.4972 30152.9136 -91.7401 -61.2198
ENERGY: 900000 0.4998 3.3744 1.2817 0.0000 -10536.0626 1413.6281 0.0000 0.0000 1750.8430 -7366.4357 301.7343 -9117.2787 -7397.2819 300.1452 251.1423 291.8848 29853.0552 -256.3898 -225.6409
ENERGY: 1200000 0.3559 7.2564 0.7905 0.0000 -10583.4042 1401.7133 0.0000 0.0000 1757.2606 -7416.0276 302.8403 -9173.2882 -7400.1584 300.3877 -148.1426 -115.7044 30054.5931 -257.9348 -218.3740
ENERGY: 1500000 0.4564 5.8323 2.7327 0.0000 -10679.0115 1425.6700 0.0000 0.0000 1713.8888 -7530.4313 295.3658 -9244.3201 -7408.6157 300.6445 -266.0976 -212.4574 29996.6533 -250.2684 -209.1224
TCL: Running FEP window  18: Lambda1 0.8500000000000002 Lambda2 0.9000000000000002 [dLambda 0.050000000000000044]
TCL: Setting parameter firsttimestep to 0
TCL: Setting parameter alchLambda to 0.8500000000000002
Info: NONBONDED TABLE R-SQUARED SPACING: 0.0625
Info: NONBONDED TABLE SIZE: 705 POINTS
TCL: Setting parameter alchLambda2 to 0.9000000000000002
Info: NONBONDED TABLE R-SQUARED SPACING: 0.0625
Info: NONBONDED TABLE SIZE: 705 POINTS
TCL: Running for 1500000 steps
ETITLE: TS BOND ANGLE DIHED IMPRP ELECT VDW BOUNDARY MISC KINETIC TOTAL TEMP POTENTIAL TOTALAVG TEMPAVG PRESSURE GPRESSURE VOLUME PRESSAVG GPRESSAVG
ENERGY: 0 0.4564 5.8323 2.7327 0.0000 -10679.0520 1425.7533 0.0000 0.0000 1713.0173 -7531.2601 295.2156 -9244.2774 -7531.2601 295.2156 -283.0115 -203.9991 29996.6533 -283.0115 -203.9991
ENERGY: 300000 0.7878 4.7035 0.8757 0.0000 -10649.5538 1469.0192 0.0000 0.0000 1690.1331 -7484.0345 291.2718 -9174.1676 -7429.6697 295.9699 399.8600 490.5571 29729.4692 -115.6114 -39.6709
ENERGY: 600000 1.1973 7.6749 0.7190 0.0000 -10517.9280 1441.3799 0.0000 0.0000 1728.4315 -7338.5255 297.8720 -9066.9569 -7396.6064 298.4655 495.0347 557.8449 29773.7454 -29.9435 40.8600
ENERGY: 900000 0.4044 6.9149 2.3897 0.0000 -10472.4629 1378.5682 0.0000 0.0000 1719.5197 -7364.6660 296.3362 -9084.1857 -7391.1436 298.8519 -259.6307 -99.5471 30049.5744 -137.3277 -67.3576
ENERGY: 1200000 0.4638 6.4451 1.0094 0.0000 -10467.0855 1380.7781 0.0000 0.0000 1753.7970 -7324.5921 302.2434 -9078.3890 -7385.2395 299.2008 -353.3988 -259.5111 30503.4253 -52.3232 21.8464
ENERGY: 1500000 0.7015 4.7561 1.4989 0.0000 -10587.6934 1423.1350 0.0000 0.0000 1788.8001 -7368.8019 308.2757 -9157.6020 -7386.7921 300.1624 6.2597 102.2727 29944.4089 -30.5751 38.7347
TCL: Running FEP window  19: Lambda1 0.9000000000000002 Lambda2 0.9500000000000003 [dLambda 0.050000000000000044]
TCL: Setting parameter firsttimestep to 0
TCL: Setting parameter alchLambda to 0.9000000000000002
Info: NONBONDED TABLE R-SQUARED SPACING: 0.0625
Info: NONBONDED TABLE SIZE: 705 POINTS
TCL: Setting parameter alchLambda2 to 0.9500000000000003
Info: NONBONDED TABLE R-SQUARED SPACING: 0.0625
Info: NONBONDED TABLE SIZE: 705 POINTS
TCL: Running for 1500000 steps
ETITLE: TS BOND ANGLE DIHED IMPRP ELECT VDW BOUNDARY MISC KINETIC TOTAL TEMP POTENTIAL TOTALAVG TEMPAVG PRESSURE GPRESSURE VOLUME PRESSAVG GPRESSAVG
ENERGY: 0 0.7015 4.7561 1.4989 0.0000 -10588.0078 1423.6760 0.0000 0.0000 1787.9216 -7369.4537 308.1243 -9157.3753 -7369.4537 308.1243 36.3216 118.6127 29944.4089 36.3216 118.6127
ENERGY: 300000 0.7426 4.1136 0.7965 0.0000 -10447.3528 1348.0588 0.0000 0.0000 1799.9491 -7293.6923 310.1971 -9093.6414 -7350.8138 303.1198 -420.5341 -387.7639 30443.2512 47.9719 124.9477
ENERGY: 600000 0.1981 4.1908 1.3072 0.0000 -10612.4855 1496.6620 0.0000 0.0000 1753.7688 -7356.3586 302.2386 -9110.1274 -7365.2435 300.8457 543.7052 528.2997 30313.5886 6.5125 70.3541
ENERGY: 900000 0.2747 6.2156 0.4981 0.0000 -10551.7507 1381.7844 0.0000 0.0000 1736.8452 -7426.1327 299.3220 -9162.9779 -7381.5402 300.4437 -184.2074 -148.9202 29835.4658 -59.2310 0.7903
ENERGY: 1200000 0.9770 6.8666 0.9964 0.0000 -10476.2025 1372.4059 0.0000 0.0000 1727.8657 -7367.0909 297.7745 -9094.9566 -7389.7856 300.1417 -176.0975 -44.7980 30151.2006 -14.8905 46.9450
ENERGY: 1500000 0.5935 3.5979 1.1812 0.0000 -10477.6467 1434.7235 0.0000 0.0000 1768.1514 -7269.3992 304.7172 -9037.5507 -7384.3490 300.1184 308.5791 386.6479 30379.2665 -45.5238 20.5487
TCL: Running FEP window  20: Lambda1 0.9500000000000003 Lambda2 1.0    [dLambda 0.04999999999999971]
TCL: Setting parameter firsttimestep to 0
TCL: Setting parameter alchLambda to 0.9500000000000003
Info: NONBONDED TABLE R-SQUARED SPACING: 0.0625
Info: NONBONDED TABLE SIZE: 705 POINTS
TCL: Setting parameter alchLambda2 to 1.0
Info: NONBONDED TABLE R-SQUARED SPACING: 0.0625
Info: NONBONDED TABLE SIZE: 705 POINTS
TCL: Running for 1500000 steps
ETITLE: TS BOND ANGLE DIHED IMPRP ELECT VDW BOUNDARY MISC KINETIC TOTAL TEMP POTENTIAL TOTALAVG TEMPAVG PRESSURE GPRESSURE VOLUME PRESSAVG GPRESSAVG
ENERGY: 0 0.5935 3.5979 1.1812 0.0000 -10478.0048 1434.6674 0.0000 0.0000 1767.2788 -7270.6860 304.5668 -9037.9648 -7270.6860 304.5668 304.7548 393.7479 30379.2665 304.7548 393.7479
ENERGY: 300000 0.2968 6.1760 1.0646 0.0000 -10548.1061 1444.8527 0.0000 0.0000 1718.4528 -7377.2631 296.1523 -9095.7159 -7354.6704 302.0512 245.6384 296.0872 30359.0679 225.5657 288.9410
ENERGY: 600000 0.3898 6.6047 0.9281 0.0000 -10492.2219 1321.3996 0.0000 0.0000 1666.8571 -7496.0427 287.2605 -9162.8997 -7378.3902 299.5803 -753.6704 -743.1516 30118.5630 99.2361 164.2220
ENERGY: 900000 0.5531 4.2909 0.5870 0.0000 -10639.2120 1463.3426 0.0000 0.0000 1664.3073 -7506.1312 286.8211 -9170.4384 -7398.1827 298.3384 -118.3167 -5.6119 30376.5785 46.8976 122.1143
ENERGY: 1200000 0.5687 7.4325 1.2241 0.0000 -10646.7059 1463.9308 0.0000 0.0000 1731.8793 -7441.6704 298.4662 -9173.5497 -7398.0135 299.2843 249.8223 306.5035 30048.7266 100.8525 179.4716
ENERGY: 1500000 1.3639 2.7003 1.4521 0.0000 -10640.0192 1469.4359 0.0000 0.0000 1769.3465 -7395.7206 304.9232 -9165.0671 -7401.8081 299.6171 285.7074 294.6408 30160.7525 139.2092 208.8938
TCL: Exiting due to exit command.
