Info: SIMULATION PARAMETERS:
Info: TIMESTEP               2
Info: NUMBER OF STEPS        0
Info: STEPS PER CYCLE        10
Info: PERIODIC CELL BASIS 1  32.6786 0 0
Info: PERIODIC CELL BASIS 2  0 30.1502 0
Info: PERIODIC CELL BASIS 3  0 0 30.3359
Info: PERIODIC CELL CENTER   0 0 0
Info: WRAPPING WATERS AROUND PERIODIC BOUNDARIES ON OUTPUT.
Info: WRAPPING ALL CLUSTERS AROUND PERIODIC BOUNDARIES ON OUTPUT.
Info: FIRST LDB TIMESTEP     50
Info: LAST LDB TIMESTEP     -1
Info: HOM BACKGROUND SCALING 1
Info: PME BACKGROUND SCALING 1
Info: MIN ATOMS PER PATCH    40
Info: EMPTY PATCH LOAD       40 ATOMS
Info: VELOCITY FILE          mobley_4792268_equil.vel
Info: CENTER OF MASS MOVING INITIALLY? NO
Info: DIELECTRIC             1
Info: EXCLUDE                SCALED ONE-FOUR
Info: 1-4 ELECTROSTATICS SCALED BY 0.833333
Info: MODIFIED 1-4 VDW PARAMETERS WILL BE USED
Info: DCD FILENAME           mobley_4792268_prod.dcd
Info: DCD FREQUENCY          100000
Info: DCD FIRST STEP         100000
Info: DCD FILE WILL CONTAIN UNIT CELL DATA
Info: XST FILENAME           mobley_4792268_prod.xst
Info: XST FREQUENCY          100000
Info: NO VELOCITY DCD OUTPUT
Info: NO FORCE DCD OUTPUT
Info: OUTPUT FILENAME        mobley_4792268_prod
Info: BINARY OUTPUT FILES WILL BE USED
Info: RESTART FILENAME       mobley_4792268_prod.restart
Info: RESTART FREQUENCY      100000
Info: BINARY RESTART FILES WILL BE USED
Info: CUTOFF                 9
Info: PAIRLIST DISTANCE      11
Info: PAIRLIST SHRINK RATE   0.01
Info: PAIRLIST GROW RATE     0.01
Info: PAIRLIST TRIGGER       0.3
Info: PAIRLISTS PER CYCLE    2
Info: PAIRLISTS ENABLED
Info: MARGIN                 2
Info: HYDROGEN GROUP CUTOFF  2.5
Info: PATCH DIMENSION        15.5
Info: ENERGY OUTPUT STEPS    100000
Info: ENERGY EVALUATION STEPS    100000
Info: OUTPUT ENERGY PRECISION 4
Info: CROSSTERM ENERGY INCLUDED IN DIHEDRAL
Info: TIMING OUTPUT STEPS    1000000
Info: PRESSURE OUTPUT STEPS  100000
Info: ALCHEMICAL FEP ON
Info: FEP CURRENT LAMBDA VALUE     0
Info: FEP COMPARISON LAMBDA VALUE  0.05
Info: FEP INTRA-ALCHEMICAL NON-BONDED INTERACTIONS WILL BE RETAINED
Info: FEP INTRA-ALCHEMICAL BONDED INTERACTIONS WILL BE RETAINED
Info: FEP VDW SHIFTING COEFFICIENT 5
Info: FEP ELEC. ACTIVE FOR ANNIHILATED PARTICLES BETWEEN LAMBDA = 0 AND LAMBDA = 0.5
Info: FEP ELEC. ACTIVE FOR EXNIHILATED PARTICLES BETWEEN LAMBDA = 0.5 AND LAMBDA = 1
Info: FEP VDW ACTIVE FOR ANNIHILATED PARTICLES BETWEEN LAMBDA = 0 AND LAMBDA = 1
Info: FEP VDW ACTIVE FOR EXNIHILATED PARTICLES BETWEEN LAMBDA = 0 AND LAMBDA = 1
Info: FEP BOND ACTIVE FOR ANNIHILATED PARTICLES BETWEEN LAMBDA = 1 AND LAMBDA = 1
Info: FEP BOND ACTIVE FOR EXNIHILATED PARTICLES BETWEEN LAMBDA = 0 AND LAMBDA = 0
Info: LANGEVIN DYNAMICS ACTIVE
Info: LANGEVIN TEMPERATURE   300
Info: LANGEVIN USING BBK INTEGRATOR
Info: LANGEVIN DAMPING COEFFICIENT IS 1 INVERSE PS
Info: LANGEVIN DYNAMICS APPLIED TO HYDROGENS
Info: LANGEVIN PISTON PRESSURE CONTROL ACTIVE
Info:        TARGET PRESSURE IS 1.01325 BAR
Info:     OSCILLATION PERIOD IS 50 FS
Info:             DECAY TIME IS 25 FS
Info:     PISTON TEMPERATURE IS 300 K
Info:       PRESSURE CONTROL IS GROUP-BASED
Info:    INITIAL STRAIN RATE IS 0.000743169 0.000743169 0.000743169
Info:       CELL FLUCTUATION IS ISOTROPIC
Info: PARTICLE MESH EWALD (PME) ACTIVE
Info: PME TOLERANCE               1e-06
Info: PME EWALD COEFFICIENT       0.348832
Info: PME INTERPOLATION ORDER     4
Info: PME GRID DIMENSIONS         36 32 32
Info: PME MAXIMUM GRID SPACING    1
Info: PME CALCULATION WILL BE PERFORMED ON GPU
Info: FULL ELECTROSTATIC EVALUATION FREQUENCY      2
Info: USING VERLET I (r-RESPA) MTS SCHEME.
Info: C1 SPLITTING OF LONG RANGE ELECTROSTATICS
Info: PLACING ATOMS IN PATCHES BY HYDROGEN GROUPS
Info: RIGID BONDS TO HYDROGEN : ALL
Info:         ERROR TOLERANCE : 1e-08
Info:          MAX ITERATIONS : 100
Info: RIGID WATER USING SETTLE ALGORITHM
Info: RANDOM NUMBER SEED     1743921619
Info: USE HYDROGEN BONDS?    NO
Info: Using AMBER format force field!
Info: AMBER PARM FILE        mobley_4792268.prmtop
Info: COORDINATE PDB         mobley_4792268.pdb
Info: Exclusions will be read from PARM file!
Info: SCNB (VDW SCALING)     2
Info: USING ARITHMETIC MEAN TO COMBINE L-J SIGMA PARAMETERS
Info: BINARY COORDINATES     mobley_4792268_equil.coor
Info: SUMMARY OF PARAMETERS:
Info: 8 BONDS
Info: 9 ANGLES
Info:   9 HARMONIC
Info:   0 COSINE-BASED
Info: 13 DIHEDRAL
Info: 0 IMPROPER
Info: 0 CROSSTERM
Info: 0 VDW
Info: 28 VDW_PAIRS
Info: 0 NBTHOLE_PAIRS
Info: To read alchdata from file: mobley_4792268.pdb
Info: To read alchflag data from column: 5
Info: STRUCTURE SUMMARY:
Info: 2933 ATOMS
Info: 2932 BONDS
Info: 28 ANGLES
Info: 43 DIHEDRALS
Info: 0 IMPROPERS
Info: 0 CROSSTERMS
Info: 2995 EXCLUSIONS
Info: 2926 RIGID BONDS
Info: ALCH: 0 ATOMS TO DISAPPEAR IN FINAL STATE
Info: ALCH: 17 ATOMS TO APPEAR IN FINAL STATE
Info: 5873 DEGREES OF FREEDOM
Info: 979 HYDROGEN GROUPS
Info: 4 ATOMS IN LARGEST HYDROGEN GROUP
Info: 979 MIGRATION GROUPS
Info: 4 ATOMS IN LARGEST MIGRATION GROUP
Info: TOTAL MASS = 17613.7 amu
Info: TOTAL CHARGE = 0.000100005 e
Info: MASS DENSITY = 0.978587 g/cm^3
Info: ATOM DENSITY = 0.0981301 atoms/A^3
Info: ADDED 0 IMPLICIT EXCLUSIONS
Info: NONBONDED TABLE R-SQUARED SPACING: 0.0625
Info: NONBONDED TABLE SIZE: 705 POINTS
Info: REMOVING COM VELOCITY 0.093664 0.161091 0.0879668
Info: Use 3D box decompostion in PME FFT.
Info: Updated CUDA force table with 4096 elements.
Info: Updated CUDA LJ table with 7 x 7 elements.
Info: Found 20 unique exclusion lists needing 48 bytes
TCL: Running for 1500000 steps
ETITLE: TS BOND ANGLE DIHED IMPRP ELECT VDW BOUNDARY MISC KINETIC TOTAL TEMP POTENTIAL TOTALAVG TEMPAVG PRESSURE GPRESSURE VOLUME PRESSAVG GPRESSAVG
ENERGY: 0 2.8255 6.5533 3.8220 0.0000 -10589.5216 1450.3948 0.0000 0.0000 1757.1495 -7368.7763 301.1197 -9125.9258 -7368.7763 301.1197 425.3717 520.1389 29888.8887 425.3717 520.1389
ENERGY: 300000 0.5162 7.9984 4.5998 0.0000 -10438.0293 1341.7894 0.0000 0.0000 1753.6168 -7329.5088 300.5143 -9083.1255 -7386.6903 299.5644 -408.2363 -321.4527 30421.4468 -247.0971 -171.3903
ENERGY: 600000 0.8102 8.3346 3.0534 0.0000 -10737.3728 1460.6057 0.0000 0.0000 1748.5926 -7515.9763 299.6533 -9264.5689 -7432.0695 299.7965 256.0550 335.3525 29645.2963 -47.3318 41.5001
ENERGY: 900000 0.6261 5.2922 3.5620 0.0000 -10713.2511 1483.8401 0.0000 0.0000 1730.7357 -7489.1950 296.5932 -9219.9307 -7454.3606 298.4134 513.2346 513.0495 29922.8399 -79.0760 -5.0841
ENERGY: 1200000 2.9107 5.4672 3.8373 0.0000 -10586.7293 1411.2287 0.0000 0.0000 1772.7626 -7390.5229 303.7952 -9163.2855 -7449.2100 299.5747 30.1362 86.9803 29774.5465 -139.4060 -65.0611
ENERGY: 1500000 3.8352 5.7410 3.5422 0.0000 -10716.5110 1444.3214 0.0000 0.0000 1813.9849 -7445.0863 310.8594 -9259.0712 -7447.7859 300.0241 90.6490 172.5102 29756.9982 -150.7906 -76.7840
TCL: Running FEP window   2: Lambda1 0.05   Lambda2 0.1    [dLambda 0.05  ]
TCL: Setting parameter firsttimestep to 0
TCL: Setting parameter alchLambda to 0.05
Info: NONBONDED TABLE R-SQUARED SPACING: 0.0625
Info: NONBONDED TABLE SIZE: 705 POINTS
TCL: Setting parameter alchLambda2 to 0.1
Info: NONBONDED TABLE R-SQUARED SPACING: 0.0625
Info: NONBONDED TABLE SIZE: 705 POINTS
TCL: Running for 1500000 steps
ETITLE: TS BOND ANGLE DIHED IMPRP ELECT VDW BOUNDARY MISC KINETIC TOTAL TEMP POTENTIAL TOTALAVG TEMPAVG PRESSURE GPRESSURE VOLUME PRESSAVG GPRESSAVG
ENERGY: 0 3.8352 5.7410 3.5422 0.0000 -10716.5105 1447.3314 0.0000 0.0000 1813.1214 -7442.9393 310.7114 -9256.0606 -7442.9393 310.7114 87.3504 179.0309 29756.9982 87.3504 179.0309
ENERGY: 300000 4.8253 10.9701 3.6686 0.0000 -10726.5878 1425.9958 0.0000 0.0000 1743.8573 -7537.2707 298.8418 -9281.1280 -7449.8326 304.7934 -6.4537 3.1202 29800.3947 386.5809 422.5552
ENERGY: 600000 2.0493 6.5880 3.4690 0.0000 -10592.3008 1375.5025 0.0000 0.0000 1763.5993 -7441.0926 302.2249 -9204.6919 -7451.5607 303.2562 -418.4211 -440.8094 30232.3343 172.5898 210.2987
ENERGY: 900000 1.9501 9.6752 2.9512 0.0000 -10531.7837 1370.0903 0.0000 0.0000 1711.4867 -7435.6302 293.2945 -9147.1169 -7445.9598 301.0161 -697.6757 -691.4308 30522.4699 -68.1572 -20.6977
ENERGY: 1200000 1.0400 12.4288 5.5648 0.0000 -10635.9434 1422.8166 0.0000 0.0000 1752.0153 -7442.0778 300.2398 -9194.0931 -7438.1544 301.9172 97.2328 148.9468 29645.5223 -45.8272 3.5975
ENERGY: 1500000 1.6530 9.5735 6.3818 0.0000 -10565.6390 1406.2867 0.0000 0.0000 1763.4047 -7378.3393 302.1916 -9141.7440 -7438.5102 301.5044 -9.8249 32.0638 30172.1924 -28.0425 21.3310
TCL: Running FEP window   3: Lambda1 0.1    Lambda2 0.15000000000000002 [dLambda 0.05000000000000002]
TCL: Setting parameter firsttimestep to 0
TCL: Setting parameter alchLambda to 0.1
Info: NONBONDED TABLE R-SQUARED SPACING: 0.0625
Info: NONBONDED TABLE SIZE: 705 POINTS
TCL: Setting parameter alchLambda2 to 0.15000000000000002
Info: NONBONDED TABLE R-SQUARED SPACING: 0.0625
Info: NONBONDED TABLE SIZE: 705 POINTS
TCL: Running for 1500000 steps
ETITLE: TS BOND ANGLE DIHED IMPRP ELECT VDW BOUNDARY MISC KINETIC TOTAL TEMP POTENTIAL TOTALAVG TEMPAVG PRESSURE GPRESSURE VOLUME PRESSAVG GPRESSAVG
ENERGY: 0 1.6530 9.5735 6.3818 0.0000 -10565.6406 1408.1361 0.0000 0.0000 1762.5629 -7377.3333 302.0473 -9139.8962 -7377.3333 302.0473 -21.8469 37.1710 30172.1924 -21.8469 37.1710
ENERGY: 300000 1.7844 4.7570 3.3049 0.0000 -10562.3796 1382.0214 0.0000 0.0000 1734.4078 -7436.1041 297.2224 -9170.5119 -7440.6964 297.6958 -249.9490 -219.3248 30091.0304 -415.4564 -346.9558
ENERGY: 600000 0.8165 12.8805 2.2245 0.0000 -10607.8733 1448.9660 0.0000 0.0000 1759.1554 -7383.8303 301.4634 -9142.9857 -7470.5254 296.8309 312.7115 409.1154 30297.9192 -149.5466 -82.7958
ENERGY: 900000 0.9301 9.9223 3.3921 0.0000 -10794.9728 1512.8797 0.0000 0.0000 1764.8114 -7503.0372 302.4327 -9267.8486 -7472.9826 299.4096 508.6744 666.2475 29712.0007 -165.5795 -92.4934
ENERGY: 1200000 4.2053 7.4126 3.6499 0.0000 -10730.3328 1570.1581 0.0000 0.0000 1791.4761 -7353.4309 307.0021 -9144.9070 -7466.8175 299.8842 1309.4891 1402.3006 30071.8959 -23.1402 49.7828
ENERGY: 1500000 2.1761 6.3253 3.8333 0.0000 -10703.4249 1400.3306 0.0000 0.0000 1712.0463 -7578.7133 293.3904 -9290.7596 -7462.3584 300.1977 -357.2627 -349.7424 29618.5088 -84.8762 -25.5019
TCL: Running FEP window   4: Lambda1 0.15000000000000002 Lambda2 0.2    [dLambda 0.04999999999999999]
TCL: Setting parameter firsttimestep to 0
TCL: Setting parameter alchLambda to 0.15000000000000002
Info: NONBONDED TABLE R-SQUARED SPACING: 0.0625
Info: NONBONDED TABLE SIZE: 705 POINTS
TCL: Setting parameter alchLambda2 to 0.2
Info: NONBONDED TABLE R-SQUARED SPACING: 0.0625
Info: NONBONDED TABLE SIZE: 705 POINTS
TCL: Running for 1500000 steps
ETITLE: TS BOND ANGLE DIHED IMPRP ELECT VDW BOUNDARY MISC KINETIC TOTAL TEMP POTENTIAL TOTALAVG TEMPAVG PRESSURE GPRESSURE VOLUME PRESSAVG GPRESSAVG
ENERGY: 0 2.1761 6.3253 3.8333 0.0000 -10703.4239 1401.7441 0.0000 0.0000 1711.1784 -7578.1667 293.2417 -9289.3451 -7578.1667 293.2417 -428.8630 -342.1976 29618.5088 -428.8630 -342.1976
ENERGY: 300000 1.2312 5.3833 3.3653 0.0000 -10537.9371 1334.6662 0.0000 0.0000 1740.6687 -7452.6223 298.2954 -9193.2910 -7496.8355 297.6206 -807.8620 -779.6900 30313.4405 -177.5103 -121.2151
ENERGY: 600000 1.9870 7.0441 3.0503 0.0000 -10655.9252 1427.3450 0.0000 0.0000 1746.5955 -7469.9032 299.3110 -9216.4988 -7481.1268 299.4623 -300.6876 -206.2715 30503.9386 -328.6913 -264.0798
ENERGY: 900000 1.2148 5.5554 4.9306 0.0000 -10705.3036 1481.9167 0.0000 0.0000 1755.9881 -7455.6980 300.9206 -9211.6861 -7476.7227 298.4872 575.5933 680.4733 29697.0357 -100.0182 -35.1660
ENERGY: 1200000 3.7105 6.4918 3.6245 0.0000 -10581.7081 1370.4352 0.0000 0.0000 1754.4246 -7443.0216 300.6527 -9197.4462 -7463.1853 300.2969 -475.3526 -356.5961 30095.9100 -54.2972 13.6081
ENERGY: 1500000 1.2170 9.9537 4.4903 0.0000 -10663.1692 1404.9600 0.0000 0.0000 1732.1464 -7510.4019 296.8349 -9242.5482 -7463.6517 299.9737 -498.5569 -380.7971 29928.7632 -77.2856 -10.1417
TCL: Running FEP window   5: Lambda1 0.2    Lambda2 0.25   [dLambda 0.04999999999999999]
TCL: Setting parameter firsttimestep to 0
TCL: Setting parameter alchLambda to 0.2
Info: NONBONDED TABLE R-SQUARED SPACING: 0.0625
Info: NONBONDED TABLE SIZE: 705 POINTS
TCL: Setting parameter alchLambda2 to 0.25
Info: NONBONDED TABLE R-SQUARED SPACING: 0.0625
Info: NONBONDED TABLE SIZE: 705 POINTS
TCL: Running for 1500000 steps
ETITLE: TS BOND ANGLE DIHED IMPRP ELECT VDW BOUNDARY MISC KINETIC TOTAL TEMP POTENTIAL TOTALAVG TEMPAVG PRESSURE GPRESSURE VOLUME PRESSAVG GPRESSAVG
ENERGY: 0 1.2170 9.9537 4.4903 0.0000 -10663.1690 1406.0894 0.0000 0.0000 1731.2953 -7510.1233 296.6891 -9241.4186 -7510.1233 296.6891 -467.5957 -373.1775 29928.7632 -467.5957 -373.1775
ENERGY: 300000 1.2112 8.7637 4.4631 0.0000 -10696.0977 1490.1428 0.0000 0.0000 1788.3417 -7403.1753 306.4650 -9191.5170 -7444.8419 300.4159 618.0967 651.3948 29990.2984 -119.5641 -58.1290
ENERGY: 600000 3.8809 12.2650 6.1767 0.0000 -10738.9368 1477.0902 0.0000 0.0000 1757.2649 -7482.2592 301.1394 -9239.5241 -7449.3990 300.7481 298.4510 434.4761 29807.0599 -38.0399 39.0691
ENERGY: 900000 1.4151 5.3196 1.6891 0.0000 -10682.0840 1465.8673 0.0000 0.0000 1748.3829 -7459.4100 299.6173 -9207.7929 -7444.1213 300.9050 155.9581 224.4980 30160.5685 -13.7802 56.9983
ENERGY: 1200000 2.4211 6.6306 5.0131 0.0000 -10602.7393 1473.7129 0.0000 0.0000 1773.3065 -7341.6551 303.8885 -9114.9617 -7449.8263 300.6155 917.0282 836.1750 30148.7727 55.7946 108.7663
ENERGY: 1500000 2.0661 8.7722 3.9604 0.0000 -10620.6834 1429.6502 0.0000 0.0000 1760.5985 -7415.6361 301.7107 -9176.2346 -7444.4410 300.8552 -262.6828 -188.7773 30775.7067 24.3283 78.9300
TCL: Running FEP window   6: Lambda1 0.25   Lambda2 0.3    [dLambda 0.04999999999999999]
TCL: Setting parameter firsttimestep to 0
TCL: Setting parameter alchLambda to 0.25
Info: NONBONDED TABLE R-SQUARED SPACING: 0.0625
Info: NONBONDED TABLE SIZE: 705 POINTS
TCL: Setting parameter alchLambda2 to 0.3
Info: NONBONDED TABLE R-SQUARED SPACING: 0.0625
Info: NONBONDED TABLE SIZE: 705 POINTS
TCL: Running for 1500000 steps
ETITLE: TS BOND ANGLE DIHED IMPRP ELECT VDW BOUNDARY MISC KINETIC TOTAL TEMP POTENTIAL TOTALAVG TEMPAVG PRESSURE GPRESSURE VOLUME PRESSAVG GPRESSAVG
ENERGY: 0 2.0661 8.7722 3.9604 0.0000 -10620.6823 1430.2561 0.0000 0.0000 1759.7494 -7415.8782 301.5652 -9175.6276 -7415.8782 301.5652 -271.3225 -183.1107 30775.7067 -271.3225 -183.1107
ENERGY: 300000 2.3802 8.4825 3.1617 0.0000 -10695.7378 1455.5919 0.0000 0.0000 1716.7374 -7509.3841 294.1943 -9226.1215 -7458.5610 299.7450 333.7495 406.3575 29408.4635 438.4680 530.6127
ENERGY: 600000 2.6162 6.2273 2.8292 0.0000 -10556.4547 1352.5246 0.0000 0.0000 1726.0493 -7466.2081 295.7901 -9192.2574 -7460.8251 300.5903 -585.0442 -492.7929 30002.4018 101.8917 181.1675
ENERGY: 900000 2.3540 9.4932 3.7182 0.0000 -10812.3034 1572.8548 0.0000 0.0000 1723.4705 -7500.4127 295.3481 -9223.8832 -7456.3451 300.4155 843.4574 966.5206 29818.8905 215.7729 296.1125
ENERGY: 1200000 1.5913 9.6564 2.9154 0.0000 -10703.4134 1497.4968 0.0000 0.0000 1762.0336 -7429.7198 301.9566 -9191.7535 -7448.6696 301.0027 550.9947 581.7086 30088.1480 214.5605 295.7882
ENERGY: 1500000 0.3770 6.0629 3.0455 0.0000 -10594.4218 1417.5566 0.0000 0.0000 1753.9246 -7413.4551 300.5670 -9167.3798 -7448.8718 300.9725 -311.8530 -265.6976 30612.8877 78.8352 159.4125
TCL: Running FEP window   7: Lambda1 0.3    Lambda2 0.35   [dLambda 0.04999999999999999]
TCL: Setting parameter firsttimestep to 0
TCL: Setting parameter alchLambda to 0.3
Info: NONBONDED TABLE R-SQUARED SPACING: 0.0625
Info: NONBONDED TABLE SIZE: 705 POINTS
TCL: Setting parameter alchLambda2 to 0.35
Info: NONBONDED TABLE R-SQUARED SPACING: 0.0625
Info: NONBONDED TABLE SIZE: 705 POINTS
TCL: Running for 1500000 steps
ETITLE: TS BOND ANGLE DIHED IMPRP ELECT VDW BOUNDARY MISC KINETIC TOTAL TEMP POTENTIAL TOTALAVG TEMPAVG PRESSURE GPRESSURE VOLUME PRESSAVG GPRESSAVG
ENERGY: 0 0.3770 6.0629 3.0455 0.0000 -10594.4215 1417.9096 0.0000 0.0000 1753.0687 -7413.9578 300.4203 -9167.0265 -7413.9578 300.4203 -345.8970 -260.4099 30612.8877 -345.8970 -260.4099
ENERGY: 300000 3.3089 9.3059 2.3425 0.0000 -10575.7577 1394.9882 0.0000 0.0000 1776.3011 -7389.5111 304.4016 -9165.8122 -7406.5140 303.2000 -312.0409 -251.7632 30485.9677 -237.4092 -152.9404
ENERGY: 600000 0.7890 6.9965 6.8210 0.0000 -10590.5058 1424.7242 0.0000 0.0000 1721.7990 -7429.3761 295.0617 -9151.1751 -7386.1253 302.6522 -326.1058 -236.9225 30655.4773 -354.9021 -272.0621
ENERGY: 900000 2.3772 5.4288 6.7051 0.0000 -10638.1332 1412.5510 0.0000 0.0000 1776.5246 -7434.5465 304.4399 -9211.0711 -7397.0763 301.5312 -84.6882 -104.3788 30333.8163 -291.3666 -229.6950
ENERGY: 1200000 0.5325 6.0960 7.8061 0.0000 -10677.8040 1435.6795 0.0000 0.0000 1724.3994 -7503.2905 295.5073 -9227.6899 -7415.8838 300.6506 188.5753 221.4098 29837.4304 -196.1628 -129.8702
ENERGY: 1500000 0.3399 5.6114 9.4898 0.0000 -10586.0411 1368.3172 0.0000 0.0000 1714.4272 -7487.8557 293.7984 -9202.2829 -7427.9476 299.7474 -510.4374 -386.0574 30137.3257 -222.3469 -154.4436
TCL: Running FEP window   8: Lambda1 0.35   Lambda2 0.39999999999999997 [dLambda 0.04999999999999999]
TCL: Setting parameter firsttimestep to 0
TCL: Setting parameter alchLambda to 0.35
Info: NONBONDED TABLE R-SQUARED SPACING: 0.0625
Info: NONBONDED TABLE SIZE: 705 POINTS
TCL: Setting parameter alchLambda2 to 0.39999999999999997
Info: NONBONDED TABLE R-SQUARED SPACING: 0.0625
Info: NONBONDED TABLE SIZE: 705 POINTS
TCL: Running for 1500000 steps
ETITLE: TS BOND ANGLE DIHED IMPRP ELECT VDW BOUNDARY MISC KINETIC TOTAL TEMP POTENTIAL TOTALAVG TEMPAVG PRESSURE GPRESSURE VOLUME PRESSAVG GPRESSAVG
ENERGY: 0 0.3399 5.6114 9.4898 0.0000 -10586.0412 1369.0367 0.0000 0.0000 1713.5731 -7487.9903 293.6520 -9201.5634 -7487.9903 293.6520 -469.5161 -376.8687 30137.3257 -469.5161 -376.8687
ENERGY: 300000 1.8604 7.6696 7.6173 0.0000 -10682.2671 1449.1200 0.0000 0.0000 1743.7717 -7472.2281 298.8271 -9215.9998 -7473.8356 299.4368 47.2668 129.0654 30027.7857 -457.9270 -370.2453
ENERGY: 600000 1.2298 5.5636 6.0317 0.0000 -10542.9164 1394.3235 0.0000 0.0000 1778.9677 -7356.8002 304.8586 -9135.7679 -7448.0445 301.5981 -67.2641 29.4687 30116.9316 -206.0535 -127.8581
ENERGY: 900000 2.7502 8.2571 10.0782 0.0000 -10568.0307 1415.7507 0.0000 0.0000 1793.7403 -7337.4543 307.3901 -9131.1945 -7449.8366 301.2712 -131.4310 -60.1003 30464.8047 -148.9342 -71.8563
ENERGY: 1200000 1.3425 11.1436 8.1299 0.0000 -10440.2343 1307.8964 0.0000 0.0000 1717.1891 -7394.5327 294.2717 -9111.7218 -7451.5495 300.5462 -630.4450 -585.1403 29981.1039 -290.6980 -208.8331
ENERGY: 1500000 4.6180 8.4892 8.7896 0.0000 -10719.1894 1495.5847 0.0000 0.0000 1793.5796 -7408.1284 307.3626 -9201.7080 -7448.4665 301.2987 515.0124 509.7271 30124.1385 -223.3827 -149.6387
TCL: Running FEP window   9: Lambda1 0.39999999999999997 Lambda2 0.44999999999999996 [dLambda 0.04999999999999999]
TCL: Setting parameter firsttimestep to 0
TCL: Setting parameter alchLambda to 0.39999999999999997
Info: NONBONDED TABLE R-SQUARED SPACING: 0.0625
Info: NONBONDED TABLE SIZE: 705 POINTS
TCL: Setting parameter alchLambda2 to 0.44999999999999996
Info: NONBONDED TABLE R-SQUARED SPACING: 0.0625
Info: NONBONDED TABLE SIZE: 705 POINTS
TCL: Running for 1500000 steps
ETITLE: TS BOND ANGLE DIHED IMPRP ELECT VDW BOUNDARY MISC KINETIC TOTAL TEMP POTENTIAL TOTALAVG TEMPAVG PRESSURE GPRESSURE VOLUME PRESSAVG GPRESSAVG
ENERGY: 0 4.6180 8.4892 8.7896 0.0000 -10719.1907 1495.5326 0.0000 0.0000 1792.7253 -7409.0361 307.2162 -9201.7613 -7409.0361 307.2162 439.3876 514.2285 30124.1385 439.3876 514.2285
ENERGY: 300000 0.8532 5.8991 5.8210 0.0000 -10561.7531 1387.2290 0.0000 0.0000 1732.5909 -7429.3599 296.9111 -9161.9508 -7449.3826 300.7600 -339.7905 -273.5645 30429.8460 196.3319 271.8467
ENERGY: 600000 4.9069 6.4996 7.1073 0.0000 -10727.1086 1460.9547 0.0000 0.0000 1808.8584 -7438.7818 309.9809 -9247.6402 -7451.2940 301.9523 306.2385 302.1811 29890.1055 162.8141 219.5410
ENERGY: 900000 1.5366 5.2748 6.9866 0.0000 -10804.5436 1481.3834 0.0000 0.0000 1772.4417 -7536.9205 303.7402 -9309.3622 -7453.9109 302.1465 283.9257 361.4999 29745.6255 62.2637 124.5475
ENERGY: 1200000 2.4607 8.3157 6.4993 0.0000 -10623.8626 1409.0312 0.0000 0.0000 1747.0106 -7450.5451 299.3822 -9197.5557 -7444.6646 302.3690 -192.7717 -123.5541 30205.8175 103.5573 158.4742
ENERGY: 1500000 2.1630 8.4807 6.7941 0.0000 -10553.6823 1322.5330 0.0000 0.0000 1770.2396 -7443.4719 303.3629 -9213.7116 -7453.5591 301.7829 -783.6294 -730.0986 30072.0570 37.8643 92.8535
TCL: Running FEP window  10: Lambda1 0.44999999999999996 Lambda2 0.49999999999999994 [dLambda 0.04999999999999999]
TCL: Setting parameter firsttimestep to 0
TCL: Setting parameter alchLambda to 0.44999999999999996
Info: NONBONDED TABLE R-SQUARED SPACING: 0.0625
Info: NONBONDED TABLE SIZE: 705 POINTS
TCL: Setting parameter alchLambda2 to 0.49999999999999994
Info: NONBONDED TABLE R-SQUARED SPACING: 0.0625
Info: NONBONDED TABLE SIZE: 705 POINTS
TCL: Running for 1500000 steps
ETITLE: TS BOND ANGLE DIHED IMPRP ELECT VDW BOUNDARY MISC KINETIC TOTAL TEMP POTENTIAL TOTALAVG TEMPAVG PRESSURE GPRESSURE VOLUME PRESSAVG GPRESSAVG
ENERGY: 0 2.1630 8.4807 6.7941 0.0000 -10553.6831 1322.5976 0.0000 0.0000 1769.3654 -7444.2824 303.2131 -9213.6478 -7444.2824 303.2131 -802.0099 -723.3048 30072.0570 -802.0099 -723.3048
ENERGY: 300000 0.4949 6.2871 7.7297 0.0000 -10567.3230 1341.0264 0.0000 0.0000 1685.3045 -7526.4803 288.8077 -9211.7849 -7486.3085 296.2274 -772.4958 -631.6133 30036.8948 -350.0107 -267.3456
ENERGY: 600000 2.7661 10.2609 6.3997 0.0000 -10536.7546 1340.1855 0.0000 0.0000 1722.1933 -7454.9489 295.1293 -9177.1423 -7453.9163 299.4414 -919.4745 -838.2434 30350.6816 -351.9935 -285.1088
ENERGY: 900000 0.7974 16.2501 7.2515 0.0000 -10671.4384 1441.8958 0.0000 0.0000 1733.7236 -7471.5201 297.1052 -9205.2437 -7459.9967 299.4224 166.7801 259.5796 29981.7884 -202.1970 -143.4801
ENERGY: 1200000 2.6786 9.5409 7.1148 0.0000 -10580.1638 1440.1723 0.0000 0.0000 1807.5673 -7313.0899 309.7597 -9120.6572 -7438.4265 301.0906 433.2660 489.2491 29782.1520 -132.0038 -64.6736
ENERGY: 1500000 2.7154 10.2686 7.3662 0.0000 -10582.8767 1371.6255 0.0000 0.0000 1739.3157 -7451.5853 298.0635 -9190.9011 -7440.0714 300.7401 -123.3906 -96.5248 29937.3959 -102.9545 -43.1702
TCL: Running FEP window  11: Lambda1 0.49999999999999994 Lambda2 0.5499999999999999 [dLambda 0.04999999999999999]
TCL: Setting parameter firsttimestep to 0
TCL: Setting parameter alchLambda to 0.49999999999999994
Info: NONBONDED TABLE R-SQUARED SPACING: 0.0625
Info: NONBONDED TABLE SIZE: 705 POINTS
TCL: Setting parameter alchLambda2 to 0.5499999999999999
Info: NONBONDED TABLE R-SQUARED SPACING: 0.0625
Info: NONBONDED TABLE SIZE: 705 POINTS
TCL: Running for 1500000 steps
ETITLE: TS BOND ANGLE DIHED IMPRP ELECT VDW BOUNDARY MISC KINETIC TOTAL TEMP POTENTIAL TOTALAVG TEMPAVG PRESSURE GPRESSURE VOLUME PRESSAVG GPRESSAVG
ENERGY: 0 2.7154 10.2686 7.3662 0.0000 -10582.8779 1371.3739 0.0000 0.0000 1738.4546 -7452.6992 297.9159 -9191.1539 -7452.6992 297.9159 -172.8568 -91.8819 29937.3959 -172.8568 -91.8819
ENERGY: 300000 1.2215 7.8546 7.0573 0.0000 -10787.8350 1509.0279 0.0000 0.0000 1777.5820 -7485.0915 304.6211 -9262.6735 -7461.0118 299.7200 659.7282 726.9345 29830.7061 183.7346 264.4201
ENERGY: 600000 1.6846 4.7738 9.2713 0.0000 -10701.2604 1470.5252 0.0000 0.0000 1794.6585 -7420.3472 307.5475 -9215.0056 -7468.4893 300.3903 448.9253 492.0192 29907.2363 132.4057 209.1023
ENERGY: 900000 2.4901 9.1901 7.3852 0.0000 -10764.5951 1508.5472 0.0000 0.0000 1767.1030 -7469.8796 302.8254 -9236.9826 -7468.9268 299.5268 248.5065 311.6814 30393.4982 71.5691 136.7734
ENERGY: 1200000 0.9054 5.7672 6.4363 0.0000 -10609.4551 1397.3538 0.0000 0.0000 1754.3206 -7444.6718 300.6349 -9198.9925 -7465.0188 299.1119 -318.0519 -275.7891 30185.9497 -13.9391 40.2409
ENERGY: 1500000 1.2935 9.5843 7.9154 0.0000 -10762.2354 1513.1992 0.0000 0.0000 1787.3785 -7442.8646 306.2999 -9230.2430 -7464.1620 299.7717 704.6713 701.1527 29951.6226 4.4761 59.6736
TCL: Running FEP window  12: Lambda1 0.5499999999999999 Lambda2 0.6    [dLambda 0.050000000000000044]
TCL: Setting parameter firsttimestep to 0
TCL: Setting parameter alchLambda to 0.5499999999999999
Info: NONBONDED TABLE R-SQUARED SPACING: 0.0625
Info: NONBONDED TABLE SIZE: 705 POINTS
TCL: Setting parameter alchLambda2 to 0.6
Info: NONBONDED TABLE R-SQUARED SPACING: 0.0625
Info: NONBONDED TABLE SIZE: 705 POINTS
TCL: Running for 1500000 steps
ETITLE: TS BOND ANGLE DIHED IMPRP ELECT VDW BOUNDARY MISC KINETIC TOTAL TEMP POTENTIAL TOTALAVG TEMPAVG PRESSURE GPRESSURE VOLUME PRESSAVG GPRESSAVG
ENERGY: 0 1.2934 9.5843 7.9154 0.0000 -10762.8593 1513.4212 0.0000 0.0000 1786.5333 -7444.1116 306.1551 -9230.6449 -7444.1116 306.1551 632.6129 711.9596 29951.6226 632.6129 711.9596
ENERGY: 300000 1.5518 11.6714 6.6439 0.0000 -10588.9738 1382.2977 0.0000 0.0000 1739.2541 -7447.5549 298.0529 -9186.8090 -7459.2269 300.6684 -283.0321 -206.9633 30101.8231 638.2713 701.3109
ENERGY: 600000 1.3471 5.7957 10.1655 0.0000 -10668.3245 1432.7731 0.0000 0.0000 1783.1005 -7435.1427 305.5668 -9218.2432 -7463.3115 301.6035 -172.4581 -143.6027 30555.7550 285.5564 337.3033
ENERGY: 900000 2.6319 6.6452 7.2173 0.0000 -10609.3212 1422.0737 0.0000 0.0000 1793.2364 -7377.5167 307.3038 -9170.7531 -7451.6772 303.1255 189.1494 215.3873 30228.8267 256.5990 306.3873
ENERGY: 1200000 3.1634 8.9655 5.8879 0.0000 -10602.5738 1333.8320 0.0000 0.0000 1755.3931 -7495.3319 300.8187 -9250.7250 -7461.7063 302.5201 -1131.4366 -1037.5673 30618.4189 114.0231 173.8141
ENERGY: 1500000 0.6239 7.0487 6.9646 0.0000 -10831.8878 1558.2851 0.0000 0.0000 1749.3849 -7509.5806 299.7890 -9258.9655 -7463.0836 302.1186 1027.4158 1099.1843 29736.9317 111.1280 171.0075
TCL: Running FEP window  13: Lambda1 0.6    Lambda2 0.65   [dLambda 0.050000000000000044]
TCL: Setting parameter firsttimestep to 0
TCL: Setting parameter alchLambda to 0.6
Info: NONBONDED TABLE R-SQUARED SPACING: 0.0625
Info: NONBONDED TABLE SIZE: 705 POINTS
TCL: Setting parameter alchLambda2 to 0.65
Info: NONBONDED TABLE R-SQUARED SPACING: 0.0625
Info: NONBONDED TABLE SIZE: 705 POINTS
TCL: Running for 1500000 steps
ETITLE: TS BOND ANGLE DIHED IMPRP ELECT VDW BOUNDARY MISC KINETIC TOTAL TEMP POTENTIAL TOTALAVG TEMPAVG PRESSURE GPRESSURE VOLUME PRESSAVG GPRESSAVG
ENERGY: 0 0.6239 7.0487 6.9646 0.0000 -10832.5678 1558.1125 0.0000 0.0000 1748.4853 -7511.3327 299.6349 -9259.8181 -7511.3327 299.6349 1015.5059 1103.4912 29736.9317 1015.5059 1103.4912
ENERGY: 300000 4.2650 7.1663 6.9023 0.0000 -10776.2562 1420.8914 0.0000 0.0000 1700.3484 -7636.6828 291.3857 -9337.0312 -7467.5602 300.8757 -235.9143 -171.3690 29648.8575 -79.0279 2.5196
ENERGY: 600000 1.2720 4.0247 6.0291 0.0000 -10822.7822 1473.8274 0.0000 0.0000 1736.5238 -7601.1052 297.5851 -9337.6290 -7490.6274 300.0909 -75.7704 -11.3523 30098.9257 -170.9622 -110.6853
ENERGY: 900000 2.4771 4.9103 7.1111 0.0000 -10686.1377 1424.7174 0.0000 0.0000 1775.5354 -7471.3865 304.2704 -9246.9219 -7480.8054 300.3413 -80.6272 -68.6509 30193.1236 -80.9338 -31.8517
ENERGY: 1200000 1.1718 9.9950 7.6628 0.0000 -10577.8346 1412.8628 0.0000 0.0000 1760.2447 -7385.8975 301.6501 -9146.1422 -7458.2601 301.5476 218.6340 335.6411 29867.0748 -119.9234 -67.7825
ENERGY: 1500000 2.5256 14.6397 6.1026 0.0000 -10534.4790 1371.9703 0.0000 0.0000 1736.4481 -7402.7926 297.5721 -9139.2407 -7457.7108 300.2841 -197.1793 -165.5810 30177.7614 -125.2766 -79.8922
TCL: Running FEP window  14: Lambda1 0.65   Lambda2 0.7000000000000001 [dLambda 0.050000000000000044]
TCL: Setting parameter firsttimestep to 0
TCL: Setting parameter alchLambda to 0.65
Info: NONBONDED TABLE R-SQUARED SPACING: 0.0625
Info: NONBONDED TABLE SIZE: 705 POINTS
TCL: Setting parameter alchLambda2 to 0.7000000000000001
Info: NONBONDED TABLE R-SQUARED SPACING: 0.0625
Info: NONBONDED TABLE SIZE: 705 POINTS
TCL: Running for 1500000 steps
ETITLE: TS BOND ANGLE DIHED IMPRP ELECT VDW BOUNDARY MISC KINETIC TOTAL TEMP POTENTIAL TOTALAVG TEMPAVG PRESSURE GPRESSURE VOLUME PRESSAVG GPRESSAVG
ENERGY: 0 2.5256 14.6397 6.1026 0.0000 -10534.9048 1371.7879 0.0000 0.0000 1735.5817 -7404.2671 297.4236 -9139.8489 -7404.2671 297.4236 -229.0398 -156.2065 30177.7614 -229.0398 -156.2065
ENERGY: 300000 1.2454 9.5715 5.5773 0.0000 -10640.1738 1412.1410 0.0000 0.0000 1773.7523 -7437.8864 303.9648 -9211.6387 -7433.5881 301.4115 -410.6066 -338.8143 30598.7087 -282.1588 -200.2420
ENERGY: 600000 1.8340 7.3581 6.5265 0.0000 -10702.1368 1399.5708 0.0000 0.0000 1722.1236 -7564.7237 295.1173 -9286.8473 -7456.3124 300.2612 -210.0841 -70.5588 29523.6362 -73.9727 13.1905
ENERGY: 900000 1.8963 6.4614 6.3503 0.0000 -10580.7290 1354.9783 0.0000 0.0000 1722.4565 -7488.5861 295.1744 -9211.0426 -7462.7405 299.9543 -350.0742 -315.6975 30185.9343 -110.3633 -40.8895
ENERGY: 1200000 2.3615 5.5568 7.3267 0.0000 -10608.9060 1374.9949 0.0000 0.0000 1774.8509 -7443.8152 304.1531 -9218.6660 -7461.2823 300.1331 -426.6639 -398.2330 30356.1974 -132.3401 -69.0133
ENERGY: 1500000 1.7803 11.8428 6.1687 0.0000 -10668.6000 1442.5918 0.0000 0.0000 1759.2337 -7446.9827 301.4768 -9206.2164 -7455.5112 300.2051 108.7424 121.1014 30351.2724 -91.1223 -33.5978
TCL: Running FEP window  15: Lambda1 0.7000000000000001 Lambda2 0.7500000000000001 [dLambda 0.050000000000000044]
TCL: Setting parameter firsttimestep to 0
TCL: Setting parameter alchLambda to 0.7000000000000001
Info: NONBONDED TABLE R-SQUARED SPACING: 0.0625
Info: NONBONDED TABLE SIZE: 705 POINTS
TCL: Setting parameter alchLambda2 to 0.7500000000000001
Info: NONBONDED TABLE R-SQUARED SPACING: 0.0625
Info: NONBONDED TABLE SIZE: 705 POINTS
TCL: Running for 1500000 steps
ETITLE: TS BOND ANGLE DIHED IMPRP ELECT VDW BOUNDARY MISC KINETIC TOTAL TEMP POTENTIAL TOTALAVG TEMPAVG PRESSURE GPRESSURE VOLUME PRESSAVG GPRESSAVG
ENERGY: 0 1.7803 11.8428 6.1687 0.0000 -10669.0719 1442.0171 0.0000 0.0000 1758.3748 -7448.8882 301.3296 -9207.2631 -7448.8882 301.3296 39.3175 122.1851 30351.2724 39.3175 122.1851
ENERGY: 300000 0.4698 6.2663 9.5978 0.0000 -10567.9841 1348.7286 0.0000 0.0000 1700.0998 -7502.8217 291.3431 -9202.9215 -7494.5707 296.8459 -751.7224 -672.3318 30495.4427 -205.1990 -121.2256
ENERGY: 600000 1.1376 7.1794 7.5237 0.0000 -10646.7422 1453.6220 0.0000 0.0000 1784.2164 -7393.0631 305.7581 -9177.2795 -7445.8012 299.7084 287.7040 358.4559 30013.8637 -48.3211 26.9416
ENERGY: 900000 0.9639 4.5492 7.6473 0.0000 -10473.1811 1242.9959 0.0000 0.0000 1710.4342 -7506.5906 293.1141 -9217.0248 -7443.9299 299.2257 -1716.1569 -1696.9985 30708.3408 -105.8567 -41.4366
ENERGY: 1200000 1.8034 5.7146 7.0604 0.0000 -10600.8462 1307.1186 0.0000 0.0000 1739.6569 -7539.4924 298.1220 -9279.1493 -7449.7194 299.3895 -1094.2387 -1045.8253 30189.7787 -92.9622 -31.9350
ENERGY: 1500000 3.2202 4.7824 6.7619 0.0000 -10657.9733 1475.5606 0.0000 0.0000 1760.2681 -7407.3800 301.6541 -9167.6481 -7454.3215 299.5784 262.4143 258.3157 30509.6486 13.4255 70.0301
TCL: Running FEP window  16: Lambda1 0.7500000000000001 Lambda2 0.8000000000000002 [dLambda 0.050000000000000044]
TCL: Setting parameter firsttimestep to 0
TCL: Setting parameter alchLambda to 0.7500000000000001
Info: NONBONDED TABLE R-SQUARED SPACING: 0.0625
Info: NONBONDED TABLE SIZE: 705 POINTS
TCL: Setting parameter alchLambda2 to 0.8000000000000002
Info: NONBONDED TABLE R-SQUARED SPACING: 0.0625
Info: NONBONDED TABLE SIZE: 705 POINTS
TCL: Running for 1500000 steps
ETITLE: TS BOND ANGLE DIHED IMPRP ELECT VDW BOUNDARY MISC KINETIC TOTAL TEMP POTENTIAL TOTALAVG TEMPAVG PRESSURE GPRESSURE VOLUME PRESSAVG GPRESSAVG
ENERGY: 0 3.2202 4.7824 6.7619 0.0000 -10658.8372 1475.3293 0.0000 0.0000 1759.3864 -7409.3569 301.5030 -9168.7433 -7409.3569 301.5030 177.5729 263.9410 30509.6486 177.5729 263.9410
ENERGY: 300000 4.0009 8.6673 7.1281 0.0000 -10881.7148 1530.2307 0.0000 0.0000 1722.4487 -7609.2390 295.1730 -9331.6877 -7496.3243 296.2587 581.6728 625.6306 29563.3064 171.9760 225.8537
ENERGY: 600000 0.9946 8.3520 6.4602 0.0000 -10482.6932 1372.0919 0.0000 0.0000 1787.0849 -7307.7097 306.2496 -9094.7945 -7456.9147 298.2402 -208.8876 -136.0433 30573.1420 55.0286 117.2787
ENERGY: 900000 1.6949 9.8497 6.4950 0.0000 -10618.5169 1424.5293 0.0000 0.0000 1740.1535 -7435.7945 298.2071 -9175.9479 -7455.2917 298.3407 19.6817 57.4822 30459.4448 8.7602 74.8479
ENERGY: 1200000 4.3677 6.9190 7.0789 0.0000 -10561.8452 1391.5338 0.0000 0.0000 1751.7036 -7400.2422 300.1864 -9151.9458 -7451.2141 299.0563 -171.6953 -150.4044 30333.5076 -78.3371 -24.1976
ENERGY: 1500000 3.3605 11.1849 7.6926 0.0000 -10619.4691 1369.9009 0.0000 0.0000 1766.6196 -7460.7106 302.7425 -9227.3302 -7457.0141 299.1026 -293.6641 -248.9947 29900.2570 -25.7782 31.7656
TCL: Running FEP window  17: Lambda1 0.8000000000000002 Lambda2 0.8500000000000002 [dLambda 0.050000000000000044]
TCL: Setting parameter firsttimestep to 0
TCL: Setting parameter alchLambda to 0.8000000000000002
Info: NONBONDED TABLE R-SQUARED SPACING: 0.0625
Info: NONBONDED TABLE SIZE: 705 POINTS
TCL: Setting parameter alchLambda2 to 0.8500000000000002
Info: NONBONDED TABLE R-SQUARED SPACING: 0.0625
Info: NONBONDED TABLE SIZE: 705 POINTS
TCL: Running for 1500000 steps
ETITLE: TS BOND ANGLE DIHED IMPRP ELECT VDW BOUNDARY MISC KINETIC TOTAL TEMP POTENTIAL TOTALAVG TEMPAVG PRESSURE GPRESSURE VOLUME PRESSAVG GPRESSAVG
ENERGY: 0 3.3605 11.1849 7.6926 0.0000 -10620.3283 1369.6523 0.0000 0.0000 1765.7445 -7462.6935 302.5926 -9228.4380 -7462.6935 302.5926 -324.2770 -245.2892 29900.2570 -324.2770 -245.2892
ENERGY: 300000 3.2404 9.6473 5.9370 0.0000 -10813.8133 1528.0462 0.0000 0.0000 1785.3405 -7481.6019 305.9507 -9266.9424 -7508.5091 301.4008 646.3718 685.2489 30106.0744 139.2369 183.2124
ENERGY: 600000 1.4886 8.1879 6.7250 0.0000 -10551.0851 1359.5272 0.0000 0.0000 1790.9442 -7384.2122 306.9110 -9175.1564 -7460.0965 304.7159 -381.5191 -363.7339 30284.2040 43.9904 87.6689
ENERGY: 900000 0.7142 4.9651 8.6008 0.0000 -10648.2551 1381.8052 0.0000 0.0000 1777.2656 -7474.9042 304.5669 -9252.1698 -7459.7992 303.7702 -383.5254 -299.8605 30287.6288 51.8712 95.3233
ENERGY: 1200000 1.7228 6.4120 6.8945 0.0000 -10540.6711 1390.3509 0.0000 0.0000 1724.2233 -7411.0677 295.4771 -9135.2910 -7464.1782 303.0571 -351.5913 -303.8432 30557.7799 117.2610 169.4068
ENERGY: 1500000 0.8243 7.5956 8.5284 0.0000 -10725.0188 1452.3197 0.0000 0.0000 1754.5445 -7501.2063 300.6732 -9255.7508 -7462.6493 302.3944 73.4058 155.0132 30014.3521 76.0801 130.5934
TCL: Running FEP window  18: Lambda1 0.8500000000000002 Lambda2 0.9000000000000002 [dLambda 0.050000000000000044]
TCL: Setting parameter firsttimestep to 0
TCL: Setting parameter alchLambda to 0.8500000000000002
Info: NONBONDED TABLE R-SQUARED SPACING: 0.0625
Info: NONBONDED TABLE SIZE: 705 POINTS
TCL: Setting parameter alchLambda2 to 0.9000000000000002
Info: NONBONDED TABLE R-SQUARED SPACING: 0.0625
Info: NONBONDED TABLE SIZE: 705 POINTS
TCL: Running for 1500000 steps
ETITLE: TS BOND ANGLE DIHED IMPRP ELECT VDW BOUNDARY MISC KINETIC TOTAL TEMP POTENTIAL TOTALAVG TEMPAVG PRESSURE GPRESSURE VOLUME PRESSAVG GPRESSAVG
ENERGY: 0 0.8243 7.5956 8.5284 0.0000 -10726.6171 1453.2468 0.0000 0.0000 1753.6749 -7502.7472 300.5242 -9256.4220 -7502.7472 300.5242 91.2370 173.1207 30014.3521 91.2370 173.1207
ENERGY: 300000 1.1431 7.9660 6.0716 0.0000 -10633.5513 1391.3176 0.0000 0.0000 1757.8294 -7469.2236 301.2362 -9227.0530 -7442.7941 303.1942 -215.3828 -142.3977 30213.5079 85.3725 129.4600
ENERGY: 600000 0.8036 6.5481 6.3847 0.0000 -10543.3723 1351.4363 0.0000 0.0000 1758.7727 -7419.4270 301.3978 -9178.1997 -7427.5641 301.7784 -472.7498 -411.4707 30101.2845 -28.9616 25.9494
ENERGY: 900000 2.0838 6.1191 8.2682 0.0000 -10689.7865 1424.3866 0.0000 0.0000 1763.1259 -7485.8029 302.1438 -9248.9288 -7435.4992 301.6341 -149.6282 -123.0676 30084.3483 79.8811 127.3254
ENERGY: 1200000 2.7603 10.1751 6.3692 0.0000 -10615.3376 1421.9127 0.0000 0.0000 1733.8028 -7440.3177 297.1188 -9174.1204 -7437.1127 300.4097 -69.1704 60.7173 30231.5399 20.7039 78.6855
ENERGY: 1500000 3.6293 5.7122 6.7742 0.0000 -10624.5102 1398.5770 0.0000 0.0000 1725.6916 -7484.1259 295.7288 -9209.8175 -7435.1253 300.0819 -453.9255 -450.8739 30523.0926 8.6401 60.4747
TCL: Running FEP window  19: Lambda1 0.9000000000000002 Lambda2 0.9500000000000003 [dLambda 0.050000000000000044]
TCL: Setting parameter firsttimestep to 0
TCL: Setting parameter alchLambda to 0.9000000000000002
Info: NONBONDED TABLE R-SQUARED SPACING: 0.0625
Info: NONBONDED TABLE SIZE: 705 POINTS
TCL: Setting parameter alchLambda2 to 0.9500000000000003
Info: NONBONDED TABLE R-SQUARED SPACING: 0.0625
Info: NONBONDED TABLE SIZE: 705 POINTS
TCL: Running for 1500000 steps
ETITLE: TS BOND ANGLE DIHED IMPRP ELECT VDW BOUNDARY MISC KINETIC TOTAL TEMP POTENTIAL TOTALAVG TEMPAVG PRESSURE GPRESSURE VOLUME PRESSAVG GPRESSAVG
ENERGY: 0 3.6293 5.7122 6.7742 0.0000 -10625.4800 1400.0158 0.0000 0.0000 1724.8015 -7484.5471 295.5762 -9209.3485 -7484.5471 295.5762 -490.7810 -422.8834 30523.0926 -490.7810 -422.8834
ENERGY: 300000 2.8447 9.3681 9.8247 0.0000 -10686.0214 1438.5232 0.0000 0.0000 1798.8080 -7426.6527 308.2586 -9225.4607 -7444.8930 304.8174 327.3854 434.4691 29639.3703 147.8998 208.2865
ENERGY: 600000 0.7029 10.6061 11.8410 0.0000 -10744.6101 1477.4221 0.0000 0.0000 1758.9521 -7485.0859 301.4286 -9244.0380 -7457.0626 302.4205 297.0402 301.0653 30256.5006 83.4920 134.9715
ENERGY: 900000 0.4672 9.9333 6.4602 0.0000 -10752.3137 1467.8618 0.0000 0.0000 1706.5962 -7560.9950 292.4564 -9267.5912 -7465.6144 302.6609 340.9052 360.2240 29844.1246 257.9542 301.6970
ENERGY: 1200000 0.4292 5.7640 7.8140 0.0000 -10742.0659 1464.1574 0.0000 0.0000 1739.1681 -7524.7331 298.0382 -9263.9013 -7463.3402 302.6389 234.5218 329.5945 29904.8530 283.9458 335.1497
ENERGY: 1500000 1.7954 7.2099 8.0357 0.0000 -10617.0181 1426.3040 0.0000 0.0000 1725.3552 -7448.3180 295.6711 -9173.6732 -7465.8303 301.3652 -74.3116 10.3999 30507.2442 251.2474 309.6907
TCL: Running FEP window  20: Lambda1 0.9500000000000003 Lambda2 1.0    [dLambda 0.04999999999999971]
TCL: Setting parameter firsttimestep to 0
TCL: Setting parameter alchLambda to 0.9500000000000003
Info: NONBONDED TABLE R-SQUARED SPACING: 0.0625
Info: NONBONDED TABLE SIZE: 705 POINTS
TCL: Setting parameter alchLambda2 to 1.0
Info: NONBONDED TABLE R-SQUARED SPACING: 0.0625
Info: NONBONDED TABLE SIZE: 705 POINTS
TCL: Running for 1500000 steps
ETITLE: TS BOND ANGLE DIHED IMPRP ELECT VDW BOUNDARY MISC KINETIC TOTAL TEMP POTENTIAL TOTALAVG TEMPAVG PRESSURE GPRESSURE VOLUME PRESSAVG GPRESSAVG
ENERGY: 0 1.7954 7.2099 8.0357 0.0000 -10618.5903 1427.4870 0.0000 0.0000 1724.4344 -7449.6279 295.5133 -9174.0623 -7449.6279 295.5133 -49.7073 31.7921 30507.2442 -49.7073 31.7921
ENERGY: 300000 2.0758 3.2559 8.0846 0.0000 -10660.7050 1400.4590 0.0000 0.0000 1690.2231 -7556.6066 289.6506 -9246.8297 -7474.0240 296.2146 -56.6707 -23.2163 29843.3869 -99.0468 -43.3703
ENERGY: 600000 1.6823 5.7406 6.3695 0.0000 -10764.2388 1474.1182 0.0000 0.0000 1834.1524 -7442.1756 314.3155 -9276.3280 -7500.8695 297.5630 110.8719 177.3289 30276.7642 -73.7309 -19.2725
ENERGY: 900000 2.5035 7.2031 6.7663 0.0000 -10713.5210 1425.6842 0.0000 0.0000 1740.0985 -7531.2654 298.1977 -9271.3639 -7499.1128 298.2310 -24.3511 -6.7124 30167.9046 -71.8110 -20.0653
ENERGY: 1200000 2.7011 8.0145 8.3304 0.0000 -10776.5958 1513.3670 0.0000 0.0000 1740.7295 -7503.4534 298.3058 -9244.1828 -7490.5023 298.8232 631.7712 625.1616 30215.7922 5.5464 51.4930
ENERGY: 1500000 0.6330 7.1279 6.9498 0.0000 -10510.9528 1375.7423 0.0000 0.0000 1721.9651 -7398.5347 295.0902 -9120.4998 -7479.7183 298.8692 -127.5897 -84.0388 30326.7339 11.1799 52.8574
TCL: Exiting due to exit command.
