Info: SIMULATION PARAMETERS:
Info: TIMESTEP               2
Info: NUMBER OF STEPS        0
Info: STEPS PER CYCLE        10
Info: PERIODIC CELL BASIS 1  30.6474 0 0
Info: PERIODIC CELL BASIS 2  0 32.2032 0
Info: PERIODIC CELL BASIS 3  0 0 31.2238
Info: PERIODIC CELL CENTER   0 0 0
Info: WRAPPING WATERS AROUND PERIODIC BOUNDARIES ON OUTPUT.
Info: WRAPPING ALL CLUSTERS AROUND PERIODIC BOUNDARIES ON OUTPUT.
Info: FIRST LDB TIMESTEP     50
Info: LAST LDB TIMESTEP     -1
Info: HOM BACKGROUND SCALING 1
Info: PME BACKGROUND SCALING 1
Info: MIN ATOMS PER PATCH    40
Info: EMPTY PATCH LOAD       40 ATOMS
Info: VELOCITY FILE          mobley_7676709_equil.vel
Info: CENTER OF MASS MOVING INITIALLY? NO
Info: DIELECTRIC             1
Info: EXCLUDE                SCALED ONE-FOUR
Info: 1-4 ELECTROSTATICS SCALED BY 0.833333
Info: MODIFIED 1-4 VDW PARAMETERS WILL BE USED
Info: DCD FILENAME           mobley_7676709_prod.dcd
Info: DCD FREQUENCY          100000
Info: DCD FIRST STEP         100000
Info: DCD FILE WILL CONTAIN UNIT CELL DATA
Info: XST FILENAME           mobley_7676709_prod.xst
Info: XST FREQUENCY          100000
Info: NO VELOCITY DCD OUTPUT
Info: NO FORCE DCD OUTPUT
Info: OUTPUT FILENAME        mobley_7676709_prod
Info: BINARY OUTPUT FILES WILL BE USED
Info: RESTART FILENAME       mobley_7676709_prod.restart
Info: RESTART FREQUENCY      100000
Info: BINARY RESTART FILES WILL BE USED
Info: CUTOFF                 9
Info: PAIRLIST DISTANCE      11
Info: PAIRLIST SHRINK RATE   0.01
Info: PAIRLIST GROW RATE     0.01
Info: PAIRLIST TRIGGER       0.3
Info: PAIRLISTS PER CYCLE    2
Info: PAIRLISTS ENABLED
Info: MARGIN                 2
Info: HYDROGEN GROUP CUTOFF  2.5
Info: PATCH DIMENSION        15.5
Info: ENERGY OUTPUT STEPS    100000
Info: ENERGY EVALUATION STEPS    100000
Info: OUTPUT ENERGY PRECISION 4
Info: CROSSTERM ENERGY INCLUDED IN DIHEDRAL
Info: TIMING OUTPUT STEPS    1000000
Info: PRESSURE OUTPUT STEPS  100000
Info: ALCHEMICAL FEP ON
Info: FEP CURRENT LAMBDA VALUE     0
Info: FEP COMPARISON LAMBDA VALUE  0.05
Info: FEP INTRA-ALCHEMICAL NON-BONDED INTERACTIONS WILL BE RETAINED
Info: FEP INTRA-ALCHEMICAL BONDED INTERACTIONS WILL BE RETAINED
Info: FEP VDW SHIFTING COEFFICIENT 5
Info: FEP ELEC. ACTIVE FOR ANNIHILATED PARTICLES BETWEEN LAMBDA = 0 AND LAMBDA = 0.5
Info: FEP ELEC. ACTIVE FOR EXNIHILATED PARTICLES BETWEEN LAMBDA = 0.5 AND LAMBDA = 1
Info: FEP VDW ACTIVE FOR ANNIHILATED PARTICLES BETWEEN LAMBDA = 0 AND LAMBDA = 1
Info: FEP VDW ACTIVE FOR EXNIHILATED PARTICLES BETWEEN LAMBDA = 0 AND LAMBDA = 1
Info: FEP BOND ACTIVE FOR ANNIHILATED PARTICLES BETWEEN LAMBDA = 1 AND LAMBDA = 1
Info: FEP BOND ACTIVE FOR EXNIHILATED PARTICLES BETWEEN LAMBDA = 0 AND LAMBDA = 0
Info: LANGEVIN DYNAMICS ACTIVE
Info: LANGEVIN TEMPERATURE   300
Info: LANGEVIN USING BBK INTEGRATOR
Info: LANGEVIN DAMPING COEFFICIENT IS 1 INVERSE PS
Info: LANGEVIN DYNAMICS APPLIED TO HYDROGENS
Info: LANGEVIN PISTON PRESSURE CONTROL ACTIVE
Info:        TARGET PRESSURE IS 1.01325 BAR
Info:     OSCILLATION PERIOD IS 50 FS
Info:             DECAY TIME IS 25 FS
Info:     PISTON TEMPERATURE IS 300 K
Info:       PRESSURE CONTROL IS GROUP-BASED
Info:    INITIAL STRAIN RATE IS -0.000695066 -0.000695066 -0.000695066
Info:       CELL FLUCTUATION IS ISOTROPIC
Info: PARTICLE MESH EWALD (PME) ACTIVE
Info: PME TOLERANCE               1e-06
Info: PME EWALD COEFFICIENT       0.348832
Info: PME INTERPOLATION ORDER     4
Info: PME GRID DIMENSIONS         32 36 32
Info: PME MAXIMUM GRID SPACING    1
Info: PME CALCULATION WILL BE PERFORMED ON GPU
Info: FULL ELECTROSTATIC EVALUATION FREQUENCY      2
Info: USING VERLET I (r-RESPA) MTS SCHEME.
Info: C1 SPLITTING OF LONG RANGE ELECTROSTATICS
Info: PLACING ATOMS IN PATCHES BY HYDROGEN GROUPS
Info: RIGID BONDS TO HYDROGEN : ALL
Info:         ERROR TOLERANCE : 1e-08
Info:          MAX ITERATIONS : 100
Info: RIGID WATER USING SETTLE ALGORITHM
Info: RANDOM NUMBER SEED     1743815638
Info: USE HYDROGEN BONDS?    NO
Info: Using AMBER format force field!
Info: AMBER PARM FILE        mobley_7676709.prmtop
Info: COORDINATE PDB         mobley_7676709.pdb
Info: Exclusions will be read from PARM file!
Info: SCNB (VDW SCALING)     2
Info: USING ARITHMETIC MEAN TO COMBINE L-J SIGMA PARAMETERS
Info: BINARY COORDINATES     mobley_7676709_equil.coor
Info: SUMMARY OF PARAMETERS:
Info: 10 BONDS
Info: 15 ANGLES
Info:   15 HARMONIC
Info:   0 COSINE-BASED
Info: 14 DIHEDRAL
Info: 0 IMPROPER
Info: 0 CROSSTERM
Info: 0 VDW
Info: 28 VDW_PAIRS
Info: 0 NBTHOLE_PAIRS
Info: To read alchdata from file: mobley_7676709.pdb
Info: To read alchflag data from column: 5
Info: STRUCTURE SUMMARY:
Info: 2982 ATOMS
Info: 2982 BONDS
Info: 51 ANGLES
Info: 82 DIHEDRALS
Info: 0 IMPROPERS
Info: 0 CROSSTERMS
Info: 3101 EXCLUSIONS
Info: 2971 RIGID BONDS
Info: ALCH: 0 ATOMS TO DISAPPEAR IN FINAL STATE
Info: ALCH: 27 ATOMS TO APPEAR IN FINAL STATE
Info: 5975 DEGREES OF FREEDOM
Info: 996 HYDROGEN GROUPS
Info: 4 ATOMS IN LARGEST HYDROGEN GROUP
Info: 996 MIGRATION GROUPS
Info: 4 ATOMS IN LARGEST MIGRATION GROUP
Info: TOTAL MASS = 17898 amu
Info: TOTAL CHARGE = -0.00029996 e
Info: MASS DENSITY = 0.96446 g/cm^3
Info: ATOM DENSITY = 0.0967672 atoms/A^3
Info: ADDED 0 IMPLICIT EXCLUSIONS
Info: NONBONDED TABLE R-SQUARED SPACING: 0.0625
Info: NONBONDED TABLE SIZE: 705 POINTS
Info: REMOVING COM VELOCITY 0.115505 0.0583081 0.069434
Info: Use 3D box decompostion in PME FFT.
Info: Updated CUDA force table with 4096 elements.
Info: Updated CUDA LJ table with 7 x 7 elements.
Info: Found 27 unique exclusion lists needing 88 bytes
TCL: Running for 1500000 steps
ETITLE: TS BOND ANGLE DIHED IMPRP ELECT VDW BOUNDARY MISC KINETIC TOTAL TEMP POTENTIAL TOTALAVG TEMPAVG PRESSURE GPRESSURE VOLUME PRESSAVG GPRESSAVG
ENERGY: 0 5.6790 12.1345 5.9767 0.0000 -10865.5978 1553.9433 0.0000 0.0000 1804.2925 -7483.5719 303.9201 -9287.8643 -7483.5719 303.9201 752.7102 837.9103 30816.2138 752.7102 837.9103
ENERGY: 300000 3.7031 9.8425 5.7994 0.0000 -10666.8822 1358.1688 0.0000 0.0000 1756.1906 -7533.1778 295.8177 -9289.3684 -7511.5607 299.5196 -749.3348 -697.3965 30650.5390 -46.2007 28.0834
ENERGY: 600000 6.2998 14.1611 3.8321 0.0000 -10852.9823 1451.2688 0.0000 0.0000 1802.7834 -7574.6369 303.6659 -9377.4203 -7539.9303 299.9980 -651.2143 -559.4649 30720.7835 -28.8994 43.9965
ENERGY: 900000 2.7830 12.9616 5.0339 0.0000 -10727.9504 1493.4163 0.0000 0.0000 1801.8194 -7411.9362 303.5035 -9213.7555 -7527.7767 299.8987 746.2039 740.9580 30291.8499 -77.6036 -20.6181
ENERGY: 1200000 4.3355 12.7999 3.3800 0.0000 -10831.3596 1500.8193 0.0000 0.0000 1834.7276 -7475.2973 309.0467 -9310.0248 -7521.1442 301.3726 310.3944 426.0623 30332.7970 2.9741 65.2078
ENERGY: 1500000 9.3552 9.5149 5.9507 0.0000 -10669.1500 1401.6830 0.0000 0.0000 1781.8169 -7460.8293 300.1342 -9242.6462 -7520.8817 300.4920 -87.3032 -84.8787 30097.0958 60.2088 118.5057
TCL: Running FEP window   2: Lambda1 0.05   Lambda2 0.1    [dLambda 0.05  ]
TCL: Setting parameter firsttimestep to 0
TCL: Setting parameter alchLambda to 0.05
Info: NONBONDED TABLE R-SQUARED SPACING: 0.0625
Info: NONBONDED TABLE SIZE: 705 POINTS
TCL: Setting parameter alchLambda2 to 0.1
Info: NONBONDED TABLE R-SQUARED SPACING: 0.0625
Info: NONBONDED TABLE SIZE: 705 POINTS
TCL: Running for 1500000 steps
ETITLE: TS BOND ANGLE DIHED IMPRP ELECT VDW BOUNDARY MISC KINETIC TOTAL TEMP POTENTIAL TOTALAVG TEMPAVG PRESSURE GPRESSURE VOLUME PRESSAVG GPRESSAVG
ENERGY: 0 9.3552 9.5149 5.9507 0.0000 -10669.1513 1407.1800 0.0000 0.0000 1780.9390 -7456.2115 299.9864 -9237.1505 -7456.2115 299.9864 -170.9992 -72.0168 30097.0958 -170.9992 -72.0168
ENERGY: 300000 3.9162 9.7732 5.8881 0.0000 -10646.6919 1424.5052 0.0000 0.0000 1827.3037 -7375.3055 307.7962 -9202.6092 -7472.5316 300.8490 -314.0405 -239.9736 31102.7476 -473.8674 -419.4032
ENERGY: 600000 1.9539 9.5450 6.0391 0.0000 -10671.3578 1417.9884 0.0000 0.0000 1826.1843 -7409.6471 307.6076 -9235.8314 -7491.5690 301.2515 -237.6465 -207.1249 30752.9307 -139.7940 -83.7383
ENERGY: 900000 3.3098 9.8531 7.5081 0.0000 -10728.0364 1415.5280 0.0000 0.0000 1720.5342 -7571.3032 289.8116 -9291.8373 -7522.5557 298.6013 -145.3094 -127.0650 30234.2089 -132.4801 -82.4867
ENERGY: 1200000 5.4224 8.1248 7.4893 0.0000 -10741.3028 1432.9779 0.0000 0.0000 1723.8168 -7563.4716 290.3645 -9287.2884 -7511.4875 298.9288 -436.5260 -396.4159 30798.7053 -118.2675 -70.0508
ENERGY: 1500000 4.0262 9.7811 5.0209 0.0000 -10732.0185 1370.0138 0.0000 0.0000 1761.7448 -7581.4317 296.7532 -9343.1765 -7503.9841 299.9822 -832.2847 -775.1491 30376.9232 -129.8140 -73.4441
TCL: Running FEP window   3: Lambda1 0.1    Lambda2 0.15000000000000002 [dLambda 0.05000000000000002]
TCL: Setting parameter firsttimestep to 0
TCL: Setting parameter alchLambda to 0.1
Info: NONBONDED TABLE R-SQUARED SPACING: 0.0625
Info: NONBONDED TABLE SIZE: 705 POINTS
TCL: Setting parameter alchLambda2 to 0.15000000000000002
Info: NONBONDED TABLE R-SQUARED SPACING: 0.0625
Info: NONBONDED TABLE SIZE: 705 POINTS
TCL: Running for 1500000 steps
ETITLE: TS BOND ANGLE DIHED IMPRP ELECT VDW BOUNDARY MISC KINETIC TOTAL TEMP POTENTIAL TOTALAVG TEMPAVG PRESSURE GPRESSURE VOLUME PRESSAVG GPRESSAVG
ENERGY: 0 4.0262 9.7811 5.0209 0.0000 -10732.0178 1372.4388 0.0000 0.0000 1760.8166 -7579.9341 296.5969 -9340.7507 -7579.9341 296.5969 -836.2892 -762.6212 30376.9232 -836.2892 -762.6212
ENERGY: 300000 2.4404 17.9622 5.4426 0.0000 -10564.6621 1345.6115 0.0000 0.0000 1778.6456 -7414.5598 299.6001 -9193.2054 -7525.5785 298.7656 -699.4823 -646.4784 30718.3362 -347.0918 -282.1473
ENERGY: 600000 2.2502 14.0573 3.6431 0.0000 -10777.8225 1471.1949 0.0000 0.0000 1730.5052 -7556.1717 291.4912 -9286.6769 -7527.9409 298.8916 160.4888 218.2748 30574.1140 -439.9016 -363.8047
ENERGY: 900000 3.4138 19.0442 4.5019 0.0000 -10723.3976 1416.2798 0.0000 0.0000 1780.5415 -7499.6164 299.9194 -9280.1579 -7528.3311 298.0943 -113.1294 -68.9933 30268.3211 -330.2048 -269.1472
ENERGY: 1200000 5.7124 9.8544 3.1207 0.0000 -10743.8623 1429.7078 0.0000 0.0000 1774.5854 -7520.8816 298.9162 -9295.4670 -7542.9641 298.1085 -468.9287 -444.1966 30899.3818 -195.2710 -139.9611
ENERGY: 1500000 7.4427 9.8980 5.8742 0.0000 -10741.8495 1469.9004 0.0000 0.0000 1785.8239 -7462.9102 300.8092 -9248.7341 -7531.7776 299.1191 379.6872 378.4688 30133.6762 -85.0347 -31.9134
TCL: Running FEP window   4: Lambda1 0.15000000000000002 Lambda2 0.2    [dLambda 0.04999999999999999]
TCL: Setting parameter firsttimestep to 0
TCL: Setting parameter alchLambda to 0.15000000000000002
Info: NONBONDED TABLE R-SQUARED SPACING: 0.0625
Info: NONBONDED TABLE SIZE: 705 POINTS
TCL: Setting parameter alchLambda2 to 0.2
Info: NONBONDED TABLE R-SQUARED SPACING: 0.0625
Info: NONBONDED TABLE SIZE: 705 POINTS
TCL: Running for 1500000 steps
ETITLE: TS BOND ANGLE DIHED IMPRP ELECT VDW BOUNDARY MISC KINETIC TOTAL TEMP POTENTIAL TOTALAVG TEMPAVG PRESSURE GPRESSURE VOLUME PRESSAVG GPRESSAVG
ENERGY: 0 7.4427 9.8980 5.8742 0.0000 -10741.8480 1470.1477 0.0000 0.0000 1784.9543 -7463.5311 300.6627 -9248.4854 -7463.5311 300.6627 279.9386 381.1022 30133.6762 279.9386 381.1022
ENERGY: 300000 7.8173 12.9408 3.7424 0.0000 -10753.2381 1457.6125 0.0000 0.0000 1778.5710 -7492.5541 299.5875 -9271.1250 -7443.5625 305.7394 142.7297 168.9924 30473.7577 -217.1100 -152.2612
ENERGY: 600000 3.5092 13.5093 6.1242 0.0000 -10868.3685 1502.9092 0.0000 0.0000 1749.2855 -7593.0311 294.6546 -9342.3166 -7483.7353 301.7073 432.8194 429.0597 30011.0219 -224.2184 -169.0770
ENERGY: 900000 1.8356 15.3352 4.6387 0.0000 -10786.9253 1419.0701 0.0000 0.0000 1755.9419 -7590.1038 295.7758 -9346.0457 -7506.7733 301.6030 -379.1241 -275.5709 30286.3952 -189.1119 -131.7022
ENERGY: 1200000 2.7615 8.6435 5.4907 0.0000 -10820.0876 1495.5980 0.0000 0.0000 1837.4918 -7470.1021 309.5123 -9307.5939 -7499.9278 302.4621 309.6047 310.9068 30405.8630 -132.1726 -81.3971
ENERGY: 1500000 5.1283 12.9591 6.4656 0.0000 -10823.7539 1488.1720 0.0000 0.0000 1810.0274 -7501.0014 304.8861 -9311.0288 -7498.4827 302.5606 304.1819 370.5360 30279.1533 -123.8686 -71.5260
TCL: Running FEP window   5: Lambda1 0.2    Lambda2 0.25   [dLambda 0.04999999999999999]
TCL: Setting parameter firsttimestep to 0
TCL: Setting parameter alchLambda to 0.2
Info: NONBONDED TABLE R-SQUARED SPACING: 0.0625
Info: NONBONDED TABLE SIZE: 705 POINTS
TCL: Setting parameter alchLambda2 to 0.25
Info: NONBONDED TABLE R-SQUARED SPACING: 0.0625
Info: NONBONDED TABLE SIZE: 705 POINTS
TCL: Running for 1500000 steps
ETITLE: TS BOND ANGLE DIHED IMPRP ELECT VDW BOUNDARY MISC KINETIC TOTAL TEMP POTENTIAL TOTALAVG TEMPAVG PRESSURE GPRESSURE VOLUME PRESSAVG GPRESSAVG
ENERGY: 0 5.1283 12.9591 6.4656 0.0000 -10823.7522 1488.4097 0.0000 0.0000 1809.1762 -7501.6132 304.7427 -9310.7895 -7501.6132 304.7427 294.9618 377.0242 30279.1533 294.9618 377.0242
ENERGY: 300000 5.3457 12.4527 5.9025 0.0000 -10740.6066 1450.4923 0.0000 0.0000 1764.0026 -7502.4108 297.1336 -9266.4135 -7531.6684 299.9790 -326.3388 -233.4133 31023.4502 353.6511 415.6323
ENERGY: 600000 2.9623 12.3348 5.4606 0.0000 -10872.1227 1504.5486 0.0000 0.0000 1809.1172 -7537.6992 304.7328 -9346.8165 -7508.0172 300.4888 -31.4253 73.6373 30830.8330 204.3032 270.0760
ENERGY: 900000 2.2642 20.8656 6.2109 0.0000 -10681.9007 1356.7499 0.0000 0.0000 1828.5180 -7467.2920 308.0007 -9295.8100 -7511.8976 300.3104 -1114.9207 -1016.0636 31159.7646 24.6617 92.2117
ENERGY: 1200000 3.8414 13.1515 6.4044 0.0000 -10711.7629 1411.1022 0.0000 0.0000 1719.2010 -7558.0623 289.5870 -9277.2633 -7528.9655 298.8666 -551.6116 -427.9968 30467.0390 38.6651 105.9461
ENERGY: 1500000 8.1071 10.3362 3.4179 0.0000 -10736.4159 1453.1806 0.0000 0.0000 1803.2019 -7458.1722 303.7364 -9261.3741 -7507.7564 300.2796 204.2835 256.1422 30177.1675 29.3803 98.1020
TCL: Running FEP window   6: Lambda1 0.25   Lambda2 0.3    [dLambda 0.04999999999999999]
TCL: Setting parameter firsttimestep to 0
TCL: Setting parameter alchLambda to 0.25
Info: NONBONDED TABLE R-SQUARED SPACING: 0.0625
Info: NONBONDED TABLE SIZE: 705 POINTS
TCL: Setting parameter alchLambda2 to 0.3
Info: NONBONDED TABLE R-SQUARED SPACING: 0.0625
Info: NONBONDED TABLE SIZE: 705 POINTS
TCL: Running for 1500000 steps
ETITLE: TS BOND ANGLE DIHED IMPRP ELECT VDW BOUNDARY MISC KINETIC TOTAL TEMP POTENTIAL TOTALAVG TEMPAVG PRESSURE GPRESSURE VOLUME PRESSAVG GPRESSAVG
ENERGY: 0 8.1071 10.3362 3.4179 0.0000 -10736.4164 1453.4700 0.0000 0.0000 1802.3325 -7458.7529 303.5899 -9261.0853 -7458.7529 303.5899 192.8656 265.2501 30177.1675 192.8656 265.2501
ENERGY: 300000 3.7453 17.1627 5.1603 0.0000 -10676.5397 1427.3908 0.0000 0.0000 1754.5651 -7468.5154 295.5439 -9223.0805 -7471.2799 300.6298 138.7738 223.5587 30389.6128 368.9968 433.0830
ENERGY: 600000 3.5985 9.7994 3.7567 0.0000 -10806.1042 1460.8636 0.0000 0.0000 1782.6715 -7545.4145 300.2782 -9328.0860 -7490.0504 301.8641 285.9636 365.4016 30012.4189 299.3546 357.4293
ENERGY: 900000 4.0515 12.8794 4.5623 0.0000 -10837.1722 1462.3872 0.0000 0.0000 1764.6432 -7588.6486 297.2415 -9353.2918 -7505.7748 300.6246 -47.2587 -13.3689 30239.3746 337.6285 387.9509
ENERGY: 1200000 6.1135 9.6887 7.1180 0.0000 -10639.9852 1358.1829 0.0000 0.0000 1765.4561 -7493.4260 297.3784 -9258.8821 -7504.6756 300.1440 -703.7361 -615.9968 30468.8114 164.8121 215.4443
ENERGY: 1500000 4.8596 12.7619 4.3809 0.0000 -10745.3984 1383.9666 0.0000 0.0000 1786.4161 -7553.0133 300.9089 -9339.4294 -7520.2282 298.8440 -1031.9251 -920.6427 30806.8930 38.7122 99.4198
TCL: Running FEP window   7: Lambda1 0.3    Lambda2 0.35   [dLambda 0.04999999999999999]
TCL: Setting parameter firsttimestep to 0
TCL: Setting parameter alchLambda to 0.3
Info: NONBONDED TABLE R-SQUARED SPACING: 0.0625
Info: NONBONDED TABLE SIZE: 705 POINTS
TCL: Setting parameter alchLambda2 to 0.35
Info: NONBONDED TABLE R-SQUARED SPACING: 0.0625
Info: NONBONDED TABLE SIZE: 705 POINTS
TCL: Running for 1500000 steps
ETITLE: TS BOND ANGLE DIHED IMPRP ELECT VDW BOUNDARY MISC KINETIC TOTAL TEMP POTENTIAL TOTALAVG TEMPAVG PRESSURE GPRESSURE VOLUME PRESSAVG GPRESSAVG
ENERGY: 0 4.8596 12.7619 4.3809 0.0000 -10745.3986 1384.6804 0.0000 0.0000 1785.5348 -7553.1809 300.7605 -9338.7158 -7553.1809 300.7605 -1011.7906 -909.6187 30806.8930 -1011.7906 -909.6187
ENERGY: 300000 4.2360 10.1949 3.9162 0.0000 -10663.0475 1434.0817 0.0000 0.0000 1789.7265 -7420.8923 301.4666 -9210.6187 -7519.8382 300.5153 139.6904 173.5488 30516.9787 -375.1242 -304.0497
ENERGY: 600000 5.2267 13.6481 3.9284 0.0000 -10773.8784 1427.0151 0.0000 0.0000 1810.3007 -7513.7594 304.9321 -9324.0602 -7513.3471 301.2879 -633.7605 -539.5536 30921.2834 -334.6345 -246.4166
ENERGY: 900000 5.0786 13.9049 5.0152 0.0000 -10778.6343 1411.4714 0.0000 0.0000 1740.7953 -7602.3688 293.2245 -9343.1642 -7523.7460 301.6152 -486.2756 -457.6385 30641.9751 -250.2247 -190.1971
ENERGY: 1200000 8.9255 9.7168 4.9599 0.0000 -10840.6296 1508.2130 0.0000 0.0000 1757.4666 -7551.3478 296.0326 -9308.8144 -7523.9479 300.5429 227.8824 250.4193 30753.8372 -185.0873 -119.3535
ENERGY: 1500000 1.7469 13.4211 3.5830 0.0000 -10877.7124 1514.4784 0.0000 0.0000 1768.9519 -7575.5311 297.9672 -9344.4830 -7522.7018 300.4382 405.4296 468.4680 30565.7596 -70.7769 -9.0591
TCL: Running FEP window   8: Lambda1 0.35   Lambda2 0.39999999999999997 [dLambda 0.04999999999999999]
TCL: Setting parameter firsttimestep to 0
TCL: Setting parameter alchLambda to 0.35
Info: NONBONDED TABLE R-SQUARED SPACING: 0.0625
Info: NONBONDED TABLE SIZE: 705 POINTS
TCL: Setting parameter alchLambda2 to 0.39999999999999997
Info: NONBONDED TABLE R-SQUARED SPACING: 0.0625
Info: NONBONDED TABLE SIZE: 705 POINTS
TCL: Running for 1500000 steps
ETITLE: TS BOND ANGLE DIHED IMPRP ELECT VDW BOUNDARY MISC KINETIC TOTAL TEMP POTENTIAL TOTALAVG TEMPAVG PRESSURE GPRESSURE VOLUME PRESSAVG GPRESSAVG
ENERGY: 0 1.7469 13.4211 3.5830 0.0000 -10877.7120 1514.2278 0.0000 0.0000 1768.0692 -7576.6640 297.8185 -9344.7332 -7576.6640 297.8185 392.0637 474.8376 30565.7596 392.0637 474.8376
ENERGY: 300000 3.6252 12.2595 6.3893 0.0000 -10685.3175 1368.0758 0.0000 0.0000 1834.4802 -7460.4876 309.0050 -9294.9678 -7524.8183 300.1592 -496.9165 -474.2111 30356.3240 -191.3481 -140.9586
ENERGY: 600000 5.2215 12.7520 4.5157 0.0000 -10793.8596 1438.7321 0.0000 0.0000 1766.8196 -7565.8187 297.6081 -9332.6383 -7516.5911 299.6786 -257.9948 -197.2027 30355.6468 54.4554 110.8399
ENERGY: 900000 5.7048 14.6005 5.7811 0.0000 -10761.0432 1450.7381 0.0000 0.0000 1813.5498 -7470.6690 305.4794 -9284.2188 -7522.9676 298.4379 -26.2661 51.4400 30825.5955 -81.5950 -23.5396
ENERGY: 1200000 4.9377 8.9647 4.1479 0.0000 -10835.7760 1519.0384 0.0000 0.0000 1776.0997 -7522.5876 299.1712 -9298.6873 -7524.7129 298.1984 528.1211 584.5323 30568.3004 -66.5473 -10.2972
ENERGY: 1500000 8.4234 10.4581 5.6469 0.0000 -10742.2831 1420.3297 0.0000 0.0000 1724.5875 -7572.8374 290.4944 -9297.4249 -7527.0693 297.9504 -435.9042 -405.6861 30860.1753 -96.4943 -40.2718
TCL: Running FEP window   9: Lambda1 0.39999999999999997 Lambda2 0.44999999999999996 [dLambda 0.04999999999999999]
TCL: Setting parameter firsttimestep to 0
TCL: Setting parameter alchLambda to 0.39999999999999997
Info: NONBONDED TABLE R-SQUARED SPACING: 0.0625
Info: NONBONDED TABLE SIZE: 705 POINTS
TCL: Setting parameter alchLambda2 to 0.44999999999999996
Info: NONBONDED TABLE R-SQUARED SPACING: 0.0625
Info: NONBONDED TABLE SIZE: 705 POINTS
TCL: Running for 1500000 steps
ETITLE: TS BOND ANGLE DIHED IMPRP ELECT VDW BOUNDARY MISC KINETIC TOTAL TEMP POTENTIAL TOTALAVG TEMPAVG PRESSURE GPRESSURE VOLUME PRESSAVG GPRESSAVG
ENERGY: 0 8.4235 10.4581 5.6469 0.0000 -10742.2835 1420.3675 0.0000 0.0000 1723.7205 -7573.6670 290.3483 -9297.3875 -7573.6670 290.3483 -467.0945 -398.0488 30860.1753 -467.0945 -398.0488
ENERGY: 300000 4.8483 10.4029 3.7023 0.0000 -10835.4285 1453.7706 0.0000 0.0000 1730.6611 -7632.0433 291.5174 -9362.7044 -7557.4477 295.6427 -255.7973 -181.0821 30492.3897 -501.6057 -429.9376
ENERGY: 600000 7.5325 17.4848 6.3306 0.0000 -10759.5749 1472.1770 0.0000 0.0000 1782.2982 -7473.7517 300.2153 -9256.0499 -7534.4143 297.5541 -169.8106 -37.5259 30809.5978 -403.0556 -317.6575
ENERGY: 900000 4.7516 10.3519 3.3308 0.0000 -10800.3499 1449.2866 0.0000 0.0000 1815.8104 -7516.8185 305.8602 -9332.6290 -7526.2403 299.1311 -149.1403 -78.4178 30727.9742 -278.9976 -195.4667
ENERGY: 1200000 5.8429 13.3611 5.8926 0.0000 -10739.9177 1480.3220 0.0000 0.0000 1770.0873 -7464.4118 298.1585 -9234.4991 -7506.3627 299.9990 622.7600 644.7264 30051.1478 -244.9675 -165.1771
ENERGY: 1500000 5.2419 14.3252 4.5628 0.0000 -10643.8960 1356.9872 0.0000 0.0000 1762.4883 -7500.2906 296.8785 -9262.7789 -7510.2107 299.7968 -800.4408 -726.6690 30975.0545 -228.5915 -148.2335
TCL: Running FEP window  10: Lambda1 0.44999999999999996 Lambda2 0.49999999999999994 [dLambda 0.04999999999999999]
TCL: Setting parameter firsttimestep to 0
TCL: Setting parameter alchLambda to 0.44999999999999996
Info: NONBONDED TABLE R-SQUARED SPACING: 0.0625
Info: NONBONDED TABLE SIZE: 705 POINTS
TCL: Setting parameter alchLambda2 to 0.49999999999999994
Info: NONBONDED TABLE R-SQUARED SPACING: 0.0625
Info: NONBONDED TABLE SIZE: 705 POINTS
TCL: Running for 1500000 steps
ETITLE: TS BOND ANGLE DIHED IMPRP ELECT VDW BOUNDARY MISC KINETIC TOTAL TEMP POTENTIAL TOTALAVG TEMPAVG PRESSURE GPRESSURE VOLUME PRESSAVG GPRESSAVG
ENERGY: 0 5.2419 14.3252 4.5628 0.0000 -10643.8957 1356.4897 0.0000 0.0000 1761.6196 -7501.6564 296.7322 -9263.2760 -7501.6564 296.7322 -788.3760 -721.2872 30975.0545 -788.3760 -721.2872
ENERGY: 300000 5.2458 9.8218 6.4582 0.0000 -10756.3620 1409.3406 0.0000 0.0000 1773.9645 -7551.5310 298.8116 -9325.4955 -7537.3326 298.2165 -529.1728 -445.1976 30546.5916 -195.6977 -139.1222
ENERGY: 600000 6.0260 9.1203 3.0463 0.0000 -10817.4259 1461.3526 0.0000 0.0000 1811.8259 -7526.0547 305.1890 -9337.8806 -7527.8232 299.0160 -53.8174 -12.0738 30371.6102 -141.5414 -86.1231
ENERGY: 900000 4.4326 18.1344 5.1772 0.0000 -10696.6910 1448.4126 0.0000 0.0000 1748.7932 -7471.7409 294.5716 -9220.5341 -7520.0176 299.4413 -90.4439 7.3422 30961.1611 6.5766 59.8094
ENERGY: 1200000 2.9621 10.4149 4.3392 0.0000 -10884.9474 1566.8860 0.0000 0.0000 1816.9101 -7483.4351 306.0454 -9300.3452 -7513.8909 300.4706 1105.9770 1187.4456 30324.1764 105.9376 156.8215
ENERGY: 1500000 3.3745 8.0406 4.3592 0.0000 -10763.4444 1462.8653 0.0000 0.0000 1799.7822 -7485.0224 303.1604 -9284.8047 -7508.4799 300.9925 51.3809 106.5540 30538.5725 69.1250 118.5386
TCL: Running FEP window  11: Lambda1 0.49999999999999994 Lambda2 0.5499999999999999 [dLambda 0.04999999999999999]
TCL: Setting parameter firsttimestep to 0
TCL: Setting parameter alchLambda to 0.49999999999999994
Info: NONBONDED TABLE R-SQUARED SPACING: 0.0625
Info: NONBONDED TABLE SIZE: 705 POINTS
TCL: Setting parameter alchLambda2 to 0.5499999999999999
Info: NONBONDED TABLE R-SQUARED SPACING: 0.0625
Info: NONBONDED TABLE SIZE: 705 POINTS
TCL: Running for 1500000 steps
ETITLE: TS BOND ANGLE DIHED IMPRP ELECT VDW BOUNDARY MISC KINETIC TOTAL TEMP POTENTIAL TOTALAVG TEMPAVG PRESSURE GPRESSURE VOLUME PRESSAVG GPRESSAVG
ENERGY: 0 3.3746 8.0407 4.3592 0.0000 -10763.4461 1464.2651 0.0000 0.0000 1798.9099 -7484.4967 303.0134 -9283.4066 -7484.4967 303.0134 52.2861 126.1135 30538.5725 52.2861 126.1135
ENERGY: 300000 4.9774 15.0251 4.7877 0.0000 -10694.6608 1381.1055 0.0000 0.0000 1759.5463 -7529.2187 296.3829 -9288.7650 -7523.8869 299.2247 -665.3086 -569.1815 30988.0891 -176.7271 -121.1832
ENERGY: 600000 2.3658 10.7835 3.2092 0.0000 -10772.5989 1438.2881 0.0000 0.0000 1831.6793 -7486.2731 308.5332 -9317.9524 -7507.3824 300.5702 67.3347 95.8141 30259.7803 -59.2346 -10.9382
ENERGY: 900000 2.7716 19.4528 3.5704 0.0000 -10841.3246 1510.6210 0.0000 0.0000 1774.0385 -7530.8703 298.8240 -9304.9088 -7510.9096 299.7875 238.3974 301.1701 30938.0433 14.5922 70.7070
ENERGY: 1200000 5.3359 12.8864 3.5632 0.0000 -10702.8909 1428.8708 0.0000 0.0000 1792.2082 -7460.0264 301.8846 -9252.2346 -7505.0542 300.0748 172.7158 301.2316 30021.1231 -43.1903 16.2380
ENERGY: 1500000 4.7815 12.3651 4.2990 0.0000 -10838.9294 1468.7194 0.0000 0.0000 1724.3295 -7624.4349 290.4509 -9348.7644 -7504.0765 299.6371 207.8886 264.4127 30652.2212 -68.5861 -6.5761
TCL: Running FEP window  12: Lambda1 0.5499999999999999 Lambda2 0.6    [dLambda 0.050000000000000044]
TCL: Setting parameter firsttimestep to 0
TCL: Setting parameter alchLambda to 0.5499999999999999
Info: NONBONDED TABLE R-SQUARED SPACING: 0.0625
Info: NONBONDED TABLE SIZE: 705 POINTS
TCL: Setting parameter alchLambda2 to 0.6
Info: NONBONDED TABLE R-SQUARED SPACING: 0.0625
Info: NONBONDED TABLE SIZE: 705 POINTS
TCL: Running for 1500000 steps
ETITLE: TS BOND ANGLE DIHED IMPRP ELECT VDW BOUNDARY MISC KINETIC TOTAL TEMP POTENTIAL TOTALAVG TEMPAVG PRESSURE GPRESSURE VOLUME PRESSAVG GPRESSAVG
ENERGY: 0 4.7815 12.3651 4.2990 0.0000 -10838.6737 1468.8011 0.0000 0.0000 1723.4471 -7624.9799 290.3023 -9348.4271 -7624.9799 290.3023 207.8933 277.0055 30652.2212 207.8933 277.0055
ENERGY: 300000 1.5105 12.5700 4.5490 0.0000 -10832.6675 1448.2820 0.0000 0.0000 1744.8176 -7620.9383 293.9020 -9365.7559 -7560.3354 295.0378 -57.1355 30.9691 30120.9119 -130.5726 -61.9049
ENERGY: 600000 3.3275 14.7991 6.8323 0.0000 -10778.0805 1426.3730 0.0000 0.0000 1790.7832 -7535.9654 301.6446 -9326.7486 -7548.0944 297.2755 -360.8876 -278.1494 30699.1500 -192.7529 -116.4014
ENERGY: 900000 2.7600 13.3864 4.1898 0.0000 -10741.4530 1437.6042 0.0000 0.0000 1806.5121 -7477.0005 304.2940 -9283.5126 -7531.1737 298.3322 67.7126 99.6255 30603.2955 -164.3680 -95.6665
ENERGY: 1200000 2.3981 10.1513 3.9602 0.0000 -10701.6573 1481.2699 0.0000 0.0000 1791.6579 -7412.2199 301.7919 -9203.8778 -7517.0276 298.6975 330.2785 441.2177 30917.2866 -96.2311 -25.6337
ENERGY: 1500000 6.7924 14.8743 5.4205 0.0000 -10796.9100 1456.7737 0.0000 0.0000 1782.2029 -7530.8462 300.1993 -9313.0491 -7503.6309 300.0806 223.3823 289.1055 30297.7738 5.6160 75.9514
TCL: Running FEP window  13: Lambda1 0.6    Lambda2 0.65   [dLambda 0.050000000000000044]
TCL: Setting parameter firsttimestep to 0
TCL: Setting parameter alchLambda to 0.6
Info: NONBONDED TABLE R-SQUARED SPACING: 0.0625
Info: NONBONDED TABLE SIZE: 705 POINTS
TCL: Setting parameter alchLambda2 to 0.65
Info: NONBONDED TABLE R-SQUARED SPACING: 0.0625
Info: NONBONDED TABLE SIZE: 705 POINTS
TCL: Running for 1500000 steps
ETITLE: TS BOND ANGLE DIHED IMPRP ELECT VDW BOUNDARY MISC KINETIC TOTAL TEMP POTENTIAL TOTALAVG TEMPAVG PRESSURE GPRESSURE VOLUME PRESSAVG GPRESSAVG
ENERGY: 0 6.7924 14.8743 5.4205 0.0000 -10796.7794 1457.4868 0.0000 0.0000 1781.2906 -7530.9148 300.0456 -9312.2054 -7530.9148 300.0456 226.1706 307.2471 30297.7738 226.1706 307.2471
ENERGY: 300000 1.1014 14.0108 4.0338 0.0000 -10620.7198 1366.6422 0.0000 0.0000 1758.0129 -7476.9187 296.1246 -9234.9316 -7505.7060 299.0280 -532.5331 -453.9259 31244.8084 -28.9633 29.0402
ENERGY: 600000 2.1492 17.9192 4.0907 0.0000 -10802.6270 1476.0315 0.0000 0.0000 1820.4796 -7481.9569 306.6467 -9302.4365 -7523.6725 299.5227 348.8289 496.3621 30300.5506 -95.4187 -8.4630
ENERGY: 900000 8.9076 15.1514 4.9314 0.0000 -10755.2344 1416.6372 0.0000 0.0000 1785.2324 -7524.3743 300.7096 -9309.6067 -7514.4488 300.9315 -348.2859 -291.9380 30826.4337 -274.1610 -190.5944
ENERGY: 1200000 3.7508 15.7119 3.5961 0.0000 -10665.3745 1366.9088 0.0000 0.0000 1841.3443 -7434.0626 310.1612 -9275.4069 -7516.8601 302.1386 -506.4284 -434.2874 30551.2553 -213.4844 -132.3952
ENERGY: 1500000 2.6730 13.6089 4.1731 0.0000 -10712.0839 1391.8079 0.0000 0.0000 1791.6613 -7508.1597 301.7925 -9299.8210 -7512.6762 301.3580 -408.6985 -360.9659 30463.6085 -222.1598 -143.3168
TCL: Running FEP window  14: Lambda1 0.65   Lambda2 0.7000000000000001 [dLambda 0.050000000000000044]
TCL: Setting parameter firsttimestep to 0
TCL: Setting parameter alchLambda to 0.65
Info: NONBONDED TABLE R-SQUARED SPACING: 0.0625
Info: NONBONDED TABLE SIZE: 705 POINTS
TCL: Setting parameter alchLambda2 to 0.7000000000000001
Info: NONBONDED TABLE R-SQUARED SPACING: 0.0625
Info: NONBONDED TABLE SIZE: 705 POINTS
TCL: Running for 1500000 steps
ETITLE: TS BOND ANGLE DIHED IMPRP ELECT VDW BOUNDARY MISC KINETIC TOTAL TEMP POTENTIAL TOTALAVG TEMPAVG PRESSURE GPRESSURE VOLUME PRESSAVG GPRESSAVG
ENERGY: 0 2.6730 13.6089 4.1731 0.0000 -10712.4353 1392.5221 0.0000 0.0000 1790.7873 -7508.6710 301.6452 -9299.4583 -7508.6710 301.6452 -422.7613 -344.4173 30463.6085 -422.7613 -344.4173
ENERGY: 300000 2.9440 12.0819 5.2593 0.0000 -10760.5209 1429.1254 0.0000 0.0000 1725.6985 -7585.4118 290.6815 -9311.1103 -7499.7386 297.9940 -24.9248 -19.1367 30371.6802 -151.6011 -96.0691
ENERGY: 600000 3.1541 16.3987 3.6914 0.0000 -10741.8590 1433.5678 0.0000 0.0000 1795.5492 -7489.4978 302.4474 -9285.0470 -7514.7794 300.1256 -41.4559 18.3820 30905.3854 166.9135 217.2235
ENERGY: 900000 1.6726 10.2625 4.7785 0.0000 -10793.6913 1498.2484 0.0000 0.0000 1731.4153 -7547.3140 291.6445 -9278.7293 -7512.4249 298.8917 353.9351 510.0612 30416.2824 119.0556 170.5785
ENERGY: 1200000 4.0797 11.8506 4.7970 0.0000 -10914.7511 1537.8443 0.0000 0.0000 1833.4973 -7522.6823 308.8394 -9356.1796 -7515.2090 299.9870 686.2731 722.6030 30464.7774 171.3157 215.3594
ENERGY: 1500000 2.3341 13.1067 4.8237 0.0000 -10725.6316 1425.9652 0.0000 0.0000 1781.3768 -7498.0252 300.0601 -9279.4020 -7518.4744 299.5941 17.6889 78.3236 30511.3126 84.5602 132.1612
TCL: Running FEP window  15: Lambda1 0.7000000000000001 Lambda2 0.7500000000000001 [dLambda 0.050000000000000044]
TCL: Setting parameter firsttimestep to 0
TCL: Setting parameter alchLambda to 0.7000000000000001
Info: NONBONDED TABLE R-SQUARED SPACING: 0.0625
Info: NONBONDED TABLE SIZE: 705 POINTS
TCL: Setting parameter alchLambda2 to 0.7500000000000001
Info: NONBONDED TABLE R-SQUARED SPACING: 0.0625
Info: NONBONDED TABLE SIZE: 705 POINTS
TCL: Running for 1500000 steps
ETITLE: TS BOND ANGLE DIHED IMPRP ELECT VDW BOUNDARY MISC KINETIC TOTAL TEMP POTENTIAL TOTALAVG TEMPAVG PRESSURE GPRESSURE VOLUME PRESSAVG GPRESSAVG
ENERGY: 0 2.3341 13.1067 4.8237 0.0000 -10726.6706 1427.2824 0.0000 0.0000 1780.4746 -7498.6492 299.9081 -9279.1238 -7498.6492 299.9081 11.0590 104.1515 30511.3126 11.0590 104.1515
ENERGY: 300000 3.5331 9.5834 3.6480 0.0000 -10897.1434 1557.0609 0.0000 0.0000 1791.6236 -7531.6943 301.7861 -9323.3180 -7515.1214 301.0987 826.3618 923.0837 30569.4867 200.5264 292.8085
ENERGY: 600000 4.6100 18.3414 4.6453 0.0000 -10738.3881 1373.5096 0.0000 0.0000 1772.1093 -7565.1725 298.4991 -9337.2818 -7516.8050 299.4511 -690.6157 -611.2361 30523.8103 -92.2017 -16.3146
ENERGY: 900000 2.9688 14.2617 6.8120 0.0000 -10751.3147 1458.5153 0.0000 0.0000 1802.5305 -7466.2264 303.6233 -9268.7569 -7503.1222 300.3922 -11.0072 94.7609 30886.1679 -47.1724 33.4007
ENERGY: 1200000 5.0718 17.6786 3.9504 0.0000 -10742.9429 1457.5016 0.0000 0.0000 1782.7706 -7475.9698 300.2949 -9258.7404 -7507.5975 299.0465 66.8221 86.5246 30849.1341 -5.8981 70.7079
ENERGY: 1500000 3.9791 8.6606 6.2589 0.0000 -10789.5231 1442.1223 0.0000 0.0000 1759.3773 -7569.1250 296.3545 -9328.5023 -7514.3437 299.1150 -207.0631 -179.1620 30707.0847 -57.7390 14.0057
TCL: Running FEP window  16: Lambda1 0.7500000000000001 Lambda2 0.8000000000000002 [dLambda 0.050000000000000044]
TCL: Setting parameter firsttimestep to 0
TCL: Setting parameter alchLambda to 0.7500000000000001
Info: NONBONDED TABLE R-SQUARED SPACING: 0.0625
Info: NONBONDED TABLE SIZE: 705 POINTS
TCL: Setting parameter alchLambda2 to 0.8000000000000002
Info: NONBONDED TABLE R-SQUARED SPACING: 0.0625
Info: NONBONDED TABLE SIZE: 705 POINTS
TCL: Running for 1500000 steps
ETITLE: TS BOND ANGLE DIHED IMPRP ELECT VDW BOUNDARY MISC KINETIC TOTAL TEMP POTENTIAL TOTALAVG TEMPAVG PRESSURE GPRESSURE VOLUME PRESSAVG GPRESSAVG
ENERGY: 0 3.9791 8.6606 6.2589 0.0000 -10790.5731 1442.3714 0.0000 0.0000 1758.4705 -7570.8326 296.2017 -9329.3031 -7570.8326 296.2017 -256.5161 -167.4686 30707.0847 -256.5161 -167.4686
ENERGY: 300000 1.6627 8.9990 6.8675 0.0000 -10700.6808 1335.9695 0.0000 0.0000 1761.6041 -7585.5780 296.7295 -9347.1820 -7524.9726 298.3328 -1162.7630 -1144.7079 30927.0178 -528.7715 -472.3626
ENERGY: 600000 3.7656 13.1979 4.6370 0.0000 -10676.5256 1386.1593 0.0000 0.0000 1777.5407 -7491.2250 299.4139 -9268.7657 -7524.8351 299.7060 -515.9072 -498.8375 30996.1149 -256.1468 -204.5929
ENERGY: 900000 9.0952 13.4054 3.9592 0.0000 -10948.2604 1525.8876 0.0000 0.0000 1725.4822 -7670.4308 290.6451 -9395.9130 -7540.3795 297.9216 257.0312 346.4152 30165.1639 -227.8646 -169.1812
ENERGY: 1200000 1.6689 13.4494 5.0590 0.0000 -10522.0553 1275.2132 0.0000 0.0000 1792.1355 -7434.5293 301.8723 -9226.6648 -7517.3321 299.1178 -1242.3088 -1187.4318 31115.7816 -231.1145 -174.1108
ENERGY: 1500000 8.8003 19.5346 3.9205 0.0000 -10819.5476 1453.1285 0.0000 0.0000 1755.4481 -7578.7156 295.6926 -9334.1636 -7533.3990 298.5600 -237.3237 -139.2203 30540.4120 -168.8823 -105.0120
TCL: Running FEP window  17: Lambda1 0.8000000000000002 Lambda2 0.8500000000000002 [dLambda 0.050000000000000044]
TCL: Setting parameter firsttimestep to 0
TCL: Setting parameter alchLambda to 0.8000000000000002
Info: NONBONDED TABLE R-SQUARED SPACING: 0.0625
Info: NONBONDED TABLE SIZE: 705 POINTS
TCL: Setting parameter alchLambda2 to 0.8500000000000002
Info: NONBONDED TABLE R-SQUARED SPACING: 0.0625
Info: NONBONDED TABLE SIZE: 705 POINTS
TCL: Running for 1500000 steps
ETITLE: TS BOND ANGLE DIHED IMPRP ELECT VDW BOUNDARY MISC KINETIC TOTAL TEMP POTENTIAL TOTALAVG TEMPAVG PRESSURE GPRESSURE VOLUME PRESSAVG GPRESSAVG
ENERGY: 0 8.8003 19.5346 3.9205 0.0000 -10819.6299 1452.7628 0.0000 0.0000 1754.5145 -7580.0971 295.5353 -9334.6116 -7580.0971 295.5353 -216.7001 -127.7618 30540.4120 -216.7001 -127.7618
ENERGY: 300000 3.3611 11.0977 4.6200 0.0000 -10929.4013 1588.5978 0.0000 0.0000 1784.7734 -7536.9512 300.6322 -9321.7246 -7528.8250 296.8607 505.1772 548.3980 31319.1015 139.5219 179.7462
ENERGY: 600000 5.2254 12.9563 4.6318 0.0000 -10838.1409 1508.6615 0.0000 0.0000 1797.8720 -7508.7940 302.8386 -9306.6659 -7533.0606 299.9219 509.7107 590.7009 30447.9387 114.0068 186.5291
ENERGY: 900000 3.0036 11.6989 7.3740 0.0000 -10848.5213 1517.8424 0.0000 0.0000 1817.4395 -7491.1629 306.1346 -9308.6024 -7511.5237 300.7813 456.7814 517.4727 30834.4563 -8.4552 60.1810
ENERGY: 1200000 4.5009 12.8359 3.8898 0.0000 -10816.4982 1485.7338 0.0000 0.0000 1840.5076 -7469.0301 310.0203 -9309.5378 -7512.7873 301.3724 552.8792 551.0778 30191.0641 44.0635 106.5154
ENERGY: 1500000 4.2300 18.5993 4.1387 0.0000 -10655.8494 1404.0703 0.0000 0.0000 1768.0492 -7456.7619 297.8152 -9224.8111 -7518.1294 300.3040 -225.1596 -166.0334 31028.9632 -47.6146 21.3148
TCL: Running FEP window  18: Lambda1 0.8500000000000002 Lambda2 0.9000000000000002 [dLambda 0.050000000000000044]
TCL: Setting parameter firsttimestep to 0
TCL: Setting parameter alchLambda to 0.8500000000000002
Info: NONBONDED TABLE R-SQUARED SPACING: 0.0625
Info: NONBONDED TABLE SIZE: 705 POINTS
TCL: Setting parameter alchLambda2 to 0.9000000000000002
Info: NONBONDED TABLE R-SQUARED SPACING: 0.0625
Info: NONBONDED TABLE SIZE: 705 POINTS
TCL: Running for 1500000 steps
ETITLE: TS BOND ANGLE DIHED IMPRP ELECT VDW BOUNDARY MISC KINETIC TOTAL TEMP POTENTIAL TOTALAVG TEMPAVG PRESSURE GPRESSURE VOLUME PRESSAVG GPRESSAVG
ENERGY: 0 4.2300 18.5993 4.1387 0.0000 -10656.9924 1404.9446 0.0000 0.0000 1767.1699 -7457.9099 297.6671 -9225.0798 -7457.9099 297.6671 -226.4213 -146.1193 31028.9632 -226.4213 -146.1193
ENERGY: 300000 4.7522 13.4903 4.2352 0.0000 -10891.4862 1497.1637 0.0000 0.0000 1791.8626 -7579.9823 301.8264 -9371.8448 -7494.3278 303.0125 323.1219 346.9974 30667.7684 -234.3517 -180.0151
ENERGY: 600000 5.5948 12.2765 4.1160 0.0000 -10723.5059 1424.2585 0.0000 0.0000 1804.7017 -7472.5583 303.9890 -9277.2601 -7486.3980 303.6399 -187.6411 -90.2068 30767.9862 -137.5036 -74.8268
ENERGY: 900000 2.2076 11.7813 4.2410 0.0000 -10735.5560 1435.9643 0.0000 0.0000 1755.4680 -7525.8938 295.6960 -9281.3618 -7516.6438 300.2038 -65.9376 -45.9852 30712.0369 57.6445 109.5599
ENERGY: 1200000 5.1670 9.7655 2.7979 0.0000 -10668.1640 1441.9126 0.0000 0.0000 1749.9455 -7458.5755 294.7657 -9208.5210 -7512.0355 300.5431 500.6544 501.3157 30810.3663 42.7833 92.6663
ENERGY: 1500000 5.8304 15.5867 6.1547 0.0000 -10802.3246 1438.7314 0.0000 0.0000 1826.4719 -7509.5493 307.6561 -9336.0213 -7517.5730 300.5384 92.2567 139.1440 30259.6839 -7.2881 47.9309
TCL: Running FEP window  19: Lambda1 0.9000000000000002 Lambda2 0.9500000000000003 [dLambda 0.050000000000000044]
TCL: Setting parameter firsttimestep to 0
TCL: Setting parameter alchLambda to 0.9000000000000002
Info: NONBONDED TABLE R-SQUARED SPACING: 0.0625
Info: NONBONDED TABLE SIZE: 705 POINTS
TCL: Setting parameter alchLambda2 to 0.9500000000000003
Info: NONBONDED TABLE R-SQUARED SPACING: 0.0625
Info: NONBONDED TABLE SIZE: 705 POINTS
TCL: Running for 1500000 steps
ETITLE: TS BOND ANGLE DIHED IMPRP ELECT VDW BOUNDARY MISC KINETIC TOTAL TEMP POTENTIAL TOTALAVG TEMPAVG PRESSURE GPRESSURE VOLUME PRESSAVG GPRESSAVG
ENERGY: 0 5.8304 15.5867 6.1548 0.0000 -10803.5673 1439.0835 0.0000 0.0000 1825.6128 -7511.2990 307.5114 -9336.9119 -7511.2990 307.5114 69.0485 157.8468 30259.6839 69.0485 157.8468
ENERGY: 300000 4.1209 13.6285 3.6044 0.0000 -10792.1029 1451.8978 0.0000 0.0000 1751.8622 -7566.9890 295.0886 -9318.8512 -7519.1145 301.6505 95.7168 130.7810 30584.0145 -60.7706 -4.0216
ENERGY: 600000 4.3231 11.6259 6.4157 0.0000 -10789.6588 1471.4152 0.0000 0.0000 1744.9897 -7550.8891 293.9310 -9295.8788 -7545.8874 299.8695 446.0821 515.8322 30192.7370 -68.2211 -13.1956
ENERGY: 900000 6.8127 13.2600 7.2981 0.0000 -10799.9000 1479.3304 0.0000 0.0000 1753.1171 -7540.0817 295.3000 -9293.1989 -7535.0614 300.4091 117.7981 136.6181 30759.2959 -48.8442 13.9965
ENERGY: 1200000 2.7120 10.8225 3.5848 0.0000 -10571.1251 1352.0567 0.0000 0.0000 1741.7970 -7460.1521 293.3932 -9201.9491 -7530.0443 299.2734 -620.9903 -633.8621 31146.9970 -156.0487 -92.9729
ENERGY: 1500000 4.3451 11.6207 4.3486 0.0000 -10738.1932 1414.5099 0.0000 0.0000 1831.2710 -7472.0980 308.4644 -9303.3690 -7521.2434 300.9600 -325.3913 -309.4448 30803.8556 -120.3301 -59.1475
TCL: Running FEP window  20: Lambda1 0.9500000000000003 Lambda2 1.0    [dLambda 0.04999999999999971]
TCL: Setting parameter firsttimestep to 0
TCL: Setting parameter alchLambda to 0.9500000000000003
Info: NONBONDED TABLE R-SQUARED SPACING: 0.0625
Info: NONBONDED TABLE SIZE: 705 POINTS
TCL: Setting parameter alchLambda2 to 1.0
Info: NONBONDED TABLE R-SQUARED SPACING: 0.0625
Info: NONBONDED TABLE SIZE: 705 POINTS
TCL: Running for 1500000 steps
ETITLE: TS BOND ANGLE DIHED IMPRP ELECT VDW BOUNDARY MISC KINETIC TOTAL TEMP POTENTIAL TOTALAVG TEMPAVG PRESSURE GPRESSURE VOLUME PRESSAVG GPRESSAVG
ENERGY: 0 4.3451 11.6207 4.3486 0.0000 -10738.6803 1414.7347 0.0000 0.0000 1830.3981 -7473.2332 308.3174 -9303.6312 -7473.2332 308.3174 -379.2253 -292.7188 30803.8556 -379.2253 -292.7188
ENERGY: 300000 3.9565 14.4310 7.8115 0.0000 -10863.4177 1440.1371 0.0000 0.0000 1784.8740 -7612.2076 300.6492 -9397.0816 -7517.5749 303.9597 -361.5950 -361.8771 30814.9203 -34.1386 25.4519
ENERGY: 600000 4.4073 10.9121 4.8163 0.0000 -10806.0752 1400.2003 0.0000 0.0000 1791.5682 -7594.1709 301.7768 -9385.7391 -7528.9714 303.1345 -341.6872 -239.8137 30301.3360 52.0982 123.2061
ENERGY: 900000 2.5920 14.5769 5.1516 0.0000 -10664.8955 1395.2317 0.0000 0.0000 1801.3847 -7445.9584 303.4303 -9247.3431 -7523.7007 302.1407 -412.7007 -350.0296 31091.7920 -10.2098 58.3344
ENERGY: 1200000 3.2109 8.4538 6.4846 0.0000 -10742.6426 1416.6980 0.0000 0.0000 1790.5073 -7517.2879 301.5981 -9307.7952 -7529.9614 300.4831 -362.6066 -327.9381 31299.1137 -15.3806 47.7648
ENERGY: 1500000 2.4296 8.8833 4.1020 0.0000 -10751.8802 1449.9060 0.0000 0.0000 1786.7323 -7499.8270 300.9622 -9286.5593 -7533.9157 299.7087 288.7397 397.7854 30773.9473 -23.8465 36.5881
TCL: Exiting due to exit command.
