Info: SIMULATION PARAMETERS:
Info: TIMESTEP               2
Info: NUMBER OF STEPS        0
Info: STEPS PER CYCLE        10
Info: PERIODIC CELL BASIS 1  31.1428 0 0
Info: PERIODIC CELL BASIS 2  0 30.4966 0
Info: PERIODIC CELL BASIS 3  0 0 32.2226
Info: PERIODIC CELL CENTER   0 0 0
Info: WRAPPING WATERS AROUND PERIODIC BOUNDARIES ON OUTPUT.
Info: WRAPPING ALL CLUSTERS AROUND PERIODIC BOUNDARIES ON OUTPUT.
Info: FIRST LDB TIMESTEP     50
Info: LAST LDB TIMESTEP     -1
Info: HOM BACKGROUND SCALING 1
Info: PME BACKGROUND SCALING 1
Info: MIN ATOMS PER PATCH    40
Info: EMPTY PATCH LOAD       40 ATOMS
Info: VELOCITY FILE          mobley_5347550_equil.vel
Info: CENTER OF MASS MOVING INITIALLY? NO
Info: DIELECTRIC             1
Info: EXCLUDE                SCALED ONE-FOUR
Info: 1-4 ELECTROSTATICS SCALED BY 0.833333
Info: MODIFIED 1-4 VDW PARAMETERS WILL BE USED
Info: DCD FILENAME           mobley_5347550_prod.dcd
Info: DCD FREQUENCY          100000
Info: DCD FIRST STEP         100000
Info: DCD FILE WILL CONTAIN UNIT CELL DATA
Info: XST FILENAME           mobley_5347550_prod.xst
Info: XST FREQUENCY          100000
Info: NO VELOCITY DCD OUTPUT
Info: NO FORCE DCD OUTPUT
Info: OUTPUT FILENAME        mobley_5347550_prod
Info: BINARY OUTPUT FILES WILL BE USED
Info: RESTART FILENAME       mobley_5347550_prod.restart
Info: RESTART FREQUENCY      100000
Info: BINARY RESTART FILES WILL BE USED
Info: CUTOFF                 9
Info: PAIRLIST DISTANCE      11
Info: PAIRLIST SHRINK RATE   0.01
Info: PAIRLIST GROW RATE     0.01
Info: PAIRLIST TRIGGER       0.3
Info: PAIRLISTS PER CYCLE    2
Info: PAIRLISTS ENABLED
Info: MARGIN                 2
Info: HYDROGEN GROUP CUTOFF  2.5
Info: PATCH DIMENSION        15.5
Info: ENERGY OUTPUT STEPS    100000
Info: ENERGY EVALUATION STEPS    100000
Info: OUTPUT ENERGY PRECISION 4
Info: CROSSTERM ENERGY INCLUDED IN DIHEDRAL
Info: TIMING OUTPUT STEPS    1000000
Info: PRESSURE OUTPUT STEPS  100000
Info: ALCHEMICAL FEP ON
Info: FEP CURRENT LAMBDA VALUE     0
Info: FEP COMPARISON LAMBDA VALUE  0.05
Info: FEP INTRA-ALCHEMICAL NON-BONDED INTERACTIONS WILL BE RETAINED
Info: FEP INTRA-ALCHEMICAL BONDED INTERACTIONS WILL BE RETAINED
Info: FEP VDW SHIFTING COEFFICIENT 5
Info: FEP ELEC. ACTIVE FOR ANNIHILATED PARTICLES BETWEEN LAMBDA = 0 AND LAMBDA = 0.5
Info: FEP ELEC. ACTIVE FOR EXNIHILATED PARTICLES BETWEEN LAMBDA = 0.5 AND LAMBDA = 1
Info: FEP VDW ACTIVE FOR ANNIHILATED PARTICLES BETWEEN LAMBDA = 0 AND LAMBDA = 1
Info: FEP VDW ACTIVE FOR EXNIHILATED PARTICLES BETWEEN LAMBDA = 0 AND LAMBDA = 1
Info: FEP BOND ACTIVE FOR ANNIHILATED PARTICLES BETWEEN LAMBDA = 1 AND LAMBDA = 1
Info: FEP BOND ACTIVE FOR EXNIHILATED PARTICLES BETWEEN LAMBDA = 0 AND LAMBDA = 0
Info: LANGEVIN DYNAMICS ACTIVE
Info: LANGEVIN TEMPERATURE   300
Info: LANGEVIN USING BBK INTEGRATOR
Info: LANGEVIN DAMPING COEFFICIENT IS 1 INVERSE PS
Info: LANGEVIN DYNAMICS APPLIED TO HYDROGENS
Info: LANGEVIN PISTON PRESSURE CONTROL ACTIVE
Info:        TARGET PRESSURE IS 1.01325 BAR
Info:     OSCILLATION PERIOD IS 50 FS
Info:             DECAY TIME IS 25 FS
Info:     PISTON TEMPERATURE IS 300 K
Info:       PRESSURE CONTROL IS GROUP-BASED
Info:    INITIAL STRAIN RATE IS -6.04337e-05 -6.04337e-05 -6.04337e-05
Info:       CELL FLUCTUATION IS ISOTROPIC
Info: PARTICLE MESH EWALD (PME) ACTIVE
Info: PME TOLERANCE               1e-06
Info: PME EWALD COEFFICIENT       0.348832
Info: PME INTERPOLATION ORDER     4
Info: PME GRID DIMENSIONS         32 32 36
Info: PME MAXIMUM GRID SPACING    1
Info: PME CALCULATION WILL BE PERFORMED ON GPU
Info: FULL ELECTROSTATIC EVALUATION FREQUENCY      2
Info: USING VERLET I (r-RESPA) MTS SCHEME.
Info: C1 SPLITTING OF LONG RANGE ELECTROSTATICS
Info: PLACING ATOMS IN PATCHES BY HYDROGEN GROUPS
Info: RIGID BONDS TO HYDROGEN : ALL
Info:         ERROR TOLERANCE : 1e-08
Info:          MAX ITERATIONS : 100
Info: RIGID WATER USING SETTLE ALGORITHM
Info: RANDOM NUMBER SEED     1743825382
Info: USE HYDROGEN BONDS?    NO
Info: Using AMBER format force field!
Info: AMBER PARM FILE        mobley_5347550.prmtop
Info: COORDINATE PDB         mobley_5347550.pdb
Info: Exclusions will be read from PARM file!
Info: SCNB (VDW SCALING)     2
Info: USING ARITHMETIC MEAN TO COMBINE L-J SIGMA PARAMETERS
Info: BINARY COORDINATES     mobley_5347550_equil.coor
Info: SUMMARY OF PARAMETERS:
Info: 8 BONDS
Info: 11 ANGLES
Info:   11 HARMONIC
Info:   0 COSINE-BASED
Info: 4 DIHEDRAL
Info: 0 IMPROPER
Info: 0 CROSSTERM
Info: 0 VDW
Info: 36 VDW_PAIRS
Info: 0 NBTHOLE_PAIRS
Info: To read alchdata from file: mobley_5347550.pdb
Info: To read alchflag data from column: 5
Info: STRUCTURE SUMMARY:
Info: 2952 ATOMS
Info: 2951 BONDS
Info: 19 ANGLES
Info: 16 DIHEDRALS
Info: 0 IMPROPERS
Info: 0 CROSSTERMS
Info: 2985 EXCLUSIONS
Info: 2944 RIGID BONDS
Info: ALCH: 0 ATOMS TO DISAPPEAR IN FINAL STATE
Info: ALCH: 12 ATOMS TO APPEAR IN FINAL STATE
Info: 5912 DEGREES OF FREEDOM
Info: 988 HYDROGEN GROUPS
Info: 4 ATOMS IN LARGEST HYDROGEN GROUP
Info: 988 MIGRATION GROUPS
Info: 4 ATOMS IN LARGEST MIGRATION GROUP
Info: TOTAL MASS = 17820.6 amu
Info: TOTAL CHARGE = 0.00010002 e
Info: MASS DENSITY = 0.966969 g/cm^3
Info: ATOM DENSITY = 0.0964598 atoms/A^3
Info: ADDED 0 IMPLICIT EXCLUSIONS
Info: NONBONDED TABLE R-SQUARED SPACING: 0.0625
Info: NONBONDED TABLE SIZE: 705 POINTS
Info: REMOVING COM VELOCITY -0.0555021 -0.00625518 -0.0342422
Info: Use 3D box decompostion in PME FFT.
Info: Updated CUDA force table with 4096 elements.
Info: Updated CUDA LJ table with 8 x 8 elements.
Info: Found 15 unique exclusion lists needing 28 bytes
TCL: Running for 1500000 steps
ETITLE: TS BOND ANGLE DIHED IMPRP ELECT VDW BOUNDARY MISC KINETIC TOTAL TEMP POTENTIAL TOTALAVG TEMPAVG PRESSURE GPRESSURE VOLUME PRESSAVG GPRESSAVG
ENERGY: 0 3.0249 3.6605 0.1970 0.0000 -10765.6942 1449.6436 0.0000 0.0000 1802.2533 -7506.9149 306.8116 -9309.1683 -7506.9149 306.8116 -223.6170 -143.0450 30603.4381 -223.6170 -143.0450
ENERGY: 300000 0.9368 4.4597 1.6190 0.0000 -10585.5458 1396.1684 0.0000 0.0000 1773.3153 -7409.0466 301.8853 -9182.3619 -7471.6410 305.3442 -27.5592 31.1946 30149.5293 -299.9474 -234.3579
ENERGY: 600000 1.3576 8.4744 0.9209 0.0000 -10678.3650 1448.5701 0.0000 0.0000 1760.2916 -7458.7503 299.6681 -9219.0420 -7475.7974 304.5088 415.4512 484.6573 29938.8785 0.8161 58.8345
ENERGY: 900000 3.7588 8.7851 2.4554 0.0000 -10714.6868 1457.5569 0.0000 0.0000 1714.0227 -7528.1080 291.7914 -9242.1307 -7482.7572 302.7768 -544.0128 -395.7478 30965.0851 -33.6636 36.2583
ENERGY: 1200000 2.2846 7.2065 0.7576 0.0000 -10516.0527 1320.2160 0.0000 0.0000 1730.0095 -7455.5786 294.5130 -9185.5880 -7478.0676 302.3330 -925.9624 -889.2749 30885.3711 -36.3014 28.6821
ENERGY: 1500000 0.9799 7.1318 1.4813 0.0000 -10827.1109 1499.5820 0.0000 0.0000 1812.8904 -7505.0453 308.6225 -9317.9357 -7480.4834 303.5141 151.6453 235.6436 30443.6411 -59.9152 7.9417
TCL: Running FEP window   2: Lambda1 0.05   Lambda2 0.1    [dLambda 0.05  ]
TCL: Setting parameter firsttimestep to 0
TCL: Setting parameter alchLambda to 0.05
Info: NONBONDED TABLE R-SQUARED SPACING: 0.0625
Info: NONBONDED TABLE SIZE: 705 POINTS
TCL: Setting parameter alchLambda2 to 0.1
Info: NONBONDED TABLE R-SQUARED SPACING: 0.0625
Info: NONBONDED TABLE SIZE: 705 POINTS
TCL: Running for 1500000 steps
ETITLE: TS BOND ANGLE DIHED IMPRP ELECT VDW BOUNDARY MISC KINETIC TOTAL TEMP POTENTIAL TOTALAVG TEMPAVG PRESSURE GPRESSURE VOLUME PRESSAVG GPRESSAVG
ENERGY: 0 0.9799 7.1318 1.4813 0.0000 -10827.1103 1503.0443 0.0000 0.0000 1812.0130 -7502.4599 308.4731 -9314.4729 -7502.4599 308.4731 158.1040 243.5809 30443.6411 158.1040 243.5809
ENERGY: 300000 2.1869 8.4685 1.0525 0.0000 -10746.2715 1459.1830 0.0000 0.0000 1857.8086 -7417.5719 316.2692 -9275.3806 -7463.3278 307.4242 50.8172 196.0809 30302.1157 245.3509 334.0676
ENERGY: 600000 0.8289 4.9684 0.5166 0.0000 -10853.6233 1529.1462 0.0000 0.0000 1755.7971 -7562.3660 298.9030 -9318.1631 -7458.0367 305.6771 443.6153 457.4958 30497.4339 105.7746 169.3035
ENERGY: 900000 1.1802 6.6024 0.9590 0.0000 -10606.8169 1387.8119 0.0000 0.0000 1760.2434 -7450.0201 299.6599 -9210.2634 -7459.4016 305.1309 -176.4552 -34.2288 30224.7498 118.2759 188.6011
ENERGY: 1200000 2.0394 7.8995 0.9320 0.0000 -10780.7031 1511.8227 0.0000 0.0000 1797.3251 -7460.6845 305.9726 -9258.0096 -7458.6298 304.7444 787.5670 880.9642 29941.2140 144.4193 209.2551
ENERGY: 1500000 0.4303 5.3628 0.7380 0.0000 -10663.6725 1522.0684 0.0000 0.0000 1782.7651 -7352.3078 303.4940 -9135.0730 -7462.7329 303.5811 1061.4446 1076.8953 30205.0075 144.2417 210.0055
TCL: Running FEP window   3: Lambda1 0.1    Lambda2 0.15000000000000002 [dLambda 0.05000000000000002]
TCL: Setting parameter firsttimestep to 0
TCL: Setting parameter alchLambda to 0.1
Info: NONBONDED TABLE R-SQUARED SPACING: 0.0625
Info: NONBONDED TABLE SIZE: 705 POINTS
TCL: Setting parameter alchLambda2 to 0.15000000000000002
Info: NONBONDED TABLE R-SQUARED SPACING: 0.0625
Info: NONBONDED TABLE SIZE: 705 POINTS
TCL: Running for 1500000 steps
ETITLE: TS BOND ANGLE DIHED IMPRP ELECT VDW BOUNDARY MISC KINETIC TOTAL TEMP POTENTIAL TOTALAVG TEMPAVG PRESSURE GPRESSURE VOLUME PRESSAVG GPRESSAVG
ENERGY: 0 0.4303 5.3628 0.7380 0.0000 -10663.6731 1524.8519 0.0000 0.0000 1781.8929 -7350.3972 303.3455 -9132.2901 -7350.3972 303.3455 1004.5734 1088.7431 30205.0075 1004.5734 1088.7431
ENERGY: 300000 1.0444 7.7071 1.1517 0.0000 -10630.2642 1409.2250 0.0000 0.0000 1760.0010 -7451.1349 299.6187 -9211.1359 -7397.1209 300.7404 -33.4617 -47.2782 30348.3709 368.9268 435.0881
ENERGY: 600000 1.2402 5.4299 0.2391 0.0000 -10735.7552 1451.4254 0.0000 0.0000 1802.0094 -7475.4112 306.7701 -9277.4205 -7423.2982 302.2349 -252.0064 -125.6236 30530.5340 77.6450 142.9393
ENERGY: 900000 1.5883 4.2965 0.1341 0.0000 -10661.8974 1385.8783 0.0000 0.0000 1770.2456 -7499.7546 301.3627 -9270.0002 -7444.2038 301.8215 -495.7715 -411.9837 30304.1095 -19.3031 45.0739
ENERGY: 1200000 2.8615 6.8400 0.1529 0.0000 -10784.5365 1498.8326 0.0000 0.0000 1769.8731 -7505.9764 301.2993 -9275.8495 -7458.8988 300.7203 362.1717 420.4963 30201.9493 -26.3903 36.7150
ENERGY: 1500000 2.8615 5.9220 0.7897 0.0000 -10780.2173 1462.7178 0.0000 0.0000 1792.5433 -7515.3832 305.1586 -9307.9265 -7463.1069 300.9437 69.6461 139.4569 30073.4477 -14.0066 47.8052
TCL: Running FEP window   4: Lambda1 0.15000000000000002 Lambda2 0.2    [dLambda 0.04999999999999999]
TCL: Setting parameter firsttimestep to 0
TCL: Setting parameter alchLambda to 0.15000000000000002
Info: NONBONDED TABLE R-SQUARED SPACING: 0.0625
Info: NONBONDED TABLE SIZE: 705 POINTS
TCL: Setting parameter alchLambda2 to 0.2
Info: NONBONDED TABLE R-SQUARED SPACING: 0.0625
Info: NONBONDED TABLE SIZE: 705 POINTS
TCL: Running for 1500000 steps
ETITLE: TS BOND ANGLE DIHED IMPRP ELECT VDW BOUNDARY MISC KINETIC TOTAL TEMP POTENTIAL TOTALAVG TEMPAVG PRESSURE GPRESSURE VOLUME PRESSAVG GPRESSAVG
ENERGY: 0 2.8615 5.9220 0.7897 0.0000 -10780.2208 1463.1029 0.0000 0.0000 1791.6337 -7515.9111 305.0038 -9307.5448 -7515.9111 305.0038 64.5952 145.6061 30073.4477 64.5952 145.6061
ENERGY: 300000 2.1814 4.2589 0.4222 0.0000 -10657.5869 1418.2003 0.0000 0.0000 1791.3799 -7441.1442 304.9605 -9232.5241 -7457.8969 306.6683 -106.3960 16.6408 30097.8108 -175.2645 -99.9865
ENERGY: 600000 1.5343 4.4533 0.4127 0.0000 -10700.3099 1389.3174 0.0000 0.0000 1783.6322 -7520.9601 303.6416 -9304.5923 -7464.9202 305.5673 -507.4696 -456.9852 30100.5919 -252.4373 -175.5108
ENERGY: 900000 0.4831 4.0067 0.2580 0.0000 -10767.8801 1496.3058 0.0000 0.0000 1736.4146 -7530.4119 295.6034 -9266.8265 -7472.9829 304.4546 281.9315 249.5928 30536.8333 -49.4382 19.9175
ENERGY: 1200000 2.5003 4.3938 0.8333 0.0000 -10663.4093 1437.9422 0.0000 0.0000 1743.8842 -7473.8555 296.8750 -9217.7397 -7479.6090 302.1271 7.6993 127.2337 30234.5040 -87.5499 -12.9051
ENERGY: 1500000 3.2587 6.9688 0.8876 0.0000 -10902.1678 1521.5050 0.0000 0.0000 1790.9985 -7578.5492 304.8956 -9369.5477 -7493.7069 301.6525 666.5655 723.6147 29625.0847 -25.0511 49.1965
TCL: Running FEP window   5: Lambda1 0.2    Lambda2 0.25   [dLambda 0.04999999999999999]
TCL: Setting parameter firsttimestep to 0
TCL: Setting parameter alchLambda to 0.2
Info: NONBONDED TABLE R-SQUARED SPACING: 0.0625
Info: NONBONDED TABLE SIZE: 705 POINTS
TCL: Setting parameter alchLambda2 to 0.25
Info: NONBONDED TABLE R-SQUARED SPACING: 0.0625
Info: NONBONDED TABLE SIZE: 705 POINTS
TCL: Running for 1500000 steps
ETITLE: TS BOND ANGLE DIHED IMPRP ELECT VDW BOUNDARY MISC KINETIC TOTAL TEMP POTENTIAL TOTALAVG TEMPAVG PRESSURE GPRESSURE VOLUME PRESSAVG GPRESSAVG
ENERGY: 0 3.2587 6.9688 0.8876 0.0000 -10902.1677 1522.1819 0.0000 0.0000 1790.1342 -7578.7365 304.7485 -9368.8707 -7578.7365 304.7485 657.7497 730.1504 29625.0847 657.7497 730.1504
ENERGY: 300000 2.2374 5.6064 1.4136 0.0000 -10606.3225 1400.3026 0.0000 0.0000 1768.2734 -7428.4892 301.0270 -9196.7626 -7495.1838 301.5046 -558.6951 -538.1233 31325.4973 -196.5580 -146.8572
ENERGY: 600000 3.7242 3.1288 0.7838 0.0000 -10612.8430 1383.1866 0.0000 0.0000 1717.2243 -7504.7953 292.3365 -9222.0196 -7495.2359 301.1895 -479.6506 -401.6149 30676.4943 -358.0740 -293.8288
ENERGY: 900000 2.3216 2.5535 0.4824 0.0000 -10717.8319 1455.1526 0.0000 0.0000 1800.7176 -7456.6042 306.5502 -9257.3218 -7474.5513 302.4715 229.4109 338.5601 30048.0262 -256.1012 -182.3451
ENERGY: 1200000 1.9237 6.8453 0.1514 0.0000 -10838.1720 1491.4181 0.0000 0.0000 1726.3786 -7611.4549 293.8949 -9337.8334 -7485.8777 301.3787 -3.3017 48.4197 30219.6060 -341.8168 -268.5965
ENERGY: 1500000 1.9165 2.0886 0.5248 0.0000 -10766.2968 1470.1616 0.0000 0.0000 1785.3020 -7506.3032 303.9259 -9291.6052 -7488.8361 301.5463 -128.4884 -51.2435 30525.3164 -263.3293 -189.7932
TCL: Running FEP window   6: Lambda1 0.25   Lambda2 0.3    [dLambda 0.04999999999999999]
TCL: Setting parameter firsttimestep to 0
TCL: Setting parameter alchLambda to 0.25
Info: NONBONDED TABLE R-SQUARED SPACING: 0.0625
Info: NONBONDED TABLE SIZE: 705 POINTS
TCL: Setting parameter alchLambda2 to 0.3
Info: NONBONDED TABLE R-SQUARED SPACING: 0.0625
Info: NONBONDED TABLE SIZE: 705 POINTS
TCL: Running for 1500000 steps
ETITLE: TS BOND ANGLE DIHED IMPRP ELECT VDW BOUNDARY MISC KINETIC TOTAL TEMP POTENTIAL TOTALAVG TEMPAVG PRESSURE GPRESSURE VOLUME PRESSAVG GPRESSAVG
ENERGY: 0 1.9165 2.0886 0.5248 0.0000 -10766.2977 1470.9202 0.0000 0.0000 1784.4680 -7506.3795 303.7839 -9290.8476 -7506.3795 303.7839 -116.7603 -42.4495 30525.3164 -116.7603 -42.4495
ENERGY: 300000 2.5600 8.0162 0.2052 0.0000 -10620.8723 1383.2251 0.0000 0.0000 1796.7818 -7430.0841 305.8801 -9226.8658 -7465.8683 303.1387 -511.2541 -512.8889 30683.6469 -512.1020 -439.7935
ENERGY: 600000 2.6952 3.9319 0.3982 0.0000 -10657.2368 1424.9383 0.0000 0.0000 1773.2449 -7452.0282 301.8733 -9225.2731 -7440.5965 304.2169 148.9442 121.3016 29906.2827 -350.4789 -293.2947
ENERGY: 900000 1.6562 8.6233 1.3281 0.0000 -10610.8391 1379.4650 0.0000 0.0000 1770.5190 -7449.2476 301.4092 -9219.7666 -7444.2844 303.0652 -324.3664 -287.7871 30628.7787 -287.3721 -231.5939
ENERGY: 1200000 2.0995 8.7790 0.6828 0.0000 -10766.3848 1474.7226 0.0000 0.0000 1817.1273 -7462.9735 309.3437 -9280.1008 -7448.9926 303.7510 487.6332 476.4410 30108.2241 -195.3697 -144.5179
ENERGY: 1500000 1.5311 6.1432 0.3052 0.0000 -10798.3260 1536.5613 0.0000 0.0000 1700.6006 -7553.1846 289.5065 -9253.7852 -7461.3078 302.5572 766.5579 865.2697 30055.4800 -162.5504 -106.6130
TCL: Running FEP window   7: Lambda1 0.3    Lambda2 0.35   [dLambda 0.04999999999999999]
TCL: Setting parameter firsttimestep to 0
TCL: Setting parameter alchLambda to 0.3
Info: NONBONDED TABLE R-SQUARED SPACING: 0.0625
Info: NONBONDED TABLE SIZE: 705 POINTS
TCL: Setting parameter alchLambda2 to 0.35
Info: NONBONDED TABLE R-SQUARED SPACING: 0.0625
Info: NONBONDED TABLE SIZE: 705 POINTS
TCL: Running for 1500000 steps
ETITLE: TS BOND ANGLE DIHED IMPRP ELECT VDW BOUNDARY MISC KINETIC TOTAL TEMP POTENTIAL TOTALAVG TEMPAVG PRESSURE GPRESSURE VOLUME PRESSAVG GPRESSAVG
ENERGY: 0 1.5311 6.1432 0.3052 0.0000 -10798.3269 1537.6818 0.0000 0.0000 1699.7321 -7552.9335 289.3586 -9252.6655 -7552.9335 289.3586 787.3146 874.2615 30055.4800 787.3146 874.2615
ENERGY: 300000 2.6170 4.7533 0.5362 0.0000 -10530.3076 1279.2175 0.0000 0.0000 1696.5036 -7546.6799 288.8090 -9243.1835 -7532.9334 296.1667 -1261.4127 -1161.0566 30154.7395 -177.7468 -101.9713
ENERGY: 600000 2.5854 3.6308 1.6387 0.0000 -10636.5474 1409.0514 0.0000 0.0000 1775.8058 -7443.8353 302.3092 -9219.6411 -7517.6856 297.2432 -261.3085 -228.2140 30456.8540 -29.9668 30.0906
ENERGY: 900000 3.8359 3.2994 0.2442 0.0000 -10784.2363 1454.9930 0.0000 0.0000 1737.9182 -7583.9456 295.8593 -9321.8638 -7525.2011 296.7545 -93.4934 -87.0383 30229.6605 -16.8567 30.1975
ENERGY: 1200000 3.8459 3.7053 0.9182 0.0000 -10708.9150 1435.9297 0.0000 0.0000 1764.7637 -7499.7521 300.4295 -9264.5158 -7506.9616 298.1264 1.6926 55.9264 30152.7871 79.1712 126.9247
ENERGY: 1500000 3.2918 5.0200 1.2060 0.0000 -10610.5762 1362.3367 0.0000 0.0000 1771.3439 -7467.3778 301.5497 -9238.7217 -7510.7367 298.7390 -448.4399 -394.3535 30267.2194 59.5652 109.1099
TCL: Running FEP window   8: Lambda1 0.35   Lambda2 0.39999999999999997 [dLambda 0.04999999999999999]
TCL: Setting parameter firsttimestep to 0
TCL: Setting parameter alchLambda to 0.35
Info: NONBONDED TABLE R-SQUARED SPACING: 0.0625
Info: NONBONDED TABLE SIZE: 705 POINTS
TCL: Setting parameter alchLambda2 to 0.39999999999999997
Info: NONBONDED TABLE R-SQUARED SPACING: 0.0625
Info: NONBONDED TABLE SIZE: 705 POINTS
TCL: Running for 1500000 steps
ETITLE: TS BOND ANGLE DIHED IMPRP ELECT VDW BOUNDARY MISC KINETIC TOTAL TEMP POTENTIAL TOTALAVG TEMPAVG PRESSURE GPRESSURE VOLUME PRESSAVG GPRESSAVG
ENERGY: 0 3.2919 5.0200 1.2061 0.0000 -10610.5754 1362.1290 0.0000 0.0000 1770.4792 -7468.4493 301.4025 -9238.9285 -7468.4493 301.4025 -461.2592 -390.9140 30267.2194 -461.2592 -390.9140
ENERGY: 300000 4.0842 4.5877 0.5047 0.0000 -10731.4460 1448.5190 0.0000 0.0000 1742.5413 -7531.2091 296.6464 -9273.7504 -7527.8983 298.9999 -9.1881 48.0764 30379.0381 272.3445 329.8307
ENERGY: 600000 2.4007 2.1894 0.1985 0.0000 -10808.5963 1548.1204 0.0000 0.0000 1787.0384 -7468.6488 304.2215 -9255.6872 -7529.6017 299.8752 1015.6848 1091.8845 30084.0742 365.7825 422.4354
ENERGY: 900000 1.8789 5.8168 0.1494 0.0000 -10598.5134 1401.6797 0.0000 0.0000 1840.0016 -7348.9871 313.2378 -9188.9887 -7501.9742 301.5568 -179.9057 -93.3411 30620.3265 275.5375 337.3075
ENERGY: 1200000 1.5052 5.8956 0.0871 0.0000 -10754.5152 1511.0616 0.0000 0.0000 1758.2056 -7477.7602 299.3130 -9235.9658 -7486.6466 301.7372 332.1327 406.0580 30872.3593 267.1451 333.4879
ENERGY: 1500000 1.6225 3.0820 0.5369 0.0000 -10679.3146 1425.1784 0.0000 0.0000 1776.1820 -7472.7129 302.3733 -9248.8949 -7487.8777 301.8267 -243.1427 -214.9724 30821.9672 249.9663 314.6483
TCL: Running FEP window   9: Lambda1 0.39999999999999997 Lambda2 0.44999999999999996 [dLambda 0.04999999999999999]
TCL: Setting parameter firsttimestep to 0
TCL: Setting parameter alchLambda to 0.39999999999999997
Info: NONBONDED TABLE R-SQUARED SPACING: 0.0625
Info: NONBONDED TABLE SIZE: 705 POINTS
TCL: Setting parameter alchLambda2 to 0.44999999999999996
Info: NONBONDED TABLE R-SQUARED SPACING: 0.0625
Info: NONBONDED TABLE SIZE: 705 POINTS
TCL: Running for 1500000 steps
ETITLE: TS BOND ANGLE DIHED IMPRP ELECT VDW BOUNDARY MISC KINETIC TOTAL TEMP POTENTIAL TOTALAVG TEMPAVG PRESSURE GPRESSURE VOLUME PRESSAVG GPRESSAVG
ENERGY: 0 1.6225 3.0820 0.5369 0.0000 -10679.3148 1424.7908 0.0000 0.0000 1775.3253 -7473.9573 302.2275 -9249.2827 -7473.9573 302.2275 -278.3897 -211.5266 30821.9672 -278.3897 -211.5266
ENERGY: 300000 2.4259 6.9585 0.9101 0.0000 -10816.6084 1448.1414 0.0000 0.0000 1767.0344 -7591.1381 300.8160 -9358.1725 -7505.0083 299.7723 -97.3695 -55.3016 30240.4426 67.5083 121.8183
ENERGY: 600000 1.6402 3.3440 0.5325 0.0000 -10616.5877 1393.9089 0.0000 0.0000 1843.9851 -7373.1769 313.9159 -9217.1620 -7489.5580 300.5046 -247.4128 -223.0867 30255.8175 98.0983 159.4209
ENERGY: 900000 3.8861 6.3483 2.3792 0.0000 -10687.6005 1415.7102 0.0000 0.0000 1744.4285 -7514.8482 296.9676 -9259.2767 -7492.2513 300.9608 -287.8460 -268.0697 30438.1065 -48.0285 11.5862
ENERGY: 1200000 1.9589 5.2405 0.7950 0.0000 -10814.4229 1514.5961 0.0000 0.0000 1736.1607 -7555.6717 295.5602 -9291.8324 -7499.5129 299.8154 610.4529 697.3866 30125.2142 -43.5762 15.0485
ENERGY: 1500000 1.4493 3.4813 1.6084 0.0000 -10750.9198 1425.8606 0.0000 0.0000 1750.8118 -7567.7083 298.0543 -9318.5201 -7495.3598 299.9739 -591.0783 -472.8823 30866.5671 -109.3914 -43.7573
TCL: Running FEP window  10: Lambda1 0.44999999999999996 Lambda2 0.49999999999999994 [dLambda 0.04999999999999999]
TCL: Setting parameter firsttimestep to 0
TCL: Setting parameter alchLambda to 0.44999999999999996
Info: NONBONDED TABLE R-SQUARED SPACING: 0.0625
Info: NONBONDED TABLE SIZE: 705 POINTS
TCL: Setting parameter alchLambda2 to 0.49999999999999994
Info: NONBONDED TABLE R-SQUARED SPACING: 0.0625
Info: NONBONDED TABLE SIZE: 705 POINTS
TCL: Running for 1500000 steps
ETITLE: TS BOND ANGLE DIHED IMPRP ELECT VDW BOUNDARY MISC KINETIC TOTAL TEMP POTENTIAL TOTALAVG TEMPAVG PRESSURE GPRESSURE VOLUME PRESSAVG GPRESSAVG
ENERGY: 0 1.4493 3.4813 1.6084 0.0000 -10750.9180 1425.8264 0.0000 0.0000 1749.9085 -7568.6441 297.9006 -9318.5526 -7568.6441 297.9006 -555.6095 -465.1025 30866.5671 -555.6095 -465.1025
ENERGY: 300000 4.9771 2.6909 0.3510 0.0000 -10723.4821 1420.3894 0.0000 0.0000 1733.6527 -7561.4210 295.1332 -9295.0737 -7523.9958 297.4364 -203.1020 -127.4280 30347.6433 79.0832 139.7152
ENERGY: 600000 2.5327 3.6110 2.4369 0.0000 -10627.7405 1408.8367 0.0000 0.0000 1794.4156 -7415.9076 305.4773 -9210.3231 -7495.7356 299.9247 -201.3118 -154.1422 30687.3965 -186.4596 -136.8729
ENERGY: 900000 3.8444 7.0451 0.2296 0.0000 -10747.7293 1399.5536 0.0000 0.0000 1785.6434 -7551.4132 303.9840 -9337.0566 -7506.1850 300.2703 -738.3226 -636.8652 30404.9265 -180.5079 -124.3318
ENERGY: 1200000 2.5562 4.4752 1.1073 0.0000 -10748.0848 1452.0576 0.0000 0.0000 1757.4952 -7530.3934 299.1921 -9287.8886 -7498.8718 301.2535 -288.3449 -222.1330 30815.6608 -220.8402 -157.1401
ENERGY: 1500000 1.5605 6.3132 0.9709 0.0000 -10794.0833 1505.5276 0.0000 0.0000 1754.0625 -7525.6486 298.6077 -9279.7110 -7499.0533 301.6452 399.8746 504.1448 30332.8094 -178.4324 -107.3537
TCL: Running FEP window  11: Lambda1 0.49999999999999994 Lambda2 0.5499999999999999 [dLambda 0.04999999999999999]
TCL: Setting parameter firsttimestep to 0
TCL: Setting parameter alchLambda to 0.49999999999999994
Info: NONBONDED TABLE R-SQUARED SPACING: 0.0625
Info: NONBONDED TABLE SIZE: 705 POINTS
TCL: Setting parameter alchLambda2 to 0.5499999999999999
Info: NONBONDED TABLE R-SQUARED SPACING: 0.0625
Info: NONBONDED TABLE SIZE: 705 POINTS
TCL: Running for 1500000 steps
ETITLE: TS BOND ANGLE DIHED IMPRP ELECT VDW BOUNDARY MISC KINETIC TOTAL TEMP POTENTIAL TOTALAVG TEMPAVG PRESSURE GPRESSURE VOLUME PRESSAVG GPRESSAVG
ENERGY: 0 1.5605 6.3132 0.9709 0.0000 -10794.0828 1505.4652 0.0000 0.0000 1753.1698 -7526.6031 298.4557 -9279.7729 -7526.6031 298.4557 425.3125 506.9090 30332.8094 425.3125 506.9090
ENERGY: 300000 2.3574 4.8390 0.1246 0.0000 -10579.7522 1360.0920 0.0000 0.0000 1779.1704 -7433.1688 302.8820 -9212.3392 -7463.9042 302.1684 -695.7830 -642.1271 31135.6734 -30.9999 30.0357
ENERGY: 600000 1.7052 4.9937 0.6421 0.0000 -10718.9511 1460.2713 0.0000 0.0000 1754.4026 -7496.9362 298.6656 -9251.3388 -7457.4490 302.2004 152.1346 256.0012 30490.9966 62.8321 119.6265
ENERGY: 900000 0.5599 3.3229 1.9322 0.0000 -10692.6656 1485.8986 0.0000 0.0000 1787.9302 -7413.0218 304.3733 -9200.9519 -7451.8765 301.8266 515.5605 608.3909 30240.0229 51.0454 121.5405
ENERGY: 1200000 4.0021 3.3521 0.3784 0.0000 -10699.1796 1415.8286 0.0000 0.0000 1743.2249 -7532.3935 296.7627 -9275.6184 -7475.8795 300.6275 -253.5794 -176.4821 30085.3096 22.7817 94.5530
ENERGY: 1500000 2.2557 6.5147 0.4102 0.0000 -10717.6877 1441.3255 0.0000 0.0000 1737.4515 -7529.7301 295.7799 -9267.1816 -7483.4328 299.8927 74.4260 191.1688 30312.9832 -33.4086 40.1861
TCL: Running FEP window  12: Lambda1 0.5499999999999999 Lambda2 0.6    [dLambda 0.050000000000000044]
TCL: Setting parameter firsttimestep to 0
TCL: Setting parameter alchLambda to 0.5499999999999999
Info: NONBONDED TABLE R-SQUARED SPACING: 0.0625
Info: NONBONDED TABLE SIZE: 705 POINTS
TCL: Setting parameter alchLambda2 to 0.6
Info: NONBONDED TABLE R-SQUARED SPACING: 0.0625
Info: NONBONDED TABLE SIZE: 705 POINTS
TCL: Running for 1500000 steps
ETITLE: TS BOND ANGLE DIHED IMPRP ELECT VDW BOUNDARY MISC KINETIC TOTAL TEMP POTENTIAL TOTALAVG TEMPAVG PRESSURE GPRESSURE VOLUME PRESSAVG GPRESSAVG
ENERGY: 0 2.2556 6.5147 0.4102 0.0000 -10717.4258 1440.9524 0.0000 0.0000 1736.5231 -7530.7697 295.6219 -9267.2928 -7530.7697 295.6219 106.5099 192.5607 30312.9832 106.5099 192.5607
ENERGY: 300000 4.2143 3.2601 0.9238 0.0000 -10630.3978 1390.9257 0.0000 0.0000 1649.1765 -7581.8974 280.7521 -9231.0739 -7530.3079 294.5248 -415.0486 -360.2365 30208.9290 -307.9002 -251.0874
ENERGY: 600000 2.5353 4.7714 0.2891 0.0000 -10690.4455 1452.9001 0.0000 0.0000 1762.3635 -7467.5860 300.0209 -9229.9495 -7506.8170 296.9527 195.0672 238.9909 30348.2751 73.2396 113.1325
ENERGY: 900000 1.5556 7.3082 0.5664 0.0000 -10652.3666 1420.7621 0.0000 0.0000 1767.3568 -7454.8175 300.8709 -9222.1742 -7487.1269 298.4208 191.5183 247.8485 30025.1880 98.1496 136.7144
ENERGY: 1200000 2.1001 5.6839 0.5441 0.0000 -10629.8297 1392.5008 0.0000 0.0000 1712.9507 -7516.0501 291.6089 -9229.0008 -7488.8878 298.8807 -481.0824 -266.1490 30309.8290 56.2470 110.5555
ENERGY: 1500000 0.8754 7.6485 0.1521 0.0000 -10791.5555 1496.1488 0.0000 0.0000 1713.7141 -7573.0165 291.7389 -9286.7306 -7493.7254 298.3083 337.1317 426.4224 30346.0958 34.3153 95.3676
TCL: Running FEP window  13: Lambda1 0.6    Lambda2 0.65   [dLambda 0.050000000000000044]
TCL: Setting parameter firsttimestep to 0
TCL: Setting parameter alchLambda to 0.6
Info: NONBONDED TABLE R-SQUARED SPACING: 0.0625
Info: NONBONDED TABLE SIZE: 705 POINTS
TCL: Setting parameter alchLambda2 to 0.65
Info: NONBONDED TABLE R-SQUARED SPACING: 0.0625
Info: NONBONDED TABLE SIZE: 705 POINTS
TCL: Running for 1500000 steps
ETITLE: TS BOND ANGLE DIHED IMPRP ELECT VDW BOUNDARY MISC KINETIC TOTAL TEMP POTENTIAL TOTALAVG TEMPAVG PRESSURE GPRESSURE VOLUME PRESSAVG GPRESSAVG
ENERGY: 0 0.8754 7.6485 0.1521 0.0000 -10791.5551 1496.3930 0.0000 0.0000 1712.8459 -7573.6401 291.5911 -9286.4860 -7573.6401 291.5911 345.7755 437.5016 30346.0958 345.7755 437.5016
ENERGY: 300000 3.3801 3.9419 0.9904 0.0000 -10764.3900 1504.5065 0.0000 0.0000 1789.4340 -7462.1371 304.6293 -9251.5711 -7521.7066 297.6010 321.9288 397.8504 30695.8487 266.5589 349.2177
ENERGY: 600000 5.9972 6.1532 0.5774 0.0000 -10844.8753 1540.8162 0.0000 0.0000 1757.0946 -7534.2368 299.1239 -9291.3313 -7504.6525 299.3809 853.9566 903.9008 30151.6705 289.7170 353.0695
ENERGY: 900000 2.1188 8.9790 0.3924 0.0000 -10623.2238 1407.9966 0.0000 0.0000 1743.8667 -7459.8703 296.8720 -9203.7370 -7503.7348 298.4669 194.0699 208.6851 30134.2560 214.4077 277.2312
ENERGY: 1200000 0.8079 4.5182 0.5053 0.0000 -10661.7568 1404.5415 0.0000 0.0000 1857.0336 -7394.3503 316.1373 -9251.3839 -7498.9958 298.7888 -60.2214 -44.7144 30359.4029 235.0012 288.6834
ENERGY: 1500000 1.2776 10.8047 0.6974 0.0000 -10744.2559 1523.5032 0.0000 0.0000 1724.6540 -7483.3191 293.6013 -9207.9731 -7490.6491 299.4666 435.7399 589.4303 30776.2661 210.8115 270.5913
TCL: Running FEP window  14: Lambda1 0.65   Lambda2 0.7000000000000001 [dLambda 0.050000000000000044]
TCL: Setting parameter firsttimestep to 0
TCL: Setting parameter alchLambda to 0.65
Info: NONBONDED TABLE R-SQUARED SPACING: 0.0625
Info: NONBONDED TABLE SIZE: 705 POINTS
TCL: Setting parameter alchLambda2 to 0.7000000000000001
Info: NONBONDED TABLE R-SQUARED SPACING: 0.0625
Info: NONBONDED TABLE SIZE: 705 POINTS
TCL: Running for 1500000 steps
ETITLE: TS BOND ANGLE DIHED IMPRP ELECT VDW BOUNDARY MISC KINETIC TOTAL TEMP POTENTIAL TOTALAVG TEMPAVG PRESSURE GPRESSURE VOLUME PRESSAVG GPRESSAVG
ENERGY: 0 1.2776 10.8047 0.6974 0.0000 -10744.3065 1523.1457 0.0000 0.0000 1723.7574 -7484.6237 293.4486 -9208.3811 -7484.6237 293.4486 508.2305 594.7983 30776.2661 508.2305 594.7983
ENERGY: 300000 2.3721 3.8149 0.4190 0.0000 -10630.4632 1402.2210 0.0000 0.0000 1777.1308 -7444.5054 302.5348 -9221.6362 -7486.0484 299.6126 65.0156 142.7815 30116.3234 431.2826 495.0734
ENERGY: 600000 1.4104 6.1366 0.9876 0.0000 -10770.7134 1480.7949 0.0000 0.0000 1730.3375 -7551.0465 294.5688 -9281.3840 -7496.8531 298.2145 179.9244 252.1397 30209.5682 233.3468 292.7724
ENERGY: 900000 1.5901 3.2783 1.6300 0.0000 -10784.5561 1559.7484 0.0000 0.0000 1751.7763 -7466.5331 298.2185 -9218.3094 -7504.4902 298.5082 945.5601 1005.9248 30445.8639 313.1886 370.1976
ENERGY: 1200000 2.3262 2.9729 1.0636 0.0000 -10637.6941 1406.5842 0.0000 0.0000 1797.5685 -7427.1788 306.0141 -9224.7474 -7494.9113 299.5404 -269.3348 -173.5841 30588.7208 149.8952 205.7795
ENERGY: 1500000 0.5658 7.3485 0.3088 0.0000 -10646.4369 1399.9845 0.0000 0.0000 1780.1671 -7458.0622 303.0517 -9238.2293 -7486.1382 299.5305 -141.9998 -63.2998 30150.8244 81.1088 145.4227
TCL: Running FEP window  15: Lambda1 0.7000000000000001 Lambda2 0.7500000000000001 [dLambda 0.050000000000000044]
TCL: Setting parameter firsttimestep to 0
TCL: Setting parameter alchLambda to 0.7000000000000001
Info: NONBONDED TABLE R-SQUARED SPACING: 0.0625
Info: NONBONDED TABLE SIZE: 705 POINTS
TCL: Setting parameter alchLambda2 to 0.7500000000000001
Info: NONBONDED TABLE R-SQUARED SPACING: 0.0625
Info: NONBONDED TABLE SIZE: 705 POINTS
TCL: Running for 1500000 steps
ETITLE: TS BOND ANGLE DIHED IMPRP ELECT VDW BOUNDARY MISC KINETIC TOTAL TEMP POTENTIAL TOTALAVG TEMPAVG PRESSURE GPRESSURE VOLUME PRESSAVG GPRESSAVG
ENERGY: 0 0.5658 7.3485 0.3088 0.0000 -10646.5438 1399.5514 0.0000 0.0000 1779.3121 -7459.4571 302.9062 -9238.7693 -7459.4571 302.9062 -144.8561 -55.2212 30150.8244 -144.8561 -55.2212
ENERGY: 300000 1.2204 3.6728 0.4906 0.0000 -10704.2313 1457.6492 0.0000 0.0000 1777.0049 -7464.1935 302.5134 -9241.1983 -7515.8597 299.9314 56.1320 27.0805 30851.5647 39.8273 92.0713
ENERGY: 600000 2.2022 4.0414 0.2097 0.0000 -10759.0605 1425.9687 0.0000 0.0000 1779.4147 -7547.2238 302.9236 -9326.6385 -7501.2817 300.0541 -324.0159 -237.3729 30540.3540 -153.7670 -96.2898
ENERGY: 900000 0.4190 5.4132 0.4294 0.0000 -10580.3103 1358.1694 0.0000 0.0000 1778.3298 -7437.5494 302.7389 -9215.8792 -7493.2109 299.7206 -458.0835 -403.3415 30449.4488 -154.3985 -89.7717
ENERGY: 1200000 3.3153 7.1614 0.8842 0.0000 -10647.5979 1401.8559 0.0000 0.0000 1779.2684 -7455.1128 302.8987 -9234.3812 -7494.0676 299.8745 -330.7339 -276.8294 30750.5584 -107.0781 -33.8854
ENERGY: 1500000 0.7527 4.5502 0.3241 0.0000 -10669.9319 1416.9278 0.0000 0.0000 1753.4406 -7493.9365 298.5018 -9247.3771 -7490.5870 301.0847 -349.2022 -260.0549 31084.0814 -84.4732 -7.3005
TCL: Running FEP window  16: Lambda1 0.7500000000000001 Lambda2 0.8000000000000002 [dLambda 0.050000000000000044]
TCL: Setting parameter firsttimestep to 0
TCL: Setting parameter alchLambda to 0.7500000000000001
Info: NONBONDED TABLE R-SQUARED SPACING: 0.0625
Info: NONBONDED TABLE SIZE: 705 POINTS
TCL: Setting parameter alchLambda2 to 0.8000000000000002
Info: NONBONDED TABLE R-SQUARED SPACING: 0.0625
Info: NONBONDED TABLE SIZE: 705 POINTS
TCL: Running for 1500000 steps
ETITLE: TS BOND ANGLE DIHED IMPRP ELECT VDW BOUNDARY MISC KINETIC TOTAL TEMP POTENTIAL TOTALAVG TEMPAVG PRESSURE GPRESSURE VOLUME PRESSAVG GPRESSAVG
ENERGY: 0 0.7527 4.5502 0.3241 0.0000 -10670.1974 1416.3654 0.0000 0.0000 1752.6019 -7495.6031 298.3591 -9248.2050 -7495.6031 298.3591 -350.3370 -260.9133 31084.0814 -350.3370 -260.9133
ENERGY: 300000 5.3260 4.3477 0.3804 0.0000 -10790.8556 1469.6331 0.0000 0.0000 1694.3018 -7616.8666 288.4342 -9311.1683 -7532.2927 299.2260 289.7840 377.5885 30013.0986 16.8535 95.7564
ENERGY: 600000 1.0030 8.0222 1.8106 0.0000 -10827.3877 1479.1081 0.0000 0.0000 1775.2801 -7562.1637 302.2197 -9337.4437 -7525.2575 299.4067 392.7860 413.5533 29895.2919 35.3652 100.1968
ENERGY: 900000 2.2886 2.4367 1.5092 0.0000 -10833.6701 1541.3398 0.0000 0.0000 1774.2455 -7511.8502 302.0436 -9286.0957 -7523.2840 300.7715 557.5111 599.9814 30671.5325 92.6404 154.5920
ENERGY: 1200000 2.9946 8.0752 0.3748 0.0000 -10776.2052 1487.1514 0.0000 0.0000 1809.2945 -7468.3146 308.0103 -9277.6091 -7503.7107 301.8856 175.0025 303.8105 30359.3280 3.0423 76.0266
ENERGY: 1500000 2.4138 2.0286 0.1520 0.0000 -10663.7438 1338.2415 0.0000 0.0000 1797.8658 -7523.0421 306.0647 -9320.9079 -7503.4982 301.9861 -635.3523 -600.8719 29814.7788 0.6772 71.9154
TCL: Running FEP window  17: Lambda1 0.8000000000000002 Lambda2 0.8500000000000002 [dLambda 0.050000000000000044]
TCL: Setting parameter firsttimestep to 0
TCL: Setting parameter alchLambda to 0.8000000000000002
Info: NONBONDED TABLE R-SQUARED SPACING: 0.0625
Info: NONBONDED TABLE SIZE: 705 POINTS
TCL: Setting parameter alchLambda2 to 0.8500000000000002
Info: NONBONDED TABLE R-SQUARED SPACING: 0.0625
Info: NONBONDED TABLE SIZE: 705 POINTS
TCL: Running for 1500000 steps
ETITLE: TS BOND ANGLE DIHED IMPRP ELECT VDW BOUNDARY MISC KINETIC TOTAL TEMP POTENTIAL TOTALAVG TEMPAVG PRESSURE GPRESSURE VOLUME PRESSAVG GPRESSAVG
ENERGY: 0 2.4138 2.0286 0.1520 0.0000 -10664.0619 1338.2352 0.0000 0.0000 1796.9849 -7524.2473 305.9147 -9321.2323 -7524.2473 305.9147 -667.1227 -590.4384 29814.7788 -667.1227 -590.4384
ENERGY: 300000 2.3586 7.2623 0.1814 0.0000 -10868.1818 1483.8978 0.0000 0.0000 1778.9920 -7595.4895 302.8517 -9374.4816 -7556.7772 301.1698 181.9941 251.5910 30114.2971 41.2025 109.7439
ENERGY: 600000 1.4710 4.5667 0.1558 0.0000 -10700.0025 1426.9057 0.0000 0.0000 1814.4038 -7452.4995 308.8801 -9266.9032 -7513.0209 302.8745 -91.5982 -58.2187 30599.5053 -97.5478 -40.7659
ENERGY: 900000 4.8316 3.9301 0.4564 0.0000 -10640.2440 1396.0097 0.0000 0.0000 1760.1297 -7474.8866 299.6406 -9235.0162 -7521.0688 301.2650 -306.4557 -184.7882 30059.2534 -106.4458 -46.3116
ENERGY: 1200000 1.2354 4.6465 2.3449 0.0000 -10691.9664 1418.4491 0.0000 0.0000 1724.7913 -7540.4992 293.6246 -9265.2905 -7519.5101 299.9075 -128.3606 -49.9325 30240.5089 -153.4546 -92.6805
ENERGY: 1500000 4.4310 5.3198 1.1436 0.0000 -10808.6455 1465.5933 0.0000 0.0000 1763.8471 -7568.3108 300.2734 -9332.1578 -7517.5218 299.3559 417.7843 459.8961 29761.9068 -82.0677 -28.3388
TCL: Running FEP window  18: Lambda1 0.8500000000000002 Lambda2 0.9000000000000002 [dLambda 0.050000000000000044]
TCL: Setting parameter firsttimestep to 0
TCL: Setting parameter alchLambda to 0.8500000000000002
Info: NONBONDED TABLE R-SQUARED SPACING: 0.0625
Info: NONBONDED TABLE SIZE: 705 POINTS
TCL: Setting parameter alchLambda2 to 0.9000000000000002
Info: NONBONDED TABLE R-SQUARED SPACING: 0.0625
Info: NONBONDED TABLE SIZE: 705 POINTS
TCL: Running for 1500000 steps
ETITLE: TS BOND ANGLE DIHED IMPRP ELECT VDW BOUNDARY MISC KINETIC TOTAL TEMP POTENTIAL TOTALAVG TEMPAVG PRESSURE GPRESSURE VOLUME PRESSAVG GPRESSAVG
ENERGY: 0 4.4310 5.3198 1.1436 0.0000 -10808.9032 1466.2153 0.0000 0.0000 1762.9830 -7568.8104 300.1263 -9331.7934 -7568.8104 300.1263 389.7567 480.2075 29761.9068 389.7567 480.2075
ENERGY: 300000 1.9987 6.0151 0.5549 0.0000 -10633.3069 1416.4439 0.0000 0.0000 1757.8617 -7450.4325 299.2545 -9208.2942 -7479.7358 301.8214 205.2424 235.0834 29948.2145 192.5486 227.6476
ENERGY: 600000 2.7909 4.4562 0.1131 0.0000 -10693.0337 1485.1679 0.0000 0.0000 1761.9769 -7438.5287 299.9550 -9200.5056 -7461.4950 302.6139 659.3977 742.3010 30302.9633 90.0761 133.2319
ENERGY: 900000 0.2250 6.5825 1.2012 0.0000 -10615.7353 1381.3889 0.0000 0.0000 1764.0945 -7462.2432 300.3155 -9226.3377 -7460.0318 302.3346 -374.3073 -363.1067 30590.5575 -36.8092 2.3346
ENERGY: 1200000 2.3863 3.5480 1.1234 0.0000 -10747.0593 1462.3037 0.0000 0.0000 1749.7516 -7527.9463 297.8738 -9277.6979 -7470.9322 301.4965 84.9212 177.6501 30114.8594 -142.9544 -92.1210
ENERGY: 1500000 1.2479 5.3691 0.4441 0.0000 -10469.9328 1347.5362 0.0000 0.0000 1806.8991 -7308.4365 307.6025 -9115.3355 -7458.7508 301.5566 -221.7847 -140.4782 30443.6109 -142.5905 -83.5147
TCL: Running FEP window  19: Lambda1 0.9000000000000002 Lambda2 0.9500000000000003 [dLambda 0.050000000000000044]
TCL: Setting parameter firsttimestep to 0
TCL: Setting parameter alchLambda to 0.9000000000000002
Info: NONBONDED TABLE R-SQUARED SPACING: 0.0625
Info: NONBONDED TABLE SIZE: 705 POINTS
TCL: Setting parameter alchLambda2 to 0.9500000000000003
Info: NONBONDED TABLE R-SQUARED SPACING: 0.0625
Info: NONBONDED TABLE SIZE: 705 POINTS
TCL: Running for 1500000 steps
ETITLE: TS BOND ANGLE DIHED IMPRP ELECT VDW BOUNDARY MISC KINETIC TOTAL TEMP POTENTIAL TOTALAVG TEMPAVG PRESSURE GPRESSURE VOLUME PRESSAVG GPRESSAVG
ENERGY: 0 1.2479 5.3691 0.4441 0.0000 -10470.1724 1347.4422 0.0000 0.0000 1806.0433 -7309.6259 307.4568 -9115.6692 -7309.6259 307.4568 -195.1939 -128.1561 30443.6109 -195.1939 -128.1561
ENERGY: 300000 1.6820 3.9785 0.5090 0.0000 -10743.8857 1501.0669 0.0000 0.0000 1804.9371 -7431.7121 307.2685 -9236.6493 -7400.2335 304.5995 354.5056 456.5288 30890.1756 138.2756 181.7113
ENERGY: 600000 1.5255 5.9471 0.2498 0.0000 -10614.5300 1428.6211 0.0000 0.0000 1768.8279 -7409.3586 301.1213 -9178.1865 -7433.4469 302.4092 144.2738 216.7139 30413.3847 -23.4686 24.9192
ENERGY: 900000 0.9417 1.8951 2.2691 0.0000 -10663.4739 1427.9342 0.0000 0.0000 1765.2272 -7465.2066 300.5084 -9230.4338 -7456.2265 302.3484 -190.0190 -113.9682 30821.4898 -132.4392 -88.8796
ENERGY: 1200000 2.0973 9.3262 0.3635 0.0000 -10637.4157 1407.5319 0.0000 0.0000 1745.6359 -7472.4608 297.1732 -9218.0967 -7469.4410 301.6420 62.0627 37.7505 30564.8378 -112.1461 -76.6835
ENERGY: 1500000 1.6351 2.6287 0.0600 0.0000 -10693.9780 1368.0622 0.0000 0.0000 1717.6228 -7603.9692 292.4043 -9321.5920 -7475.6886 301.4660 -783.8689 -661.1232 30290.9815 -139.0341 -95.3088
TCL: Running FEP window  20: Lambda1 0.9500000000000003 Lambda2 1.0    [dLambda 0.04999999999999971]
TCL: Setting parameter firsttimestep to 0
TCL: Setting parameter alchLambda to 0.9500000000000003
Info: NONBONDED TABLE R-SQUARED SPACING: 0.0625
Info: NONBONDED TABLE SIZE: 705 POINTS
TCL: Setting parameter alchLambda2 to 1.0
Info: NONBONDED TABLE R-SQUARED SPACING: 0.0625
Info: NONBONDED TABLE SIZE: 705 POINTS
TCL: Running for 1500000 steps
ETITLE: TS BOND ANGLE DIHED IMPRP ELECT VDW BOUNDARY MISC KINETIC TOTAL TEMP POTENTIAL TOTALAVG TEMPAVG PRESSURE GPRESSURE VOLUME PRESSAVG GPRESSAVG
ENERGY: 0 1.6351 2.6287 0.0600 0.0000 -10694.6771 1367.9999 0.0000 0.0000 1716.7064 -7605.6469 292.2483 -9322.3534 -7605.6469 292.2483 -734.3533 -651.4595 30290.9815 -734.3533 -651.4595
ENERGY: 300000 1.7865 4.3819 2.6463 0.0000 -10725.9032 1448.6619 0.0000 0.0000 1729.5837 -7538.8430 294.4405 -9268.4266 -7506.6267 297.9455 93.6777 140.0581 30277.2036 -150.5123 -77.1517
ENERGY: 600000 3.3457 3.4633 0.6346 0.0000 -10579.6380 1356.2057 0.0000 0.0000 1672.5336 -7543.4550 284.7284 -9215.9887 -7529.0021 294.4292 -500.5257 -501.3374 30418.9943 -145.1563 -101.1930
ENERGY: 900000 1.4816 7.8906 0.1435 0.0000 -10660.1777 1461.4727 0.0000 0.0000 1755.6160 -7433.5734 298.8722 -9189.1894 -7527.1525 295.0314 342.1215 402.6154 30617.0189 -52.2294 0.7498
ENERGY: 1200000 1.0490 3.7949 1.9317 0.0000 -10546.9365 1354.0832 0.0000 0.0000 1748.8397 -7437.2380 297.7186 -9186.0777 -7520.4608 295.1925 -539.7010 -474.0136 30801.9017 -19.1499 34.9771
ENERGY: 1500000 4.8883 5.2859 1.8104 0.0000 -10621.6868 1355.2382 0.0000 0.0000 1755.8187 -7498.6453 298.9067 -9254.4640 -7523.4869 296.2105 -723.1906 -672.1977 30636.5318 -71.7297 -20.3730
TCL: Exiting due to exit command.
