Info: SIMULATION PARAMETERS:
Info: TIMESTEP               2
Info: NUMBER OF STEPS        0
Info: STEPS PER CYCLE        10
Info: PERIODIC CELL BASIS 1  30.6945 0 0
Info: PERIODIC CELL BASIS 2  0 28.6091 0
Info: PERIODIC CELL BASIS 3  0 0 34.2116
Info: PERIODIC CELL CENTER   0 0 0
Info: WRAPPING WATERS AROUND PERIODIC BOUNDARIES ON OUTPUT.
Info: WRAPPING ALL CLUSTERS AROUND PERIODIC BOUNDARIES ON OUTPUT.
Info: FIRST LDB TIMESTEP     50
Info: LAST LDB TIMESTEP     -1
Info: HOM BACKGROUND SCALING 1
Info: PME BACKGROUND SCALING 1
Info: MIN ATOMS PER PATCH    40
Info: EMPTY PATCH LOAD       40 ATOMS
Info: VELOCITY FILE          mobley_2295058_equil.vel
Info: CENTER OF MASS MOVING INITIALLY? NO
Info: DIELECTRIC             1
Info: EXCLUDE                SCALED ONE-FOUR
Info: 1-4 ELECTROSTATICS SCALED BY 0.833333
Info: MODIFIED 1-4 VDW PARAMETERS WILL BE USED
Info: DCD FILENAME           mobley_2295058_prod.dcd
Info: DCD FREQUENCY          100000
Info: DCD FIRST STEP         100000
Info: DCD FILE WILL CONTAIN UNIT CELL DATA
Info: XST FILENAME           mobley_2295058_prod.xst
Info: XST FREQUENCY          100000
Info: NO VELOCITY DCD OUTPUT
Info: NO FORCE DCD OUTPUT
Info: OUTPUT FILENAME        mobley_2295058_prod
Info: BINARY OUTPUT FILES WILL BE USED
Info: RESTART FILENAME       mobley_2295058_prod.restart
Info: RESTART FREQUENCY      100000
Info: BINARY RESTART FILES WILL BE USED
Info: CUTOFF                 9
Info: PAIRLIST DISTANCE      11
Info: PAIRLIST SHRINK RATE   0.01
Info: PAIRLIST GROW RATE     0.01
Info: PAIRLIST TRIGGER       0.3
Info: PAIRLISTS PER CYCLE    2
Info: PAIRLISTS ENABLED
Info: MARGIN                 2
Info: HYDROGEN GROUP CUTOFF  2.5
Info: PATCH DIMENSION        15.5
Info: ENERGY OUTPUT STEPS    100000
Info: ENERGY EVALUATION STEPS    100000
Info: OUTPUT ENERGY PRECISION 4
Info: CROSSTERM ENERGY INCLUDED IN DIHEDRAL
Info: TIMING OUTPUT STEPS    1000000
Info: PRESSURE OUTPUT STEPS  100000
Info: ALCHEMICAL FEP ON
Info: FEP CURRENT LAMBDA VALUE     0
Info: FEP COMPARISON LAMBDA VALUE  0.05
Info: FEP INTRA-ALCHEMICAL NON-BONDED INTERACTIONS WILL BE RETAINED
Info: FEP INTRA-ALCHEMICAL BONDED INTERACTIONS WILL BE RETAINED
Info: FEP VDW SHIFTING COEFFICIENT 5
Info: FEP ELEC. ACTIVE FOR ANNIHILATED PARTICLES BETWEEN LAMBDA = 0 AND LAMBDA = 0.5
Info: FEP ELEC. ACTIVE FOR EXNIHILATED PARTICLES BETWEEN LAMBDA = 0.5 AND LAMBDA = 1
Info: FEP VDW ACTIVE FOR ANNIHILATED PARTICLES BETWEEN LAMBDA = 0 AND LAMBDA = 1
Info: FEP VDW ACTIVE FOR EXNIHILATED PARTICLES BETWEEN LAMBDA = 0 AND LAMBDA = 1
Info: FEP BOND ACTIVE FOR ANNIHILATED PARTICLES BETWEEN LAMBDA = 1 AND LAMBDA = 1
Info: FEP BOND ACTIVE FOR EXNIHILATED PARTICLES BETWEEN LAMBDA = 0 AND LAMBDA = 0
Info: LANGEVIN DYNAMICS ACTIVE
Info: LANGEVIN TEMPERATURE   300
Info: LANGEVIN USING BBK INTEGRATOR
Info: LANGEVIN DAMPING COEFFICIENT IS 1 INVERSE PS
Info: LANGEVIN DYNAMICS APPLIED TO HYDROGENS
Info: LANGEVIN PISTON PRESSURE CONTROL ACTIVE
Info:        TARGET PRESSURE IS 1.01325 BAR
Info:     OSCILLATION PERIOD IS 50 FS
Info:             DECAY TIME IS 25 FS
Info:     PISTON TEMPERATURE IS 300 K
Info:       PRESSURE CONTROL IS GROUP-BASED
Info:    INITIAL STRAIN RATE IS 0.000153447 0.000153447 0.000153447
Info:       CELL FLUCTUATION IS ISOTROPIC
Info: PARTICLE MESH EWALD (PME) ACTIVE
Info: PME TOLERANCE               1e-06
Info: PME EWALD COEFFICIENT       0.348832
Info: PME INTERPOLATION ORDER     4
Info: PME GRID DIMENSIONS         32 32 36
Info: PME MAXIMUM GRID SPACING    1
Info: PME CALCULATION WILL BE PERFORMED ON GPU
Info: FULL ELECTROSTATIC EVALUATION FREQUENCY      2
Info: USING VERLET I (r-RESPA) MTS SCHEME.
Info: C1 SPLITTING OF LONG RANGE ELECTROSTATICS
Info: PLACING ATOMS IN PATCHES BY HYDROGEN GROUPS
Info: RIGID BONDS TO HYDROGEN : ALL
Info:         ERROR TOLERANCE : 1e-08
Info:          MAX ITERATIONS : 100
Info: RIGID WATER USING SETTLE ALGORITHM
Info: RANDOM NUMBER SEED     1743790422
Info: USE HYDROGEN BONDS?    NO
Info: Using AMBER format force field!
Info: AMBER PARM FILE        mobley_2295058.prmtop
Info: COORDINATE PDB         mobley_2295058.pdb
Info: Exclusions will be read from PARM file!
Info: SCNB (VDW SCALING)     2
Info: USING ARITHMETIC MEAN TO COMBINE L-J SIGMA PARAMETERS
Info: BINARY COORDINATES     mobley_2295058_equil.coor
Info: SUMMARY OF PARAMETERS:
Info: 11 BONDS
Info: 11 ANGLES
Info:   11 HARMONIC
Info:   0 COSINE-BASED
Info: 7 DIHEDRAL
Info: 0 IMPROPER
Info: 0 CROSSTERM
Info: 0 VDW
Info: 45 VDW_PAIRS
Info: 0 NBTHOLE_PAIRS
Info: To read alchdata from file: mobley_2295058.pdb
Info: To read alchflag data from column: 5
Info: STRUCTURE SUMMARY:
Info: 2938 ATOMS
Info: 2938 BONDS
Info: 29 ANGLES
Info: 43 DIHEDRALS
Info: 0 IMPROPERS
Info: 0 CROSSTERMS
Info: 2999 EXCLUSIONS
Info: 2927 RIGID BONDS
Info: ALCH: 0 ATOMS TO DISAPPEAR IN FINAL STATE
Info: ALCH: 19 ATOMS TO APPEAR IN FINAL STATE
Info: 5887 DEGREES OF FREEDOM
Info: 984 HYDROGEN GROUPS
Info: 4 ATOMS IN LARGEST HYDROGEN GROUP
Info: 984 MIGRATION GROUPS
Info: 4 ATOMS IN LARGEST MIGRATION GROUP
Info: TOTAL MASS = 17681.7 amu
Info: TOTAL CHARGE = -0.000200037 e
Info: MASS DENSITY = 0.977339 g/cm^3
Info: ATOM DENSITY = 0.0977943 atoms/A^3
Info: ADDED 0 IMPLICIT EXCLUSIONS
Info: NONBONDED TABLE R-SQUARED SPACING: 0.0625
Info: NONBONDED TABLE SIZE: 705 POINTS
Info: REMOVING COM VELOCITY 0.0954659 -0.0231683 -0.0655901
Info: Use 3D box decompostion in PME FFT.
Info: Updated CUDA force table with 4096 elements.
Info: Updated CUDA LJ table with 9 x 9 elements.
Info: Found 21 unique exclusion lists needing 52 bytes
TCL: Running for 1500000 steps
ETITLE: TS BOND ANGLE DIHED IMPRP ELECT VDW BOUNDARY MISC KINETIC TOTAL TEMP POTENTIAL TOTALAVG TEMPAVG PRESSURE GPRESSURE VOLUME PRESSAVG GPRESSAVG
ENERGY: 0 2.1112 4.0255 1.7738 0.0000 -10536.7844 1350.2415 0.0000 0.0000 1789.4758 -7389.1566 305.9301 -9178.6325 -7389.1566 305.9301 -559.5732 -468.8522 30042.6470 -559.5732 -468.8522
ENERGY: 300000 2.4230 3.2968 2.8992 0.0000 -10499.9473 1317.8294 0.0000 0.0000 1795.2842 -7378.2148 306.9231 -9173.4989 -7422.3360 303.6169 -1138.4793 -1027.1142 30378.3520 -698.9175 -610.9550
ENERGY: 600000 5.0797 6.9828 2.7221 0.0000 -10647.9920 1433.6366 0.0000 0.0000 1796.2913 -7403.2795 307.0953 -9199.5708 -7434.5419 304.1350 -56.0208 -40.3454 30184.5844 -343.0371 -271.6322
ENERGY: 900000 3.4205 9.1396 3.3128 0.0000 -10752.9965 1508.2574 0.0000 0.0000 1778.3430 -7450.5231 304.0268 -9228.8661 -7436.8912 302.4671 647.7763 658.2419 29677.7768 -134.6037 -68.9789
ENERGY: 1200000 3.3354 5.2762 4.8635 0.0000 -10689.4231 1428.3324 0.0000 0.0000 1716.7384 -7530.8772 293.4948 -9247.6156 -7447.7478 301.6719 -281.3090 -215.2897 30167.3405 -218.9375 -147.5390
ENERGY: 1500000 3.4731 6.2236 4.2609 0.0000 -10651.7330 1474.4320 0.0000 0.0000 1755.3800 -7407.9634 300.1010 -9163.3434 -7441.3745 301.1812 570.8987 621.2996 29847.4165 -169.4117 -99.4703
TCL: Running FEP window   2: Lambda1 0.05   Lambda2 0.1    [dLambda 0.05  ]
TCL: Setting parameter firsttimestep to 0
TCL: Setting parameter alchLambda to 0.05
Info: NONBONDED TABLE R-SQUARED SPACING: 0.0625
Info: NONBONDED TABLE SIZE: 705 POINTS
TCL: Setting parameter alchLambda2 to 0.1
Info: NONBONDED TABLE R-SQUARED SPACING: 0.0625
Info: NONBONDED TABLE SIZE: 705 POINTS
TCL: Running for 1500000 steps
ETITLE: TS BOND ANGLE DIHED IMPRP ELECT VDW BOUNDARY MISC KINETIC TOTAL TEMP POTENTIAL TOTALAVG TEMPAVG PRESSURE GPRESSURE VOLUME PRESSAVG GPRESSAVG
ENERGY: 0 3.4730 6.2236 4.2609 0.0000 -10651.7319 1476.7567 0.0000 0.0000 1754.5121 -7406.5057 299.9527 -9161.0177 -7406.5057 299.9527 539.9768 629.7641 29847.4165 539.9768 629.7641
ENERGY: 300000 1.9119 4.0128 3.3456 0.0000 -10526.6937 1355.5604 0.0000 0.0000 1734.5941 -7427.2689 296.5475 -9161.8630 -7441.6057 299.1116 -608.0924 -503.8617 30220.7989 179.6041 253.3857
ENERGY: 600000 3.1497 3.8750 5.6936 0.0000 -10510.4383 1280.1174 0.0000 0.0000 1741.4931 -7476.1095 297.7269 -9217.6027 -7440.8535 298.9110 -1337.3861 -1269.2288 30218.1883 -397.1125 -333.9704
ENERGY: 900000 3.5682 5.5656 3.9535 0.0000 -10556.3436 1348.1067 0.0000 0.0000 1783.6208 -7411.5289 304.9291 -9195.1497 -7445.2742 299.6379 -771.6193 -692.5585 30475.1865 -366.7373 -294.9739
ENERGY: 1200000 5.7764 2.5849 7.2092 0.0000 -10636.6942 1377.1273 0.0000 0.0000 1798.7988 -7445.1976 307.5239 -9243.9964 -7440.3340 301.6523 -727.5908 -673.3888 30067.2343 -340.8380 -269.8093
ENERGY: 1500000 5.0057 4.1177 4.8587 0.0000 -10757.7821 1499.6262 0.0000 0.0000 1673.4196 -7570.7543 286.0890 -9244.1739 -7448.0531 300.1993 188.2652 293.2317 30085.0293 -295.2030 -219.5643
TCL: Running FEP window   3: Lambda1 0.1    Lambda2 0.15000000000000002 [dLambda 0.05000000000000002]
TCL: Setting parameter firsttimestep to 0
TCL: Setting parameter alchLambda to 0.1
Info: NONBONDED TABLE R-SQUARED SPACING: 0.0625
Info: NONBONDED TABLE SIZE: 705 POINTS
TCL: Setting parameter alchLambda2 to 0.15000000000000002
Info: NONBONDED TABLE R-SQUARED SPACING: 0.0625
Info: NONBONDED TABLE SIZE: 705 POINTS
TCL: Running for 1500000 steps
ETITLE: TS BOND ANGLE DIHED IMPRP ELECT VDW BOUNDARY MISC KINETIC TOTAL TEMP POTENTIAL TOTALAVG TEMPAVG PRESSURE GPRESSURE VOLUME PRESSAVG GPRESSAVG
ENERGY: 0 5.0057 4.1177 4.8587 0.0000 -10757.7805 1505.1798 0.0000 0.0000 1672.5551 -7566.0635 285.9412 -9238.6186 -7566.0635 285.9412 212.9771 310.1840 30085.0293 212.9771 310.1840
ENERGY: 300000 5.6888 3.7806 4.6292 0.0000 -10529.3619 1294.2344 0.0000 0.0000 1736.9541 -7484.0749 296.9509 -9221.0290 -7477.4689 295.8240 -1310.3026 -1201.6153 29912.6486 -529.2354 -444.0293
ENERGY: 600000 2.9781 4.0085 2.7583 0.0000 -10800.2592 1480.9395 0.0000 0.0000 1743.2947 -7566.2801 298.0349 -9309.5747 -7481.8132 296.8846 -12.8500 81.0657 29902.2191 -444.8047 -358.3394
ENERGY: 900000 2.9644 7.1449 4.5808 0.0000 -10670.7986 1484.8777 0.0000 0.0000 1710.1760 -7461.0549 292.3729 -9171.2309 -7481.7949 295.9917 611.2434 701.0014 29658.1893 -216.6982 -149.9729
ENERGY: 1200000 2.6805 3.9884 3.9581 0.0000 -10679.4605 1467.2240 0.0000 0.0000 1735.7768 -7465.8327 296.7497 -9201.6095 -7464.3711 297.1428 -23.5033 18.8153 30546.8073 -147.2161 -80.9674
ENERGY: 1500000 4.2463 6.7558 2.9271 0.0000 -10535.9649 1350.1695 0.0000 0.0000 1694.2892 -7477.5770 289.6569 -9171.8662 -7459.1987 297.0573 -381.0086 -336.4982 29791.3193 -156.1570 -89.6804
TCL: Running FEP window   4: Lambda1 0.15000000000000002 Lambda2 0.2    [dLambda 0.04999999999999999]
TCL: Setting parameter firsttimestep to 0
TCL: Setting parameter alchLambda to 0.15000000000000002
Info: NONBONDED TABLE R-SQUARED SPACING: 0.0625
Info: NONBONDED TABLE SIZE: 705 POINTS
TCL: Setting parameter alchLambda2 to 0.2
Info: NONBONDED TABLE R-SQUARED SPACING: 0.0625
Info: NONBONDED TABLE SIZE: 705 POINTS
TCL: Running for 1500000 steps
ETITLE: TS BOND ANGLE DIHED IMPRP ELECT VDW BOUNDARY MISC KINETIC TOTAL TEMP POTENTIAL TOTALAVG TEMPAVG PRESSURE GPRESSURE VOLUME PRESSAVG GPRESSAVG
ENERGY: 0 4.2463 6.7558 2.9271 0.0000 -10535.9660 1351.8296 0.0000 0.0000 1693.4382 -7476.7690 289.5114 -9170.2072 -7476.7690 289.5114 -419.7978 -325.3313 29791.3193 -419.7978 -325.3313
ENERGY: 300000 2.9741 5.8275 8.4482 0.0000 -10807.5871 1522.3134 0.0000 0.0000 1769.5023 -7498.5215 302.5154 -9268.0239 -7495.9896 295.3614 513.1010 592.9727 29735.1587 165.3445 253.9202
ENERGY: 600000 4.0121 6.8638 4.9561 0.0000 -10603.9567 1435.2987 0.0000 0.0000 1726.7293 -7426.0968 295.2029 -9152.8261 -7464.9997 296.7624 -95.1133 16.2929 30449.4714 101.5795 186.2154
ENERGY: 900000 1.3671 5.1014 3.4792 0.0000 -10644.1383 1412.1647 0.0000 0.0000 1707.6088 -7514.4171 291.9340 -9222.0259 -7457.1515 296.0290 -393.5648 -357.9708 30340.4419 2.7514 72.7103
ENERGY: 1200000 3.8287 5.2635 4.6672 0.0000 -10832.7885 1514.0518 0.0000 0.0000 1714.3914 -7590.5859 293.0936 -9304.9773 -7470.2293 296.9576 413.8199 532.8786 29590.1043 -15.8664 58.6421
ENERGY: 1500000 4.3041 5.1343 8.6434 0.0000 -10710.9447 1454.6076 0.0000 0.0000 1823.0670 -7415.1883 311.6728 -9238.2553 -7466.8218 298.5035 -62.5762 -43.5904 30074.1273 2.7057 70.8158
TCL: Running FEP window   5: Lambda1 0.2    Lambda2 0.25   [dLambda 0.04999999999999999]
TCL: Setting parameter firsttimestep to 0
TCL: Setting parameter alchLambda to 0.2
Info: NONBONDED TABLE R-SQUARED SPACING: 0.0625
Info: NONBONDED TABLE SIZE: 705 POINTS
TCL: Setting parameter alchLambda2 to 0.25
Info: NONBONDED TABLE R-SQUARED SPACING: 0.0625
Info: NONBONDED TABLE SIZE: 705 POINTS
TCL: Running for 1500000 steps
ETITLE: TS BOND ANGLE DIHED IMPRP ELECT VDW BOUNDARY MISC KINETIC TOTAL TEMP POTENTIAL TOTALAVG TEMPAVG PRESSURE GPRESSURE VOLUME PRESSAVG GPRESSAVG
ENERGY: 0 4.3041 5.1343 8.6434 0.0000 -10710.9446 1456.2128 0.0000 0.0000 1822.2268 -7414.4231 311.5292 -9236.6499 -7414.4231 311.5292 -105.9610 -31.6008 30074.1273 -105.9610 -31.6008
ENERGY: 300000 3.3955 8.7443 2.7068 0.0000 -10821.3037 1540.1937 0.0000 0.0000 1723.6220 -7542.6414 294.6717 -9266.2634 -7471.4993 300.9360 829.7644 852.2142 29562.1648 391.5068 453.3637
ENERGY: 600000 1.4004 5.0408 5.1387 0.0000 -10595.3592 1386.0924 0.0000 0.0000 1767.2247 -7430.4622 302.1260 -9197.6869 -7465.8952 301.7791 -88.8562 -34.3115 29767.5114 247.8668 322.7051
ENERGY: 900000 5.1740 4.7433 5.3138 0.0000 -10535.3446 1357.2986 0.0000 0.0000 1748.0580 -7414.7569 298.8493 -9162.8149 -7460.1069 300.8840 -666.2558 -626.5536 30792.7380 100.4113 171.8978
ENERGY: 1200000 2.4422 5.3445 4.1603 0.0000 -10691.4569 1429.4512 0.0000 0.0000 1750.1946 -7499.8642 299.2145 -9250.0588 -7458.6064 301.5179 -222.6400 -260.0014 30442.0925 106.1496 169.4462
ENERGY: 1500000 3.5126 6.6957 7.6940 0.0000 -10595.1267 1405.2844 0.0000 0.0000 1745.7841 -7426.1560 298.4605 -9171.9401 -7459.6520 300.8246 -293.6226 -229.5236 30613.9898 116.5728 174.8504
TCL: Running FEP window   6: Lambda1 0.25   Lambda2 0.3    [dLambda 0.04999999999999999]
TCL: Setting parameter firsttimestep to 0
TCL: Setting parameter alchLambda to 0.25
Info: NONBONDED TABLE R-SQUARED SPACING: 0.0625
Info: NONBONDED TABLE SIZE: 705 POINTS
TCL: Setting parameter alchLambda2 to 0.3
Info: NONBONDED TABLE R-SQUARED SPACING: 0.0625
Info: NONBONDED TABLE SIZE: 705 POINTS
TCL: Running for 1500000 steps
ETITLE: TS BOND ANGLE DIHED IMPRP ELECT VDW BOUNDARY MISC KINETIC TOTAL TEMP POTENTIAL TOTALAVG TEMPAVG PRESSURE GPRESSURE VOLUME PRESSAVG GPRESSAVG
ENERGY: 0 3.5126 6.6957 7.6940 0.0000 -10595.1267 1406.9936 0.0000 0.0000 1744.8969 -7425.3340 298.3088 -9170.2309 -7425.3340 298.3088 -292.4653 -216.4962 30613.9898 -292.4653 -216.4962
ENERGY: 300000 3.7843 4.4215 4.8435 0.0000 -10747.0561 1491.4452 0.0000 0.0000 1728.4022 -7514.1594 295.4889 -9242.5616 -7465.3244 296.8729 321.7413 330.7605 29954.3786 8.9221 52.6922
ENERGY: 600000 3.8525 3.8993 2.4640 0.0000 -10594.2038 1418.8210 0.0000 0.0000 1786.4392 -7378.7278 305.4109 -9165.1670 -7460.6441 296.7572 -356.6128 -272.5721 30405.1712 -95.5588 -45.0787
ENERGY: 900000 4.5281 3.7442 3.6471 0.0000 -10758.0318 1527.3717 0.0000 0.0000 1697.1936 -7521.5472 290.1534 -9218.7408 -7465.6266 297.4122 856.6261 894.7061 29657.1501 5.5150 62.5297
ENERGY: 1200000 3.7017 6.5723 3.6046 0.0000 -10524.1217 1308.0115 0.0000 0.0000 1762.8232 -7439.4085 301.3735 -9202.2318 -7465.1464 298.0300 -999.0901 -898.4918 29957.4537 10.1609 78.7983
ENERGY: 1500000 3.3437 3.4521 8.4824 0.0000 -10607.0641 1373.3959 0.0000 0.0000 1740.1997 -7478.1903 297.5058 -9218.3900 -7455.5709 299.1536 -793.9975 -751.6752 30745.5769 11.0977 77.3475
TCL: Running FEP window   7: Lambda1 0.3    Lambda2 0.35   [dLambda 0.04999999999999999]
TCL: Setting parameter firsttimestep to 0
TCL: Setting parameter alchLambda to 0.3
Info: NONBONDED TABLE R-SQUARED SPACING: 0.0625
Info: NONBONDED TABLE SIZE: 705 POINTS
TCL: Setting parameter alchLambda2 to 0.35
Info: NONBONDED TABLE R-SQUARED SPACING: 0.0625
Info: NONBONDED TABLE SIZE: 705 POINTS
TCL: Running for 1500000 steps
ETITLE: TS BOND ANGLE DIHED IMPRP ELECT VDW BOUNDARY MISC KINETIC TOTAL TEMP POTENTIAL TOTALAVG TEMPAVG PRESSURE GPRESSURE VOLUME PRESSAVG GPRESSAVG
ENERGY: 0 3.3437 3.4521 8.4824 0.0000 -10607.0645 1373.6805 0.0000 0.0000 1739.2837 -7478.8221 297.3492 -9218.1058 -7478.8221 297.3492 -832.3286 -748.4378 30745.5769 -832.3286 -748.4378
ENERGY: 300000 3.3664 6.3891 4.7323 0.0000 -10809.2829 1505.8621 0.0000 0.0000 1715.6107 -7573.3223 293.3020 -9288.9330 -7472.6643 299.3912 356.7899 451.6740 29824.0742 -290.4202 -219.4069
ENERGY: 600000 5.7197 4.7270 6.0205 0.0000 -10745.7583 1479.7778 0.0000 0.0000 1788.7132 -7460.8003 305.7997 -9249.5135 -7461.1045 300.5463 412.6198 386.7899 30082.0544 37.0264 99.7306
ENERGY: 900000 5.3224 6.4752 2.7903 0.0000 -10509.0639 1351.4770 0.0000 0.0000 1796.3332 -7346.6659 307.1024 -9142.9991 -7453.7624 300.3326 -678.7715 -709.2479 30821.9307 -64.1494 -6.6630
ENERGY: 1200000 3.9097 4.0736 3.3189 0.0000 -10616.6261 1395.0101 0.0000 0.0000 1782.2942 -7428.0196 304.7023 -9210.3138 -7446.7859 300.6165 -535.5863 -516.0874 30641.0994 -135.5951 -72.2897
ENERGY: 1500000 3.7336 3.9040 3.1728 0.0000 -10585.5217 1391.9840 0.0000 0.0000 1743.9954 -7438.7318 298.1547 -9182.7272 -7439.3168 300.4857 -432.6896 -384.2750 30409.5129 -69.4912 -7.1860
TCL: Running FEP window   8: Lambda1 0.35   Lambda2 0.39999999999999997 [dLambda 0.04999999999999999]
TCL: Setting parameter firsttimestep to 0
TCL: Setting parameter alchLambda to 0.35
Info: NONBONDED TABLE R-SQUARED SPACING: 0.0625
Info: NONBONDED TABLE SIZE: 705 POINTS
TCL: Setting parameter alchLambda2 to 0.39999999999999997
Info: NONBONDED TABLE R-SQUARED SPACING: 0.0625
Info: NONBONDED TABLE SIZE: 705 POINTS
TCL: Running for 1500000 steps
ETITLE: TS BOND ANGLE DIHED IMPRP ELECT VDW BOUNDARY MISC KINETIC TOTAL TEMP POTENTIAL TOTALAVG TEMPAVG PRESSURE GPRESSURE VOLUME PRESSAVG GPRESSAVG
ENERGY: 0 3.7336 3.9040 3.1728 0.0000 -10585.5211 1391.9610 0.0000 0.0000 1743.1033 -7439.6464 298.0022 -9182.7497 -7439.6464 298.0022 -450.6627 -377.9011 30409.5129 -450.6627 -377.9011
ENERGY: 300000 2.2446 4.5742 3.9577 0.0000 -10861.9172 1593.1968 0.0000 0.0000 1782.5097 -7475.4341 304.7392 -9257.9438 -7452.6485 302.9799 1442.7320 1401.5052 29747.2460 60.9490 105.8087
ENERGY: 600000 4.8108 3.9131 3.9213 0.0000 -10584.8781 1387.4492 0.0000 0.0000 1752.7478 -7432.0358 299.6510 -9184.7837 -7462.7926 299.9010 -301.5509 -212.3671 30121.5212 -25.3590 44.3054
ENERGY: 900000 4.8092 4.0965 3.8237 0.0000 -10748.1370 1463.6708 0.0000 0.0000 1758.6216 -7513.1152 300.6552 -9271.7368 -7470.4694 299.5132 -617.1253 -470.7718 30589.4798 -148.6938 -71.8464
ENERGY: 1200000 5.5369 7.4844 3.2242 0.0000 -10723.3834 1449.7882 0.0000 0.0000 1788.6310 -7468.7187 305.7857 -9257.3497 -7464.9013 300.2476 104.1597 128.9188 29828.1356 -59.0770 17.2733
ENERGY: 1500000 4.7575 3.2452 2.9847 0.0000 -10707.1327 1457.3250 0.0000 0.0000 1772.9731 -7465.8471 303.1088 -9238.8202 -7451.5460 301.0534 -116.9679 14.2229 30095.4094 -19.8426 55.5322
TCL: Running FEP window   9: Lambda1 0.39999999999999997 Lambda2 0.44999999999999996 [dLambda 0.04999999999999999]
TCL: Setting parameter firsttimestep to 0
TCL: Setting parameter alchLambda to 0.39999999999999997
Info: NONBONDED TABLE R-SQUARED SPACING: 0.0625
Info: NONBONDED TABLE SIZE: 705 POINTS
TCL: Setting parameter alchLambda2 to 0.44999999999999996
Info: NONBONDED TABLE R-SQUARED SPACING: 0.0625
Info: NONBONDED TABLE SIZE: 705 POINTS
TCL: Running for 1500000 steps
ETITLE: TS BOND ANGLE DIHED IMPRP ELECT VDW BOUNDARY MISC KINETIC TOTAL TEMP POTENTIAL TOTALAVG TEMPAVG PRESSURE GPRESSURE VOLUME PRESSAVG GPRESSAVG
ENERGY: 0 4.7576 3.2452 2.9847 0.0000 -10707.1334 1458.8756 0.0000 0.0000 1772.0640 -7465.2063 302.9533 -9237.2703 -7465.2063 302.9533 -62.3611 29.2457 30095.4094 -62.3611 29.2457
ENERGY: 300000 4.2644 4.3712 6.4041 0.0000 -10676.2313 1451.8084 0.0000 0.0000 1733.1124 -7476.2708 296.2942 -9209.3832 -7474.0680 299.4016 -56.7858 -5.3524 30209.1356 -277.9444 -225.5224
ENERGY: 600000 5.7505 5.0005 4.4095 0.0000 -10660.8691 1461.0989 0.0000 0.0000 1712.2842 -7472.3255 292.7333 -9184.6096 -7486.7838 296.7704 71.5791 157.6384 30137.6098 -91.6978 -31.4773
ENERGY: 900000 2.9852 12.2773 5.5937 0.0000 -10551.4071 1359.7184 0.0000 0.0000 1748.5271 -7422.3055 298.9295 -9170.8326 -7468.9117 297.2443 -762.3891 -665.9451 30510.5309 -65.6052 1.3611
ENERGY: 1200000 6.4859 4.1722 3.6301 0.0000 -10592.5035 1383.0518 0.0000 0.0000 1757.2773 -7437.8861 300.4254 -9195.1634 -7462.3623 297.1472 -663.4431 -484.9439 30666.0192 -4.4403 69.4768
ENERGY: 1500000 4.4590 3.9417 3.5645 0.0000 -10590.5356 1387.0582 0.0000 0.0000 1761.8868 -7429.6254 301.2134 -9191.5122 -7455.1788 297.6336 -319.8137 -230.8629 30023.9520 11.3972 86.9155
TCL: Running FEP window  10: Lambda1 0.44999999999999996 Lambda2 0.49999999999999994 [dLambda 0.04999999999999999]
TCL: Setting parameter firsttimestep to 0
TCL: Setting parameter alchLambda to 0.44999999999999996
Info: NONBONDED TABLE R-SQUARED SPACING: 0.0625
Info: NONBONDED TABLE SIZE: 705 POINTS
TCL: Setting parameter alchLambda2 to 0.49999999999999994
Info: NONBONDED TABLE R-SQUARED SPACING: 0.0625
Info: NONBONDED TABLE SIZE: 705 POINTS
TCL: Running for 1500000 steps
ETITLE: TS BOND ANGLE DIHED IMPRP ELECT VDW BOUNDARY MISC KINETIC TOTAL TEMP POTENTIAL TOTALAVG TEMPAVG PRESSURE GPRESSURE VOLUME PRESSAVG GPRESSAVG
ENERGY: 0 4.4590 3.9417 3.5645 0.0000 -10590.5337 1387.4334 0.0000 0.0000 1760.9554 -7430.1797 301.0542 -9191.1351 -7430.1797 301.0542 -314.2337 -222.5013 30023.9520 -314.2337 -222.5013
ENERGY: 300000 5.8182 3.9336 2.1985 0.0000 -10675.3634 1509.3737 0.0000 0.0000 1723.0920 -7430.9475 294.5811 -9154.0395 -7448.8005 298.2503 1043.1040 1094.2608 29914.5175 190.3631 274.3885
ENERGY: 600000 3.2177 2.9871 4.9335 0.0000 -10619.4611 1415.0126 0.0000 0.0000 1741.9878 -7451.3224 297.8115 -9193.3102 -7465.9413 296.0574 -225.8219 -196.0694 30532.2036 -37.1376 43.2263
ENERGY: 900000 3.5772 5.1791 4.7303 0.0000 -10654.0183 1403.2459 0.0000 0.0000 1755.8552 -7481.4306 300.1823 -9237.2858 -7473.8037 297.4205 -278.2175 -263.4609 30049.3009 -64.6545 14.1314
ENERGY: 1200000 2.3041 4.9892 8.5905 0.0000 -10815.0440 1464.1451 0.0000 0.0000 1713.1728 -7621.8424 292.8853 -9335.0152 -7479.6550 297.9787 309.4937 420.0653 29442.1047 -39.8970 33.9700
ENERGY: 1500000 2.7604 2.6087 3.4731 0.0000 -10541.1427 1368.4979 0.0000 0.0000 1723.5878 -7440.2148 294.6658 -9163.8026 -7474.0081 297.8218 -540.4220 -459.6091 30390.4863 -76.3790 -3.2608
TCL: Running FEP window  11: Lambda1 0.49999999999999994 Lambda2 0.5499999999999999 [dLambda 0.04999999999999999]
TCL: Setting parameter firsttimestep to 0
TCL: Setting parameter alchLambda to 0.49999999999999994
Info: NONBONDED TABLE R-SQUARED SPACING: 0.0625
Info: NONBONDED TABLE SIZE: 705 POINTS
TCL: Setting parameter alchLambda2 to 0.5499999999999999
Info: NONBONDED TABLE R-SQUARED SPACING: 0.0625
Info: NONBONDED TABLE SIZE: 705 POINTS
TCL: Running for 1500000 steps
ETITLE: TS BOND ANGLE DIHED IMPRP ELECT VDW BOUNDARY MISC KINETIC TOTAL TEMP POTENTIAL TOTALAVG TEMPAVG PRESSURE GPRESSURE VOLUME PRESSAVG GPRESSAVG
ENERGY: 0 2.7604 2.6087 3.4731 0.0000 -10541.1441 1369.5037 0.0000 0.0000 1722.7085 -7440.0897 294.5155 -9162.7982 -7440.0897 294.5155 -531.4682 -440.8593 30390.4863 -531.4682 -440.8593
ENERGY: 300000 3.0418 7.5876 4.7557 0.0000 -10619.6692 1402.2948 0.0000 0.0000 1654.4423 -7547.5470 282.8447 -9201.9893 -7465.3823 296.1067 -67.0291 -53.4820 30018.0101 -160.0599 -109.6572
ENERGY: 600000 6.4629 8.2412 2.6639 0.0000 -10667.4517 1432.8664 0.0000 0.0000 1743.9417 -7473.2756 298.1455 -9217.2172 -7455.7708 297.1113 47.1009 143.9406 29961.4800 -199.9491 -133.4515
ENERGY: 900000 4.0352 6.9521 2.9171 0.0000 -10721.7994 1547.5615 0.0000 0.0000 1866.8670 -7293.4666 319.1609 -9160.3336 -7445.6592 299.1460 933.8390 1037.7485 30211.8617 -77.7569 -12.1166
ENERGY: 1200000 4.8220 5.4922 6.1427 0.0000 -10754.7597 1487.4269 0.0000 0.0000 1731.6368 -7519.2390 296.0419 -9250.8758 -7460.8326 298.7643 318.8764 388.4630 30067.7999 -38.9915 23.2209
ENERGY: 1500000 4.1886 8.3849 5.1733 0.0000 -10595.6269 1446.6037 0.0000 0.0000 1724.1996 -7407.0768 294.7704 -9131.2764 -7462.1322 298.2972 415.8211 489.0584 29978.9392 -32.2957 31.6845
TCL: Running FEP window  12: Lambda1 0.5499999999999999 Lambda2 0.6    [dLambda 0.050000000000000044]
TCL: Setting parameter firsttimestep to 0
TCL: Setting parameter alchLambda to 0.5499999999999999
Info: NONBONDED TABLE R-SQUARED SPACING: 0.0625
Info: NONBONDED TABLE SIZE: 705 POINTS
TCL: Setting parameter alchLambda2 to 0.6
Info: NONBONDED TABLE R-SQUARED SPACING: 0.0625
Info: NONBONDED TABLE SIZE: 705 POINTS
TCL: Running for 1500000 steps
ETITLE: TS BOND ANGLE DIHED IMPRP ELECT VDW BOUNDARY MISC KINETIC TOTAL TEMP POTENTIAL TOTALAVG TEMPAVG PRESSURE GPRESSURE VOLUME PRESSAVG GPRESSAVG
ENERGY: 0 4.1886 8.3849 5.1733 0.0000 -10595.3427 1446.4397 0.0000 0.0000 1723.3032 -7407.8530 294.6172 -9131.1562 -7407.8530 294.6172 414.8605 497.5165 29978.9392 414.8605 497.5165
ENERGY: 300000 2.5154 5.0210 5.0660 0.0000 -10620.8758 1444.9106 0.0000 0.0000 1735.5903 -7427.7725 296.7178 -9163.3628 -7465.6010 294.7196 243.6932 280.6177 30073.6567 70.1616 119.6461
ENERGY: 600000 2.5246 5.8771 3.0635 0.0000 -10594.9978 1413.0122 0.0000 0.0000 1742.2635 -7428.2569 297.8586 -9170.5204 -7439.1616 298.1228 -153.7219 -69.2839 30569.1014 10.2181 79.4017
ENERGY: 900000 2.3924 4.4032 6.8596 0.0000 -10730.1471 1442.5458 0.0000 0.0000 1735.7394 -7538.2066 296.7433 -9273.9460 -7447.9541 298.0251 -314.3573 -293.6543 30609.2586 41.4091 104.2645
ENERGY: 1200000 6.5002 5.3928 4.1496 0.0000 -10697.3273 1450.3957 0.0000 0.0000 1751.2073 -7479.6818 299.3877 -9230.8890 -7455.3893 297.8258 77.4406 176.2004 29798.9808 27.2602 91.4259
ENERGY: 1500000 3.6160 8.2826 1.7780 0.0000 -10636.0545 1388.8151 0.0000 0.0000 1719.1958 -7514.3670 293.9150 -9233.5628 -7460.6052 297.4600 -519.9534 -407.3095 30225.0996 52.6170 121.4084
TCL: Running FEP window  13: Lambda1 0.6    Lambda2 0.65   [dLambda 0.050000000000000044]
TCL: Setting parameter firsttimestep to 0
TCL: Setting parameter alchLambda to 0.6
Info: NONBONDED TABLE R-SQUARED SPACING: 0.0625
Info: NONBONDED TABLE SIZE: 705 POINTS
TCL: Setting parameter alchLambda2 to 0.65
Info: NONBONDED TABLE R-SQUARED SPACING: 0.0625
Info: NONBONDED TABLE SIZE: 705 POINTS
TCL: Running for 1500000 steps
ETITLE: TS BOND ANGLE DIHED IMPRP ELECT VDW BOUNDARY MISC KINETIC TOTAL TEMP POTENTIAL TOTALAVG TEMPAVG PRESSURE GPRESSURE VOLUME PRESSAVG GPRESSAVG
ENERGY: 0 3.6160 8.2826 1.7780 0.0000 -10636.2472 1388.5298 0.0000 0.0000 1718.2962 -7515.7445 293.7612 -9234.0407 -7515.7445 293.7612 -485.5204 -402.6448 30225.0996 -485.5204 -402.6448
ENERGY: 300000 6.2729 4.3176 2.5926 0.0000 -10690.2102 1463.4697 0.0000 0.0000 1736.3708 -7477.1867 296.8512 -9213.5575 -7453.0094 296.5370 73.9375 130.5804 29996.0638 23.1339 71.7307
ENERGY: 600000 4.4558 7.5350 3.3434 0.0000 -10648.0806 1429.8434 0.0000 0.0000 1804.1031 -7398.7999 308.4308 -9202.9030 -7438.2771 299.4366 71.8314 128.4250 30325.9094 -25.4933 39.1327
ENERGY: 900000 4.2340 6.5435 4.4073 0.0000 -10696.1058 1447.9988 0.0000 0.0000 1675.9912 -7556.9310 286.5287 -9232.9223 -7470.5949 296.7666 335.3996 386.9233 29831.7687 126.8084 187.0187
ENERGY: 1200000 3.8997 6.3153 3.0585 0.0000 -10544.4979 1405.4161 0.0000 0.0000 1707.2663 -7418.5421 291.8755 -9125.8084 -7463.1529 296.5840 53.8391 138.4794 30156.3166 92.5383 147.8559
ENERGY: 1500000 3.3062 7.7691 5.3045 0.0000 -10635.6607 1453.2370 0.0000 0.0000 1800.4218 -7365.6220 307.8014 -9166.0439 -7461.1534 297.5678 412.3986 474.3385 30213.4137 49.4229 101.5354
TCL: Running FEP window  14: Lambda1 0.65   Lambda2 0.7000000000000001 [dLambda 0.050000000000000044]
TCL: Setting parameter firsttimestep to 0
TCL: Setting parameter alchLambda to 0.65
Info: NONBONDED TABLE R-SQUARED SPACING: 0.0625
Info: NONBONDED TABLE SIZE: 705 POINTS
TCL: Setting parameter alchLambda2 to 0.7000000000000001
Info: NONBONDED TABLE R-SQUARED SPACING: 0.0625
Info: NONBONDED TABLE SIZE: 705 POINTS
TCL: Running for 1500000 steps
ETITLE: TS BOND ANGLE DIHED IMPRP ELECT VDW BOUNDARY MISC KINETIC TOTAL TEMP POTENTIAL TOTALAVG TEMPAVG PRESSURE GPRESSURE VOLUME PRESSAVG GPRESSAVG
ENERGY: 0 3.3062 7.7691 5.3045 0.0000 -10636.3007 1452.5332 0.0000 0.0000 1799.5301 -7367.8575 307.6490 -9167.3876 -7367.8575 307.6490 400.7440 474.8064 30213.4137 400.7440 474.8064
ENERGY: 300000 7.6503 7.3095 5.8127 0.0000 -10622.7930 1465.5687 0.0000 0.0000 1749.2920 -7387.1600 299.0602 -9136.4520 -7451.7971 300.7133 209.0460 302.7832 30407.5979 -248.1922 -150.6678
ENERGY: 600000 4.0534 5.9249 5.5167 0.0000 -10650.5905 1396.7522 0.0000 0.0000 1727.5805 -7510.7627 295.3484 -9238.3432 -7455.3490 298.7508 -437.2234 -379.7753 30608.2338 -131.7398 -41.1283
ENERGY: 900000 2.0148 6.2259 2.5408 0.0000 -10697.2526 1495.1648 0.0000 0.0000 1790.2125 -7401.0938 306.0560 -9191.3063 -7451.7430 300.1943 417.5843 501.4853 30678.2349 7.7493 89.0862
ENERGY: 1200000 6.3340 4.9453 3.4415 0.0000 -10673.9977 1406.4424 0.0000 0.0000 1775.5956 -7477.2388 303.5571 -9252.8344 -7452.8266 300.4801 -512.0439 -480.2225 30230.1616 -70.1486 2.7604
ENERGY: 1500000 5.6401 5.6629 8.7436 0.0000 -10600.1825 1368.1519 0.0000 0.0000 1778.2413 -7433.7427 304.0094 -9211.9840 -7434.3825 301.4134 -508.2677 -408.5857 30238.5967 -62.8212 14.5261
TCL: Running FEP window  15: Lambda1 0.7000000000000001 Lambda2 0.7500000000000001 [dLambda 0.050000000000000044]
TCL: Setting parameter firsttimestep to 0
TCL: Setting parameter alchLambda to 0.7000000000000001
Info: NONBONDED TABLE R-SQUARED SPACING: 0.0625
Info: NONBONDED TABLE SIZE: 705 POINTS
TCL: Setting parameter alchLambda2 to 0.7500000000000001
Info: NONBONDED TABLE R-SQUARED SPACING: 0.0625
Info: NONBONDED TABLE SIZE: 705 POINTS
TCL: Running for 1500000 steps
ETITLE: TS BOND ANGLE DIHED IMPRP ELECT VDW BOUNDARY MISC KINETIC TOTAL TEMP POTENTIAL TOTALAVG TEMPAVG PRESSURE GPRESSURE VOLUME PRESSAVG GPRESSAVG
ENERGY: 0 5.6401 5.6629 8.7436 0.0000 -10600.6795 1368.4738 0.0000 0.0000 1777.3444 -7434.8147 303.8561 -9212.1590 -7434.8147 303.8561 -474.7135 -392.3985 30238.5967 -474.7135 -392.3985
ENERGY: 300000 4.1742 4.7268 1.9601 0.0000 -10669.9028 1464.3161 0.0000 0.0000 1685.5804 -7509.1452 288.1681 -9194.7257 -7454.8109 299.2962 -100.9795 18.1003 30430.3402 -147.1010 -58.4134
ENERGY: 600000 1.1163 6.5338 5.0472 0.0000 -10544.0204 1373.1377 0.0000 0.0000 1752.7637 -7405.4217 299.6537 -9158.1854 -7451.1086 298.9136 -325.7080 -223.7743 30378.8942 -125.3107 -55.8271
ENERGY: 900000 3.9627 5.1470 1.9855 0.0000 -10700.7953 1542.8095 0.0000 0.0000 1731.3441 -7415.5464 295.9918 -9146.8905 -7440.7392 299.8287 1041.8347 1102.1460 30546.7957 44.2040 115.3090
ENERGY: 1200000 2.1761 3.4399 3.8355 0.0000 -10599.7455 1413.7552 0.0000 0.0000 1813.5666 -7362.9723 310.0487 -9176.5388 -7435.9019 300.3462 -243.4564 -155.1144 30777.4791 38.8218 107.7622
ENERGY: 1500000 4.1574 4.4755 3.4581 0.0000 -10509.9214 1267.4194 0.0000 0.0000 1793.5354 -7436.8756 306.6241 -9230.4110 -7440.3177 300.0186 -1343.5060 -1330.8312 30249.1987 -89.8335 -29.2233
TCL: Running FEP window  16: Lambda1 0.7500000000000001 Lambda2 0.8000000000000002 [dLambda 0.050000000000000044]
TCL: Setting parameter firsttimestep to 0
TCL: Setting parameter alchLambda to 0.7500000000000001
Info: NONBONDED TABLE R-SQUARED SPACING: 0.0625
Info: NONBONDED TABLE SIZE: 705 POINTS
TCL: Setting parameter alchLambda2 to 0.8000000000000002
Info: NONBONDED TABLE R-SQUARED SPACING: 0.0625
Info: NONBONDED TABLE SIZE: 705 POINTS
TCL: Running for 1500000 steps
ETITLE: TS BOND ANGLE DIHED IMPRP ELECT VDW BOUNDARY MISC KINETIC TOTAL TEMP POTENTIAL TOTALAVG TEMPAVG PRESSURE GPRESSURE VOLUME PRESSAVG GPRESSAVG
ENERGY: 0 4.1574 4.4755 3.4581 0.0000 -10511.8575 1267.5768 0.0000 0.0000 1792.6813 -7439.5085 306.4781 -9232.1898 -7439.5085 306.4781 -1405.9826 -1319.7500 30249.1987 -1405.9826 -1319.7500
ENERGY: 300000 5.5869 2.4970 5.7438 0.0000 -10810.9448 1494.5273 0.0000 0.0000 1760.2722 -7542.3175 300.9374 -9302.5898 -7452.0017 304.9421 270.4266 343.3295 29860.9995 -392.0862 -314.3093
ENERGY: 600000 3.3420 9.8815 3.0534 0.0000 -10535.5344 1338.8088 0.0000 0.0000 1781.5705 -7398.8781 304.5786 -9180.4486 -7426.9812 303.4892 -688.1958 -602.4572 30093.8873 -467.3164 -411.2104
ENERGY: 900000 4.7449 3.2900 3.3252 0.0000 -10570.6145 1381.1729 0.0000 0.0000 1779.3408 -7398.7407 304.1974 -9178.0815 -7423.6474 302.9153 -132.3079 -83.0159 30333.4493 -350.5218 -295.2840
ENERGY: 1200000 4.2357 3.6776 8.0410 0.0000 -10498.0740 1336.1324 0.0000 0.0000 1762.8001 -7383.1872 301.3696 -9145.9873 -7441.8361 302.1715 -581.9774 -516.9316 30177.0967 -361.5153 -301.5757
ENERGY: 1500000 2.2543 4.5499 1.8682 0.0000 -10501.6776 1322.1777 0.0000 0.0000 1787.3304 -7383.4971 305.5633 -9170.8275 -7437.5836 302.5427 -617.7178 -519.8649 30245.0645 -306.5776 -244.7713
TCL: Running FEP window  17: Lambda1 0.8000000000000002 Lambda2 0.8500000000000002 [dLambda 0.050000000000000044]
TCL: Setting parameter firsttimestep to 0
TCL: Setting parameter alchLambda to 0.8000000000000002
Info: NONBONDED TABLE R-SQUARED SPACING: 0.0625
Info: NONBONDED TABLE SIZE: 705 POINTS
TCL: Setting parameter alchLambda2 to 0.8500000000000002
Info: NONBONDED TABLE R-SQUARED SPACING: 0.0625
Info: NONBONDED TABLE SIZE: 705 POINTS
TCL: Running for 1500000 steps
ETITLE: TS BOND ANGLE DIHED IMPRP ELECT VDW BOUNDARY MISC KINETIC TOTAL TEMP POTENTIAL TOTALAVG TEMPAVG PRESSURE GPRESSURE VOLUME PRESSAVG GPRESSAVG
ENERGY: 0 2.2543 4.5499 1.8682 0.0000 -10505.2616 1325.0628 0.0000 0.0000 1786.4668 -7385.0597 305.4157 -9171.5265 -7385.0597 305.4157 -570.6251 -483.9447 30245.0645 -570.6251 -483.9447
ENERGY: 300000 2.3880 4.1178 2.9056 0.0000 -10498.9283 1311.1646 0.0000 0.0000 1789.6554 -7388.6969 305.9608 -9178.3523 -7410.1534 301.4920 -877.1158 -822.3551 30458.7560 -212.7009 -156.1063
ENERGY: 600000 7.0101 5.0973 6.2644 0.0000 -10475.5471 1326.8309 0.0000 0.0000 1745.7021 -7384.6423 298.4465 -9130.3443 -7407.8045 301.6068 -649.4163 -641.8980 30307.4118 -291.7755 -240.3603
ENERGY: 900000 3.2934 4.2380 2.0624 0.0000 -10634.4352 1411.2662 0.0000 0.0000 1751.8025 -7461.7727 299.4894 -9213.5752 -7411.6771 301.7152 -125.3067 -165.7372 30523.2718 -211.8591 -164.0827
ENERGY: 1200000 6.1965 4.7648 5.9192 0.0000 -10497.2353 1291.1136 0.0000 0.0000 1758.6485 -7430.5925 300.6598 -9189.2411 -7422.9066 301.3971 -1228.7236 -1116.6803 30397.3479 -233.0987 -182.3634
ENERGY: 1500000 8.4304 5.6488 2.9115 0.0000 -10577.9835 1383.4742 0.0000 0.0000 1746.8425 -7430.6762 298.6414 -9177.5186 -7427.3807 301.0328 -546.8702 -497.3328 30404.2959 -234.8689 -179.5943
TCL: Running FEP window  18: Lambda1 0.8500000000000002 Lambda2 0.9000000000000002 [dLambda 0.050000000000000044]
TCL: Setting parameter firsttimestep to 0
TCL: Setting parameter alchLambda to 0.8500000000000002
Info: NONBONDED TABLE R-SQUARED SPACING: 0.0625
Info: NONBONDED TABLE SIZE: 705 POINTS
TCL: Setting parameter alchLambda2 to 0.9000000000000002
Info: NONBONDED TABLE R-SQUARED SPACING: 0.0625
Info: NONBONDED TABLE SIZE: 705 POINTS
TCL: Running for 1500000 steps
ETITLE: TS BOND ANGLE DIHED IMPRP ELECT VDW BOUNDARY MISC KINETIC TOTAL TEMP POTENTIAL TOTALAVG TEMPAVG PRESSURE GPRESSURE VOLUME PRESSAVG GPRESSAVG
ENERGY: 0 8.4304 5.6488 2.9115 0.0000 -10581.0747 1384.3890 0.0000 0.0000 1745.9690 -7433.7261 298.4921 -9179.6950 -7433.7261 298.4921 -560.7215 -478.5302 30404.2959 -560.7215 -478.5302
ENERGY: 300000 2.6927 6.5146 4.9428 0.0000 -10664.6147 1384.2517 0.0000 0.0000 1794.0738 -7472.1391 306.7162 -9266.2130 -7478.5838 300.6772 -380.4670 -259.1468 29914.0898 -189.5343 -129.6485
ENERGY: 600000 4.8602 2.8332 6.5075 0.0000 -10703.5247 1502.7930 0.0000 0.0000 1763.9658 -7422.5651 301.5689 -9186.5309 -7455.6824 300.9232 409.4937 481.5224 30468.6409 -252.3783 -188.5282
ENERGY: 900000 4.1285 7.1610 7.2425 0.0000 -10691.7017 1417.5705 0.0000 0.0000 1743.0585 -7512.5406 297.9946 -9255.5992 -7460.2823 300.3419 -203.6150 -104.8646 30148.9044 -279.6336 -205.6780
ENERGY: 1200000 2.5525 3.9102 6.1901 0.0000 -10684.0342 1483.4724 0.0000 0.0000 1780.7717 -7407.1373 304.4420 -9187.9090 -7460.9424 301.5917 495.5167 536.4017 30426.9949 -221.6506 -157.6736
ENERGY: 1500000 1.6910 7.2268 3.1143 0.0000 -10789.5885 1525.9251 0.0000 0.0000 1748.3568 -7503.2744 298.9004 -9251.6313 -7468.0724 301.0486 736.6530 752.0704 30315.8398 -212.9526 -156.6744
TCL: Running FEP window  19: Lambda1 0.9000000000000002 Lambda2 0.9500000000000003 [dLambda 0.050000000000000044]
TCL: Setting parameter firsttimestep to 0
TCL: Setting parameter alchLambda to 0.9000000000000002
Info: NONBONDED TABLE R-SQUARED SPACING: 0.0625
Info: NONBONDED TABLE SIZE: 705 POINTS
TCL: Setting parameter alchLambda2 to 0.9500000000000003
Info: NONBONDED TABLE R-SQUARED SPACING: 0.0625
Info: NONBONDED TABLE SIZE: 705 POINTS
TCL: Running for 1500000 steps
ETITLE: TS BOND ANGLE DIHED IMPRP ELECT VDW BOUNDARY MISC KINETIC TOTAL TEMP POTENTIAL TOTALAVG TEMPAVG PRESSURE GPRESSURE VOLUME PRESSAVG GPRESSAVG
ENERGY: 0 1.6910 7.2268 3.1143 0.0000 -10792.1583 1526.2303 0.0000 0.0000 1747.5108 -7506.3850 298.7557 -9253.8958 -7506.3850 298.7557 690.3013 764.8988 30315.8398 690.3013 764.8988
ENERGY: 300000 2.0099 4.7574 2.9687 0.0000 -10489.5583 1336.2422 0.0000 0.0000 1815.9351 -7327.6451 310.4536 -9143.5801 -7440.1571 305.5193 -754.4506 -644.1723 30751.0648 -17.5361 36.9716
ENERGY: 600000 2.5056 4.1211 5.0091 0.0000 -10655.5400 1423.5530 0.0000 0.0000 1736.8088 -7483.5424 296.9261 -9220.3512 -7449.1854 302.4001 118.9131 108.6263 29976.7163 -101.8400 -55.3248
ENERGY: 900000 3.1213 8.9176 4.0756 0.0000 -10628.0235 1389.0156 0.0000 0.0000 1759.6682 -7463.2254 300.8341 -9222.8935 -7452.8835 301.8836 -69.4473 -70.3346 29995.9546 -158.3298 -106.1877
ENERGY: 1200000 4.7009 3.8932 5.3969 0.0000 -10640.6506 1382.3416 0.0000 0.0000 1718.3642 -7525.9539 293.7728 -9244.3181 -7456.3559 300.9878 -768.1812 -631.4553 30687.9226 -240.8626 -184.2708
ENERGY: 1500000 5.6234 5.5689 5.2540 0.0000 -10730.5476 1461.1154 0.0000 0.0000 1692.7255 -7560.2604 289.3896 -9252.9859 -7465.8362 299.6929 48.0372 118.5724 30316.3932 -126.7601 -72.1481
TCL: Running FEP window  20: Lambda1 0.9500000000000003 Lambda2 1.0    [dLambda 0.04999999999999971]
TCL: Setting parameter firsttimestep to 0
TCL: Setting parameter alchLambda to 0.9500000000000003
Info: NONBONDED TABLE R-SQUARED SPACING: 0.0625
Info: NONBONDED TABLE SIZE: 705 POINTS
TCL: Setting parameter alchLambda2 to 1.0
Info: NONBONDED TABLE R-SQUARED SPACING: 0.0625
Info: NONBONDED TABLE SIZE: 705 POINTS
TCL: Running for 1500000 steps
ETITLE: TS BOND ANGLE DIHED IMPRP ELECT VDW BOUNDARY MISC KINETIC TOTAL TEMP POTENTIAL TOTALAVG TEMPAVG PRESSURE GPRESSURE VOLUME PRESSAVG GPRESSAVG
ENERGY: 0 5.6234 5.5689 5.2540 0.0000 -10733.4334 1461.8119 0.0000 0.0000 1691.8371 -7563.3382 289.2377 -9255.1753 -7563.3382 289.2377 55.0176 133.5154 30316.3932 55.0176 133.5154
ENERGY: 300000 3.7105 5.4437 4.8845 0.0000 -10608.4793 1401.2697 0.0000 0.0000 1771.5715 -7421.5994 302.8691 -9193.1709 -7506.8142 295.2010 69.5518 85.1950 30437.2828 142.5561 171.1469
ENERGY: 600000 2.5242 4.9749 2.6949 0.0000 -10595.4995 1355.1057 0.0000 0.0000 1740.2321 -7489.9677 297.5113 -9230.1998 -7473.5302 297.8549 -434.3935 -406.2669 30159.0215 76.9472 115.0198
ENERGY: 900000 6.6291 1.8273 3.1987 0.0000 -10486.1883 1340.6362 0.0000 0.0000 1793.7379 -7340.1590 306.6587 -9133.8969 -7450.4127 299.8231 -685.4016 -631.9623 30612.1537 56.2491 99.7006
ENERGY: 1200000 2.4537 4.8795 5.8681 0.0000 -10532.8736 1300.2695 0.0000 0.0000 1790.7257 -7428.6771 306.1438 -9219.4028 -7451.7585 300.5039 -706.0464 -671.1804 29961.9522 -103.6066 -65.3420
ENERGY: 1500000 2.4652 7.0279 6.5986 0.0000 -10735.3523 1569.6116 0.0000 0.0000 1756.6590 -7392.9902 300.3197 -9149.6492 -7453.3945 300.1187 821.9936 903.4293 30754.3972 -48.8935 -5.3075
TCL: Exiting due to exit command.
