Info: SIMULATION PARAMETERS:
Info: TIMESTEP               2
Info: NUMBER OF STEPS        0
Info: STEPS PER CYCLE        10
Info: PERIODIC CELL BASIS 1  30.5533 0 0
Info: PERIODIC CELL BASIS 2  0 33.0073 0
Info: PERIODIC CELL BASIS 3  0 0 29.8922
Info: PERIODIC CELL CENTER   0 0 0
Info: WRAPPING WATERS AROUND PERIODIC BOUNDARIES ON OUTPUT.
Info: WRAPPING ALL CLUSTERS AROUND PERIODIC BOUNDARIES ON OUTPUT.
Info: FIRST LDB TIMESTEP     50
Info: LAST LDB TIMESTEP     -1
Info: HOM BACKGROUND SCALING 1
Info: PME BACKGROUND SCALING 1
Info: MIN ATOMS PER PATCH    40
Info: EMPTY PATCH LOAD       40 ATOMS
Info: VELOCITY FILE          mobley_5220185_equil.vel
Info: CENTER OF MASS MOVING INITIALLY? NO
Info: DIELECTRIC             1
Info: EXCLUDE                SCALED ONE-FOUR
Info: 1-4 ELECTROSTATICS SCALED BY 0.833333
Info: MODIFIED 1-4 VDW PARAMETERS WILL BE USED
Info: DCD FILENAME           mobley_5220185_prod.dcd
Info: DCD FREQUENCY          100000
Info: DCD FIRST STEP         100000
Info: DCD FILE WILL CONTAIN UNIT CELL DATA
Info: XST FILENAME           mobley_5220185_prod.xst
Info: XST FREQUENCY          100000
Info: NO VELOCITY DCD OUTPUT
Info: NO FORCE DCD OUTPUT
Info: OUTPUT FILENAME        mobley_5220185_prod
Info: BINARY OUTPUT FILES WILL BE USED
Info: RESTART FILENAME       mobley_5220185_prod.restart
Info: RESTART FREQUENCY      100000
Info: BINARY RESTART FILES WILL BE USED
Info: CUTOFF                 9
Info: PAIRLIST DISTANCE      11
Info: PAIRLIST SHRINK RATE   0.01
Info: PAIRLIST GROW RATE     0.01
Info: PAIRLIST TRIGGER       0.3
Info: PAIRLISTS PER CYCLE    2
Info: PAIRLISTS ENABLED
Info: MARGIN                 2
Info: HYDROGEN GROUP CUTOFF  2.5
Info: PATCH DIMENSION        15.5
Info: ENERGY OUTPUT STEPS    100000
Info: ENERGY EVALUATION STEPS    100000
Info: OUTPUT ENERGY PRECISION 4
Info: CROSSTERM ENERGY INCLUDED IN DIHEDRAL
Info: TIMING OUTPUT STEPS    1000000
Info: PRESSURE OUTPUT STEPS  100000
Info: ALCHEMICAL FEP ON
Info: FEP CURRENT LAMBDA VALUE     0
Info: FEP COMPARISON LAMBDA VALUE  0.05
Info: FEP INTRA-ALCHEMICAL NON-BONDED INTERACTIONS WILL BE RETAINED
Info: FEP INTRA-ALCHEMICAL BONDED INTERACTIONS WILL BE RETAINED
Info: FEP VDW SHIFTING COEFFICIENT 5
Info: FEP ELEC. ACTIVE FOR ANNIHILATED PARTICLES BETWEEN LAMBDA = 0 AND LAMBDA = 0.5
Info: FEP ELEC. ACTIVE FOR EXNIHILATED PARTICLES BETWEEN LAMBDA = 0.5 AND LAMBDA = 1
Info: FEP VDW ACTIVE FOR ANNIHILATED PARTICLES BETWEEN LAMBDA = 0 AND LAMBDA = 1
Info: FEP VDW ACTIVE FOR EXNIHILATED PARTICLES BETWEEN LAMBDA = 0 AND LAMBDA = 1
Info: FEP BOND ACTIVE FOR ANNIHILATED PARTICLES BETWEEN LAMBDA = 1 AND LAMBDA = 1
Info: FEP BOND ACTIVE FOR EXNIHILATED PARTICLES BETWEEN LAMBDA = 0 AND LAMBDA = 0
Info: LANGEVIN DYNAMICS ACTIVE
Info: LANGEVIN TEMPERATURE   300
Info: LANGEVIN USING BBK INTEGRATOR
Info: LANGEVIN DAMPING COEFFICIENT IS 1 INVERSE PS
Info: LANGEVIN DYNAMICS APPLIED TO HYDROGENS
Info: LANGEVIN PISTON PRESSURE CONTROL ACTIVE
Info:        TARGET PRESSURE IS 1.01325 BAR
Info:     OSCILLATION PERIOD IS 50 FS
Info:             DECAY TIME IS 25 FS
Info:     PISTON TEMPERATURE IS 300 K
Info:       PRESSURE CONTROL IS GROUP-BASED
Info:    INITIAL STRAIN RATE IS 7.2553e-05 7.2553e-05 7.2553e-05
Info:       CELL FLUCTUATION IS ISOTROPIC
Info: PARTICLE MESH EWALD (PME) ACTIVE
Info: PME TOLERANCE               1e-06
Info: PME EWALD COEFFICIENT       0.348832
Info: PME INTERPOLATION ORDER     4
Info: PME GRID DIMENSIONS         32 36 32
Info: PME MAXIMUM GRID SPACING    1
Info: PME CALCULATION WILL BE PERFORMED ON GPU
Info: FULL ELECTROSTATIC EVALUATION FREQUENCY      2
Info: USING VERLET I (r-RESPA) MTS SCHEME.
Info: C1 SPLITTING OF LONG RANGE ELECTROSTATICS
Info: PLACING ATOMS IN PATCHES BY HYDROGEN GROUPS
Info: RIGID BONDS TO HYDROGEN : ALL
Info:         ERROR TOLERANCE : 1e-08
Info:          MAX ITERATIONS : 100
Info: RIGID WATER USING SETTLE ALGORITHM
Info: RANDOM NUMBER SEED     1743758639
Info: USE HYDROGEN BONDS?    NO
Info: Using AMBER format force field!
Info: AMBER PARM FILE        mobley_5220185.prmtop
Info: COORDINATE PDB         mobley_5220185.pdb
Info: Exclusions will be read from PARM file!
Info: SCNB (VDW SCALING)     2
Info: USING ARITHMETIC MEAN TO COMBINE L-J SIGMA PARAMETERS
Info: BINARY COORDINATES     mobley_5220185_equil.coor
Info: SUMMARY OF PARAMETERS:
Info: 8 BONDS
Info: 10 ANGLES
Info:   10 HARMONIC
Info:   0 COSINE-BASED
Info: 6 DIHEDRAL
Info: 0 IMPROPER
Info: 0 CROSSTERM
Info: 0 VDW
Info: 28 VDW_PAIRS
Info: 0 NBTHOLE_PAIRS
Info: To read alchdata from file: mobley_5220185.pdb
Info: To read alchflag data from column: 5
Info: STRUCTURE SUMMARY:
Info: 2914 ATOMS
Info: 2914 BONDS
Info: 26 ANGLES
Info: 35 DIHEDRALS
Info: 0 IMPROPERS
Info: 0 CROSSTERMS
Info: 2968 EXCLUSIONS
Info: 2906 RIGID BONDS
Info: ALCH: 0 ATOMS TO DISAPPEAR IN FINAL STATE
Info: ALCH: 16 ATOMS TO APPEAR IN FINAL STATE
Info: 5836 DEGREES OF FREEDOM
Info: 974 HYDROGEN GROUPS
Info: 4 ATOMS IN LARGEST HYDROGEN GROUP
Info: 974 MIGRATION GROUPS
Info: 4 ATOMS IN LARGEST MIGRATION GROUP
Info: TOTAL MASS = 17511.6 amu
Info: TOTAL CHARGE = 0.000100043 e
Info: MASS DENSITY = 0.964628 g/cm^3
Info: ATOM DENSITY = 0.0966639 atoms/A^3
Info: ADDED 0 IMPLICIT EXCLUSIONS
Info: NONBONDED TABLE R-SQUARED SPACING: 0.0625
Info: NONBONDED TABLE SIZE: 705 POINTS
Info: REMOVING COM VELOCITY -0.159823 0.141586 0.130378
Info: Use 3D box decompostion in PME FFT.
Info: Updated CUDA force table with 4096 elements.
Info: Updated CUDA LJ table with 7 x 7 elements.
Info: Found 17 unique exclusion lists needing 40 bytes
TCL: Running for 1500000 steps
ETITLE: TS BOND ANGLE DIHED IMPRP ELECT VDW BOUNDARY MISC KINETIC TOTAL TEMP POTENTIAL TOTALAVG TEMPAVG PRESSURE GPRESSURE VOLUME PRESSAVG GPRESSAVG
ENERGY: 0 4.1505 5.5917 2.1897 0.0000 -10434.8796 1428.1547 0.0000 0.0000 1689.4459 -7305.3471 291.3529 -8994.7930 -7305.3471 291.3529 117.6028 199.9206 30145.6777 117.6028 199.9206
ENERGY: 300000 2.9248 3.9733 4.3577 0.0000 -10505.2958 1394.5141 0.0000 0.0000 1766.9034 -7332.6224 304.7108 -9099.5258 -7341.9300 297.2559 -89.8634 -64.0525 29539.3562 -48.0419 -1.8176
ENERGY: 600000 2.7690 3.9418 2.0088 0.0000 -10458.7188 1379.5833 0.0000 0.0000 1792.2830 -7278.1330 309.0877 -9070.4160 -7337.8634 299.0955 -353.9785 -307.2180 29865.4441 -138.7842 -79.6410
ENERGY: 900000 2.5595 3.7220 5.2230 0.0000 -10602.7805 1454.9843 0.0000 0.0000 1751.0820 -7385.2096 301.9824 -9136.2917 -7340.0967 299.4983 13.7897 -19.4570 30091.3197 -189.9895 -138.2853
ENERGY: 1200000 1.6967 5.8752 3.2182 0.0000 -10486.6261 1422.8046 0.0000 0.0000 1769.0205 -7284.0109 305.0760 -9053.0314 -7325.6814 300.2661 132.0984 197.7963 29762.6699 -154.4038 -96.8615
ENERGY: 1500000 2.2056 7.5340 2.1188 0.0000 -10554.9688 1541.1124 0.0000 0.0000 1719.2287 -7282.7695 296.4891 -9001.9982 -7322.5016 299.9620 1004.1183 1105.1366 29701.4385 -44.0640 11.6179
TCL: Running FEP window   2: Lambda1 0.05   Lambda2 0.1    [dLambda 0.05  ]
TCL: Setting parameter firsttimestep to 0
TCL: Setting parameter alchLambda to 0.05
Info: NONBONDED TABLE R-SQUARED SPACING: 0.0625
Info: NONBONDED TABLE SIZE: 705 POINTS
TCL: Setting parameter alchLambda2 to 0.1
Info: NONBONDED TABLE R-SQUARED SPACING: 0.0625
Info: NONBONDED TABLE SIZE: 705 POINTS
TCL: Running for 1500000 steps
ETITLE: TS BOND ANGLE DIHED IMPRP ELECT VDW BOUNDARY MISC KINETIC TOTAL TEMP POTENTIAL TOTALAVG TEMPAVG PRESSURE GPRESSURE VOLUME PRESSAVG GPRESSAVG
ENERGY: 0 2.2056 7.5340 2.1188 0.0000 -10554.9702 1542.0723 0.0000 0.0000 1718.3523 -7282.6873 296.3380 -9001.0396 -7282.6873 296.3380 1029.1829 1108.3749 29701.4385 1029.1829 1108.3749
ENERGY: 300000 5.6248 8.9241 2.8820 0.0000 -10470.5392 1353.8796 0.0000 0.0000 1751.5084 -7347.7202 302.0559 -9099.2286 -7294.5475 297.8708 -583.7446 -545.3467 29674.9906 -170.3194 -124.8156
ENERGY: 600000 4.1362 4.9805 2.3462 0.0000 -10673.8706 1495.6456 0.0000 0.0000 1760.8164 -7405.9458 303.6611 -9166.7622 -7297.4941 300.8525 252.8324 264.2954 29716.9700 -130.3153 -77.6680
ENERGY: 900000 3.8255 6.1196 2.0053 0.0000 -10617.1529 1504.8569 0.0000 0.0000 1735.9956 -7364.3499 299.3807 -9100.3456 -7300.4152 301.4868 178.3547 227.7511 30152.0652 -140.9885 -77.3879
ENERGY: 1200000 2.4263 6.1109 1.1837 0.0000 -10569.7783 1485.1443 0.0000 0.0000 1681.0742 -7393.8389 289.9092 -9074.9131 -7311.4023 300.4972 354.7812 474.6560 29763.5653 -115.4518 -44.2576
ENERGY: 1500000 2.7400 4.9926 3.0672 0.0000 -10402.4916 1365.5491 0.0000 0.0000 1770.2939 -7255.8488 305.2956 -9026.1427 -7312.3890 299.8875 -231.3729 -132.4591 29900.8801 -184.4669 -113.3799
TCL: Running FEP window   3: Lambda1 0.1    Lambda2 0.15000000000000002 [dLambda 0.05000000000000002]
TCL: Setting parameter firsttimestep to 0
TCL: Setting parameter alchLambda to 0.1
Info: NONBONDED TABLE R-SQUARED SPACING: 0.0625
Info: NONBONDED TABLE SIZE: 705 POINTS
TCL: Setting parameter alchLambda2 to 0.15000000000000002
Info: NONBONDED TABLE R-SQUARED SPACING: 0.0625
Info: NONBONDED TABLE SIZE: 705 POINTS
TCL: Running for 1500000 steps
ETITLE: TS BOND ANGLE DIHED IMPRP ELECT VDW BOUNDARY MISC KINETIC TOTAL TEMP POTENTIAL TOTALAVG TEMPAVG PRESSURE GPRESSURE VOLUME PRESSAVG GPRESSAVG
ENERGY: 0 2.7400 4.9926 3.0672 0.0000 -10402.4915 1366.1830 0.0000 0.0000 1769.4446 -7256.0641 305.1491 -9025.5087 -7256.0641 305.1491 -217.1479 -130.8242 29900.8801 -217.1479 -130.8242
ENERGY: 300000 3.3075 5.0110 1.8301 0.0000 -10441.5100 1429.9374 0.0000 0.0000 1681.9878 -7319.4362 290.0667 -9001.4239 -7302.2868 300.1249 -100.3827 -64.8649 30400.8520 59.8648 114.4016
ENERGY: 600000 3.5175 4.4995 2.7631 0.0000 -10464.4488 1403.2173 0.0000 0.0000 1717.9673 -7332.4841 296.2716 -9050.4514 -7318.0604 298.1228 -131.0278 -135.1906 29927.3461 16.9112 48.8276
ENERGY: 900000 2.9730 4.6188 1.8515 0.0000 -10425.0770 1350.5042 0.0000 0.0000 1692.6518 -7372.4776 291.9058 -9065.1295 -7318.7371 298.7769 -849.7007 -800.3669 30047.1186 -50.0580 -5.8485
ENERGY: 1200000 3.8760 3.0273 1.1773 0.0000 -10442.1402 1415.8123 0.0000 0.0000 1792.6264 -7225.6209 309.1469 -9018.2473 -7307.7246 300.4195 -80.5718 -17.4867 30355.7210 -33.2989 19.4382
ENERGY: 1500000 1.5447 3.2694 2.3825 0.0000 -10468.6129 1394.1653 0.0000 0.0000 1707.8263 -7359.4246 294.5227 -9067.2509 -7300.5608 301.0733 -366.0592 -296.8610 29867.9616 -22.7423 31.6715
TCL: Running FEP window   4: Lambda1 0.15000000000000002 Lambda2 0.2    [dLambda 0.04999999999999999]
TCL: Setting parameter firsttimestep to 0
TCL: Setting parameter alchLambda to 0.15000000000000002
Info: NONBONDED TABLE R-SQUARED SPACING: 0.0625
Info: NONBONDED TABLE SIZE: 705 POINTS
TCL: Setting parameter alchLambda2 to 0.2
Info: NONBONDED TABLE R-SQUARED SPACING: 0.0625
Info: NONBONDED TABLE SIZE: 705 POINTS
TCL: Running for 1500000 steps
ETITLE: TS BOND ANGLE DIHED IMPRP ELECT VDW BOUNDARY MISC KINETIC TOTAL TEMP POTENTIAL TOTALAVG TEMPAVG PRESSURE GPRESSURE VOLUME PRESSAVG GPRESSAVG
ENERGY: 0 1.5447 3.2694 2.3825 0.0000 -10468.6143 1395.0988 0.0000 0.0000 1706.9637 -7359.3551 294.3740 -9066.3189 -7359.3551 294.3740 -385.2181 -290.6565 29867.9616 -385.2181 -290.6565
ENERGY: 300000 1.9019 5.2072 1.2179 0.0000 -10519.8973 1456.5081 0.0000 0.0000 1786.4334 -7268.6287 308.0789 -9055.0621 -7321.6881 299.8386 89.9834 214.3457 30082.9957 -158.7976 -67.4098
ENERGY: 600000 3.1448 4.6920 0.6455 0.0000 -10513.2693 1439.8938 0.0000 0.0000 1683.8294 -7381.0640 290.3843 -9064.8933 -7346.4279 298.4986 -37.9374 49.5098 30041.4623 -139.3833 -61.3510
ENERGY: 900000 2.6508 4.7809 3.1163 0.0000 -10489.0369 1391.0457 0.0000 0.0000 1761.8257 -7325.6174 303.8352 -9087.4431 -7326.5163 300.0279 -346.7018 -236.3117 29796.3551 -94.2857 -21.6976
ENERGY: 1200000 4.1410 3.8907 1.4043 0.0000 -10496.6160 1446.3164 0.0000 0.0000 1732.7777 -7308.0859 298.8257 -9040.8636 -7316.8891 300.3110 135.0525 194.4452 29803.9073 -1.1656 64.5390
ENERGY: 1500000 2.4670 5.4864 2.2600 0.0000 -10324.7526 1309.6794 0.0000 0.0000 1715.4869 -7289.3729 295.8438 -9004.8598 -7317.5544 301.0220 -688.7391 -599.3582 29932.6630 28.5876 101.4890
TCL: Running FEP window   5: Lambda1 0.2    Lambda2 0.25   [dLambda 0.04999999999999999]
TCL: Setting parameter firsttimestep to 0
TCL: Setting parameter alchLambda to 0.2
Info: NONBONDED TABLE R-SQUARED SPACING: 0.0625
Info: NONBONDED TABLE SIZE: 705 POINTS
TCL: Setting parameter alchLambda2 to 0.25
Info: NONBONDED TABLE R-SQUARED SPACING: 0.0625
Info: NONBONDED TABLE SIZE: 705 POINTS
TCL: Running for 1500000 steps
ETITLE: TS BOND ANGLE DIHED IMPRP ELECT VDW BOUNDARY MISC KINETIC TOTAL TEMP POTENTIAL TOTALAVG TEMPAVG PRESSURE GPRESSURE VOLUME PRESSAVG GPRESSAVG
ENERGY: 0 2.4670 5.4864 2.2600 0.0000 -10324.7532 1311.5771 0.0000 0.0000 1714.6452 -7288.3175 295.6987 -9002.9627 -7288.3175 295.6987 -679.5225 -588.4577 29932.6630 -679.5225 -588.4577
ENERGY: 300000 5.1929 4.8939 1.2911 0.0000 -10493.4086 1396.2862 0.0000 0.0000 1775.9546 -7309.7899 306.2718 -9085.7445 -7339.3864 296.7121 -422.3644 -341.3137 29737.7836 -597.7654 -552.2983
ENERGY: 600000 1.7257 4.3523 2.7387 0.0000 -10418.6733 1375.9562 0.0000 0.0000 1740.9599 -7292.9405 300.2368 -9033.9005 -7313.3516 298.1946 -215.9474 -197.8965 30004.1319 -320.5173 -280.6338
ENERGY: 900000 3.7713 5.0483 1.4720 0.0000 -10492.3434 1458.1482 0.0000 0.0000 1685.5514 -7338.3522 290.6813 -9023.9036 -7324.3622 296.7131 -108.3617 -19.8006 30389.4907 -242.9268 -195.5999
ENERGY: 1200000 6.6437 7.3987 3.6085 0.0000 -10438.4699 1369.5053 0.0000 0.0000 1823.6150 -7227.6986 314.4910 -9051.3136 -7318.4564 299.1103 -288.4969 -200.8414 29594.8746 -254.3944 -200.2573
ENERGY: 1500000 2.6307 10.3004 1.7983 0.0000 -10418.4482 1366.3400 0.0000 0.0000 1707.9190 -7329.4598 294.5387 -9037.3788 -7322.6011 298.7153 -491.1345 -418.5945 30030.0960 -201.2158 -146.4975
TCL: Running FEP window   6: Lambda1 0.25   Lambda2 0.3    [dLambda 0.04999999999999999]
TCL: Setting parameter firsttimestep to 0
TCL: Setting parameter alchLambda to 0.25
Info: NONBONDED TABLE R-SQUARED SPACING: 0.0625
Info: NONBONDED TABLE SIZE: 705 POINTS
TCL: Setting parameter alchLambda2 to 0.3
Info: NONBONDED TABLE R-SQUARED SPACING: 0.0625
Info: NONBONDED TABLE SIZE: 705 POINTS
TCL: Running for 1500000 steps
ETITLE: TS BOND ANGLE DIHED IMPRP ELECT VDW BOUNDARY MISC KINETIC TOTAL TEMP POTENTIAL TOTALAVG TEMPAVG PRESSURE GPRESSURE VOLUME PRESSAVG GPRESSAVG
ENERGY: 0 2.6307 10.3004 1.7983 0.0000 -10418.4498 1366.5603 0.0000 0.0000 1707.0277 -7330.1324 294.3850 -9037.1601 -7330.1324 294.3850 -491.7682 -413.8452 30030.0960 -491.7682 -413.8452
ENERGY: 300000 5.4825 6.8495 3.4795 0.0000 -10602.3953 1491.2502 0.0000 0.0000 1703.5568 -7391.7768 293.7864 -9095.3337 -7349.0159 297.7652 538.7894 641.7165 29449.5633 151.4812 201.2640
ENERGY: 600000 4.2298 6.3594 0.9121 0.0000 -10498.7572 1417.7773 0.0000 0.0000 1769.3082 -7300.1703 305.1256 -9069.4786 -7324.4807 299.2313 126.9717 184.8413 29548.0568 102.4796 173.3393
ENERGY: 900000 2.2845 5.8421 1.5695 0.0000 -10554.0300 1484.8502 0.0000 0.0000 1756.2996 -7303.1841 302.8822 -9059.4838 -7319.1492 299.3930 717.9029 789.8262 29414.4317 112.8112 182.6850
ENERGY: 1200000 2.3786 3.8903 0.3257 0.0000 -10555.1106 1447.8664 0.0000 0.0000 1722.7213 -7377.9283 297.0914 -9100.6495 -7323.8036 299.5806 355.8747 383.0058 29427.0931 88.0285 153.7429
ENERGY: 1500000 4.1754 3.5053 2.1258 0.0000 -10523.9899 1450.4418 0.0000 0.0000 1784.2570 -7279.4846 307.7036 -9063.7416 -7322.0270 300.5360 -6.7905 76.7313 30207.1987 87.8949 158.8998
TCL: Running FEP window   7: Lambda1 0.3    Lambda2 0.35   [dLambda 0.04999999999999999]
TCL: Setting parameter firsttimestep to 0
TCL: Setting parameter alchLambda to 0.3
Info: NONBONDED TABLE R-SQUARED SPACING: 0.0625
Info: NONBONDED TABLE SIZE: 705 POINTS
TCL: Setting parameter alchLambda2 to 0.35
Info: NONBONDED TABLE R-SQUARED SPACING: 0.0625
Info: NONBONDED TABLE SIZE: 705 POINTS
TCL: Running for 1500000 steps
ETITLE: TS BOND ANGLE DIHED IMPRP ELECT VDW BOUNDARY MISC KINETIC TOTAL TEMP POTENTIAL TOTALAVG TEMPAVG PRESSURE GPRESSURE VOLUME PRESSAVG GPRESSAVG
ENERGY: 0 4.1754 3.5053 2.1258 0.0000 -10523.9906 1451.4184 0.0000 0.0000 1783.4030 -7279.3627 307.5563 -9062.7657 -7279.3627 307.5563 -11.6954 87.1507 30207.1987 -11.6954 87.1507
ENERGY: 300000 2.3204 3.7655 3.1087 0.0000 -10608.2887 1490.9919 0.0000 0.0000 1781.9060 -7326.1961 307.2981 -9108.1021 -7321.7401 305.3933 318.6707 388.0800 30275.9571 -47.0470 9.5918
ENERGY: 600000 5.5964 6.3472 0.2865 0.0000 -10670.5895 1607.0944 0.0000 0.0000 1747.7260 -7303.5390 301.4036 -9051.2650 -7304.9222 305.8171 1652.0780 1741.6507 29956.7486 197.9927 261.5363
ENERGY: 900000 3.3157 3.0236 3.2787 0.0000 -10506.0648 1433.6574 0.0000 0.0000 1753.2442 -7309.5452 302.3553 -9062.7894 -7310.5821 303.3286 31.7701 89.0724 30081.3104 163.4320 218.3089
ENERGY: 1200000 3.9084 6.4143 3.5394 0.0000 -10448.1522 1405.0192 0.0000 0.0000 1795.3131 -7233.9578 309.6102 -9029.2709 -7307.4985 303.5846 16.8601 66.2473 29926.1187 138.5545 197.0013
ENERGY: 1500000 5.6433 10.0054 2.4452 0.0000 -10545.0458 1442.6516 0.0000 0.0000 1732.8195 -7351.4807 298.8329 -9084.3002 -7309.4348 303.4787 193.3368 214.2178 29530.1802 119.6656 173.7717
TCL: Running FEP window   8: Lambda1 0.35   Lambda2 0.39999999999999997 [dLambda 0.04999999999999999]
TCL: Setting parameter firsttimestep to 0
TCL: Setting parameter alchLambda to 0.35
Info: NONBONDED TABLE R-SQUARED SPACING: 0.0625
Info: NONBONDED TABLE SIZE: 705 POINTS
TCL: Setting parameter alchLambda2 to 0.39999999999999997
Info: NONBONDED TABLE R-SQUARED SPACING: 0.0625
Info: NONBONDED TABLE SIZE: 705 POINTS
TCL: Running for 1500000 steps
ETITLE: TS BOND ANGLE DIHED IMPRP ELECT VDW BOUNDARY MISC KINETIC TOTAL TEMP POTENTIAL TOTALAVG TEMPAVG PRESSURE GPRESSURE VOLUME PRESSAVG GPRESSAVG
ENERGY: 0 5.6433 10.0054 2.4452 0.0000 -10545.0467 1443.4206 0.0000 0.0000 1731.9470 -7351.5851 298.6824 -9083.5321 -7351.5851 298.6824 147.8999 223.0605 29530.1802 147.8999 223.0605
ENERGY: 300000 2.7740 4.3177 1.4240 0.0000 -10684.8370 1564.9827 0.0000 0.0000 1708.5234 -7402.8152 294.6429 -9111.3385 -7368.9633 298.2759 1066.6670 1129.7287 29673.0655 229.9628 299.7331
ENERGY: 600000 4.2524 4.5814 2.1601 0.0000 -10522.8379 1485.3066 0.0000 0.0000 1768.7481 -7257.7893 305.0290 -9026.5374 -7328.6204 300.9576 494.1086 608.7323 29889.1599 96.8272 183.2891
ENERGY: 900000 1.0118 7.8742 1.9393 0.0000 -10601.9328 1496.2526 0.0000 0.0000 1684.3918 -7410.4631 290.4813 -9094.8549 -7336.2289 299.7268 556.3601 675.7123 29609.9265 229.8162 314.7375
ENERGY: 1200000 2.2540 5.9522 1.9197 0.0000 -10443.3493 1382.4121 0.0000 0.0000 1716.1754 -7334.6359 295.9626 -9050.8113 -7340.0775 298.9284 -306.6059 -286.4065 29837.3993 151.2531 221.9829
ENERGY: 1500000 3.0749 6.6040 2.1060 0.0000 -10436.7388 1405.3383 0.0000 0.0000 1665.1842 -7354.4313 287.1689 -9019.6156 -7341.1732 297.8434 -286.3172 -173.7038 30012.7639 112.0040 184.0861
TCL: Running FEP window   9: Lambda1 0.39999999999999997 Lambda2 0.44999999999999996 [dLambda 0.04999999999999999]
TCL: Setting parameter firsttimestep to 0
TCL: Setting parameter alchLambda to 0.39999999999999997
Info: NONBONDED TABLE R-SQUARED SPACING: 0.0625
Info: NONBONDED TABLE SIZE: 705 POINTS
TCL: Setting parameter alchLambda2 to 0.44999999999999996
Info: NONBONDED TABLE R-SQUARED SPACING: 0.0625
Info: NONBONDED TABLE SIZE: 705 POINTS
TCL: Running for 1500000 steps
ETITLE: TS BOND ANGLE DIHED IMPRP ELECT VDW BOUNDARY MISC KINETIC TOTAL TEMP POTENTIAL TOTALAVG TEMPAVG PRESSURE GPRESSURE VOLUME PRESSAVG GPRESSAVG
ENERGY: 0 3.0749 6.6040 2.1060 0.0000 -10436.7397 1406.2722 0.0000 0.0000 1664.3655 -7354.3171 287.0277 -9018.6826 -7354.3171 287.0277 -254.4388 -162.3982 30012.7639 -254.4388 -162.3982
ENERGY: 300000 7.7662 5.9257 3.3566 0.0000 -10423.0612 1407.2249 0.0000 0.0000 1737.1315 -7261.6563 299.5765 -8998.7878 -7318.9484 295.9370 11.3351 49.0532 29981.7984 28.9661 98.6670
ENERGY: 600000 1.4350 4.2701 1.1802 0.0000 -10552.2717 1489.2325 0.0000 0.0000 1682.2004 -7373.9534 290.1034 -9056.1538 -7304.0250 297.7105 581.9878 680.6082 29742.3208 246.8708 319.6187
ENERGY: 900000 3.4149 3.4370 2.2481 0.0000 -10497.6992 1388.9281 0.0000 0.0000 1730.9387 -7368.7324 298.5086 -9099.6711 -7309.1139 298.4010 -232.7726 -176.6556 29702.6070 149.6458 220.2787
ENERGY: 1200000 2.8265 4.3979 2.7035 0.0000 -10488.0463 1378.9567 0.0000 0.0000 1767.6405 -7331.5211 304.8380 -9099.1616 -7309.1041 299.0863 -172.6973 -182.9787 29556.5282 70.9055 136.8864
ENERGY: 1500000 2.0644 5.5704 3.0398 0.0000 -10428.0059 1381.9778 0.0000 0.0000 1729.8787 -7305.4749 298.3257 -9035.3536 -7303.1720 299.3679 -559.9760 -499.0211 30530.6040 -24.2158 41.0220
TCL: Running FEP window  10: Lambda1 0.44999999999999996 Lambda2 0.49999999999999994 [dLambda 0.04999999999999999]
TCL: Setting parameter firsttimestep to 0
TCL: Setting parameter alchLambda to 0.44999999999999996
Info: NONBONDED TABLE R-SQUARED SPACING: 0.0625
Info: NONBONDED TABLE SIZE: 705 POINTS
TCL: Setting parameter alchLambda2 to 0.49999999999999994
Info: NONBONDED TABLE R-SQUARED SPACING: 0.0625
Info: NONBONDED TABLE SIZE: 705 POINTS
TCL: Running for 1500000 steps
ETITLE: TS BOND ANGLE DIHED IMPRP ELECT VDW BOUNDARY MISC KINETIC TOTAL TEMP POTENTIAL TOTALAVG TEMPAVG PRESSURE GPRESSURE VOLUME PRESSAVG GPRESSAVG
ENERGY: 0 2.0644 5.5704 3.0398 0.0000 -10428.0031 1381.6172 0.0000 0.0000 1729.0225 -7306.6888 298.1781 -9035.7113 -7306.6888 298.1781 -581.7477 -496.6160 30530.6040 -581.7477 -496.6160
ENERGY: 300000 1.9593 5.2350 3.3745 0.0000 -10529.4480 1440.1289 0.0000 0.0000 1779.1504 -7299.5998 306.8229 -9078.7502 -7328.6412 299.5107 232.1015 255.1142 29655.0439 -290.6337 -246.1654
ENERGY: 600000 3.9221 2.0782 1.9949 0.0000 -10333.5587 1300.1089 0.0000 0.0000 1739.7225 -7285.7322 300.0234 -9025.4547 -7323.1930 300.0743 -992.7301 -881.4267 30167.0437 -293.1798 -249.7701
ENERGY: 900000 4.5063 6.3612 5.8970 0.0000 -10426.0247 1362.1756 0.0000 0.0000 1813.9016 -7233.1830 312.8159 -9047.0846 -7306.4106 301.4027 -368.8407 -317.2790 29730.2516 -231.1862 -182.4349
ENERGY: 1200000 5.7079 6.9072 2.0142 0.0000 -10551.6665 1464.9768 0.0000 0.0000 1718.5102 -7353.5502 296.3652 -9072.0605 -7306.4413 301.6079 315.2128 398.2890 29741.0996 -214.4369 -165.6200
ENERGY: 1500000 2.9815 5.4734 0.5182 0.0000 -10360.5635 1340.9322 0.0000 0.0000 1750.6909 -7259.9674 301.9149 -9010.6582 -7300.1494 302.5248 -640.6742 -532.0856 30280.7273 -266.0122 -212.2872
TCL: Running FEP window  11: Lambda1 0.49999999999999994 Lambda2 0.5499999999999999 [dLambda 0.04999999999999999]
TCL: Setting parameter firsttimestep to 0
TCL: Setting parameter alchLambda to 0.49999999999999994
Info: NONBONDED TABLE R-SQUARED SPACING: 0.0625
Info: NONBONDED TABLE SIZE: 705 POINTS
TCL: Setting parameter alchLambda2 to 0.5499999999999999
Info: NONBONDED TABLE R-SQUARED SPACING: 0.0625
Info: NONBONDED TABLE SIZE: 705 POINTS
TCL: Running for 1500000 steps
ETITLE: TS BOND ANGLE DIHED IMPRP ELECT VDW BOUNDARY MISC KINETIC TOTAL TEMP POTENTIAL TOTALAVG TEMPAVG PRESSURE GPRESSURE VOLUME PRESSAVG GPRESSAVG
ENERGY: 0 2.9815 5.4734 0.5182 0.0000 -10360.5642 1341.6036 0.0000 0.0000 1749.8183 -7260.1693 301.7644 -9009.9876 -7260.1693 301.7644 -587.0006 -516.7792 30280.7273 -587.0006 -516.7792
ENERGY: 300000 3.1362 9.1605 3.3775 0.0000 -10512.1367 1413.8307 0.0000 0.0000 1712.2029 -7370.4288 295.2775 -9082.6317 -7350.7686 295.4278 -215.2779 -121.3487 29869.6978 -55.7762 5.9927
ENERGY: 600000 2.5627 4.2358 0.4496 0.0000 -10526.2377 1445.5709 0.0000 0.0000 1710.8245 -7362.5942 295.0398 -9073.4187 -7337.1912 296.5095 113.6778 189.6397 30007.1144 126.6944 203.5264
ENERGY: 900000 1.1786 3.0499 1.6840 0.0000 -10340.2087 1367.5792 0.0000 0.0000 1730.6815 -7236.0355 298.4642 -8966.7171 -7315.9576 297.9244 -170.8574 -131.6524 30448.0006 15.6622 87.7263
ENERGY: 1200000 3.9502 4.0840 3.7705 0.0000 -10370.2448 1362.5920 0.0000 0.0000 1803.2098 -7192.6382 310.9721 -8995.8481 -7303.2636 299.5161 -412.2637 -375.5377 30427.9509 -129.2060 -58.5537
ENERGY: 1500000 1.7278 3.8494 4.1913 0.0000 -10524.7175 1443.2415 0.0000 0.0000 1772.3729 -7299.3346 305.6541 -9071.7075 -7308.3426 299.6573 386.0403 418.2539 29862.5863 -111.6902 -45.8213
TCL: Running FEP window  12: Lambda1 0.5499999999999999 Lambda2 0.6    [dLambda 0.050000000000000044]
TCL: Setting parameter firsttimestep to 0
TCL: Setting parameter alchLambda to 0.5499999999999999
Info: NONBONDED TABLE R-SQUARED SPACING: 0.0625
Info: NONBONDED TABLE SIZE: 705 POINTS
TCL: Setting parameter alchLambda2 to 0.6
Info: NONBONDED TABLE R-SQUARED SPACING: 0.0625
Info: NONBONDED TABLE SIZE: 705 POINTS
TCL: Running for 1500000 steps
ETITLE: TS BOND ANGLE DIHED IMPRP ELECT VDW BOUNDARY MISC KINETIC TOTAL TEMP POTENTIAL TOTALAVG TEMPAVG PRESSURE GPRESSURE VOLUME PRESSAVG GPRESSAVG
ENERGY: 0 1.7278 3.8494 4.1913 0.0000 -10524.7135 1443.0959 0.0000 0.0000 1771.5195 -7300.3296 305.5069 -9071.8492 -7300.3296 305.5069 345.5092 426.7383 29862.5863 345.5092 426.7383
ENERGY: 300000 2.9394 4.3433 1.8861 0.0000 -10577.8560 1522.0105 0.0000 0.0000 1745.7939 -7300.8827 301.0704 -9046.6766 -7355.5887 300.7237 1222.9201 1255.7217 29413.0808 251.5670 320.9784
ENERGY: 600000 3.5183 3.7189 3.6874 0.0000 -10421.2207 1366.0403 0.0000 0.0000 1788.7552 -7255.5005 308.4793 -9044.2557 -7322.1256 302.5730 -520.6112 -401.8291 30061.0550 140.5148 200.9272
ENERGY: 900000 2.5704 5.1830 3.0814 0.0000 -10573.1846 1459.1662 0.0000 0.0000 1772.6106 -7330.5730 305.6951 -9103.1836 -7315.8636 303.4109 274.1635 288.7993 29768.3994 77.4204 129.3385
ENERGY: 1200000 1.0700 4.7194 1.6765 0.0000 -10282.1234 1281.2917 0.0000 0.0000 1763.9335 -7229.4323 304.1987 -8993.3658 -7309.7483 302.1032 -887.3426 -827.3618 30360.7134 -49.8539 11.4950
ENERGY: 1500000 1.7863 5.5530 0.7525 0.0000 -10491.6972 1367.3530 0.0000 0.0000 1686.5311 -7429.7213 290.8503 -9116.2524 -7321.6398 300.5828 -496.3799 -462.2168 29825.2473 -83.7541 -27.1944
TCL: Running FEP window  13: Lambda1 0.6    Lambda2 0.65   [dLambda 0.050000000000000044]
TCL: Setting parameter firsttimestep to 0
TCL: Setting parameter alchLambda to 0.6
Info: NONBONDED TABLE R-SQUARED SPACING: 0.0625
Info: NONBONDED TABLE SIZE: 705 POINTS
TCL: Setting parameter alchLambda2 to 0.65
Info: NONBONDED TABLE R-SQUARED SPACING: 0.0625
Info: NONBONDED TABLE SIZE: 705 POINTS
TCL: Running for 1500000 steps
ETITLE: TS BOND ANGLE DIHED IMPRP ELECT VDW BOUNDARY MISC KINETIC TOTAL TEMP POTENTIAL TOTALAVG TEMPAVG PRESSURE GPRESSURE VOLUME PRESSAVG GPRESSAVG
ENERGY: 0 1.7863 5.5530 0.7525 0.0000 -10492.3200 1367.1673 0.0000 0.0000 1685.6604 -7431.4004 290.7001 -9117.0608 -7431.4004 290.7001 -548.4980 -456.8308 29825.2473 -548.4980 -456.8308
ENERGY: 300000 5.4003 7.6395 0.5837 0.0000 -10393.0755 1358.5239 0.0000 0.0000 1749.4457 -7271.4822 301.7002 -9020.9280 -7326.3336 299.1031 -378.8967 -357.1532 30055.9857 -159.9868 -104.0324
ENERGY: 600000 2.5256 4.2723 2.5494 0.0000 -10684.3071 1517.5377 0.0000 0.0000 1741.6855 -7415.7367 300.3619 -9157.4222 -7333.1459 299.9529 767.4544 760.4835 29733.7888 -181.5491 -131.4366
ENERGY: 900000 3.8817 2.3603 4.6776 0.0000 -10457.8695 1314.2525 0.0000 0.0000 1682.0688 -7450.6286 290.0807 -9132.6974 -7356.5186 298.1594 -879.6746 -824.9883 29581.6751 -49.7442 9.8258
ENERGY: 1200000 3.7868 4.0838 2.3447 0.0000 -10382.5705 1324.9359 0.0000 0.0000 1668.8678 -7378.5515 287.8041 -9047.4193 -7354.1280 297.3282 -804.0116 -765.1931 30267.5796 -114.9215 -56.8023
ENERGY: 1500000 3.1593 5.0445 1.5496 0.0000 -10542.3183 1437.0857 0.0000 0.0000 1729.0113 -7366.4678 298.1762 -9095.4791 -7347.1863 298.4138 -38.3052 9.7544 30177.7959 -104.2368 -46.5794
TCL: Running FEP window  14: Lambda1 0.65   Lambda2 0.7000000000000001 [dLambda 0.050000000000000044]
TCL: Setting parameter firsttimestep to 0
TCL: Setting parameter alchLambda to 0.65
Info: NONBONDED TABLE R-SQUARED SPACING: 0.0625
Info: NONBONDED TABLE SIZE: 705 POINTS
TCL: Setting parameter alchLambda2 to 0.7000000000000001
Info: NONBONDED TABLE R-SQUARED SPACING: 0.0625
Info: NONBONDED TABLE SIZE: 705 POINTS
TCL: Running for 1500000 steps
ETITLE: TS BOND ANGLE DIHED IMPRP ELECT VDW BOUNDARY MISC KINETIC TOTAL TEMP POTENTIAL TOTALAVG TEMPAVG PRESSURE GPRESSURE VOLUME PRESSAVG GPRESSAVG
ENERGY: 0 3.1593 5.0445 1.5496 0.0000 -10543.5138 1437.1421 0.0000 0.0000 1728.1381 -7368.4801 298.0256 -9096.6182 -7368.4801 298.0256 -65.1479 11.7650 30177.7959 -65.1479 11.7650
ENERGY: 300000 3.6575 3.8868 4.3879 0.0000 -10334.9847 1335.9871 0.0000 0.0000 1754.5800 -7232.4855 302.5856 -8987.0655 -7325.5677 299.2929 -355.0042 -397.8225 30125.6513 113.7323 127.5085
ENERGY: 600000 3.5427 5.2106 2.8411 0.0000 -10428.4082 1347.9509 0.0000 0.0000 1722.6165 -7346.2465 297.0733 -9068.8630 -7323.9458 299.2123 -515.2434 -448.2796 29753.8157 72.2248 118.2542
ENERGY: 900000 7.2988 5.4311 2.4280 0.0000 -10496.7307 1414.6976 0.0000 0.0000 1717.3556 -7349.5196 296.1661 -9066.8752 -7325.1985 299.0470 -311.6919 -269.7632 30120.6194 -51.6003 -1.9278
ENERGY: 1200000 2.2466 3.5693 4.0622 0.0000 -10638.8895 1543.7190 0.0000 0.0000 1788.3324 -7296.9599 308.4064 -9085.2924 -7316.9470 299.9190 931.1549 985.0990 29772.1816 32.1163 87.9759
ENERGY: 1500000 2.9192 6.2536 4.0185 0.0000 -10611.7221 1471.3900 0.0000 0.0000 1706.5727 -7420.5681 294.3065 -9127.1408 -7331.3680 298.6041 188.5439 188.6966 29965.7975 -106.6130 -44.2161
TCL: Running FEP window  15: Lambda1 0.7000000000000001 Lambda2 0.7500000000000001 [dLambda 0.050000000000000044]
TCL: Setting parameter firsttimestep to 0
TCL: Setting parameter alchLambda to 0.7000000000000001
Info: NONBONDED TABLE R-SQUARED SPACING: 0.0625
Info: NONBONDED TABLE SIZE: 705 POINTS
TCL: Setting parameter alchLambda2 to 0.7500000000000001
Info: NONBONDED TABLE R-SQUARED SPACING: 0.0625
Info: NONBONDED TABLE SIZE: 705 POINTS
TCL: Running for 1500000 steps
ETITLE: TS BOND ANGLE DIHED IMPRP ELECT VDW BOUNDARY MISC KINETIC TOTAL TEMP POTENTIAL TOTALAVG TEMPAVG PRESSURE GPRESSURE VOLUME PRESSAVG GPRESSAVG
ENERGY: 0 2.9192 6.2536 4.0185 0.0000 -10612.9482 1471.8093 0.0000 0.0000 1705.7109 -7422.2367 294.1579 -9127.9476 -7422.2367 294.1579 129.8661 199.0227 29965.7975 129.8661 199.0227
ENERGY: 300000 1.8003 5.7903 0.7673 0.0000 -10465.5769 1447.7178 0.0000 0.0000 1718.8487 -7290.6525 296.4236 -9009.5012 -7327.5037 298.0713 194.7838 225.1383 30289.3622 155.8154 218.6468
ENERGY: 600000 2.8327 7.4593 2.2943 0.0000 -10553.9862 1418.5393 0.0000 0.0000 1773.0415 -7349.8190 305.7694 -9122.8606 -7332.5977 301.8297 -420.9871 -328.7972 30251.5567 126.1966 188.2715
ENERGY: 900000 2.5261 2.7773 3.3821 0.0000 -10498.9030 1382.5203 0.0000 0.0000 1717.7040 -7389.9932 296.2262 -9107.6972 -7331.0471 301.0311 -486.4990 -424.3621 30111.1929 -6.2318 61.0161
ENERGY: 1200000 2.3795 4.5649 1.2662 0.0000 -10426.9539 1393.2946 0.0000 0.0000 1729.9801 -7295.4686 298.3433 -9025.4488 -7325.9228 300.8689 -120.5583 -102.9315 30184.9033 69.6579 124.0734
ENERGY: 1500000 1.2390 7.8469 2.2863 0.0000 -10523.2214 1419.7591 0.0000 0.0000 1728.3566 -7363.7336 298.0633 -9092.0902 -7324.5550 301.6182 -97.1144 -14.8921 30087.7155 18.2143 71.8735
TCL: Running FEP window  16: Lambda1 0.7500000000000001 Lambda2 0.8000000000000002 [dLambda 0.050000000000000044]
TCL: Setting parameter firsttimestep to 0
TCL: Setting parameter alchLambda to 0.7500000000000001
Info: NONBONDED TABLE R-SQUARED SPACING: 0.0625
Info: NONBONDED TABLE SIZE: 705 POINTS
TCL: Setting parameter alchLambda2 to 0.8000000000000002
Info: NONBONDED TABLE R-SQUARED SPACING: 0.0625
Info: NONBONDED TABLE SIZE: 705 POINTS
TCL: Running for 1500000 steps
ETITLE: TS BOND ANGLE DIHED IMPRP ELECT VDW BOUNDARY MISC KINETIC TOTAL TEMP POTENTIAL TOTALAVG TEMPAVG PRESSURE GPRESSURE VOLUME PRESSAVG GPRESSAVG
ENERGY: 0 1.2390 7.8469 2.2863 0.0000 -10523.6929 1420.5120 0.0000 0.0000 1727.4864 -7364.3223 297.9132 -9091.8087 -7364.3223 297.9132 -78.8304 5.3442 30087.7155 -78.8304 5.3442
ENERGY: 300000 4.7997 6.2007 2.9179 0.0000 -10437.2637 1379.6079 0.0000 0.0000 1779.7516 -7263.9859 306.9266 -9043.7375 -7328.1286 300.7828 -350.2005 -299.1633 30083.1422 -329.2648 -250.9154
ENERGY: 600000 4.1185 2.7413 1.3718 0.0000 -10589.8289 1482.6431 0.0000 0.0000 1756.4637 -7342.4905 302.9105 -9098.9541 -7315.6725 301.6661 407.5263 458.8726 29750.4374 -244.2460 -164.3875
ENERGY: 900000 3.4369 3.1747 3.7176 0.0000 -10628.1645 1514.8479 0.0000 0.0000 1756.9000 -7346.0874 302.9857 -9102.9874 -7320.7998 301.3789 468.7913 572.5313 30102.8101 -170.8393 -89.3049
ENERGY: 1200000 4.9266 6.8457 3.5762 0.0000 -10366.5186 1341.7375 0.0000 0.0000 1772.0235 -7237.4091 305.5938 -9009.4326 -7325.2842 300.6012 -544.9451 -496.1936 30245.5808 -138.6791 -73.9509
ENERGY: 1500000 2.5422 5.7021 4.1536 0.0000 -10564.4299 1405.6401 0.0000 0.0000 1770.6002 -7375.7918 305.3484 -9146.3920 -7325.2570 301.4939 -145.0244 -105.7862 29559.4221 -144.7028 -82.2717
TCL: Running FEP window  17: Lambda1 0.8000000000000002 Lambda2 0.8500000000000002 [dLambda 0.050000000000000044]
TCL: Setting parameter firsttimestep to 0
TCL: Setting parameter alchLambda to 0.8000000000000002
Info: NONBONDED TABLE R-SQUARED SPACING: 0.0625
Info: NONBONDED TABLE SIZE: 705 POINTS
TCL: Setting parameter alchLambda2 to 0.8500000000000002
Info: NONBONDED TABLE R-SQUARED SPACING: 0.0625
Info: NONBONDED TABLE SIZE: 705 POINTS
TCL: Running for 1500000 steps
ETITLE: TS BOND ANGLE DIHED IMPRP ELECT VDW BOUNDARY MISC KINETIC TOTAL TEMP POTENTIAL TOTALAVG TEMPAVG PRESSURE GPRESSURE VOLUME PRESSAVG GPRESSAVG
ENERGY: 0 2.5422 5.7021 4.1536 0.0000 -10565.6070 1405.7299 0.0000 0.0000 1769.7217 -7377.7576 305.1969 -9147.4793 -7377.7576 305.1969 -170.1877 -99.4464 29559.4221 -170.1877 -99.4464
ENERGY: 300000 6.2410 6.5579 1.9448 0.0000 -10612.9913 1552.9261 0.0000 0.0000 1752.5790 -7292.7425 302.2405 -9045.3215 -7342.7831 301.1139 1044.9765 1089.6012 29840.5942 167.4177 238.9124
ENERGY: 600000 1.7852 5.2167 2.6575 0.0000 -10423.6409 1345.9704 0.0000 0.0000 1751.7795 -7316.2317 302.1027 -9068.0112 -7341.8534 300.5560 -517.6863 -430.5824 29955.1645 -19.3301 50.3292
ENERGY: 900000 4.8917 5.4822 1.3325 0.0000 -10492.3579 1379.5050 0.0000 0.0000 1820.6375 -7280.5090 313.9775 -9101.1465 -7316.0483 301.5084 -544.8115 -463.7900 30102.8220 -75.8734 -9.1188
ENERGY: 1200000 3.9188 7.6546 2.7948 0.0000 -10660.4715 1499.2615 0.0000 0.0000 1768.4186 -7378.4233 304.9721 -9146.8418 -7314.1615 301.4616 282.4680 336.3539 30083.6746 33.6739 96.1073
ENERGY: 1500000 3.4746 9.6194 1.3502 0.0000 -10396.4268 1360.9717 0.0000 0.0000 1760.6245 -7260.3862 303.6280 -9021.0107 -7312.5332 301.3116 -347.6126 -292.0103 30031.9518 -57.9536 4.6075
TCL: Running FEP window  18: Lambda1 0.8500000000000002 Lambda2 0.9000000000000002 [dLambda 0.050000000000000044]
TCL: Setting parameter firsttimestep to 0
TCL: Setting parameter alchLambda to 0.8500000000000002
Info: NONBONDED TABLE R-SQUARED SPACING: 0.0625
Info: NONBONDED TABLE SIZE: 705 POINTS
TCL: Setting parameter alchLambda2 to 0.9000000000000002
Info: NONBONDED TABLE R-SQUARED SPACING: 0.0625
Info: NONBONDED TABLE SIZE: 705 POINTS
TCL: Running for 1500000 steps
ETITLE: TS BOND ANGLE DIHED IMPRP ELECT VDW BOUNDARY MISC KINETIC TOTAL TEMP POTENTIAL TOTALAVG TEMPAVG PRESSURE GPRESSURE VOLUME PRESSAVG GPRESSAVG
ENERGY: 0 3.4746 9.6194 1.3502 0.0000 -10398.8415 1362.6838 0.0000 0.0000 1759.7528 -7261.9606 303.4777 -9021.7134 -7261.9606 303.4777 -340.2664 -267.3827 30031.9518 -340.2664 -267.3827
ENERGY: 300000 1.0403 6.5548 4.8966 0.0000 -10370.3386 1378.4375 0.0000 0.0000 1714.4706 -7264.9388 295.6686 -8979.4094 -7311.3175 297.4750 -167.1910 -121.4629 30412.7913 -247.6544 -186.3325
ENERGY: 600000 2.3398 3.0735 5.7119 0.0000 -10463.7261 1436.4571 0.0000 0.0000 1820.2212 -7195.9225 313.9058 -9016.1437 -7307.2283 300.5584 452.2891 509.1090 29831.9427 -137.9028 -82.8042
ENERGY: 900000 3.3070 6.3948 1.3546 0.0000 -10487.4708 1441.9580 0.0000 0.0000 1753.9724 -7280.4840 302.4808 -9034.4564 -7309.6890 301.5046 91.0100 170.0681 30341.3125 -199.8969 -126.0737
ENERGY: 1200000 2.4198 8.5755 1.7104 0.0000 -10417.8416 1424.8974 0.0000 0.0000 1734.2864 -7245.9521 299.0859 -8980.2385 -7300.9292 302.8818 225.6757 394.7171 29864.1554 -222.4966 -142.8945
ENERGY: 1500000 2.3191 5.5265 1.9807 0.0000 -10440.4683 1377.7235 0.0000 0.0000 1760.1350 -7292.7835 303.5436 -9052.9185 -7297.8274 303.4109 -284.1886 -253.6992 30201.7061 -193.7139 -123.8661
TCL: Running FEP window  19: Lambda1 0.9000000000000002 Lambda2 0.9500000000000003 [dLambda 0.050000000000000044]
TCL: Setting parameter firsttimestep to 0
TCL: Setting parameter alchLambda to 0.9000000000000002
Info: NONBONDED TABLE R-SQUARED SPACING: 0.0625
Info: NONBONDED TABLE SIZE: 705 POINTS
TCL: Setting parameter alchLambda2 to 0.9500000000000003
Info: NONBONDED TABLE R-SQUARED SPACING: 0.0625
Info: NONBONDED TABLE SIZE: 705 POINTS
TCL: Running for 1500000 steps
ETITLE: TS BOND ANGLE DIHED IMPRP ELECT VDW BOUNDARY MISC KINETIC TOTAL TEMP POTENTIAL TOTALAVG TEMPAVG PRESSURE GPRESSURE VOLUME PRESSAVG GPRESSAVG
ENERGY: 0 2.3191 5.5265 1.9807 0.0000 -10441.5167 1377.6999 0.0000 0.0000 1759.2989 -7294.6916 303.3994 -9053.9905 -7294.6916 303.3994 -330.0038 -242.4635 30201.7061 -330.0038 -242.4635
ENERGY: 300000 1.3509 6.7659 1.3465 0.0000 -10422.3678 1377.3522 0.0000 0.0000 1773.0045 -7262.5478 305.7630 -9035.5523 -7299.0201 304.0073 -190.4927 -100.1834 30084.9711 -255.3130 -182.3912
ENERGY: 600000 3.5901 4.1960 2.7692 0.0000 -10444.7060 1348.4409 0.0000 0.0000 1759.4437 -7326.2662 303.4244 -9085.7098 -7328.8655 303.1209 -724.1239 -636.5729 30026.4401 -350.1824 -289.3586
ENERGY: 900000 2.3992 6.7177 2.5088 0.0000 -10515.1869 1429.7213 0.0000 0.0000 1757.1609 -7316.6791 303.0307 -9073.8400 -7334.4985 301.8039 222.7960 295.1096 29892.2787 -249.5185 -198.1664
ENERGY: 1200000 1.4745 4.6744 1.4338 0.0000 -10714.9996 1522.0194 0.0000 0.0000 1753.9487 -7431.4489 302.4767 -9185.3976 -7336.3889 302.2553 614.7482 756.9655 29520.8836 -222.8619 -159.0687
ENERGY: 1500000 2.9923 3.2388 2.6156 0.0000 -10316.6847 1317.1320 0.0000 0.0000 1785.6814 -7205.0245 307.9492 -8990.7060 -7329.9286 302.6324 -342.4362 -268.1026 29792.1076 -199.7337 -142.7724
TCL: Running FEP window  20: Lambda1 0.9500000000000003 Lambda2 1.0    [dLambda 0.04999999999999971]
TCL: Setting parameter firsttimestep to 0
TCL: Setting parameter alchLambda to 0.9500000000000003
Info: NONBONDED TABLE R-SQUARED SPACING: 0.0625
Info: NONBONDED TABLE SIZE: 705 POINTS
TCL: Setting parameter alchLambda2 to 1.0
Info: NONBONDED TABLE R-SQUARED SPACING: 0.0625
Info: NONBONDED TABLE SIZE: 705 POINTS
TCL: Running for 1500000 steps
ETITLE: TS BOND ANGLE DIHED IMPRP ELECT VDW BOUNDARY MISC KINETIC TOTAL TEMP POTENTIAL TOTALAVG TEMPAVG PRESSURE GPRESSURE VOLUME PRESSAVG GPRESSAVG
ENERGY: 0 2.9923 3.2388 2.6156 0.0000 -10318.3812 1318.1266 0.0000 0.0000 1784.7817 -7206.6263 307.7940 -8991.4080 -7206.6263 307.7940 -328.1698 -245.8725 29792.1076 -328.1698 -245.8725
ENERGY: 300000 1.9466 3.8682 1.4634 0.0000 -10510.6746 1445.2220 0.0000 0.0000 1772.3399 -7285.8345 305.6484 -9058.1744 -7249.4551 306.6918 160.7884 170.1214 30515.2943 -211.5935 -169.0176
ENERGY: 600000 1.5257 3.2458 1.2314 0.0000 -10577.7909 1499.0492 0.0000 0.0000 1773.3196 -7299.4190 305.8173 -9072.7386 -7283.0595 304.7242 906.7232 910.7335 29652.3668 84.8533 132.2481
ENERGY: 900000 5.3613 2.4486 2.3639 0.0000 -10530.2715 1451.9491 0.0000 0.0000 1748.0062 -7320.1424 301.4519 -9068.1486 -7290.3076 302.2917 106.5681 178.3382 30307.4397 -36.1962 23.8213
ENERGY: 1200000 1.9811 6.5421 2.0138 0.0000 -10637.3099 1563.1540 0.0000 0.0000 1734.7960 -7328.8229 299.1738 -9063.6189 -7291.5692 301.9631 1218.0473 1273.6665 29999.2159 109.0516 173.5954
ENERGY: 1500000 6.3779 4.9106 2.1311 0.0000 -10559.6169 1490.0536 0.0000 0.0000 1711.8701 -7344.2736 295.2201 -9056.1437 -7297.1938 301.4549 417.6469 475.2034 30008.7442 73.8232 142.7051
TCL: Exiting due to exit command.
