Info: SIMULATION PARAMETERS:
Info: TIMESTEP               2
Info: NUMBER OF STEPS        0
Info: STEPS PER CYCLE        10
Info: PERIODIC CELL BASIS 1  31.9107 0 0
Info: PERIODIC CELL BASIS 2  0 31.7877 0
Info: PERIODIC CELL BASIS 3  0 0 29.85
Info: PERIODIC CELL CENTER   0 0 0
Info: WRAPPING WATERS AROUND PERIODIC BOUNDARIES ON OUTPUT.
Info: WRAPPING ALL CLUSTERS AROUND PERIODIC BOUNDARIES ON OUTPUT.
Info: FIRST LDB TIMESTEP     50
Info: LAST LDB TIMESTEP     -1
Info: HOM BACKGROUND SCALING 1
Info: PME BACKGROUND SCALING 1
Info: MIN ATOMS PER PATCH    40
Info: EMPTY PATCH LOAD       40 ATOMS
Info: VELOCITY FILE          mobley_4013838_equil.vel
Info: CENTER OF MASS MOVING INITIALLY? NO
Info: DIELECTRIC             1
Info: EXCLUDE                SCALED ONE-FOUR
Info: 1-4 ELECTROSTATICS SCALED BY 0.833333
Info: MODIFIED 1-4 VDW PARAMETERS WILL BE USED
Info: DCD FILENAME           mobley_4013838_prod.dcd
Info: DCD FREQUENCY          100000
Info: DCD FIRST STEP         100000
Info: DCD FILE WILL CONTAIN UNIT CELL DATA
Info: XST FILENAME           mobley_4013838_prod.xst
Info: XST FREQUENCY          100000
Info: NO VELOCITY DCD OUTPUT
Info: NO FORCE DCD OUTPUT
Info: OUTPUT FILENAME        mobley_4013838_prod
Info: BINARY OUTPUT FILES WILL BE USED
Info: RESTART FILENAME       mobley_4013838_prod.restart
Info: RESTART FREQUENCY      100000
Info: BINARY RESTART FILES WILL BE USED
Info: CUTOFF                 9
Info: PAIRLIST DISTANCE      11
Info: PAIRLIST SHRINK RATE   0.01
Info: PAIRLIST GROW RATE     0.01
Info: PAIRLIST TRIGGER       0.3
Info: PAIRLISTS PER CYCLE    2
Info: PAIRLISTS ENABLED
Info: MARGIN                 2
Info: HYDROGEN GROUP CUTOFF  2.5
Info: PATCH DIMENSION        15.5
Info: ENERGY OUTPUT STEPS    100000
Info: ENERGY EVALUATION STEPS    100000
Info: OUTPUT ENERGY PRECISION 4
Info: CROSSTERM ENERGY INCLUDED IN DIHEDRAL
Info: TIMING OUTPUT STEPS    1000000
Info: PRESSURE OUTPUT STEPS  100000
Info: ALCHEMICAL FEP ON
Info: FEP CURRENT LAMBDA VALUE     1
Info: FEP COMPARISON LAMBDA VALUE  0.95
Info: FEP INTRA-ALCHEMICAL NON-BONDED INTERACTIONS WILL BE RETAINED
Info: FEP INTRA-ALCHEMICAL BONDED INTERACTIONS WILL BE RETAINED
Info: FEP VDW SHIFTING COEFFICIENT 5
Info: FEP ELEC. ACTIVE FOR ANNIHILATED PARTICLES BETWEEN LAMBDA = 0 AND LAMBDA = 0.5
Info: FEP ELEC. ACTIVE FOR EXNIHILATED PARTICLES BETWEEN LAMBDA = 0.5 AND LAMBDA = 1
Info: FEP VDW ACTIVE FOR ANNIHILATED PARTICLES BETWEEN LAMBDA = 0 AND LAMBDA = 1
Info: FEP VDW ACTIVE FOR EXNIHILATED PARTICLES BETWEEN LAMBDA = 0 AND LAMBDA = 1
Info: FEP BOND ACTIVE FOR ANNIHILATED PARTICLES BETWEEN LAMBDA = 1 AND LAMBDA = 1
Info: FEP BOND ACTIVE FOR EXNIHILATED PARTICLES BETWEEN LAMBDA = 0 AND LAMBDA = 0
Info: LANGEVIN DYNAMICS ACTIVE
Info: LANGEVIN TEMPERATURE   300
Info: LANGEVIN USING BBK INTEGRATOR
Info: LANGEVIN DAMPING COEFFICIENT IS 1 INVERSE PS
Info: LANGEVIN DYNAMICS APPLIED TO HYDROGENS
Info: LANGEVIN PISTON PRESSURE CONTROL ACTIVE
Info:        TARGET PRESSURE IS 1.01325 BAR
Info:     OSCILLATION PERIOD IS 50 FS
Info:             DECAY TIME IS 25 FS
Info:     PISTON TEMPERATURE IS 300 K
Info:       PRESSURE CONTROL IS GROUP-BASED
Info:    INITIAL STRAIN RATE IS -0.000342246 -0.000342246 -0.000342246
Info:       CELL FLUCTUATION IS ISOTROPIC
Info: PARTICLE MESH EWALD (PME) ACTIVE
Info: PME TOLERANCE               1e-06
Info: PME EWALD COEFFICIENT       0.348832
Info: PME INTERPOLATION ORDER     4
Info: PME GRID DIMENSIONS         32 32 32
Info: PME MAXIMUM GRID SPACING    1
Info: PME CALCULATION WILL BE PERFORMED ON GPU
Info: FULL ELECTROSTATIC EVALUATION FREQUENCY      2
Info: USING VERLET I (r-RESPA) MTS SCHEME.
Info: C1 SPLITTING OF LONG RANGE ELECTROSTATICS
Info: PLACING ATOMS IN PATCHES BY HYDROGEN GROUPS
Info: RIGID BONDS TO HYDROGEN : ALL
Info:         ERROR TOLERANCE : 1e-08
Info:          MAX ITERATIONS : 100
Info: RIGID WATER USING SETTLE ALGORITHM
Info: RANDOM NUMBER SEED     1743876046
Info: USE HYDROGEN BONDS?    NO
Info: Using AMBER format force field!
Info: AMBER PARM FILE        mobley_4013838.prmtop
Info: COORDINATE PDB         mobley_4013838.pdb
Info: Exclusions will be read from PARM file!
Info: SCNB (VDW SCALING)     2
Info: USING ARITHMETIC MEAN TO COMBINE L-J SIGMA PARAMETERS
Info: BINARY COORDINATES     mobley_4013838_equil.coor
Info: SUMMARY OF PARAMETERS:
Info: 6 BONDS
Info: 7 ANGLES
Info:   7 HARMONIC
Info:   0 COSINE-BASED
Info: 8 DIHEDRAL
Info: 0 IMPROPER
Info: 0 CROSSTERM
Info: 0 VDW
Info: 21 VDW_PAIRS
Info: 0 NBTHOLE_PAIRS
Info: To read alchdata from file: mobley_4013838.pdb
Info: To read alchflag data from column: 5
Info: STRUCTURE SUMMARY:
Info: 2980 ATOMS
Info: 2979 BONDS
Info: 39 ANGLES
Info: 53 DIHEDRALS
Info: 0 IMPROPERS
Info: 0 CROSSTERMS
Info: 3066 EXCLUSIONS
Info: 2972 RIGID BONDS
Info: ALCH: 0 ATOMS TO DISAPPEAR IN FINAL STATE
Info: ALCH: 22 ATOMS TO APPEAR IN FINAL STATE
Info: 5968 DEGREES OF FREEDOM
Info: 994 HYDROGEN GROUPS
Info: 4 ATOMS IN LARGEST HYDROGEN GROUP
Info: 994 MIGRATION GROUPS
Info: 4 ATOMS IN LARGEST MIGRATION GROUP
Info: TOTAL MASS = 17878 amu
Info: TOTAL CHARGE = -0.000599995 e
Info: MASS DENSITY = 0.980479 g/cm^3
Info: ATOM DENSITY = 0.0984187 atoms/A^3
Info: ADDED 0 IMPLICIT EXCLUSIONS
Info: NONBONDED TABLE R-SQUARED SPACING: 0.0625
Info: NONBONDED TABLE SIZE: 705 POINTS
Info: REDUCING NUMBER OF PATCHES TO IMPROVE LOAD BALANCE
Info: REMOVING COM VELOCITY -0.030795 0.0345299 -0.130248
Info: Use 3D box decompostion in PME FFT.
Info: Updated CUDA force table with 4096 elements.
Info: Updated CUDA LJ table with 6 x 6 elements.
Info: Found 22 unique exclusion lists needing 60 bytes
TCL: Running for 1500000 steps
ETITLE: TS BOND ANGLE DIHED IMPRP ELECT VDW BOUNDARY MISC KINETIC TOTAL TEMP POTENTIAL TOTALAVG TEMPAVG PRESSURE GPRESSURE VOLUME PRESSAVG GPRESSAVG
ENERGY: 0 1.4666 8.8691 1.1238 0.0000 -10842.0276 1557.0596 0.0000 0.0000 1738.6150 -7534.8936 293.2007 -9273.5086 -7534.8936 293.2007 1125.0852 1200.3764 30278.8019 1125.0852 1200.3764
ENERGY: 300000 1.6072 9.3616 2.0338 0.0000 -10874.2477 1455.3959 0.0000 0.0000 1778.4251 -7627.4241 299.9143 -9405.8492 -7586.2089 299.0733 -27.4386 65.6275 30287.7886 672.9704 768.0778
ENERGY: 600000 3.0445 9.7721 1.3614 0.0000 -10781.4478 1431.7013 0.0000 0.0000 1761.3269 -7574.2416 297.0308 -9335.5684 -7553.4320 298.8943 -740.7809 -583.7907 31268.8603 183.3806 267.8377
ENERGY: 900000 4.1668 11.7718 3.5444 0.0000 -10807.1515 1395.8340 0.0000 0.0000 1767.7374 -7624.0970 298.1119 -9391.8344 -7559.7358 300.3123 -534.5619 -526.1232 30667.7547 108.0743 171.8360
ENERGY: 1200000 3.0097 14.1265 2.0018 0.0000 -10637.8068 1389.4831 0.0000 0.0000 1827.3388 -7401.8468 308.1631 -9229.1856 -7527.3623 302.1151 -543.9488 -456.1953 31384.5483 -10.5342 60.2506
ENERGY: 1500000 1.6710 8.5224 1.7768 0.0000 -10734.0934 1402.6884 0.0000 0.0000 1788.6436 -7530.7912 301.6375 -9319.4348 -7522.0914 302.3436 -722.3052 -583.4924 31432.0393 -76.8282 1.1650
TCL: Running FEP window   2: Lambda1 0.95   Lambda2 0.8999999999999999 [dLambda -0.050000000000000044]
TCL: Setting parameter firsttimestep to 0
TCL: Setting parameter alchLambda to 0.95
Info: NONBONDED TABLE R-SQUARED SPACING: 0.0625
Info: NONBONDED TABLE SIZE: 705 POINTS
TCL: Setting parameter alchLambda2 to 0.8999999999999999
Info: NONBONDED TABLE R-SQUARED SPACING: 0.0625
Info: NONBONDED TABLE SIZE: 705 POINTS
TCL: Running for 1500000 steps
ETITLE: TS BOND ANGLE DIHED IMPRP ELECT VDW BOUNDARY MISC KINETIC TOTAL TEMP POTENTIAL TOTALAVG TEMPAVG PRESSURE GPRESSURE VOLUME PRESSAVG GPRESSAVG
ENERGY: 0 1.6710 8.5223 1.7768 0.0000 -10732.7643 1402.9301 0.0000 0.0000 1787.7663 -7530.0978 301.4896 -9317.8641 -7530.0978 301.4896 -677.2669 -592.0453 31432.0393 -677.2669 -592.0453
ENERGY: 300000 2.9755 8.8965 1.8729 0.0000 -10678.5000 1359.5384 0.0000 0.0000 1829.1530 -7476.0637 308.4691 -9305.2167 -7521.1897 305.2008 -896.6037 -786.4639 31052.0107 -421.2897 -318.9510
ENERGY: 600000 2.5060 11.5769 1.0071 0.0000 -10803.5299 1463.4338 0.0000 0.0000 1755.9861 -7569.0200 296.1302 -9325.0061 -7531.5454 300.0979 6.6561 76.1721 30769.8741 -21.4219 81.5664
ENERGY: 900000 3.0218 10.3093 1.5344 0.0000 -10773.1892 1455.2607 0.0000 0.0000 1779.7549 -7523.3080 300.1385 -9303.0629 -7521.2727 300.1575 -69.3607 -43.9109 30591.1479 -95.9689 -2.8983
ENERGY: 1200000 3.1353 14.5576 1.4845 0.0000 -10814.8738 1492.0936 0.0000 0.0000 1849.7704 -7453.8324 311.9460 -9303.6028 -7515.3738 300.4992 394.8845 379.4150 30587.5129 -87.9939 -1.4648
ENERGY: 1500000 1.1619 9.5317 1.9243 0.0000 -10943.0390 1508.0255 0.0000 0.0000 1754.5253 -7667.8702 295.8838 -9422.3955 -7525.5885 299.8248 298.3843 399.0799 30290.9114 -9.8815 75.1401
TCL: Running FEP window   3: Lambda1 0.8999999999999999 Lambda2 0.8499999999999999 [dLambda -0.050000000000000044]
TCL: Setting parameter firsttimestep to 0
TCL: Setting parameter alchLambda to 0.8999999999999999
Info: NONBONDED TABLE R-SQUARED SPACING: 0.0625
Info: NONBONDED TABLE SIZE: 705 POINTS
TCL: Setting parameter alchLambda2 to 0.8499999999999999
Info: NONBONDED TABLE R-SQUARED SPACING: 0.0625
Info: NONBONDED TABLE SIZE: 705 POINTS
TCL: Running for 1500000 steps
ETITLE: TS BOND ANGLE DIHED IMPRP ELECT VDW BOUNDARY MISC KINETIC TOTAL TEMP POTENTIAL TOTALAVG TEMPAVG PRESSURE GPRESSURE VOLUME PRESSAVG GPRESSAVG
ENERGY: 0 1.1619 9.5317 1.9243 0.0000 -10942.2220 1508.6356 0.0000 0.0000 1753.6421 -7667.3264 295.7349 -9420.9685 -7667.3264 295.7349 310.6106 397.3234 30290.9114 310.6106 397.3234
ENERGY: 300000 2.0416 9.5334 1.7722 0.0000 -10772.8356 1436.5006 0.0000 0.0000 1797.8581 -7525.1297 303.1915 -9322.9878 -7526.8692 300.6420 -41.4420 23.1338 30504.7152 216.5293 280.9048
ENERGY: 600000 1.8559 8.6227 0.8374 0.0000 -10768.9706 1459.9765 0.0000 0.0000 1738.7890 -7558.8891 293.2300 -9297.6781 -7524.9461 299.4173 -32.5304 -18.2080 30961.5603 19.5441 83.2930
ENERGY: 900000 3.7516 15.1446 1.2570 0.0000 -10719.1029 1427.0823 0.0000 0.0000 1817.6981 -7454.1693 306.5373 -9271.8674 -7528.6371 299.8696 -153.2640 -121.7123 30915.8802 -39.5384 18.4003
ENERGY: 1200000 2.8596 13.8433 1.9209 0.0000 -10691.6814 1396.3603 0.0000 0.0000 1823.2949 -7453.4024 307.4811 -9276.6973 -7523.3164 300.5179 -343.1705 -261.2970 30611.9117 15.9829 74.1826
ENERGY: 1500000 1.4802 10.0156 2.6054 0.0000 -10644.7526 1419.5396 0.0000 0.0000 1803.9555 -7407.1563 304.2197 -9211.1119 -7517.8301 300.5211 90.5105 118.9885 30930.0840 -2.6080 52.0269
TCL: Running FEP window   4: Lambda1 0.8499999999999999 Lambda2 0.7999999999999998 [dLambda -0.050000000000000044]
TCL: Setting parameter firsttimestep to 0
TCL: Setting parameter alchLambda to 0.8499999999999999
Info: NONBONDED TABLE R-SQUARED SPACING: 0.0625
Info: NONBONDED TABLE SIZE: 705 POINTS
TCL: Setting parameter alchLambda2 to 0.7999999999999998
Info: NONBONDED TABLE R-SQUARED SPACING: 0.0625
Info: NONBONDED TABLE SIZE: 705 POINTS
TCL: Running for 1500000 steps
ETITLE: TS BOND ANGLE DIHED IMPRP ELECT VDW BOUNDARY MISC KINETIC TOTAL TEMP POTENTIAL TOTALAVG TEMPAVG PRESSURE GPRESSURE VOLUME PRESSAVG GPRESSAVG
ENERGY: 0 1.4802 10.0156 2.6054 0.0000 -10643.6207 1419.6847 0.0000 0.0000 1803.0637 -7406.7711 304.0693 -9209.8347 -7406.7711 304.0693 25.1218 108.3785 30930.0840 25.1218 108.3785
ENERGY: 300000 2.8967 13.3479 0.9942 0.0000 -10777.6492 1424.3522 0.0000 0.0000 1718.2100 -7617.8482 289.7596 -9336.0582 -7524.5813 298.3812 -54.8150 1.8751 30183.9268 20.0172 88.2657
ENERGY: 600000 3.2589 12.2401 4.2653 0.0000 -10602.2960 1377.7494 0.0000 0.0000 1799.0910 -7405.6912 303.3994 -9204.7822 -7491.6221 300.2830 -186.8303 -170.1871 30874.4504 7.0360 70.0471
ENERGY: 900000 2.3183 9.7081 3.1409 0.0000 -10633.5471 1363.0732 0.0000 0.0000 1778.2859 -7477.0207 299.8908 -9255.3066 -7484.9698 300.3653 -845.5912 -782.3867 31143.7106 -78.9241 -10.2550
ENERGY: 1200000 2.5329 7.7212 2.2339 0.0000 -10787.1283 1495.9287 0.0000 0.0000 1727.8001 -7550.9114 291.3769 -9278.7115 -7499.7917 299.5404 374.5699 448.6459 30647.5414 -64.3160 12.1366
ENERGY: 1500000 1.4627 8.8850 1.4235 0.0000 -10614.9178 1369.6621 0.0000 0.0000 1792.2492 -7441.2353 302.2456 -9233.4845 -7487.4967 300.7074 -371.4157 -301.5879 30822.3551 -24.8868 47.8522
TCL: Running FEP window   5: Lambda1 0.7999999999999998 Lambda2 0.7499999999999998 [dLambda -0.050000000000000044]
TCL: Setting parameter firsttimestep to 0
TCL: Setting parameter alchLambda to 0.7999999999999998
Info: NONBONDED TABLE R-SQUARED SPACING: 0.0625
Info: NONBONDED TABLE SIZE: 705 POINTS
TCL: Setting parameter alchLambda2 to 0.7499999999999998
Info: NONBONDED TABLE R-SQUARED SPACING: 0.0625
Info: NONBONDED TABLE SIZE: 705 POINTS
TCL: Running for 1500000 steps
ETITLE: TS BOND ANGLE DIHED IMPRP ELECT VDW BOUNDARY MISC KINETIC TOTAL TEMP POTENTIAL TOTALAVG TEMPAVG PRESSURE GPRESSURE VOLUME PRESSAVG GPRESSAVG
ENERGY: 0 1.4627 8.8850 1.4235 0.0000 -10614.1421 1370.1993 0.0000 0.0000 1791.4020 -7440.7695 302.1027 -9232.1716 -7440.7695 302.1027 -404.2892 -303.1937 30822.3551 -404.2892 -303.1937
ENERGY: 300000 2.5777 8.3190 0.7017 0.0000 -10746.5270 1428.8181 0.0000 0.0000 1828.4432 -7477.6672 308.3494 -9306.1104 -7502.4189 301.4190 -293.7461 -266.7056 31128.0430 -310.5023 -255.6258
ENERGY: 600000 2.8841 9.6492 0.8746 0.0000 -10597.4468 1308.3975 0.0000 0.0000 1800.8101 -7474.8315 303.6893 -9275.6416 -7481.9186 301.2627 -998.5383 -946.2515 30490.5277 -309.3571 -274.7067
ENERGY: 900000 1.7537 10.6878 2.8984 0.0000 -10756.7807 1422.0156 0.0000 0.0000 1745.4012 -7574.0240 294.3451 -9319.4252 -7497.7833 300.8155 10.8507 22.5288 30057.4343 -246.4616 -210.6888
ENERGY: 1200000 1.4104 13.0938 1.6764 0.0000 -10689.5057 1441.8424 0.0000 0.0000 1810.9610 -7420.5217 305.4011 -9231.4826 -7492.7349 300.6309 -292.5144 -201.1368 31377.1373 -237.5333 -190.8455
ENERGY: 1500000 1.9249 11.2991 2.6213 0.0000 -10620.9843 1342.4498 0.0000 0.0000 1761.1486 -7501.5405 297.0008 -9262.6892 -7498.1348 300.2371 -739.2671 -688.7128 30921.0668 -255.1104 -203.6358
TCL: Running FEP window   6: Lambda1 0.7499999999999998 Lambda2 0.6999999999999997 [dLambda -0.050000000000000044]
TCL: Setting parameter firsttimestep to 0
TCL: Setting parameter alchLambda to 0.7499999999999998
Info: NONBONDED TABLE R-SQUARED SPACING: 0.0625
Info: NONBONDED TABLE SIZE: 705 POINTS
TCL: Setting parameter alchLambda2 to 0.6999999999999997
Info: NONBONDED TABLE R-SQUARED SPACING: 0.0625
Info: NONBONDED TABLE SIZE: 705 POINTS
TCL: Running for 1500000 steps
ETITLE: TS BOND ANGLE DIHED IMPRP ELECT VDW BOUNDARY MISC KINETIC TOTAL TEMP POTENTIAL TOTALAVG TEMPAVG PRESSURE GPRESSURE VOLUME PRESSAVG GPRESSAVG
ENERGY: 0 1.9249 11.2991 2.6213 0.0000 -10619.9150 1342.2206 0.0000 0.0000 1760.2392 -7501.6098 296.8474 -9261.8490 -7501.6098 296.8474 -778.6988 -697.3078 30921.0668 -778.6988 -697.3078
ENERGY: 300000 0.4170 10.8612 1.3637 0.0000 -10669.7789 1435.0135 0.0000 0.0000 1825.3504 -7396.7731 307.8278 -9222.1235 -7494.3713 297.5673 554.4953 624.4842 30046.5545 11.6063 69.9225
ENERGY: 600000 1.6695 11.0459 1.0605 0.0000 -10908.9535 1535.1246 0.0000 0.0000 1779.9323 -7580.1207 300.1685 -9360.0530 -7532.2853 297.1570 521.7132 508.8904 30601.2598 226.2394 268.4036
ENERGY: 900000 4.1743 12.7983 1.2183 0.0000 -10658.7163 1394.5701 0.0000 0.0000 1751.5530 -7494.4023 295.3826 -9245.9553 -7518.9273 298.6987 -17.2747 -82.9289 30388.6347 77.8919 107.4800
ENERGY: 1200000 2.0089 12.0711 0.7277 0.0000 -10640.4095 1389.5775 0.0000 0.0000 1774.2111 -7461.8132 299.2036 -9236.0242 -7519.6288 298.1504 -348.9373 -280.6772 30893.1339 13.6485 59.2151
ENERGY: 1500000 1.0231 9.6657 1.4248 0.0000 -10832.8711 1471.3396 0.0000 0.0000 1744.7923 -7604.6255 294.2424 -9349.4178 -7530.2808 298.1804 54.4090 146.5439 30650.6145 23.4369 70.6271
TCL: Running FEP window   7: Lambda1 0.6999999999999997 Lambda2 0.6499999999999997 [dLambda -0.050000000000000044]
TCL: Setting parameter firsttimestep to 0
TCL: Setting parameter alchLambda to 0.6999999999999997
Info: NONBONDED TABLE R-SQUARED SPACING: 0.0625
Info: NONBONDED TABLE SIZE: 705 POINTS
TCL: Setting parameter alchLambda2 to 0.6499999999999997
Info: NONBONDED TABLE R-SQUARED SPACING: 0.0625
Info: NONBONDED TABLE SIZE: 705 POINTS
TCL: Running for 1500000 steps
ETITLE: TS BOND ANGLE DIHED IMPRP ELECT VDW BOUNDARY MISC KINETIC TOTAL TEMP POTENTIAL TOTALAVG TEMPAVG PRESSURE GPRESSURE VOLUME PRESSAVG GPRESSAVG
ENERGY: 0 1.0231 9.6657 1.4248 0.0000 -10832.0192 1470.6615 0.0000 0.0000 1743.9440 -7605.3001 294.0994 -9349.2441 -7605.3001 294.0994 31.6470 130.1277 30650.6145 31.6470 130.1277
ENERGY: 300000 3.9738 10.7836 1.6574 0.0000 -10774.4286 1435.9382 0.0000 0.0000 1735.2838 -7586.7919 292.6389 -9322.0756 -7574.8940 294.0303 100.5060 213.6110 30241.0009 113.9943 181.2647
ENERGY: 600000 2.7536 10.0693 1.5456 0.0000 -10637.4019 1335.5327 0.0000 0.0000 1824.5107 -7462.9901 307.6862 -9287.5007 -7538.7257 297.9453 -960.4097 -881.9251 30801.9863 -40.1344 26.5821
ENERGY: 900000 1.0532 7.7201 1.4125 0.0000 -10678.2544 1401.8130 0.0000 0.0000 1769.7524 -7496.5032 298.4517 -9266.2556 -7527.5302 298.6276 -287.6229 -221.7901 30783.3041 -194.8974 -132.6023
ENERGY: 1200000 1.1456 7.3436 1.4104 0.0000 -10794.1067 1489.3621 0.0000 0.0000 1778.7115 -7516.1336 299.9626 -9294.8450 -7528.0163 298.5629 533.2922 621.2887 30174.2258 -86.6499 -21.4985
ENERGY: 1500000 1.4795 13.5674 1.2736 0.0000 -10807.0539 1461.3126 0.0000 0.0000 1762.6175 -7566.8034 297.2485 -9329.4209 -7529.1608 298.1362 -115.1063 -13.2394 30790.0409 -26.3214 40.7633
TCL: Running FEP window   8: Lambda1 0.6499999999999997 Lambda2 0.5999999999999996 [dLambda -0.050000000000000044]
TCL: Setting parameter firsttimestep to 0
TCL: Setting parameter alchLambda to 0.6499999999999997
Info: NONBONDED TABLE R-SQUARED SPACING: 0.0625
Info: NONBONDED TABLE SIZE: 705 POINTS
TCL: Setting parameter alchLambda2 to 0.5999999999999996
Info: NONBONDED TABLE R-SQUARED SPACING: 0.0625
Info: NONBONDED TABLE SIZE: 705 POINTS
TCL: Running for 1500000 steps
ETITLE: TS BOND ANGLE DIHED IMPRP ELECT VDW BOUNDARY MISC KINETIC TOTAL TEMP POTENTIAL TOTALAVG TEMPAVG PRESSURE GPRESSURE VOLUME PRESSAVG GPRESSAVG
ENERGY: 0 1.4795 13.5674 1.2736 0.0000 -10806.0897 1460.7150 0.0000 0.0000 1761.7129 -7567.3413 297.0959 -9329.0542 -7567.3413 297.0959 -115.4025 -29.5142 30790.0409 -115.4025 -29.5142
ENERGY: 300000 1.3933 8.3578 3.5245 0.0000 -10707.2813 1433.0176 0.0000 0.0000 1745.9545 -7515.0335 294.4384 -9260.9880 -7497.2999 301.7382 -158.3064 -75.2564 31052.0145 -205.9597 -117.1741
ENERGY: 600000 2.2074 6.9092 1.5264 0.0000 -10699.2235 1463.0254 0.0000 0.0000 1829.0398 -7396.5153 308.4500 -9225.5551 -7508.4238 302.0088 312.9628 403.3029 30859.9370 -181.5242 -105.8837
ENERGY: 900000 1.3512 10.6685 1.2750 0.0000 -10683.0839 1380.5349 0.0000 0.0000 1799.2634 -7489.9909 303.4285 -9289.2542 -7516.3953 300.9614 -736.9904 -649.4340 31217.9194 -271.1904 -204.5182
ENERGY: 1200000 1.4357 10.4907 3.7429 0.0000 -10807.6941 1520.5765 0.0000 0.0000 1797.5553 -7473.8930 303.1404 -9271.4483 -7516.9408 301.5503 849.5795 868.2328 30472.6258 -216.2889 -149.5836
ENERGY: 1500000 1.2307 9.4869 1.8766 0.0000 -10716.7456 1491.8339 0.0000 0.0000 1773.5100 -7438.8076 299.0854 -9212.3176 -7519.2193 300.7597 552.8209 564.3107 30801.7267 -122.7099 -55.7132
TCL: Running FEP window   9: Lambda1 0.5999999999999996 Lambda2 0.5499999999999996 [dLambda -0.050000000000000044]
TCL: Setting parameter firsttimestep to 0
TCL: Setting parameter alchLambda to 0.5999999999999996
Info: NONBONDED TABLE R-SQUARED SPACING: 0.0625
Info: NONBONDED TABLE SIZE: 705 POINTS
TCL: Setting parameter alchLambda2 to 0.5499999999999996
Info: NONBONDED TABLE R-SQUARED SPACING: 0.0625
Info: NONBONDED TABLE SIZE: 705 POINTS
TCL: Running for 1500000 steps
ETITLE: TS BOND ANGLE DIHED IMPRP ELECT VDW BOUNDARY MISC KINETIC TOTAL TEMP POTENTIAL TOTALAVG TEMPAVG PRESSURE GPRESSURE VOLUME PRESSAVG GPRESSAVG
ENERGY: 0 1.2307 9.4869 1.8766 0.0000 -10716.0304 1491.4766 0.0000 0.0000 1772.6188 -7439.3408 298.9351 -9211.9596 -7439.3408 298.9351 462.8345 553.6910 30801.7267 462.8345 553.6910
ENERGY: 300000 3.3126 8.8989 2.2903 0.0000 -10697.2735 1425.5005 0.0000 0.0000 1799.9449 -7457.3263 303.5434 -9257.2712 -7503.7861 301.5531 -159.6262 -99.8541 30802.8733 307.0263 372.8440
ENERGY: 600000 1.8863 7.4685 1.2189 0.0000 -10694.6255 1403.7341 0.0000 0.0000 1796.6627 -7483.6550 302.9899 -9280.3176 -7485.9225 302.1061 -201.3559 -121.7194 30783.7000 9.5280 75.8633
ENERGY: 900000 1.0789 8.1319 1.0258 0.0000 -10512.1453 1358.3047 0.0000 0.0000 1798.7734 -7344.8306 303.3458 -9143.6040 -7489.7187 302.1662 -698.4160 -595.9058 31510.1775 -63.9589 2.5363
ENERGY: 1200000 0.5739 8.1750 2.1098 0.0000 -10818.2700 1523.1567 0.0000 0.0000 1806.6925 -7477.5620 304.6813 -9284.2545 -7493.9170 302.8145 707.8115 721.0698 30546.9532 -23.9537 43.3067
ENERGY: 1500000 3.1619 8.8361 4.0553 0.0000 -10729.0208 1419.9312 0.0000 0.0000 1742.5041 -7550.5322 293.8566 -9293.0364 -7495.9673 302.0823 -312.9687 -365.9321 30995.8131 -12.7317 50.7961
TCL: Running FEP window  10: Lambda1 0.5499999999999996 Lambda2 0.4999999999999996 [dLambda -0.04999999999999999]
TCL: Setting parameter firsttimestep to 0
TCL: Setting parameter alchLambda to 0.5499999999999996
Info: NONBONDED TABLE R-SQUARED SPACING: 0.0625
Info: NONBONDED TABLE SIZE: 705 POINTS
TCL: Setting parameter alchLambda2 to 0.4999999999999996
Info: NONBONDED TABLE R-SQUARED SPACING: 0.0625
Info: NONBONDED TABLE SIZE: 705 POINTS
TCL: Running for 1500000 steps
ETITLE: TS BOND ANGLE DIHED IMPRP ELECT VDW BOUNDARY MISC KINETIC TOTAL TEMP POTENTIAL TOTALAVG TEMPAVG PRESSURE GPRESSURE VOLUME PRESSAVG GPRESSAVG
ENERGY: 0 3.1619 8.8361 4.0553 0.0000 -10728.1993 1420.0576 0.0000 0.0000 1741.5755 -7550.5129 293.6999 -9292.0884 -7550.5129 293.6999 -436.9513 -370.1466 30995.8131 -436.9513 -370.1466
ENERGY: 300000 3.3268 11.6436 1.9042 0.0000 -10704.5416 1445.9609 0.0000 0.0000 1762.1673 -7479.5389 297.1726 -9241.7062 -7546.2602 296.9289 404.0438 517.2209 30064.6641 267.5273 341.6434
ENERGY: 600000 1.7746 10.9050 2.9158 0.0000 -10675.7031 1406.4140 0.0000 0.0000 1733.1071 -7520.5866 292.2718 -9253.6937 -7550.3914 295.7340 -226.2814 -143.4637 30698.8007 97.7495 171.0976
ENERGY: 900000 2.8458 12.2619 1.4248 0.0000 -10702.0041 1391.2515 0.0000 0.0000 1796.7898 -7497.4302 303.0113 -9294.2200 -7525.4325 296.5209 -435.8724 -432.4044 30667.6318 2.6527 66.7222
ENERGY: 1200000 1.6863 9.4651 1.5414 0.0000 -10865.6355 1530.0244 0.0000 0.0000 1771.1883 -7551.7300 298.6939 -9322.9183 -7526.5795 296.4845 649.7103 766.2844 30317.1413 26.9308 93.2591
ENERGY: 1500000 4.1502 7.9837 2.1727 0.0000 -10728.2710 1404.7310 0.0000 0.0000 1805.8806 -7503.3528 304.5444 -9309.2334 -7529.4813 297.3270 -535.2535 -445.9661 30507.1894 -56.9208 14.4550
TCL: Running FEP window  11: Lambda1 0.4999999999999996 Lambda2 0.4499999999999996 [dLambda -0.04999999999999999]
TCL: Setting parameter firsttimestep to 0
TCL: Setting parameter alchLambda to 0.4999999999999996
Info: NONBONDED TABLE R-SQUARED SPACING: 0.0625
Info: NONBONDED TABLE SIZE: 705 POINTS
TCL: Setting parameter alchLambda2 to 0.4499999999999996
Info: NONBONDED TABLE R-SQUARED SPACING: 0.0625
Info: NONBONDED TABLE SIZE: 705 POINTS
TCL: Running for 1500000 steps
ETITLE: TS BOND ANGLE DIHED IMPRP ELECT VDW BOUNDARY MISC KINETIC TOTAL TEMP POTENTIAL TOTALAVG TEMPAVG PRESSURE GPRESSURE VOLUME PRESSAVG GPRESSAVG
ENERGY: 0 4.1502 7.9837 2.1727 0.0000 -10727.7175 1405.0771 0.0000 0.0000 1805.0280 -7503.3058 304.4006 -9308.3338 -7503.3058 304.4006 -522.5280 -446.5562 30507.1894 -522.5280 -446.5562
ENERGY: 300000 2.6016 8.5992 1.5157 0.0000 -10778.4871 1471.5758 0.0000 0.0000 1743.3971 -7550.7978 294.0071 -9294.1949 -7504.9839 300.3367 -18.2945 22.6388 30937.9210 -115.0040 -72.9897
ENERGY: 600000 3.7556 9.9430 1.6928 0.0000 -10703.2384 1380.7724 0.0000 0.0000 1779.4635 -7527.6111 300.0894 -9307.0746 -7500.5930 300.0273 -617.3695 -594.0653 30664.4529 -47.2965 8.0972
ENERGY: 900000 2.1625 10.7415 1.3163 0.0000 -10770.0905 1453.7271 0.0000 0.0000 1745.2638 -7556.8794 294.3219 -9302.1432 -7501.2414 299.9743 133.4369 192.6547 30476.0957 -41.9970 19.4376
ENERGY: 1200000 3.1835 8.6940 1.2078 0.0000 -10864.0690 1553.5057 0.0000 0.0000 1790.4846 -7506.9934 301.9480 -9297.4780 -7505.5107 300.7701 726.8718 810.1035 30379.1629 -27.2187 34.6590
ENERGY: 1500000 2.6315 9.1057 0.7480 0.0000 -10757.4668 1468.1585 0.0000 0.0000 1801.1580 -7475.6652 303.7480 -9276.8232 -7512.9159 300.9599 366.6348 367.1184 30168.9348 49.9335 110.3551
TCL: Running FEP window  12: Lambda1 0.4499999999999996 Lambda2 0.39999999999999963 [dLambda -0.04999999999999999]
TCL: Setting parameter firsttimestep to 0
TCL: Setting parameter alchLambda to 0.4499999999999996
Info: NONBONDED TABLE R-SQUARED SPACING: 0.0625
Info: NONBONDED TABLE SIZE: 705 POINTS
TCL: Setting parameter alchLambda2 to 0.39999999999999963
Info: NONBONDED TABLE R-SQUARED SPACING: 0.0625
Info: NONBONDED TABLE SIZE: 705 POINTS
TCL: Running for 1500000 steps
ETITLE: TS BOND ANGLE DIHED IMPRP ELECT VDW BOUNDARY MISC KINETIC TOTAL TEMP POTENTIAL TOTALAVG TEMPAVG PRESSURE GPRESSURE VOLUME PRESSAVG GPRESSAVG
ENERGY: 0 2.6315 9.1057 0.7480 0.0000 -10757.4668 1468.5419 0.0000 0.0000 1800.2522 -7476.1875 303.5952 -9276.4397 -7476.1875 303.5952 275.6462 360.0706 30168.9348 275.6462 360.0706
ENERGY: 300000 1.8351 8.5793 2.0198 0.0000 -10761.6743 1506.7721 0.0000 0.0000 1805.6710 -7436.7971 304.5090 -9242.4681 -7474.8102 303.1744 664.7287 770.0226 30459.4617 101.8227 180.7844
ENERGY: 600000 3.4273 12.6610 1.7591 0.0000 -10746.8984 1438.8833 0.0000 0.0000 1802.7513 -7487.4164 304.0167 -9290.1677 -7492.6446 302.1015 -43.1130 83.8952 30335.8799 -106.7871 -21.1791
ENERGY: 900000 1.7366 5.0506 1.2969 0.0000 -10731.4863 1437.3373 0.0000 0.0000 1758.4620 -7527.6029 296.5477 -9286.0649 -7498.0636 300.8114 -97.2336 -99.5014 30684.1024 -36.1603 26.0154
ENERGY: 1200000 3.8791 14.7532 2.8146 0.0000 -10849.4400 1533.6511 0.0000 0.0000 1743.5075 -7550.8345 294.0258 -9294.3420 -7506.6542 299.8567 543.3598 649.3520 30544.6784 72.0860 145.8633
ENERGY: 1500000 1.3633 8.9358 2.1996 0.0000 -10919.7098 1547.8071 0.0000 0.0000 1749.9302 -7609.4738 295.1089 -9359.4040 -7512.8402 299.4174 814.8930 944.2782 30089.7274 67.4864 144.4983
TCL: Running FEP window  13: Lambda1 0.39999999999999963 Lambda2 0.34999999999999964 [dLambda -0.04999999999999999]
TCL: Setting parameter firsttimestep to 0
TCL: Setting parameter alchLambda to 0.39999999999999963
Info: NONBONDED TABLE R-SQUARED SPACING: 0.0625
Info: NONBONDED TABLE SIZE: 705 POINTS
TCL: Setting parameter alchLambda2 to 0.34999999999999964
Info: NONBONDED TABLE R-SQUARED SPACING: 0.0625
Info: NONBONDED TABLE SIZE: 705 POINTS
TCL: Running for 1500000 steps
ETITLE: TS BOND ANGLE DIHED IMPRP ELECT VDW BOUNDARY MISC KINETIC TOTAL TEMP POTENTIAL TOTALAVG TEMPAVG PRESSURE GPRESSURE VOLUME PRESSAVG GPRESSAVG
ENERGY: 0 1.3633 8.9358 2.1996 0.0000 -10919.7100 1548.0504 0.0000 0.0000 1749.0361 -7610.1248 294.9581 -9359.1608 -7610.1248 294.9581 850.0548 940.7422 30089.7274 850.0548 940.7422
ENERGY: 300000 3.0715 10.8795 1.3393 0.0000 -10788.4211 1442.2650 0.0000 0.0000 1787.4976 -7543.3681 301.4443 -9330.8657 -7524.0443 298.8541 -296.7824 -201.2737 30860.7554 205.7166 304.0787
ENERGY: 600000 2.6748 9.5789 1.0201 0.0000 -10616.0630 1372.6053 0.0000 0.0000 1794.8698 -7435.3139 302.6875 -9230.1838 -7489.3149 301.0744 -473.7971 -422.3389 30623.2507 83.1740 169.8036
ENERGY: 900000 2.7100 7.5765 1.3162 0.0000 -10624.0724 1438.4878 0.0000 0.0000 1801.4246 -7372.5573 303.7929 -9173.9819 -7473.7466 302.0367 235.2409 260.3268 30754.7574 40.2564 129.1662
ENERGY: 1200000 2.6301 8.6875 1.4142 0.0000 -10898.1274 1518.7520 0.0000 0.0000 1795.9199 -7570.7237 302.8646 -9366.6436 -7485.0766 301.7540 207.2018 304.6914 30443.5850 43.9082 120.9663
ENERGY: 1500000 3.4877 5.6161 4.2195 0.0000 -10695.1822 1374.1921 0.0000 0.0000 1773.6435 -7534.0232 299.1079 -9307.6668 -7499.0605 301.2589 -655.1434 -579.8928 30600.2012 -44.0093 27.8799
TCL: Running FEP window  14: Lambda1 0.34999999999999964 Lambda2 0.29999999999999966 [dLambda -0.04999999999999999]
TCL: Setting parameter firsttimestep to 0
TCL: Setting parameter alchLambda to 0.34999999999999964
Info: NONBONDED TABLE R-SQUARED SPACING: 0.0625
Info: NONBONDED TABLE SIZE: 705 POINTS
TCL: Setting parameter alchLambda2 to 0.29999999999999966
Info: NONBONDED TABLE R-SQUARED SPACING: 0.0625
Info: NONBONDED TABLE SIZE: 705 POINTS
TCL: Running for 1500000 steps
ETITLE: TS BOND ANGLE DIHED IMPRP ELECT VDW BOUNDARY MISC KINETIC TOTAL TEMP POTENTIAL TOTALAVG TEMPAVG PRESSURE GPRESSURE VOLUME PRESSAVG GPRESSAVG
ENERGY: 0 3.4877 5.6161 4.2195 0.0000 -10695.1837 1374.6165 0.0000 0.0000 1772.7528 -7534.4910 298.9577 -9307.2438 -7534.4910 298.9577 -654.1114 -580.8169 30600.2012 -654.1114 -580.8169
ENERGY: 300000 0.4152 8.8882 3.7034 0.0000 -10674.3510 1359.4452 0.0000 0.0000 1772.6045 -7529.2946 298.9327 -9301.8991 -7521.1986 298.5275 -687.6510 -656.7661 30746.6892 -624.1327 -541.4601
ENERGY: 600000 4.4300 8.4379 1.8885 0.0000 -10765.0214 1455.8956 0.0000 0.0000 1789.7841 -7504.5853 301.8299 -9294.3694 -7532.5105 298.7375 -62.1812 -0.4073 30401.5234 -542.5929 -458.5279
ENERGY: 900000 2.5036 9.2488 2.9681 0.0000 -10709.5648 1410.2848 0.0000 0.0000 1760.3907 -7524.1690 296.8730 -9284.5596 -7526.6253 299.3793 -140.8990 -86.1021 30241.9799 -422.8334 -346.0608
ENERGY: 1200000 2.9474 9.2750 1.0488 0.0000 -10713.1148 1437.4006 0.0000 0.0000 1822.8323 -7439.6106 307.4031 -9262.4429 -7510.3494 300.4542 -158.8889 -41.3671 31013.9751 -410.8520 -331.9835
ENERGY: 1500000 2.4442 7.7860 1.6401 0.0000 -10740.1007 1419.5773 0.0000 0.0000 1838.0559 -7470.5972 309.9704 -9308.6531 -7515.7296 300.6938 -154.8807 -112.8263 30617.0674 -282.9261 -213.6600
TCL: Running FEP window  15: Lambda1 0.29999999999999966 Lambda2 0.24999999999999967 [dLambda -0.04999999999999999]
TCL: Setting parameter firsttimestep to 0
TCL: Setting parameter alchLambda to 0.29999999999999966
Info: NONBONDED TABLE R-SQUARED SPACING: 0.0625
Info: NONBONDED TABLE SIZE: 705 POINTS
TCL: Setting parameter alchLambda2 to 0.24999999999999967
Info: NONBONDED TABLE R-SQUARED SPACING: 0.0625
Info: NONBONDED TABLE SIZE: 705 POINTS
TCL: Running for 1500000 steps
ETITLE: TS BOND ANGLE DIHED IMPRP ELECT VDW BOUNDARY MISC KINETIC TOTAL TEMP POTENTIAL TOTALAVG TEMPAVG PRESSURE GPRESSURE VOLUME PRESSAVG GPRESSAVG
ENERGY: 0 2.4442 7.7860 1.6401 0.0000 -10740.0999 1419.9301 0.0000 0.0000 1837.1922 -7471.1073 309.8248 -9308.2995 -7471.1073 309.8248 -207.2828 -116.5689 30617.0674 -207.2828 -116.5689
ENERGY: 300000 2.2264 7.7009 2.4686 0.0000 -10866.4965 1470.2148 0.0000 0.0000 1757.1240 -7626.7617 296.3221 -9383.8858 -7534.7419 300.9592 118.5213 184.9025 30280.7023 14.0440 81.6242
ENERGY: 600000 1.3144 9.3185 1.5311 0.0000 -10907.1444 1504.1366 0.0000 0.0000 1755.4901 -7635.3537 296.0465 -9390.8438 -7538.6429 300.9900 -96.2996 37.1878 30761.9967 -36.0469 32.9539
ENERGY: 900000 0.5873 8.9069 2.7967 0.0000 -10710.2455 1407.8404 0.0000 0.0000 1745.1154 -7544.9987 294.2969 -9290.1141 -7526.8870 300.6456 -433.8345 -351.1772 30821.5961 -43.7132 20.6166
ENERGY: 1200000 0.8975 17.1170 1.3549 0.0000 -10676.5446 1323.4794 0.0000 0.0000 1777.6842 -7556.0117 299.7893 -9333.6959 -7529.7408 299.5849 -849.0939 -782.0823 30145.8190 -182.1326 -119.8729
ENERGY: 1500000 2.4825 10.2129 1.1277 0.0000 -10653.4660 1374.5754 0.0000 0.0000 1825.2894 -7439.7782 307.8175 -9265.0676 -7510.8119 300.1935 -639.6050 -518.9532 30523.0643 -122.8927 -53.0273
TCL: Running FEP window  16: Lambda1 0.24999999999999967 Lambda2 0.19999999999999968 [dLambda -0.04999999999999999]
TCL: Setting parameter firsttimestep to 0
TCL: Setting parameter alchLambda to 0.24999999999999967
Info: NONBONDED TABLE R-SQUARED SPACING: 0.0625
Info: NONBONDED TABLE SIZE: 705 POINTS
TCL: Setting parameter alchLambda2 to 0.19999999999999968
Info: NONBONDED TABLE R-SQUARED SPACING: 0.0625
Info: NONBONDED TABLE SIZE: 705 POINTS
TCL: Running for 1500000 steps
ETITLE: TS BOND ANGLE DIHED IMPRP ELECT VDW BOUNDARY MISC KINETIC TOTAL TEMP POTENTIAL TOTALAVG TEMPAVG PRESSURE GPRESSURE VOLUME PRESSAVG GPRESSAVG
ENERGY: 0 2.4825 10.2129 1.1277 0.0000 -10653.4659 1373.6603 0.0000 0.0000 1824.4195 -7441.5631 307.6708 -9265.9826 -7441.5631 307.6708 -615.6106 -528.6617 30523.0643 -615.6106 -528.6617
ENERGY: 300000 2.5351 8.7648 1.7966 0.0000 -10860.4657 1487.9798 0.0000 0.0000 1808.9758 -7550.4136 305.0664 -9359.3894 -7515.0810 302.2760 360.6595 378.4081 30122.9469 117.6307 180.6512
ENERGY: 600000 1.4959 13.8538 1.0975 0.0000 -10831.8493 1482.8705 0.0000 0.0000 1801.6308 -7530.9008 303.8277 -9332.5317 -7531.8323 301.1738 291.9101 260.5509 30819.7503 298.5911 361.3432
ENERGY: 900000 1.1207 9.6889 1.2155 0.0000 -10789.7475 1469.9154 0.0000 0.0000 1787.4426 -7520.3643 301.4350 -9307.8069 -7522.4073 299.7649 95.9253 155.6109 30646.8363 221.7485 277.8181
ENERGY: 1200000 2.7660 7.4870 1.3517 0.0000 -10808.8576 1495.9791 0.0000 0.0000 1724.2168 -7577.0570 290.7726 -9301.2739 -7519.3347 298.6562 235.1246 333.8695 30411.0868 195.6965 255.7362
ENERGY: 1500000 2.3915 7.6593 1.0041 0.0000 -10795.0236 1433.6268 0.0000 0.0000 1743.1007 -7607.2413 293.9572 -9350.3420 -7522.3922 298.4047 -360.3045 -299.0413 30426.9247 130.1858 188.7290
TCL: Running FEP window  17: Lambda1 0.19999999999999968 Lambda2 0.1499999999999997 [dLambda -0.04999999999999999]
TCL: Setting parameter firsttimestep to 0
TCL: Setting parameter alchLambda to 0.19999999999999968
Info: NONBONDED TABLE R-SQUARED SPACING: 0.0625
Info: NONBONDED TABLE SIZE: 705 POINTS
TCL: Setting parameter alchLambda2 to 0.1499999999999997
Info: NONBONDED TABLE R-SQUARED SPACING: 0.0625
Info: NONBONDED TABLE SIZE: 705 POINTS
TCL: Running for 1500000 steps
ETITLE: TS BOND ANGLE DIHED IMPRP ELECT VDW BOUNDARY MISC KINETIC TOTAL TEMP POTENTIAL TOTALAVG TEMPAVG PRESSURE GPRESSURE VOLUME PRESSAVG GPRESSAVG
ENERGY: 0 2.3915 7.6593 1.0041 0.0000 -10795.0255 1433.6104 0.0000 0.0000 1742.2652 -7608.0950 293.8163 -9350.3602 -7608.0950 293.8163 -402.9294 -303.7581 30426.9247 -402.9294 -303.7581
ENERGY: 300000 3.3393 8.8735 1.9992 0.0000 -10886.0924 1449.5861 0.0000 0.0000 1807.4869 -7614.8075 304.8153 -9422.2944 -7540.7121 297.4902 -410.4310 -273.6462 30447.0660 146.8417 215.0217
ENERGY: 600000 4.5603 8.5473 2.0845 0.0000 -10675.6549 1381.2441 0.0000 0.0000 1730.4774 -7548.7414 291.8284 -9279.2188 -7525.8811 297.0841 -544.3047 -490.9502 30387.6082 -211.5820 -153.4858
ENERGY: 900000 2.0457 10.6035 1.6217 0.0000 -10644.4840 1381.5232 0.0000 0.0000 1764.7396 -7483.9502 297.6064 -9248.6898 -7522.7331 298.0162 -688.2977 -549.6213 30945.8883 -456.4929 -385.4349
ENERGY: 1200000 1.4099 8.2216 0.9942 0.0000 -10844.8648 1487.6947 0.0000 0.0000 1797.3542 -7549.1902 303.1065 -9346.5443 -7525.7419 298.3108 308.5265 314.8069 30385.3349 -267.8606 -203.3609
ENERGY: 1500000 1.8450 13.0614 2.5901 0.0000 -10764.9097 1442.3176 0.0000 0.0000 1724.0424 -7581.0531 290.7432 -9305.0955 -7525.9811 298.3971 -277.4008 -239.7284 30811.4055 -242.1304 -174.5988
TCL: Running FEP window  18: Lambda1 0.1499999999999997 Lambda2 0.09999999999999969 [dLambda -0.05 ]
TCL: Setting parameter firsttimestep to 0
TCL: Setting parameter alchLambda to 0.1499999999999997
Info: NONBONDED TABLE R-SQUARED SPACING: 0.0625
Info: NONBONDED TABLE SIZE: 705 POINTS
TCL: Setting parameter alchLambda2 to 0.09999999999999969
Info: NONBONDED TABLE R-SQUARED SPACING: 0.0625
Info: NONBONDED TABLE SIZE: 705 POINTS
TCL: Running for 1500000 steps
ETITLE: TS BOND ANGLE DIHED IMPRP ELECT VDW BOUNDARY MISC KINETIC TOTAL TEMP POTENTIAL TOTALAVG TEMPAVG PRESSURE GPRESSURE VOLUME PRESSAVG GPRESSAVG
ENERGY: 0 1.8450 13.0614 2.5901 0.0000 -10764.9101 1442.3884 0.0000 0.0000 1723.1560 -7581.8691 290.5937 -9305.0251 -7581.8691 290.5937 -311.7836 -244.8552 30811.4055 -311.7836 -244.8552
ENERGY: 300000 2.6307 7.2843 1.5044 0.0000 -10740.1897 1474.9844 0.0000 0.0000 1758.6962 -7495.0898 296.5872 -9253.7860 -7541.6690 298.1388 -29.7035 2.8971 31021.1456 -225.6091 -160.8761
ENERGY: 600000 5.9610 10.6126 1.4971 0.0000 -10583.9507 1345.4836 0.0000 0.0000 1777.7347 -7442.6617 299.7979 -9220.3964 -7521.2713 297.6585 -753.4830 -688.9302 30521.5889 -312.5162 -247.1556
ENERGY: 900000 0.8292 11.4996 1.7147 0.0000 -10761.0123 1469.3297 0.0000 0.0000 1739.1916 -7538.4475 293.2979 -9277.6391 -7529.1087 299.2972 220.1503 290.6030 30418.8739 -172.4226 -99.7218
ENERGY: 1200000 3.9533 9.3992 2.0964 0.0000 -10817.9249 1473.7888 0.0000 0.0000 1740.2269 -7588.4603 293.4725 -9328.6872 -7532.6656 299.2069 -57.4380 -46.2064 30633.4417 -92.1096 -21.9024
ENERGY: 1500000 1.6443 6.5048 1.5618 0.0000 -10768.6578 1430.4224 0.0000 0.0000 1767.2343 -7561.2902 298.0271 -9328.5245 -7528.5218 299.3880 -236.8172 -137.4715 30368.2144 -56.8485 12.6873
TCL: Running FEP window  19: Lambda1 0.09999999999999969 Lambda2 0.049999999999999684 [dLambda -0.05 ]
TCL: Setting parameter firsttimestep to 0
TCL: Setting parameter alchLambda to 0.09999999999999969
Info: NONBONDED TABLE R-SQUARED SPACING: 0.0625
Info: NONBONDED TABLE SIZE: 705 POINTS
TCL: Setting parameter alchLambda2 to 0.049999999999999684
Info: NONBONDED TABLE R-SQUARED SPACING: 0.0625
Info: NONBONDED TABLE SIZE: 705 POINTS
TCL: Running for 1500000 steps
ETITLE: TS BOND ANGLE DIHED IMPRP ELECT VDW BOUNDARY MISC KINETIC TOTAL TEMP POTENTIAL TOTALAVG TEMPAVG PRESSURE GPRESSURE VOLUME PRESSAVG GPRESSAVG
ENERGY: 0 1.6443 6.5048 1.5618 0.0000 -10768.6580 1429.8007 0.0000 0.0000 1766.3360 -7562.8105 297.8756 -9329.1464 -7562.8105 297.8756 -234.9139 -143.6883 30368.2144 -234.9139 -143.6883
ENERGY: 300000 1.3102 12.6868 1.5775 0.0000 -10666.5599 1386.8538 0.0000 0.0000 1742.1389 -7521.9928 293.7950 -9264.1316 -7538.7548 296.4720 -740.2376 -650.2000 30868.4550 -288.2614 -224.6535
ENERGY: 600000 0.6484 11.5588 1.6529 0.0000 -10735.4047 1373.1589 0.0000 0.0000 1817.1256 -7531.2602 306.4407 -9348.3857 -7510.4205 299.2659 -745.5034 -704.0160 30510.9689 -385.7548 -324.3567
ENERGY: 900000 5.3405 8.8566 1.2918 0.0000 -10651.7712 1436.3622 0.0000 0.0000 1770.5942 -7429.3259 298.5937 -9199.9201 -7507.4667 299.6172 72.5179 181.3252 30406.4833 -306.9176 -244.7602
ENERGY: 1200000 0.7052 11.9078 0.9891 0.0000 -10779.3954 1500.1308 0.0000 0.0000 1783.1481 -7482.5144 300.7108 -9265.6625 -7507.4958 300.3695 441.8601 562.4015 30760.3561 -241.9891 -166.7670
ENERGY: 1500000 1.7911 6.8477 1.1134 0.0000 -10772.6483 1419.6113 0.0000 0.0000 1739.9978 -7603.2869 293.4339 -9343.2847 -7508.1655 301.3076 -328.7066 -246.2712 30558.9086 -222.1539 -149.8855
TCL: Running FEP window  20: Lambda1 0.049999999999999684 Lambda2 0.0    [dLambda -0.049999999999999684]
TCL: Setting parameter firsttimestep to 0
TCL: Setting parameter alchLambda to 0.049999999999999684
Info: NONBONDED TABLE R-SQUARED SPACING: 0.0625
Info: NONBONDED TABLE SIZE: 705 POINTS
TCL: Setting parameter alchLambda2 to 0.0
Info: NONBONDED TABLE R-SQUARED SPACING: 0.0625
Info: NONBONDED TABLE SIZE: 705 POINTS
TCL: Running for 1500000 steps
ETITLE: TS BOND ANGLE DIHED IMPRP ELECT VDW BOUNDARY MISC KINETIC TOTAL TEMP POTENTIAL TOTALAVG TEMPAVG PRESSURE GPRESSURE VOLUME PRESSAVG GPRESSAVG
ENERGY: 0 1.7911 6.8477 1.1134 0.0000 -10772.6482 1418.1804 0.0000 0.0000 1739.1015 -7605.6141 293.2827 -9344.7155 -7605.6141 293.2827 -360.4231 -257.0357 30558.9086 -360.4231 -257.0357
ENERGY: 300000 2.4063 9.3078 2.5162 0.0000 -10631.4639 1374.9359 0.0000 0.0000 1743.0874 -7499.2104 293.9549 -9242.2977 -7559.6187 292.9761 -413.0349 -370.9036 30891.0856 -610.1359 -532.3565
ENERGY: 600000 6.2378 15.7327 1.6358 0.0000 -10773.2117 1435.4885 0.0000 0.0000 1787.8231 -7526.2938 301.4992 -9314.1169 -7536.2326 297.1699 -250.0670 -199.7443 30384.1518 -438.5466 -374.3278
ENERGY: 900000 1.7346 13.1356 3.7861 0.0000 -10732.0003 1435.1160 0.0000 0.0000 1738.8366 -7539.3914 293.2381 -9278.2280 -7527.5257 296.1717 -355.5215 -313.0869 30980.5056 -352.5198 -286.5125
ENERGY: 1200000 0.5702 7.3015 1.6572 0.0000 -10736.9119 1443.8835 0.0000 0.0000 1826.4211 -7457.0784 308.0083 -9283.4995 -7523.8849 298.1416 118.6801 159.1488 30318.7289 -325.5904 -262.1195
ENERGY: 1500000 2.5745 13.8371 1.1076 0.0000 -10839.5189 1471.2547 0.0000 0.0000 1774.8562 -7575.8889 299.3124 -9350.7451 -7536.0063 297.8679 -114.7740 -6.3738 30210.8615 -282.8194 -212.2024
TCL: Exiting due to exit command.
