Info: SIMULATION PARAMETERS:
Info: TIMESTEP               2
Info: NUMBER OF STEPS        0
Info: STEPS PER CYCLE        10
Info: PERIODIC CELL BASIS 1  29.3564 0 0
Info: PERIODIC CELL BASIS 2  0 30.9073 0
Info: PERIODIC CELL BASIS 3  0 0 34.1881
Info: PERIODIC CELL CENTER   0 0 0
Info: WRAPPING WATERS AROUND PERIODIC BOUNDARIES ON OUTPUT.
Info: WRAPPING ALL CLUSTERS AROUND PERIODIC BOUNDARIES ON OUTPUT.
Info: FIRST LDB TIMESTEP     50
Info: LAST LDB TIMESTEP     -1
Info: HOM BACKGROUND SCALING 1
Info: PME BACKGROUND SCALING 1
Info: MIN ATOMS PER PATCH    40
Info: EMPTY PATCH LOAD       40 ATOMS
Info: VELOCITY FILE          mobley_6359156_equil.vel
Info: CENTER OF MASS MOVING INITIALLY? NO
Info: DIELECTRIC             1
Info: EXCLUDE                SCALED ONE-FOUR
Info: 1-4 ELECTROSTATICS SCALED BY 0.833333
Info: MODIFIED 1-4 VDW PARAMETERS WILL BE USED
Info: DCD FILENAME           mobley_6359156_prod.dcd
Info: DCD FREQUENCY          100000
Info: DCD FIRST STEP         100000
Info: DCD FILE WILL CONTAIN UNIT CELL DATA
Info: XST FILENAME           mobley_6359156_prod.xst
Info: XST FREQUENCY          100000
Info: NO VELOCITY DCD OUTPUT
Info: NO FORCE DCD OUTPUT
Info: OUTPUT FILENAME        mobley_6359156_prod
Info: BINARY OUTPUT FILES WILL BE USED
Info: RESTART FILENAME       mobley_6359156_prod.restart
Info: RESTART FREQUENCY      100000
Info: BINARY RESTART FILES WILL BE USED
Info: CUTOFF                 9
Info: PAIRLIST DISTANCE      11
Info: PAIRLIST SHRINK RATE   0.01
Info: PAIRLIST GROW RATE     0.01
Info: PAIRLIST TRIGGER       0.3
Info: PAIRLISTS PER CYCLE    2
Info: PAIRLISTS ENABLED
Info: MARGIN                 2
Info: HYDROGEN GROUP CUTOFF  2.5
Info: PATCH DIMENSION        15.5
Info: ENERGY OUTPUT STEPS    100000
Info: ENERGY EVALUATION STEPS    100000
Info: OUTPUT ENERGY PRECISION 4
Info: CROSSTERM ENERGY INCLUDED IN DIHEDRAL
Info: TIMING OUTPUT STEPS    1000000
Info: PRESSURE OUTPUT STEPS  100000
Info: ALCHEMICAL FEP ON
Info: FEP CURRENT LAMBDA VALUE     1
Info: FEP COMPARISON LAMBDA VALUE  0.95
Info: FEP INTRA-ALCHEMICAL NON-BONDED INTERACTIONS WILL BE RETAINED
Info: FEP INTRA-ALCHEMICAL BONDED INTERACTIONS WILL BE RETAINED
Info: FEP VDW SHIFTING COEFFICIENT 5
Info: FEP ELEC. ACTIVE FOR ANNIHILATED PARTICLES BETWEEN LAMBDA = 0 AND LAMBDA = 0.5
Info: FEP ELEC. ACTIVE FOR EXNIHILATED PARTICLES BETWEEN LAMBDA = 0.5 AND LAMBDA = 1
Info: FEP VDW ACTIVE FOR ANNIHILATED PARTICLES BETWEEN LAMBDA = 0 AND LAMBDA = 1
Info: FEP VDW ACTIVE FOR EXNIHILATED PARTICLES BETWEEN LAMBDA = 0 AND LAMBDA = 1
Info: FEP BOND ACTIVE FOR ANNIHILATED PARTICLES BETWEEN LAMBDA = 1 AND LAMBDA = 1
Info: FEP BOND ACTIVE FOR EXNIHILATED PARTICLES BETWEEN LAMBDA = 0 AND LAMBDA = 0
Info: LANGEVIN DYNAMICS ACTIVE
Info: LANGEVIN TEMPERATURE   300
Info: LANGEVIN USING BBK INTEGRATOR
Info: LANGEVIN DAMPING COEFFICIENT IS 1 INVERSE PS
Info: LANGEVIN DYNAMICS APPLIED TO HYDROGENS
Info: LANGEVIN PISTON PRESSURE CONTROL ACTIVE
Info:        TARGET PRESSURE IS 1.01325 BAR
Info:     OSCILLATION PERIOD IS 50 FS
Info:             DECAY TIME IS 25 FS
Info:     PISTON TEMPERATURE IS 300 K
Info:       PRESSURE CONTROL IS GROUP-BASED
Info:    INITIAL STRAIN RATE IS 0.000169057 0.000169057 0.000169057
Info:       CELL FLUCTUATION IS ISOTROPIC
Info: PARTICLE MESH EWALD (PME) ACTIVE
Info: PME TOLERANCE               1e-06
Info: PME EWALD COEFFICIENT       0.348832
Info: PME INTERPOLATION ORDER     4
Info: PME GRID DIMENSIONS         32 32 36
Info: PME MAXIMUM GRID SPACING    1
Info: PME CALCULATION WILL BE PERFORMED ON GPU
Info: FULL ELECTROSTATIC EVALUATION FREQUENCY      2
Info: USING VERLET I (r-RESPA) MTS SCHEME.
Info: C1 SPLITTING OF LONG RANGE ELECTROSTATICS
Info: PLACING ATOMS IN PATCHES BY HYDROGEN GROUPS
Info: RIGID BONDS TO HYDROGEN : ALL
Info:         ERROR TOLERANCE : 1e-08
Info:          MAX ITERATIONS : 100
Info: RIGID WATER USING SETTLE ALGORITHM
Info: RANDOM NUMBER SEED     1743803721
Info: USE HYDROGEN BONDS?    NO
Info: Using AMBER format force field!
Info: AMBER PARM FILE        mobley_6359156.prmtop
Info: COORDINATE PDB         mobley_6359156.pdb
Info: Exclusions will be read from PARM file!
Info: SCNB (VDW SCALING)     2
Info: USING ARITHMETIC MEAN TO COMBINE L-J SIGMA PARAMETERS
Info: BINARY COORDINATES     mobley_6359156_equil.coor
Info: SUMMARY OF PARAMETERS:
Info: 7 BONDS
Info: 8 ANGLES
Info:   8 HARMONIC
Info:   0 COSINE-BASED
Info: 3 DIHEDRAL
Info: 0 IMPROPER
Info: 0 CROSSTERM
Info: 0 VDW
Info: 15 VDW_PAIRS
Info: 0 NBTHOLE_PAIRS
Info: To read alchdata from file: mobley_6359156.pdb
Info: To read alchflag data from column: 5
Info: STRUCTURE SUMMARY:
Info: 2989 ATOMS
Info: 2990 BONDS
Info: 36 ANGLES
Info: 64 DIHEDRALS
Info: 0 IMPROPERS
Info: 0 CROSSTERMS
Info: 3072 EXCLUSIONS
Info: 2975 RIGID BONDS
Info: ALCH: 0 ATOMS TO DISAPPEAR IN FINAL STATE
Info: ALCH: 22 ATOMS TO APPEAR IN FINAL STATE
Info: 5992 DEGREES OF FREEDOM
Info: 1003 HYDROGEN GROUPS
Info: 3 ATOMS IN LARGEST HYDROGEN GROUP
Info: 1003 MIGRATION GROUPS
Info: 3 ATOMS IN LARGEST MIGRATION GROUP
Info: TOTAL MASS = 18040.9 amu
Info: TOTAL CHARGE = -0.000100006 e
Info: MASS DENSITY = 0.965782 g/cm^3
Info: ATOM DENSITY = 0.0963579 atoms/A^3
Info: ADDED 0 IMPLICIT EXCLUSIONS
Info: NONBONDED TABLE R-SQUARED SPACING: 0.0625
Info: NONBONDED TABLE SIZE: 705 POINTS
Info: REMOVING COM VELOCITY 0.164318 0.0111117 -0.0261946
Info: Use 3D box decompostion in PME FFT.
Info: Updated CUDA force table with 4096 elements.
Info: Updated CUDA LJ table with 5 x 5 elements.
Info: Found 23 unique exclusion lists needing 72 bytes
TCL: Running for 1500000 steps
ETITLE: TS BOND ANGLE DIHED IMPRP ELECT VDW BOUNDARY MISC KINETIC TOTAL TEMP POTENTIAL TOTALAVG TEMPAVG PRESSURE GPRESSURE VOLUME PRESSAVG GPRESSAVG
ENERGY: 0 4.3472 4.7826 7.3336 0.0000 -10787.9471 1421.7202 0.0000 0.0000 1779.7078 -7570.0555 298.9285 -9349.7633 -7570.0555 298.9285 -419.8196 -334.3679 31019.7589 -419.8196 -334.3679
ENERGY: 300000 4.5636 6.8979 10.1242 0.0000 -10806.9647 1487.5338 0.0000 0.0000 1786.4511 -7511.3942 300.0611 -9297.8452 -7567.6132 297.0624 316.9750 405.1649 30799.5086 -30.3925 38.8328
ENERGY: 600000 5.4753 4.8015 8.9598 0.0000 -10898.5267 1504.3700 0.0000 0.0000 1826.6510 -7548.2691 306.8133 -9374.9201 -7550.1635 298.9536 911.4798 967.8537 29961.5589 3.6066 61.2074
ENERGY: 900000 4.6690 6.9343 9.0383 0.0000 -10877.9637 1482.3918 0.0000 0.0000 1785.6397 -7589.2906 299.9248 -9374.9303 -7558.3507 298.2135 -0.7681 41.3933 30993.3283 36.9389 86.9539
ENERGY: 1200000 3.7633 4.0502 10.2720 0.0000 -10948.0348 1523.0727 0.0000 0.0000 1782.7833 -7624.0932 299.4451 -9406.8766 -7558.3236 299.1594 574.5112 658.6422 30159.4288 75.8259 136.1041
ENERGY: 1500000 6.5054 8.0568 14.8944 0.0000 -10742.1462 1435.2095 0.0000 0.0000 1751.4325 -7526.0477 294.1792 -9277.4802 -7548.8127 299.1324 -167.4822 -72.5473 30785.5190 8.2896 67.4543
TCL: Running FEP window   2: Lambda1 0.95   Lambda2 0.8999999999999999 [dLambda -0.050000000000000044]
TCL: Setting parameter firsttimestep to 0
TCL: Setting parameter alchLambda to 0.95
Info: NONBONDED TABLE R-SQUARED SPACING: 0.0625
Info: NONBONDED TABLE SIZE: 705 POINTS
TCL: Setting parameter alchLambda2 to 0.8999999999999999
Info: NONBONDED TABLE R-SQUARED SPACING: 0.0625
Info: NONBONDED TABLE SIZE: 705 POINTS
TCL: Running for 1500000 steps
ETITLE: TS BOND ANGLE DIHED IMPRP ELECT VDW BOUNDARY MISC KINETIC TOTAL TEMP POTENTIAL TOTALAVG TEMPAVG PRESSURE GPRESSURE VOLUME PRESSAVG GPRESSAVG
ENERGY: 0 6.5054 8.0568 14.8945 0.0000 -10741.4548 1435.4586 0.0000 0.0000 1750.5734 -7525.9662 294.0349 -9276.5395 -7525.9662 294.0349 -173.3625 -87.3732 30785.5190 -173.3625 -87.3732
ENERGY: 300000 5.7541 6.0369 6.1119 0.0000 -10905.6100 1477.1829 0.0000 0.0000 1789.3674 -7621.1568 300.5509 -9410.5242 -7562.3314 299.0059 51.3314 121.4888 30737.5110 -189.9928 -148.3024
ENERGY: 600000 4.9754 5.4148 12.2953 0.0000 -10821.4785 1426.2413 0.0000 0.0000 1776.4720 -7596.0798 298.3850 -9372.5518 -7553.9812 300.4373 -46.5753 13.4984 30755.4780 -164.4262 -104.0470
ENERGY: 900000 4.8379 3.3316 9.8765 0.0000 -10881.1993 1488.0196 0.0000 0.0000 1749.1830 -7625.9506 293.8014 -9375.1336 -7553.8403 300.7979 21.3033 63.7546 30777.1891 -168.7864 -100.9476
ENERGY: 1200000 5.3038 8.8917 8.3831 0.0000 -10839.6309 1448.6857 0.0000 0.0000 1812.5336 -7555.8332 304.4421 -9368.3667 -7560.3241 299.7443 43.4061 73.9380 30658.1259 -140.1429 -78.5658
ENERGY: 1500000 3.0532 6.2400 10.5961 0.0000 -10620.4296 1365.8736 0.0000 0.0000 1817.4086 -7417.2580 305.2609 -9234.6667 -7542.9818 300.0634 -445.3759 -377.9598 31156.3195 -91.0242 -33.1692
TCL: Running FEP window   3: Lambda1 0.8999999999999999 Lambda2 0.8499999999999999 [dLambda -0.050000000000000044]
TCL: Setting parameter firsttimestep to 0
TCL: Setting parameter alchLambda to 0.8999999999999999
Info: NONBONDED TABLE R-SQUARED SPACING: 0.0625
Info: NONBONDED TABLE SIZE: 705 POINTS
TCL: Setting parameter alchLambda2 to 0.8499999999999999
Info: NONBONDED TABLE R-SQUARED SPACING: 0.0625
Info: NONBONDED TABLE SIZE: 705 POINTS
TCL: Running for 1500000 steps
ETITLE: TS BOND ANGLE DIHED IMPRP ELECT VDW BOUNDARY MISC KINETIC TOTAL TEMP POTENTIAL TOTALAVG TEMPAVG PRESSURE GPRESSURE VOLUME PRESSAVG GPRESSAVG
ENERGY: 0 3.0532 6.2400 10.5961 0.0000 -10619.5524 1365.8421 0.0000 0.0000 1816.5108 -7417.3102 305.1101 -9233.8210 -7417.3102 305.1101 -478.9475 -395.6249 31156.3195 -478.9475 -395.6249
ENERGY: 300000 4.6629 6.4956 9.9968 0.0000 -10708.7527 1376.8622 0.0000 0.0000 1797.3536 -7513.3816 301.8923 -9310.7352 -7527.3782 302.6885 -481.1489 -365.9680 31235.2557 -177.4517 -111.1679
ENERGY: 600000 4.8974 5.0463 9.6249 0.0000 -10967.4183 1538.9510 0.0000 0.0000 1769.7829 -7639.1158 297.2614 -9408.8987 -7563.5312 299.7636 363.7308 419.4656 30682.4463 79.2681 134.6380
ENERGY: 900000 4.4817 5.0857 7.6742 0.0000 -10881.8945 1506.3999 0.0000 0.0000 1759.7887 -7598.4643 295.5828 -9358.2530 -7550.6852 299.9987 327.0128 409.2789 30345.6309 133.0194 187.1234
ENERGY: 1200000 7.5170 2.6367 11.0666 0.0000 -10779.8326 1433.5429 0.0000 0.0000 1825.7959 -7499.2734 306.6697 -9325.0693 -7542.2846 301.5821 108.6211 186.6230 30644.7846 101.4756 159.1886
ENERGY: 1500000 5.0292 6.2949 10.3077 0.0000 -10710.5249 1484.6520 0.0000 0.0000 1748.7526 -7455.4884 293.7291 -9204.2411 -7532.4016 300.9937 463.1401 520.9398 31106.1716 43.0298 98.3784
TCL: Running FEP window   4: Lambda1 0.8499999999999999 Lambda2 0.7999999999999998 [dLambda -0.050000000000000044]
TCL: Setting parameter firsttimestep to 0
TCL: Setting parameter alchLambda to 0.8499999999999999
Info: NONBONDED TABLE R-SQUARED SPACING: 0.0625
Info: NONBONDED TABLE SIZE: 705 POINTS
TCL: Setting parameter alchLambda2 to 0.7999999999999998
Info: NONBONDED TABLE R-SQUARED SPACING: 0.0625
Info: NONBONDED TABLE SIZE: 705 POINTS
TCL: Running for 1500000 steps
ETITLE: TS BOND ANGLE DIHED IMPRP ELECT VDW BOUNDARY MISC KINETIC TOTAL TEMP POTENTIAL TOTALAVG TEMPAVG PRESSURE GPRESSURE VOLUME PRESSAVG GPRESSAVG
ENERGY: 0 5.0292 6.2949 10.3077 0.0000 -10709.7126 1485.1054 0.0000 0.0000 1747.8520 -7455.1234 293.5778 -9202.9753 -7455.1234 293.5778 435.1758 515.0244 31106.1716 435.1758 515.0244
ENERGY: 300000 4.3752 4.0708 10.3669 0.0000 -10678.6846 1329.1618 0.0000 0.0000 1816.6602 -7514.0497 305.1352 -9330.7099 -7499.1495 300.0287 -1103.3158 -1042.1071 30994.5041 -226.7820 -172.6767
ENERGY: 600000 6.3447 5.6438 9.1439 0.0000 -10746.6938 1372.4048 0.0000 0.0000 1829.7252 -7523.4314 307.3296 -9353.1566 -7520.9777 299.5478 -833.1390 -746.0589 31058.8618 -273.7917 -215.1030
ENERGY: 900000 4.3197 2.6098 8.6958 0.0000 -10896.9784 1528.0003 0.0000 0.0000 1785.6611 -7567.6918 299.9284 -9353.3529 -7529.6844 299.8401 549.2382 641.4792 30639.0545 -252.3117 -191.7051
ENERGY: 1200000 6.1668 4.0552 7.6943 0.0000 -10751.8720 1388.4133 0.0000 0.0000 1765.1256 -7580.4168 296.4792 -9345.5424 -7527.0612 300.6159 -394.5635 -320.7654 30682.3133 -208.6152 -151.7197
ENERGY: 1500000 7.0154 6.1114 11.8079 0.0000 -10738.2233 1339.0479 0.0000 0.0000 1785.1482 -7589.0926 299.8423 -9374.2408 -7530.2678 300.3090 -899.9703 -813.2321 30430.3917 -266.4152 -204.3311
TCL: Running FEP window   5: Lambda1 0.7999999999999998 Lambda2 0.7499999999999998 [dLambda -0.050000000000000044]
TCL: Setting parameter firsttimestep to 0
TCL: Setting parameter alchLambda to 0.7999999999999998
Info: NONBONDED TABLE R-SQUARED SPACING: 0.0625
Info: NONBONDED TABLE SIZE: 705 POINTS
TCL: Setting parameter alchLambda2 to 0.7499999999999998
Info: NONBONDED TABLE R-SQUARED SPACING: 0.0625
Info: NONBONDED TABLE SIZE: 705 POINTS
TCL: Running for 1500000 steps
ETITLE: TS BOND ANGLE DIHED IMPRP ELECT VDW BOUNDARY MISC KINETIC TOTAL TEMP POTENTIAL TOTALAVG TEMPAVG PRESSURE GPRESSURE VOLUME PRESSAVG GPRESSAVG
ENERGY: 0 7.0154 6.1114 11.8079 0.0000 -10737.9236 1339.3256 0.0000 0.0000 1784.2975 -7589.3659 299.6994 -9373.6634 -7589.3659 299.6994 -926.8699 -825.9646 30430.3917 -926.8699 -825.9646
ENERGY: 300000 3.0376 6.3024 8.2096 0.0000 -10756.4104 1436.9860 0.0000 0.0000 1821.2908 -7480.5841 305.9130 -9301.8748 -7549.6570 301.7432 49.7132 136.5815 30780.7022 -400.8996 -350.9474
ENERGY: 600000 3.4705 6.7170 12.0562 0.0000 -11016.4150 1521.4324 0.0000 0.0000 1776.7629 -7695.9760 298.4338 -9472.7389 -7572.1078 301.7427 19.9769 96.3027 30941.8510 -250.6391 -199.6935
ENERGY: 900000 3.4250 4.7187 13.3154 0.0000 -10651.2918 1331.7572 0.0000 0.0000 1786.0281 -7512.0475 299.9901 -9298.0756 -7553.4571 302.1204 -994.8056 -916.9017 31110.1430 -369.5356 -314.1108
ENERGY: 1200000 4.4426 3.3923 12.7363 0.0000 -10829.4081 1452.7119 0.0000 0.0000 1807.2679 -7548.8570 303.5576 -9356.1249 -7550.6673 302.1150 -2.8678 -4.9944 30726.3828 -263.5076 -211.9344
ENERGY: 1500000 6.8084 4.0585 9.6742 0.0000 -10789.5374 1449.0657 0.0000 0.0000 1769.0666 -7550.8640 297.1411 -9319.9306 -7556.1192 300.9645 -7.6743 97.5737 30870.8088 -168.5418 -111.0172
TCL: Running FEP window   6: Lambda1 0.7499999999999998 Lambda2 0.6999999999999997 [dLambda -0.050000000000000044]
TCL: Setting parameter firsttimestep to 0
TCL: Setting parameter alchLambda to 0.7499999999999998
Info: NONBONDED TABLE R-SQUARED SPACING: 0.0625
Info: NONBONDED TABLE SIZE: 705 POINTS
TCL: Setting parameter alchLambda2 to 0.6999999999999997
Info: NONBONDED TABLE R-SQUARED SPACING: 0.0625
Info: NONBONDED TABLE SIZE: 705 POINTS
TCL: Running for 1500000 steps
ETITLE: TS BOND ANGLE DIHED IMPRP ELECT VDW BOUNDARY MISC KINETIC TOTAL TEMP POTENTIAL TOTALAVG TEMPAVG PRESSURE GPRESSURE VOLUME PRESSAVG GPRESSAVG
ENERGY: 0 6.8084 4.0586 9.6742 0.0000 -10789.1073 1450.0181 0.0000 0.0000 1768.1816 -7550.3665 296.9925 -9318.5481 -7550.3665 296.9925 16.9959 96.2271 30870.8088 16.9959 96.2271
ENERGY: 300000 6.6306 4.0976 8.4030 0.0000 -10693.3976 1402.3746 0.0000 0.0000 1820.2017 -7451.6901 305.7300 -9271.8917 -7526.0199 297.2056 -149.8686 -61.5479 30887.8020 37.1749 98.1219
ENERGY: 600000 4.2207 7.8054 9.4337 0.0000 -10937.9269 1497.6346 0.0000 0.0000 1778.5907 -7640.2417 298.7408 -9418.8324 -7547.2701 297.8257 -158.1860 -0.4302 30828.9225 -8.5317 61.5767
ENERGY: 900000 3.5992 6.1557 15.7265 0.0000 -10830.3987 1403.3012 0.0000 0.0000 1791.4066 -7610.2094 300.8935 -9401.6160 -7563.3811 298.3455 -517.2439 -437.5181 30562.7564 69.7507 138.6855
ENERGY: 1200000 4.2491 5.3795 14.9247 0.0000 -10773.0346 1462.7598 0.0000 0.0000 1813.0411 -7472.6804 304.5273 -9285.7215 -7558.6984 298.4852 167.5678 199.4446 30840.8386 52.5096 120.1293
ENERGY: 1500000 2.6434 5.8909 9.2212 0.0000 -10805.0732 1486.0575 0.0000 0.0000 1736.1275 -7565.1327 291.6085 -9301.2603 -7555.7543 298.4683 190.0156 294.2600 30946.6027 36.7493 107.6240
TCL: Running FEP window   7: Lambda1 0.6999999999999997 Lambda2 0.6499999999999997 [dLambda -0.050000000000000044]
TCL: Setting parameter firsttimestep to 0
TCL: Setting parameter alchLambda to 0.6999999999999997
Info: NONBONDED TABLE R-SQUARED SPACING: 0.0625
Info: NONBONDED TABLE SIZE: 705 POINTS
TCL: Setting parameter alchLambda2 to 0.6499999999999997
Info: NONBONDED TABLE R-SQUARED SPACING: 0.0625
Info: NONBONDED TABLE SIZE: 705 POINTS
TCL: Running for 1500000 steps
ETITLE: TS BOND ANGLE DIHED IMPRP ELECT VDW BOUNDARY MISC KINETIC TOTAL TEMP POTENTIAL TOTALAVG TEMPAVG PRESSURE GPRESSURE VOLUME PRESSAVG GPRESSAVG
ENERGY: 0 2.6434 5.8909 9.2212 0.0000 -10804.2862 1486.2622 0.0000 0.0000 1735.2664 -7565.0022 291.4639 -9300.2685 -7565.0022 291.4639 205.2042 286.3109 30946.6027 205.2042 286.3109
ENERGY: 300000 11.5531 7.0420 14.6126 0.0000 -10695.2882 1369.1529 0.0000 0.0000 1744.7547 -7548.1730 293.0576 -9292.9277 -7517.7486 298.6847 -1038.3312 -931.8268 31088.6471 -337.4015 -251.8823
ENERGY: 600000 3.9297 3.4432 8.8174 0.0000 -10779.6033 1444.7046 0.0000 0.0000 1816.0886 -7502.6198 305.0392 -9318.7084 -7506.2684 299.9134 219.0475 245.3181 30180.7690 -208.4081 -133.3283
ENERGY: 900000 4.5545 4.0695 10.3794 0.0000 -10917.7733 1571.2092 0.0000 0.0000 1790.5631 -7536.9977 300.7518 -9327.5608 -7519.4174 299.4275 1050.9236 1101.4753 30603.0447 -98.6043 -35.8125
ENERGY: 1200000 3.2106 6.7420 10.5660 0.0000 -10780.1242 1458.3045 0.0000 0.0000 1812.3409 -7488.9601 304.4097 -9301.3010 -7505.3413 300.0288 70.6340 228.4580 30662.6276 -62.3812 6.1986
ENERGY: 1500000 1.9279 5.0004 10.0308 0.0000 -10728.5750 1477.3078 0.0000 0.0000 1809.3559 -7424.9521 303.9083 -9234.3080 -7509.0058 300.4310 473.7644 507.6383 31046.3914 -45.8432 12.4793
TCL: Running FEP window   8: Lambda1 0.6499999999999997 Lambda2 0.5999999999999996 [dLambda -0.050000000000000044]
TCL: Setting parameter firsttimestep to 0
TCL: Setting parameter alchLambda to 0.6499999999999997
Info: NONBONDED TABLE R-SQUARED SPACING: 0.0625
Info: NONBONDED TABLE SIZE: 705 POINTS
TCL: Setting parameter alchLambda2 to 0.5999999999999996
Info: NONBONDED TABLE R-SQUARED SPACING: 0.0625
Info: NONBONDED TABLE SIZE: 705 POINTS
TCL: Running for 1500000 steps
ETITLE: TS BOND ANGLE DIHED IMPRP ELECT VDW BOUNDARY MISC KINETIC TOTAL TEMP POTENTIAL TOTALAVG TEMPAVG PRESSURE GPRESSURE VOLUME PRESSAVG GPRESSAVG
ENERGY: 0 1.9279 5.0004 10.0308 0.0000 -10728.3131 1477.8363 0.0000 0.0000 1808.4856 -7425.0320 303.7621 -9233.5176 -7425.0320 303.7621 414.9668 497.5592 31046.3914 414.9668 497.5592
ENERGY: 300000 5.1507 8.2521 6.2495 0.0000 -10814.2014 1495.1337 0.0000 0.0000 1807.0525 -7492.3630 303.5214 -9299.4155 -7463.6583 306.7097 407.6474 493.1879 30994.6073 446.5767 505.8039
ENERGY: 600000 4.0213 10.4860 10.8176 0.0000 -10883.9914 1522.9991 0.0000 0.0000 1772.3833 -7563.2842 297.6982 -9335.6675 -7510.4506 299.8912 918.7994 940.3981 30392.0040 78.0902 146.7479
ENERGY: 900000 2.3773 4.8828 8.1400 0.0000 -10864.6546 1453.8989 0.0000 0.0000 1751.7576 -7643.5980 294.2338 -9395.3556 -7522.0663 300.0623 48.0688 149.1557 30244.4053 66.7105 129.9239
ENERGY: 1200000 5.7267 6.2979 11.6166 0.0000 -10846.4349 1522.8532 0.0000 0.0000 1799.0379 -7500.9025 302.1753 -9299.9404 -7523.9003 300.6784 394.0397 478.4692 30909.2446 97.7465 160.0992
ENERGY: 1500000 4.9473 3.1415 10.9737 0.0000 -10920.2032 1509.7856 0.0000 0.0000 1776.4153 -7614.9398 298.3754 -9391.3551 -7530.2720 299.3457 388.3506 469.8470 30304.3288 23.6881 84.4597
TCL: Running FEP window   9: Lambda1 0.5999999999999996 Lambda2 0.5499999999999996 [dLambda -0.050000000000000044]
TCL: Setting parameter firsttimestep to 0
TCL: Setting parameter alchLambda to 0.5999999999999996
Info: NONBONDED TABLE R-SQUARED SPACING: 0.0625
Info: NONBONDED TABLE SIZE: 705 POINTS
TCL: Setting parameter alchLambda2 to 0.5499999999999996
Info: NONBONDED TABLE R-SQUARED SPACING: 0.0625
Info: NONBONDED TABLE SIZE: 705 POINTS
TCL: Running for 1500000 steps
ETITLE: TS BOND ANGLE DIHED IMPRP ELECT VDW BOUNDARY MISC KINETIC TOTAL TEMP POTENTIAL TOTALAVG TEMPAVG PRESSURE GPRESSURE VOLUME PRESSAVG GPRESSAVG
ENERGY: 0 4.9473 3.1415 10.9737 0.0000 -10919.7106 1510.4185 0.0000 0.0000 1775.5019 -7614.7277 298.2220 -9390.2296 -7614.7277 298.2220 380.0428 465.2564 30304.3288 380.0428 465.2564
ENERGY: 300000 0.9813 7.7493 11.4428 0.0000 -10854.0930 1518.5738 0.0000 0.0000 1788.0022 -7527.3436 300.3216 -9315.3458 -7534.0412 297.8504 473.2300 530.9327 30836.0540 243.3493 325.8015
ENERGY: 600000 4.1134 5.8180 9.7298 0.0000 -10717.5227 1339.7349 0.0000 0.0000 1800.2027 -7557.9240 302.3709 -9358.1266 -7552.6830 298.9322 -756.6404 -691.4325 30898.3215 53.3284 129.6506
ENERGY: 900000 3.1597 6.0766 10.6163 0.0000 -10739.5191 1428.4383 0.0000 0.0000 1790.1824 -7501.0458 300.6878 -9291.2282 -7549.0796 299.5064 -205.6789 -160.5574 31073.8917 -78.1471 -6.5760
ENERGY: 1200000 4.3238 6.2077 7.4258 0.0000 -10814.9351 1495.4557 0.0000 0.0000 1772.6131 -7528.9089 297.7368 -9301.5220 -7540.4569 299.1215 750.6323 775.1885 30609.3107 -29.1111 40.5055
ENERGY: 1500000 7.5986 7.1084 13.6718 0.0000 -10711.1302 1444.9022 0.0000 0.0000 1758.8873 -7478.9619 295.4314 -9237.8492 -7524.2600 299.4909 -123.6829 -38.8678 31020.8487 -46.9233 19.6740
TCL: Running FEP window  10: Lambda1 0.5499999999999996 Lambda2 0.4999999999999996 [dLambda -0.04999999999999999]
TCL: Setting parameter firsttimestep to 0
TCL: Setting parameter alchLambda to 0.5499999999999996
Info: NONBONDED TABLE R-SQUARED SPACING: 0.0625
Info: NONBONDED TABLE SIZE: 705 POINTS
TCL: Setting parameter alchLambda2 to 0.4999999999999996
Info: NONBONDED TABLE R-SQUARED SPACING: 0.0625
Info: NONBONDED TABLE SIZE: 705 POINTS
TCL: Running for 1500000 steps
ETITLE: TS BOND ANGLE DIHED IMPRP ELECT VDW BOUNDARY MISC KINETIC TOTAL TEMP POTENTIAL TOTALAVG TEMPAVG PRESSURE GPRESSURE VOLUME PRESSAVG GPRESSAVG
ENERGY: 0 7.5986 7.1084 13.6718 0.0000 -10711.4987 1444.4913 0.0000 0.0000 1758.0397 -7480.5889 295.2890 -9238.6286 -7480.5889 295.2890 -132.0385 -52.6204 31020.8487 -132.0385 -52.6204
ENERGY: 300000 6.4685 4.7508 13.9619 0.0000 -10872.5971 1462.9161 0.0000 0.0000 1804.9822 -7579.5176 303.1737 -9384.4999 -7528.7540 299.1443 -196.6816 -87.8353 30528.9561 141.6061 224.8726
ENERGY: 600000 3.5634 6.9234 11.9153 0.0000 -10786.0583 1477.9369 0.0000 0.0000 1856.4061 -7429.3133 311.8111 -9285.7193 -7512.5957 301.3561 363.4374 409.4748 31038.2280 45.0232 123.6393
ENERGY: 900000 3.5950 6.9166 11.3199 0.0000 -10815.7615 1417.5714 0.0000 0.0000 1843.5777 -7532.7810 309.6564 -9376.3587 -7527.3583 302.3076 -249.1047 -166.6707 30296.8965 48.8918 121.6423
ENERGY: 1200000 7.5537 3.7023 9.5692 0.0000 -10845.1516 1507.1437 0.0000 0.0000 1798.9366 -7518.2461 302.1582 -9317.1827 -7537.1241 301.3102 196.8489 266.4165 30763.9195 -28.1234 42.8950
ENERGY: 1500000 3.5503 5.8060 7.6692 0.0000 -10796.5034 1475.5364 0.0000 0.0000 1784.8039 -7519.1375 299.7844 -9303.9414 -7530.2023 301.5661 146.7725 199.1586 30622.6715 -109.3332 -44.3639
TCL: Running FEP window  11: Lambda1 0.4999999999999996 Lambda2 0.4499999999999996 [dLambda -0.04999999999999999]
TCL: Setting parameter firsttimestep to 0
TCL: Setting parameter alchLambda to 0.4999999999999996
Info: NONBONDED TABLE R-SQUARED SPACING: 0.0625
Info: NONBONDED TABLE SIZE: 705 POINTS
TCL: Setting parameter alchLambda2 to 0.4499999999999996
Info: NONBONDED TABLE R-SQUARED SPACING: 0.0625
Info: NONBONDED TABLE SIZE: 705 POINTS
TCL: Running for 1500000 steps
ETITLE: TS BOND ANGLE DIHED IMPRP ELECT VDW BOUNDARY MISC KINETIC TOTAL TEMP POTENTIAL TOTALAVG TEMPAVG PRESSURE GPRESSURE VOLUME PRESSAVG GPRESSAVG
ENERGY: 0 3.5503 5.8060 7.6692 0.0000 -10796.1117 1475.9885 0.0000 0.0000 1783.9493 -7519.1485 299.6409 -9303.0977 -7519.1485 299.6409 107.8739 194.1466 30622.6715 107.8739 194.1466
ENERGY: 300000 5.3009 5.3829 8.1593 0.0000 -10791.4914 1441.4715 0.0000 0.0000 1760.3242 -7570.8526 295.6727 -9331.1768 -7539.0808 301.8465 -272.0780 -243.1512 31054.2587 -328.7777 -255.8100
ENERGY: 600000 3.5142 4.6620 11.8294 0.0000 -10837.7539 1523.9157 0.0000 0.0000 1780.8898 -7512.9427 299.1270 -9293.8326 -7535.6353 298.9426 476.9402 569.4042 30999.0669 -74.2386 -11.1490
ENERGY: 900000 7.3683 5.4220 11.0827 0.0000 -10751.5152 1386.7994 0.0000 0.0000 1727.3129 -7613.5299 290.1280 -9340.8428 -7545.4419 298.4251 -909.8386 -869.1803 31020.5592 23.9442 86.2362
ENERGY: 1200000 4.6362 4.3015 10.5494 0.0000 -10764.8076 1434.4023 0.0000 0.0000 1768.5446 -7542.3737 297.0534 -9310.9183 -7534.3517 299.1083 -153.7902 -106.7189 30852.9207 -66.3230 -3.3207
ENERGY: 1500000 3.6979 8.4326 10.4200 0.0000 -10834.1949 1529.5760 0.0000 0.0000 1775.7824 -7506.2860 298.2691 -9282.0684 -7533.4688 300.0788 606.6214 700.3260 30879.6507 -34.0090 31.3625
TCL: Running FEP window  12: Lambda1 0.4499999999999996 Lambda2 0.39999999999999963 [dLambda -0.04999999999999999]
TCL: Setting parameter firsttimestep to 0
TCL: Setting parameter alchLambda to 0.4499999999999996
Info: NONBONDED TABLE R-SQUARED SPACING: 0.0625
Info: NONBONDED TABLE SIZE: 705 POINTS
TCL: Setting parameter alchLambda2 to 0.39999999999999963
Info: NONBONDED TABLE R-SQUARED SPACING: 0.0625
Info: NONBONDED TABLE SIZE: 705 POINTS
TCL: Running for 1500000 steps
ETITLE: TS BOND ANGLE DIHED IMPRP ELECT VDW BOUNDARY MISC KINETIC TOTAL TEMP POTENTIAL TOTALAVG TEMPAVG PRESSURE GPRESSURE VOLUME PRESSAVG GPRESSAVG
ENERGY: 0 3.6979 8.4326 10.4200 0.0000 -10834.1969 1530.3638 0.0000 0.0000 1774.9054 -7506.3772 298.1218 -9281.2826 -7506.3772 298.1218 604.0933 699.5436 30879.6507 604.0933 699.5436
ENERGY: 300000 4.9963 9.1354 12.3262 0.0000 -10808.7739 1487.2379 0.0000 0.0000 1729.8696 -7565.2085 290.5574 -9295.0782 -7543.1794 297.2174 -39.8856 77.8573 30930.4549 13.3895 80.9650
ENERGY: 600000 5.7392 5.1817 12.4180 0.0000 -10764.2905 1451.8103 0.0000 0.0000 1768.5677 -7520.5736 297.0573 -9289.1414 -7539.8057 297.5612 52.9360 134.1380 30469.0665 -199.3775 -132.5770
ENERGY: 900000 4.2596 4.2953 8.9343 0.0000 -10566.6871 1404.7382 0.0000 0.0000 1775.9047 -7368.5549 298.2897 -9144.4597 -7516.0949 297.9506 263.4815 317.1002 30562.7803 -118.0682 -56.1443
ENERGY: 1200000 5.3250 4.2172 11.3984 0.0000 -10774.0048 1418.1937 0.0000 0.0000 1755.3102 -7579.5603 294.8305 -9334.8705 -7525.2335 297.4484 -437.1294 -382.7752 30627.8825 -132.3289 -74.1968
ENERGY: 1500000 4.9520 2.9618 11.4048 0.0000 -10916.1471 1484.5224 0.0000 0.0000 1752.8866 -7659.4195 294.4234 -9412.3061 -7542.1432 297.0374 -13.6768 7.2368 30576.3783 -88.2761 -39.6872
TCL: Running FEP window  13: Lambda1 0.39999999999999963 Lambda2 0.34999999999999964 [dLambda -0.04999999999999999]
TCL: Setting parameter firsttimestep to 0
TCL: Setting parameter alchLambda to 0.39999999999999963
Info: NONBONDED TABLE R-SQUARED SPACING: 0.0625
Info: NONBONDED TABLE SIZE: 705 POINTS
TCL: Setting parameter alchLambda2 to 0.34999999999999964
Info: NONBONDED TABLE R-SQUARED SPACING: 0.0625
Info: NONBONDED TABLE SIZE: 705 POINTS
TCL: Running for 1500000 steps
ETITLE: TS BOND ANGLE DIHED IMPRP ELECT VDW BOUNDARY MISC KINETIC TOTAL TEMP POTENTIAL TOTALAVG TEMPAVG PRESSURE GPRESSURE VOLUME PRESSAVG GPRESSAVG
ENERGY: 0 4.9520 2.9618 11.4048 0.0000 -10916.1462 1484.9491 0.0000 0.0000 1751.9785 -7659.9000 294.2709 -9411.8785 -7659.9000 294.2709 -87.8321 0.1339 30576.3783 -87.8321 0.1339
ENERGY: 300000 8.6424 7.8134 12.6706 0.0000 -10748.7510 1454.5740 0.0000 0.0000 1825.7132 -7439.3375 306.6558 -9265.0507 -7563.0378 300.1044 -75.8176 16.9985 30882.6587 -178.0886 -88.0905
ENERGY: 600000 6.2793 6.4227 8.8630 0.0000 -10844.7897 1494.8786 0.0000 0.0000 1773.0700 -7555.2762 297.8136 -9328.3462 -7539.5125 300.9199 -45.2320 13.4459 31246.9309 -228.1221 -149.7377
ENERGY: 900000 2.9184 2.5810 10.3712 0.0000 -10782.4157 1475.4525 0.0000 0.0000 1792.2470 -7498.8455 301.0346 -9291.0926 -7537.9941 299.6511 344.9619 469.5601 30341.7669 -111.8429 -30.9383
ENERGY: 1200000 3.3834 4.9950 12.2879 0.0000 -10800.8203 1410.5213 0.0000 0.0000 1807.1188 -7562.5139 303.5326 -9369.6327 -7543.8205 299.9979 -514.1451 -402.7677 30777.8058 -145.9661 -79.2159
ENERGY: 1500000 6.6609 6.6816 12.6433 0.0000 -10710.4992 1378.3241 0.0000 0.0000 1817.1362 -7489.0531 305.2151 -9306.1893 -7534.7827 300.2889 -715.9088 -668.1570 30912.0274 -194.9012 -137.3354
TCL: Running FEP window  14: Lambda1 0.34999999999999964 Lambda2 0.29999999999999966 [dLambda -0.04999999999999999]
TCL: Setting parameter firsttimestep to 0
TCL: Setting parameter alchLambda to 0.34999999999999964
Info: NONBONDED TABLE R-SQUARED SPACING: 0.0625
Info: NONBONDED TABLE SIZE: 705 POINTS
TCL: Setting parameter alchLambda2 to 0.29999999999999966
Info: NONBONDED TABLE R-SQUARED SPACING: 0.0625
Info: NONBONDED TABLE SIZE: 705 POINTS
TCL: Running for 1500000 steps
ETITLE: TS BOND ANGLE DIHED IMPRP ELECT VDW BOUNDARY MISC KINETIC TOTAL TEMP POTENTIAL TOTALAVG TEMPAVG PRESSURE GPRESSURE VOLUME PRESSAVG GPRESSAVG
ENERGY: 0 6.6609 6.6815 12.6433 0.0000 -10710.4997 1379.0468 0.0000 0.0000 1816.2420 -7489.2251 305.0649 -9305.4671 -7489.2251 305.0649 -751.2014 -671.2012 30912.0274 -751.2014 -671.2012
ENERGY: 300000 3.3847 9.0895 9.5263 0.0000 -10770.8731 1419.6353 0.0000 0.0000 1776.5782 -7552.6591 298.4028 -9329.2373 -7526.8250 299.8373 -433.1523 -302.4934 30926.7915 -436.5724 -373.4998
ENERGY: 600000 6.1717 6.8850 9.6464 0.0000 -10854.3707 1452.7540 0.0000 0.0000 1778.1889 -7600.7248 298.6733 -9378.9136 -7536.4381 300.4838 -288.2681 -218.1901 30677.3626 -318.1606 -252.1969
ENERGY: 900000 3.9721 3.8099 12.5282 0.0000 -10682.9439 1433.4605 0.0000 0.0000 1805.1712 -7424.0021 303.2054 -9229.1733 -7529.4722 300.3636 121.5988 152.6189 30641.9772 -241.2726 -184.4341
ENERGY: 1200000 6.8174 5.6318 9.7024 0.0000 -10746.6579 1468.6680 0.0000 0.0000 1793.9142 -7461.9241 301.3147 -9255.8383 -7530.6055 300.7078 331.5830 358.3389 30530.7933 -76.4911 -20.0323
ENERGY: 1500000 3.9467 4.2877 11.5997 0.0000 -10934.6860 1470.2977 0.0000 0.0000 1850.6029 -7593.9513 310.8364 -9444.5542 -7528.7092 301.3301 62.6167 114.3904 30362.6537 -99.1223 -40.3176
TCL: Running FEP window  15: Lambda1 0.29999999999999966 Lambda2 0.24999999999999967 [dLambda -0.04999999999999999]
TCL: Setting parameter firsttimestep to 0
TCL: Setting parameter alchLambda to 0.29999999999999966
Info: NONBONDED TABLE R-SQUARED SPACING: 0.0625
Info: NONBONDED TABLE SIZE: 705 POINTS
TCL: Setting parameter alchLambda2 to 0.24999999999999967
Info: NONBONDED TABLE R-SQUARED SPACING: 0.0625
Info: NONBONDED TABLE SIZE: 705 POINTS
TCL: Running for 1500000 steps
ETITLE: TS BOND ANGLE DIHED IMPRP ELECT VDW BOUNDARY MISC KINETIC TOTAL TEMP POTENTIAL TOTALAVG TEMPAVG PRESSURE GPRESSURE VOLUME PRESSAVG GPRESSAVG
ENERGY: 0 3.9467 4.2877 11.5997 0.0000 -10934.6856 1469.6049 0.0000 0.0000 1849.7446 -7595.5021 310.6922 -9445.2467 -7595.5021 310.6922 12.9999 101.3343 30362.6537 12.9999 101.3343
ENERGY: 300000 5.2445 3.1322 13.7285 0.0000 -10915.6800 1498.8351 0.0000 0.0000 1784.6599 -7610.0798 299.7603 -9394.7397 -7565.3015 304.3767 201.1903 276.7771 30390.4734 23.5263 111.8179
ENERGY: 600000 5.8477 4.2193 14.2247 0.0000 -10837.1569 1457.2849 0.0000 0.0000 1827.7500 -7527.8303 306.9979 -9355.5803 -7557.2669 304.2340 56.5959 93.2758 30451.0908 145.9168 221.5658
ENERGY: 900000 7.4577 2.9279 8.9736 0.0000 -10965.4423 1625.1474 0.0000 0.0000 1811.0558 -7509.8799 304.1938 -9320.9357 -7547.9022 303.2949 1432.1632 1450.1866 30410.7571 316.0904 376.6938
ENERGY: 1200000 8.2379 5.2596 12.8562 0.0000 -10782.8806 1416.5389 0.0000 0.0000 1819.6790 -7520.3090 305.6422 -9339.9880 -7544.0591 303.3891 -448.8484 -399.9517 30950.1753 285.1131 335.5709
ENERGY: 1500000 5.1801 7.4995 11.8391 0.0000 -10876.0142 1509.6619 0.0000 0.0000 1760.6471 -7581.1865 295.7269 -9341.8336 -7548.5061 302.1773 603.9106 659.6222 30286.7936 217.4567 267.1762
TCL: Running FEP window  16: Lambda1 0.24999999999999967 Lambda2 0.19999999999999968 [dLambda -0.04999999999999999]
TCL: Setting parameter firsttimestep to 0
TCL: Setting parameter alchLambda to 0.24999999999999967
Info: NONBONDED TABLE R-SQUARED SPACING: 0.0625
Info: NONBONDED TABLE SIZE: 705 POINTS
TCL: Setting parameter alchLambda2 to 0.19999999999999968
Info: NONBONDED TABLE R-SQUARED SPACING: 0.0625
Info: NONBONDED TABLE SIZE: 705 POINTS
TCL: Running for 1500000 steps
ETITLE: TS BOND ANGLE DIHED IMPRP ELECT VDW BOUNDARY MISC KINETIC TOTAL TEMP POTENTIAL TOTALAVG TEMPAVG PRESSURE GPRESSURE VOLUME PRESSAVG GPRESSAVG
ENERGY: 0 5.1801 7.4995 11.8391 0.0000 -10876.0148 1510.4920 0.0000 0.0000 1759.7366 -7581.2674 295.5740 -9341.0040 -7581.2674 295.5740 571.4673 663.1761 30286.7936 571.4673 663.1761
ENERGY: 300000 2.3625 2.6110 17.8150 0.0000 -10826.9143 1479.6826 0.0000 0.0000 1789.0962 -7535.3470 300.5054 -9324.4433 -7543.0674 298.1641 271.2131 358.7228 30588.5493 438.1898 496.4278
ENERGY: 600000 9.0315 6.9694 9.6949 0.0000 -10713.9587 1342.5163 0.0000 0.0000 1788.0579 -7557.6886 300.3310 -9345.7466 -7539.5412 298.0238 -689.0265 -706.9200 30385.0144 347.6445 395.2475
ENERGY: 900000 6.5300 5.5769 13.3979 0.0000 -10757.9312 1406.5895 0.0000 0.0000 1759.2754 -7566.5614 295.4965 -9325.8368 -7531.2688 298.0252 -717.1564 -602.1672 30755.3564 136.2348 189.1238
ENERGY: 1200000 3.3342 6.2203 11.5704 0.0000 -10621.2672 1366.9134 0.0000 0.0000 1877.5705 -7355.6584 315.3660 -9233.2289 -7520.3118 299.4224 -713.7122 -648.4822 31221.3133 34.8581 97.2592
ENERGY: 1500000 3.0018 4.3506 12.1854 0.0000 -10791.0571 1504.3916 0.0000 0.0000 1777.0372 -7490.0905 298.4799 -9267.1277 -7516.5420 299.2651 366.8776 422.9432 31046.8729 92.7838 158.7730
TCL: Running FEP window  17: Lambda1 0.19999999999999968 Lambda2 0.1499999999999997 [dLambda -0.04999999999999999]
TCL: Setting parameter firsttimestep to 0
TCL: Setting parameter alchLambda to 0.19999999999999968
Info: NONBONDED TABLE R-SQUARED SPACING: 0.0625
Info: NONBONDED TABLE SIZE: 705 POINTS
TCL: Setting parameter alchLambda2 to 0.1499999999999997
Info: NONBONDED TABLE R-SQUARED SPACING: 0.0625
Info: NONBONDED TABLE SIZE: 705 POINTS
TCL: Running for 1500000 steps
ETITLE: TS BOND ANGLE DIHED IMPRP ELECT VDW BOUNDARY MISC KINETIC TOTAL TEMP POTENTIAL TOTALAVG TEMPAVG PRESSURE GPRESSURE VOLUME PRESSAVG GPRESSAVG
ENERGY: 0 3.0018 4.3506 12.1854 0.0000 -10791.0576 1504.5410 0.0000 0.0000 1776.1547 -7490.8241 298.3317 -9266.9788 -7490.8241 298.3317 331.6002 416.6087 31046.8729 331.6002 416.6087
ENERGY: 300000 7.2519 7.1907 8.9175 0.0000 -10837.3296 1451.7469 0.0000 0.0000 1791.5233 -7570.6993 300.9131 -9362.2226 -7514.1469 302.1007 -33.9781 -13.6640 30399.5340 81.9738 152.8065
ENERGY: 600000 6.3682 4.1249 9.2036 0.0000 -10847.3110 1493.6852 0.0000 0.0000 1838.6287 -7495.3004 308.8251 -9333.9291 -7513.9891 302.1450 168.9825 152.1425 30781.4231 43.9593 98.9979
ENERGY: 900000 3.7591 4.5964 11.7186 0.0000 -10727.1291 1398.1922 0.0000 0.0000 1771.7444 -7537.1184 297.5909 -9308.8628 -7523.8296 299.9221 -257.3389 -208.7258 30559.6897 -138.1442 -80.9935
ENERGY: 1200000 5.8636 7.1790 8.7269 0.0000 -10467.1773 1275.9364 0.0000 0.0000 1817.3772 -7352.0943 305.2556 -9169.4715 -7504.8556 300.9374 -1141.7540 -1026.0053 31083.4210 -205.9253 -144.2214
ENERGY: 1500000 8.0000 4.3051 10.1727 0.0000 -10742.0138 1375.5570 0.0000 0.0000 1745.4288 -7598.5502 293.1708 -9343.9790 -7518.4447 300.3754 -669.7545 -573.0362 30447.5873 -246.7198 -184.3062
TCL: Running FEP window  18: Lambda1 0.1499999999999997 Lambda2 0.09999999999999969 [dLambda -0.05 ]
TCL: Setting parameter firsttimestep to 0
TCL: Setting parameter alchLambda to 0.1499999999999997
Info: NONBONDED TABLE R-SQUARED SPACING: 0.0625
Info: NONBONDED TABLE SIZE: 705 POINTS
TCL: Setting parameter alchLambda2 to 0.09999999999999969
Info: NONBONDED TABLE R-SQUARED SPACING: 0.0625
Info: NONBONDED TABLE SIZE: 705 POINTS
TCL: Running for 1500000 steps
ETITLE: TS BOND ANGLE DIHED IMPRP ELECT VDW BOUNDARY MISC KINETIC TOTAL TEMP POTENTIAL TOTALAVG TEMPAVG PRESSURE GPRESSURE VOLUME PRESSAVG GPRESSAVG
ENERGY: 0 8.0000 4.3051 10.1727 0.0000 -10742.0133 1375.0317 0.0000 0.0000 1744.5199 -7599.9839 293.0181 -9344.5038 -7599.9839 293.0181 -668.9126 -578.9900 30447.5873 -668.9126 -578.9900
ENERGY: 300000 7.1488 4.8461 12.2490 0.0000 -10650.7771 1352.6932 0.0000 0.0000 1839.2735 -7434.5665 308.9334 -9273.8400 -7530.9696 300.6430 -814.4836 -764.9196 30639.2412 -324.1589 -256.0282
ENERGY: 600000 6.5444 6.1584 7.1706 0.0000 -10779.2116 1424.2563 0.0000 0.0000 1818.3089 -7516.7731 305.4121 -9335.0820 -7526.8003 300.8514 -407.7378 -321.4329 30647.6310 -274.9686 -208.6327
ENERGY: 900000 8.8302 5.8798 9.3403 0.0000 -10755.2948 1452.5581 0.0000 0.0000 1808.4595 -7470.2270 303.7577 -9278.6865 -7525.0835 301.7969 88.5185 98.4932 30560.9521 -247.0713 -194.3810
ENERGY: 1200000 3.1015 10.1822 6.1622 0.0000 -10686.3443 1398.5270 0.0000 0.0000 1773.6773 -7494.6940 297.9156 -9268.3713 -7524.0271 300.4277 -559.1850 -522.2309 31172.0566 -296.1898 -239.5460
ENERGY: 1500000 3.4527 7.5147 11.0052 0.0000 -10882.6572 1509.3934 0.0000 0.0000 1798.8531 -7552.4382 302.1442 -9351.2913 -7518.9933 300.8082 169.4314 207.8292 30584.1502 -253.4224 -193.0499
TCL: Running FEP window  19: Lambda1 0.09999999999999969 Lambda2 0.049999999999999684 [dLambda -0.05 ]
TCL: Setting parameter firsttimestep to 0
TCL: Setting parameter alchLambda to 0.09999999999999969
Info: NONBONDED TABLE R-SQUARED SPACING: 0.0625
Info: NONBONDED TABLE SIZE: 705 POINTS
TCL: Setting parameter alchLambda2 to 0.049999999999999684
Info: NONBONDED TABLE R-SQUARED SPACING: 0.0625
Info: NONBONDED TABLE SIZE: 705 POINTS
TCL: Running for 1500000 steps
ETITLE: TS BOND ANGLE DIHED IMPRP ELECT VDW BOUNDARY MISC KINETIC TOTAL TEMP POTENTIAL TOTALAVG TEMPAVG PRESSURE GPRESSURE VOLUME PRESSAVG GPRESSAVG
ENERGY: 0 3.4527 7.5147 11.0052 0.0000 -10882.6580 1507.4244 0.0000 0.0000 1797.9991 -7555.2620 302.0008 -9353.2611 -7555.2620 302.0008 106.2079 196.2471 30584.1502 106.2079 196.2471
ENERGY: 300000 5.9696 8.0651 12.2840 0.0000 -10653.9648 1418.3887 0.0000 0.0000 1745.0163 -7464.2412 293.1015 -9209.2575 -7522.0969 300.9942 -243.3182 -134.8044 30899.3314 -108.1304 -3.4423
ENERGY: 600000 7.8044 3.5467 11.6235 0.0000 -10729.0460 1359.8647 0.0000 0.0000 1789.6832 -7556.5236 300.6040 -9346.2068 -7542.0578 299.8991 -1071.0307 -1011.5437 30595.0501 -237.2147 -149.7779
ENERGY: 900000 5.2642 7.2996 10.9710 0.0000 -10925.2617 1533.2887 0.0000 0.0000 1807.8227 -7560.6155 303.6508 -9368.4382 -7542.1834 299.9704 210.2864 224.5144 30528.0588 -73.5769 6.2684
ENERGY: 1200000 5.8481 9.9237 10.7460 0.0000 -10739.1748 1404.5907 0.0000 0.0000 1757.4285 -7550.6378 295.1863 -9308.0663 -7543.3869 300.0120 -473.4066 -394.0509 31011.8668 -129.5099 -53.0629
ENERGY: 1500000 8.7292 7.9954 10.0734 0.0000 -10825.3407 1501.1380 0.0000 0.0000 1889.8572 -7407.5474 317.4297 -9297.4047 -7524.5585 301.3613 583.0917 658.1527 30355.9736 -120.7716 -42.9590
TCL: Running FEP window  20: Lambda1 0.049999999999999684 Lambda2 0.0    [dLambda -0.049999999999999684]
TCL: Setting parameter firsttimestep to 0
TCL: Setting parameter alchLambda to 0.049999999999999684
Info: NONBONDED TABLE R-SQUARED SPACING: 0.0625
Info: NONBONDED TABLE SIZE: 705 POINTS
TCL: Setting parameter alchLambda2 to 0.0
Info: NONBONDED TABLE R-SQUARED SPACING: 0.0625
Info: NONBONDED TABLE SIZE: 705 POINTS
TCL: Running for 1500000 steps
ETITLE: TS BOND ANGLE DIHED IMPRP ELECT VDW BOUNDARY MISC KINETIC TOTAL TEMP POTENTIAL TOTALAVG TEMPAVG PRESSURE GPRESSURE VOLUME PRESSAVG GPRESSAVG
ENERGY: 0 8.7292 7.9954 10.0734 0.0000 -10825.3397 1500.3653 0.0000 0.0000 1888.9849 -7409.1914 317.2832 -9298.1763 -7409.1914 317.2832 563.1781 649.3303 30355.9736 563.1781 649.3303
ENERGY: 300000 4.5925 8.9525 10.6286 0.0000 -10809.5250 1458.3783 0.0000 0.0000 1811.5344 -7515.4388 304.2742 -9326.9732 -7507.8459 306.0285 56.5204 103.6931 30123.8642 19.4607 90.5792
ENERGY: 600000 6.8442 7.1461 9.9299 0.0000 -10874.0100 1510.5748 0.0000 0.0000 1772.1466 -7567.3684 297.6585 -9339.5150 -7515.6999 303.4802 232.9056 301.9104 30331.8146 -136.5462 -70.7625
ENERGY: 900000 6.2148 4.7392 10.2842 0.0000 -10768.3213 1479.6215 0.0000 0.0000 1728.2318 -7539.2297 290.2823 -9267.4616 -7527.9775 300.7572 303.2123 327.5422 30263.4170 -120.7704 -58.3559
ENERGY: 1200000 5.1641 4.2523 10.2566 0.0000 -10790.0243 1483.2805 0.0000 0.0000 1818.0602 -7469.0107 305.3703 -9287.0709 -7528.9017 299.5676 530.2992 587.7799 30566.8992 -161.9684 -102.0598
ENERGY: 1500000 7.1806 5.8423 10.8563 0.0000 -10863.9488 1490.8299 0.0000 0.0000 1805.2659 -7543.9738 303.2213 -9349.2397 -7523.2820 300.2385 -180.0237 -96.4159 30828.2244 -77.2435 -14.0883
TCL: Exiting due to exit command.
