Info: SIMULATION PARAMETERS:
Info: TIMESTEP               2
Info: NUMBER OF STEPS        0
Info: STEPS PER CYCLE        10
Info: PERIODIC CELL BASIS 1  32.0941 0 0
Info: PERIODIC CELL BASIS 2  0 31.3245 0
Info: PERIODIC CELL BASIS 3  0 0 30.9202
Info: PERIODIC CELL CENTER   0 0 0
Info: WRAPPING WATERS AROUND PERIODIC BOUNDARIES ON OUTPUT.
Info: WRAPPING ALL CLUSTERS AROUND PERIODIC BOUNDARIES ON OUTPUT.
Info: FIRST LDB TIMESTEP     50
Info: LAST LDB TIMESTEP     -1
Info: HOM BACKGROUND SCALING 1
Info: PME BACKGROUND SCALING 1
Info: MIN ATOMS PER PATCH    40
Info: EMPTY PATCH LOAD       40 ATOMS
Info: VELOCITY FILE          mobley_8573194_equil.vel
Info: CENTER OF MASS MOVING INITIALLY? NO
Info: DIELECTRIC             1
Info: EXCLUDE                SCALED ONE-FOUR
Info: 1-4 ELECTROSTATICS SCALED BY 0.833333
Info: MODIFIED 1-4 VDW PARAMETERS WILL BE USED
Info: DCD FILENAME           mobley_8573194_prod.dcd
Info: DCD FREQUENCY          100000
Info: DCD FIRST STEP         100000
Info: DCD FILE WILL CONTAIN UNIT CELL DATA
Info: XST FILENAME           mobley_8573194_prod.xst
Info: XST FREQUENCY          100000
Info: NO VELOCITY DCD OUTPUT
Info: NO FORCE DCD OUTPUT
Info: OUTPUT FILENAME        mobley_8573194_prod
Info: BINARY OUTPUT FILES WILL BE USED
Info: RESTART FILENAME       mobley_8573194_prod.restart
Info: RESTART FREQUENCY      100000
Info: BINARY RESTART FILES WILL BE USED
Info: CUTOFF                 9
Info: PAIRLIST DISTANCE      11
Info: PAIRLIST SHRINK RATE   0.01
Info: PAIRLIST GROW RATE     0.01
Info: PAIRLIST TRIGGER       0.3
Info: PAIRLISTS PER CYCLE    2
Info: PAIRLISTS ENABLED
Info: MARGIN                 2
Info: HYDROGEN GROUP CUTOFF  2.5
Info: PATCH DIMENSION        15.5
Info: ENERGY OUTPUT STEPS    100000
Info: ENERGY EVALUATION STEPS    100000
Info: OUTPUT ENERGY PRECISION 4
Info: CROSSTERM ENERGY INCLUDED IN DIHEDRAL
Info: TIMING OUTPUT STEPS    1000000
Info: PRESSURE OUTPUT STEPS  100000
Info: ALCHEMICAL FEP ON
Info: FEP CURRENT LAMBDA VALUE     0
Info: FEP COMPARISON LAMBDA VALUE  0.05
Info: FEP INTRA-ALCHEMICAL NON-BONDED INTERACTIONS WILL BE RETAINED
Info: FEP INTRA-ALCHEMICAL BONDED INTERACTIONS WILL BE RETAINED
Info: FEP VDW SHIFTING COEFFICIENT 5
Info: FEP ELEC. ACTIVE FOR ANNIHILATED PARTICLES BETWEEN LAMBDA = 0 AND LAMBDA = 0.5
Info: FEP ELEC. ACTIVE FOR EXNIHILATED PARTICLES BETWEEN LAMBDA = 0.5 AND LAMBDA = 1
Info: FEP VDW ACTIVE FOR ANNIHILATED PARTICLES BETWEEN LAMBDA = 0 AND LAMBDA = 1
Info: FEP VDW ACTIVE FOR EXNIHILATED PARTICLES BETWEEN LAMBDA = 0 AND LAMBDA = 1
Info: FEP BOND ACTIVE FOR ANNIHILATED PARTICLES BETWEEN LAMBDA = 1 AND LAMBDA = 1
Info: FEP BOND ACTIVE FOR EXNIHILATED PARTICLES BETWEEN LAMBDA = 0 AND LAMBDA = 0
Info: LANGEVIN DYNAMICS ACTIVE
Info: LANGEVIN TEMPERATURE   300
Info: LANGEVIN USING BBK INTEGRATOR
Info: LANGEVIN DAMPING COEFFICIENT IS 1 INVERSE PS
Info: LANGEVIN DYNAMICS APPLIED TO HYDROGENS
Info: LANGEVIN PISTON PRESSURE CONTROL ACTIVE
Info:        TARGET PRESSURE IS 1.01325 BAR
Info:     OSCILLATION PERIOD IS 50 FS
Info:             DECAY TIME IS 25 FS
Info:     PISTON TEMPERATURE IS 300 K
Info:       PRESSURE CONTROL IS GROUP-BASED
Info:    INITIAL STRAIN RATE IS 0.000390765 0.000390765 0.000390765
Info:       CELL FLUCTUATION IS ISOTROPIC
Info: PARTICLE MESH EWALD (PME) ACTIVE
Info: PME TOLERANCE               1e-06
Info: PME EWALD COEFFICIENT       0.348832
Info: PME INTERPOLATION ORDER     4
Info: PME GRID DIMENSIONS         36 32 32
Info: PME MAXIMUM GRID SPACING    1
Info: PME CALCULATION WILL BE PERFORMED ON GPU
Info: FULL ELECTROSTATIC EVALUATION FREQUENCY      2
Info: USING VERLET I (r-RESPA) MTS SCHEME.
Info: C1 SPLITTING OF LONG RANGE ELECTROSTATICS
Info: PLACING ATOMS IN PATCHES BY HYDROGEN GROUPS
Info: RIGID BONDS TO HYDROGEN : ALL
Info:         ERROR TOLERANCE : 1e-08
Info:          MAX ITERATIONS : 100
Info: RIGID WATER USING SETTLE ALGORITHM
Info: RANDOM NUMBER SEED     1743829534
Info: USE HYDROGEN BONDS?    NO
Info: Using AMBER format force field!
Info: AMBER PARM FILE        mobley_8573194.prmtop
Info: COORDINATE PDB         mobley_8573194.pdb
Info: Exclusions will be read from PARM file!
Info: SCNB (VDW SCALING)     2
Info: USING ARITHMETIC MEAN TO COMBINE L-J SIGMA PARAMETERS
Info: BINARY COORDINATES     mobley_8573194_equil.coor
Info: SUMMARY OF PARAMETERS:
Info: 7 BONDS
Info: 8 ANGLES
Info:   8 HARMONIC
Info:   0 COSINE-BASED
Info: 8 DIHEDRAL
Info: 0 IMPROPER
Info: 0 CROSSTERM
Info: 0 VDW
Info: 28 VDW_PAIRS
Info: 0 NBTHOLE_PAIRS
Info: To read alchdata from file: mobley_8573194.pdb
Info: To read alchflag data from column: 5
Info: STRUCTURE SUMMARY:
Info: 2965 ATOMS
Info: 2964 BONDS
Info: 21 ANGLES
Info: 29 DIHEDRALS
Info: 0 IMPROPERS
Info: 0 CROSSTERMS
Info: 3009 EXCLUSIONS
Info: 2960 RIGID BONDS
Info: ALCH: 0 ATOMS TO DISAPPEAR IN FINAL STATE
Info: ALCH: 13 ATOMS TO APPEAR IN FINAL STATE
Info: 5935 DEGREES OF FREEDOM
Info: 989 HYDROGEN GROUPS
Info: 4 ATOMS IN LARGEST HYDROGEN GROUP
Info: 989 MIGRATION GROUPS
Info: 4 ATOMS IN LARGEST MIGRATION GROUP
Info: TOTAL MASS = 17799.8 amu
Info: TOTAL CHARGE = 9.99738e-05 e
Info: MASS DENSITY = 0.950877 g/cm^3
Info: ATOM DENSITY = 0.0953835 atoms/A^3
Info: ADDED 0 IMPLICIT EXCLUSIONS
Info: NONBONDED TABLE R-SQUARED SPACING: 0.0625
Info: NONBONDED TABLE SIZE: 705 POINTS
Info: REDUCING NUMBER OF PATCHES TO IMPROVE LOAD BALANCE
Info: REMOVING COM VELOCITY 0.0761918 0.110077 -0.124341
Info: Use 3D box decompostion in PME FFT.
Info: Updated CUDA force table with 4096 elements.
Info: Updated CUDA LJ table with 7 x 7 elements.
Info: Found 16 unique exclusion lists needing 32 bytes
TCL: Running for 1500000 steps
ETITLE: TS BOND ANGLE DIHED IMPRP ELECT VDW BOUNDARY MISC KINETIC TOTAL TEMP POTENTIAL TOTALAVG TEMPAVG PRESSURE GPRESSURE VOLUME PRESSAVG GPRESSAVG
ENERGY: 0 1.6784 4.9781 2.3313 0.0000 -10632.9389 1394.6495 0.0000 0.0000 1778.7590 -7450.5427 301.6385 -9229.3017 -7450.5427 301.6385 -708.5597 -623.0638 31085.0290 -708.5597 -623.0638
ENERGY: 300000 0.7172 7.2540 2.5086 0.0000 -10728.5322 1391.3912 0.0000 0.0000 1770.1308 -7556.5303 300.1753 -9326.6611 -7531.7064 301.2330 -686.0475 -694.4969 30642.0553 -299.8205 -244.1522
ENERGY: 600000 0.2053 6.5966 1.9588 0.0000 -10782.9034 1469.4335 0.0000 0.0000 1722.5995 -7582.1098 292.1151 -9304.7094 -7561.3403 298.7465 223.2248 255.0806 30079.6125 -42.3834 10.0894
ENERGY: 900000 1.0533 5.1267 2.1716 0.0000 -10657.5856 1414.5618 0.0000 0.0000 1758.7233 -7475.9490 298.2409 -9234.6723 -7537.9842 300.0898 -204.6526 -101.6177 30327.6385 -45.7460 22.2121
ENERGY: 1200000 0.5940 5.4730 2.7262 0.0000 -10607.3939 1336.9246 0.0000 0.0000 1745.9560 -7515.7200 296.0758 -9261.6760 -7523.2603 300.1690 -808.3328 -776.6105 30691.0506 -91.8384 -31.8585
ENERGY: 1500000 0.3032 5.2968 1.6771 0.0000 -10876.7053 1466.1503 0.0000 0.0000 1769.7538 -7633.5240 300.1114 -9403.2779 -7527.8114 300.0526 -190.3994 -41.0913 30246.8794 -101.4338 -32.5913
TCL: Running FEP window   2: Lambda1 0.05   Lambda2 0.1    [dLambda 0.05  ]
TCL: Setting parameter firsttimestep to 0
TCL: Setting parameter alchLambda to 0.05
Info: NONBONDED TABLE R-SQUARED SPACING: 0.0625
Info: NONBONDED TABLE SIZE: 705 POINTS
TCL: Setting parameter alchLambda2 to 0.1
Info: NONBONDED TABLE R-SQUARED SPACING: 0.0625
Info: NONBONDED TABLE SIZE: 705 POINTS
TCL: Running for 1500000 steps
ETITLE: TS BOND ANGLE DIHED IMPRP ELECT VDW BOUNDARY MISC KINETIC TOTAL TEMP POTENTIAL TOTALAVG TEMPAVG PRESSURE GPRESSURE VOLUME PRESSAVG GPRESSAVG
ENERGY: 0 0.3032 5.2968 1.6771 0.0000 -10876.7048 1468.5950 0.0000 0.0000 1768.8513 -7631.9814 299.9584 -9400.8327 -7631.9814 299.9584 -103.8998 -35.1962 30246.8794 -103.8998 -35.1962
ENERGY: 300000 1.6895 8.0488 3.8145 0.0000 -10688.1583 1400.9843 0.0000 0.0000 1794.9968 -7478.6243 304.3921 -9273.6211 -7536.8086 302.6629 -366.2109 -280.8850 30937.4777 -394.1545 -331.1363
ENERGY: 600000 0.8362 5.0613 1.6420 0.0000 -10736.4219 1446.8329 0.0000 0.0000 1708.2992 -7573.7503 289.6901 -9282.0495 -7516.1141 301.0545 -113.2823 -54.4771 30505.8378 -448.7901 -387.5562
ENERGY: 900000 0.9525 7.9578 2.1472 0.0000 -10733.6001 1448.6338 0.0000 0.0000 1770.5243 -7503.3845 300.2421 -9273.9088 -7505.3192 300.5789 -149.5224 -40.4918 30325.3576 -233.6805 -172.2568
ENERGY: 1200000 1.5380 4.4594 3.3840 0.0000 -10896.4184 1536.9463 0.0000 0.0000 1778.5867 -7571.5039 301.6093 -9350.0906 -7504.3236 301.5450 267.6712 350.6877 30447.3949 -202.4683 -136.4892
ENERGY: 1500000 1.6751 5.1527 4.7104 0.0000 -10592.0542 1375.8697 0.0000 0.0000 1751.5244 -7453.1219 297.0201 -9204.6463 -7502.3123 301.0592 -457.0299 -366.2441 30611.3773 -186.4005 -122.4967
TCL: Running FEP window   3: Lambda1 0.1    Lambda2 0.15000000000000002 [dLambda 0.05000000000000002]
TCL: Setting parameter firsttimestep to 0
TCL: Setting parameter alchLambda to 0.1
Info: NONBONDED TABLE R-SQUARED SPACING: 0.0625
Info: NONBONDED TABLE SIZE: 705 POINTS
TCL: Setting parameter alchLambda2 to 0.15000000000000002
Info: NONBONDED TABLE R-SQUARED SPACING: 0.0625
Info: NONBONDED TABLE SIZE: 705 POINTS
TCL: Running for 1500000 steps
ETITLE: TS BOND ANGLE DIHED IMPRP ELECT VDW BOUNDARY MISC KINETIC TOTAL TEMP POTENTIAL TOTALAVG TEMPAVG PRESSURE GPRESSURE VOLUME PRESSAVG GPRESSAVG
ENERGY: 0 1.6751 5.1527 4.7104 0.0000 -10592.0547 1376.4510 0.0000 0.0000 1750.6290 -7453.4365 296.8683 -9204.0655 -7453.4365 296.8683 -440.7549 -364.1119 30611.3773 -440.7549 -364.1119
ENERGY: 300000 0.6298 4.2033 2.9047 0.0000 -10693.5416 1400.7822 0.0000 0.0000 1776.3276 -7508.6940 301.2262 -9285.0216 -7505.4515 300.3838 -372.5662 -285.0989 30565.1463 -143.6275 -73.9403
ENERGY: 600000 0.6527 3.2457 1.6577 0.0000 -10710.7744 1389.9398 0.0000 0.0000 1789.5507 -7525.7278 303.4685 -9315.2785 -7510.5988 301.7024 -337.6086 -284.8681 30174.5036 -355.5253 -292.3850
ENERGY: 900000 0.6074 5.5655 1.9478 0.0000 -10647.3180 1375.1665 0.0000 0.0000 1737.5656 -7526.4653 294.6530 -9264.0309 -7515.3060 301.3927 -602.3021 -611.8540 30538.6654 -176.8566 -118.7942
ENERGY: 1200000 1.9474 6.8457 2.3919 0.0000 -10575.0052 1339.4819 0.0000 0.0000 1790.5614 -7433.7769 303.6399 -9224.3383 -7500.8672 301.7877 -691.8345 -685.3375 30778.6271 -128.4473 -80.2249
ENERGY: 1500000 0.1780 3.8497 2.0601 0.0000 -10698.2451 1397.5685 0.0000 0.0000 1696.7442 -7597.8447 287.7306 -9294.5888 -7514.7293 299.5238 -602.5461 -563.6602 30682.0276 -130.9207 -80.8117
TCL: Running FEP window   4: Lambda1 0.15000000000000002 Lambda2 0.2    [dLambda 0.04999999999999999]
TCL: Setting parameter firsttimestep to 0
TCL: Setting parameter alchLambda to 0.15000000000000002
Info: NONBONDED TABLE R-SQUARED SPACING: 0.0625
Info: NONBONDED TABLE SIZE: 705 POINTS
TCL: Setting parameter alchLambda2 to 0.2
Info: NONBONDED TABLE R-SQUARED SPACING: 0.0625
Info: NONBONDED TABLE SIZE: 705 POINTS
TCL: Running for 1500000 steps
ETITLE: TS BOND ANGLE DIHED IMPRP ELECT VDW BOUNDARY MISC KINETIC TOTAL TEMP POTENTIAL TOTALAVG TEMPAVG PRESSURE GPRESSURE VOLUME PRESSAVG GPRESSAVG
ENERGY: 0 0.1780 3.8497 2.0601 0.0000 -10698.2455 1397.9751 0.0000 0.0000 1695.8749 -7598.3077 287.5832 -9294.1826 -7598.3077 287.5832 -638.2163 -560.1460 30682.0276 -638.2163 -560.1460
ENERGY: 300000 0.6174 3.9842 3.2429 0.0000 -10569.8012 1276.7049 0.0000 0.0000 1783.1021 -7502.1495 302.3750 -9285.2517 -7523.6078 298.8201 -1246.9493 -1204.7569 30347.7395 -436.0518 -374.3479
ENERGY: 600000 2.3036 7.8991 1.5816 0.0000 -10865.8721 1546.4796 0.0000 0.0000 1804.5157 -7503.0924 306.0063 -9307.6081 -7501.7824 301.2176 571.8021 589.9052 30541.2951 -275.9342 -218.0417
ENERGY: 900000 1.4201 2.8579 2.3684 0.0000 -10677.4973 1431.4044 0.0000 0.0000 1781.3398 -7458.1068 302.0761 -9239.4465 -7516.2202 300.9865 -187.4511 -32.0836 30572.4562 -223.5622 -142.1867
ENERGY: 1200000 2.6354 3.7713 1.2547 0.0000 -10622.3374 1366.3174 0.0000 0.0000 1786.1304 -7462.2281 302.8885 -9248.3586 -7515.0972 300.5689 -519.9336 -440.2291 30493.5701 -228.1551 -150.7024
ENERGY: 1500000 1.2917 3.2231 2.2022 0.0000 -10757.0266 1404.6416 0.0000 0.0000 1767.8221 -7577.8458 299.7838 -9345.6680 -7517.3164 300.8485 -522.2026 -433.2458 30359.6215 -236.4712 -157.3105
TCL: Running FEP window   5: Lambda1 0.2    Lambda2 0.25   [dLambda 0.04999999999999999]
TCL: Setting parameter firsttimestep to 0
TCL: Setting parameter alchLambda to 0.2
Info: NONBONDED TABLE R-SQUARED SPACING: 0.0625
Info: NONBONDED TABLE SIZE: 705 POINTS
TCL: Setting parameter alchLambda2 to 0.25
Info: NONBONDED TABLE R-SQUARED SPACING: 0.0625
Info: NONBONDED TABLE SIZE: 705 POINTS
TCL: Running for 1500000 steps
ETITLE: TS BOND ANGLE DIHED IMPRP ELECT VDW BOUNDARY MISC KINETIC TOTAL TEMP POTENTIAL TOTALAVG TEMPAVG PRESSURE GPRESSURE VOLUME PRESSAVG GPRESSAVG
ENERGY: 0 1.2917 3.2231 2.2022 0.0000 -10757.0272 1405.8043 0.0000 0.0000 1766.9238 -7577.5819 299.6315 -9344.5058 -7577.5819 299.6315 -524.8316 -426.2916 30359.6215 -524.8316 -426.2916
ENERGY: 300000 1.5487 4.1163 1.9197 0.0000 -11008.1819 1595.6463 0.0000 0.0000 1713.2160 -7691.7349 290.5238 -9404.9509 -7578.0668 297.7306 953.0615 971.1381 30005.5829 352.2435 415.0195
ENERGY: 600000 0.7727 9.6307 2.1398 0.0000 -10765.1648 1422.9506 0.0000 0.0000 1764.3821 -7565.2889 299.2005 -9329.6710 -7546.2024 299.7234 -284.5212 -273.0960 30467.6326 27.8977 88.9814
ENERGY: 900000 0.8632 2.9251 2.4700 0.0000 -10670.8916 1409.6971 0.0000 0.0000 1804.8745 -7450.0617 306.0671 -9254.9362 -7536.5582 299.9657 -330.7162 -244.9665 30610.5305 -10.1132 50.8468
ENERGY: 1200000 0.5515 7.1124 4.3779 0.0000 -10752.5719 1482.2967 0.0000 0.0000 1804.3811 -7453.8524 305.9834 -9258.2334 -7537.1768 299.7868 390.8035 484.9777 30217.0137 34.3921 94.4390
ENERGY: 1500000 1.6742 4.0434 1.4263 0.0000 -10592.4326 1324.3544 0.0000 0.0000 1644.1055 -7616.8288 278.8042 -9260.9343 -7540.8069 297.3296 -871.5103 -815.4985 30334.2194 -59.4763 0.5103
TCL: Running FEP window   6: Lambda1 0.25   Lambda2 0.3    [dLambda 0.04999999999999999]
TCL: Setting parameter firsttimestep to 0
TCL: Setting parameter alchLambda to 0.25
Info: NONBONDED TABLE R-SQUARED SPACING: 0.0625
Info: NONBONDED TABLE SIZE: 705 POINTS
TCL: Setting parameter alchLambda2 to 0.3
Info: NONBONDED TABLE R-SQUARED SPACING: 0.0625
Info: NONBONDED TABLE SIZE: 705 POINTS
TCL: Running for 1500000 steps
ETITLE: TS BOND ANGLE DIHED IMPRP ELECT VDW BOUNDARY MISC KINETIC TOTAL TEMP POTENTIAL TOTALAVG TEMPAVG PRESSURE GPRESSURE VOLUME PRESSAVG GPRESSAVG
ENERGY: 0 1.6742 4.0434 1.4263 0.0000 -10592.4330 1325.4776 0.0000 0.0000 1643.2265 -7616.5849 278.6552 -9259.8115 -7616.5849 278.6552 -887.0845 -809.0041 30334.2194 -887.0845 -809.0041
ENERGY: 300000 0.1892 5.2862 2.0808 0.0000 -10868.2393 1546.5213 0.0000 0.0000 1795.6693 -7518.4926 304.5061 -9314.1619 -7533.7801 295.4674 609.8288 600.7980 30581.5032 -360.4709 -309.1119
ENERGY: 600000 2.6211 6.7685 2.5633 0.0000 -10805.6876 1461.8286 0.0000 0.0000 1760.0821 -7571.8240 298.4713 -9331.9061 -7542.5615 298.0481 -33.1128 -2.9263 30518.7714 -106.6783 -65.2392
ENERGY: 900000 1.1869 3.8041 2.3073 0.0000 -10791.2967 1438.3976 0.0000 0.0000 1749.4841 -7596.1168 296.6741 -9345.6009 -7538.4511 299.0557 -28.4088 16.4460 30215.6355 -65.0709 -19.8350
ENERGY: 1200000 0.9723 2.1807 2.0823 0.0000 -10669.0726 1398.3415 0.0000 0.0000 1817.7227 -7447.7730 308.2459 -9265.4957 -7526.0563 299.1987 -127.7839 -101.2562 30473.2141 -96.6797 -51.0113
ENERGY: 1500000 0.7561 2.4578 3.3740 0.0000 -10863.0824 1488.3729 0.0000 0.0000 1773.8771 -7594.2445 300.8106 -9368.1216 -7521.2943 299.2953 279.4660 323.3019 29999.6751 -72.0070 -21.4348
TCL: Running FEP window   7: Lambda1 0.3    Lambda2 0.35   [dLambda 0.04999999999999999]
TCL: Setting parameter firsttimestep to 0
TCL: Setting parameter alchLambda to 0.3
Info: NONBONDED TABLE R-SQUARED SPACING: 0.0625
Info: NONBONDED TABLE SIZE: 705 POINTS
TCL: Setting parameter alchLambda2 to 0.35
Info: NONBONDED TABLE R-SQUARED SPACING: 0.0625
Info: NONBONDED TABLE SIZE: 705 POINTS
TCL: Running for 1500000 steps
ETITLE: TS BOND ANGLE DIHED IMPRP ELECT VDW BOUNDARY MISC KINETIC TOTAL TEMP POTENTIAL TOTALAVG TEMPAVG PRESSURE GPRESSURE VOLUME PRESSAVG GPRESSAVG
ENERGY: 0 0.7561 2.4578 3.3740 0.0000 -10863.0817 1487.9958 0.0000 0.0000 1772.9973 -7595.5008 300.6614 -9368.4980 -7595.5008 300.6614 246.2516 323.6465 29999.6751 246.2516 323.6465
ENERGY: 300000 1.1009 6.4159 1.4820 0.0000 -10823.1350 1438.9439 0.0000 0.0000 1725.3182 -7649.8740 292.5761 -9375.1923 -7582.0753 298.6822 -262.9002 -235.9363 30175.0414 -41.6096 7.6381
ENERGY: 600000 1.6603 4.9664 2.6225 0.0000 -10660.6654 1406.2115 0.0000 0.0000 1733.2921 -7511.9127 293.9283 -9245.2047 -7566.7057 297.2971 -307.6840 -241.7552 30614.4681 9.1780 63.8084
ENERGY: 900000 0.7769 6.3671 1.9484 0.0000 -10766.8577 1473.3097 0.0000 0.0000 1787.9649 -7496.4907 303.1996 -9284.4556 -7556.3098 298.0054 214.0027 266.0975 30366.9186 96.9615 147.8883
ENERGY: 1200000 1.4686 8.4373 2.2196 0.0000 -10898.3886 1563.4147 0.0000 0.0000 1798.3083 -7524.5403 304.9536 -9322.8486 -7539.5826 299.2262 742.0048 796.6111 30381.1451 126.6144 181.4102
ENERGY: 1500000 0.7960 5.2067 3.4389 0.0000 -10723.6695 1438.7863 0.0000 0.0000 1706.1488 -7569.2928 289.3254 -9275.4416 -7528.1443 299.3956 -52.2117 -54.2814 30281.0903 89.6184 145.2044
TCL: Running FEP window   8: Lambda1 0.35   Lambda2 0.39999999999999997 [dLambda 0.04999999999999999]
TCL: Setting parameter firsttimestep to 0
TCL: Setting parameter alchLambda to 0.35
Info: NONBONDED TABLE R-SQUARED SPACING: 0.0625
Info: NONBONDED TABLE SIZE: 705 POINTS
TCL: Setting parameter alchLambda2 to 0.39999999999999997
Info: NONBONDED TABLE R-SQUARED SPACING: 0.0625
Info: NONBONDED TABLE SIZE: 705 POINTS
TCL: Running for 1500000 steps
ETITLE: TS BOND ANGLE DIHED IMPRP ELECT VDW BOUNDARY MISC KINETIC TOTAL TEMP POTENTIAL TOTALAVG TEMPAVG PRESSURE GPRESSURE VOLUME PRESSAVG GPRESSAVG
ENERGY: 0 0.7960 5.2067 3.4389 0.0000 -10723.6705 1439.1069 0.0000 0.0000 1705.2821 -7569.8399 289.1784 -9275.1220 -7569.8399 289.1784 -122.5224 -49.3942 30281.0903 -122.5224 -49.3942
ENERGY: 300000 1.5621 4.5295 2.8971 0.0000 -10789.4534 1438.2288 0.0000 0.0000 1758.5407 -7583.6953 298.2099 -9342.2360 -7599.9920 292.6896 -345.3539 -314.7318 30484.1927 75.7716 118.4625
ENERGY: 600000 0.3348 6.9310 2.1585 0.0000 -10764.4114 1409.5333 0.0000 0.0000 1798.6876 -7546.7662 305.0180 -9345.4539 -7584.0143 295.9432 -396.8512 -280.1900 30358.1645 -45.6425 9.0485
ENERGY: 900000 1.7025 4.6981 2.5752 0.0000 -10817.7812 1447.1738 0.0000 0.0000 1803.6669 -7557.9648 305.8623 -9361.6317 -7568.6331 296.9962 -189.7916 -86.8257 30262.9992 -207.2525 -140.5686
ENERGY: 1200000 1.8340 7.7716 3.7486 0.0000 -10828.3321 1506.3004 0.0000 0.0000 1780.9488 -7527.7287 302.0098 -9308.6775 -7562.8978 297.2202 433.1712 494.1065 30228.8121 -87.5134 -22.5302
ENERGY: 1500000 1.1088 5.3797 2.7202 0.0000 -10785.4571 1515.7211 0.0000 0.0000 1692.3267 -7568.2006 286.9815 -9260.5273 -7568.3570 296.8699 465.1858 529.3873 30522.3523 -98.6390 -29.7549
TCL: Running FEP window   9: Lambda1 0.39999999999999997 Lambda2 0.44999999999999996 [dLambda 0.04999999999999999]
TCL: Setting parameter firsttimestep to 0
TCL: Setting parameter alchLambda to 0.39999999999999997
Info: NONBONDED TABLE R-SQUARED SPACING: 0.0625
Info: NONBONDED TABLE SIZE: 705 POINTS
TCL: Setting parameter alchLambda2 to 0.44999999999999996
Info: NONBONDED TABLE R-SQUARED SPACING: 0.0625
Info: NONBONDED TABLE SIZE: 705 POINTS
TCL: Running for 1500000 steps
ETITLE: TS BOND ANGLE DIHED IMPRP ELECT VDW BOUNDARY MISC KINETIC TOTAL TEMP POTENTIAL TOTALAVG TEMPAVG PRESSURE GPRESSURE VOLUME PRESSAVG GPRESSAVG
ENERGY: 0 1.1088 5.3797 2.7202 0.0000 -10785.4586 1515.7107 0.0000 0.0000 1691.4706 -7569.0686 286.8363 -9260.5392 -7569.0686 286.8363 444.2530 534.5190 30522.3523 444.2530 534.5190
ENERGY: 300000 2.1300 4.9708 1.6380 0.0000 -10695.3492 1374.2542 0.0000 0.0000 1724.0481 -7588.3082 292.3607 -9312.3563 -7536.9059 294.5101 -676.3514 -682.4666 30576.4088 -276.4413 -208.5179
ENERGY: 600000 1.0188 3.2578 1.7434 0.0000 -10758.0559 1456.5511 0.0000 0.0000 1777.4706 -7518.0142 301.4200 -9295.4847 -7539.2528 298.4693 -11.4310 111.6940 30668.4919 -224.8903 -148.9157
ENERGY: 900000 2.8255 4.5343 2.9385 0.0000 -10674.7476 1394.3527 0.0000 0.0000 1720.1875 -7549.9091 291.7061 -9270.0966 -7538.6137 298.2257 -453.9082 -402.9416 30500.2083 -107.4015 -37.8152
ENERGY: 1200000 1.3776 7.7936 1.2824 0.0000 -10762.1897 1465.6319 0.0000 0.0000 1844.6484 -7441.4558 312.8119 -9286.1042 -7534.2300 299.7788 137.3928 221.1306 30589.6202 -18.6891 47.0442
ENERGY: 1500000 0.4871 3.0853 2.3467 0.0000 -10773.4856 1490.8622 0.0000 0.0000 1816.6129 -7460.0914 308.0577 -9276.7043 -7526.2939 300.6322 665.2142 694.5894 30200.4341 43.4109 103.4406
TCL: Running FEP window  10: Lambda1 0.44999999999999996 Lambda2 0.49999999999999994 [dLambda 0.04999999999999999]
TCL: Setting parameter firsttimestep to 0
TCL: Setting parameter alchLambda to 0.44999999999999996
Info: NONBONDED TABLE R-SQUARED SPACING: 0.0625
Info: NONBONDED TABLE SIZE: 705 POINTS
TCL: Setting parameter alchLambda2 to 0.49999999999999994
Info: NONBONDED TABLE R-SQUARED SPACING: 0.0625
Info: NONBONDED TABLE SIZE: 705 POINTS
TCL: Running for 1500000 steps
ETITLE: TS BOND ANGLE DIHED IMPRP ELECT VDW BOUNDARY MISC KINETIC TOTAL TEMP POTENTIAL TOTALAVG TEMPAVG PRESSURE GPRESSURE VOLUME PRESSAVG GPRESSAVG
ENERGY: 0 0.4871 3.0853 2.3467 0.0000 -10773.4862 1491.1165 0.0000 0.0000 1815.7266 -7460.7240 307.9074 -9276.4506 -7460.7240 307.9074 609.8038 700.9960 30200.4341 609.8038 700.9960
ENERGY: 300000 3.3085 2.7158 1.5048 0.0000 -10830.8717 1498.0439 0.0000 0.0000 1738.4112 -7586.8875 294.7964 -9325.2987 -7575.4308 294.3183 332.8050 387.4079 30510.7095 -57.2072 2.8200
ENERGY: 600000 2.9329 4.5964 1.5221 0.0000 -10784.8514 1525.1233 0.0000 0.0000 1777.7830 -7472.8937 301.4730 -9250.6767 -7548.5919 297.4202 814.4310 888.3958 30210.1558 202.6502 276.1270
ENERGY: 900000 4.5737 3.7386 2.8249 0.0000 -10683.8438 1361.3116 0.0000 0.0000 1788.3423 -7523.0525 303.2636 -9311.3949 -7540.2339 299.2888 -849.7863 -781.3035 30508.6617 -4.4064 65.4242
ENERGY: 1200000 0.9927 5.9037 3.0765 0.0000 -10744.2771 1461.0228 0.0000 0.0000 1747.3100 -7525.9713 296.3054 -9273.2813 -7535.9549 299.4528 24.6032 56.2587 30712.9551 -94.2266 -26.0536
ENERGY: 1500000 1.1604 5.2934 2.7092 0.0000 -10771.1454 1466.3136 0.0000 0.0000 1756.1400 -7539.5288 297.8028 -9295.6688 -7541.0468 299.0542 153.1061 190.2966 30287.0230 11.5038 75.7137
TCL: Running FEP window  11: Lambda1 0.49999999999999994 Lambda2 0.5499999999999999 [dLambda 0.04999999999999999]
TCL: Setting parameter firsttimestep to 0
TCL: Setting parameter alchLambda to 0.49999999999999994
Info: NONBONDED TABLE R-SQUARED SPACING: 0.0625
Info: NONBONDED TABLE SIZE: 705 POINTS
TCL: Setting parameter alchLambda2 to 0.5499999999999999
Info: NONBONDED TABLE R-SQUARED SPACING: 0.0625
Info: NONBONDED TABLE SIZE: 705 POINTS
TCL: Running for 1500000 steps
ETITLE: TS BOND ANGLE DIHED IMPRP ELECT VDW BOUNDARY MISC KINETIC TOTAL TEMP POTENTIAL TOTALAVG TEMPAVG PRESSURE GPRESSURE VOLUME PRESSAVG GPRESSAVG
ENERGY: 0 1.1604 5.2934 2.7092 0.0000 -10771.1464 1466.2187 0.0000 0.0000 1755.2398 -7540.5249 297.6502 -9295.7647 -7540.5249 297.6502 116.5888 193.6433 30287.0230 116.5888 193.6433
ENERGY: 300000 0.6028 2.8146 2.5435 0.0000 -10955.6517 1594.0248 0.0000 0.0000 1774.8586 -7580.8073 300.9771 -9355.6659 -7547.4571 300.9202 1328.8468 1377.7207 29751.5359 606.0120 647.9746
ENERGY: 600000 0.7826 4.8535 2.2183 0.0000 -10717.2806 1491.9501 0.0000 0.0000 1756.6258 -7460.8503 297.8852 -9217.4761 -7512.1419 303.0960 476.4180 543.8264 30513.2880 441.3367 487.0876
ENERGY: 900000 1.5192 5.1118 1.6254 0.0000 -10625.1631 1404.1726 0.0000 0.0000 1746.5445 -7466.1896 296.1756 -9212.7341 -7511.6519 302.3563 158.6152 207.3823 30129.6600 317.9473 370.2166
ENERGY: 1200000 0.8337 4.6640 3.4036 0.0000 -10834.4936 1544.6264 0.0000 0.0000 1769.1531 -7511.8128 300.0095 -9280.9658 -7508.3757 301.8827 1001.5873 1084.3998 30215.7194 311.1924 363.4781
ENERGY: 1500000 1.6158 5.6874 1.8497 0.0000 -10648.6423 1462.5658 0.0000 0.0000 1746.3526 -7430.5709 296.1431 -9176.9235 -7505.6063 301.4503 136.0936 207.5732 31237.8339 320.3749 375.0162
TCL: Running FEP window  12: Lambda1 0.5499999999999999 Lambda2 0.6    [dLambda 0.050000000000000044]
TCL: Setting parameter firsttimestep to 0
TCL: Setting parameter alchLambda to 0.5499999999999999
Info: NONBONDED TABLE R-SQUARED SPACING: 0.0625
Info: NONBONDED TABLE SIZE: 705 POINTS
TCL: Setting parameter alchLambda2 to 0.6
Info: NONBONDED TABLE R-SQUARED SPACING: 0.0625
Info: NONBONDED TABLE SIZE: 705 POINTS
TCL: Running for 1500000 steps
ETITLE: TS BOND ANGLE DIHED IMPRP ELECT VDW BOUNDARY MISC KINETIC TOTAL TEMP POTENTIAL TOTALAVG TEMPAVG PRESSURE GPRESSURE VOLUME PRESSAVG GPRESSAVG
ENERGY: 0 1.6158 5.6874 1.8497 0.0000 -10648.4501 1462.3972 0.0000 0.0000 1745.4353 -7431.4647 295.9875 -9176.9000 -7431.4647 295.9875 121.4975 209.7145 31237.8339 121.4975 209.7145
ENERGY: 300000 2.0030 4.8905 2.3446 0.0000 -10844.7037 1540.2266 0.0000 0.0000 1790.4552 -7504.7837 303.6219 -9295.2389 -7491.9382 297.9221 654.5658 756.3291 30257.4605 -77.6124 -0.3353
ENERGY: 600000 2.1410 5.9860 2.6128 0.0000 -10660.4524 1396.0452 0.0000 0.0000 1768.0382 -7485.6291 299.8205 -9253.6674 -7483.4331 300.6575 -394.3860 -330.8777 30924.3401 -185.9020 -108.1729
ENERGY: 900000 4.2048 6.0876 3.3058 0.0000 -10672.1100 1403.0393 0.0000 0.0000 1783.1080 -7472.3645 302.3760 -9255.4725 -7497.6237 301.0360 -264.7794 -251.0460 30727.0198 -102.7514 -38.6354
ENERGY: 1200000 1.7191 5.8017 2.9114 0.0000 -10623.6725 1410.5226 0.0000 0.0000 1781.6011 -7421.1166 302.1205 -9202.7177 -7494.7147 300.3064 197.4806 296.0555 30224.6663 -45.3151 23.5051
ENERGY: 1500000 2.8486 9.1411 2.0350 0.0000 -10731.4292 1418.4941 0.0000 0.0000 1744.1375 -7554.7729 295.7675 -9298.9105 -7508.9742 299.8233 -147.4627 -152.1582 30414.8269 -71.5730 -7.9093
TCL: Running FEP window  13: Lambda1 0.6    Lambda2 0.65   [dLambda 0.050000000000000044]
TCL: Setting parameter firsttimestep to 0
TCL: Setting parameter alchLambda to 0.6
Info: NONBONDED TABLE R-SQUARED SPACING: 0.0625
Info: NONBONDED TABLE SIZE: 705 POINTS
TCL: Setting parameter alchLambda2 to 0.65
Info: NONBONDED TABLE R-SQUARED SPACING: 0.0625
Info: NONBONDED TABLE SIZE: 705 POINTS
TCL: Running for 1500000 steps
ETITLE: TS BOND ANGLE DIHED IMPRP ELECT VDW BOUNDARY MISC KINETIC TOTAL TEMP POTENTIAL TOTALAVG TEMPAVG PRESSURE GPRESSURE VOLUME PRESSAVG GPRESSAVG
ENERGY: 0 2.8486 9.1411 2.0350 0.0000 -10732.2441 1418.3797 0.0000 0.0000 1743.2429 -7556.5969 295.6158 -9299.8398 -7556.5969 295.6158 -220.4058 -149.3094 30414.8269 -220.4058 -149.3094
ENERGY: 300000 1.5463 3.5583 3.0141 0.0000 -10698.6561 1429.7249 0.0000 0.0000 1714.7056 -7546.1069 290.7764 -9260.8125 -7547.2723 297.1443 -204.9455 -144.0874 30551.1838 -427.3127 -365.6445
ENERGY: 600000 1.6066 3.8643 1.9123 0.0000 -10808.6475 1483.7958 0.0000 0.0000 1834.1290 -7483.3396 311.0280 -9317.4686 -7558.7147 298.7262 452.1099 505.8752 29983.1782 -271.7258 -211.4778
ENERGY: 900000 3.6434 4.1294 2.6328 0.0000 -10876.2701 1507.8475 0.0000 0.0000 1819.1827 -7538.8343 308.4935 -9358.0170 -7541.2316 301.4041 6.3573 59.4135 30555.9377 -156.9468 -88.0822
ENERGY: 1200000 1.3368 5.6049 1.8613 0.0000 -10784.3664 1404.2188 0.0000 0.0000 1774.9777 -7596.3670 300.9973 -9371.3446 -7539.0519 300.9931 -566.6850 -446.6956 30353.6911 -210.7568 -132.1427
ENERGY: 1500000 0.8506 6.5884 2.2512 0.0000 -10710.5925 1443.8847 0.0000 0.0000 1782.5721 -7474.4455 302.2851 -9257.0176 -7546.0181 299.7857 46.5345 72.8347 30731.1718 -205.6839 -125.8948
TCL: Running FEP window  14: Lambda1 0.65   Lambda2 0.7000000000000001 [dLambda 0.050000000000000044]
TCL: Setting parameter firsttimestep to 0
TCL: Setting parameter alchLambda to 0.65
Info: NONBONDED TABLE R-SQUARED SPACING: 0.0625
Info: NONBONDED TABLE SIZE: 705 POINTS
TCL: Setting parameter alchLambda2 to 0.7000000000000001
Info: NONBONDED TABLE R-SQUARED SPACING: 0.0625
Info: NONBONDED TABLE SIZE: 705 POINTS
TCL: Running for 1500000 steps
ETITLE: TS BOND ANGLE DIHED IMPRP ELECT VDW BOUNDARY MISC KINETIC TOTAL TEMP POTENTIAL TOTALAVG TEMPAVG PRESSURE GPRESSURE VOLUME PRESSAVG GPRESSAVG
ENERGY: 0 0.8506 6.5884 2.2512 0.0000 -10712.0902 1445.0590 0.0000 0.0000 1781.6776 -7475.6634 302.1334 -9257.3410 -7475.6634 302.1334 6.3678 89.3479 30731.1718 6.3678 89.3479
ENERGY: 300000 1.7814 7.1917 2.5450 0.0000 -10721.5374 1413.3657 0.0000 0.0000 1719.1929 -7577.4608 291.5374 -9296.6537 -7529.2850 297.1007 -503.8230 -367.7507 30542.2717 -334.1540 -243.2852
ENERGY: 600000 1.7091 4.4040 2.9142 0.0000 -10746.9547 1380.0903 0.0000 0.0000 1780.9574 -7576.8797 302.0113 -9357.8371 -7519.1841 299.3208 -556.9706 -489.1372 30165.2408 -355.9912 -274.6143
ENERGY: 900000 0.7005 3.6113 1.7296 0.0000 -10708.1090 1422.1503 0.0000 0.0000 1843.0822 -7436.8351 312.5463 -9279.9172 -7497.9924 301.1809 -218.2507 -78.4017 30667.2791 -194.0043 -108.9989
ENERGY: 1200000 1.9216 1.9433 2.0949 0.0000 -10696.5334 1389.2425 0.0000 0.0000 1776.1675 -7525.1635 301.1990 -9301.3311 -7514.3900 301.3739 -539.4356 -432.8914 30654.2451 -209.3910 -127.4079
ENERGY: 1500000 2.0550 5.0094 2.3816 0.0000 -10759.5564 1394.8530 0.0000 0.0000 1803.6894 -7551.5681 305.8661 -9355.2575 -7510.5233 301.5829 -508.4707 -438.5083 30393.6549 -286.0115 -204.6290
TCL: Running FEP window  15: Lambda1 0.7000000000000001 Lambda2 0.7500000000000001 [dLambda 0.050000000000000044]
TCL: Setting parameter firsttimestep to 0
TCL: Setting parameter alchLambda to 0.7000000000000001
Info: NONBONDED TABLE R-SQUARED SPACING: 0.0625
Info: NONBONDED TABLE SIZE: 705 POINTS
TCL: Setting parameter alchLambda2 to 0.7500000000000001
Info: NONBONDED TABLE R-SQUARED SPACING: 0.0625
Info: NONBONDED TABLE SIZE: 705 POINTS
TCL: Running for 1500000 steps
ETITLE: TS BOND ANGLE DIHED IMPRP ELECT VDW BOUNDARY MISC KINETIC TOTAL TEMP POTENTIAL TOTALAVG TEMPAVG PRESSURE GPRESSURE VOLUME PRESSAVG GPRESSAVG
ENERGY: 0 2.0550 5.0094 2.3816 0.0000 -10759.8473 1395.0554 0.0000 0.0000 1802.7775 -7552.5686 305.7115 -9355.3460 -7552.5686 305.7115 -511.2596 -430.1689 30393.6549 -511.2596 -430.1689
ENERGY: 300000 1.6547 3.0449 3.6605 0.0000 -10817.6811 1431.9123 0.0000 0.0000 1738.9502 -7638.4585 294.8878 -9377.4087 -7579.0402 299.8407 -228.3257 -156.2548 30064.7979 -219.3350 -149.2882
ENERGY: 600000 1.1957 4.5128 1.6536 0.0000 -10670.4180 1367.2841 0.0000 0.0000 1756.2522 -7539.5195 297.8218 -9295.7717 -7563.3877 300.8175 -497.7217 -451.9638 30475.7498 -170.7008 -112.2707
ENERGY: 900000 0.9763 6.0060 3.7299 0.0000 -10619.8937 1352.4680 0.0000 0.0000 1763.3816 -7493.3319 299.0308 -9256.7135 -7557.1620 301.7846 -621.4372 -565.1265 30586.3762 -265.6527 -208.6479
ENERGY: 1200000 4.4899 6.0530 2.8296 0.0000 -10747.0027 1460.3434 0.0000 0.0000 1798.7873 -7474.4995 305.0349 -9273.2868 -7541.4153 302.2712 189.8745 312.5127 30047.1564 -164.4753 -103.4934
ENERGY: 1500000 0.4792 8.9347 2.0712 0.0000 -10664.9881 1356.9694 0.0000 0.0000 1856.7234 -7439.8101 314.8596 -9296.5336 -7529.6672 301.7565 -598.5231 -545.0827 30533.6720 -223.7345 -166.3871
TCL: Running FEP window  16: Lambda1 0.7500000000000001 Lambda2 0.8000000000000002 [dLambda 0.050000000000000044]
TCL: Setting parameter firsttimestep to 0
TCL: Setting parameter alchLambda to 0.7500000000000001
Info: NONBONDED TABLE R-SQUARED SPACING: 0.0625
Info: NONBONDED TABLE SIZE: 705 POINTS
TCL: Setting parameter alchLambda2 to 0.8000000000000002
Info: NONBONDED TABLE R-SQUARED SPACING: 0.0625
Info: NONBONDED TABLE SIZE: 705 POINTS
TCL: Running for 1500000 steps
ETITLE: TS BOND ANGLE DIHED IMPRP ELECT VDW BOUNDARY MISC KINETIC TOTAL TEMP POTENTIAL TOTALAVG TEMPAVG PRESSURE GPRESSURE VOLUME PRESSAVG GPRESSAVG
ENERGY: 0 0.4792 8.9347 2.0712 0.0000 -10665.3103 1357.2663 0.0000 0.0000 1855.7999 -7440.7589 314.7030 -9296.5589 -7440.7589 314.7030 -632.6601 -536.1440 30533.6720 -632.6601 -536.1440
ENERGY: 300000 2.5012 6.5698 3.2814 0.0000 -10695.5675 1470.6734 0.0000 0.0000 1742.0556 -7470.4861 295.4144 -9212.5417 -7481.9858 299.8785 450.7322 467.7875 30444.8933 -155.9997 -127.1142
ENERGY: 600000 1.5493 4.5439 1.5320 0.0000 -10852.0144 1486.2043 0.0000 0.0000 1816.0941 -7542.0909 307.9697 -9358.1850 -7501.0262 301.5391 382.1643 455.2986 30028.7319 -62.2163 -14.2526
ENERGY: 900000 0.5427 2.4967 1.9702 0.0000 -10738.6755 1462.8091 0.0000 0.0000 1787.0530 -7483.8038 303.0450 -9270.8568 -7504.2480 300.9141 454.1696 480.9871 30023.9636 6.3900 46.3957
ENERGY: 1200000 0.5945 5.3933 2.1292 0.0000 -10765.7717 1443.2019 0.0000 0.0000 1800.4544 -7513.9983 305.3176 -9314.4527 -7511.7817 300.8235 -372.7376 -207.0561 30811.8276 35.1918 83.7641
ENERGY: 1500000 0.3214 6.3535 1.7454 0.0000 -10669.0178 1398.8642 0.0000 0.0000 1741.1533 -7520.5800 295.2614 -9261.7333 -7519.7604 299.8360 -291.4815 -230.7146 30615.0833 60.6437 104.4643
TCL: Running FEP window  17: Lambda1 0.8000000000000002 Lambda2 0.8500000000000002 [dLambda 0.050000000000000044]
TCL: Setting parameter firsttimestep to 0
TCL: Setting parameter alchLambda to 0.8000000000000002
Info: NONBONDED TABLE R-SQUARED SPACING: 0.0625
Info: NONBONDED TABLE SIZE: 705 POINTS
TCL: Setting parameter alchLambda2 to 0.8500000000000002
Info: NONBONDED TABLE R-SQUARED SPACING: 0.0625
Info: NONBONDED TABLE SIZE: 705 POINTS
TCL: Running for 1500000 steps
ETITLE: TS BOND ANGLE DIHED IMPRP ELECT VDW BOUNDARY MISC KINETIC TOTAL TEMP POTENTIAL TOTALAVG TEMPAVG PRESSURE GPRESSURE VOLUME PRESSAVG GPRESSAVG
ENERGY: 0 0.3214 6.3535 1.7454 0.0000 -10669.6506 1399.2657 0.0000 0.0000 1740.3148 -7521.6499 295.1192 -9261.9646 -7521.6499 295.1192 -285.6588 -216.0661 30615.0833 -285.6588 -216.0661
ENERGY: 300000 3.8416 2.9895 2.2288 0.0000 -10751.3383 1407.6708 0.0000 0.0000 1752.7003 -7581.9072 297.2195 -9334.6075 -7514.0053 299.7852 -189.2283 -78.1095 30138.8170 0.8110 56.7510
ENERGY: 600000 0.9339 8.7408 2.3576 0.0000 -10746.6770 1418.0460 0.0000 0.0000 1841.1105 -7475.4884 312.2119 -9316.5988 -7511.0260 300.7691 -297.7219 -246.7282 30870.2994 -153.5463 -86.0790
ENERGY: 900000 1.7836 9.4013 1.7405 0.0000 -10750.0303 1506.5050 0.0000 0.0000 1807.2016 -7423.3982 306.4617 -9230.5998 -7499.6288 301.9189 653.7591 664.3400 30510.2289 -86.3429 -24.1262
ENERGY: 1200000 1.1726 4.7091 2.1823 0.0000 -10754.6358 1432.4579 0.0000 0.0000 1750.7008 -7563.4131 296.8804 -9314.1139 -7513.0639 300.5106 -25.1380 69.1284 30256.2963 -182.6967 -117.5918
ENERGY: 1500000 1.1118 4.3893 2.2956 0.0000 -10637.4677 1373.9188 0.0000 0.0000 1717.1042 -7538.6481 291.1832 -9255.7523 -7508.6809 300.9272 -643.5978 -550.8394 30921.0532 -213.9138 -151.6021
TCL: Running FEP window  18: Lambda1 0.8500000000000002 Lambda2 0.9000000000000002 [dLambda 0.050000000000000044]
TCL: Setting parameter firsttimestep to 0
TCL: Setting parameter alchLambda to 0.8500000000000002
Info: NONBONDED TABLE R-SQUARED SPACING: 0.0625
Info: NONBONDED TABLE SIZE: 705 POINTS
TCL: Setting parameter alchLambda2 to 0.9000000000000002
Info: NONBONDED TABLE R-SQUARED SPACING: 0.0625
Info: NONBONDED TABLE SIZE: 705 POINTS
TCL: Running for 1500000 steps
ETITLE: TS BOND ANGLE DIHED IMPRP ELECT VDW BOUNDARY MISC KINETIC TOTAL TEMP POTENTIAL TOTALAVG TEMPAVG PRESSURE GPRESSURE VOLUME PRESSAVG GPRESSAVG
ENERGY: 0 1.1118 4.3893 2.2956 0.0000 -10638.2598 1374.1282 0.0000 0.0000 1716.2159 -7540.1191 291.0326 -9256.3350 -7540.1191 291.0326 -626.7543 -541.2186 30921.0532 -626.7543 -541.2186
ENERGY: 300000 0.7441 6.1160 2.7903 0.0000 -10666.2030 1430.7325 0.0000 0.0000 1791.5957 -7434.2245 303.8153 -9225.8202 -7530.4363 296.6061 21.7390 118.5488 30586.0397 -136.5413 -33.2788
ENERGY: 600000 0.9022 5.1255 1.8660 0.0000 -10748.0852 1400.5549 0.0000 0.0000 1767.2396 -7572.3969 299.6851 -9339.6365 -7526.6263 299.3695 -777.5124 -638.7717 30930.2449 -116.7594 -20.3014
ENERGY: 900000 0.3549 5.1202 1.9498 0.0000 -10759.6616 1471.1446 0.0000 0.0000 1812.2728 -7468.8193 307.3217 -9281.0921 -7503.4996 300.2801 179.9253 228.7109 30641.4063 -128.7923 -41.0198
ENERGY: 1200000 1.9548 4.3288 2.3161 0.0000 -10702.4581 1411.8315 0.0000 0.0000 1758.1867 -7523.8403 298.1499 -9282.0269 -7510.5872 300.8815 -142.5505 -110.2024 30670.4830 -74.5871 4.9456
ENERGY: 1500000 0.7544 4.8451 4.9044 0.0000 -10737.3954 1415.1121 0.0000 0.0000 1792.9883 -7518.7910 304.0515 -9311.7793 -7521.7083 300.7862 -13.5687 -32.8286 30181.6966 -57.4464 15.2698
TCL: Running FEP window  19: Lambda1 0.9000000000000002 Lambda2 0.9500000000000003 [dLambda 0.050000000000000044]
TCL: Setting parameter firsttimestep to 0
TCL: Setting parameter alchLambda to 0.9000000000000002
Info: NONBONDED TABLE R-SQUARED SPACING: 0.0625
Info: NONBONDED TABLE SIZE: 705 POINTS
TCL: Setting parameter alchLambda2 to 0.9500000000000003
Info: NONBONDED TABLE R-SQUARED SPACING: 0.0625
Info: NONBONDED TABLE SIZE: 705 POINTS
TCL: Running for 1500000 steps
ETITLE: TS BOND ANGLE DIHED IMPRP ELECT VDW BOUNDARY MISC KINETIC TOTAL TEMP POTENTIAL TOTALAVG TEMPAVG PRESSURE GPRESSURE VOLUME PRESSAVG GPRESSAVG
ENERGY: 0 0.7544 4.8451 4.9044 0.0000 -10737.9934 1416.1673 0.0000 0.0000 1792.0902 -7519.2320 303.8992 -9311.3222 -7519.2320 303.8992 -87.8944 -10.3028 30181.6966 -87.8944 -10.3028
ENERGY: 300000 1.0558 6.6066 1.6191 0.0000 -10620.2531 1391.8916 0.0000 0.0000 1758.1187 -7460.9613 298.1384 -9219.0801 -7537.4424 298.0842 -115.7550 -71.7214 30420.6447 136.4489 200.6391
ENERGY: 600000 0.7149 4.1380 3.1727 0.0000 -10809.4498 1483.4126 0.0000 0.0000 1741.9633 -7576.0482 295.3988 -9318.0116 -7557.3161 296.0765 203.2526 189.6837 30792.7838 101.9561 164.3936
ENERGY: 900000 1.1938 5.2543 1.8593 0.0000 -10616.0630 1300.2897 0.0000 0.0000 1722.9796 -7584.4864 292.1795 -9307.4660 -7563.7902 296.2578 -1244.2306 -1198.1616 30670.3715 -147.1518 -92.3251
ENERGY: 1200000 1.2217 5.9382 2.3333 0.0000 -10730.9776 1423.4957 0.0000 0.0000 1789.0408 -7508.9478 303.3821 -9297.9886 -7545.3538 297.2700 -152.3915 -82.3273 30577.1058 -110.8793 -53.2204
ENERGY: 1500000 1.7834 3.4888 1.7644 0.0000 -10719.6566 1401.8294 0.0000 0.0000 1730.1341 -7580.6565 293.3928 -9310.7906 -7557.3276 296.2363 -385.9324 -401.2856 30597.6973 -150.4559 -94.7187
TCL: Running FEP window  20: Lambda1 0.9500000000000003 Lambda2 1.0    [dLambda 0.04999999999999971]
TCL: Setting parameter firsttimestep to 0
TCL: Setting parameter alchLambda to 0.9500000000000003
Info: NONBONDED TABLE R-SQUARED SPACING: 0.0625
Info: NONBONDED TABLE SIZE: 705 POINTS
TCL: Setting parameter alchLambda2 to 1.0
Info: NONBONDED TABLE R-SQUARED SPACING: 0.0625
Info: NONBONDED TABLE SIZE: 705 POINTS
TCL: Running for 1500000 steps
ETITLE: TS BOND ANGLE DIHED IMPRP ELECT VDW BOUNDARY MISC KINETIC TOTAL TEMP POTENTIAL TOTALAVG TEMPAVG PRESSURE GPRESSURE VOLUME PRESSAVG GPRESSAVG
ENERGY: 0 1.7834 3.4888 1.7644 0.0000 -10720.5979 1402.5287 0.0000 0.0000 1729.2611 -7581.7715 293.2447 -9311.0327 -7581.7715 293.2447 -463.6861 -381.3840 30597.6973 -463.6861 -381.3840
ENERGY: 300000 1.0922 6.2234 2.6184 0.0000 -10699.3125 1423.5636 0.0000 0.0000 1791.0654 -7474.7494 303.7254 -9265.8148 -7533.1864 298.3133 -133.2211 -75.4837 30675.7995 72.5568 130.3440
ENERGY: 600000 0.9864 10.4520 1.4993 0.0000 -10756.2036 1411.6383 0.0000 0.0000 1771.2185 -7560.4091 300.3598 -9331.6276 -7537.0342 298.2758 -295.6521 -211.3014 30460.0671 37.7378 94.9323
ENERGY: 900000 2.4528 5.4241 2.0191 0.0000 -10757.8484 1486.1904 0.0000 0.0000 1752.9069 -7508.8551 297.2545 -9261.7620 -7530.6867 298.2724 549.2976 582.3601 30430.9793 76.9424 139.1037
ENERGY: 1200000 0.5134 2.6766 2.5977 0.0000 -10716.3560 1441.0311 0.0000 0.0000 1734.0939 -7535.4433 294.0643 -9269.5371 -7527.0012 298.9020 -31.8867 51.4747 30461.5033 49.9523 119.2705
ENERGY: 1500000 1.6472 4.3445 2.9443 0.0000 -10576.2400 1316.5061 0.0000 0.0000 1764.3208 -7486.4772 299.1901 -9250.7980 -7527.9180 298.4762 -753.1006 -650.1178 30376.2058 -74.6257 -7.1734
TCL: Exiting due to exit command.
