Info: SIMULATION PARAMETERS:
Info: TIMESTEP               2
Info: NUMBER OF STEPS        0
Info: STEPS PER CYCLE        10
Info: PERIODIC CELL BASIS 1  29.1507 0 0
Info: PERIODIC CELL BASIS 2  0 31.6487 0
Info: PERIODIC CELL BASIS 3  0 0 33.1276
Info: PERIODIC CELL CENTER   0 0 0
Info: WRAPPING WATERS AROUND PERIODIC BOUNDARIES ON OUTPUT.
Info: WRAPPING ALL CLUSTERS AROUND PERIODIC BOUNDARIES ON OUTPUT.
Info: FIRST LDB TIMESTEP     50
Info: LAST LDB TIMESTEP     -1
Info: HOM BACKGROUND SCALING 1
Info: PME BACKGROUND SCALING 1
Info: MIN ATOMS PER PATCH    40
Info: EMPTY PATCH LOAD       40 ATOMS
Info: VELOCITY FILE          mobley_4479135_equil.vel
Info: CENTER OF MASS MOVING INITIALLY? NO
Info: DIELECTRIC             1
Info: EXCLUDE                SCALED ONE-FOUR
Info: 1-4 ELECTROSTATICS SCALED BY 0.833333
Info: MODIFIED 1-4 VDW PARAMETERS WILL BE USED
Info: DCD FILENAME           mobley_4479135_prod.dcd
Info: DCD FREQUENCY          100000
Info: DCD FIRST STEP         100000
Info: DCD FILE WILL CONTAIN UNIT CELL DATA
Info: XST FILENAME           mobley_4479135_prod.xst
Info: XST FREQUENCY          100000
Info: NO VELOCITY DCD OUTPUT
Info: NO FORCE DCD OUTPUT
Info: OUTPUT FILENAME        mobley_4479135_prod
Info: BINARY OUTPUT FILES WILL BE USED
Info: RESTART FILENAME       mobley_4479135_prod.restart
Info: RESTART FREQUENCY      100000
Info: BINARY RESTART FILES WILL BE USED
Info: CUTOFF                 9
Info: PAIRLIST DISTANCE      11
Info: PAIRLIST SHRINK RATE   0.01
Info: PAIRLIST GROW RATE     0.01
Info: PAIRLIST TRIGGER       0.3
Info: PAIRLISTS PER CYCLE    2
Info: PAIRLISTS ENABLED
Info: MARGIN                 2
Info: HYDROGEN GROUP CUTOFF  2.5
Info: PATCH DIMENSION        15.5
Info: ENERGY OUTPUT STEPS    100000
Info: ENERGY EVALUATION STEPS    100000
Info: OUTPUT ENERGY PRECISION 4
Info: CROSSTERM ENERGY INCLUDED IN DIHEDRAL
Info: TIMING OUTPUT STEPS    1000000
Info: PRESSURE OUTPUT STEPS  100000
Info: ALCHEMICAL FEP ON
Info: FEP CURRENT LAMBDA VALUE     0
Info: FEP COMPARISON LAMBDA VALUE  0.05
Info: FEP INTRA-ALCHEMICAL NON-BONDED INTERACTIONS WILL BE RETAINED
Info: FEP INTRA-ALCHEMICAL BONDED INTERACTIONS WILL BE RETAINED
Info: FEP VDW SHIFTING COEFFICIENT 5
Info: FEP ELEC. ACTIVE FOR ANNIHILATED PARTICLES BETWEEN LAMBDA = 0 AND LAMBDA = 0.5
Info: FEP ELEC. ACTIVE FOR EXNIHILATED PARTICLES BETWEEN LAMBDA = 0.5 AND LAMBDA = 1
Info: FEP VDW ACTIVE FOR ANNIHILATED PARTICLES BETWEEN LAMBDA = 0 AND LAMBDA = 1
Info: FEP VDW ACTIVE FOR EXNIHILATED PARTICLES BETWEEN LAMBDA = 0 AND LAMBDA = 1
Info: FEP BOND ACTIVE FOR ANNIHILATED PARTICLES BETWEEN LAMBDA = 1 AND LAMBDA = 1
Info: FEP BOND ACTIVE FOR EXNIHILATED PARTICLES BETWEEN LAMBDA = 0 AND LAMBDA = 0
Info: LANGEVIN DYNAMICS ACTIVE
Info: LANGEVIN TEMPERATURE   300
Info: LANGEVIN USING BBK INTEGRATOR
Info: LANGEVIN DAMPING COEFFICIENT IS 1 INVERSE PS
Info: LANGEVIN DYNAMICS APPLIED TO HYDROGENS
Info: LANGEVIN PISTON PRESSURE CONTROL ACTIVE
Info:        TARGET PRESSURE IS 1.01325 BAR
Info:     OSCILLATION PERIOD IS 50 FS
Info:             DECAY TIME IS 25 FS
Info:     PISTON TEMPERATURE IS 300 K
Info:       PRESSURE CONTROL IS GROUP-BASED
Info:    INITIAL STRAIN RATE IS 3.4406e-06 3.4406e-06 3.4406e-06
Info:       CELL FLUCTUATION IS ISOTROPIC
Info: PARTICLE MESH EWALD (PME) ACTIVE
Info: PME TOLERANCE               1e-06
Info: PME EWALD COEFFICIENT       0.348832
Info: PME INTERPOLATION ORDER     4
Info: PME GRID DIMENSIONS         32 32 36
Info: PME MAXIMUM GRID SPACING    1
Info: PME CALCULATION WILL BE PERFORMED ON GPU
Info: FULL ELECTROSTATIC EVALUATION FREQUENCY      2
Info: USING VERLET I (r-RESPA) MTS SCHEME.
Info: C1 SPLITTING OF LONG RANGE ELECTROSTATICS
Info: PLACING ATOMS IN PATCHES BY HYDROGEN GROUPS
Info: RIGID BONDS TO HYDROGEN : ALL
Info:         ERROR TOLERANCE : 1e-08
Info:          MAX ITERATIONS : 100
Info: RIGID WATER USING SETTLE ALGORITHM
Info: RANDOM NUMBER SEED     1743891448
Info: USE HYDROGEN BONDS?    NO
Info: Using AMBER format force field!
Info: AMBER PARM FILE        mobley_4479135.prmtop
Info: COORDINATE PDB         mobley_4479135.pdb
Info: Exclusions will be read from PARM file!
Info: SCNB (VDW SCALING)     2
Info: USING ARITHMETIC MEAN TO COMBINE L-J SIGMA PARAMETERS
Info: BINARY COORDINATES     mobley_4479135_equil.coor
Info: SUMMARY OF PARAMETERS:
Info: 7 BONDS
Info: 7 ANGLES
Info:   7 HARMONIC
Info:   0 COSINE-BASED
Info: 4 DIHEDRAL
Info: 0 IMPROPER
Info: 0 CROSSTERM
Info: 0 VDW
Info: 10 VDW_PAIRS
Info: 0 NBTHOLE_PAIRS
Info: To read alchdata from file: mobley_4479135.pdb
Info: To read alchflag data from column: 5
Info: STRUCTURE SUMMARY:
Info: 2990 ATOMS
Info: 2991 BONDS
Info: 42 ANGLES
Info: 74 DIHEDRALS
Info: 0 IMPROPERS
Info: 0 CROSSTERMS
Info: 3087 EXCLUSIONS
Info: 2976 RIGID BONDS
Info: ALCH: 0 ATOMS TO DISAPPEAR IN FINAL STATE
Info: ALCH: 26 ATOMS TO APPEAR IN FINAL STATE
Info: 5994 DEGREES OF FREEDOM
Info: 1002 HYDROGEN GROUPS
Info: 3 ATOMS IN LARGEST HYDROGEN GROUP
Info: 1002 MIGRATION GROUPS
Info: 3 ATOMS IN LARGEST MIGRATION GROUP
Info: TOTAL MASS = 17980 amu
Info: TOTAL CHARGE = 0.00040002 e
Info: MASS DENSITY = 0.976912 g/cm^3
Info: ATOM DENSITY = 0.0978311 atoms/A^3
Info: ADDED 0 IMPLICIT EXCLUSIONS
Info: NONBONDED TABLE R-SQUARED SPACING: 0.0625
Info: NONBONDED TABLE SIZE: 705 POINTS
Info: REMOVING COM VELOCITY 0.134496 0.0811319 0.0477826
Info: Use 3D box decompostion in PME FFT.
Info: Updated CUDA force table with 4096 elements.
Info: Updated CUDA LJ table with 4 x 4 elements.
Info: Found 21 unique exclusion lists needing 72 bytes
TCL: Running for 1500000 steps
ETITLE: TS BOND ANGLE DIHED IMPRP ELECT VDW BOUNDARY MISC KINETIC TOTAL TEMP POTENTIAL TOTALAVG TEMPAVG PRESSURE GPRESSURE VOLUME PRESSAVG GPRESSAVG
ENERGY: 0 4.7173 8.2645 11.8308 0.0000 -10745.4924 1419.4995 0.0000 0.0000 1742.6414 -7558.5389 292.6050 -9301.1803 -7558.5389 292.6050 -428.9326 -342.1649 30562.8922 -428.9326 -342.1649
ENERGY: 300000 4.4714 8.7526 10.3729 0.0000 -10860.1830 1526.2216 0.0000 0.0000 1786.4165 -7523.9480 299.9552 -9310.3645 -7504.2051 298.4263 676.9726 824.7224 30308.7643 -218.5386 -123.4408
ENERGY: 600000 2.3087 5.6452 17.3053 0.0000 -10668.7940 1442.0251 0.0000 0.0000 1801.6670 -7399.8426 302.5159 -9201.5096 -7495.7621 299.5617 183.2310 268.7678 30609.0888 -101.3221 -6.9454
ENERGY: 900000 1.8988 3.5662 8.9708 0.0000 -10841.9835 1480.6600 0.0000 0.0000 1780.3535 -7566.5341 298.9371 -9346.8876 -7499.4786 299.0343 171.5254 243.4086 30274.8543 48.0247 126.3628
ENERGY: 1200000 5.7614 6.9698 9.5129 0.0000 -10778.3722 1419.5341 0.0000 0.0000 1798.0523 -7538.5417 301.9089 -9336.5940 -7500.5371 300.4467 -322.7921 -217.5135 30236.1841 16.3562 100.2326
ENERGY: 1500000 6.8280 5.2592 10.8989 0.0000 -10708.1365 1402.2574 0.0000 0.0000 1782.2148 -7500.6782 299.2497 -9282.8930 -7498.0683 300.1619 -460.0302 -350.7288 30664.1025 -31.1279 52.4674
TCL: Running FEP window   2: Lambda1 0.05   Lambda2 0.1    [dLambda 0.05  ]
TCL: Setting parameter firsttimestep to 0
TCL: Setting parameter alchLambda to 0.05
Info: NONBONDED TABLE R-SQUARED SPACING: 0.0625
Info: NONBONDED TABLE SIZE: 705 POINTS
TCL: Setting parameter alchLambda2 to 0.1
Info: NONBONDED TABLE R-SQUARED SPACING: 0.0625
Info: NONBONDED TABLE SIZE: 705 POINTS
TCL: Running for 1500000 steps
ETITLE: TS BOND ANGLE DIHED IMPRP ELECT VDW BOUNDARY MISC KINETIC TOTAL TEMP POTENTIAL TOTALAVG TEMPAVG PRESSURE GPRESSURE VOLUME PRESSAVG GPRESSAVG
ENERGY: 0 6.8280 5.2592 10.8989 0.0000 -10708.1345 1410.0733 0.0000 0.0000 1781.3236 -7493.7514 299.1000 -9275.0751 -7493.7514 299.1000 -424.3469 -340.4728 30664.1025 -424.3469 -340.4728
ENERGY: 300000 3.5239 5.7173 7.6725 0.0000 -10747.3630 1446.0399 0.0000 0.0000 1800.6915 -7483.7179 302.3521 -9284.4094 -7484.1164 301.0164 4.7900 109.9197 30266.1649 -144.6505 -68.1166
ENERGY: 600000 4.8803 8.2375 12.5814 0.0000 -10814.8688 1462.5924 0.0000 0.0000 1717.5531 -7609.0241 288.3924 -9326.5773 -7491.0884 300.5879 -12.4085 64.5434 30617.0461 -0.8909 70.9185
ENERGY: 900000 3.8904 5.0234 16.8261 0.0000 -10711.8274 1434.0457 0.0000 0.0000 1726.3161 -7525.7256 289.8638 -9252.0417 -7495.6664 300.3957 -181.6659 -126.9499 30720.7238 -82.1236 -20.9598
ENERGY: 1200000 6.2805 5.4320 15.0440 0.0000 -10783.8957 1452.6563 0.0000 0.0000 1756.4154 -7548.0675 294.9177 -9304.4829 -7500.3074 300.2877 -173.6656 -184.3488 30505.6500 -109.4816 -59.1526
ENERGY: 1500000 5.4104 9.6395 9.9672 0.0000 -10841.5476 1546.6306 0.0000 0.0000 1742.8521 -7527.0479 292.6403 -9269.8999 -7507.1659 300.3871 777.4906 949.7687 30056.8869 -128.9897 -68.2075
TCL: Running FEP window   3: Lambda1 0.1    Lambda2 0.15000000000000002 [dLambda 0.05000000000000002]
TCL: Setting parameter firsttimestep to 0
TCL: Setting parameter alchLambda to 0.1
Info: NONBONDED TABLE R-SQUARED SPACING: 0.0625
Info: NONBONDED TABLE SIZE: 705 POINTS
TCL: Setting parameter alchLambda2 to 0.15000000000000002
Info: NONBONDED TABLE R-SQUARED SPACING: 0.0625
Info: NONBONDED TABLE SIZE: 705 POINTS
TCL: Running for 1500000 steps
ETITLE: TS BOND ANGLE DIHED IMPRP ELECT VDW BOUNDARY MISC KINETIC TOTAL TEMP POTENTIAL TOTALAVG TEMPAVG PRESSURE GPRESSURE VOLUME PRESSAVG GPRESSAVG
ENERGY: 0 5.4104 9.6395 9.9672 0.0000 -10841.5469 1553.1664 0.0000 0.0000 1741.9716 -7521.3918 292.4925 -9263.3634 -7521.3918 292.4925 882.7287 969.7294 30056.8869 882.7287 969.7294
ENERGY: 300000 4.3414 6.9918 12.0282 0.0000 -10818.3597 1486.8493 0.0000 0.0000 1804.7026 -7503.4463 303.0256 -9308.1489 -7526.3928 300.2520 177.9161 203.0188 30499.3466 217.5061 277.4283
ENERGY: 600000 6.0652 6.6294 10.6423 0.0000 -10752.5653 1455.0797 0.0000 0.0000 1740.7918 -7533.3569 292.2944 -9274.1487 -7539.7042 297.2909 262.7993 311.4072 30350.6605 154.6639 226.1242
ENERGY: 900000 3.5346 4.1331 11.3927 0.0000 -10860.1035 1535.6157 0.0000 0.0000 1761.6698 -7543.7576 295.8000 -9305.4274 -7546.5491 295.8674 792.8917 858.6675 30096.2773 121.6308 189.7727
ENERGY: 1200000 1.2240 7.5096 9.3780 0.0000 -10912.2983 1609.4874 0.0000 0.0000 1831.1111 -7453.5883 307.4598 -9284.6993 -7533.2282 297.6599 948.8911 1046.0270 30768.2212 96.0079 161.6089
ENERGY: 1500000 7.4501 3.9670 13.2006 0.0000 -10803.0182 1486.8532 0.0000 0.0000 1806.7202 -7484.8271 303.3643 -9291.5472 -7527.6064 298.6519 81.0855 144.1960 30725.0048 -88.6870 -24.0108
TCL: Running FEP window   4: Lambda1 0.15000000000000002 Lambda2 0.2    [dLambda 0.04999999999999999]
TCL: Setting parameter firsttimestep to 0
TCL: Setting parameter alchLambda to 0.15000000000000002
Info: NONBONDED TABLE R-SQUARED SPACING: 0.0625
Info: NONBONDED TABLE SIZE: 705 POINTS
TCL: Setting parameter alchLambda2 to 0.2
Info: NONBONDED TABLE R-SQUARED SPACING: 0.0625
Info: NONBONDED TABLE SIZE: 705 POINTS
TCL: Running for 1500000 steps
ETITLE: TS BOND ANGLE DIHED IMPRP ELECT VDW BOUNDARY MISC KINETIC TOTAL TEMP POTENTIAL TOTALAVG TEMPAVG PRESSURE GPRESSURE VOLUME PRESSAVG GPRESSAVG
ENERGY: 0 7.4502 3.9670 13.2006 0.0000 -10803.0192 1487.4122 0.0000 0.0000 1805.8854 -7485.1038 303.2242 -9290.9892 -7485.1038 303.2242 70.7729 150.4440 30725.0048 70.7729 150.4440
ENERGY: 300000 5.2142 7.6509 8.5721 0.0000 -10921.2966 1561.3465 0.0000 0.0000 1789.4844 -7549.0285 300.4703 -9338.5129 -7513.5106 299.9442 523.2797 602.9387 30469.3332 33.8821 124.7833
ENERGY: 600000 2.6461 7.9191 12.6170 0.0000 -10754.5932 1459.0525 0.0000 0.0000 1779.3043 -7493.0542 298.7610 -9272.3585 -7523.6403 299.0091 -132.9014 -82.7278 30850.6958 -132.8334 -46.2431
ENERGY: 900000 2.9807 6.2145 9.7405 0.0000 -10686.9574 1391.8906 0.0000 0.0000 1754.6086 -7521.5225 294.6143 -9276.1310 -7535.0172 298.4136 -565.9446 -477.6756 30701.4995 -156.8034 -69.6370
ENERGY: 1200000 1.4099 8.5177 16.9537 0.0000 -10697.8878 1360.9836 0.0000 0.0000 1782.1570 -7527.8658 299.2400 -9310.0229 -7526.8562 298.4538 -1101.8147 -1013.0517 31061.5953 -246.8844 -161.0161
ENERGY: 1500000 2.0128 6.4033 14.8431 0.0000 -10791.9093 1440.1023 0.0000 0.0000 1782.8741 -7545.6738 299.3604 -9328.5479 -7522.9719 299.1696 -394.9258 -264.3721 30802.2600 -271.9520 -188.6279
TCL: Running FEP window   5: Lambda1 0.2    Lambda2 0.25   [dLambda 0.04999999999999999]
TCL: Setting parameter firsttimestep to 0
TCL: Setting parameter alchLambda to 0.2
Info: NONBONDED TABLE R-SQUARED SPACING: 0.0625
Info: NONBONDED TABLE SIZE: 705 POINTS
TCL: Setting parameter alchLambda2 to 0.25
Info: NONBONDED TABLE R-SQUARED SPACING: 0.0625
Info: NONBONDED TABLE SIZE: 705 POINTS
TCL: Running for 1500000 steps
ETITLE: TS BOND ANGLE DIHED IMPRP ELECT VDW BOUNDARY MISC KINETIC TOTAL TEMP POTENTIAL TOTALAVG TEMPAVG PRESSURE GPRESSURE VOLUME PRESSAVG GPRESSAVG
ENERGY: 0 2.0128 6.4033 14.8431 0.0000 -10791.9068 1439.7608 0.0000 0.0000 1782.0089 -7546.8780 299.2151 -9328.8869 -7546.8780 299.2151 -346.9154 -259.7939 30802.2600 -346.9154 -259.7939
ENERGY: 300000 3.7942 6.7588 10.4790 0.0000 -10818.1616 1467.6681 0.0000 0.0000 1797.2387 -7532.2229 301.7723 -9329.4616 -7483.1777 301.4879 -18.0851 40.7675 30760.9729 -121.4466 -54.2527
ENERGY: 600000 2.4420 8.6743 16.6605 0.0000 -10829.6686 1484.9876 0.0000 0.0000 1776.8861 -7540.0181 298.3549 -9316.9042 -7499.5316 300.5505 176.6855 219.9464 30627.8095 -152.4450 -85.6537
ENERGY: 900000 5.2772 6.2362 11.1107 0.0000 -10810.9377 1469.3809 0.0000 0.0000 1809.6050 -7509.3277 303.8487 -9318.9327 -7513.8006 300.1505 -2.0489 106.0135 30865.2154 -218.9527 -144.0491
ENERGY: 1200000 4.4320 7.1032 14.6445 0.0000 -10919.9708 1570.1067 0.0000 0.0000 1761.0180 -7562.6664 295.6905 -9323.6844 -7512.7161 300.5500 1079.2596 1082.8284 30212.1446 -137.6912 -65.7186
ENERGY: 1500000 5.9088 7.3994 11.2143 0.0000 -10900.1807 1538.8476 0.0000 0.0000 1749.9790 -7586.8315 293.8370 -9336.8105 -7517.5214 300.4922 511.5416 542.7080 30392.9041 -27.2320 41.9136
TCL: Running FEP window   6: Lambda1 0.25   Lambda2 0.3    [dLambda 0.04999999999999999]
TCL: Setting parameter firsttimestep to 0
TCL: Setting parameter alchLambda to 0.25
Info: NONBONDED TABLE R-SQUARED SPACING: 0.0625
Info: NONBONDED TABLE SIZE: 705 POINTS
TCL: Setting parameter alchLambda2 to 0.3
Info: NONBONDED TABLE R-SQUARED SPACING: 0.0625
Info: NONBONDED TABLE SIZE: 705 POINTS
TCL: Running for 1500000 steps
ETITLE: TS BOND ANGLE DIHED IMPRP ELECT VDW BOUNDARY MISC KINETIC TOTAL TEMP POTENTIAL TOTALAVG TEMPAVG PRESSURE GPRESSURE VOLUME PRESSAVG GPRESSAVG
ENERGY: 0 5.9088 7.3994 11.2143 0.0000 -10900.1802 1539.1895 0.0000 0.0000 1749.0678 -7587.4004 293.6840 -9336.4682 -7587.4004 293.6840 465.6549 550.0324 30392.9041 465.6549 550.0324
ENERGY: 300000 5.3834 5.8863 11.3102 0.0000 -10765.3430 1536.1657 0.0000 0.0000 1766.2890 -7440.3083 296.5756 -9206.5974 -7521.3289 297.3529 1060.6283 1059.2466 30640.2940 249.5431 333.4715
ENERGY: 600000 2.5940 9.1617 10.2163 0.0000 -10806.2251 1464.7457 0.0000 0.0000 1785.7451 -7533.7621 299.8425 -9319.5073 -7500.9444 297.8187 117.8754 171.6422 30482.2415 163.6015 216.8350
ENERGY: 900000 4.6424 5.3990 11.0903 0.0000 -10812.2832 1449.8598 0.0000 0.0000 1733.2774 -7608.0144 291.0326 -9341.2917 -7490.8691 298.4231 -221.1673 -157.5052 30581.5973 203.9496 257.3628
ENERGY: 1200000 3.3711 4.5258 13.0524 0.0000 -10763.2461 1435.6566 0.0000 0.0000 1812.4511 -7494.1891 304.3266 -9306.6402 -7494.0418 300.0836 -53.9450 38.2268 30255.2520 34.2196 96.4795
ENERGY: 1500000 4.5761 7.7502 12.4073 0.0000 -10812.2157 1436.7171 0.0000 0.0000 1773.5184 -7577.2465 297.7895 -9350.7650 -7499.7051 300.2253 -276.9542 -188.6506 30511.0992 99.9098 160.1692
TCL: Running FEP window   7: Lambda1 0.3    Lambda2 0.35   [dLambda 0.04999999999999999]
TCL: Setting parameter firsttimestep to 0
TCL: Setting parameter alchLambda to 0.3
Info: NONBONDED TABLE R-SQUARED SPACING: 0.0625
Info: NONBONDED TABLE SIZE: 705 POINTS
TCL: Setting parameter alchLambda2 to 0.35
Info: NONBONDED TABLE R-SQUARED SPACING: 0.0625
Info: NONBONDED TABLE SIZE: 705 POINTS
TCL: Running for 1500000 steps
ETITLE: TS BOND ANGLE DIHED IMPRP ELECT VDW BOUNDARY MISC KINETIC TOTAL TEMP POTENTIAL TOTALAVG TEMPAVG PRESSURE GPRESSURE VOLUME PRESSAVG GPRESSAVG
ENERGY: 0 4.5761 7.7502 12.4073 0.0000 -10812.2152 1437.0665 0.0000 0.0000 1772.5911 -7577.8241 297.6338 -9350.4152 -7577.8241 297.6338 -271.8656 -179.3613 30511.0992 -271.8656 -179.3613
ENERGY: 300000 7.5318 7.9396 13.4338 0.0000 -10761.4117 1441.1291 0.0000 0.0000 1732.9510 -7558.4263 290.9779 -9291.3773 -7551.6092 297.8441 -416.3214 -323.5432 30667.8860 -272.7117 -209.1170
ENERGY: 600000 6.5596 7.3095 12.7414 0.0000 -10686.5017 1358.2808 0.0000 0.0000 1775.4846 -7526.1258 298.1196 -9301.6103 -7530.7437 299.7048 -1166.9670 -1082.8404 31244.7777 -299.8821 -240.4756
ENERGY: 900000 7.4913 6.8390 15.2671 0.0000 -10874.6503 1418.2385 0.0000 0.0000 1857.0329 -7569.7815 311.8123 -9426.8144 -7522.6049 300.7934 -552.7397 -487.4760 30725.3668 -245.1528 -181.7719
ENERGY: 1200000 3.3626 5.0105 9.9083 0.0000 -10788.0672 1530.0804 0.0000 0.0000 1787.0981 -7452.6073 300.0696 -9239.7055 -7516.7020 300.8774 744.9443 778.4747 30708.1973 -157.1229 -94.9974
ENERGY: 1500000 3.0168 7.1992 10.5196 0.0000 -10833.2965 1464.1606 0.0000 0.0000 1791.7836 -7556.6168 300.8564 -9348.4004 -7515.6731 300.7154 -163.8993 -96.4582 30867.2953 -107.6653 -48.3849
TCL: Running FEP window   8: Lambda1 0.35   Lambda2 0.39999999999999997 [dLambda 0.04999999999999999]
TCL: Setting parameter firsttimestep to 0
TCL: Setting parameter alchLambda to 0.35
Info: NONBONDED TABLE R-SQUARED SPACING: 0.0625
Info: NONBONDED TABLE SIZE: 705 POINTS
TCL: Setting parameter alchLambda2 to 0.39999999999999997
Info: NONBONDED TABLE R-SQUARED SPACING: 0.0625
Info: NONBONDED TABLE SIZE: 705 POINTS
TCL: Running for 1500000 steps
ETITLE: TS BOND ANGLE DIHED IMPRP ELECT VDW BOUNDARY MISC KINETIC TOTAL TEMP POTENTIAL TOTALAVG TEMPAVG PRESSURE GPRESSURE VOLUME PRESSAVG GPRESSAVG
ENERGY: 0 3.0168 7.1992 10.5196 0.0000 -10833.2945 1464.4899 0.0000 0.0000 1790.9200 -7557.1490 300.7114 -9348.0691 -7557.1490 300.7114 -160.1505 -87.3599 30867.2953 -160.1505 -87.3599
ENERGY: 300000 2.7541 4.4810 13.0733 0.0000 -10826.7790 1478.6325 0.0000 0.0000 1793.4614 -7534.3766 301.1381 -9327.8380 -7546.7670 299.2786 -96.6954 -56.7427 31146.1755 -88.5479 -23.4551
ENERGY: 600000 3.9827 6.4193 18.0318 0.0000 -10730.9606 1420.6119 0.0000 0.0000 1797.4293 -7484.4856 301.8043 -9281.9149 -7537.1705 299.4002 -297.8071 -230.7337 30693.6324 -144.5230 -72.8099
ENERGY: 900000 3.8130 6.9648 10.9941 0.0000 -10702.7029 1378.0485 0.0000 0.0000 1754.0803 -7548.8023 294.5256 -9302.8826 -7533.8898 298.9627 -530.4460 -479.2711 30754.3407 -243.1528 -179.4566
ENERGY: 1200000 5.3083 7.5687 10.3822 0.0000 -10782.5038 1484.3663 0.0000 0.0000 1778.6893 -7496.1890 298.6577 -9274.8783 -7528.9211 299.5258 110.3361 169.5344 30880.1654 -163.1251 -99.3532
ENERGY: 1500000 3.1605 4.1809 16.6076 0.0000 -10716.6263 1389.9669 0.0000 0.0000 1779.5017 -7523.2088 298.7941 -9302.7104 -7533.1939 299.3519 -505.4840 -436.0602 30612.4418 -202.2067 -137.5370
TCL: Running FEP window   9: Lambda1 0.39999999999999997 Lambda2 0.44999999999999996 [dLambda 0.04999999999999999]
TCL: Setting parameter firsttimestep to 0
TCL: Setting parameter alchLambda to 0.39999999999999997
Info: NONBONDED TABLE R-SQUARED SPACING: 0.0625
Info: NONBONDED TABLE SIZE: 705 POINTS
TCL: Setting parameter alchLambda2 to 0.44999999999999996
Info: NONBONDED TABLE R-SQUARED SPACING: 0.0625
Info: NONBONDED TABLE SIZE: 705 POINTS
TCL: Running for 1500000 steps
ETITLE: TS BOND ANGLE DIHED IMPRP ELECT VDW BOUNDARY MISC KINETIC TOTAL TEMP POTENTIAL TOTALAVG TEMPAVG PRESSURE GPRESSURE VOLUME PRESSAVG GPRESSAVG
ENERGY: 0 3.1605 4.1809 16.6076 0.0000 -10716.6262 1390.0237 0.0000 0.0000 1778.6338 -7524.0197 298.6484 -9302.6535 -7524.0197 298.6484 -517.6639 -426.3407 30612.4418 -517.6639 -426.3407
ENERGY: 300000 3.9092 7.0387 11.2823 0.0000 -10889.2549 1495.3929 0.0000 0.0000 1822.9086 -7548.7232 306.0825 -9371.6318 -7517.5766 300.0976 170.7741 211.6337 30811.6637 -116.3621 -39.2873
ENERGY: 600000 3.8102 5.1420 7.8842 0.0000 -10730.4210 1428.4414 0.0000 0.0000 1725.2588 -7559.8844 289.6863 -9285.1432 -7520.3351 299.9971 -312.2257 -192.6758 30865.6490 -234.2575 -158.4086
ENERGY: 900000 2.3745 8.7442 11.2353 0.0000 -10706.0260 1468.0518 0.0000 0.0000 1794.4836 -7421.1366 301.3097 -9215.6202 -7510.3373 299.1232 318.7196 395.5168 30852.7162 -176.0096 -93.9194
ENERGY: 1200000 7.6203 6.3793 13.6470 0.0000 -10764.9810 1489.7839 0.0000 0.0000 1747.6800 -7499.8705 293.4510 -9247.5505 -7519.1625 298.3357 217.7947 266.1596 30930.8871 -74.7657 1.8657
ENERGY: 1500000 6.4365 10.9350 9.6149 0.0000 -10678.6442 1389.5597 0.0000 0.0000 1749.9155 -7512.1826 293.8263 -9262.0981 -7520.9004 298.1080 -475.6827 -394.3857 30690.7013 -158.7398 -77.1358
TCL: Running FEP window  10: Lambda1 0.44999999999999996 Lambda2 0.49999999999999994 [dLambda 0.04999999999999999]
TCL: Setting parameter firsttimestep to 0
TCL: Setting parameter alchLambda to 0.44999999999999996
Info: NONBONDED TABLE R-SQUARED SPACING: 0.0625
Info: NONBONDED TABLE SIZE: 705 POINTS
TCL: Setting parameter alchLambda2 to 0.49999999999999994
Info: NONBONDED TABLE R-SQUARED SPACING: 0.0625
Info: NONBONDED TABLE SIZE: 705 POINTS
TCL: Running for 1500000 steps
ETITLE: TS BOND ANGLE DIHED IMPRP ELECT VDW BOUNDARY MISC KINETIC TOTAL TEMP POTENTIAL TOTALAVG TEMPAVG PRESSURE GPRESSURE VOLUME PRESSAVG GPRESSAVG
ENERGY: 0 6.4365 10.9350 9.6149 0.0000 -10678.6451 1388.8983 0.0000 0.0000 1749.0252 -7513.7353 293.6768 -9262.7605 -7513.7353 293.6768 -462.1785 -391.1961 30690.7013 -462.1785 -391.1961
ENERGY: 300000 3.9281 6.2345 11.9564 0.0000 -10797.6799 1412.4569 0.0000 0.0000 1753.4463 -7609.6577 294.4192 -9363.1040 -7556.8217 299.4169 -752.2625 -730.8113 31435.0991 -163.6559 -111.9117
ENERGY: 600000 5.0490 9.4521 10.3460 0.0000 -10747.8441 1436.1428 0.0000 0.0000 1761.4975 -7525.3568 295.7711 -9286.8543 -7552.2408 299.5818 -144.7919 -70.8878 30747.6656 -289.9733 -241.2127
ENERGY: 900000 7.3367 8.1336 9.5932 0.0000 -10768.0257 1457.8985 0.0000 0.0000 1798.6143 -7486.4494 302.0033 -9285.0637 -7528.3585 299.2163 394.2311 470.3615 30538.7265 -296.8116 -238.8586
ENERGY: 1200000 4.7641 7.1343 14.1692 0.0000 -10865.4813 1536.7003 0.0000 0.0000 1775.8204 -7526.8930 298.1760 -9302.7134 -7539.0027 297.9345 585.9511 624.5884 30780.0555 -256.3965 -194.4065
ENERGY: 1500000 5.5895 4.7479 15.4764 0.0000 -10701.5788 1391.9490 0.0000 0.0000 1775.7510 -7508.0649 298.1644 -9283.8159 -7539.4285 298.0129 -491.9948 -409.8323 30476.2178 -226.4201 -164.5327
TCL: Running FEP window  11: Lambda1 0.49999999999999994 Lambda2 0.5499999999999999 [dLambda 0.04999999999999999]
TCL: Setting parameter firsttimestep to 0
TCL: Setting parameter alchLambda to 0.49999999999999994
Info: NONBONDED TABLE R-SQUARED SPACING: 0.0625
Info: NONBONDED TABLE SIZE: 705 POINTS
TCL: Setting parameter alchLambda2 to 0.5499999999999999
Info: NONBONDED TABLE R-SQUARED SPACING: 0.0625
Info: NONBONDED TABLE SIZE: 705 POINTS
TCL: Running for 1500000 steps
ETITLE: TS BOND ANGLE DIHED IMPRP ELECT VDW BOUNDARY MISC KINETIC TOTAL TEMP POTENTIAL TOTALAVG TEMPAVG PRESSURE GPRESSURE VOLUME PRESSAVG GPRESSAVG
ENERGY: 0 5.5895 4.7479 15.4764 0.0000 -10701.5788 1392.1540 0.0000 0.0000 1774.8487 -7508.7623 298.0128 -9283.6110 -7508.7623 298.0128 -498.5432 -399.6881 30476.2178 -498.5432 -399.6881
ENERGY: 300000 3.5796 4.4466 12.1821 0.0000 -10853.3881 1543.2403 0.0000 0.0000 1847.2002 -7442.7394 310.1613 -9289.9395 -7528.3150 301.2693 805.3195 917.6505 30532.0528 176.4926 260.1762
ENERGY: 600000 4.4533 6.0707 13.6615 0.0000 -10625.6110 1355.5136 0.0000 0.0000 1754.9680 -7490.9439 294.6747 -9245.9119 -7507.0699 301.6555 -572.2268 -495.3610 31009.3286 3.8022 69.8828
ENERGY: 900000 4.7715 7.1860 9.3649 0.0000 -10864.7550 1455.5662 0.0000 0.0000 1774.5529 -7613.3136 297.9632 -9387.8665 -7526.1447 299.9491 -226.4805 -200.6289 30611.1073 -144.3017 -90.8653
ENERGY: 1200000 5.2392 5.8801 10.2362 0.0000 -10883.5870 1541.9588 0.0000 0.0000 1772.8419 -7547.4307 297.6759 -9320.2727 -7520.4358 300.3020 618.3109 771.5850 30438.0796 -6.2681 51.7126
ENERGY: 1500000 8.8250 10.6346 13.7669 0.0000 -10716.2510 1441.0975 0.0000 0.0000 1797.7656 -7444.1615 301.8608 -9241.9270 -7518.7267 300.4534 295.1278 380.2872 30191.8000 23.8239 82.1624
TCL: Running FEP window  12: Lambda1 0.5499999999999999 Lambda2 0.6    [dLambda 0.050000000000000044]
TCL: Setting parameter firsttimestep to 0
TCL: Setting parameter alchLambda to 0.5499999999999999
Info: NONBONDED TABLE R-SQUARED SPACING: 0.0625
Info: NONBONDED TABLE SIZE: 705 POINTS
TCL: Setting parameter alchLambda2 to 0.6
Info: NONBONDED TABLE R-SQUARED SPACING: 0.0625
Info: NONBONDED TABLE SIZE: 705 POINTS
TCL: Running for 1500000 steps
ETITLE: TS BOND ANGLE DIHED IMPRP ELECT VDW BOUNDARY MISC KINETIC TOTAL TEMP POTENTIAL TOTALAVG TEMPAVG PRESSURE GPRESSURE VOLUME PRESSAVG GPRESSAVG
ENERGY: 0 8.8250 10.6346 13.7669 0.0000 -10715.9753 1440.9208 0.0000 0.0000 1796.8694 -7444.9586 301.7103 -9241.8280 -7444.9586 301.7103 312.3923 388.2595 30191.8000 312.3923 388.2595
ENERGY: 300000 3.5738 6.6571 15.6377 0.0000 -10897.7652 1500.8140 0.0000 0.0000 1790.4800 -7580.6026 300.6375 -9371.0826 -7491.8806 300.9224 201.7320 342.8928 30564.5108 161.8245 237.1979
ENERGY: 600000 4.1423 9.2971 13.8994 0.0000 -10663.3021 1392.9327 0.0000 0.0000 1783.8676 -7459.1631 299.5272 -9243.0307 -7505.2337 300.6013 -243.1865 -176.7847 31245.8161 -126.8870 -49.0091
ENERGY: 900000 2.0962 6.0302 16.2425 0.0000 -10633.6968 1383.8203 0.0000 0.0000 1786.1374 -7439.3703 299.9083 -9225.5077 -7500.7050 299.8420 -332.8132 -330.6599 30834.8377 -178.6799 -109.1776
ENERGY: 1200000 2.9645 6.0904 12.8986 0.0000 -10620.6593 1383.0079 0.0000 0.0000 1802.5437 -7413.1542 302.6631 -9215.6978 -7495.9782 299.6690 -166.4788 -62.9541 30584.3405 -175.6932 -106.8965
ENERGY: 1500000 2.8605 7.2931 14.4923 0.0000 -10807.4859 1454.4825 0.0000 0.0000 1770.2698 -7558.0877 297.2440 -9328.3576 -7505.6144 299.9673 -15.8528 71.2581 31089.4585 -66.5271 1.8155
TCL: Running FEP window  13: Lambda1 0.6    Lambda2 0.65   [dLambda 0.050000000000000044]
TCL: Setting parameter firsttimestep to 0
TCL: Setting parameter alchLambda to 0.6
Info: NONBONDED TABLE R-SQUARED SPACING: 0.0625
Info: NONBONDED TABLE SIZE: 705 POINTS
TCL: Setting parameter alchLambda2 to 0.65
Info: NONBONDED TABLE R-SQUARED SPACING: 0.0625
Info: NONBONDED TABLE SIZE: 705 POINTS
TCL: Running for 1500000 steps
ETITLE: TS BOND ANGLE DIHED IMPRP ELECT VDW BOUNDARY MISC KINETIC TOTAL TEMP POTENTIAL TOTALAVG TEMPAVG PRESSURE GPRESSURE VOLUME PRESSAVG GPRESSAVG
ENERGY: 0 2.8605 7.2931 14.4924 0.0000 -10807.1521 1454.1056 0.0000 0.0000 1769.3921 -7559.0085 297.0966 -9328.4006 -7559.0085 297.0966 -4.2613 77.0601 31089.4585 -4.2613 77.0601
ENERGY: 300000 3.8770 6.8781 13.8283 0.0000 -10926.8839 1533.9351 0.0000 0.0000 1773.5160 -7594.8495 297.7891 -9368.3655 -7614.2455 295.6110 188.7793 292.8949 31044.9328 57.8128 99.4116
ENERGY: 600000 4.7674 5.3855 16.2116 0.0000 -10780.4350 1399.0238 0.0000 0.0000 1790.5290 -7564.5178 300.6457 -9355.0468 -7591.9194 299.4725 -646.1471 -593.8531 31110.3057 -143.1172 -86.4131
ENERGY: 900000 10.4026 7.4543 9.7742 0.0000 -10853.0547 1443.1736 0.0000 0.0000 1813.0415 -7569.2086 304.4258 -9382.2501 -7589.0954 299.0125 -221.3636 -172.6027 30163.2402 -243.0822 -184.4108
ENERGY: 1200000 4.7713 4.0822 7.2722 0.0000 -10835.1614 1520.8199 0.0000 0.0000 1798.1774 -7500.0385 301.9299 -9298.2159 -7581.7265 298.4973 449.6840 459.5729 30871.9087 -135.3025 -80.8719
ENERGY: 1500000 5.5835 6.6806 16.4566 0.0000 -10770.2005 1393.2072 0.0000 0.0000 1818.9342 -7529.3385 305.4152 -9348.2726 -7563.8877 299.0972 -521.2898 -493.6963 30755.1099 -192.1263 -138.3248
TCL: Running FEP window  14: Lambda1 0.65   Lambda2 0.7000000000000001 [dLambda 0.050000000000000044]
TCL: Setting parameter firsttimestep to 0
TCL: Setting parameter alchLambda to 0.65
Info: NONBONDED TABLE R-SQUARED SPACING: 0.0625
Info: NONBONDED TABLE SIZE: 705 POINTS
TCL: Setting parameter alchLambda2 to 0.7000000000000001
Info: NONBONDED TABLE R-SQUARED SPACING: 0.0625
Info: NONBONDED TABLE SIZE: 705 POINTS
TCL: Running for 1500000 steps
ETITLE: TS BOND ANGLE DIHED IMPRP ELECT VDW BOUNDARY MISC KINETIC TOTAL TEMP POTENTIAL TOTALAVG TEMPAVG PRESSURE GPRESSURE VOLUME PRESSAVG GPRESSAVG
ENERGY: 0 5.5835 6.6806 16.4566 0.0000 -10770.7446 1393.2169 0.0000 0.0000 1818.0479 -7530.7590 305.2664 -9348.8069 -7530.7590 305.2664 -575.4943 -483.2372 30755.1099 -575.4943 -483.2372
ENERGY: 300000 3.7949 6.9783 13.7696 0.0000 -10757.9824 1417.1781 0.0000 0.0000 1780.9796 -7535.2819 299.0423 -9316.2615 -7516.8146 302.7036 -312.1942 -192.0143 30593.2396 -67.6143 15.3215
ENERGY: 600000 6.0644 6.2401 15.5398 0.0000 -10884.4994 1549.2410 0.0000 0.0000 1806.1633 -7501.2508 303.2708 -9307.4141 -7517.4619 300.9413 651.3165 704.1553 31059.9403 12.3984 93.8407
ENERGY: 900000 5.7595 8.2379 15.9329 0.0000 -10896.2065 1478.7724 0.0000 0.0000 1789.1363 -7598.3676 300.4119 -9387.5039 -7538.8854 299.3169 -40.7281 25.1468 30621.7599 51.7298 124.8570
ENERGY: 1200000 5.8856 3.5576 10.1386 0.0000 -10766.2039 1417.8772 0.0000 0.0000 1712.3036 -7616.4414 287.5110 -9328.7449 -7544.1060 298.5479 -570.5858 -523.5514 30966.2014 45.7973 120.5184
ENERGY: 1500000 5.4301 9.2409 11.8769 0.0000 -10879.9901 1495.0382 0.0000 0.0000 1787.7754 -7570.6286 300.1834 -9358.4040 -7553.9197 297.7593 -15.8495 68.0209 30936.5572 35.9640 105.0399
TCL: Running FEP window  15: Lambda1 0.7000000000000001 Lambda2 0.7500000000000001 [dLambda 0.050000000000000044]
TCL: Setting parameter firsttimestep to 0
TCL: Setting parameter alchLambda to 0.7000000000000001
Info: NONBONDED TABLE R-SQUARED SPACING: 0.0625
Info: NONBONDED TABLE SIZE: 705 POINTS
TCL: Setting parameter alchLambda2 to 0.7500000000000001
Info: NONBONDED TABLE R-SQUARED SPACING: 0.0625
Info: NONBONDED TABLE SIZE: 705 POINTS
TCL: Running for 1500000 steps
ETITLE: TS BOND ANGLE DIHED IMPRP ELECT VDW BOUNDARY MISC KINETIC TOTAL TEMP POTENTIAL TOTALAVG TEMPAVG PRESSURE GPRESSURE VOLUME PRESSAVG GPRESSAVG
ENERGY: 0 5.4301 9.2409 11.8769 0.0000 -10880.6746 1494.4651 0.0000 0.0000 1786.9446 -7572.7171 300.0439 -9359.6617 -7572.7171 300.0439 -14.2666 74.2014 30936.5572 -14.2666 74.2014
ENERGY: 300000 5.8890 8.3917 13.9420 0.0000 -10698.0434 1451.0678 0.0000 0.0000 1791.4867 -7427.2663 300.8065 -9218.7530 -7511.3114 299.9164 187.4769 204.6294 31083.3889 -182.9919 -107.9026
ENERGY: 600000 8.5894 7.2125 14.9766 0.0000 -10733.3896 1391.3910 0.0000 0.0000 1804.0616 -7507.1585 302.9180 -9311.2201 -7524.9966 299.8690 -744.5301 -682.6644 30847.9267 -325.9147 -256.3146
ENERGY: 900000 5.2055 4.0997 6.3419 0.0000 -10689.2789 1432.3116 0.0000 0.0000 1768.1638 -7473.1563 296.8904 -9241.3201 -7504.4971 301.0267 59.5891 97.7876 30811.8835 -327.0353 -267.7699
ENERGY: 1200000 3.1983 5.0606 12.4220 0.0000 -10812.1319 1397.2539 0.0000 0.0000 1730.4552 -7663.7418 290.5588 -9394.1970 -7523.2267 299.3572 -760.1348 -681.6199 30855.6688 -347.0218 -285.3594
ENERGY: 1500000 4.4820 9.5592 10.8213 0.0000 -10726.1909 1418.2720 0.0000 0.0000 1780.7701 -7502.2863 299.0071 -9283.0564 -7527.1694 298.9098 -390.6162 -338.0117 31217.0945 -407.9801 -346.4489
TCL: Running FEP window  16: Lambda1 0.7500000000000001 Lambda2 0.8000000000000002 [dLambda 0.050000000000000044]
TCL: Setting parameter firsttimestep to 0
TCL: Setting parameter alchLambda to 0.7500000000000001
Info: NONBONDED TABLE R-SQUARED SPACING: 0.0625
Info: NONBONDED TABLE SIZE: 705 POINTS
TCL: Setting parameter alchLambda2 to 0.8000000000000002
Info: NONBONDED TABLE R-SQUARED SPACING: 0.0625
Info: NONBONDED TABLE SIZE: 705 POINTS
TCL: Running for 1500000 steps
ETITLE: TS BOND ANGLE DIHED IMPRP ELECT VDW BOUNDARY MISC KINETIC TOTAL TEMP POTENTIAL TOTALAVG TEMPAVG PRESSURE GPRESSURE VOLUME PRESSAVG GPRESSAVG
ENERGY: 0 4.4820 9.5592 10.8213 0.0000 -10727.1371 1418.9712 0.0000 0.0000 1779.8704 -7503.4330 298.8560 -9283.3034 -7503.4330 298.8560 -397.5655 -316.8641 31217.0945 -397.5655 -316.8641
ENERGY: 300000 4.9072 5.7453 11.9958 0.0000 -10966.8531 1462.4845 0.0000 0.0000 1734.6224 -7747.0978 291.2585 -9481.7202 -7569.8295 299.0916 -302.2414 -236.2288 30384.1553 -273.1367 -193.7337
ENERGY: 600000 5.5612 5.1723 13.2100 0.0000 -10899.0261 1504.0253 0.0000 0.0000 1767.8574 -7603.1999 296.8389 -9371.0573 -7550.1010 298.2584 291.6356 297.3190 30498.7409 8.4429 72.6207
ENERGY: 900000 4.3088 7.7178 10.6140 0.0000 -10927.1695 1468.3322 0.0000 0.0000 1727.6783 -7708.5184 290.0925 -9436.1967 -7569.4995 297.5595 -174.7673 -137.0932 30315.8110 53.3682 120.2590
ENERGY: 1200000 8.9718 6.5163 13.3508 0.0000 -10858.5849 1471.2000 0.0000 0.0000 1762.2732 -7596.2726 295.9013 -9358.5459 -7570.1433 297.6783 31.3296 66.4176 30505.7857 57.3823 122.0023
ENERGY: 1500000 4.5473 4.5725 14.0281 0.0000 -10824.3486 1443.0112 0.0000 0.0000 1825.4346 -7532.7549 306.5067 -9358.1895 -7554.3521 299.1275 -114.5037 -45.2493 30335.4699 3.1466 68.9403
TCL: Running FEP window  17: Lambda1 0.8000000000000002 Lambda2 0.8500000000000002 [dLambda 0.050000000000000044]
TCL: Setting parameter firsttimestep to 0
TCL: Setting parameter alchLambda to 0.8000000000000002
Info: NONBONDED TABLE R-SQUARED SPACING: 0.0625
Info: NONBONDED TABLE SIZE: 705 POINTS
TCL: Setting parameter alchLambda2 to 0.8500000000000002
Info: NONBONDED TABLE R-SQUARED SPACING: 0.0625
Info: NONBONDED TABLE SIZE: 705 POINTS
TCL: Running for 1500000 steps
ETITLE: TS BOND ANGLE DIHED IMPRP ELECT VDW BOUNDARY MISC KINETIC TOTAL TEMP POTENTIAL TOTALAVG TEMPAVG PRESSURE GPRESSURE VOLUME PRESSAVG GPRESSAVG
ENERGY: 0 4.5473 4.5725 14.0281 0.0000 -10824.9487 1443.7677 0.0000 0.0000 1824.5193 -7533.5138 306.3530 -9358.0331 -7533.5138 306.3530 -110.3056 -19.5799 30335.4699 -110.3056 -19.5799
ENERGY: 300000 5.0448 6.0050 15.1508 0.0000 -10780.0105 1427.1659 0.0000 0.0000 1747.1711 -7579.4730 293.3655 -9326.6440 -7536.8108 300.1149 -730.7593 -694.5722 31523.5188 -127.6865 -60.4697
ENERGY: 600000 3.8564 6.6215 10.9226 0.0000 -10643.0452 1340.3218 0.0000 0.0000 1854.4686 -7426.8542 311.3817 -9281.3228 -7526.1147 301.8391 -659.5041 -583.9156 30671.6147 -88.7944 -28.0453
ENERGY: 900000 4.9551 10.5295 13.6518 0.0000 -10798.7878 1410.0350 0.0000 0.0000 1867.0767 -7492.5398 313.4987 -9359.6164 -7536.6429 301.7030 -221.6645 -164.3919 30396.2993 -50.0555 13.1340
ENERGY: 1200000 8.3285 6.5206 12.0318 0.0000 -10823.0322 1503.6480 0.0000 0.0000 1795.2791 -7497.2242 301.4433 -9292.5033 -7526.4970 302.3300 407.5558 461.8595 30658.3424 -34.0551 34.9808
ENERGY: 1500000 2.4898 5.2324 10.3731 0.0000 -10918.1481 1506.2738 0.0000 0.0000 1761.7698 -7632.0091 295.8168 -9393.7789 -7525.4580 302.4673 535.5133 515.3741 30377.4342 -40.1574 24.8316
TCL: Running FEP window  18: Lambda1 0.8500000000000002 Lambda2 0.9000000000000002 [dLambda 0.050000000000000044]
TCL: Setting parameter firsttimestep to 0
TCL: Setting parameter alchLambda to 0.8500000000000002
Info: NONBONDED TABLE R-SQUARED SPACING: 0.0625
Info: NONBONDED TABLE SIZE: 705 POINTS
TCL: Setting parameter alchLambda2 to 0.9000000000000002
Info: NONBONDED TABLE R-SQUARED SPACING: 0.0625
Info: NONBONDED TABLE SIZE: 705 POINTS
TCL: Running for 1500000 steps
ETITLE: TS BOND ANGLE DIHED IMPRP ELECT VDW BOUNDARY MISC KINETIC TOTAL TEMP POTENTIAL TOTALAVG TEMPAVG PRESSURE GPRESSURE VOLUME PRESSAVG GPRESSAVG
ENERGY: 0 2.4898 5.2324 10.3731 0.0000 -10919.1395 1507.8742 0.0000 0.0000 1760.8550 -7632.3149 295.6632 -9393.1699 -7632.3149 295.6632 470.0295 551.8942 30377.4342 470.0295 551.8942
ENERGY: 300000 3.1743 7.2045 12.4903 0.0000 -10671.2031 1310.9136 0.0000 0.0000 1723.2225 -7614.1978 289.3444 -9337.4203 -7573.1963 296.5022 -1300.5570 -1226.4927 31017.2195 -275.5041 -196.4646
ENERGY: 600000 1.9938 7.6297 13.9214 0.0000 -10875.9081 1422.9156 0.0000 0.0000 1778.3751 -7651.0725 298.6050 -9429.4476 -7574.6253 297.1240 -577.3711 -554.9785 30905.7246 -203.0951 -136.1595
ENERGY: 900000 7.2289 9.2030 9.2500 0.0000 -10935.5594 1536.3055 0.0000 0.0000 1764.8837 -7608.6884 296.3396 -9373.5720 -7553.1261 297.5590 542.6471 579.2760 30527.3843 -20.5806 45.2305
ENERGY: 1200000 8.1362 7.2880 12.1422 0.0000 -10712.0550 1444.4957 0.0000 0.0000 1801.5772 -7438.4156 302.5008 -9239.9928 -7535.1174 296.9337 -65.0129 -79.1879 31039.2368 -91.3317 -33.7474
ENERGY: 1500000 2.3808 5.7275 11.5362 0.0000 -10828.4213 1504.0226 0.0000 0.0000 1751.0453 -7553.7089 294.0160 -9304.7541 -7532.5848 297.4080 575.8275 662.6307 30589.6534 -39.8931 22.3645
TCL: Running FEP window  19: Lambda1 0.9000000000000002 Lambda2 0.9500000000000003 [dLambda 0.050000000000000044]
TCL: Setting parameter firsttimestep to 0
TCL: Setting parameter alchLambda to 0.9000000000000002
Info: NONBONDED TABLE R-SQUARED SPACING: 0.0625
Info: NONBONDED TABLE SIZE: 705 POINTS
TCL: Setting parameter alchLambda2 to 0.9500000000000003
Info: NONBONDED TABLE R-SQUARED SPACING: 0.0625
Info: NONBONDED TABLE SIZE: 705 POINTS
TCL: Running for 1500000 steps
ETITLE: TS BOND ANGLE DIHED IMPRP ELECT VDW BOUNDARY MISC KINETIC TOTAL TEMP POTENTIAL TOTALAVG TEMPAVG PRESSURE GPRESSURE VOLUME PRESSAVG GPRESSAVG
ENERGY: 0 2.3808 5.7275 11.5362 0.0000 -10829.6456 1503.9986 0.0000 0.0000 1750.1516 -7555.8509 293.8660 -9306.0025 -7555.8509 293.8660 594.7172 678.4021 30589.6534 594.7172 678.4021
ENERGY: 300000 4.3456 5.6814 15.7897 0.0000 -10788.4477 1417.5641 0.0000 0.0000 1813.8128 -7531.2541 304.5553 -9345.0669 -7550.3059 297.4612 -475.0898 -421.9183 31064.8529 236.1047 290.3239
ENERGY: 600000 7.1163 4.9529 13.6139 0.0000 -10861.7888 1538.5294 0.0000 0.0000 1789.0501 -7508.5263 300.3974 -9297.5763 -7548.6949 295.7483 507.0939 583.6469 31067.1693 332.1999 384.9127
ENERGY: 900000 3.1249 5.2331 11.5638 0.0000 -10733.1305 1341.0895 0.0000 0.0000 1806.4797 -7565.6395 303.3240 -9372.1192 -7543.3293 297.8463 -1177.2425 -1082.7700 31226.6274 210.3977 260.1912
ENERGY: 1200000 3.2760 7.6341 9.6301 0.0000 -10770.3447 1403.7950 0.0000 0.0000 1738.5521 -7607.4574 291.9183 -9346.0095 -7539.8490 298.1944 -453.5188 -375.8384 31030.0722 -30.3539 19.0351
ENERGY: 1500000 7.5877 7.4201 12.7990 0.0000 -10779.8136 1431.1510 0.0000 0.0000 1810.1445 -7510.7114 303.9393 -9320.8558 -7539.9519 298.2451 -273.7337 -174.5916 30688.9590 -57.3626 -1.5161
TCL: Running FEP window  20: Lambda1 0.9500000000000003 Lambda2 1.0    [dLambda 0.04999999999999971]
TCL: Setting parameter firsttimestep to 0
TCL: Setting parameter alchLambda to 0.9500000000000003
Info: NONBONDED TABLE R-SQUARED SPACING: 0.0625
Info: NONBONDED TABLE SIZE: 705 POINTS
TCL: Setting parameter alchLambda2 to 1.0
Info: NONBONDED TABLE R-SQUARED SPACING: 0.0625
Info: NONBONDED TABLE SIZE: 705 POINTS
TCL: Running for 1500000 steps
ETITLE: TS BOND ANGLE DIHED IMPRP ELECT VDW BOUNDARY MISC KINETIC TOTAL TEMP POTENTIAL TOTALAVG TEMPAVG PRESSURE GPRESSURE VOLUME PRESSAVG GPRESSAVG
ENERGY: 0 7.5876 7.4201 12.7990 0.0000 -10781.0796 1431.5865 0.0000 0.0000 1809.2465 -7512.4399 303.7885 -9321.6864 -7512.4399 303.7885 -234.1220 -155.6715 30688.9590 -234.1220 -155.6715
ENERGY: 300000 3.2862 7.5233 11.4043 0.0000 -10743.5847 1407.0344 0.0000 0.0000 1755.1047 -7559.2318 294.6977 -9314.3365 -7525.2512 301.8996 -457.3942 -422.4515 30981.2173 -255.3715 -188.5497
ENERGY: 600000 3.5297 8.4113 13.8560 0.0000 -10813.6574 1455.9075 0.0000 0.0000 1798.0644 -7533.8884 301.9110 -9331.9528 -7527.4201 301.9072 92.3010 120.4842 31199.2073 -224.9220 -175.7997
ENERGY: 900000 3.0027 4.8277 12.7000 0.0000 -10671.0054 1380.2267 0.0000 0.0000 1798.5426 -7471.7058 301.9913 -9270.2484 -7508.2727 302.6707 -206.2426 -218.7625 30693.2283 -270.3421 -217.9371
ENERGY: 1200000 5.5851 8.7930 10.6965 0.0000 -10714.3378 1360.2019 0.0000 0.0000 1786.8621 -7542.1993 300.0300 -9329.0614 -7510.8501 301.7172 -721.8892 -684.9872 30521.1261 -336.0877 -282.0657
ENERGY: 1500000 10.9149 5.2097 12.8745 0.0000 -10693.1380 1358.2118 0.0000 0.0000 1705.7316 -7600.1956 286.4075 -9305.9272 -7514.2579 300.5760 -1137.7246 -1025.0291 31347.7056 -377.9824 -319.9878
TCL: Exiting due to exit command.
