Info: SIMULATION PARAMETERS:
Info: TIMESTEP               2
Info: NUMBER OF STEPS        0
Info: STEPS PER CYCLE        10
Info: PERIODIC CELL BASIS 1  32.3697 0 0
Info: PERIODIC CELL BASIS 2  0 30.1653 0
Info: PERIODIC CELL BASIS 3  0 0 31.601
Info: PERIODIC CELL CENTER   0 0 0
Info: WRAPPING WATERS AROUND PERIODIC BOUNDARIES ON OUTPUT.
Info: WRAPPING ALL CLUSTERS AROUND PERIODIC BOUNDARIES ON OUTPUT.
Info: FIRST LDB TIMESTEP     50
Info: LAST LDB TIMESTEP     -1
Info: HOM BACKGROUND SCALING 1
Info: PME BACKGROUND SCALING 1
Info: MIN ATOMS PER PATCH    40
Info: EMPTY PATCH LOAD       40 ATOMS
Info: VELOCITY FILE          mobley_7688753_equil.vel
Info: CENTER OF MASS MOVING INITIALLY? NO
Info: DIELECTRIC             1
Info: EXCLUDE                SCALED ONE-FOUR
Info: 1-4 ELECTROSTATICS SCALED BY 0.833333
Info: MODIFIED 1-4 VDW PARAMETERS WILL BE USED
Info: DCD FILENAME           mobley_7688753_prod.dcd
Info: DCD FREQUENCY          100000
Info: DCD FIRST STEP         100000
Info: DCD FILE WILL CONTAIN UNIT CELL DATA
Info: XST FILENAME           mobley_7688753_prod.xst
Info: XST FREQUENCY          100000
Info: NO VELOCITY DCD OUTPUT
Info: NO FORCE DCD OUTPUT
Info: OUTPUT FILENAME        mobley_7688753_prod
Info: BINARY OUTPUT FILES WILL BE USED
Info: RESTART FILENAME       mobley_7688753_prod.restart
Info: RESTART FREQUENCY      100000
Info: BINARY RESTART FILES WILL BE USED
Info: CUTOFF                 9
Info: PAIRLIST DISTANCE      11
Info: PAIRLIST SHRINK RATE   0.01
Info: PAIRLIST GROW RATE     0.01
Info: PAIRLIST TRIGGER       0.3
Info: PAIRLISTS PER CYCLE    2
Info: PAIRLISTS ENABLED
Info: MARGIN                 2
Info: HYDROGEN GROUP CUTOFF  2.5
Info: PATCH DIMENSION        15.5
Info: ENERGY OUTPUT STEPS    100000
Info: ENERGY EVALUATION STEPS    100000
Info: OUTPUT ENERGY PRECISION 4
Info: CROSSTERM ENERGY INCLUDED IN DIHEDRAL
Info: TIMING OUTPUT STEPS    1000000
Info: PRESSURE OUTPUT STEPS  100000
Info: ALCHEMICAL FEP ON
Info: FEP CURRENT LAMBDA VALUE     0
Info: FEP COMPARISON LAMBDA VALUE  0.05
Info: FEP INTRA-ALCHEMICAL NON-BONDED INTERACTIONS WILL BE RETAINED
Info: FEP INTRA-ALCHEMICAL BONDED INTERACTIONS WILL BE RETAINED
Info: FEP VDW SHIFTING COEFFICIENT 5
Info: FEP ELEC. ACTIVE FOR ANNIHILATED PARTICLES BETWEEN LAMBDA = 0 AND LAMBDA = 0.5
Info: FEP ELEC. ACTIVE FOR EXNIHILATED PARTICLES BETWEEN LAMBDA = 0.5 AND LAMBDA = 1
Info: FEP VDW ACTIVE FOR ANNIHILATED PARTICLES BETWEEN LAMBDA = 0 AND LAMBDA = 1
Info: FEP VDW ACTIVE FOR EXNIHILATED PARTICLES BETWEEN LAMBDA = 0 AND LAMBDA = 1
Info: FEP BOND ACTIVE FOR ANNIHILATED PARTICLES BETWEEN LAMBDA = 1 AND LAMBDA = 1
Info: FEP BOND ACTIVE FOR EXNIHILATED PARTICLES BETWEEN LAMBDA = 0 AND LAMBDA = 0
Info: LANGEVIN DYNAMICS ACTIVE
Info: LANGEVIN TEMPERATURE   300
Info: LANGEVIN USING BBK INTEGRATOR
Info: LANGEVIN DAMPING COEFFICIENT IS 1 INVERSE PS
Info: LANGEVIN DYNAMICS APPLIED TO HYDROGENS
Info: LANGEVIN PISTON PRESSURE CONTROL ACTIVE
Info:        TARGET PRESSURE IS 1.01325 BAR
Info:     OSCILLATION PERIOD IS 50 FS
Info:             DECAY TIME IS 25 FS
Info:     PISTON TEMPERATURE IS 300 K
Info:       PRESSURE CONTROL IS GROUP-BASED
Info:    INITIAL STRAIN RATE IS 0.000683223 0.000683223 0.000683223
Info:       CELL FLUCTUATION IS ISOTROPIC
Info: PARTICLE MESH EWALD (PME) ACTIVE
Info: PME TOLERANCE               1e-06
Info: PME EWALD COEFFICIENT       0.348832
Info: PME INTERPOLATION ORDER     4
Info: PME GRID DIMENSIONS         36 32 32
Info: PME MAXIMUM GRID SPACING    1
Info: PME CALCULATION WILL BE PERFORMED ON GPU
Info: FULL ELECTROSTATIC EVALUATION FREQUENCY      2
Info: USING VERLET I (r-RESPA) MTS SCHEME.
Info: C1 SPLITTING OF LONG RANGE ELECTROSTATICS
Info: PLACING ATOMS IN PATCHES BY HYDROGEN GROUPS
Info: RIGID BONDS TO HYDROGEN : ALL
Info:         ERROR TOLERANCE : 1e-08
Info:          MAX ITERATIONS : 100
Info: RIGID WATER USING SETTLE ALGORITHM
Info: RANDOM NUMBER SEED     1743751735
Info: USE HYDROGEN BONDS?    NO
Info: Using AMBER format force field!
Info: AMBER PARM FILE        mobley_7688753.prmtop
Info: COORDINATE PDB         mobley_7688753.pdb
Info: Exclusions will be read from PARM file!
Info: SCNB (VDW SCALING)     2
Info: USING ARITHMETIC MEAN TO COMBINE L-J SIGMA PARAMETERS
Info: BINARY COORDINATES     mobley_7688753_equil.coor
Info: SUMMARY OF PARAMETERS:
Info: 9 BONDS
Info: 8 ANGLES
Info:   8 HARMONIC
Info:   0 COSINE-BASED
Info: 5 DIHEDRAL
Info: 0 IMPROPER
Info: 0 CROSSTERM
Info: 0 VDW
Info: 28 VDW_PAIRS
Info: 0 NBTHOLE_PAIRS
Info: To read alchdata from file: mobley_7688753.pdb
Info: To read alchflag data from column: 5
Info: STRUCTURE SUMMARY:
Info: 2952 ATOMS
Info: 2952 BONDS
Info: 22 ANGLES
Info: 37 DIHEDRALS
Info: 0 IMPROPERS
Info: 0 CROSSTERMS
Info: 3001 EXCLUSIONS
Info: 2943 RIGID BONDS
Info: ALCH: 0 ATOMS TO DISAPPEAR IN FINAL STATE
Info: ALCH: 15 ATOMS TO APPEAR IN FINAL STATE
Info: 5913 DEGREES OF FREEDOM
Info: 988 HYDROGEN GROUPS
Info: 3 ATOMS IN LARGEST HYDROGEN GROUP
Info: 988 MIGRATION GROUPS
Info: 3 ATOMS IN LARGEST MIGRATION GROUP
Info: TOTAL MASS = 17759.8 amu
Info: TOTAL CHARGE = 3.79514e-08 e
Info: MASS DENSITY = 0.95576 g/cm^3
Info: ATOM DENSITY = 0.0956684 atoms/A^3
Info: ADDED 0 IMPLICIT EXCLUSIONS
Info: NONBONDED TABLE R-SQUARED SPACING: 0.0625
Info: NONBONDED TABLE SIZE: 705 POINTS
Info: REMOVING COM VELOCITY -0.127316 -0.0271344 -0.140463
Info: Use 3D box decompostion in PME FFT.
Info: Updated CUDA force table with 4096 elements.
Info: Updated CUDA LJ table with 7 x 7 elements.
Info: Found 18 unique exclusion lists needing 40 bytes
TCL: Running for 1500000 steps
ETITLE: TS BOND ANGLE DIHED IMPRP ELECT VDW BOUNDARY MISC KINETIC TOTAL TEMP POTENTIAL TOTALAVG TEMPAVG PRESSURE GPRESSURE VOLUME PRESSAVG GPRESSAVG
ENERGY: 0 2.2821 3.2877 4.2879 0.0000 -10514.8430 1357.9408 0.0000 0.0000 1762.4144 -7384.6302 299.9788 -9147.0445 -7384.6302 299.9788 -727.6168 -644.3343 30856.5823 -727.6168 -644.3343
ENERGY: 300000 3.2564 3.0840 1.9457 0.0000 -10552.4776 1363.5444 0.0000 0.0000 1776.7790 -7403.8680 302.4238 -9180.6470 -7451.7034 298.7990 -415.2301 -375.5199 30356.7694 -183.1248 -115.2420
ENERGY: 600000 2.3666 4.3873 8.1766 0.0000 -10798.9877 1508.8515 0.0000 0.0000 1756.2510 -7518.9548 298.9297 -9275.2058 -7481.7024 297.1668 611.8016 640.1680 30214.6092 -8.4238 36.9397
ENERGY: 900000 2.4936 3.8132 5.1421 0.0000 -10706.6518 1506.0647 0.0000 0.0000 1757.3403 -7431.7979 299.1151 -9189.1382 -7485.1015 297.7043 585.0220 650.1549 30444.9681 -23.2299 28.7730
ENERGY: 1200000 1.4343 5.4188 10.8735 0.0000 -10707.1389 1446.7327 0.0000 0.0000 1767.5632 -7475.1164 300.8552 -9242.6796 -7491.8661 297.5917 38.1756 52.9319 30167.2627 -40.8404 5.7154
ENERGY: 1500000 0.9398 3.8720 4.9050 0.0000 -10698.0218 1465.3957 0.0000 0.0000 1779.6353 -7443.2740 302.9099 -9222.9093 -7488.8421 296.9668 83.9925 130.1822 30565.0045 16.8341 64.2479
TCL: Running FEP window   2: Lambda1 0.05   Lambda2 0.1    [dLambda 0.05  ]
TCL: Setting parameter firsttimestep to 0
TCL: Setting parameter alchLambda to 0.05
Info: NONBONDED TABLE R-SQUARED SPACING: 0.0625
Info: NONBONDED TABLE SIZE: 705 POINTS
TCL: Setting parameter alchLambda2 to 0.1
Info: NONBONDED TABLE R-SQUARED SPACING: 0.0625
Info: NONBONDED TABLE SIZE: 705 POINTS
TCL: Running for 1500000 steps
ETITLE: TS BOND ANGLE DIHED IMPRP ELECT VDW BOUNDARY MISC KINETIC TOTAL TEMP POTENTIAL TOTALAVG TEMPAVG PRESSURE GPRESSURE VOLUME PRESSAVG GPRESSAVG
ENERGY: 0 0.9398 3.8720 4.9050 0.0000 -10698.0208 1467.3175 0.0000 0.0000 1778.7537 -7442.2328 302.7599 -9220.9865 -7442.2328 302.7599 65.8863 138.2718 30565.0045 65.8863 138.2718
ENERGY: 300000 1.3740 2.7323 4.0356 0.0000 -10533.6779 1312.4465 0.0000 0.0000 1741.0960 -7471.9936 296.3502 -9213.0896 -7473.6055 300.7633 -933.1838 -902.2442 30580.9135 -505.9806 -423.2489
ENERGY: 600000 6.6095 1.2988 2.1209 0.0000 -10565.5081 1343.7091 0.0000 0.0000 1771.8497 -7439.9202 301.5847 -9211.7699 -7490.3498 299.7261 -777.2072 -708.8722 30327.5642 -357.7404 -278.5446
ENERGY: 900000 6.9043 3.9709 4.7755 0.0000 -10789.4803 1505.2136 0.0000 0.0000 1761.0164 -7507.5995 299.7408 -9268.6159 -7490.2621 300.4933 602.4220 663.9819 30110.3243 -150.5042 -73.4388
ENERGY: 1200000 3.4974 2.3209 2.5721 0.0000 -10531.6825 1379.3082 0.0000 0.0000 1735.0872 -7408.8967 295.3274 -9143.9839 -7486.6191 300.0185 -573.8039 -475.3243 30859.8668 -102.0538 -29.4732
ENERGY: 1500000 1.1462 1.3337 5.2556 0.0000 -10595.5046 1366.6125 0.0000 0.0000 1726.8637 -7494.2929 293.9277 -9221.1566 -7482.9103 299.3760 -735.5789 -693.8951 30559.1099 -163.1775 -91.2483
TCL: Running FEP window   3: Lambda1 0.1    Lambda2 0.15000000000000002 [dLambda 0.05000000000000002]
TCL: Setting parameter firsttimestep to 0
TCL: Setting parameter alchLambda to 0.1
Info: NONBONDED TABLE R-SQUARED SPACING: 0.0625
Info: NONBONDED TABLE SIZE: 705 POINTS
TCL: Setting parameter alchLambda2 to 0.15000000000000002
Info: NONBONDED TABLE R-SQUARED SPACING: 0.0625
Info: NONBONDED TABLE SIZE: 705 POINTS
TCL: Running for 1500000 steps
ETITLE: TS BOND ANGLE DIHED IMPRP ELECT VDW BOUNDARY MISC KINETIC TOTAL TEMP POTENTIAL TOTALAVG TEMPAVG PRESSURE GPRESSURE VOLUME PRESSAVG GPRESSAVG
ENERGY: 0 1.1462 1.3337 5.2556 0.0000 -10595.5046 1366.4794 0.0000 0.0000 1725.9986 -7495.2911 293.7805 -9221.2897 -7495.2911 293.7805 -759.1236 -693.6545 30559.1099 -759.1236 -693.6545
ENERGY: 300000 5.2988 3.4582 3.1244 0.0000 -10676.4853 1395.0709 0.0000 0.0000 1775.2196 -7494.3135 302.1583 -9269.5331 -7470.8463 301.3361 -586.1014 -526.8844 30148.0897 -157.6377 -115.6551
ENERGY: 600000 3.2059 2.1166 3.7315 0.0000 -10570.8086 1336.5154 0.0000 0.0000 1708.6615 -7516.5778 290.8296 -9225.2392 -7485.4565 299.3806 -699.0940 -718.2905 30254.9622 -199.3697 -159.5383
ENERGY: 900000 3.9658 4.6352 4.1385 0.0000 -10497.5080 1364.6050 0.0000 0.0000 1753.1027 -7367.0608 298.3939 -9120.1635 -7469.8477 299.5147 -534.8852 -520.8157 30590.1838 -226.3156 -190.0786
ENERGY: 1200000 4.1969 4.6780 6.7581 0.0000 -10747.6080 1490.3950 0.0000 0.0000 1758.3201 -7483.2599 299.2819 -9241.5800 -7466.8320 299.9163 602.7503 663.2237 30133.9337 -154.4239 -110.7071
ENERGY: 1500000 2.2027 5.9670 4.4139 0.0000 -10670.0546 1461.7050 0.0000 0.0000 1782.4500 -7413.3159 303.3890 -9195.7659 -7472.0920 300.5969 349.1935 399.8949 30197.8381 -142.5365 -97.9488
TCL: Running FEP window   4: Lambda1 0.15000000000000002 Lambda2 0.2    [dLambda 0.04999999999999999]
TCL: Setting parameter firsttimestep to 0
TCL: Setting parameter alchLambda to 0.15000000000000002
Info: NONBONDED TABLE R-SQUARED SPACING: 0.0625
Info: NONBONDED TABLE SIZE: 705 POINTS
TCL: Setting parameter alchLambda2 to 0.2
Info: NONBONDED TABLE R-SQUARED SPACING: 0.0625
Info: NONBONDED TABLE SIZE: 705 POINTS
TCL: Running for 1500000 steps
ETITLE: TS BOND ANGLE DIHED IMPRP ELECT VDW BOUNDARY MISC KINETIC TOTAL TEMP POTENTIAL TOTALAVG TEMPAVG PRESSURE GPRESSURE VOLUME PRESSAVG GPRESSAVG
ENERGY: 0 2.2027 5.9670 4.4139 0.0000 -10670.0542 1461.9346 0.0000 0.0000 1781.5884 -7413.9476 303.2424 -9195.5360 -7413.9476 303.2424 328.9050 405.0849 30197.8381 328.9050 405.0849
ENERGY: 300000 3.8202 4.0649 4.8720 0.0000 -10751.5950 1470.4495 0.0000 0.0000 1760.9768 -7507.4116 299.7341 -9268.3884 -7451.7012 302.8768 338.8170 363.7574 30144.7537 263.8404 317.7468
ENERGY: 600000 3.8173 4.6237 3.5382 0.0000 -10731.1844 1494.9217 0.0000 0.0000 1742.4670 -7481.8165 296.5836 -9224.2835 -7494.4914 299.4947 231.8992 279.7979 30425.2086 -41.6755 11.6162
ENERGY: 900000 3.9205 4.7085 1.8887 0.0000 -10778.0455 1462.3346 0.0000 0.0000 1772.5426 -7532.6506 301.7027 -9305.1932 -7516.5192 298.6288 127.1642 168.3609 30159.5972 -35.0132 20.5995
ENERGY: 1200000 3.3216 1.7701 5.8611 0.0000 -10661.2680 1403.8120 0.0000 0.0000 1695.0932 -7551.4099 288.5201 -9246.5031 -7510.4161 297.5410 -434.8324 -343.8740 30234.8050 39.8595 94.2819
ENERGY: 1500000 2.1043 4.3987 4.9125 0.0000 -10634.2408 1427.6178 0.0000 0.0000 1796.7729 -7398.4346 305.8269 -9195.2075 -7497.5745 299.3410 -167.7568 -23.0918 30508.0354 19.1234 75.9732
TCL: Running FEP window   5: Lambda1 0.2    Lambda2 0.25   [dLambda 0.04999999999999999]
TCL: Setting parameter firsttimestep to 0
TCL: Setting parameter alchLambda to 0.2
Info: NONBONDED TABLE R-SQUARED SPACING: 0.0625
Info: NONBONDED TABLE SIZE: 705 POINTS
TCL: Setting parameter alchLambda2 to 0.25
Info: NONBONDED TABLE R-SQUARED SPACING: 0.0625
Info: NONBONDED TABLE SIZE: 705 POINTS
TCL: Running for 1500000 steps
ETITLE: TS BOND ANGLE DIHED IMPRP ELECT VDW BOUNDARY MISC KINETIC TOTAL TEMP POTENTIAL TOTALAVG TEMPAVG PRESSURE GPRESSURE VOLUME PRESSAVG GPRESSAVG
ENERGY: 0 2.1043 4.3987 4.9125 0.0000 -10634.2394 1428.4216 0.0000 0.0000 1795.9257 -7398.4767 305.6827 -9194.4024 -7398.4767 305.6827 -99.4744 -17.1945 30508.0354 -99.4744 -17.1945
ENERGY: 300000 4.1015 2.5927 5.6812 0.0000 -10639.5078 1436.9818 0.0000 0.0000 1740.3667 -7449.7839 296.2261 -9190.1507 -7467.0383 301.0117 -260.0401 -200.1686 30868.2579 -243.1946 -154.7138
ENERGY: 600000 3.3865 4.6529 2.9149 0.0000 -10610.3167 1402.2363 0.0000 0.0000 1792.3617 -7404.7645 305.0761 -9197.1261 -7481.4590 300.9248 -87.3203 19.2611 30130.3229 72.0592 143.0890
ENERGY: 900000 2.8403 6.3371 2.0128 0.0000 -10838.0906 1492.2526 0.0000 0.0000 1707.5367 -7627.1111 290.6381 -9334.6478 -7505.5495 299.2219 70.3201 143.3058 30471.7982 0.6130 71.0016
ENERGY: 1200000 2.9523 6.2696 2.9462 0.0000 -10773.1166 1466.3630 0.0000 0.0000 1812.9187 -7481.6667 308.5751 -9294.5855 -7503.0540 300.8574 88.5489 172.2114 30196.8746 80.6887 148.6489
ENERGY: 1500000 3.0456 3.9051 2.8001 0.0000 -10708.3356 1500.0366 0.0000 0.0000 1800.3865 -7398.1618 306.4420 -9198.5483 -7492.7551 300.8115 667.2859 691.7830 30217.5362 130.7259 196.8428
TCL: Running FEP window   6: Lambda1 0.25   Lambda2 0.3    [dLambda 0.04999999999999999]
TCL: Setting parameter firsttimestep to 0
TCL: Setting parameter alchLambda to 0.25
Info: NONBONDED TABLE R-SQUARED SPACING: 0.0625
Info: NONBONDED TABLE SIZE: 705 POINTS
TCL: Setting parameter alchLambda2 to 0.3
Info: NONBONDED TABLE R-SQUARED SPACING: 0.0625
Info: NONBONDED TABLE SIZE: 705 POINTS
TCL: Running for 1500000 steps
ETITLE: TS BOND ANGLE DIHED IMPRP ELECT VDW BOUNDARY MISC KINETIC TOTAL TEMP POTENTIAL TOTALAVG TEMPAVG PRESSURE GPRESSURE VOLUME PRESSAVG GPRESSAVG
ENERGY: 0 3.0456 3.9051 2.8001 0.0000 -10708.3355 1500.5471 0.0000 0.0000 1799.5251 -7398.5126 306.2954 -9198.0377 -7398.5126 306.2954 613.6773 698.1992 30217.5362 613.6773 698.1992
ENERGY: 300000 2.4825 4.6535 2.8562 0.0000 -10774.2055 1456.5503 0.0000 0.0000 1756.2201 -7551.4429 298.9245 -9307.6630 -7452.6198 300.5314 43.0335 99.8243 30159.6426 118.7182 193.8720
ENERGY: 600000 3.4821 3.8196 5.2004 0.0000 -10654.6467 1409.8529 0.0000 0.0000 1761.7563 -7470.5354 299.8668 -9232.2917 -7477.4644 299.4910 -560.9160 -526.4874 30733.1178 12.4655 84.6381
ENERGY: 900000 4.0888 4.6238 5.0161 0.0000 -10685.3639 1413.0559 0.0000 0.0000 1788.3708 -7470.2084 304.3968 -9258.5792 -7470.3585 300.1441 -220.6084 -113.3845 30117.4839 -20.7407 58.8033
ENERGY: 1200000 0.6281 2.8111 3.8167 0.0000 -10737.1290 1443.0681 0.0000 0.0000 1785.9548 -7500.8503 303.9856 -9286.8051 -7468.0690 300.5654 -56.4286 69.2538 30114.6749 -62.0550 14.4984
ENERGY: 1500000 0.9432 2.4536 5.4599 0.0000 -10552.4545 1384.0520 0.0000 0.0000 1753.0224 -7406.5234 298.3802 -9159.5458 -7466.4533 300.0625 -164.7187 -147.5480 30618.9460 -94.0120 -21.7948
TCL: Running FEP window   7: Lambda1 0.3    Lambda2 0.35   [dLambda 0.04999999999999999]
TCL: Setting parameter firsttimestep to 0
TCL: Setting parameter alchLambda to 0.3
Info: NONBONDED TABLE R-SQUARED SPACING: 0.0625
Info: NONBONDED TABLE SIZE: 705 POINTS
TCL: Setting parameter alchLambda2 to 0.35
Info: NONBONDED TABLE R-SQUARED SPACING: 0.0625
Info: NONBONDED TABLE SIZE: 705 POINTS
TCL: Running for 1500000 steps
ETITLE: TS BOND ANGLE DIHED IMPRP ELECT VDW BOUNDARY MISC KINETIC TOTAL TEMP POTENTIAL TOTALAVG TEMPAVG PRESSURE GPRESSURE VOLUME PRESSAVG GPRESSAVG
ENERGY: 0 0.9432 2.4536 5.4599 0.0000 -10552.4549 1384.1410 0.0000 0.0000 1752.1276 -7407.3295 298.2279 -9159.4571 -7407.3295 298.2279 -216.9137 -145.7999 30618.9460 -216.9137 -145.7999
ENERGY: 300000 2.0328 8.1389 2.0083 0.0000 -10645.8020 1431.3418 0.0000 0.0000 1826.8943 -7375.3859 310.9538 -9202.2802 -7484.1693 300.0257 235.0731 316.7124 30045.2609 -25.3216 45.6411
ENERGY: 600000 0.8418 3.2423 3.9363 0.0000 -10664.5170 1414.0498 0.0000 0.0000 1831.4585 -7410.9883 311.7307 -9242.4467 -7450.0499 303.7783 -30.5440 -9.6375 30040.8430 -134.1843 -65.5156
ENERGY: 900000 2.4570 2.9998 4.4989 0.0000 -10766.0324 1531.2888 0.0000 0.0000 1801.0301 -7423.7578 306.5515 -9224.7879 -7457.5550 302.7702 657.7406 729.5070 30495.3998 -59.6347 -1.0256
ENERGY: 1200000 3.3172 8.4958 5.4671 0.0000 -10678.5612 1423.0482 0.0000 0.0000 1799.0791 -7439.1539 306.2194 -9238.2330 -7466.5692 302.2399 283.0124 382.2448 29622.2893 -35.9657 26.6756
ENERGY: 1500000 1.9899 1.9761 3.5684 0.0000 -10649.0961 1449.8176 0.0000 0.0000 1788.7670 -7402.9771 304.4642 -9191.7441 -7462.2362 301.3367 -30.3466 132.7709 30544.7319 30.8228 99.6112
TCL: Running FEP window   8: Lambda1 0.35   Lambda2 0.39999999999999997 [dLambda 0.04999999999999999]
TCL: Setting parameter firsttimestep to 0
TCL: Setting parameter alchLambda to 0.35
Info: NONBONDED TABLE R-SQUARED SPACING: 0.0625
Info: NONBONDED TABLE SIZE: 705 POINTS
TCL: Setting parameter alchLambda2 to 0.39999999999999997
Info: NONBONDED TABLE R-SQUARED SPACING: 0.0625
Info: NONBONDED TABLE SIZE: 705 POINTS
TCL: Running for 1500000 steps
ETITLE: TS BOND ANGLE DIHED IMPRP ELECT VDW BOUNDARY MISC KINETIC TOTAL TEMP POTENTIAL TOTALAVG TEMPAVG PRESSURE GPRESSURE VOLUME PRESSAVG GPRESSAVG
ENERGY: 0 1.9899 1.9761 3.5684 0.0000 -10649.0972 1449.9888 0.0000 0.0000 1787.8847 -7403.6892 304.3141 -9191.5739 -7403.6892 304.3141 65.2646 141.5089 30544.7319 65.2646 141.5089
ENERGY: 300000 1.4206 4.0432 3.8785 0.0000 -10712.9117 1445.8024 0.0000 0.0000 1789.5764 -7468.1906 304.6020 -9257.7670 -7441.5459 304.0352 146.4379 186.2023 30147.4561 47.6419 120.4620
ENERGY: 600000 2.3201 1.9183 6.9613 0.0000 -10636.3650 1438.5599 0.0000 0.0000 1809.3939 -7377.2115 307.9751 -9186.6054 -7450.5027 303.8057 -58.8323 10.2739 30575.4211 17.4768 87.2741
ENERGY: 900000 2.9808 4.8260 6.6470 0.0000 -10669.5179 1420.1258 0.0000 0.0000 1784.6188 -7450.3195 303.7582 -9234.9383 -7472.6522 302.6728 -11.3700 16.4918 30284.5598 -14.0830 45.5116
ENERGY: 1200000 2.9182 4.0182 3.0590 0.0000 -10824.0741 1519.7303 0.0000 0.0000 1736.6501 -7557.6984 295.5935 -9294.3485 -7484.8631 301.0706 429.2709 515.0479 30117.6555 -89.4436 -25.7584
ENERGY: 1500000 3.3440 3.0446 6.1242 0.0000 -10654.1000 1391.6236 0.0000 0.0000 1739.8690 -7510.0946 296.1414 -9249.9636 -7491.9097 300.7563 -925.7460 -810.7967 31110.4531 -201.3884 -133.5539
TCL: Running FEP window   9: Lambda1 0.39999999999999997 Lambda2 0.44999999999999996 [dLambda 0.04999999999999999]
TCL: Setting parameter firsttimestep to 0
TCL: Setting parameter alchLambda to 0.39999999999999997
Info: NONBONDED TABLE R-SQUARED SPACING: 0.0625
Info: NONBONDED TABLE SIZE: 705 POINTS
TCL: Setting parameter alchLambda2 to 0.44999999999999996
Info: NONBONDED TABLE R-SQUARED SPACING: 0.0625
Info: NONBONDED TABLE SIZE: 705 POINTS
TCL: Running for 1500000 steps
ETITLE: TS BOND ANGLE DIHED IMPRP ELECT VDW BOUNDARY MISC KINETIC TOTAL TEMP POTENTIAL TOTALAVG TEMPAVG PRESSURE GPRESSURE VOLUME PRESSAVG GPRESSAVG
ENERGY: 0 3.3440 3.0446 6.1242 0.0000 -10654.0996 1391.8466 0.0000 0.0000 1739.0465 -7510.6937 296.0014 -9249.7402 -7510.6937 296.0014 -879.4131 -803.4410 31110.4531 -879.4131 -803.4410
ENERGY: 300000 1.5026 3.1861 5.3186 0.0000 -10790.0619 1517.9559 0.0000 0.0000 1744.6765 -7517.4223 296.9596 -9262.0988 -7529.8237 297.1819 659.9698 627.2370 30514.2951 -10.3514 14.7888
ENERGY: 600000 3.1209 3.5043 4.6640 0.0000 -10845.2927 1529.0274 0.0000 0.0000 1786.0858 -7518.8902 304.0079 -9304.9761 -7510.0056 298.7964 650.8424 699.8998 30109.7353 -76.4999 -46.9047
ENERGY: 900000 2.5598 2.3933 2.1218 0.0000 -10739.6256 1427.3048 0.0000 0.0000 1756.7503 -7548.4957 299.0147 -9305.2459 -7500.6358 299.1320 -424.3767 -389.9432 30419.3253 -94.9883 -64.4155
ENERGY: 1200000 3.5687 6.3398 2.0688 0.0000 -10561.4082 1333.1449 0.0000 0.0000 1774.0063 -7442.2797 301.9518 -9216.2860 -7507.7590 298.9242 -1090.6754 -1033.1629 30961.1355 -168.6549 -132.0270
ENERGY: 1500000 3.0829 5.5287 2.6188 0.0000 -10719.2747 1484.6271 0.0000 0.0000 1755.4727 -7467.9445 298.7973 -9223.4173 -7507.5328 299.2513 -51.1557 4.9399 31169.9962 -146.8350 -103.7925
TCL: Running FEP window  10: Lambda1 0.44999999999999996 Lambda2 0.49999999999999994 [dLambda 0.04999999999999999]
TCL: Setting parameter firsttimestep to 0
TCL: Setting parameter alchLambda to 0.44999999999999996
Info: NONBONDED TABLE R-SQUARED SPACING: 0.0625
Info: NONBONDED TABLE SIZE: 705 POINTS
TCL: Setting parameter alchLambda2 to 0.49999999999999994
Info: NONBONDED TABLE R-SQUARED SPACING: 0.0625
Info: NONBONDED TABLE SIZE: 705 POINTS
TCL: Running for 1500000 steps
ETITLE: TS BOND ANGLE DIHED IMPRP ELECT VDW BOUNDARY MISC KINETIC TOTAL TEMP POTENTIAL TOTALAVG TEMPAVG PRESSURE GPRESSURE VOLUME PRESSAVG GPRESSAVG
ENERGY: 0 3.0829 5.5287 2.6188 0.0000 -10719.2751 1485.3107 0.0000 0.0000 1754.5823 -7468.1517 298.6457 -9222.7340 -7468.1517 298.6457 -62.0841 14.5161 31169.9962 -62.0841 14.5161
ENERGY: 300000 3.9439 4.0570 2.8703 0.0000 -10609.7564 1379.0061 0.0000 0.0000 1734.9389 -7484.9402 295.3022 -9219.8791 -7483.1536 297.9093 -437.9173 -392.6725 30347.9428 -240.7802 -201.4026
ENERGY: 600000 2.0516 5.7447 4.3179 0.0000 -10638.6779 1457.1449 0.0000 0.0000 1765.2348 -7404.1841 300.4588 -9169.4189 -7456.0746 300.5246 454.7773 553.6885 30328.2604 -92.8587 -28.5880
ENERGY: 900000 8.1337 4.3769 5.2044 0.0000 -10749.2597 1494.6790 0.0000 0.0000 1762.7824 -7474.0833 300.0414 -9236.8657 -7461.7471 299.9592 587.3022 601.7093 30265.8221 -32.2286 22.0459
ENERGY: 1200000 2.1605 5.7711 2.8883 0.0000 -10700.8821 1484.3654 0.0000 0.0000 1781.7820 -7423.9147 303.2753 -9205.6967 -7452.3379 300.7438 38.4662 161.5618 30787.3692 -13.5962 48.6367
ENERGY: 1500000 1.1602 2.2590 3.5792 0.0000 -10774.3874 1538.7197 0.0000 0.0000 1704.2796 -7524.3897 290.0837 -9228.6693 -7449.7002 301.1820 1029.2444 1099.4652 29969.6894 96.6208 154.6182
TCL: Running FEP window  11: Lambda1 0.49999999999999994 Lambda2 0.5499999999999999 [dLambda 0.04999999999999999]
TCL: Setting parameter firsttimestep to 0
TCL: Setting parameter alchLambda to 0.49999999999999994
Info: NONBONDED TABLE R-SQUARED SPACING: 0.0625
Info: NONBONDED TABLE SIZE: 705 POINTS
TCL: Setting parameter alchLambda2 to 0.5499999999999999
Info: NONBONDED TABLE R-SQUARED SPACING: 0.0625
Info: NONBONDED TABLE SIZE: 705 POINTS
TCL: Running for 1500000 steps
ETITLE: TS BOND ANGLE DIHED IMPRP ELECT VDW BOUNDARY MISC KINETIC TOTAL TEMP POTENTIAL TOTALAVG TEMPAVG PRESSURE GPRESSURE VOLUME PRESSAVG GPRESSAVG
ENERGY: 0 1.1602 2.2590 3.5791 0.0000 -10774.3868 1538.2908 0.0000 0.0000 1703.3929 -7525.7048 289.9328 -9229.0977 -7525.7048 289.9328 1014.5517 1100.9975 29969.6894 1014.5517 1100.9975
ENERGY: 300000 2.8493 2.4307 6.1120 0.0000 -10624.8367 1446.7481 0.0000 0.0000 1740.6542 -7426.0425 296.2750 -9166.6967 -7434.5806 298.1163 276.8426 356.6344 30466.6506 693.1481 783.8854
ENERGY: 600000 2.0434 3.6039 1.6650 0.0000 -10666.2964 1402.3351 0.0000 0.0000 1731.2233 -7525.4258 294.6698 -9256.6491 -7480.0941 298.5935 -96.7812 -84.4989 30175.6456 191.4935 276.0785
ENERGY: 900000 3.5318 1.7736 4.0799 0.0000 -10665.5834 1444.2567 0.0000 0.0000 1785.7993 -7426.1421 303.9591 -9211.9414 -7473.4633 298.9737 -99.1825 -27.1737 30596.5952 193.1276 270.8281
ENERGY: 1200000 3.8461 3.6559 6.5315 0.0000 -10707.2495 1469.2403 0.0000 0.0000 1722.6655 -7501.3102 293.2132 -9223.9757 -7463.9426 299.6340 87.9765 152.3292 30502.9403 118.3342 182.0206
ENERGY: 1500000 5.5521 2.9780 2.2785 0.0000 -10721.9688 1431.6325 0.0000 0.0000 1740.7537 -7538.7741 296.2919 -9279.5278 -7474.6241 299.3933 73.9861 168.0550 30102.1588 86.0268 150.3914
TCL: Running FEP window  12: Lambda1 0.5499999999999999 Lambda2 0.6    [dLambda 0.050000000000000044]
TCL: Setting parameter firsttimestep to 0
TCL: Setting parameter alchLambda to 0.5499999999999999
Info: NONBONDED TABLE R-SQUARED SPACING: 0.0625
Info: NONBONDED TABLE SIZE: 705 POINTS
TCL: Setting parameter alchLambda2 to 0.6
Info: NONBONDED TABLE R-SQUARED SPACING: 0.0625
Info: NONBONDED TABLE SIZE: 705 POINTS
TCL: Running for 1500000 steps
ETITLE: TS BOND ANGLE DIHED IMPRP ELECT VDW BOUNDARY MISC KINETIC TOTAL TEMP POTENTIAL TOTALAVG TEMPAVG PRESSURE GPRESSURE VOLUME PRESSAVG GPRESSAVG
ENERGY: 0 5.5521 2.9780 2.2785 0.0000 -10721.6484 1431.4644 0.0000 0.0000 1739.8776 -7539.4978 296.1428 -9279.3754 -7539.4978 296.1428 75.7698 170.9716 30102.1588 75.7698 170.9716
ENERGY: 300000 1.6237 3.1248 5.8297 0.0000 -10797.7367 1416.7104 0.0000 0.0000 1760.8752 -7609.5730 299.7168 -9370.4482 -7517.4731 298.8517 -573.1530 -491.5169 30165.6658 -90.2363 -26.0975
ENERGY: 600000 3.6124 3.2316 4.6666 0.0000 -10721.6880 1410.1058 0.0000 0.0000 1691.4545 -7608.6172 287.9008 -9300.0716 -7493.2214 298.2863 -469.2083 -412.6185 30147.4927 -142.9231 -68.7963
ENERGY: 900000 3.6829 2.8447 2.9942 0.0000 -10727.0457 1517.2157 0.0000 0.0000 1799.3751 -7400.9330 306.2698 -9200.3081 -7484.9147 299.5261 850.0528 919.4617 30192.3020 2.0477 79.6326
ENERGY: 1200000 1.5526 2.7745 1.7837 0.0000 -10648.6026 1423.9123 0.0000 0.0000 1806.1567 -7412.4227 307.4241 -9218.5794 -7483.0631 299.4576 -83.9065 -42.7422 30688.2900 49.5707 117.2398
ENERGY: 1500000 2.4378 1.7031 3.9667 0.0000 -10695.1728 1459.5926 0.0000 0.0000 1723.9873 -7503.4853 293.4381 -9227.4726 -7483.5609 298.6237 289.3276 352.4001 30202.6518 76.0195 138.4338
TCL: Running FEP window  13: Lambda1 0.6    Lambda2 0.65   [dLambda 0.050000000000000044]
TCL: Setting parameter firsttimestep to 0
TCL: Setting parameter alchLambda to 0.6
Info: NONBONDED TABLE R-SQUARED SPACING: 0.0625
Info: NONBONDED TABLE SIZE: 705 POINTS
TCL: Setting parameter alchLambda2 to 0.65
Info: NONBONDED TABLE R-SQUARED SPACING: 0.0625
Info: NONBONDED TABLE SIZE: 705 POINTS
TCL: Running for 1500000 steps
ETITLE: TS BOND ANGLE DIHED IMPRP ELECT VDW BOUNDARY MISC KINETIC TOTAL TEMP POTENTIAL TOTALAVG TEMPAVG PRESSURE GPRESSURE VOLUME PRESSAVG GPRESSAVG
ENERGY: 0 2.4378 1.7031 3.9667 0.0000 -10695.0866 1459.9630 0.0000 0.0000 1723.1077 -7503.9083 293.2884 -9227.0160 -7503.9083 293.2884 262.1630 357.0227 30202.6518 262.1630 357.0227
ENERGY: 300000 5.5130 3.5311 4.4437 0.0000 -10595.8341 1369.0779 0.0000 0.0000 1749.0237 -7464.2446 297.6996 -9213.2683 -7470.3087 300.4528 -599.9774 -524.0457 30449.2001 -38.4690 57.1512
ENERGY: 600000 0.7799 4.0830 4.5724 0.0000 -10728.6932 1421.4873 0.0000 0.0000 1750.2966 -7547.4740 297.9162 -9297.7705 -7479.3947 301.2858 -266.4840 -233.2980 30275.3436 -69.0209 -2.3248
ENERGY: 900000 2.1325 2.6992 2.4482 0.0000 -10745.1866 1476.7029 0.0000 0.0000 1733.9983 -7527.2055 295.1421 -9261.2038 -7489.6741 299.4846 228.8009 288.7700 30407.9609 -201.0586 -139.6523
ENERGY: 1200000 2.6836 6.7496 2.3791 0.0000 -10608.3120 1443.3515 0.0000 0.0000 1802.2521 -7350.8960 306.7595 -9153.1481 -7487.5124 298.8029 557.3717 604.9542 30201.8680 -187.5923 -124.6884
ENERGY: 1500000 6.6565 3.3713 2.7306 0.0000 -10772.0491 1511.0488 0.0000 0.0000 1770.9386 -7477.3034 301.4297 -9248.2420 -7483.0401 299.8955 362.1273 416.4220 30550.0690 -73.0861 -4.7294
TCL: Running FEP window  14: Lambda1 0.65   Lambda2 0.7000000000000001 [dLambda 0.050000000000000044]
TCL: Setting parameter firsttimestep to 0
TCL: Setting parameter alchLambda to 0.65
Info: NONBONDED TABLE R-SQUARED SPACING: 0.0625
Info: NONBONDED TABLE SIZE: 705 POINTS
TCL: Setting parameter alchLambda2 to 0.7000000000000001
Info: NONBONDED TABLE R-SQUARED SPACING: 0.0625
Info: NONBONDED TABLE SIZE: 705 POINTS
TCL: Running for 1500000 steps
ETITLE: TS BOND ANGLE DIHED IMPRP ELECT VDW BOUNDARY MISC KINETIC TOTAL TEMP POTENTIAL TOTALAVG TEMPAVG PRESSURE GPRESSURE VOLUME PRESSAVG GPRESSAVG
ENERGY: 0 6.6565 3.3713 2.7306 0.0000 -10773.7168 1511.3836 0.0000 0.0000 1770.0769 -7479.4980 301.2830 -9249.5749 -7479.4980 301.2830 344.2561 423.2365 30550.0690 344.2561 423.2365
ENERGY: 300000 4.3147 2.2980 2.1322 0.0000 -10736.8089 1429.1091 0.0000 0.0000 1756.1505 -7542.8044 298.9126 -9298.9549 -7499.8792 299.7837 -230.0991 -125.0567 30140.5823 -281.1862 -208.8588
ENERGY: 600000 1.6443 3.1609 7.0155 0.0000 -10618.2264 1380.3030 0.0000 0.0000 1748.5002 -7477.6025 297.6105 -9226.1027 -7514.4285 299.2998 -595.3843 -580.3932 30711.8778 -261.9846 -194.0780
ENERGY: 900000 2.5908 5.3489 3.2599 0.0000 -10867.7275 1494.2812 0.0000 0.0000 1787.4851 -7574.7616 304.2460 -9362.2467 -7500.7960 301.7789 318.8271 430.5075 29741.5199 -182.4499 -117.7952
ENERGY: 1200000 1.4365 5.6426 4.1482 0.0000 -10521.0483 1346.4337 0.0000 0.0000 1737.5939 -7425.7934 295.7541 -9163.3873 -7496.9615 300.9912 -719.8141 -638.3604 30726.0617 -274.7980 -206.5622
ENERGY: 1500000 2.7418 3.1526 2.5067 0.0000 -10590.0056 1397.4401 0.0000 0.0000 1787.6416 -7396.5228 304.2727 -9184.1643 -7487.6208 301.6706 -29.9079 26.2584 30311.8357 -227.9256 -158.9020
TCL: Running FEP window  15: Lambda1 0.7000000000000001 Lambda2 0.7500000000000001 [dLambda 0.050000000000000044]
TCL: Setting parameter firsttimestep to 0
TCL: Setting parameter alchLambda to 0.7000000000000001
Info: NONBONDED TABLE R-SQUARED SPACING: 0.0625
Info: NONBONDED TABLE SIZE: 705 POINTS
TCL: Setting parameter alchLambda2 to 0.7500000000000001
Info: NONBONDED TABLE R-SQUARED SPACING: 0.0625
Info: NONBONDED TABLE SIZE: 705 POINTS
TCL: Running for 1500000 steps
ETITLE: TS BOND ANGLE DIHED IMPRP ELECT VDW BOUNDARY MISC KINETIC TOTAL TEMP POTENTIAL TOTALAVG TEMPAVG PRESSURE GPRESSURE VOLUME PRESSAVG GPRESSAVG
ENERGY: 0 2.7418 3.1526 2.5067 0.0000 -10591.4870 1397.8672 0.0000 0.0000 1786.7372 -7398.4814 304.1187 -9185.2186 -7398.4814 304.1187 -45.1696 37.7454 30311.8357 -45.1696 37.7454
ENERGY: 300000 3.7734 6.1427 2.4188 0.0000 -10759.2801 1465.8536 0.0000 0.0000 1771.6129 -7509.4786 301.5445 -9281.0915 -7480.7974 299.3425 206.6342 306.4735 30100.9094 165.0576 237.3392
ENERGY: 600000 1.5335 5.9748 3.0229 0.0000 -10612.1516 1390.3148 0.0000 0.0000 1797.1218 -7414.1838 305.8863 -9211.3056 -7470.7888 300.8535 -339.8745 -356.9669 30913.8548 133.7777 195.6476
ENERGY: 900000 3.2304 3.3923 1.7226 0.0000 -10717.2992 1435.0720 0.0000 0.0000 1733.2575 -7540.6244 295.0160 -9273.8819 -7488.6495 299.7735 -297.8203 -249.8995 30450.6354 74.9074 137.5676
ENERGY: 1200000 7.5764 4.7686 2.1146 0.0000 -10598.8382 1401.1293 0.0000 0.0000 1782.6058 -7400.6434 303.4155 -9183.2492 -7487.9768 300.9206 -116.4074 -44.4417 30231.7764 102.1571 158.0005
ENERGY: 1500000 5.2346 5.0947 4.1909 0.0000 -10676.6431 1427.2959 0.0000 0.0000 1770.0008 -7464.8262 301.2701 -9234.8270 -7488.2930 300.1636 276.6798 316.1875 30048.3065 133.9707 187.7869
TCL: Running FEP window  16: Lambda1 0.7500000000000001 Lambda2 0.8000000000000002 [dLambda 0.050000000000000044]
TCL: Setting parameter firsttimestep to 0
TCL: Setting parameter alchLambda to 0.7500000000000001
Info: NONBONDED TABLE R-SQUARED SPACING: 0.0625
Info: NONBONDED TABLE SIZE: 705 POINTS
TCL: Setting parameter alchLambda2 to 0.8000000000000002
Info: NONBONDED TABLE R-SQUARED SPACING: 0.0625
Info: NONBONDED TABLE SIZE: 705 POINTS
TCL: Running for 1500000 steps
ETITLE: TS BOND ANGLE DIHED IMPRP ELECT VDW BOUNDARY MISC KINETIC TOTAL TEMP POTENTIAL TOTALAVG TEMPAVG PRESSURE GPRESSURE VOLUME PRESSAVG GPRESSAVG
ENERGY: 0 5.2346 5.0947 4.1909 0.0000 -10678.1828 1427.5701 0.0000 0.0000 1769.1102 -7466.9823 301.1185 -9236.0925 -7466.9823 301.1185 238.8708 325.8758 30048.3065 238.8708 325.8758
ENERGY: 300000 0.9232 5.7491 2.7056 0.0000 -10689.0842 1419.1821 0.0000 0.0000 1743.2931 -7517.2311 296.7242 -9260.5242 -7525.6360 294.3169 -355.3546 -275.9980 30534.2233 142.4437 232.4653
ENERGY: 600000 3.2644 3.5754 6.6963 0.0000 -10782.3462 1519.4409 0.0000 0.0000 1789.0318 -7460.3375 304.5093 -9249.3692 -7494.0136 298.0136 536.1927 569.1633 30421.3719 311.0664 389.1137
ENERGY: 900000 5.2652 4.7471 4.0401 0.0000 -10569.2572 1375.0978 0.0000 0.0000 1759.7896 -7420.3173 299.5320 -9180.1070 -7481.1546 299.6684 -340.7546 -326.4358 30491.9362 133.2872 200.6367
ENERGY: 1200000 1.7986 2.9464 4.3049 0.0000 -10550.3608 1362.3057 0.0000 0.0000 1768.3711 -7410.6342 300.9927 -9179.0053 -7474.2232 298.9396 -256.0567 -230.0436 30485.5877 109.5400 176.9264
ENERGY: 1500000 3.8157 3.3199 2.7285 0.0000 -10520.6982 1363.9132 0.0000 0.0000 1749.8474 -7397.0735 297.8398 -9146.9209 -7478.4809 298.2487 -517.2171 -402.0074 30999.6231 -29.3586 43.7079
TCL: Running FEP window  17: Lambda1 0.8000000000000002 Lambda2 0.8500000000000002 [dLambda 0.050000000000000044]
TCL: Setting parameter firsttimestep to 0
TCL: Setting parameter alchLambda to 0.8000000000000002
Info: NONBONDED TABLE R-SQUARED SPACING: 0.0625
Info: NONBONDED TABLE SIZE: 705 POINTS
TCL: Setting parameter alchLambda2 to 0.8500000000000002
Info: NONBONDED TABLE R-SQUARED SPACING: 0.0625
Info: NONBONDED TABLE SIZE: 705 POINTS
TCL: Running for 1500000 steps
ETITLE: TS BOND ANGLE DIHED IMPRP ELECT VDW BOUNDARY MISC KINETIC TOTAL TEMP POTENTIAL TOTALAVG TEMPAVG PRESSURE GPRESSURE VOLUME PRESSAVG GPRESSAVG
ENERGY: 0 3.8157 3.3199 2.7285 0.0000 -10523.4056 1364.6466 0.0000 0.0000 1748.9762 -7399.9187 297.6915 -9148.8949 -7399.9187 297.6915 -466.5153 -392.4364 30999.6231 -466.5153 -392.4364
ENERGY: 300000 3.8926 1.9909 5.2920 0.0000 -10715.0166 1420.0093 0.0000 0.0000 1784.7613 -7499.0705 303.7824 -9283.8318 -7491.7519 299.8115 -248.0489 -153.1440 30156.4921 -389.4575 -312.5283
ENERGY: 600000 3.1996 6.7624 7.6785 0.0000 -10675.1985 1383.1490 0.0000 0.0000 1804.3353 -7470.0737 307.1141 -9274.4090 -7476.9372 301.8612 -380.8037 -270.7388 30061.5720 -188.7023 -99.9543
ENERGY: 900000 3.1983 3.6078 3.2539 0.0000 -10802.2271 1521.1542 0.0000 0.0000 1785.3392 -7485.6737 303.8808 -9271.0129 -7475.2846 301.2101 494.2655 581.7761 30256.8373 -199.7784 -115.2000
ENERGY: 1200000 4.3491 4.5865 5.1637 0.0000 -10618.4882 1464.0237 0.0000 0.0000 1747.8517 -7392.5134 297.5001 -9140.3651 -7466.9494 301.1749 337.7968 474.4130 30520.5340 -55.2267 30.2493
ENERGY: 1500000 0.9253 1.7413 5.0857 0.0000 -10681.4059 1459.4111 0.0000 0.0000 1753.4901 -7460.7525 298.4598 -9214.2426 -7473.7748 300.5723 219.3138 269.1861 30469.4788 -58.2397 17.9140
TCL: Running FEP window  18: Lambda1 0.8500000000000002 Lambda2 0.9000000000000002 [dLambda 0.050000000000000044]
TCL: Setting parameter firsttimestep to 0
TCL: Setting parameter alchLambda to 0.8500000000000002
Info: NONBONDED TABLE R-SQUARED SPACING: 0.0625
Info: NONBONDED TABLE SIZE: 705 POINTS
TCL: Setting parameter alchLambda2 to 0.9000000000000002
Info: NONBONDED TABLE R-SQUARED SPACING: 0.0625
Info: NONBONDED TABLE SIZE: 705 POINTS
TCL: Running for 1500000 steps
ETITLE: TS BOND ANGLE DIHED IMPRP ELECT VDW BOUNDARY MISC KINETIC TOTAL TEMP POTENTIAL TOTALAVG TEMPAVG PRESSURE GPRESSURE VOLUME PRESSAVG GPRESSAVG
ENERGY: 0 0.9253 1.7413 5.0857 0.0000 -10683.6631 1460.2169 0.0000 0.0000 1752.6551 -7463.0387 298.3177 -9215.6938 -7463.0387 298.3177 200.3949 280.9854 30469.4788 200.3949 280.9854
ENERGY: 300000 2.1735 1.7135 3.7608 0.0000 -10831.3482 1441.6471 0.0000 0.0000 1796.3718 -7585.6816 305.7586 -9382.0534 -7503.4495 303.7425 -68.0533 -45.3198 30045.7979 -226.2375 -169.4562
ENERGY: 600000 2.8260 2.0253 4.1613 0.0000 -10701.7836 1443.5195 0.0000 0.0000 1776.2373 -7473.0141 302.3316 -9249.2514 -7467.4183 302.1773 115.4036 191.5169 30536.3234 -145.5943 -93.8035
ENERGY: 900000 6.8948 3.4707 4.2761 0.0000 -10680.4506 1442.2405 0.0000 0.0000 1771.7861 -7451.7825 301.5739 -9223.5685 -7471.9820 302.6800 33.3707 50.5048 30579.3718 77.8875 127.3736
ENERGY: 1200000 2.8343 3.3114 3.1343 0.0000 -10717.7257 1388.7151 0.0000 0.0000 1840.0354 -7479.6953 313.1906 -9319.7307 -7470.6063 303.3745 -448.8263 -378.0346 30204.0148 -46.7526 5.8377
ENERGY: 1500000 3.8030 2.5779 4.6636 0.0000 -10838.5344 1451.5112 0.0000 0.0000 1766.3209 -7609.6578 300.6437 -9375.9786 -7477.2751 302.8841 -257.8190 -195.4091 30297.3288 -93.7873 -34.9963
TCL: Running FEP window  19: Lambda1 0.9000000000000002 Lambda2 0.9500000000000003 [dLambda 0.050000000000000044]
TCL: Setting parameter firsttimestep to 0
TCL: Setting parameter alchLambda to 0.9000000000000002
Info: NONBONDED TABLE R-SQUARED SPACING: 0.0625
Info: NONBONDED TABLE SIZE: 705 POINTS
TCL: Setting parameter alchLambda2 to 0.9500000000000003
Info: NONBONDED TABLE R-SQUARED SPACING: 0.0625
Info: NONBONDED TABLE SIZE: 705 POINTS
TCL: Running for 1500000 steps
ETITLE: TS BOND ANGLE DIHED IMPRP ELECT VDW BOUNDARY MISC KINETIC TOTAL TEMP POTENTIAL TOTALAVG TEMPAVG PRESSURE GPRESSURE VOLUME PRESSAVG GPRESSAVG
ENERGY: 0 3.8030 2.5779 4.6636 0.0000 -10841.0520 1452.5129 0.0000 0.0000 1765.4442 -7612.0505 300.4945 -9377.4946 -7612.0505 300.4945 -250.1411 -176.3056 30297.3288 -250.1411 -176.3056
ENERGY: 300000 3.1864 5.9945 2.9471 0.0000 -10711.0977 1440.1764 0.0000 0.0000 1723.4006 -7535.3927 293.3383 -9258.7934 -7540.4027 299.2165 53.9363 104.1877 30210.2505 -201.6207 -128.2953
ENERGY: 600000 3.1320 2.0207 3.3226 0.0000 -10735.6229 1481.7370 0.0000 0.0000 1777.5689 -7467.8418 302.5582 -9245.4107 -7508.1441 300.3198 500.4657 563.1138 30154.9602 -224.9549 -147.4643
ENERGY: 900000 2.3880 3.6936 1.6638 0.0000 -10655.9805 1364.9319 0.0000 0.0000 1743.7789 -7539.5242 296.8068 -9283.3031 -7516.3560 299.1541 -621.2245 -485.3107 30270.7263 -232.1121 -150.5192
ENERGY: 1200000 1.0530 3.2538 2.8431 0.0000 -10751.2381 1488.4358 0.0000 0.0000 1791.5492 -7464.1032 304.9378 -9255.6525 -7515.7736 298.5638 411.5919 486.9767 30188.5994 -164.7274 -90.0450
ENERGY: 1500000 0.4599 4.1731 1.5416 0.0000 -10706.8166 1396.1915 0.0000 0.0000 1710.3937 -7594.0568 291.1244 -9304.4506 -7522.4675 297.4375 -325.4407 -258.7421 30278.9484 -142.1009 -70.2574
TCL: Running FEP window  20: Lambda1 0.9500000000000003 Lambda2 1.0    [dLambda 0.04999999999999971]
TCL: Setting parameter firsttimestep to 0
TCL: Setting parameter alchLambda to 0.9500000000000003
Info: NONBONDED TABLE R-SQUARED SPACING: 0.0625
Info: NONBONDED TABLE SIZE: 705 POINTS
TCL: Setting parameter alchLambda2 to 1.0
Info: NONBONDED TABLE R-SQUARED SPACING: 0.0625
Info: NONBONDED TABLE SIZE: 705 POINTS
TCL: Running for 1500000 steps
ETITLE: TS BOND ANGLE DIHED IMPRP ELECT VDW BOUNDARY MISC KINETIC TOTAL TEMP POTENTIAL TOTALAVG TEMPAVG PRESSURE GPRESSURE VOLUME PRESSAVG GPRESSAVG
ENERGY: 0 0.4599 4.1731 1.5416 0.0000 -10709.5320 1397.3421 0.0000 0.0000 1709.5670 -7596.4483 290.9837 -9306.0153 -7596.4483 290.9837 -312.0261 -237.5308 30278.9484 -312.0261 -237.5308
ENERGY: 300000 7.9890 4.1970 2.4798 0.0000 -10709.0417 1413.9710 0.0000 0.0000 1787.6951 -7492.7097 304.2818 -9280.4048 -7491.1412 301.1327 -491.0567 -449.0667 30444.1495 -99.2379 -26.8483
ENERGY: 600000 2.4045 4.0404 4.8763 0.0000 -10755.5160 1419.0715 0.0000 0.0000 1727.0453 -7598.0780 293.9587 -9325.1234 -7495.7980 301.6043 -362.4863 -372.3078 30369.6169 -212.7896 -156.6704
ENERGY: 900000 3.2507 3.7494 4.6007 0.0000 -10682.2793 1438.1293 0.0000 0.0000 1794.9175 -7437.6317 305.5111 -9232.5492 -7483.1804 301.5532 181.4138 197.9897 30387.1985 -231.5155 -176.2272
ENERGY: 1200000 3.3376 2.5834 3.5096 0.0000 -10540.7295 1350.7267 0.0000 0.0000 1763.7825 -7416.7897 300.2117 -9180.5722 -7483.1311 301.1783 -460.5564 -394.1265 30552.2514 -263.4726 -195.8407
ENERGY: 1500000 3.2679 4.0482 3.0456 0.0000 -10693.8377 1403.4819 0.0000 0.0000 1733.2021 -7546.7919 295.0066 -9279.9941 -7487.0977 300.9292 -636.2970 -557.6463 30792.7142 -311.3830 -243.7841
TCL: Exiting due to exit command.
