Info: SIMULATION PARAMETERS:
Info: TIMESTEP               2
Info: NUMBER OF STEPS        0
Info: STEPS PER CYCLE        10
Info: PERIODIC CELL BASIS 1  32.7545 0 0
Info: PERIODIC CELL BASIS 2  0 30.2203 0
Info: PERIODIC CELL BASIS 3  0 0 30.1929
Info: PERIODIC CELL CENTER   0 0 0
Info: WRAPPING WATERS AROUND PERIODIC BOUNDARIES ON OUTPUT.
Info: WRAPPING ALL CLUSTERS AROUND PERIODIC BOUNDARIES ON OUTPUT.
Info: FIRST LDB TIMESTEP     50
Info: LAST LDB TIMESTEP     -1
Info: HOM BACKGROUND SCALING 1
Info: PME BACKGROUND SCALING 1
Info: MIN ATOMS PER PATCH    40
Info: EMPTY PATCH LOAD       40 ATOMS
Info: VELOCITY FILE          mobley_2049967_equil.vel
Info: CENTER OF MASS MOVING INITIALLY? NO
Info: DIELECTRIC             1
Info: EXCLUDE                SCALED ONE-FOUR
Info: 1-4 ELECTROSTATICS SCALED BY 0.833333
Info: MODIFIED 1-4 VDW PARAMETERS WILL BE USED
Info: DCD FILENAME           mobley_2049967_prod.dcd
Info: DCD FREQUENCY          100000
Info: DCD FIRST STEP         100000
Info: DCD FILE WILL CONTAIN UNIT CELL DATA
Info: XST FILENAME           mobley_2049967_prod.xst
Info: XST FREQUENCY          100000
Info: NO VELOCITY DCD OUTPUT
Info: NO FORCE DCD OUTPUT
Info: OUTPUT FILENAME        mobley_2049967_prod
Info: BINARY OUTPUT FILES WILL BE USED
Info: RESTART FILENAME       mobley_2049967_prod.restart
Info: RESTART FREQUENCY      100000
Info: BINARY RESTART FILES WILL BE USED
Info: CUTOFF                 9
Info: PAIRLIST DISTANCE      11
Info: PAIRLIST SHRINK RATE   0.01
Info: PAIRLIST GROW RATE     0.01
Info: PAIRLIST TRIGGER       0.3
Info: PAIRLISTS PER CYCLE    2
Info: PAIRLISTS ENABLED
Info: MARGIN                 2
Info: HYDROGEN GROUP CUTOFF  2.5
Info: PATCH DIMENSION        15.5
Info: ENERGY OUTPUT STEPS    100000
Info: ENERGY EVALUATION STEPS    100000
Info: OUTPUT ENERGY PRECISION 4
Info: CROSSTERM ENERGY INCLUDED IN DIHEDRAL
Info: TIMING OUTPUT STEPS    1000000
Info: PRESSURE OUTPUT STEPS  100000
Info: ALCHEMICAL FEP ON
Info: FEP CURRENT LAMBDA VALUE     1
Info: FEP COMPARISON LAMBDA VALUE  0.95
Info: FEP INTRA-ALCHEMICAL NON-BONDED INTERACTIONS WILL BE RETAINED
Info: FEP INTRA-ALCHEMICAL BONDED INTERACTIONS WILL BE RETAINED
Info: FEP VDW SHIFTING COEFFICIENT 5
Info: FEP ELEC. ACTIVE FOR ANNIHILATED PARTICLES BETWEEN LAMBDA = 0 AND LAMBDA = 0.5
Info: FEP ELEC. ACTIVE FOR EXNIHILATED PARTICLES BETWEEN LAMBDA = 0.5 AND LAMBDA = 1
Info: FEP VDW ACTIVE FOR ANNIHILATED PARTICLES BETWEEN LAMBDA = 0 AND LAMBDA = 1
Info: FEP VDW ACTIVE FOR EXNIHILATED PARTICLES BETWEEN LAMBDA = 0 AND LAMBDA = 1
Info: FEP BOND ACTIVE FOR ANNIHILATED PARTICLES BETWEEN LAMBDA = 1 AND LAMBDA = 1
Info: FEP BOND ACTIVE FOR EXNIHILATED PARTICLES BETWEEN LAMBDA = 0 AND LAMBDA = 0
Info: LANGEVIN DYNAMICS ACTIVE
Info: LANGEVIN TEMPERATURE   300
Info: LANGEVIN USING BBK INTEGRATOR
Info: LANGEVIN DAMPING COEFFICIENT IS 1 INVERSE PS
Info: LANGEVIN DYNAMICS APPLIED TO HYDROGENS
Info: LANGEVIN PISTON PRESSURE CONTROL ACTIVE
Info:        TARGET PRESSURE IS 1.01325 BAR
Info:     OSCILLATION PERIOD IS 50 FS
Info:             DECAY TIME IS 25 FS
Info:     PISTON TEMPERATURE IS 300 K
Info:       PRESSURE CONTROL IS GROUP-BASED
Info:    INITIAL STRAIN RATE IS 0.00101654 0.00101654 0.00101654
Info:       CELL FLUCTUATION IS ISOTROPIC
Info: PARTICLE MESH EWALD (PME) ACTIVE
Info: PME TOLERANCE               1e-06
Info: PME EWALD COEFFICIENT       0.348832
Info: PME INTERPOLATION ORDER     4
Info: PME GRID DIMENSIONS         36 32 32
Info: PME MAXIMUM GRID SPACING    1
Info: PME CALCULATION WILL BE PERFORMED ON GPU
Info: FULL ELECTROSTATIC EVALUATION FREQUENCY      2
Info: USING VERLET I (r-RESPA) MTS SCHEME.
Info: C1 SPLITTING OF LONG RANGE ELECTROSTATICS
Info: PLACING ATOMS IN PATCHES BY HYDROGEN GROUPS
Info: RIGID BONDS TO HYDROGEN : ALL
Info:         ERROR TOLERANCE : 1e-08
Info:          MAX ITERATIONS : 100
Info: RIGID WATER USING SETTLE ALGORITHM
Info: RANDOM NUMBER SEED     1743712674
Info: USE HYDROGEN BONDS?    NO
Info: Using AMBER format force field!
Info: AMBER PARM FILE        mobley_2049967.prmtop
Info: COORDINATE PDB         mobley_2049967.pdb
Info: Exclusions will be read from PARM file!
Info: SCNB (VDW SCALING)     2
Info: USING ARITHMETIC MEAN TO COMBINE L-J SIGMA PARAMETERS
Info: BINARY COORDINATES     mobley_2049967_equil.coor
Info: SUMMARY OF PARAMETERS:
Info: 6 BONDS
Info: 7 ANGLES
Info:   7 HARMONIC
Info:   0 COSINE-BASED
Info: 2 DIHEDRAL
Info: 0 IMPROPER
Info: 0 CROSSTERM
Info: 0 VDW
Info: 21 VDW_PAIRS
Info: 0 NBTHOLE_PAIRS
Info: To read alchdata from file: mobley_2049967.pdb
Info: To read alchflag data from column: 5
Info: STRUCTURE SUMMARY:
Info: 2931 ATOMS
Info: 2930 BONDS
Info: 19 ANGLES
Info: 15 DIHEDRALS
Info: 0 IMPROPERS
Info: 0 CROSSTERMS
Info: 2964 EXCLUSIONS
Info: 2927 RIGID BONDS
Info: ALCH: 0 ATOMS TO DISAPPEAR IN FINAL STATE
Info: ALCH: 12 ATOMS TO APPEAR IN FINAL STATE
Info: 5866 DEGREES OF FREEDOM
Info: 977 HYDROGEN GROUPS
Info: 4 ATOMS IN LARGEST HYDROGEN GROUP
Info: 977 MIGRATION GROUPS
Info: 4 ATOMS IN LARGEST MIGRATION GROUP
Info: TOTAL MASS = 17605.7 amu
Info: TOTAL CHARGE = 9.99859e-05 e
Info: MASS DENSITY = 0.978224 g/cm^3
Info: ATOM DENSITY = 0.0980711 atoms/A^3
Info: ADDED 0 IMPLICIT EXCLUSIONS
Info: NONBONDED TABLE R-SQUARED SPACING: 0.0625
Info: NONBONDED TABLE SIZE: 705 POINTS
Info: REMOVING COM VELOCITY -0.0475151 0.144807 -0.00696775
Info: Use 3D box decompostion in PME FFT.
Info: Updated CUDA force table with 4096 elements.
Info: Updated CUDA LJ table with 6 x 6 elements.
Info: Found 15 unique exclusion lists needing 28 bytes
TCL: Running for 1500000 steps
ETITLE: TS BOND ANGLE DIHED IMPRP ELECT VDW BOUNDARY MISC KINETIC TOTAL TEMP POTENTIAL TOTALAVG TEMPAVG PRESSURE GPRESSURE VOLUME PRESSAVG GPRESSAVG
ENERGY: 0 0.6577 7.5140 1.5922 0.0000 -10592.1289 1426.4489 0.0000 0.0000 1748.3849 -7407.5313 299.9752 -9155.9162 -7407.5313 299.9752 247.8509 318.3882 29886.4833 247.8509 318.3882
ENERGY: 300000 0.3871 11.7070 2.0899 0.0000 -10783.9583 1572.5665 0.0000 0.0000 1765.1226 -7432.0851 302.8470 -9197.2077 -7438.8014 302.1592 1219.0436 1307.1043 29985.3068 67.0140 126.7094
ENERGY: 600000 1.0308 2.3506 1.1476 0.0000 -10692.7862 1495.8591 0.0000 0.0000 1713.7537 -7478.6443 294.0334 -9192.3980 -7450.3137 299.9842 243.5614 336.7382 30511.9635 136.4278 197.5008
ENERGY: 900000 2.0397 3.9046 1.1611 0.0000 -10635.3927 1424.1975 0.0000 0.0000 1772.3884 -7431.7015 304.0936 -9204.0899 -7443.7303 299.9728 -198.3298 -194.7027 30431.4433 39.1171 94.7528
ENERGY: 1200000 0.7930 7.6956 0.0840 0.0000 -10614.4488 1424.5096 0.0000 0.0000 1798.7421 -7382.6244 308.6151 -9181.3665 -7439.4413 301.2410 104.4295 197.6476 30142.4907 1.0331 55.5677
ENERGY: 1500000 0.1230 4.1009 1.7475 0.0000 -10655.1470 1470.6122 0.0000 0.0000 1775.5357 -7403.0277 304.6335 -9178.5634 -7440.7490 301.3551 420.1475 518.8331 30115.7845 54.1385 111.4726
TCL: Running FEP window   2: Lambda1 0.95   Lambda2 0.8999999999999999 [dLambda -0.050000000000000044]
TCL: Setting parameter firsttimestep to 0
TCL: Setting parameter alchLambda to 0.95
Info: NONBONDED TABLE R-SQUARED SPACING: 0.0625
Info: NONBONDED TABLE SIZE: 705 POINTS
TCL: Setting parameter alchLambda2 to 0.8999999999999999
Info: NONBONDED TABLE R-SQUARED SPACING: 0.0625
Info: NONBONDED TABLE SIZE: 705 POINTS
TCL: Running for 1500000 steps
ETITLE: TS BOND ANGLE DIHED IMPRP ELECT VDW BOUNDARY MISC KINETIC TOTAL TEMP POTENTIAL TOTALAVG TEMPAVG PRESSURE GPRESSURE VOLUME PRESSAVG GPRESSAVG
ENERGY: 0 0.1230 4.1009 1.7475 0.0000 -10654.6869 1471.0142 0.0000 0.0000 1774.6640 -7403.0373 304.4840 -9177.7013 -7403.0373 304.4840 437.3928 520.5272 30115.7845 437.3928 520.5272
ENERGY: 300000 1.8400 6.2119 0.6959 0.0000 -10706.8658 1446.9830 0.0000 0.0000 1710.9233 -7540.2117 293.5478 -9251.1350 -7448.7960 300.7660 -247.1820 -169.6625 30381.2261 58.6125 117.9647
ENERGY: 600000 0.6477 4.5264 0.6186 0.0000 -10690.4458 1452.3008 0.0000 0.0000 1730.0674 -7502.2849 296.8324 -9232.3523 -7459.0114 300.1376 -18.2606 3.6140 30235.3850 100.8016 140.7127
ENERGY: 900000 2.5845 7.3243 1.7431 0.0000 -10646.0465 1411.1598 0.0000 0.0000 1752.1620 -7471.0728 300.6233 -9223.2348 -7447.4567 301.4410 -562.4114 -509.5074 30837.4600 30.2467 72.3429
ENERGY: 1200000 1.8427 6.0007 1.5380 0.0000 -10559.3164 1396.4513 0.0000 0.0000 1730.6281 -7422.8556 296.9286 -9153.4837 -7447.2072 299.9635 -66.3223 -30.4907 30101.1269 21.8494 70.3838
ENERGY: 1500000 2.1369 4.8198 1.9195 0.0000 -10683.9181 1482.3174 0.0000 0.0000 1791.0290 -7401.6955 307.2918 -9192.7245 -7441.7437 300.4069 477.1112 505.8393 30044.7060 60.5068 106.1190
TCL: Running FEP window   3: Lambda1 0.8999999999999999 Lambda2 0.8499999999999999 [dLambda -0.050000000000000044]
TCL: Setting parameter firsttimestep to 0
TCL: Setting parameter alchLambda to 0.8999999999999999
Info: NONBONDED TABLE R-SQUARED SPACING: 0.0625
Info: NONBONDED TABLE SIZE: 705 POINTS
TCL: Setting parameter alchLambda2 to 0.8499999999999999
Info: NONBONDED TABLE R-SQUARED SPACING: 0.0625
Info: NONBONDED TABLE SIZE: 705 POINTS
TCL: Running for 1500000 steps
ETITLE: TS BOND ANGLE DIHED IMPRP ELECT VDW BOUNDARY MISC KINETIC TOTAL TEMP POTENTIAL TOTALAVG TEMPAVG PRESSURE GPRESSURE VOLUME PRESSAVG GPRESSAVG
ENERGY: 0 2.1369 4.8198 1.9195 0.0000 -10683.7201 1482.1317 0.0000 0.0000 1790.1367 -7402.5755 307.1387 -9192.7122 -7402.5755 307.1387 403.7476 492.4649 30044.7060 403.7476 492.4649
ENERGY: 300000 0.0939 2.7859 0.1321 0.0000 -10616.9420 1455.8810 0.0000 0.0000 1759.3572 -7398.6919 301.8578 -9158.0491 -7434.1145 302.0610 257.7586 357.2035 30331.9596 381.2458 443.0334
ENERGY: 600000 0.9904 2.9024 2.1744 0.0000 -10692.7368 1431.9739 0.0000 0.0000 1695.2323 -7559.4634 290.8557 -9254.6957 -7456.9950 300.8573 -173.8445 -69.3599 29866.3297 290.9096 358.4642
ENERGY: 900000 0.8456 4.5776 2.4878 0.0000 -10501.8888 1345.1003 0.0000 0.0000 1733.2461 -7415.6314 297.3778 -9148.8776 -7448.2664 300.2366 -515.9550 -460.7079 30241.9500 88.9535 160.2773
ENERGY: 1200000 0.1182 7.5803 0.8234 0.0000 -10555.7840 1411.8639 0.0000 0.0000 1730.3264 -7405.0718 296.8769 -9135.3982 -7450.1321 299.2964 -185.9077 -91.5028 30576.0124 43.4973 113.9195
ENERGY: 1500000 0.3241 7.4030 1.1542 0.0000 -10647.2747 1451.8539 0.0000 0.0000 1753.5138 -7433.0256 300.8552 -9186.5394 -7444.4910 299.6437 339.2477 392.0947 30007.5955 -12.3135 55.5739
TCL: Running FEP window   4: Lambda1 0.8499999999999999 Lambda2 0.7999999999999998 [dLambda -0.050000000000000044]
TCL: Setting parameter firsttimestep to 0
TCL: Setting parameter alchLambda to 0.8499999999999999
Info: NONBONDED TABLE R-SQUARED SPACING: 0.0625
Info: NONBONDED TABLE SIZE: 705 POINTS
TCL: Setting parameter alchLambda2 to 0.7999999999999998
Info: NONBONDED TABLE R-SQUARED SPACING: 0.0625
Info: NONBONDED TABLE SIZE: 705 POINTS
TCL: Running for 1500000 steps
ETITLE: TS BOND ANGLE DIHED IMPRP ELECT VDW BOUNDARY MISC KINETIC TOTAL TEMP POTENTIAL TOTALAVG TEMPAVG PRESSURE GPRESSURE VOLUME PRESSAVG GPRESSAVG
ENERGY: 0 0.3241 7.4030 1.1542 0.0000 -10647.0320 1452.0052 0.0000 0.0000 1752.6317 -7433.5138 300.7038 -9186.1455 -7433.5138 300.7038 306.0861 387.1440 30007.5955 306.0861 387.1440
ENERGY: 300000 1.0795 5.2807 1.5658 0.0000 -10583.5265 1388.3473 0.0000 0.0000 1763.1942 -7424.0590 302.5161 -9187.2532 -7403.8788 298.6340 -131.7142 -91.2948 29834.3087 -0.1103 61.2399
ENERGY: 600000 0.9454 3.1526 0.1474 0.0000 -10624.3668 1416.1239 0.0000 0.0000 1715.4142 -7488.5833 294.3183 -9203.9976 -7426.8375 298.7228 35.2847 50.6455 30017.8137 -40.1436 0.3327
ENERGY: 900000 0.0760 9.3382 0.3201 0.0000 -10748.4106 1477.9749 0.0000 0.0000 1785.1420 -7475.5594 306.2817 -9260.7014 -7440.8790 298.5796 307.6282 395.5910 30151.1272 21.3635 56.1185
ENERGY: 1200000 0.4454 4.2185 2.0163 0.0000 -10599.1908 1410.2731 0.0000 0.0000 1750.7606 -7431.4769 300.3828 -9182.2374 -7443.9056 298.6483 -247.9599 -163.1223 30375.6479 -3.4540 43.1607
ENERGY: 1500000 0.7379 4.0637 2.6291 0.0000 -10676.8679 1422.6175 0.0000 0.0000 1729.9293 -7516.8904 296.8087 -9246.8197 -7441.1649 299.7403 -136.6296 -28.3108 30143.6714 -9.3310 44.8984
TCL: Running FEP window   5: Lambda1 0.7999999999999998 Lambda2 0.7499999999999998 [dLambda -0.050000000000000044]
TCL: Setting parameter firsttimestep to 0
TCL: Setting parameter alchLambda to 0.7999999999999998
Info: NONBONDED TABLE R-SQUARED SPACING: 0.0625
Info: NONBONDED TABLE SIZE: 705 POINTS
TCL: Setting parameter alchLambda2 to 0.7499999999999998
Info: NONBONDED TABLE R-SQUARED SPACING: 0.0625
Info: NONBONDED TABLE SIZE: 705 POINTS
TCL: Running for 1500000 steps
ETITLE: TS BOND ANGLE DIHED IMPRP ELECT VDW BOUNDARY MISC KINETIC TOTAL TEMP POTENTIAL TOTALAVG TEMPAVG PRESSURE GPRESSURE VOLUME PRESSAVG GPRESSAVG
ENERGY: 0 0.7379 4.0637 2.6291 0.0000 -10676.6047 1422.7472 0.0000 0.0000 1729.0770 -7517.3498 296.6625 -9246.4269 -7517.3498 296.6625 -119.5988 -35.9877 30143.6714 -119.5988 -35.9877
ENERGY: 300000 2.6409 5.9738 2.7036 0.0000 -10586.7583 1402.4591 0.0000 0.0000 1732.1252 -7440.8558 297.1855 -9172.9809 -7459.3512 302.4236 -257.7625 -288.5467 30428.6361 -175.6254 -124.2461
ENERGY: 600000 0.3738 5.7334 1.3268 0.0000 -10808.6525 1562.8422 0.0000 0.0000 1750.2844 -7488.0919 300.3011 -9238.3763 -7479.0894 302.3515 952.1911 1028.9039 29997.8484 36.2427 98.2707
ENERGY: 900000 0.6705 5.5601 0.4182 0.0000 -10513.9770 1384.9586 0.0000 0.0000 1783.4413 -7338.9282 305.9899 -9122.3695 -7452.6927 301.8550 -65.5072 -24.8906 30111.6144 2.0603 63.5281
ENERGY: 1200000 1.4021 3.2559 0.7437 0.0000 -10490.3080 1323.6984 0.0000 0.0000 1761.3395 -7399.8685 302.1979 -9161.2080 -7446.5418 301.3140 -846.3749 -789.6864 30391.7563 -5.8146 56.9575
ENERGY: 1500000 0.4009 1.7401 0.6064 0.0000 -10654.3424 1422.6017 0.0000 0.0000 1739.1831 -7489.8101 298.3964 -9228.9932 -7450.8115 300.8758 -157.9031 -30.9051 30268.1598 -21.5340 43.3641
TCL: Running FEP window   6: Lambda1 0.7499999999999998 Lambda2 0.6999999999999997 [dLambda -0.050000000000000044]
TCL: Setting parameter firsttimestep to 0
TCL: Setting parameter alchLambda to 0.7499999999999998
Info: NONBONDED TABLE R-SQUARED SPACING: 0.0625
Info: NONBONDED TABLE SIZE: 705 POINTS
TCL: Setting parameter alchLambda2 to 0.6999999999999997
Info: NONBONDED TABLE R-SQUARED SPACING: 0.0625
Info: NONBONDED TABLE SIZE: 705 POINTS
TCL: Running for 1500000 steps
ETITLE: TS BOND ANGLE DIHED IMPRP ELECT VDW BOUNDARY MISC KINETIC TOTAL TEMP POTENTIAL TOTALAVG TEMPAVG PRESSURE GPRESSURE VOLUME PRESSAVG GPRESSAVG
ENERGY: 0 0.4009 1.7401 0.6064 0.0000 -10654.1270 1422.7410 0.0000 0.0000 1738.3370 -7490.3016 298.2513 -9228.6385 -7490.3016 298.2513 -114.7308 -34.1851 30268.1598 -114.7308 -34.1851
ENERGY: 300000 1.1904 4.2582 0.1200 0.0000 -10621.8936 1444.7619 0.0000 0.0000 1767.2535 -7404.3095 303.2125 -9171.5630 -7436.6443 304.8650 60.3296 94.7353 30522.9539 2.3719 57.0092
ENERGY: 600000 1.3513 6.5305 0.6465 0.0000 -10651.2524 1481.3563 0.0000 0.0000 1781.9849 -7379.3830 305.7401 -9161.3679 -7425.2501 303.2147 645.1799 701.0396 30029.4727 243.2688 286.0109
ENERGY: 900000 0.0761 4.8533 0.2268 0.0000 -10686.3979 1487.9307 0.0000 0.0000 1779.4873 -7413.8238 305.3115 -9193.3110 -7434.0130 302.6108 365.2258 400.5081 30347.4133 320.4057 367.1101
ENERGY: 1200000 2.7793 6.1804 0.2818 0.0000 -10774.5700 1500.9440 0.0000 0.0000 1761.9306 -7502.4538 302.2993 -9264.3844 -7439.0823 301.5282 331.9750 346.5554 30306.9691 296.4550 337.1818
ENERGY: 1500000 0.2344 3.7688 2.3138 0.0000 -10627.0646 1407.6576 0.0000 0.0000 1729.5719 -7483.5181 296.7474 -9213.0900 -7427.5807 302.2179 -219.3468 -132.2969 30035.8023 206.3439 255.1522
TCL: Running FEP window   7: Lambda1 0.6999999999999997 Lambda2 0.6499999999999997 [dLambda -0.050000000000000044]
TCL: Setting parameter firsttimestep to 0
TCL: Setting parameter alchLambda to 0.6999999999999997
Info: NONBONDED TABLE R-SQUARED SPACING: 0.0625
Info: NONBONDED TABLE SIZE: 705 POINTS
TCL: Setting parameter alchLambda2 to 0.6499999999999997
Info: NONBONDED TABLE R-SQUARED SPACING: 0.0625
Info: NONBONDED TABLE SIZE: 705 POINTS
TCL: Running for 1500000 steps
ETITLE: TS BOND ANGLE DIHED IMPRP ELECT VDW BOUNDARY MISC KINETIC TOTAL TEMP POTENTIAL TOTALAVG TEMPAVG PRESSURE GPRESSURE VOLUME PRESSAVG GPRESSAVG
ENERGY: 0 0.2344 3.7688 2.3138 0.0000 -10627.0614 1407.8979 0.0000 0.0000 1728.6981 -7484.1483 296.5975 -9212.8465 -7484.1483 296.5975 -201.1084 -138.5784 30035.8023 -201.1084 -138.5784
ENERGY: 300000 1.5792 5.5375 0.3134 0.0000 -10616.0954 1420.7784 0.0000 0.0000 1719.0040 -7468.8829 294.9342 -9187.8868 -7493.9571 298.0071 -104.5602 -0.3280 30407.7107 7.9764 96.5601
ENERGY: 600000 1.6828 6.5225 0.5842 0.0000 -10737.6539 1514.1060 0.0000 0.0000 1778.3524 -7436.4060 305.1168 -9214.7584 -7467.4401 299.9644 569.5227 617.2750 30533.9107 -78.3277 4.2826
ENERGY: 900000 1.2154 4.4409 2.0723 0.0000 -10733.9392 1510.5305 0.0000 0.0000 1788.8339 -7426.8463 306.9152 -9215.6801 -7456.0949 300.4451 610.5771 653.8776 30265.2302 -151.0403 -77.9495
ENERGY: 1200000 0.9167 8.1494 0.2623 0.0000 -10625.4964 1447.7493 0.0000 0.0000 1714.1966 -7454.2221 294.1094 -9168.4187 -7443.9521 300.3253 204.6911 219.9741 30051.7175 -93.7704 -23.5484
ENERGY: 1500000 1.0690 7.9530 0.4146 0.0000 -10615.2330 1439.5590 0.0000 0.0000 1784.6777 -7381.5597 306.2021 -9166.2373 -7445.1077 300.9748 200.8967 308.8305 30169.4653 -85.0605 -13.5788
TCL: Running FEP window   8: Lambda1 0.6499999999999997 Lambda2 0.5999999999999996 [dLambda -0.050000000000000044]
TCL: Setting parameter firsttimestep to 0
TCL: Setting parameter alchLambda to 0.6499999999999997
Info: NONBONDED TABLE R-SQUARED SPACING: 0.0625
Info: NONBONDED TABLE SIZE: 705 POINTS
TCL: Setting parameter alchLambda2 to 0.5999999999999996
Info: NONBONDED TABLE R-SQUARED SPACING: 0.0625
Info: NONBONDED TABLE SIZE: 705 POINTS
TCL: Running for 1500000 steps
ETITLE: TS BOND ANGLE DIHED IMPRP ELECT VDW BOUNDARY MISC KINETIC TOTAL TEMP POTENTIAL TOTALAVG TEMPAVG PRESSURE GPRESSURE VOLUME PRESSAVG GPRESSAVG
ENERGY: 0 1.0690 7.9530 0.4146 0.0000 -10614.4655 1439.6654 0.0000 0.0000 1783.7518 -7381.6117 306.0432 -9165.3635 -7381.6117 306.0432 214.2137 304.6535 30169.4653 214.2137 304.6535
ENERGY: 300000 0.4771 5.1761 0.4804 0.0000 -10587.3066 1392.9529 0.0000 0.0000 1738.8396 -7449.3805 298.3375 -9188.2201 -7421.8336 303.7856 -41.2223 -28.5495 29845.9618 -20.1377 48.4734
ENERGY: 600000 0.8842 2.3162 1.1567 0.0000 -10623.9078 1401.9650 0.0000 0.0000 1787.8563 -7429.7294 306.7474 -9217.5857 -7439.5635 302.1040 -322.9637 -217.9804 29937.9259 -94.2408 -18.8273
ENERGY: 900000 1.0032 4.6453 0.2995 0.0000 -10517.7831 1343.7354 0.0000 0.0000 1773.2344 -7394.8653 304.2387 -9168.0997 -7441.1298 301.7703 -696.8836 -619.5751 30478.8541 -56.7893 16.1650
ENERGY: 1200000 1.0805 7.0229 1.0641 0.0000 -10653.1463 1494.9784 0.0000 0.0000 1734.6841 -7414.3163 297.6245 -9149.0004 -7435.7939 301.3836 327.4335 392.7221 30504.5892 -29.0487 36.9681
ENERGY: 1500000 1.2474 5.0003 1.0684 0.0000 -10513.0086 1373.7685 0.0000 0.0000 1777.4386 -7354.4855 304.9600 -9131.9241 -7431.4911 301.2526 -489.4824 -423.8456 30800.8741 12.6748 73.2148
TCL: Running FEP window   9: Lambda1 0.5999999999999996 Lambda2 0.5499999999999996 [dLambda -0.050000000000000044]
TCL: Setting parameter firsttimestep to 0
TCL: Setting parameter alchLambda to 0.5999999999999996
Info: NONBONDED TABLE R-SQUARED SPACING: 0.0625
Info: NONBONDED TABLE SIZE: 705 POINTS
TCL: Setting parameter alchLambda2 to 0.5499999999999996
Info: NONBONDED TABLE R-SQUARED SPACING: 0.0625
Info: NONBONDED TABLE SIZE: 705 POINTS
TCL: Running for 1500000 steps
ETITLE: TS BOND ANGLE DIHED IMPRP ELECT VDW BOUNDARY MISC KINETIC TOTAL TEMP POTENTIAL TOTALAVG TEMPAVG PRESSURE GPRESSURE VOLUME PRESSAVG GPRESSAVG
ENERGY: 0 1.2474 5.0003 1.0684 0.0000 -10512.9399 1374.1223 0.0000 0.0000 1776.5576 -7354.9440 304.8089 -9131.5016 -7354.9440 304.8089 -506.3354 -426.8844 30800.8741 -506.3354 -426.8844
ENERGY: 300000 1.6006 3.1729 1.0627 0.0000 -10638.7888 1473.4776 0.0000 0.0000 1814.8082 -7344.6667 311.3716 -9159.4749 -7347.0060 305.7049 257.4574 378.7282 30452.3876 -33.0100 40.8803
ENERGY: 600000 0.3811 5.2161 1.4018 0.0000 -10709.4651 1474.7795 0.0000 0.0000 1739.3542 -7488.3323 298.4258 -9227.6865 -7385.3348 301.9748 66.5016 92.6129 30178.2990 -3.9399 47.7378
ENERGY: 900000 1.6739 5.7270 1.2735 0.0000 -10695.3735 1434.0688 0.0000 0.0000 1677.7907 -7574.8396 287.8632 -9252.6303 -7417.3985 299.9823 4.9635 42.5273 29669.9718 15.1163 75.8483
ENERGY: 1200000 0.4159 5.0455 1.9456 0.0000 -10506.0283 1332.6963 0.0000 0.0000 1750.0439 -7415.8811 300.2599 -9165.9250 -7412.8530 300.1534 -764.1233 -732.8676 30540.1418 -137.7221 -77.8205
ENERGY: 1500000 0.4359 4.9812 0.3095 0.0000 -10699.7742 1515.8963 0.0000 0.0000 1742.4258 -7435.7256 298.9528 -9178.1514 -7426.7097 300.5806 582.8798 655.3735 30361.6897 -89.3944 -27.2862
TCL: Running FEP window  10: Lambda1 0.5499999999999996 Lambda2 0.4999999999999996 [dLambda -0.04999999999999999]
TCL: Setting parameter firsttimestep to 0
TCL: Setting parameter alchLambda to 0.5499999999999996
Info: NONBONDED TABLE R-SQUARED SPACING: 0.0625
Info: NONBONDED TABLE SIZE: 705 POINTS
TCL: Setting parameter alchLambda2 to 0.4999999999999996
Info: NONBONDED TABLE R-SQUARED SPACING: 0.0625
Info: NONBONDED TABLE SIZE: 705 POINTS
TCL: Running for 1500000 steps
ETITLE: TS BOND ANGLE DIHED IMPRP ELECT VDW BOUNDARY MISC KINETIC TOTAL TEMP POTENTIAL TOTALAVG TEMPAVG PRESSURE GPRESSURE VOLUME PRESSAVG GPRESSAVG
ENERGY: 0 0.4359 4.9812 0.3095 0.0000 -10699.0068 1516.0635 0.0000 0.0000 1741.5584 -7435.6584 298.8040 -9177.2168 -7435.6584 298.8040 567.8712 652.7015 30361.6897 567.8712 652.7015
ENERGY: 300000 0.8351 4.4820 1.5367 0.0000 -10518.2226 1372.1017 0.0000 0.0000 1726.6993 -7412.5678 296.2546 -9139.2672 -7395.1847 298.9626 -515.2221 -440.6505 30631.5273 13.2116 91.6062
ENERGY: 600000 0.2910 5.7445 0.7429 0.0000 -10464.8026 1358.9306 0.0000 0.0000 1736.3431 -7362.7504 297.9092 -9099.0935 -7393.9069 300.5435 -360.1478 -328.0816 30224.6408 -135.4675 -82.8977
ENERGY: 900000 0.2836 5.6894 0.4864 0.0000 -10593.5374 1416.1899 0.0000 0.0000 1772.3349 -7398.5533 304.0844 -9170.8882 -7406.5141 300.3961 -106.9522 -0.7723 30348.6864 -210.5494 -148.1577
ENERGY: 1200000 3.4388 7.0981 2.6752 0.0000 -10714.6835 1510.6488 0.0000 0.0000 1714.0778 -7476.7448 294.0891 -9190.8226 -7418.9612 300.1575 740.7811 793.4782 29833.9452 -131.1432 -68.1660
ENERGY: 1500000 1.8560 1.6664 2.1126 0.0000 -10666.4033 1419.5674 0.0000 0.0000 1782.5846 -7458.6162 305.8430 -9241.2008 -7427.8756 300.4215 -120.2951 -41.9253 29955.9892 -61.6218 2.5050
TCL: Running FEP window  11: Lambda1 0.4999999999999996 Lambda2 0.4499999999999996 [dLambda -0.04999999999999999]
TCL: Setting parameter firsttimestep to 0
TCL: Setting parameter alchLambda to 0.4999999999999996
Info: NONBONDED TABLE R-SQUARED SPACING: 0.0625
Info: NONBONDED TABLE SIZE: 705 POINTS
TCL: Setting parameter alchLambda2 to 0.4499999999999996
Info: NONBONDED TABLE R-SQUARED SPACING: 0.0625
Info: NONBONDED TABLE SIZE: 705 POINTS
TCL: Running for 1500000 steps
ETITLE: TS BOND ANGLE DIHED IMPRP ELECT VDW BOUNDARY MISC KINETIC TOTAL TEMP POTENTIAL TOTALAVG TEMPAVG PRESSURE GPRESSURE VOLUME PRESSAVG GPRESSAVG
ENERGY: 0 1.8560 1.6664 2.1126 0.0000 -10666.4598 1419.8724 0.0000 0.0000 1781.7332 -7459.2191 305.6969 -9240.9524 -7459.2191 305.6969 -139.8034 -42.9590 29955.9892 -139.8034 -42.9590
ENERGY: 300000 0.7545 3.0817 0.2632 0.0000 -10661.6020 1463.6748 0.0000 0.0000 1765.2679 -7428.5598 302.8719 -9193.8277 -7474.9039 301.3034 188.1023 280.8187 30311.2956 140.6450 207.6130
ENERGY: 600000 0.6137 4.9370 0.3394 0.0000 -10679.6351 1428.2999 0.0000 0.0000 1706.8348 -7538.6103 292.8464 -9245.4452 -7479.4234 298.5018 -131.8835 -98.3359 30087.7701 46.2889 98.8773
ENERGY: 900000 0.1859 3.7455 0.2467 0.0000 -10576.3061 1387.0950 0.0000 0.0000 1757.5711 -7427.4620 301.5513 -9185.0331 -7461.6831 299.3173 -175.7526 -209.6244 30059.0982 -44.3302 -9.3650
ENERGY: 1200000 0.7572 5.7601 0.9845 0.0000 -10694.9381 1468.4760 0.0000 0.0000 1764.7320 -7454.2284 302.7799 -9218.9604 -7463.6894 298.9975 245.2348 210.0940 30275.0765 -14.8006 18.5865
ENERGY: 1500000 0.5263 3.1532 0.5522 0.0000 -10503.8377 1350.6430 0.0000 0.0000 1742.0308 -7406.9322 298.8850 -9148.9630 -7455.9019 299.6571 -550.8574 -458.4821 30320.6274 -41.7004 0.0692
TCL: Running FEP window  12: Lambda1 0.4499999999999996 Lambda2 0.39999999999999963 [dLambda -0.04999999999999999]
TCL: Setting parameter firsttimestep to 0
TCL: Setting parameter alchLambda to 0.4499999999999996
Info: NONBONDED TABLE R-SQUARED SPACING: 0.0625
Info: NONBONDED TABLE SIZE: 705 POINTS
TCL: Setting parameter alchLambda2 to 0.39999999999999963
Info: NONBONDED TABLE R-SQUARED SPACING: 0.0625
Info: NONBONDED TABLE SIZE: 705 POINTS
TCL: Running for 1500000 steps
ETITLE: TS BOND ANGLE DIHED IMPRP ELECT VDW BOUNDARY MISC KINETIC TOTAL TEMP POTENTIAL TOTALAVG TEMPAVG PRESSURE GPRESSURE VOLUME PRESSAVG GPRESSAVG
ENERGY: 0 0.5263 3.1532 0.5522 0.0000 -10503.8375 1350.3696 0.0000 0.0000 1741.1609 -7408.0752 298.7358 -9149.2361 -7408.0752 298.7358 -545.7308 -468.3000 30320.6274 -545.7308 -468.3000
ENERGY: 300000 0.3804 4.1843 0.5290 0.0000 -10699.3401 1433.5345 0.0000 0.0000 1802.2206 -7458.4913 309.2120 -9260.7119 -7430.5066 305.1471 83.9137 171.7559 29593.2940 -128.1891 -53.9913
ENERGY: 600000 1.6143 6.9614 1.4715 0.0000 -10609.9519 1438.4682 0.0000 0.0000 1757.9892 -7403.4473 301.6230 -9161.4365 -7428.7762 304.3388 23.7673 113.4303 30451.6863 -149.7665 -70.6778
ENERGY: 900000 0.4589 4.9188 0.5231 0.0000 -10637.9393 1403.0406 0.0000 0.0000 1731.0301 -7497.9678 296.9976 -9228.9979 -7434.8744 302.0360 -349.9158 -317.8272 30212.1806 -285.1653 -220.3859
ENERGY: 1200000 0.6199 5.0787 0.2781 0.0000 -10564.3937 1426.4869 0.0000 0.0000 1695.7149 -7436.2152 290.9385 -9131.9301 -7427.9811 300.8945 -55.8267 16.5793 30310.3641 -237.8218 -172.4967
ENERGY: 1500000 0.2111 6.9611 0.8044 0.0000 -10685.4004 1533.6039 0.0000 0.0000 1710.7142 -7433.1057 293.5119 -9143.8199 -7428.2590 300.5470 903.1874 977.3591 30124.4530 -198.9834 -134.9710
TCL: Running FEP window  13: Lambda1 0.39999999999999963 Lambda2 0.34999999999999964 [dLambda -0.04999999999999999]
TCL: Setting parameter firsttimestep to 0
TCL: Setting parameter alchLambda to 0.39999999999999963
Info: NONBONDED TABLE R-SQUARED SPACING: 0.0625
Info: NONBONDED TABLE SIZE: 705 POINTS
TCL: Setting parameter alchLambda2 to 0.34999999999999964
Info: NONBONDED TABLE R-SQUARED SPACING: 0.0625
Info: NONBONDED TABLE SIZE: 705 POINTS
TCL: Running for 1500000 steps
ETITLE: TS BOND ANGLE DIHED IMPRP ELECT VDW BOUNDARY MISC KINETIC TOTAL TEMP POTENTIAL TOTALAVG TEMPAVG PRESSURE GPRESSURE VOLUME PRESSAVG GPRESSAVG
ENERGY: 0 0.2111 6.9611 0.8044 0.0000 -10685.4006 1533.7993 0.0000 0.0000 1709.8135 -7433.8112 293.3574 -9143.6247 -7433.8112 293.3574 884.4503 974.2805 30124.4530 884.4503 974.2805
ENERGY: 300000 0.0561 5.2178 0.5406 0.0000 -10605.3995 1377.0260 0.0000 0.0000 1728.5646 -7493.9945 296.5746 -9222.5591 -7444.0535 297.7627 -407.6837 -288.8270 29722.6891 -27.9179 74.1066
ENERGY: 600000 2.6441 5.5327 1.0598 0.0000 -10672.9561 1507.7290 0.0000 0.0000 1750.8468 -7405.1437 300.3976 -9155.9905 -7443.3449 296.8978 854.2314 974.6254 29607.5476 44.1831 137.2701
ENERGY: 900000 0.1397 6.5337 0.0687 0.0000 -10504.0949 1391.7389 0.0000 0.0000 1784.6783 -7320.9356 306.2022 -9105.6139 -7422.9071 298.2635 -223.9027 -146.6685 30615.7754 130.1809 211.2591
ENERGY: 1200000 0.6855 2.7517 2.4865 0.0000 -10574.7397 1426.1348 0.0000 0.0000 1710.3194 -7432.3620 293.4442 -9142.6813 -7424.4883 297.9430 -0.6861 33.7490 30213.3038 29.0215 106.2848
ENERGY: 1500000 0.2182 4.7970 0.8779 0.0000 -10694.9049 1435.8485 0.0000 0.0000 1717.5964 -7535.5668 294.6928 -9253.1633 -7429.1438 297.4274 -201.3356 -69.0053 30011.6742 14.1295 97.5638
TCL: Running FEP window  14: Lambda1 0.34999999999999964 Lambda2 0.29999999999999966 [dLambda -0.04999999999999999]
TCL: Setting parameter firsttimestep to 0
TCL: Setting parameter alchLambda to 0.34999999999999964
Info: NONBONDED TABLE R-SQUARED SPACING: 0.0625
Info: NONBONDED TABLE SIZE: 705 POINTS
TCL: Setting parameter alchLambda2 to 0.29999999999999966
Info: NONBONDED TABLE R-SQUARED SPACING: 0.0625
Info: NONBONDED TABLE SIZE: 705 POINTS
TCL: Running for 1500000 steps
ETITLE: TS BOND ANGLE DIHED IMPRP ELECT VDW BOUNDARY MISC KINETIC TOTAL TEMP POTENTIAL TOTALAVG TEMPAVG PRESSURE GPRESSURE VOLUME PRESSAVG GPRESSAVG
ENERGY: 0 0.2182 4.7970 0.8779 0.0000 -10694.9045 1436.1857 0.0000 0.0000 1716.7425 -7536.0832 294.5462 -9252.8257 -7536.0832 294.5462 -159.3035 -73.4407 30011.6742 -159.3035 -73.4407
ENERGY: 300000 1.5694 6.1832 0.1981 0.0000 -10775.4850 1553.2549 0.0000 0.0000 1759.7362 -7454.5432 301.9228 -9214.2794 -7431.0962 301.7328 1021.3151 1063.4058 29919.0624 -196.3994 -153.8655
ENERGY: 600000 0.3981 3.8453 1.3160 0.0000 -10591.5625 1433.6740 0.0000 0.0000 1737.3187 -7415.0104 298.0766 -9152.3291 -7419.2020 301.2376 -196.3011 -102.8186 30455.5153 -242.5759 -200.6009
ENERGY: 900000 0.6298 5.5664 1.2837 0.0000 -10573.2611 1349.8445 0.0000 0.0000 1769.2629 -7446.6738 303.5573 -9215.9367 -7426.4060 302.0578 -715.3237 -626.9153 30323.3516 -290.1087 -237.1563
ENERGY: 1200000 0.6451 9.0978 0.5562 0.0000 -10663.0653 1435.8343 0.0000 0.0000 1747.8903 -7469.0416 299.8904 -9216.9319 -7441.7480 300.3042 -71.7226 -63.8275 30216.0308 -231.4832 -179.7072
ENERGY: 1500000 0.2471 7.9666 1.1738 0.0000 -10541.0303 1410.4548 0.0000 0.0000 1751.2197 -7369.9682 300.4616 -9121.1879 -7428.4464 301.0615 -62.5656 -42.3497 30406.5260 -213.4504 -168.8638
TCL: Running FEP window  15: Lambda1 0.29999999999999966 Lambda2 0.24999999999999967 [dLambda -0.04999999999999999]
TCL: Setting parameter firsttimestep to 0
TCL: Setting parameter alchLambda to 0.29999999999999966
Info: NONBONDED TABLE R-SQUARED SPACING: 0.0625
Info: NONBONDED TABLE SIZE: 705 POINTS
TCL: Setting parameter alchLambda2 to 0.24999999999999967
Info: NONBONDED TABLE R-SQUARED SPACING: 0.0625
Info: NONBONDED TABLE SIZE: 705 POINTS
TCL: Running for 1500000 steps
ETITLE: TS BOND ANGLE DIHED IMPRP ELECT VDW BOUNDARY MISC KINETIC TOTAL TEMP POTENTIAL TOTALAVG TEMPAVG PRESSURE GPRESSURE VOLUME PRESSAVG GPRESSAVG
ENERGY: 0 0.2471 7.9666 1.1738 0.0000 -10541.0308 1410.6689 0.0000 0.0000 1750.3734 -7370.6010 300.3164 -9120.9744 -7370.6010 300.3164 -124.0763 -42.8689 30406.5260 -124.0763 -42.8689
ENERGY: 300000 1.0795 5.8047 0.2015 0.0000 -10551.5425 1391.4287 0.0000 0.0000 1707.6905 -7445.3376 292.9932 -9153.0281 -7409.8854 301.6817 -277.1700 -194.8178 30066.0813 -189.4229 -131.8818
ENERGY: 600000 0.8548 5.1479 1.1763 0.0000 -10675.0703 1430.8124 0.0000 0.0000 1724.1076 -7512.9713 295.8099 -9237.0789 -7422.8603 300.1207 -5.8249 85.5262 29542.5964 -152.0792 -92.1979
ENERGY: 900000 0.6312 4.4321 1.0575 0.0000 -10638.3487 1458.1131 0.0000 0.0000 1785.1540 -7388.9608 306.2838 -9174.1148 -7422.2352 300.1533 344.7980 367.1748 30067.4110 -69.4743 -18.4678
ENERGY: 1200000 0.1826 1.9125 0.2590 0.0000 -10701.7944 1537.6659 0.0000 0.0000 1760.2234 -7401.5510 302.0064 -9161.7744 -7422.6776 300.1309 953.4414 934.6769 30063.0786 21.3386 64.9188
ENERGY: 1500000 0.9649 5.7401 1.1136 0.0000 -10437.6263 1315.2841 0.0000 0.0000 1694.9835 -7419.5401 290.8130 -9114.5235 -7423.3178 299.0919 -638.5141 -592.9821 30112.1077 32.2707 82.3278
TCL: Running FEP window  16: Lambda1 0.24999999999999967 Lambda2 0.19999999999999968 [dLambda -0.04999999999999999]
TCL: Setting parameter firsttimestep to 0
TCL: Setting parameter alchLambda to 0.24999999999999967
Info: NONBONDED TABLE R-SQUARED SPACING: 0.0625
Info: NONBONDED TABLE SIZE: 705 POINTS
TCL: Setting parameter alchLambda2 to 0.19999999999999968
Info: NONBONDED TABLE R-SQUARED SPACING: 0.0625
Info: NONBONDED TABLE SIZE: 705 POINTS
TCL: Running for 1500000 steps
ETITLE: TS BOND ANGLE DIHED IMPRP ELECT VDW BOUNDARY MISC KINETIC TOTAL TEMP POTENTIAL TOTALAVG TEMPAVG PRESSURE GPRESSURE VOLUME PRESSAVG GPRESSAVG
ENERGY: 0 0.9650 5.7401 1.1136 0.0000 -10437.6260 1315.5559 0.0000 0.0000 1694.1027 -7420.1488 290.6619 -9114.2515 -7420.1488 290.6619 -669.6937 -592.4497 30112.1077 -669.6937 -592.4497
ENERGY: 300000 0.6652 6.9295 2.3625 0.0000 -10680.6913 1492.6168 0.0000 0.0000 1791.5079 -7386.6094 307.3739 -9178.1173 -7441.4716 298.2177 305.9345 405.7760 30144.0799 -152.4159 -34.1705
ENERGY: 600000 0.9814 3.0173 0.6025 0.0000 -10651.5371 1462.3346 0.0000 0.0000 1815.7268 -7368.8745 311.5293 -9184.6013 -7429.1187 300.0829 310.4439 308.7039 30081.1697 -130.8967 -46.2106
ENERGY: 900000 0.2382 4.6751 2.3240 0.0000 -10593.0592 1404.4504 0.0000 0.0000 1772.8878 -7408.4837 304.1792 -9181.3715 -7453.1933 301.1588 -12.5246 3.6874 29875.0057 -239.7768 -162.3800
ENERGY: 1200000 0.5082 5.7560 1.4150 0.0000 -10779.4245 1451.0166 0.0000 0.0000 1751.7941 -7568.9345 300.5601 -9320.7286 -7467.4311 300.2973 -155.4074 -132.9530 29862.9485 -245.3961 -171.6354
ENERGY: 1500000 1.5854 7.4063 0.6821 0.0000 -10538.4481 1415.0111 0.0000 0.0000 1806.7649 -7306.9984 309.9916 -9113.7633 -7457.0573 300.4727 -40.6930 -20.8672 30329.2536 -185.1875 -117.8554
TCL: Running FEP window  17: Lambda1 0.19999999999999968 Lambda2 0.1499999999999997 [dLambda -0.04999999999999999]
TCL: Setting parameter firsttimestep to 0
TCL: Setting parameter alchLambda to 0.19999999999999968
Info: NONBONDED TABLE R-SQUARED SPACING: 0.0625
Info: NONBONDED TABLE SIZE: 705 POINTS
TCL: Setting parameter alchLambda2 to 0.1499999999999997
Info: NONBONDED TABLE R-SQUARED SPACING: 0.0625
Info: NONBONDED TABLE SIZE: 705 POINTS
TCL: Running for 1500000 steps
ETITLE: TS BOND ANGLE DIHED IMPRP ELECT VDW BOUNDARY MISC KINETIC TOTAL TEMP POTENTIAL TOTALAVG TEMPAVG PRESSURE GPRESSURE VOLUME PRESSAVG GPRESSAVG
ENERGY: 0 1.5854 7.4063 0.6821 0.0000 -10538.4487 1415.3514 0.0000 0.0000 1805.9149 -7307.5086 309.8458 -9113.4235 -7307.5086 309.8458 -108.0737 -23.2693 30329.2536 -108.0737 -23.2693
ENERGY: 300000 2.6042 4.8259 0.6017 0.0000 -10670.5671 1482.6699 0.0000 0.0000 1764.6172 -7415.2481 302.7602 -9179.8653 -7428.6915 303.8541 541.2351 591.0341 29895.4912 252.2960 317.7370
ENERGY: 600000 1.9396 4.9683 0.8472 0.0000 -10621.9221 1447.3277 0.0000 0.0000 1780.6077 -7386.2316 305.5038 -9166.8393 -7426.5533 302.6865 167.3493 254.9978 30043.1501 230.4500 282.2971
ENERGY: 900000 0.2535 3.0979 1.6139 0.0000 -10800.1428 1510.5655 0.0000 0.0000 1694.3427 -7590.2692 290.7030 -9284.6119 -7446.3396 299.9198 417.4580 511.9459 29857.9283 320.5128 380.3591
ENERGY: 1200000 0.6665 4.8035 0.7832 0.0000 -10619.5493 1360.6944 0.0000 0.0000 1743.3012 -7509.3004 299.1030 -9252.6016 -7435.9649 300.9414 -608.3002 -523.2602 29815.0855 247.1564 301.9812
ENERGY: 1500000 0.8453 2.9113 1.6249 0.0000 -10696.6230 1449.2980 0.0000 0.0000 1752.7204 -7489.2231 300.7191 -9241.9435 -7441.0499 300.7305 -40.4417 -18.2776 29889.9400 204.0661 254.2957
TCL: Running FEP window  18: Lambda1 0.1499999999999997 Lambda2 0.09999999999999969 [dLambda -0.05 ]
TCL: Setting parameter firsttimestep to 0
TCL: Setting parameter alchLambda to 0.1499999999999997
Info: NONBONDED TABLE R-SQUARED SPACING: 0.0625
Info: NONBONDED TABLE SIZE: 705 POINTS
TCL: Setting parameter alchLambda2 to 0.09999999999999969
Info: NONBONDED TABLE R-SQUARED SPACING: 0.0625
Info: NONBONDED TABLE SIZE: 705 POINTS
TCL: Running for 1500000 steps
ETITLE: TS BOND ANGLE DIHED IMPRP ELECT VDW BOUNDARY MISC KINETIC TOTAL TEMP POTENTIAL TOTALAVG TEMPAVG PRESSURE GPRESSURE VOLUME PRESSAVG GPRESSAVG
ENERGY: 0 0.8453 2.9113 1.6249 0.0000 -10696.6229 1448.8869 0.0000 0.0000 1751.8173 -7490.5373 300.5641 -9242.3546 -7490.5373 300.5641 -96.9202 -24.0052 29889.9400 -96.9202 -24.0052
ENERGY: 300000 1.9408 4.9906 0.9284 0.0000 -10538.7516 1360.1126 0.0000 0.0000 1722.1531 -7448.6261 295.4745 -9170.7792 -7456.6926 301.1950 -382.9052 -348.3407 29735.8451 157.2192 216.3701
ENERGY: 600000 1.5664 6.9022 0.3404 0.0000 -10717.7347 1412.5942 0.0000 0.0000 1774.7843 -7521.5472 304.5046 -9296.3314 -7459.0318 300.2299 -394.3478 -341.5909 29911.2121 91.3792 137.2008
ENERGY: 900000 0.4498 6.6529 1.5130 0.0000 -10562.0141 1344.6739 0.0000 0.0000 1754.9417 -7453.7829 301.1002 -9208.7245 -7451.1908 300.1784 -603.2429 -477.9960 29930.5366 38.8309 103.9072
ENERGY: 1200000 0.7496 7.6526 0.4114 0.0000 -10764.9359 1463.5219 0.0000 0.0000 1723.0464 -7569.5539 295.6278 -9292.6004 -7452.8166 300.8332 -73.9372 -53.7138 29957.2509 -33.0478 28.6285
ENERGY: 1500000 0.6113 6.8883 2.1245 0.0000 -10625.7283 1414.6783 0.0000 0.0000 1774.0234 -7427.4025 304.3741 -9201.4259 -7442.8323 301.5709 70.2964 93.5910 29839.8631 -71.5429 -11.2678
TCL: Running FEP window  19: Lambda1 0.09999999999999969 Lambda2 0.049999999999999684 [dLambda -0.05 ]
TCL: Setting parameter firsttimestep to 0
TCL: Setting parameter alchLambda to 0.09999999999999969
Info: NONBONDED TABLE R-SQUARED SPACING: 0.0625
Info: NONBONDED TABLE SIZE: 705 POINTS
TCL: Setting parameter alchLambda2 to 0.049999999999999684
Info: NONBONDED TABLE R-SQUARED SPACING: 0.0625
Info: NONBONDED TABLE SIZE: 705 POINTS
TCL: Running for 1500000 steps
ETITLE: TS BOND ANGLE DIHED IMPRP ELECT VDW BOUNDARY MISC KINETIC TOTAL TEMP POTENTIAL TOTALAVG TEMPAVG PRESSURE GPRESSURE VOLUME PRESSAVG GPRESSAVG
ENERGY: 0 0.6113 6.8883 2.1245 0.0000 -10625.7283 1413.8864 0.0000 0.0000 1773.1637 -7429.0540 304.2266 -9202.2177 -7429.0540 304.2266 20.8055 90.3875 29839.8631 20.8055 90.3875
ENERGY: 300000 0.1107 2.3470 0.3057 0.0000 -10641.1151 1455.1937 0.0000 0.0000 1793.0717 -7390.0861 307.6423 -9183.1579 -7411.9187 306.3445 60.8344 67.6441 30326.9213 -97.2753 -30.5964
ENERGY: 600000 1.0822 4.1221 2.0651 0.0000 -10682.2932 1477.7823 0.0000 0.0000 1752.6075 -7444.6340 300.6997 -9197.2415 -7441.9998 302.5318 399.6860 488.0452 29720.4663 -41.1068 32.4828
ENERGY: 900000 0.6513 7.5503 1.5337 0.0000 -10603.4483 1422.9075 0.0000 0.0000 1725.0792 -7445.7263 295.9766 -9170.8054 -7447.1536 301.2173 67.4827 106.0726 30223.2785 -92.4192 -15.2547
ENERGY: 1200000 1.0112 4.6471 1.5149 0.0000 -10604.8344 1456.2184 0.0000 0.0000 1733.6848 -7407.7581 297.4531 -9141.4429 -7446.2884 301.3003 106.3631 193.5153 30485.4956 -26.7642 52.1057
ENERGY: 1500000 0.7382 3.5035 0.6581 0.0000 -10698.2021 1498.1799 0.0000 0.0000 1727.9157 -7467.2067 296.4633 -9195.1224 -7445.0129 300.6020 750.2205 732.7774 29643.7102 -2.1675 71.9575
TCL: Running FEP window  20: Lambda1 0.049999999999999684 Lambda2 0.0    [dLambda -0.049999999999999684]
TCL: Setting parameter firsttimestep to 0
TCL: Setting parameter alchLambda to 0.049999999999999684
Info: NONBONDED TABLE R-SQUARED SPACING: 0.0625
Info: NONBONDED TABLE SIZE: 705 POINTS
TCL: Setting parameter alchLambda2 to 0.0
Info: NONBONDED TABLE R-SQUARED SPACING: 0.0625
Info: NONBONDED TABLE SIZE: 705 POINTS
TCL: Running for 1500000 steps
ETITLE: TS BOND ANGLE DIHED IMPRP ELECT VDW BOUNDARY MISC KINETIC TOTAL TEMP POTENTIAL TOTALAVG TEMPAVG PRESSURE GPRESSURE VOLUME PRESSAVG GPRESSAVG
ENERGY: 0 0.7382 3.5035 0.6581 0.0000 -10698.2009 1497.1832 0.0000 0.0000 1727.0295 -7469.0885 296.3112 -9196.1180 -7469.0885 296.3112 650.5780 726.7234 29643.7102 650.5780 726.7234
ENERGY: 300000 0.3234 6.8249 1.9755 0.0000 -10583.6316 1395.8931 0.0000 0.0000 1732.5493 -7446.0655 297.2582 -9178.6147 -7431.3660 299.2422 -265.8898 -196.0477 30180.1038 -202.3018 -114.6073
ENERGY: 600000 0.1337 4.9044 1.8738 0.0000 -10637.6807 1442.7335 0.0000 0.0000 1761.7492 -7426.2860 302.2682 -9188.0352 -7433.8451 299.7123 171.6554 188.3180 30029.8372 -88.6944 -15.5118
ENERGY: 900000 1.5049 4.0570 3.1471 0.0000 -10544.6131 1387.6913 0.0000 0.0000 1755.6896 -7392.5232 301.2285 -9148.2128 -7432.8374 300.1610 -252.1648 -196.7898 30209.1898 -128.3056 -53.6376
ENERGY: 1200000 0.9416 2.9266 3.2932 0.0000 -10612.6319 1457.2032 0.0000 0.0000 1737.2216 -7411.0457 298.0599 -9148.2673 -7431.2904 299.8486 280.4476 345.4237 30304.3391 -117.0518 -44.6502
ENERGY: 1500000 0.3516 3.2896 1.1763 0.0000 -10716.8521 1505.5810 0.0000 0.0000 1774.9600 -7431.4935 304.5348 -9206.4535 -7425.9829 300.4637 755.8312 831.2200 29662.4767 -86.2678 -17.2513
TCL: Exiting due to exit command.
