Info: SIMULATION PARAMETERS:
Info: TIMESTEP               2
Info: NUMBER OF STEPS        0
Info: STEPS PER CYCLE        10
Info: PERIODIC CELL BASIS 1  32.0432 0 0
Info: PERIODIC CELL BASIS 2  0 28.521 0
Info: PERIODIC CELL BASIS 3  0 0 33.0765
Info: PERIODIC CELL CENTER   0 0 0
Info: WRAPPING WATERS AROUND PERIODIC BOUNDARIES ON OUTPUT.
Info: WRAPPING ALL CLUSTERS AROUND PERIODIC BOUNDARIES ON OUTPUT.
Info: FIRST LDB TIMESTEP     50
Info: LAST LDB TIMESTEP     -1
Info: HOM BACKGROUND SCALING 1
Info: PME BACKGROUND SCALING 1
Info: MIN ATOMS PER PATCH    40
Info: EMPTY PATCH LOAD       40 ATOMS
Info: VELOCITY FILE          mobley_6688723_equil.vel
Info: CENTER OF MASS MOVING INITIALLY? NO
Info: DIELECTRIC             1
Info: EXCLUDE                SCALED ONE-FOUR
Info: 1-4 ELECTROSTATICS SCALED BY 0.833333
Info: MODIFIED 1-4 VDW PARAMETERS WILL BE USED
Info: DCD FILENAME           mobley_6688723_prod.dcd
Info: DCD FREQUENCY          100000
Info: DCD FIRST STEP         100000
Info: DCD FILE WILL CONTAIN UNIT CELL DATA
Info: XST FILENAME           mobley_6688723_prod.xst
Info: XST FREQUENCY          100000
Info: NO VELOCITY DCD OUTPUT
Info: NO FORCE DCD OUTPUT
Info: OUTPUT FILENAME        mobley_6688723_prod
Info: BINARY OUTPUT FILES WILL BE USED
Info: RESTART FILENAME       mobley_6688723_prod.restart
Info: RESTART FREQUENCY      100000
Info: BINARY RESTART FILES WILL BE USED
Info: CUTOFF                 9
Info: PAIRLIST DISTANCE      11
Info: PAIRLIST SHRINK RATE   0.01
Info: PAIRLIST GROW RATE     0.01
Info: PAIRLIST TRIGGER       0.3
Info: PAIRLISTS PER CYCLE    2
Info: PAIRLISTS ENABLED
Info: MARGIN                 2
Info: HYDROGEN GROUP CUTOFF  2.5
Info: PATCH DIMENSION        15.5
Info: ENERGY OUTPUT STEPS    100000
Info: ENERGY EVALUATION STEPS    100000
Info: OUTPUT ENERGY PRECISION 4
Info: CROSSTERM ENERGY INCLUDED IN DIHEDRAL
Info: TIMING OUTPUT STEPS    1000000
Info: PRESSURE OUTPUT STEPS  100000
Info: ALCHEMICAL FEP ON
Info: FEP CURRENT LAMBDA VALUE     0
Info: FEP COMPARISON LAMBDA VALUE  0.05
Info: FEP INTRA-ALCHEMICAL NON-BONDED INTERACTIONS WILL BE RETAINED
Info: FEP INTRA-ALCHEMICAL BONDED INTERACTIONS WILL BE RETAINED
Info: FEP VDW SHIFTING COEFFICIENT 5
Info: FEP ELEC. ACTIVE FOR ANNIHILATED PARTICLES BETWEEN LAMBDA = 0 AND LAMBDA = 0.5
Info: FEP ELEC. ACTIVE FOR EXNIHILATED PARTICLES BETWEEN LAMBDA = 0.5 AND LAMBDA = 1
Info: FEP VDW ACTIVE FOR ANNIHILATED PARTICLES BETWEEN LAMBDA = 0 AND LAMBDA = 1
Info: FEP VDW ACTIVE FOR EXNIHILATED PARTICLES BETWEEN LAMBDA = 0 AND LAMBDA = 1
Info: FEP BOND ACTIVE FOR ANNIHILATED PARTICLES BETWEEN LAMBDA = 1 AND LAMBDA = 1
Info: FEP BOND ACTIVE FOR EXNIHILATED PARTICLES BETWEEN LAMBDA = 0 AND LAMBDA = 0
Info: LANGEVIN DYNAMICS ACTIVE
Info: LANGEVIN TEMPERATURE   300
Info: LANGEVIN USING BBK INTEGRATOR
Info: LANGEVIN DAMPING COEFFICIENT IS 1 INVERSE PS
Info: LANGEVIN DYNAMICS APPLIED TO HYDROGENS
Info: LANGEVIN PISTON PRESSURE CONTROL ACTIVE
Info:        TARGET PRESSURE IS 1.01325 BAR
Info:     OSCILLATION PERIOD IS 50 FS
Info:             DECAY TIME IS 25 FS
Info:     PISTON TEMPERATURE IS 300 K
Info:       PRESSURE CONTROL IS GROUP-BASED
Info:    INITIAL STRAIN RATE IS -0.000628768 -0.000628768 -0.000628768
Info:       CELL FLUCTUATION IS ISOTROPIC
Info: PARTICLE MESH EWALD (PME) ACTIVE
Info: PME TOLERANCE               1e-06
Info: PME EWALD COEFFICIENT       0.348832
Info: PME INTERPOLATION ORDER     4
Info: PME GRID DIMENSIONS         36 32 36
Info: PME MAXIMUM GRID SPACING    1
Info: PME CALCULATION WILL BE PERFORMED ON GPU
Info: FULL ELECTROSTATIC EVALUATION FREQUENCY      2
Info: USING VERLET I (r-RESPA) MTS SCHEME.
Info: C1 SPLITTING OF LONG RANGE ELECTROSTATICS
Info: PLACING ATOMS IN PATCHES BY HYDROGEN GROUPS
Info: RIGID BONDS TO HYDROGEN : ALL
Info:         ERROR TOLERANCE : 1e-08
Info:          MAX ITERATIONS : 100
Info: RIGID WATER USING SETTLE ALGORITHM
Info: RANDOM NUMBER SEED     1743875184
Info: USE HYDROGEN BONDS?    NO
Info: Using AMBER format force field!
Info: AMBER PARM FILE        mobley_6688723.prmtop
Info: COORDINATE PDB         mobley_6688723.pdb
Info: Exclusions will be read from PARM file!
Info: SCNB (VDW SCALING)     2
Info: USING ARITHMETIC MEAN TO COMBINE L-J SIGMA PARAMETERS
Info: BINARY COORDINATES     mobley_6688723_equil.coor
Info: SUMMARY OF PARAMETERS:
Info: 10 BONDS
Info: 9 ANGLES
Info:   9 HARMONIC
Info:   0 COSINE-BASED
Info: 4 DIHEDRAL
Info: 0 IMPROPER
Info: 0 CROSSTERM
Info: 0 VDW
Info: 45 VDW_PAIRS
Info: 0 NBTHOLE_PAIRS
Info: To read alchdata from file: mobley_6688723.pdb
Info: To read alchflag data from column: 5
Info: STRUCTURE SUMMARY:
Info: 2943 ATOMS
Info: 2943 BONDS
Info: 33 ANGLES
Info: 42 DIHEDRALS
Info: 0 IMPROPERS
Info: 0 CROSSTERMS
Info: 3009 EXCLUSIONS
Info: 2930 RIGID BONDS
Info: ALCH: 0 ATOMS TO DISAPPEAR IN FINAL STATE
Info: ALCH: 21 ATOMS TO APPEAR IN FINAL STATE
Info: 5899 DEGREES OF FREEDOM
Info: 987 HYDROGEN GROUPS
Info: 4 ATOMS IN LARGEST HYDROGEN GROUP
Info: 987 MIGRATION GROUPS
Info: 4 ATOMS IN LARGEST MIGRATION GROUP
Info: TOTAL MASS = 17770.6 amu
Info: TOTAL CHARGE = -3.72529e-08 e
Info: MASS DENSITY = 0.976205 g/cm^3
Info: ATOM DENSITY = 0.0973575 atoms/A^3
Info: ADDED 0 IMPLICIT EXCLUSIONS
Info: NONBONDED TABLE R-SQUARED SPACING: 0.0625
Info: NONBONDED TABLE SIZE: 705 POINTS
Info: REMOVING COM VELOCITY -0.0592049 0.0747917 -0.059566
Info: Use 3D box decompostion in PME FFT.
Info: Updated CUDA force table with 4096 elements.
Info: Updated CUDA LJ table with 9 x 9 elements.
Info: Found 24 unique exclusion lists needing 64 bytes
TCL: Running for 1500000 steps
ETITLE: TS BOND ANGLE DIHED IMPRP ELECT VDW BOUNDARY MISC KINETIC TOTAL TEMP POTENTIAL TOTALAVG TEMPAVG PRESSURE GPRESSURE VOLUME PRESSAVG GPRESSAVG
ENERGY: 0 4.9107 9.6280 9.4582 0.0000 -10672.8815 1474.1507 0.0000 0.0000 1721.5630 -7453.1709 293.7209 -9174.7339 -7453.1709 293.7209 183.8774 263.1552 30228.8020 183.8774 263.1552
ENERGY: 300000 3.8902 10.2255 7.4708 0.0000 -10639.4364 1430.9258 0.0000 0.0000 1709.6010 -7477.3231 291.6801 -9186.9242 -7435.9575 295.0585 124.8480 205.3548 29708.3823 235.9199 311.9181
ENERGY: 600000 5.9358 9.3496 12.1721 0.0000 -10631.7546 1473.5675 0.0000 0.0000 1791.3812 -7339.3483 305.6328 -9130.7295 -7418.5621 299.0195 449.0248 511.4817 29974.9763 294.7787 370.7671
ENERGY: 900000 2.2646 4.4411 8.5409 0.0000 -10452.0523 1338.3399 0.0000 0.0000 1844.0506 -7254.4152 314.6189 -9098.4658 -7400.9101 301.7925 -525.1370 -512.3613 30441.0539 346.3202 414.7642
ENERGY: 1200000 6.8293 3.2787 8.9509 0.0000 -10657.9526 1458.4262 0.0000 0.0000 1730.1696 -7450.2978 295.1893 -9180.4674 -7409.7457 300.8688 -126.3176 5.7481 30463.7825 344.7129 414.3764
ENERGY: 1500000 0.6873 10.3860 12.1426 0.0000 -10710.5320 1510.0368 0.0000 0.0000 1749.2104 -7428.0690 298.4379 -9177.2794 -7409.7710 299.9521 835.2203 888.7089 29814.1768 291.2413 365.4516
TCL: Running FEP window   2: Lambda1 0.05   Lambda2 0.1    [dLambda 0.05  ]
TCL: Setting parameter firsttimestep to 0
TCL: Setting parameter alchLambda to 0.05
Info: NONBONDED TABLE R-SQUARED SPACING: 0.0625
Info: NONBONDED TABLE SIZE: 705 POINTS
TCL: Setting parameter alchLambda2 to 0.1
Info: NONBONDED TABLE R-SQUARED SPACING: 0.0625
Info: NONBONDED TABLE SIZE: 705 POINTS
TCL: Running for 1500000 steps
ETITLE: TS BOND ANGLE DIHED IMPRP ELECT VDW BOUNDARY MISC KINETIC TOTAL TEMP POTENTIAL TOTALAVG TEMPAVG PRESSURE GPRESSURE VOLUME PRESSAVG GPRESSAVG
ENERGY: 0 0.6873 10.3860 12.1426 0.0000 -10710.5329 1513.4687 0.0000 0.0000 1748.3484 -7425.4999 298.2909 -9173.8484 -7425.4999 298.2909 800.7601 896.0492 29814.1768 800.7601 896.0492
ENERGY: 300000 4.6747 6.3061 10.6832 0.0000 -10741.8429 1524.2228 0.0000 0.0000 1698.6969 -7497.2592 289.8197 -9195.9561 -7461.1941 295.1853 506.1079 556.6110 30188.2958 194.5613 247.6014
ENERGY: 600000 1.4676 14.1096 9.3842 0.0000 -10653.2354 1481.2056 0.0000 0.0000 1785.3515 -7361.7169 304.6041 -9147.0684 -7440.2735 298.0338 473.3279 538.8111 30169.3238 177.5437 228.7085
ENERGY: 900000 2.9206 15.8352 5.8722 0.0000 -10738.7123 1580.9792 0.0000 0.0000 1768.2380 -7364.8672 301.6843 -9133.1052 -7421.7923 298.8374 1110.4587 1156.0426 30272.2718 151.0008 208.5155
ENERGY: 1200000 8.5111 5.8764 12.4063 0.0000 -10592.4724 1348.8073 0.0000 0.0000 1773.0570 -7443.8143 302.5065 -9216.8714 -7429.8500 299.4666 -1040.5764 -942.4879 30163.0804 -26.6130 32.5647
ENERGY: 1500000 5.0906 6.7714 12.4698 0.0000 -10596.2569 1454.5055 0.0000 0.0000 1707.6481 -7409.7715 291.3469 -9117.4196 -7426.5541 299.1130 61.2593 158.0906 30390.3285 51.3918 110.2635
TCL: Running FEP window   3: Lambda1 0.1    Lambda2 0.15000000000000002 [dLambda 0.05000000000000002]
TCL: Setting parameter firsttimestep to 0
TCL: Setting parameter alchLambda to 0.1
Info: NONBONDED TABLE R-SQUARED SPACING: 0.0625
Info: NONBONDED TABLE SIZE: 705 POINTS
TCL: Setting parameter alchLambda2 to 0.15000000000000002
Info: NONBONDED TABLE R-SQUARED SPACING: 0.0625
Info: NONBONDED TABLE SIZE: 705 POINTS
TCL: Running for 1500000 steps
ETITLE: TS BOND ANGLE DIHED IMPRP ELECT VDW BOUNDARY MISC KINETIC TOTAL TEMP POTENTIAL TOTALAVG TEMPAVG PRESSURE GPRESSURE VOLUME PRESSAVG GPRESSAVG
ENERGY: 0 5.0906 6.7714 12.4698 0.0000 -10596.2559 1455.8165 0.0000 0.0000 1706.7580 -7409.3496 291.1950 -9116.1076 -7409.3496 291.1950 91.3263 165.6100 30390.3285 91.3263 165.6100
ENERGY: 300000 4.4035 12.9266 7.3867 0.0000 -10561.6926 1389.5937 0.0000 0.0000 1782.8553 -7364.5268 304.1782 -9147.3821 -7412.8687 295.4644 -239.3895 -239.1377 30101.7288 -523.9653 -491.2486
ENERGY: 600000 3.1084 9.6207 7.3468 0.0000 -10617.0764 1443.9390 0.0000 0.0000 1725.3857 -7427.6757 294.3731 -9153.0615 -7421.5283 296.1222 235.1998 297.0964 30069.5157 -256.1062 -202.6955
ENERGY: 900000 2.7795 6.1431 10.8005 0.0000 -10673.6606 1412.2849 0.0000 0.0000 1770.8431 -7470.8095 302.1288 -9241.6526 -7422.5621 297.7558 -49.2458 19.9935 29542.8335 -219.3909 -167.4579
ENERGY: 1200000 9.5672 6.9101 7.6386 0.0000 -10472.7210 1326.1879 0.0000 0.0000 1723.5950 -7398.8221 294.0676 -9122.4172 -7420.4911 298.2643 -1017.8817 -918.3165 30073.4943 -170.6464 -113.2556
ENERGY: 1500000 3.8936 4.3760 12.2576 0.0000 -10429.0393 1353.4505 0.0000 0.0000 1745.8095 -7309.2520 297.8577 -9055.0615 -7409.8031 298.0404 -654.2498 -597.4803 30629.7710 -198.6787 -141.3429
TCL: Running FEP window   4: Lambda1 0.15000000000000002 Lambda2 0.2    [dLambda 0.04999999999999999]
TCL: Setting parameter firsttimestep to 0
TCL: Setting parameter alchLambda to 0.15000000000000002
Info: NONBONDED TABLE R-SQUARED SPACING: 0.0625
Info: NONBONDED TABLE SIZE: 705 POINTS
TCL: Setting parameter alchLambda2 to 0.2
Info: NONBONDED TABLE R-SQUARED SPACING: 0.0625
Info: NONBONDED TABLE SIZE: 705 POINTS
TCL: Running for 1500000 steps
ETITLE: TS BOND ANGLE DIHED IMPRP ELECT VDW BOUNDARY MISC KINETIC TOTAL TEMP POTENTIAL TOTALAVG TEMPAVG PRESSURE GPRESSURE VOLUME PRESSAVG GPRESSAVG
ENERGY: 0 3.8936 4.3760 12.2577 0.0000 -10429.0409 1355.1534 0.0000 0.0000 1744.9044 -7308.4557 297.7033 -9053.3601 -7308.4557 297.7033 -672.1625 -585.9057 30629.7710 -672.1625 -585.9057
ENERGY: 300000 2.8646 6.9189 8.4449 0.0000 -10481.7045 1369.6396 0.0000 0.0000 1729.2841 -7364.5524 295.0383 -9093.8365 -7391.8594 300.3540 -315.2605 -295.6019 30360.5459 -79.7352 -29.4830
ENERGY: 600000 2.8610 10.8211 10.6227 0.0000 -10669.9444 1419.0028 0.0000 0.0000 1769.8849 -7456.7518 301.9653 -9226.6367 -7381.6123 300.6068 -494.4191 -423.1832 30606.5290 -182.8432 -130.2583
ENERGY: 900000 5.0764 6.7927 10.6883 0.0000 -10386.6076 1274.5624 0.0000 0.0000 1735.7708 -7353.7171 296.1450 -9089.4879 -7388.9595 299.0476 -1198.1351 -1209.3407 30567.1367 -306.0269 -259.1150
ENERGY: 1200000 4.9786 5.3272 11.1367 0.0000 -10569.4690 1384.2791 0.0000 0.0000 1796.2792 -7367.4681 306.4685 -9163.7473 -7379.1227 300.5858 -559.9345 -469.8056 30431.1603 -354.3676 -295.2836
ENERGY: 1500000 3.1288 10.1088 8.8927 0.0000 -10725.9746 1500.7244 0.0000 0.0000 1780.0143 -7423.1057 303.6935 -9203.1199 -7389.7516 301.0387 246.6061 256.6851 30409.9622 -329.6711 -270.3475
TCL: Running FEP window   5: Lambda1 0.2    Lambda2 0.25   [dLambda 0.04999999999999999]
TCL: Setting parameter firsttimestep to 0
TCL: Setting parameter alchLambda to 0.2
Info: NONBONDED TABLE R-SQUARED SPACING: 0.0625
Info: NONBONDED TABLE SIZE: 705 POINTS
TCL: Setting parameter alchLambda2 to 0.25
Info: NONBONDED TABLE R-SQUARED SPACING: 0.0625
Info: NONBONDED TABLE SIZE: 705 POINTS
TCL: Running for 1500000 steps
ETITLE: TS BOND ANGLE DIHED IMPRP ELECT VDW BOUNDARY MISC KINETIC TOTAL TEMP POTENTIAL TOTALAVG TEMPAVG PRESSURE GPRESSURE VOLUME PRESSAVG GPRESSAVG
ENERGY: 0 3.1288 10.1088 8.8927 0.0000 -10725.9745 1500.9164 0.0000 0.0000 1779.1342 -7423.7937 303.5433 -9202.9279 -7423.7937 303.5433 174.8928 263.5195 30409.9622 174.8928 263.5195
ENERGY: 300000 5.7506 7.0683 9.6397 0.0000 -10628.1170 1412.8758 0.0000 0.0000 1708.2452 -7484.5374 291.4487 -9192.7826 -7406.7569 298.2328 -374.2746 -300.1662 30384.2998 110.3543 176.1871
ENERGY: 600000 4.7444 4.8859 6.7525 0.0000 -10605.4169 1461.5133 0.0000 0.0000 1784.4753 -7343.0454 304.4546 -9127.5207 -7403.4930 299.7074 545.9571 630.7763 29974.6728 291.0560 371.2757
ENERGY: 900000 2.5923 10.1140 11.9449 0.0000 -10781.3453 1533.5712 0.0000 0.0000 1690.4902 -7532.6328 288.4195 -9223.1230 -7415.3553 299.3862 821.6396 945.9181 29628.3906 257.2416 329.4903
ENERGY: 1200000 3.3072 13.6586 8.8839 0.0000 -10609.8812 1397.4131 0.0000 0.0000 1735.9403 -7450.6781 296.1739 -9186.6184 -7415.5540 300.4288 14.2307 39.7874 29795.3594 196.9194 267.9545
ENERGY: 1500000 6.0494 6.3614 10.7040 0.0000 -10735.3793 1445.5895 0.0000 0.0000 1753.5612 -7513.1137 299.1803 -9266.6749 -7418.1649 299.9419 71.1231 73.0403 29890.8508 114.9396 185.0588
TCL: Running FEP window   6: Lambda1 0.25   Lambda2 0.3    [dLambda 0.04999999999999999]
TCL: Setting parameter firsttimestep to 0
TCL: Setting parameter alchLambda to 0.25
Info: NONBONDED TABLE R-SQUARED SPACING: 0.0625
Info: NONBONDED TABLE SIZE: 705 POINTS
TCL: Setting parameter alchLambda2 to 0.3
Info: NONBONDED TABLE R-SQUARED SPACING: 0.0625
Info: NONBONDED TABLE SIZE: 705 POINTS
TCL: Running for 1500000 steps
ETITLE: TS BOND ANGLE DIHED IMPRP ELECT VDW BOUNDARY MISC KINETIC TOTAL TEMP POTENTIAL TOTALAVG TEMPAVG PRESSURE GPRESSURE VOLUME PRESSAVG GPRESSAVG
ENERGY: 0 6.0494 6.3614 10.7040 0.0000 -10735.3792 1448.2537 0.0000 0.0000 1752.6664 -7511.3442 299.0276 -9264.0106 -7511.3442 299.0276 3.1883 85.1875 29890.8508 3.1883 85.1875
ENERGY: 300000 5.1761 9.9241 11.0978 0.0000 -10574.7255 1386.2068 0.0000 0.0000 1770.8659 -7391.4547 302.1327 -9162.3206 -7402.2527 299.6063 -223.8959 -234.5907 30019.1063 300.5357 330.2818
ENERGY: 600000 3.3471 3.2717 11.0250 0.0000 -10605.6159 1418.7490 0.0000 0.0000 1815.4688 -7353.7543 309.7425 -9169.2231 -7381.4543 300.0191 -70.4085 -28.5760 30179.6213 111.2079 148.9165
ENERGY: 900000 2.7392 10.6726 9.2171 0.0000 -10665.8627 1510.2032 0.0000 0.0000 1750.6885 -7382.3420 298.6901 -9133.0305 -7394.4282 300.0608 510.6447 518.1242 30849.6132 140.7942 186.8086
ENERGY: 1200000 5.3396 9.8347 12.2970 0.0000 -10560.3116 1390.5926 0.0000 0.0000 1730.0738 -7412.1738 295.1730 -9142.2476 -7382.6460 300.1485 -407.6775 -403.1587 30294.8668 39.9185 82.6247
ENERGY: 1500000 5.3033 7.1607 11.6067 0.0000 -10676.1170 1441.6447 0.0000 0.0000 1753.5137 -7456.8878 299.1722 -9210.4016 -7388.4615 299.4900 -313.2448 -260.0400 30093.7336 -37.3917 13.9629
TCL: Running FEP window   7: Lambda1 0.3    Lambda2 0.35   [dLambda 0.04999999999999999]
TCL: Setting parameter firsttimestep to 0
TCL: Setting parameter alchLambda to 0.3
Info: NONBONDED TABLE R-SQUARED SPACING: 0.0625
Info: NONBONDED TABLE SIZE: 705 POINTS
TCL: Setting parameter alchLambda2 to 0.35
Info: NONBONDED TABLE R-SQUARED SPACING: 0.0625
Info: NONBONDED TABLE SIZE: 705 POINTS
TCL: Running for 1500000 steps
ETITLE: TS BOND ANGLE DIHED IMPRP ELECT VDW BOUNDARY MISC KINETIC TOTAL TEMP POTENTIAL TOTALAVG TEMPAVG PRESSURE GPRESSURE VOLUME PRESSAVG GPRESSAVG
ENERGY: 0 5.3033 7.1607 11.6067 0.0000 -10676.1171 1443.3737 0.0000 0.0000 1752.6573 -7456.0154 299.0260 -9208.6727 -7456.0154 299.0260 -321.7425 -243.0433 30093.7336 -321.7425 -243.0433
ENERGY: 300000 2.8962 7.4520 8.8904 0.0000 -10555.4150 1439.8620 0.0000 0.0000 1797.9348 -7298.3797 306.7510 -9096.3144 -7360.5723 302.5462 236.3764 241.6757 30614.3297 -268.3092 -205.3306
ENERGY: 600000 4.0264 4.5342 9.6231 0.0000 -10590.6478 1449.7015 0.0000 0.0000 1766.4441 -7356.3185 301.3782 -9122.7626 -7395.6576 300.7364 210.3548 247.1793 30439.0158 -94.2982 -43.0759
ENERGY: 900000 4.9825 9.3147 6.7239 0.0000 -10611.5183 1432.6509 0.0000 0.0000 1722.5320 -7435.3144 293.8863 -9157.8463 -7398.7945 299.9123 88.3786 164.1771 29868.9342 -25.2351 33.6941
ENERGY: 1200000 4.6257 5.6509 10.8595 0.0000 -10703.1203 1485.1233 0.0000 0.0000 1770.8833 -7425.9776 302.1356 -9196.8609 -7396.2380 300.1955 231.0255 315.6238 30003.4892 4.1280 69.1448
ENERGY: 1500000 4.6698 7.4105 11.0068 0.0000 -10627.5317 1398.4016 0.0000 0.0000 1731.0382 -7475.0048 295.3375 -9206.0430 -7393.3657 300.5845 -360.3546 -311.1063 30017.0074 -48.4840 13.4564
TCL: Running FEP window   8: Lambda1 0.35   Lambda2 0.39999999999999997 [dLambda 0.04999999999999999]
TCL: Setting parameter firsttimestep to 0
TCL: Setting parameter alchLambda to 0.35
Info: NONBONDED TABLE R-SQUARED SPACING: 0.0625
Info: NONBONDED TABLE SIZE: 705 POINTS
TCL: Setting parameter alchLambda2 to 0.39999999999999997
Info: NONBONDED TABLE R-SQUARED SPACING: 0.0625
Info: NONBONDED TABLE SIZE: 705 POINTS
TCL: Running for 1500000 steps
ETITLE: TS BOND ANGLE DIHED IMPRP ELECT VDW BOUNDARY MISC KINETIC TOTAL TEMP POTENTIAL TOTALAVG TEMPAVG PRESSURE GPRESSURE VOLUME PRESSAVG GPRESSAVG
ENERGY: 0 4.6698 7.4105 11.0068 0.0000 -10627.5318 1398.4850 0.0000 0.0000 1730.1671 -7475.7925 295.1889 -9205.9596 -7475.7925 295.1889 -387.4728 -304.0499 30017.0074 -387.4728 -304.0499
ENERGY: 300000 4.1560 9.0637 11.2440 0.0000 -10788.2335 1549.6504 0.0000 0.0000 1714.9197 -7499.1997 292.5875 -9214.1194 -7455.8404 296.7473 948.6732 1112.4437 29722.5441 435.9955 534.1045
ENERGY: 600000 2.8121 4.6933 10.4541 0.0000 -10561.9442 1360.7550 0.0000 0.0000 1749.2399 -7433.9898 298.4430 -9183.2297 -7434.9769 297.6159 -456.4089 -317.1060 30186.5104 108.8020 202.3797
ENERGY: 900000 4.5403 7.9522 7.0369 0.0000 -10713.0382 1434.8735 0.0000 0.0000 1685.1438 -7573.4916 287.5074 -9258.6354 -7432.0940 297.5117 -73.2703 18.8313 29617.3077 17.5379 102.1397
ENERGY: 1200000 5.1112 9.3432 8.6419 0.0000 -10727.7713 1479.8650 0.0000 0.0000 1749.2572 -7475.5529 298.4459 -9224.8101 -7433.9717 298.8190 137.1086 226.1728 30166.6477 18.5448 99.1746
ENERGY: 1500000 5.5459 4.8201 9.8723 0.0000 -10682.6463 1441.9038 0.0000 0.0000 1696.4164 -7524.0877 289.4306 -9220.5041 -7437.7295 298.4928 -46.7524 59.3354 29796.7687 29.5402 115.7562
TCL: Running FEP window   9: Lambda1 0.39999999999999997 Lambda2 0.44999999999999996 [dLambda 0.04999999999999999]
TCL: Setting parameter firsttimestep to 0
TCL: Setting parameter alchLambda to 0.39999999999999997
Info: NONBONDED TABLE R-SQUARED SPACING: 0.0625
Info: NONBONDED TABLE SIZE: 705 POINTS
TCL: Setting parameter alchLambda2 to 0.44999999999999996
Info: NONBONDED TABLE R-SQUARED SPACING: 0.0625
Info: NONBONDED TABLE SIZE: 705 POINTS
TCL: Running for 1500000 steps
ETITLE: TS BOND ANGLE DIHED IMPRP ELECT VDW BOUNDARY MISC KINETIC TOTAL TEMP POTENTIAL TOTALAVG TEMPAVG PRESSURE GPRESSURE VOLUME PRESSAVG GPRESSAVG
ENERGY: 0 5.5459 4.8201 9.8723 0.0000 -10682.6469 1441.4255 0.0000 0.0000 1695.5221 -7525.4609 289.2780 -9220.9830 -7525.4609 289.2780 -36.1174 61.0268 29796.7687 -36.1174 61.0268
ENERGY: 300000 3.5546 8.1348 10.1555 0.0000 -10664.3328 1421.4349 0.0000 0.0000 1799.9414 -7421.1116 307.0933 -9221.0530 -7426.9443 300.3390 30.8079 67.1194 29770.6465 -91.0073 -40.2181
ENERGY: 600000 4.0499 8.7716 5.6623 0.0000 -10622.2677 1418.9941 0.0000 0.0000 1793.3974 -7391.3923 305.9768 -9184.7897 -7419.6218 301.7004 -58.8645 38.4971 30370.8648 138.3609 192.0605
ENERGY: 900000 6.7606 11.4633 10.2670 0.0000 -10808.7274 1546.0084 0.0000 0.0000 1720.1096 -7514.1184 293.4730 -9234.2280 -7441.7091 299.2796 578.8201 726.1928 29998.0108 90.0491 156.0365
ENERGY: 1200000 2.9819 8.9079 10.3941 0.0000 -10578.8039 1386.8908 0.0000 0.0000 1746.7829 -7422.8464 298.0238 -9169.6292 -7426.1843 299.3474 -386.0115 -338.2638 30295.2691 -36.3034 28.8703
ENERGY: 1500000 3.5055 9.2351 8.5687 0.0000 -10619.6007 1387.2446 0.0000 0.0000 1724.7364 -7486.3105 294.2624 -9211.0469 -7427.4270 299.1362 -538.4306 -482.7649 30109.9498 -38.5460 28.9654
TCL: Running FEP window  10: Lambda1 0.44999999999999996 Lambda2 0.49999999999999994 [dLambda 0.04999999999999999]
TCL: Setting parameter firsttimestep to 0
TCL: Setting parameter alchLambda to 0.44999999999999996
Info: NONBONDED TABLE R-SQUARED SPACING: 0.0625
Info: NONBONDED TABLE SIZE: 705 POINTS
TCL: Setting parameter alchLambda2 to 0.49999999999999994
Info: NONBONDED TABLE R-SQUARED SPACING: 0.0625
Info: NONBONDED TABLE SIZE: 705 POINTS
TCL: Running for 1500000 steps
ETITLE: TS BOND ANGLE DIHED IMPRP ELECT VDW BOUNDARY MISC KINETIC TOTAL TEMP POTENTIAL TOTALAVG TEMPAVG PRESSURE GPRESSURE VOLUME PRESSAVG GPRESSAVG
ENERGY: 0 3.5055 9.2351 8.5687 0.0000 -10619.5998 1387.2011 0.0000 0.0000 1723.8850 -7487.2044 294.1171 -9211.0894 -7487.2044 294.1171 -552.9983 -474.6404 30109.9498 -552.9983 -474.6404
ENERGY: 300000 6.5504 8.7434 14.0133 0.0000 -10580.5252 1440.7639 0.0000 0.0000 1755.0064 -7355.4479 299.4268 -9110.4542 -7406.8165 298.6708 23.2458 104.9703 30524.9666 -362.8964 -288.6491
ENERGY: 600000 3.9973 9.4617 10.7048 0.0000 -10470.0647 1345.3174 0.0000 0.0000 1740.6531 -7359.9304 296.9780 -9100.5835 -7386.5766 299.4622 -645.5583 -568.0988 30586.5168 -264.1922 -190.5226
ENERGY: 900000 2.2391 6.3602 8.8426 0.0000 -10540.9762 1376.5534 0.0000 0.0000 1792.9108 -7354.0700 305.8938 -9146.9808 -7401.6186 299.8650 -255.0778 -204.6353 30522.2109 -229.3004 -157.1215
ENERGY: 1200000 2.1112 7.9544 7.7269 0.0000 -10631.4399 1407.2812 0.0000 0.0000 1770.8918 -7435.4744 302.1371 -9206.3662 -7398.0964 300.0396 -144.0247 -15.4724 30112.7676 -178.0169 -107.0784
ENERGY: 1500000 5.9999 10.8248 8.7869 0.0000 -10704.6002 1479.3229 0.0000 0.0000 1743.8714 -7455.7943 297.5270 -9199.6657 -7389.7386 300.7227 420.5028 489.2009 29853.0505 -154.7260 -83.9025
TCL: Running FEP window  11: Lambda1 0.49999999999999994 Lambda2 0.5499999999999999 [dLambda 0.04999999999999999]
TCL: Setting parameter firsttimestep to 0
TCL: Setting parameter alchLambda to 0.49999999999999994
Info: NONBONDED TABLE R-SQUARED SPACING: 0.0625
Info: NONBONDED TABLE SIZE: 705 POINTS
TCL: Setting parameter alchLambda2 to 0.5499999999999999
Info: NONBONDED TABLE R-SQUARED SPACING: 0.0625
Info: NONBONDED TABLE SIZE: 705 POINTS
TCL: Running for 1500000 steps
ETITLE: TS BOND ANGLE DIHED IMPRP ELECT VDW BOUNDARY MISC KINETIC TOTAL TEMP POTENTIAL TOTALAVG TEMPAVG PRESSURE GPRESSURE VOLUME PRESSAVG GPRESSAVG
ENERGY: 0 5.9999 10.8248 8.7869 0.0000 -10704.5990 1478.6735 0.0000 0.0000 1743.0399 -7457.2740 297.3852 -9200.3139 -7457.2740 297.3852 433.1720 492.0208 29853.0505 433.1720 492.0208
ENERGY: 300000 4.4694 12.5761 8.1947 0.0000 -10739.9474 1468.6352 0.0000 0.0000 1756.5741 -7489.4980 299.6943 -9246.0720 -7469.5466 296.8240 29.3912 45.7549 30087.4706 302.6490 351.9717
ENERGY: 600000 6.0274 11.2471 12.3088 0.0000 -10599.7307 1368.4486 0.0000 0.0000 1702.8739 -7498.8250 290.5323 -9201.6988 -7454.5668 297.4900 -725.5535 -664.2787 30336.6377 -90.2182 -33.5629
ENERGY: 900000 4.1932 3.3047 11.1941 0.0000 -10742.9966 1497.3303 0.0000 0.0000 1799.9759 -7426.9983 307.0992 -9226.9743 -7448.3612 299.3838 190.5937 270.8198 30795.7227 -69.9424 -11.1719
ENERGY: 1200000 4.3764 6.7852 11.4946 0.0000 -10582.8543 1369.5784 0.0000 0.0000 1737.6307 -7452.9891 296.4623 -9190.6198 -7439.9131 300.1055 -299.8677 -171.4593 29931.2103 -165.3202 -103.1361
ENERGY: 1500000 8.2192 10.1452 6.0695 0.0000 -10498.8426 1342.3109 0.0000 0.0000 1789.3904 -7342.7074 305.2932 -9132.0978 -7430.2842 299.9736 -782.3923 -731.9608 30540.7555 -199.7740 -135.8496
TCL: Running FEP window  12: Lambda1 0.5499999999999999 Lambda2 0.6    [dLambda 0.050000000000000044]
TCL: Setting parameter firsttimestep to 0
TCL: Setting parameter alchLambda to 0.5499999999999999
Info: NONBONDED TABLE R-SQUARED SPACING: 0.0625
Info: NONBONDED TABLE SIZE: 705 POINTS
TCL: Setting parameter alchLambda2 to 0.6
Info: NONBONDED TABLE R-SQUARED SPACING: 0.0625
Info: NONBONDED TABLE SIZE: 705 POINTS
TCL: Running for 1500000 steps
ETITLE: TS BOND ANGLE DIHED IMPRP ELECT VDW BOUNDARY MISC KINETIC TOTAL TEMP POTENTIAL TOTALAVG TEMPAVG PRESSURE GPRESSURE VOLUME PRESSAVG GPRESSAVG
ENERGY: 0 8.2192 10.1452 6.0695 0.0000 -10498.7997 1341.6978 0.0000 0.0000 1788.5542 -7344.1137 305.1505 -9132.6679 -7344.1137 305.1505 -811.1404 -727.4701 30540.7555 -811.1404 -727.4701
ENERGY: 300000 8.1843 6.0307 9.5389 0.0000 -10599.2894 1395.5839 0.0000 0.0000 1806.9515 -7373.0002 308.2893 -9179.9517 -7371.5303 304.6941 -389.2081 -337.5229 30812.3882 -356.9411 -297.2412
ENERGY: 600000 5.0699 4.6872 11.0192 0.0000 -10565.2437 1385.0575 0.0000 0.0000 1703.3902 -7456.0196 290.6204 -9159.4098 -7391.4503 302.1054 -415.7433 -386.6359 30518.0607 -277.2992 -226.9907
ENERGY: 900000 4.7227 6.0627 12.3566 0.0000 -10501.4151 1376.0685 0.0000 0.0000 1783.8469 -7318.3578 304.3474 -9102.2046 -7376.5383 303.2659 -215.9035 -180.7670 29857.0621 -283.0582 -229.0233
ENERGY: 1200000 5.7030 7.0254 9.4067 0.0000 -10611.6872 1334.1964 0.0000 0.0000 1779.5730 -7475.7827 303.6182 -9255.3557 -7386.0067 302.6437 -1062.7553 -1024.7281 30198.2943 -233.5011 -183.7152
ENERGY: 1500000 3.2139 7.7748 10.5536 0.0000 -10523.1940 1346.0004 0.0000 0.0000 1808.1852 -7347.4661 308.4998 -9155.6514 -7388.5511 302.5337 -497.1447 -403.6351 30360.7892 -214.8532 -159.4896
TCL: Running FEP window  13: Lambda1 0.6    Lambda2 0.65   [dLambda 0.050000000000000044]
TCL: Setting parameter firsttimestep to 0
TCL: Setting parameter alchLambda to 0.6
Info: NONBONDED TABLE R-SQUARED SPACING: 0.0625
Info: NONBONDED TABLE SIZE: 705 POINTS
TCL: Setting parameter alchLambda2 to 0.65
Info: NONBONDED TABLE R-SQUARED SPACING: 0.0625
Info: NONBONDED TABLE SIZE: 705 POINTS
TCL: Running for 1500000 steps
ETITLE: TS BOND ANGLE DIHED IMPRP ELECT VDW BOUNDARY MISC KINETIC TOTAL TEMP POTENTIAL TOTALAVG TEMPAVG PRESSURE GPRESSURE VOLUME PRESSAVG GPRESSAVG
ENERGY: 0 3.2139 7.7748 10.5536 0.0000 -10523.2512 1345.6076 0.0000 0.0000 1807.3263 -7348.7751 308.3533 -9156.1014 -7348.7751 308.3533 -477.0631 -398.8156 30360.7892 -477.0631 -398.8156
ENERGY: 300000 4.4509 3.7191 10.5221 0.0000 -10756.9115 1490.2900 0.0000 0.0000 1750.0519 -7497.8776 298.5815 -9247.9295 -7419.7330 302.1256 382.2687 475.3760 30020.3244 -413.9861 -337.5768
ENERGY: 600000 4.1248 10.0755 8.3373 0.0000 -10664.9206 1415.6172 0.0000 0.0000 1758.6086 -7468.1572 300.0414 -9226.7657 -7410.6965 302.3986 -426.4197 -325.1668 30156.6108 -317.7162 -245.8322
ENERGY: 900000 6.2390 7.8804 10.2402 0.0000 -10726.5371 1511.5402 0.0000 0.0000 1777.6956 -7412.9417 303.2979 -9190.6373 -7412.2333 301.1224 870.8762 898.4378 30046.5972 -36.9768 22.7594
ENERGY: 1200000 3.3206 9.1091 10.9994 0.0000 -10652.6108 1460.7646 0.0000 0.0000 1757.1764 -7411.2407 299.7970 -9168.4171 -7424.4407 299.4915 370.6738 363.6266 30166.1115 -47.3159 7.7241
ENERGY: 1500000 4.2536 7.4818 8.0151 0.0000 -10592.7048 1407.3214 0.0000 0.0000 1742.4130 -7423.2199 297.2782 -9165.6329 -7430.3383 298.9192 -160.7430 -118.3219 30487.3410 -45.5008 12.6844
TCL: Running FEP window  14: Lambda1 0.65   Lambda2 0.7000000000000001 [dLambda 0.050000000000000044]
TCL: Setting parameter firsttimestep to 0
TCL: Setting parameter alchLambda to 0.65
Info: NONBONDED TABLE R-SQUARED SPACING: 0.0625
Info: NONBONDED TABLE SIZE: 705 POINTS
TCL: Setting parameter alchLambda2 to 0.7000000000000001
Info: NONBONDED TABLE R-SQUARED SPACING: 0.0625
Info: NONBONDED TABLE SIZE: 705 POINTS
TCL: Running for 1500000 steps
ETITLE: TS BOND ANGLE DIHED IMPRP ELECT VDW BOUNDARY MISC KINETIC TOTAL TEMP POTENTIAL TOTALAVG TEMPAVG PRESSURE GPRESSURE VOLUME PRESSAVG GPRESSAVG
ENERGY: 0 4.2536 7.4818 8.0151 0.0000 -10593.4565 1406.5041 0.0000 0.0000 1741.5361 -7425.6657 297.1286 -9167.2018 -7425.6657 297.1286 -206.3933 -115.3440 30487.3410 -206.3933 -115.3440
ENERGY: 300000 4.3764 7.0098 11.5673 0.0000 -10625.5039 1425.7242 0.0000 0.0000 1749.7722 -7427.0540 298.5338 -9176.8261 -7405.4165 300.1953 -239.8518 -164.6448 30453.3790 64.4931 129.5544
ENERGY: 600000 6.2357 9.2339 10.7921 0.0000 -10708.1555 1516.2056 0.0000 0.0000 1756.2422 -7409.4459 299.6377 -9165.6881 -7394.4518 300.8539 852.7678 881.0394 30159.9612 104.5121 161.3228
ENERGY: 900000 2.9813 3.3408 10.7305 0.0000 -10544.3223 1436.6747 0.0000 0.0000 1790.8365 -7299.7585 305.5399 -9090.5950 -7368.7074 301.6934 355.0962 407.5047 30149.2303 117.2115 173.7992
ENERGY: 1200000 2.6496 3.8775 9.8310 0.0000 -10543.3087 1368.5039 0.0000 0.0000 1786.0725 -7372.3741 304.7271 -9158.4466 -7367.1559 301.8079 -542.5348 -500.4360 30601.9215 129.3195 182.4095
ENERGY: 1500000 3.5657 8.5615 8.5472 0.0000 -10597.7139 1365.8956 0.0000 0.0000 1746.1572 -7464.9868 297.9170 -9211.1440 -7371.7351 301.1887 -633.0929 -578.6851 30448.1635 30.3954 86.8313
TCL: Running FEP window  15: Lambda1 0.7000000000000001 Lambda2 0.7500000000000001 [dLambda 0.050000000000000044]
TCL: Setting parameter firsttimestep to 0
TCL: Setting parameter alchLambda to 0.7000000000000001
Info: NONBONDED TABLE R-SQUARED SPACING: 0.0625
Info: NONBONDED TABLE SIZE: 705 POINTS
TCL: Setting parameter alchLambda2 to 0.7500000000000001
Info: NONBONDED TABLE R-SQUARED SPACING: 0.0625
Info: NONBONDED TABLE SIZE: 705 POINTS
TCL: Running for 1500000 steps
ETITLE: TS BOND ANGLE DIHED IMPRP ELECT VDW BOUNDARY MISC KINETIC TOTAL TEMP POTENTIAL TOTALAVG TEMPAVG PRESSURE GPRESSURE VOLUME PRESSAVG GPRESSAVG
ENERGY: 0 3.5657 8.5615 8.5472 0.0000 -10597.8842 1365.9572 0.0000 0.0000 1745.3245 -7465.9281 297.7750 -9211.2525 -7465.9281 297.7750 -639.0271 -564.7410 30448.1635 -639.0271 -564.7410
ENERGY: 300000 6.5591 7.8381 11.2527 0.0000 -10604.8976 1375.1297 0.0000 0.0000 1765.1802 -7438.9378 301.1626 -9204.1180 -7408.4718 299.9153 -909.4344 -815.3362 30812.5845 -232.8198 -149.4088
ENERGY: 600000 5.5476 9.6312 7.4783 0.0000 -10694.3443 1484.3890 0.0000 0.0000 1794.1154 -7393.1828 306.0993 -9187.2982 -7426.2972 300.6606 909.2856 905.8123 29677.3370 -11.6870 44.6919
ENERGY: 900000 8.2111 8.3213 8.0414 0.0000 -10623.7516 1368.6689 0.0000 0.0000 1725.9432 -7504.5657 294.4683 -9230.5089 -7431.6903 299.7866 -921.8487 -872.7139 30431.7795 9.7302 69.5193
ENERGY: 1200000 1.4648 6.8633 9.8668 0.0000 -10572.7515 1358.1126 0.0000 0.0000 1793.8800 -7402.5640 306.0592 -9196.4440 -7435.8474 298.8726 -142.7992 -74.8183 29564.0300 -98.7106 -41.0217
ENERGY: 1500000 4.1740 6.8149 10.1409 0.0000 -10635.5135 1406.1428 0.0000 0.0000 1705.7035 -7502.5374 291.0151 -9208.2410 -7435.0771 298.3268 -200.6196 -150.7918 30159.5730 -81.4975 -19.3931
TCL: Running FEP window  16: Lambda1 0.7500000000000001 Lambda2 0.8000000000000002 [dLambda 0.050000000000000044]
TCL: Setting parameter firsttimestep to 0
TCL: Setting parameter alchLambda to 0.7500000000000001
Info: NONBONDED TABLE R-SQUARED SPACING: 0.0625
Info: NONBONDED TABLE SIZE: 705 POINTS
TCL: Setting parameter alchLambda2 to 0.8000000000000002
Info: NONBONDED TABLE R-SQUARED SPACING: 0.0625
Info: NONBONDED TABLE SIZE: 705 POINTS
TCL: Running for 1500000 steps
ETITLE: TS BOND ANGLE DIHED IMPRP ELECT VDW BOUNDARY MISC KINETIC TOTAL TEMP POTENTIAL TOTALAVG TEMPAVG PRESSURE GPRESSURE VOLUME PRESSAVG GPRESSAVG
ENERGY: 0 4.1740 6.8149 10.1409 0.0000 -10636.7265 1406.0566 0.0000 0.0000 1704.7658 -7504.7744 290.8551 -9209.5402 -7504.7744 290.8551 -232.1004 -143.9585 30159.5730 -232.1004 -143.9585
ENERGY: 300000 4.1198 9.0740 9.8539 0.0000 -10615.5562 1449.7077 0.0000 0.0000 1741.8777 -7400.9232 297.1869 -9142.8008 -7473.3610 294.8094 318.9418 346.5210 30377.0604 -314.0531 -258.7302
ENERGY: 600000 5.8541 7.0559 9.6111 0.0000 -10653.1027 1436.4599 0.0000 0.0000 1710.5420 -7483.5798 291.8406 -9194.1218 -7458.0417 297.2415 -225.1457 -113.1756 30451.9078 -171.0658 -115.0043
ENERGY: 900000 1.8885 8.8147 11.0430 0.0000 -10653.8216 1432.2332 0.0000 0.0000 1788.2348 -7411.6073 305.0960 -9199.8421 -7452.1446 298.6300 109.8148 204.5289 30289.0979 -203.9018 -135.2385
ENERGY: 1200000 3.7770 8.0457 8.5687 0.0000 -10673.6146 1494.3113 0.0000 0.0000 1779.4797 -7379.4323 303.6023 -9158.9120 -7436.9921 299.1021 579.3522 665.1651 30395.6865 -71.1642 -1.4728
ENERGY: 1500000 3.3278 9.1387 12.5947 0.0000 -10586.2211 1418.7715 0.0000 0.0000 1845.3515 -7297.0369 314.8409 -9142.3885 -7428.0055 300.3284 23.8560 78.8510 30459.3069 -9.1416 58.0446
TCL: Running FEP window  17: Lambda1 0.8000000000000002 Lambda2 0.8500000000000002 [dLambda 0.050000000000000044]
TCL: Setting parameter firsttimestep to 0
TCL: Setting parameter alchLambda to 0.8000000000000002
Info: NONBONDED TABLE R-SQUARED SPACING: 0.0625
Info: NONBONDED TABLE SIZE: 705 POINTS
TCL: Setting parameter alchLambda2 to 0.8500000000000002
Info: NONBONDED TABLE R-SQUARED SPACING: 0.0625
Info: NONBONDED TABLE SIZE: 705 POINTS
TCL: Running for 1500000 steps
ETITLE: TS BOND ANGLE DIHED IMPRP ELECT VDW BOUNDARY MISC KINETIC TOTAL TEMP POTENTIAL TOTALAVG TEMPAVG PRESSURE GPRESSURE VOLUME PRESSAVG GPRESSAVG
ENERGY: 0 3.3278 9.1387 12.5947 0.0000 -10588.8732 1419.6945 0.0000 0.0000 1844.4663 -7299.6512 314.6898 -9144.1175 -7299.6512 314.6898 -5.0173 91.7467 30459.3069 -5.0173 91.7467
ENERGY: 300000 5.9752 5.3232 9.3723 0.0000 -10620.7495 1450.2457 0.0000 0.0000 1752.3129 -7397.5202 298.9673 -9149.8331 -7386.2088 303.3640 -28.6034 100.8722 30334.8761 -169.9938 -89.0418
ENERGY: 600000 7.2322 8.0051 9.5165 0.0000 -10584.4981 1407.5498 0.0000 0.0000 1789.2034 -7362.9911 305.2613 -9152.1945 -7387.9658 302.4258 -304.6421 -205.2453 30502.1838 -87.0866 0.3815
ENERGY: 900000 4.3065 7.8409 10.7569 0.0000 -10494.9603 1305.4083 0.0000 0.0000 1744.8667 -7421.7810 297.6968 -9166.6477 -7399.6299 301.7485 -811.3378 -768.1582 30211.5995 -163.6280 -86.3100
ENERGY: 1200000 4.7802 10.8956 6.1979 0.0000 -10568.0225 1427.9069 0.0000 0.0000 1775.6190 -7342.6229 302.9436 -9118.2419 -7408.7706 300.6362 -47.7438 28.8171 30806.8243 -172.4095 -106.3891
ENERGY: 1500000 4.4568 5.1812 13.3113 0.0000 -10682.4151 1457.4383 0.0000 0.0000 1803.1467 -7398.8808 307.6402 -9202.0275 -7409.4580 300.9631 432.1802 502.5311 30180.8185 -87.0916 -21.1435
TCL: Running FEP window  18: Lambda1 0.8500000000000002 Lambda2 0.9000000000000002 [dLambda 0.050000000000000044]
TCL: Setting parameter firsttimestep to 0
TCL: Setting parameter alchLambda to 0.8500000000000002
Info: NONBONDED TABLE R-SQUARED SPACING: 0.0625
Info: NONBONDED TABLE SIZE: 705 POINTS
TCL: Setting parameter alchLambda2 to 0.9000000000000002
Info: NONBONDED TABLE R-SQUARED SPACING: 0.0625
Info: NONBONDED TABLE SIZE: 705 POINTS
TCL: Running for 1500000 steps
ETITLE: TS BOND ANGLE DIHED IMPRP ELECT VDW BOUNDARY MISC KINETIC TOTAL TEMP POTENTIAL TOTALAVG TEMPAVG PRESSURE GPRESSURE VOLUME PRESSAVG GPRESSAVG
ENERGY: 0 4.4568 5.1812 13.3114 0.0000 -10683.4643 1457.5813 0.0000 0.0000 1802.2718 -7400.6619 307.4909 -9202.9337 -7400.6619 307.4909 433.1213 516.5923 30180.8185 433.1213 516.5923
ENERGY: 300000 5.2099 5.5297 10.6383 0.0000 -10723.0291 1466.1991 0.0000 0.0000 1710.5813 -7524.8709 291.8473 -9235.4522 -7427.4706 300.1638 33.9120 80.2740 30364.1741 313.8780 386.1860
ENERGY: 600000 1.8630 12.3864 12.4072 0.0000 -10600.7204 1421.1858 0.0000 0.0000 1779.8596 -7373.0184 303.6671 -9152.8780 -7392.6168 302.2046 305.2672 306.7337 30398.9314 102.1823 172.5806
ENERGY: 900000 7.1669 3.5755 8.6942 0.0000 -10667.6918 1466.1664 0.0000 0.0000 1756.3988 -7425.6900 299.6644 -9182.0888 -7400.6355 300.8134 440.0199 487.5998 30235.2676 31.6458 91.1425
ENERGY: 1200000 3.3006 7.6681 8.1490 0.0000 -10624.6299 1421.8637 0.0000 0.0000 1722.4807 -7461.1679 293.8775 -9183.6486 -7403.5221 301.3522 -319.4083 -215.6685 30866.3398 103.7187 163.2175
ENERGY: 1500000 2.5259 8.4946 7.9643 0.0000 -10637.4322 1460.0569 0.0000 0.0000 1777.9081 -7380.4824 303.3341 -9158.3904 -7406.4765 301.2276 261.1718 348.3211 30598.3713 203.7862 269.0199
TCL: Running FEP window  19: Lambda1 0.9000000000000002 Lambda2 0.9500000000000003 [dLambda 0.050000000000000044]
TCL: Setting parameter firsttimestep to 0
TCL: Setting parameter alchLambda to 0.9000000000000002
Info: NONBONDED TABLE R-SQUARED SPACING: 0.0625
Info: NONBONDED TABLE SIZE: 705 POINTS
TCL: Setting parameter alchLambda2 to 0.9500000000000003
Info: NONBONDED TABLE R-SQUARED SPACING: 0.0625
Info: NONBONDED TABLE SIZE: 705 POINTS
TCL: Running for 1500000 steps
ETITLE: TS BOND ANGLE DIHED IMPRP ELECT VDW BOUNDARY MISC KINETIC TOTAL TEMP POTENTIAL TOTALAVG TEMPAVG PRESSURE GPRESSURE VOLUME PRESSAVG GPRESSAVG
ENERGY: 0 2.5259 8.4946 7.9643 0.0000 -10638.6369 1461.7717 0.0000 0.0000 1777.0103 -7380.8700 303.1810 -9157.8803 -7380.8700 303.1810 317.0527 384.4409 30598.3713 317.0527 384.4409
ENERGY: 300000 5.4669 5.8828 10.8040 0.0000 -10494.2823 1293.8660 0.0000 0.0000 1736.9039 -7441.3587 296.3383 -9178.2626 -7436.1493 299.9445 -1050.4895 -1002.2610 30413.4437 -343.3398 -292.2942
ENERGY: 600000 4.6277 5.3601 12.1739 0.0000 -10687.0490 1438.3147 0.0000 0.0000 1697.0585 -7529.5142 289.5402 -9226.5727 -7456.4075 298.3677 -175.1293 -154.5671 30640.7975 -375.6969 -321.1570
ENERGY: 900000 2.5180 7.1520 9.4896 0.0000 -10640.3535 1473.3048 0.0000 0.0000 1720.4040 -7427.4851 293.5232 -9147.8891 -7452.0960 297.3444 476.8473 613.1371 30184.9103 -274.6683 -204.5689
ENERGY: 1200000 2.1948 4.7018 7.9277 0.0000 -10503.9610 1306.0005 0.0000 0.0000 1719.6328 -7463.5035 293.3916 -9183.1363 -7450.2734 297.3521 -911.1526 -841.8472 30262.3520 -334.7937 -261.4364
ENERGY: 1500000 2.4224 15.7117 6.8224 0.0000 -10590.7520 1419.7075 0.0000 0.0000 1750.2053 -7395.8827 298.6077 -9146.0880 -7440.7773 298.6400 97.9384 174.1169 30512.9223 -256.6477 -182.0570
TCL: Running FEP window  20: Lambda1 0.9500000000000003 Lambda2 1.0    [dLambda 0.04999999999999971]
TCL: Setting parameter firsttimestep to 0
TCL: Setting parameter alchLambda to 0.9500000000000003
Info: NONBONDED TABLE R-SQUARED SPACING: 0.0625
Info: NONBONDED TABLE SIZE: 705 POINTS
TCL: Setting parameter alchLambda2 to 1.0
Info: NONBONDED TABLE R-SQUARED SPACING: 0.0625
Info: NONBONDED TABLE SIZE: 705 POINTS
TCL: Running for 1500000 steps
ETITLE: TS BOND ANGLE DIHED IMPRP ELECT VDW BOUNDARY MISC KINETIC TOTAL TEMP POTENTIAL TOTALAVG TEMPAVG PRESSURE GPRESSURE VOLUME PRESSAVG GPRESSAVG
ENERGY: 0 2.4224 15.7117 6.8224 0.0000 -10592.1106 1420.1333 0.0000 0.0000 1749.3145 -7397.7063 298.4557 -9147.0208 -7397.7063 298.4557 114.7972 192.3741 30512.9223 114.7972 192.3741
ENERGY: 300000 5.4742 8.0750 9.9632 0.0000 -10611.3286 1352.7003 0.0000 0.0000 1732.4449 -7502.6709 295.5775 -9235.1159 -7419.8614 298.1437 -883.0599 -847.3873 30660.8560 -103.3893 -47.2005
ENERGY: 600000 5.0746 10.1972 8.6574 0.0000 -10614.3415 1405.6015 0.0000 0.0000 1784.5804 -7400.2304 304.4725 -9184.8107 -7394.8615 299.4119 27.9992 42.7911 30169.3444 -255.1343 -200.5818
ENERGY: 900000 1.9668 7.4334 12.0899 0.0000 -10620.7272 1416.4878 0.0000 0.0000 1827.4916 -7355.2576 311.7937 -9182.7492 -7391.4885 302.3841 -101.7753 -110.2979 30700.8790 -227.9346 -184.0242
ENERGY: 1200000 2.5413 5.1759 10.7582 0.0000 -10808.3580 1505.5881 0.0000 0.0000 1750.0869 -7534.2077 298.5875 -9284.2946 -7403.0756 301.3215 260.4465 343.0215 30428.7930 -259.0834 -211.3463
ENERGY: 1500000 4.9748 9.5302 10.0180 0.0000 -10731.5427 1533.9487 0.0000 0.0000 1758.1396 -7414.9314 299.9614 -9173.0710 -7392.6551 301.7605 950.5371 996.2380 30068.8830 -213.3566 -162.2377
TCL: Exiting due to exit command.
