Info: SIMULATION PARAMETERS:
Info: TIMESTEP               2
Info: NUMBER OF STEPS        0
Info: STEPS PER CYCLE        10
Info: PERIODIC CELL BASIS 1  31.8659 0 0
Info: PERIODIC CELL BASIS 2  0 31.4847 0
Info: PERIODIC CELL BASIS 3  0 0 30.4597
Info: PERIODIC CELL CENTER   0 0 0
Info: WRAPPING WATERS AROUND PERIODIC BOUNDARIES ON OUTPUT.
Info: WRAPPING ALL CLUSTERS AROUND PERIODIC BOUNDARIES ON OUTPUT.
Info: FIRST LDB TIMESTEP     50
Info: LAST LDB TIMESTEP     -1
Info: HOM BACKGROUND SCALING 1
Info: PME BACKGROUND SCALING 1
Info: MIN ATOMS PER PATCH    40
Info: EMPTY PATCH LOAD       40 ATOMS
Info: VELOCITY FILE          mobley_5690766_equil.vel
Info: CENTER OF MASS MOVING INITIALLY? NO
Info: DIELECTRIC             1
Info: EXCLUDE                SCALED ONE-FOUR
Info: 1-4 ELECTROSTATICS SCALED BY 0.833333
Info: MODIFIED 1-4 VDW PARAMETERS WILL BE USED
Info: DCD FILENAME           mobley_5690766_prod.dcd
Info: DCD FREQUENCY          100000
Info: DCD FIRST STEP         100000
Info: DCD FILE WILL CONTAIN UNIT CELL DATA
Info: XST FILENAME           mobley_5690766_prod.xst
Info: XST FREQUENCY          100000
Info: NO VELOCITY DCD OUTPUT
Info: NO FORCE DCD OUTPUT
Info: OUTPUT FILENAME        mobley_5690766_prod
Info: BINARY OUTPUT FILES WILL BE USED
Info: RESTART FILENAME       mobley_5690766_prod.restart
Info: RESTART FREQUENCY      100000
Info: BINARY RESTART FILES WILL BE USED
Info: CUTOFF                 9
Info: PAIRLIST DISTANCE      11
Info: PAIRLIST SHRINK RATE   0.01
Info: PAIRLIST GROW RATE     0.01
Info: PAIRLIST TRIGGER       0.3
Info: PAIRLISTS PER CYCLE    2
Info: PAIRLISTS ENABLED
Info: MARGIN                 2
Info: HYDROGEN GROUP CUTOFF  2.5
Info: PATCH DIMENSION        15.5
Info: ENERGY OUTPUT STEPS    100000
Info: ENERGY EVALUATION STEPS    100000
Info: OUTPUT ENERGY PRECISION 4
Info: CROSSTERM ENERGY INCLUDED IN DIHEDRAL
Info: TIMING OUTPUT STEPS    1000000
Info: PRESSURE OUTPUT STEPS  100000
Info: ALCHEMICAL FEP ON
Info: FEP CURRENT LAMBDA VALUE     0
Info: FEP COMPARISON LAMBDA VALUE  0.05
Info: FEP INTRA-ALCHEMICAL NON-BONDED INTERACTIONS WILL BE RETAINED
Info: FEP INTRA-ALCHEMICAL BONDED INTERACTIONS WILL BE RETAINED
Info: FEP VDW SHIFTING COEFFICIENT 5
Info: FEP ELEC. ACTIVE FOR ANNIHILATED PARTICLES BETWEEN LAMBDA = 0 AND LAMBDA = 0.5
Info: FEP ELEC. ACTIVE FOR EXNIHILATED PARTICLES BETWEEN LAMBDA = 0.5 AND LAMBDA = 1
Info: FEP VDW ACTIVE FOR ANNIHILATED PARTICLES BETWEEN LAMBDA = 0 AND LAMBDA = 1
Info: FEP VDW ACTIVE FOR EXNIHILATED PARTICLES BETWEEN LAMBDA = 0 AND LAMBDA = 1
Info: FEP BOND ACTIVE FOR ANNIHILATED PARTICLES BETWEEN LAMBDA = 1 AND LAMBDA = 1
Info: FEP BOND ACTIVE FOR EXNIHILATED PARTICLES BETWEEN LAMBDA = 0 AND LAMBDA = 0
Info: LANGEVIN DYNAMICS ACTIVE
Info: LANGEVIN TEMPERATURE   300
Info: LANGEVIN USING BBK INTEGRATOR
Info: LANGEVIN DAMPING COEFFICIENT IS 1 INVERSE PS
Info: LANGEVIN DYNAMICS APPLIED TO HYDROGENS
Info: LANGEVIN PISTON PRESSURE CONTROL ACTIVE
Info:        TARGET PRESSURE IS 1.01325 BAR
Info:     OSCILLATION PERIOD IS 50 FS
Info:             DECAY TIME IS 25 FS
Info:     PISTON TEMPERATURE IS 300 K
Info:       PRESSURE CONTROL IS GROUP-BASED
Info:    INITIAL STRAIN RATE IS -0.000195397 -0.000195397 -0.000195397
Info:       CELL FLUCTUATION IS ISOTROPIC
Info: PARTICLE MESH EWALD (PME) ACTIVE
Info: PME TOLERANCE               1e-06
Info: PME EWALD COEFFICIENT       0.348832
Info: PME INTERPOLATION ORDER     4
Info: PME GRID DIMENSIONS         32 32 32
Info: PME MAXIMUM GRID SPACING    1
Info: PME CALCULATION WILL BE PERFORMED ON GPU
Info: FULL ELECTROSTATIC EVALUATION FREQUENCY      2
Info: USING VERLET I (r-RESPA) MTS SCHEME.
Info: C1 SPLITTING OF LONG RANGE ELECTROSTATICS
Info: PLACING ATOMS IN PATCHES BY HYDROGEN GROUPS
Info: RIGID BONDS TO HYDROGEN : ALL
Info:         ERROR TOLERANCE : 1e-08
Info:          MAX ITERATIONS : 100
Info: RIGID WATER USING SETTLE ALGORITHM
Info: RANDOM NUMBER SEED     1743902592
Info: USE HYDROGEN BONDS?    NO
Info: Using AMBER format force field!
Info: AMBER PARM FILE        mobley_5690766.prmtop
Info: COORDINATE PDB         mobley_5690766.pdb
Info: Exclusions will be read from PARM file!
Info: SCNB (VDW SCALING)     2
Info: USING ARITHMETIC MEAN TO COMBINE L-J SIGMA PARAMETERS
Info: BINARY COORDINATES     mobley_5690766_equil.coor
Info: SUMMARY OF PARAMETERS:
Info: 7 BONDS
Info: 8 ANGLES
Info:   8 HARMONIC
Info:   0 COSINE-BASED
Info: 7 DIHEDRAL
Info: 0 IMPROPER
Info: 0 CROSSTERM
Info: 0 VDW
Info: 21 VDW_PAIRS
Info: 0 NBTHOLE_PAIRS
Info: To read alchdata from file: mobley_5690766.pdb
Info: To read alchflag data from column: 5
Info: STRUCTURE SUMMARY:
Info: 2959 ATOMS
Info: 2958 BONDS
Info: 24 ANGLES
Info: 41 DIHEDRALS
Info: 0 IMPROPERS
Info: 0 CROSSTERMS
Info: 3011 EXCLUSIONS
Info: 2953 RIGID BONDS
Info: ALCH: 0 ATOMS TO DISAPPEAR IN FINAL STATE
Info: ALCH: 16 ATOMS TO APPEAR IN FINAL STATE
Info: 5924 DEGREES OF FREEDOM
Info: 987 HYDROGEN GROUPS
Info: 3 ATOMS IN LARGEST HYDROGEN GROUP
Info: 987 MIGRATION GROUPS
Info: 3 ATOMS IN LARGEST MIGRATION GROUP
Info: TOTAL MASS = 17755.8 amu
Info: TOTAL CHARGE = -2.23517e-08 e
Info: MASS DENSITY = 0.964827 g/cm^3
Info: ATOM DENSITY = 0.0968264 atoms/A^3
Info: ADDED 0 IMPLICIT EXCLUSIONS
Info: NONBONDED TABLE R-SQUARED SPACING: 0.0625
Info: NONBONDED TABLE SIZE: 705 POINTS
Info: REDUCING NUMBER OF PATCHES TO IMPROVE LOAD BALANCE
Info: REMOVING COM VELOCITY 0.0325486 0.126102 -0.0218443
Info: Use 3D box decompostion in PME FFT.
Info: Updated CUDA force table with 4096 elements.
Info: Updated CUDA LJ table with 6 x 6 elements.
Info: Found 18 unique exclusion lists needing 40 bytes
TCL: Running for 1500000 steps
ETITLE: TS BOND ANGLE DIHED IMPRP ELECT VDW BOUNDARY MISC KINETIC TOTAL TEMP POTENTIAL TOTALAVG TEMPAVG PRESSURE GPRESSURE VOLUME PRESSAVG GPRESSAVG
ENERGY: 0 1.8016 5.6714 11.1751 0.0000 -10624.4302 1410.2348 0.0000 0.0000 1814.1128 -7381.4346 308.2050 -9195.5474 -7381.4346 308.2050 -92.2067 -11.5936 30559.8388 -92.2067 -11.5936
ENERGY: 300000 0.9555 3.6097 8.1616 0.0000 -10794.3138 1499.0327 0.0000 0.0000 1810.5112 -7472.0430 307.5931 -9282.5542 -7414.3403 307.6417 320.5266 461.8476 30433.5327 343.8249 414.2270
ENERGY: 600000 0.9210 10.7984 4.1890 0.0000 -10661.4066 1453.4047 0.0000 0.0000 1782.6956 -7409.3979 302.8674 -9192.0935 -7429.6328 304.2946 147.2760 254.4465 30349.0681 89.2487 169.5968
ENERGY: 900000 1.6492 2.7355 8.2850 0.0000 -10564.3617 1409.6450 0.0000 0.0000 1715.2390 -7426.8080 291.4070 -9142.0470 -7445.8760 301.5608 -58.2280 -24.5155 30553.8857 -41.7919 31.5193
ENERGY: 1200000 2.8246 6.1740 7.3294 0.0000 -10829.7872 1497.0183 0.0000 0.0000 1767.0595 -7549.3813 300.2109 -9316.4408 -7456.1405 301.4991 -41.7207 29.5619 30472.5966 35.5040 103.6907
ENERGY: 1500000 0.4739 3.3391 7.5394 0.0000 -10498.6887 1318.2021 0.0000 0.0000 1713.3267 -7455.8074 291.0821 -9169.1341 -7460.3894 300.4397 -960.2584 -902.0293 30884.3773 62.6650 120.5395
TCL: Running FEP window   2: Lambda1 0.05   Lambda2 0.1    [dLambda 0.05  ]
TCL: Setting parameter firsttimestep to 0
TCL: Setting parameter alchLambda to 0.05
Info: NONBONDED TABLE R-SQUARED SPACING: 0.0625
Info: NONBONDED TABLE SIZE: 705 POINTS
TCL: Setting parameter alchLambda2 to 0.1
Info: NONBONDED TABLE R-SQUARED SPACING: 0.0625
Info: NONBONDED TABLE SIZE: 705 POINTS
TCL: Running for 1500000 steps
ETITLE: TS BOND ANGLE DIHED IMPRP ELECT VDW BOUNDARY MISC KINETIC TOTAL TEMP POTENTIAL TOTALAVG TEMPAVG PRESSURE GPRESSURE VOLUME PRESSAVG GPRESSAVG
ENERGY: 0 0.4739 3.3391 7.5394 0.0000 -10498.6887 1318.3304 0.0000 0.0000 1712.4831 -7456.5226 290.9388 -9169.0058 -7456.5226 290.9388 -982.0374 -898.9120 30884.3773 -982.0374 -898.9120
ENERGY: 300000 1.5718 4.8023 8.6006 0.0000 -10737.5886 1380.9882 0.0000 0.0000 1737.2275 -7604.3982 295.1427 -9341.6257 -7525.3970 290.0731 -822.7832 -689.0271 30130.2799 -88.1936 -1.5493
ENERGY: 600000 0.5536 4.2251 4.1502 0.0000 -10795.4641 1452.4366 0.0000 0.0000 1773.6908 -7560.4080 301.3375 -9334.0988 -7530.4512 295.5833 -300.1867 -171.8396 30173.2187 -34.0773 43.1278
ENERGY: 900000 2.6635 9.7009 9.4702 0.0000 -10868.0099 1474.5114 0.0000 0.0000 1758.9851 -7612.6788 298.8392 -9371.6639 -7527.2179 297.2177 -157.7811 -85.5066 29955.6615 -116.4304 -45.6215
ENERGY: 1200000 2.2207 5.2423 6.7634 0.0000 -10640.0344 1415.8518 0.0000 0.0000 1744.3841 -7465.5721 296.3585 -9209.9562 -7514.8353 298.0278 -194.2286 -185.4705 30569.9573 -17.0077 37.3949
ENERGY: 1500000 0.8095 6.8039 7.3856 0.0000 -10732.8462 1475.9159 0.0000 0.0000 1731.7473 -7510.1842 294.2116 -9241.9314 -7508.6162 298.4609 247.7478 278.2819 30220.4831 88.9376 136.3639
TCL: Running FEP window   3: Lambda1 0.1    Lambda2 0.15000000000000002 [dLambda 0.05000000000000002]
TCL: Setting parameter firsttimestep to 0
TCL: Setting parameter alchLambda to 0.1
Info: NONBONDED TABLE R-SQUARED SPACING: 0.0625
Info: NONBONDED TABLE SIZE: 705 POINTS
TCL: Setting parameter alchLambda2 to 0.15000000000000002
Info: NONBONDED TABLE R-SQUARED SPACING: 0.0625
Info: NONBONDED TABLE SIZE: 705 POINTS
TCL: Running for 1500000 steps
ETITLE: TS BOND ANGLE DIHED IMPRP ELECT VDW BOUNDARY MISC KINETIC TOTAL TEMP POTENTIAL TOTALAVG TEMPAVG PRESSURE GPRESSURE VOLUME PRESSAVG GPRESSAVG
ENERGY: 0 0.8095 6.8039 7.3856 0.0000 -10732.8459 1478.3877 0.0000 0.0000 1730.8890 -7508.5702 294.0658 -9239.4592 -7508.5702 294.0658 188.8176 286.2544 30220.4831 188.8176 286.2544
ENERGY: 300000 0.3485 11.0734 8.2658 0.0000 -10764.2218 1496.4610 0.0000 0.0000 1744.3372 -7503.7361 296.3506 -9248.0732 -7496.2854 297.7501 401.5934 466.1253 30229.8655 387.2684 417.7651
ENERGY: 600000 1.5205 3.3143 8.4960 0.0000 -10684.4361 1472.0759 0.0000 0.0000 1753.5709 -7445.4585 297.9193 -9199.0294 -7514.1079 296.4738 301.2330 295.6816 30631.6174 226.9133 261.2986
ENERGY: 900000 0.3094 5.5767 8.5322 0.0000 -10896.3537 1503.8641 0.0000 0.0000 1767.5979 -7610.4735 300.3024 -9378.0713 -7509.7325 298.6740 294.6282 304.2555 29983.1701 222.1257 257.8841
ENERGY: 1200000 0.9800 6.0693 7.3365 0.0000 -10684.6298 1424.1953 0.0000 0.0000 1768.0680 -7477.9806 300.3823 -9246.0486 -7493.1418 299.1800 25.4202 73.4124 29992.0789 57.2604 97.9373
ENERGY: 1500000 1.6408 4.9595 6.6382 0.0000 -10739.7768 1409.0203 0.0000 0.0000 1702.9940 -7614.5240 289.3267 -9317.5180 -7506.1069 298.6707 -579.1697 -535.1573 30322.1977 -20.0668 20.7177
TCL: Running FEP window   4: Lambda1 0.15000000000000002 Lambda2 0.2    [dLambda 0.04999999999999999]
TCL: Setting parameter firsttimestep to 0
TCL: Setting parameter alchLambda to 0.15000000000000002
Info: NONBONDED TABLE R-SQUARED SPACING: 0.0625
Info: NONBONDED TABLE SIZE: 705 POINTS
TCL: Setting parameter alchLambda2 to 0.2
Info: NONBONDED TABLE R-SQUARED SPACING: 0.0625
Info: NONBONDED TABLE SIZE: 705 POINTS
TCL: Running for 1500000 steps
ETITLE: TS BOND ANGLE DIHED IMPRP ELECT VDW BOUNDARY MISC KINETIC TOTAL TEMP POTENTIAL TOTALAVG TEMPAVG PRESSURE GPRESSURE VOLUME PRESSAVG GPRESSAVG
ENERGY: 0 1.6408 4.9595 6.6382 0.0000 -10739.7765 1409.7472 0.0000 0.0000 1702.1308 -7614.6601 289.1800 -9316.7909 -7614.6601 289.1800 -612.5054 -530.2089 30322.1977 -612.5054 -530.2089
ENERGY: 300000 1.4485 6.7384 5.2244 0.0000 -10713.0548 1402.4344 0.0000 0.0000 1793.4949 -7503.7142 304.7021 -9297.2091 -7543.6948 295.1606 -367.6798 -367.9873 30225.8563 -260.7460 -204.1184
ENERGY: 600000 3.1869 4.3206 8.0215 0.0000 -10746.9764 1505.2241 0.0000 0.0000 1783.3513 -7442.8719 302.9788 -9226.2232 -7519.3844 296.1678 492.6305 566.9470 30787.4518 -143.1914 -86.4479
ENERGY: 900000 0.7761 8.2811 5.6989 0.0000 -10547.7102 1356.2026 0.0000 0.0000 1756.6121 -7420.1394 298.4360 -9176.7515 -7510.6665 296.2588 -832.4848 -792.7067 31322.8043 -216.7239 -165.3547
ENERGY: 1200000 2.5882 4.8517 8.8643 0.0000 -10716.6124 1446.6921 0.0000 0.0000 1792.8189 -7460.7973 304.5873 -9253.6162 -7500.0495 297.4605 -145.6228 -66.8542 30439.0042 -218.8342 -166.0958
ENERGY: 1500000 0.3598 4.7708 7.1072 0.0000 -10634.3650 1396.8255 0.0000 0.0000 1787.6043 -7437.6974 303.7014 -9225.3017 -7488.5540 297.9259 -283.8220 -211.7876 30732.5948 -177.6258 -120.6569
TCL: Running FEP window   5: Lambda1 0.2    Lambda2 0.25   [dLambda 0.04999999999999999]
TCL: Setting parameter firsttimestep to 0
TCL: Setting parameter alchLambda to 0.2
Info: NONBONDED TABLE R-SQUARED SPACING: 0.0625
Info: NONBONDED TABLE SIZE: 705 POINTS
TCL: Setting parameter alchLambda2 to 0.25
Info: NONBONDED TABLE R-SQUARED SPACING: 0.0625
Info: NONBONDED TABLE SIZE: 705 POINTS
TCL: Running for 1500000 steps
ETITLE: TS BOND ANGLE DIHED IMPRP ELECT VDW BOUNDARY MISC KINETIC TOTAL TEMP POTENTIAL TOTALAVG TEMPAVG PRESSURE GPRESSURE VOLUME PRESSAVG GPRESSAVG
ENERGY: 0 0.3598 4.7708 7.1072 0.0000 -10634.3654 1396.6070 0.0000 0.0000 1786.7513 -7438.7692 303.5564 -9225.5206 -7438.7692 303.5564 -287.7966 -211.1160 30732.5948 -287.7966 -211.1160
ENERGY: 300000 1.1017 6.1829 9.2986 0.0000 -10711.4934 1451.8892 0.0000 0.0000 1812.8690 -7430.1520 307.9937 -9243.0210 -7489.0560 301.6515 -80.1247 -25.1861 30890.1169 84.2366 123.8665
ENERGY: 600000 2.0103 5.6642 5.5535 0.0000 -10546.1651 1358.7703 0.0000 0.0000 1740.4123 -7433.7544 295.6838 -9174.1667 -7493.3553 300.1436 -593.7634 -530.3182 30406.7931 -133.0788 -80.8669
ENERGY: 900000 2.2230 9.9018 5.8073 0.0000 -10701.3456 1422.4012 0.0000 0.0000 1762.4542 -7498.5580 299.4285 -9261.0122 -7497.3807 299.8802 -375.1103 -290.7372 30488.3171 -86.3309 -24.2241
ENERGY: 1200000 0.2389 6.0710 7.5301 0.0000 -10671.5970 1368.1645 0.0000 0.0000 1740.4499 -7549.1426 295.6902 -9289.5925 -7507.0329 298.9613 -861.9659 -709.3251 30479.4242 -111.6317 -43.8522
ENERGY: 1500000 3.1954 11.2952 6.0587 0.0000 -10826.5816 1550.6005 0.0000 0.0000 1749.5124 -7505.9193 297.2298 -9255.4318 -7499.6474 299.0933 696.7853 755.5446 30533.1174 -85.7266 -19.2309
TCL: Running FEP window   6: Lambda1 0.25   Lambda2 0.3    [dLambda 0.04999999999999999]
TCL: Setting parameter firsttimestep to 0
TCL: Setting parameter alchLambda to 0.25
Info: NONBONDED TABLE R-SQUARED SPACING: 0.0625
Info: NONBONDED TABLE SIZE: 705 POINTS
TCL: Setting parameter alchLambda2 to 0.3
Info: NONBONDED TABLE R-SQUARED SPACING: 0.0625
Info: NONBONDED TABLE SIZE: 705 POINTS
TCL: Running for 1500000 steps
ETITLE: TS BOND ANGLE DIHED IMPRP ELECT VDW BOUNDARY MISC KINETIC TOTAL TEMP POTENTIAL TOTALAVG TEMPAVG PRESSURE GPRESSURE VOLUME PRESSAVG GPRESSAVG
ENERGY: 0 3.1954 11.2952 6.0587 0.0000 -10826.5806 1550.5797 0.0000 0.0000 1748.6219 -7506.8297 297.0785 -9255.4516 -7506.8297 297.0785 696.5234 758.8224 30533.1174 696.5234 758.8224
ENERGY: 300000 2.6530 5.6113 6.3649 0.0000 -10704.8039 1408.5375 0.0000 0.0000 1823.1712 -7458.4660 309.7439 -9281.6372 -7473.9529 302.9304 -149.4393 -108.5134 30497.7250 1.0343 49.0874
ENERGY: 600000 0.5692 8.4478 7.2155 0.0000 -10618.2456 1420.8892 0.0000 0.0000 1779.5844 -7401.5395 302.3388 -9181.1239 -7446.6346 304.1664 -165.9439 -97.4009 30641.4721 7.6214 59.1705
ENERGY: 900000 0.9030 7.0437 5.3147 0.0000 -10705.3600 1410.2559 0.0000 0.0000 1791.5414 -7490.3014 304.3702 -9281.8427 -7457.7804 303.7822 -351.3334 -243.1527 29969.4053 -44.3525 9.1962
ENERGY: 1200000 1.5380 2.9854 8.0214 0.0000 -10666.5157 1373.9903 0.0000 0.0000 1817.7910 -7462.1896 308.8299 -9279.9806 -7463.9247 303.2267 -358.4079 -262.3225 30087.9423 -33.0659 14.8021
ENERGY: 1500000 1.0205 4.8921 5.4075 0.0000 -10576.2313 1373.1258 0.0000 0.0000 1710.0420 -7481.7435 290.5241 -9191.7855 -7464.5529 301.4245 -594.5942 -500.2093 30669.1476 -129.5973 -78.2706
TCL: Running FEP window   7: Lambda1 0.3    Lambda2 0.35   [dLambda 0.04999999999999999]
TCL: Setting parameter firsttimestep to 0
TCL: Setting parameter alchLambda to 0.3
Info: NONBONDED TABLE R-SQUARED SPACING: 0.0625
Info: NONBONDED TABLE SIZE: 705 POINTS
TCL: Setting parameter alchLambda2 to 0.35
Info: NONBONDED TABLE R-SQUARED SPACING: 0.0625
Info: NONBONDED TABLE SIZE: 705 POINTS
TCL: Running for 1500000 steps
ETITLE: TS BOND ANGLE DIHED IMPRP ELECT VDW BOUNDARY MISC KINETIC TOTAL TEMP POTENTIAL TOTALAVG TEMPAVG PRESSURE GPRESSURE VOLUME PRESSAVG GPRESSAVG
ENERGY: 0 1.0205 4.8921 5.4075 0.0000 -10576.2306 1374.1690 0.0000 0.0000 1709.1889 -7481.5526 290.3791 -9190.7415 -7481.5526 290.3791 -577.8560 -494.2991 30669.1476 -577.8560 -494.2991
ENERGY: 300000 0.4544 4.3232 8.4231 0.0000 -10732.3458 1454.7641 0.0000 0.0000 1750.8546 -7513.5263 297.4578 -9264.3809 -7517.2286 296.0809 -206.8886 -94.7784 30704.9048 -146.5233 -78.7621
ENERGY: 600000 0.7786 4.8957 8.3483 0.0000 -10708.3961 1428.4030 0.0000 0.0000 1742.0694 -7523.9010 295.9653 -9265.9704 -7521.3062 296.9861 -216.8264 -136.9519 30418.9054 -157.3127 -110.4202
ENERGY: 900000 2.4303 3.5588 6.2889 0.0000 -10659.5154 1414.4539 0.0000 0.0000 1727.5448 -7505.2387 293.4977 -9232.7835 -7500.1365 298.7446 -186.3249 -136.8652 30408.4305 -74.6118 -25.9011
ENERGY: 1200000 2.2513 4.5419 5.8373 0.0000 -10704.2997 1412.5812 0.0000 0.0000 1777.4798 -7501.6083 301.9813 -9279.0881 -7497.4227 298.1445 -643.0675 -543.1430 30662.2290 -177.6495 -120.6382
ENERGY: 1500000 0.9784 5.6677 7.0924 0.0000 -10726.8255 1434.0053 0.0000 0.0000 1804.6367 -7474.4451 306.5950 -9279.0818 -7492.6669 298.2637 130.2110 175.2406 29910.9107 -164.6191 -104.3546
TCL: Running FEP window   8: Lambda1 0.35   Lambda2 0.39999999999999997 [dLambda 0.04999999999999999]
TCL: Setting parameter firsttimestep to 0
TCL: Setting parameter alchLambda to 0.35
Info: NONBONDED TABLE R-SQUARED SPACING: 0.0625
Info: NONBONDED TABLE SIZE: 705 POINTS
TCL: Setting parameter alchLambda2 to 0.39999999999999997
Info: NONBONDED TABLE R-SQUARED SPACING: 0.0625
Info: NONBONDED TABLE SIZE: 705 POINTS
TCL: Running for 1500000 steps
ETITLE: TS BOND ANGLE DIHED IMPRP ELECT VDW BOUNDARY MISC KINETIC TOTAL TEMP POTENTIAL TOTALAVG TEMPAVG PRESSURE GPRESSURE VOLUME PRESSAVG GPRESSAVG
ENERGY: 0 0.9784 5.6677 7.0924 0.0000 -10726.8261 1434.5164 0.0000 0.0000 1803.7330 -7474.8382 306.4415 -9278.5712 -7474.8382 306.4415 101.6899 182.0625 29910.9107 101.6899 182.0625
ENERGY: 300000 2.9484 5.8328 8.2193 0.0000 -10595.9603 1334.9514 0.0000 0.0000 1804.4545 -7439.5539 306.5641 -9244.0084 -7445.0779 306.0877 -923.6051 -871.0888 30568.3482 -383.1858 -316.7480
ENERGY: 600000 1.4886 4.5266 9.9785 0.0000 -10675.0021 1436.6944 0.0000 0.0000 1765.3711 -7456.9429 299.9241 -9222.3140 -7467.6737 301.4608 40.6487 175.9026 30480.7914 -300.0098 -222.5012
ENERGY: 900000 2.5673 4.5220 5.3802 0.0000 -10870.2979 1527.4993 0.0000 0.0000 1815.3390 -7514.9902 308.4133 -9330.3291 -7471.0857 301.7838 835.4213 847.4617 29976.0551 -46.7295 19.2510
ENERGY: 1200000 2.5609 4.8229 6.7237 0.0000 -10678.8989 1395.6683 0.0000 0.0000 1802.0800 -7467.0431 306.1607 -9269.1231 -7465.4093 301.6559 -142.6171 -89.9658 30072.3091 -31.6654 34.7028
ENERGY: 1500000 1.1328 7.7486 10.7947 0.0000 -10768.3523 1443.4313 0.0000 0.0000 1841.4788 -7463.7662 312.8543 -9305.2450 -7464.8290 302.5939 -116.3212 4.9204 30253.8767 -34.4235 27.5531
TCL: Running FEP window   9: Lambda1 0.39999999999999997 Lambda2 0.44999999999999996 [dLambda 0.04999999999999999]
TCL: Setting parameter firsttimestep to 0
TCL: Setting parameter alchLambda to 0.39999999999999997
Info: NONBONDED TABLE R-SQUARED SPACING: 0.0625
Info: NONBONDED TABLE SIZE: 705 POINTS
TCL: Setting parameter alchLambda2 to 0.44999999999999996
Info: NONBONDED TABLE R-SQUARED SPACING: 0.0625
Info: NONBONDED TABLE SIZE: 705 POINTS
TCL: Running for 1500000 steps
ETITLE: TS BOND ANGLE DIHED IMPRP ELECT VDW BOUNDARY MISC KINETIC TOTAL TEMP POTENTIAL TOTALAVG TEMPAVG PRESSURE GPRESSURE VOLUME PRESSAVG GPRESSAVG
ENERGY: 0 1.1328 7.7486 10.7947 0.0000 -10768.3512 1444.4068 0.0000 0.0000 1840.5895 -7463.6788 312.7032 -9304.2683 -7463.6788 312.7032 -78.4082 13.1009 30253.8767 -78.4082 13.1009
ENERGY: 300000 0.8811 7.0240 8.2884 0.0000 -10679.8345 1449.4659 0.0000 0.0000 1773.1484 -7441.0269 301.2454 -9214.1752 -7460.9464 302.9580 45.5051 63.5335 30597.2307 115.5186 165.1434
ENERGY: 600000 0.9194 4.9129 6.1079 0.0000 -10584.2825 1317.5819 0.0000 0.0000 1740.8679 -7513.8925 295.7612 -9254.7604 -7481.2158 301.8079 -1007.3063 -975.6656 30495.0032 22.8827 70.4223
ENERGY: 900000 1.8524 5.5495 9.5726 0.0000 -10537.6345 1361.5753 0.0000 0.0000 1769.2998 -7389.7849 300.5916 -9159.0847 -7468.9703 301.1923 -561.5139 -470.1235 30771.1308 -21.9817 31.2534
ENERGY: 1200000 0.7387 12.0641 7.5729 0.0000 -10846.7939 1540.9620 0.0000 0.0000 1831.7662 -7453.6900 311.2041 -9285.4563 -7480.1818 301.0254 611.3124 745.0775 30411.8408 -91.9332 -33.1881
ENERGY: 1500000 4.0579 5.0489 11.8770 0.0000 -10586.3273 1342.5085 0.0000 0.0000 1768.3156 -7454.5193 300.4243 -9222.8348 -7480.5808 301.0104 -908.9042 -884.0578 30588.0903 -163.6565 -108.5303
TCL: Running FEP window  10: Lambda1 0.44999999999999996 Lambda2 0.49999999999999994 [dLambda 0.04999999999999999]
TCL: Setting parameter firsttimestep to 0
TCL: Setting parameter alchLambda to 0.44999999999999996
Info: NONBONDED TABLE R-SQUARED SPACING: 0.0625
Info: NONBONDED TABLE SIZE: 705 POINTS
TCL: Setting parameter alchLambda2 to 0.49999999999999994
Info: NONBONDED TABLE R-SQUARED SPACING: 0.0625
Info: NONBONDED TABLE SIZE: 705 POINTS
TCL: Running for 1500000 steps
ETITLE: TS BOND ANGLE DIHED IMPRP ELECT VDW BOUNDARY MISC KINETIC TOTAL TEMP POTENTIAL TOTALAVG TEMPAVG PRESSURE GPRESSURE VOLUME PRESSAVG GPRESSAVG
ENERGY: 0 4.0580 5.0489 11.8770 0.0000 -10586.3282 1342.9147 0.0000 0.0000 1767.4416 -7454.9881 300.2758 -9222.4296 -7454.9881 300.2758 -962.6996 -874.9589 30588.0903 -962.6996 -874.9589
ENERGY: 300000 1.0965 5.8771 9.0662 0.0000 -10774.9445 1481.5844 0.0000 0.0000 1771.0531 -7506.2671 300.8894 -9277.3203 -7435.2270 303.3877 212.3491 262.1976 30436.0622 -179.1830 -91.9623
ENERGY: 600000 2.0244 3.4105 6.0902 0.0000 -10616.3515 1389.9199 0.0000 0.0000 1814.0327 -7400.8738 308.1914 -9214.9065 -7440.3263 302.9454 -221.5727 -133.4129 30434.3300 -123.1323 -48.5634
ENERGY: 900000 2.0746 5.9234 7.6807 0.0000 -10812.3535 1504.2878 0.0000 0.0000 1700.5645 -7591.8223 288.9139 -9292.3868 -7464.6712 300.4902 494.3624 510.2327 30388.2537 -52.4010 18.8197
ENERGY: 1200000 1.1768 6.2574 8.4706 0.0000 -10776.8198 1470.8349 0.0000 0.0000 1746.0370 -7544.0431 296.6394 -9290.0801 -7463.8218 301.7189 -134.9685 -1.7162 30517.6813 -20.2089 51.7845
ENERGY: 1500000 1.3816 6.0819 8.7362 0.0000 -10570.2715 1312.9358 0.0000 0.0000 1746.8491 -7494.2870 296.7773 -9241.1360 -7461.9780 301.6805 -1287.4679 -1205.3341 30883.6741 -43.1132 30.3077
TCL: Running FEP window  11: Lambda1 0.49999999999999994 Lambda2 0.5499999999999999 [dLambda 0.04999999999999999]
TCL: Setting parameter firsttimestep to 0
TCL: Setting parameter alchLambda to 0.49999999999999994
Info: NONBONDED TABLE R-SQUARED SPACING: 0.0625
Info: NONBONDED TABLE SIZE: 705 POINTS
TCL: Setting parameter alchLambda2 to 0.5499999999999999
Info: NONBONDED TABLE R-SQUARED SPACING: 0.0625
Info: NONBONDED TABLE SIZE: 705 POINTS
TCL: Running for 1500000 steps
ETITLE: TS BOND ANGLE DIHED IMPRP ELECT VDW BOUNDARY MISC KINETIC TOTAL TEMP POTENTIAL TOTALAVG TEMPAVG PRESSURE GPRESSURE VOLUME PRESSAVG GPRESSAVG
ENERGY: 0 1.3816 6.0819 8.7362 0.0000 -10570.2715 1314.4028 0.0000 0.0000 1745.9626 -7493.7064 296.6267 -9239.6690 -7493.7064 296.6267 -1256.7250 -1188.3619 30883.6741 -1256.7250 -1188.3619
ENERGY: 300000 0.7984 5.4618 8.4345 0.0000 -10661.8759 1435.6547 0.0000 0.0000 1729.6074 -7481.9191 293.8481 -9211.5265 -7486.4399 297.9986 59.7387 91.9714 30440.6193 -155.3121 -110.1784
ENERGY: 600000 2.7243 4.6663 6.5300 0.0000 -10672.5068 1445.2289 0.0000 0.0000 1746.9402 -7466.4171 296.7928 -9213.3573 -7481.5326 298.4018 -8.0348 59.2246 30837.3071 -28.3329 34.1754
ENERGY: 900000 1.1064 4.7665 8.8971 0.0000 -10766.1374 1419.1718 0.0000 0.0000 1763.8068 -7568.3886 299.6583 -9332.1955 -7492.8096 299.3491 -512.2623 -443.8727 30494.7765 -75.7290 1.4553
ENERGY: 1200000 1.0267 8.8470 6.6793 0.0000 -10837.7260 1504.0275 0.0000 0.0000 1758.4479 -7558.6975 298.7479 -9317.1454 -7496.2809 299.8008 176.3623 296.8857 30499.4655 -98.6312 -16.5442
ENERGY: 1500000 0.7595 7.9121 8.4020 0.0000 -10811.6588 1505.8097 0.0000 0.0000 1756.2275 -7532.5479 298.3707 -9288.7754 -7500.0105 299.7580 514.1180 550.8220 30071.3953 -89.1326 -10.4637
TCL: Running FEP window  12: Lambda1 0.5499999999999999 Lambda2 0.6    [dLambda 0.050000000000000044]
TCL: Setting parameter firsttimestep to 0
TCL: Setting parameter alchLambda to 0.5499999999999999
Info: NONBONDED TABLE R-SQUARED SPACING: 0.0625
Info: NONBONDED TABLE SIZE: 705 POINTS
TCL: Setting parameter alchLambda2 to 0.6
Info: NONBONDED TABLE R-SQUARED SPACING: 0.0625
Info: NONBONDED TABLE SIZE: 705 POINTS
TCL: Running for 1500000 steps
ETITLE: TS BOND ANGLE DIHED IMPRP ELECT VDW BOUNDARY MISC KINETIC TOTAL TEMP POTENTIAL TOTALAVG TEMPAVG PRESSURE GPRESSURE VOLUME PRESSAVG GPRESSAVG
ENERGY: 0 0.7595 7.9121 8.4020 0.0000 -10811.7182 1505.7572 0.0000 0.0000 1755.3742 -7533.5131 298.2257 -9288.8873 -7533.5131 298.2257 475.8789 555.4410 30071.3953 475.8789 555.4410
ENERGY: 300000 1.4102 5.8525 3.6546 0.0000 -10662.0706 1392.2442 0.0000 0.0000 1729.9449 -7528.9642 293.9054 -9258.9091 -7496.3664 302.6378 -390.9344 -307.4671 30223.4964 47.3313 128.5130
ENERGY: 600000 4.1151 8.6100 6.8780 0.0000 -10765.2111 1491.2608 0.0000 0.0000 1830.8122 -7423.5352 311.0421 -9254.3473 -7480.1253 302.5455 394.9493 471.3394 30171.8592 61.7735 145.7005
ENERGY: 900000 2.0666 4.3834 7.4093 0.0000 -10795.3582 1555.8945 0.0000 0.0000 1759.4992 -7466.1051 298.9265 -9225.6043 -7477.6345 302.2159 1109.5978 1154.1481 30227.4674 153.9787 232.6487
ENERGY: 1200000 1.8825 5.1187 8.1252 0.0000 -10741.7226 1502.3772 0.0000 0.0000 1751.5164 -7472.7027 297.5703 -9224.2190 -7492.5048 300.3368 384.9402 453.6270 30763.4881 134.0882 205.1283
ENERGY: 1500000 3.1322 8.6366 5.1929 0.0000 -10637.8602 1443.7806 0.0000 0.0000 1769.6136 -7407.5044 300.6449 -9177.1180 -7496.0768 299.2855 140.2412 200.7346 30376.0058 79.5307 155.0445
TCL: Running FEP window  13: Lambda1 0.6    Lambda2 0.65   [dLambda 0.050000000000000044]
TCL: Setting parameter firsttimestep to 0
TCL: Setting parameter alchLambda to 0.6
Info: NONBONDED TABLE R-SQUARED SPACING: 0.0625
Info: NONBONDED TABLE SIZE: 705 POINTS
TCL: Setting parameter alchLambda2 to 0.65
Info: NONBONDED TABLE R-SQUARED SPACING: 0.0625
Info: NONBONDED TABLE SIZE: 705 POINTS
TCL: Running for 1500000 steps
ETITLE: TS BOND ANGLE DIHED IMPRP ELECT VDW BOUNDARY MISC KINETIC TOTAL TEMP POTENTIAL TOTALAVG TEMPAVG PRESSURE GPRESSURE VOLUME PRESSAVG GPRESSAVG
ENERGY: 0 3.1322 8.6366 5.1929 0.0000 -10637.9229 1444.4350 0.0000 0.0000 1768.7321 -7407.7943 300.4951 -9176.5264 -7407.7943 300.4951 124.6230 214.1683 30376.0058 124.6230 214.1683
ENERGY: 300000 0.5878 8.3083 7.3165 0.0000 -10762.6109 1444.2884 0.0000 0.0000 1727.4312 -7574.6786 293.4784 -9302.1098 -7493.9146 297.4185 -100.4040 -47.8800 30274.4605 -63.6025 0.2762
ENERGY: 600000 0.2761 6.6430 5.9993 0.0000 -10748.8957 1480.8512 0.0000 0.0000 1854.1817 -7400.9444 315.0124 -9255.1261 -7474.7520 300.7058 346.1487 386.6012 30492.6565 -69.3626 -11.9893
ENERGY: 900000 1.2875 5.3309 5.9327 0.0000 -10663.1142 1399.1682 0.0000 0.0000 1741.4689 -7509.9261 295.8633 -9251.3950 -7472.0243 300.6785 -484.2988 -378.0193 30438.1303 -62.6816 3.3494
ENERGY: 1200000 1.0538 4.2636 8.7387 0.0000 -10715.3573 1457.1338 0.0000 0.0000 1750.6083 -7493.5590 297.4160 -9244.1673 -7487.3797 299.2666 75.0656 48.1834 30472.0145 -83.3719 -25.5205
ENERGY: 1500000 1.3370 6.7881 10.3042 0.0000 -10860.0736 1541.7042 0.0000 0.0000 1746.7369 -7553.2033 296.7583 -9299.9401 -7497.6359 298.8975 756.3792 737.4905 30170.9697 -31.6599 21.6853
TCL: Running FEP window  14: Lambda1 0.65   Lambda2 0.7000000000000001 [dLambda 0.050000000000000044]
TCL: Setting parameter firsttimestep to 0
TCL: Setting parameter alchLambda to 0.65
Info: NONBONDED TABLE R-SQUARED SPACING: 0.0625
Info: NONBONDED TABLE SIZE: 705 POINTS
TCL: Setting parameter alchLambda2 to 0.7000000000000001
Info: NONBONDED TABLE R-SQUARED SPACING: 0.0625
Info: NONBONDED TABLE SIZE: 705 POINTS
TCL: Running for 1500000 steps
ETITLE: TS BOND ANGLE DIHED IMPRP ELECT VDW BOUNDARY MISC KINETIC TOTAL TEMP POTENTIAL TOTALAVG TEMPAVG PRESSURE GPRESSURE VOLUME PRESSAVG GPRESSAVG
ENERGY: 0 1.3370 6.7881 10.3042 0.0000 -10860.0227 1541.6955 0.0000 0.0000 1745.8374 -7554.0605 296.6054 -9299.8979 -7554.0605 296.6054 666.1333 744.3813 30170.9697 666.1333 744.3813
ENERGY: 300000 1.0092 5.5478 11.9320 0.0000 -10671.9539 1412.2045 0.0000 0.0000 1839.3680 -7401.8924 312.4956 -9241.2604 -7507.4851 299.7517 -219.8546 -70.8305 30074.2094 183.3877 263.4926
ENERGY: 600000 1.1108 4.4246 5.5549 0.0000 -10701.4512 1434.9261 0.0000 0.0000 1790.2772 -7465.1576 304.1555 -9255.4349 -7485.5008 301.1552 -117.6157 -7.9970 30809.2517 183.1375 259.1900
ENERGY: 900000 1.8838 5.3047 8.4945 0.0000 -10703.6353 1397.4992 0.0000 0.0000 1770.3629 -7520.0903 300.7722 -9290.4532 -7484.9059 301.6679 -648.0281 -587.5542 30661.0902 60.0872 127.7304
ENERGY: 1200000 1.0727 4.3832 10.3846 0.0000 -10652.0969 1360.7191 0.0000 0.0000 1782.9016 -7492.6356 302.9024 -9275.5372 -7476.8916 301.8769 -853.7239 -765.1092 30536.7412 -52.1395 15.8001
ENERGY: 1500000 1.0339 4.2560 8.4566 0.0000 -10682.0722 1395.9347 0.0000 0.0000 1822.2927 -7450.0984 309.5947 -9272.3911 -7475.9142 302.4331 -409.0170 -382.8380 30648.6873 -107.2389 -43.9364
TCL: Running FEP window  15: Lambda1 0.7000000000000001 Lambda2 0.7500000000000001 [dLambda 0.050000000000000044]
TCL: Setting parameter firsttimestep to 0
TCL: Setting parameter alchLambda to 0.7000000000000001
Info: NONBONDED TABLE R-SQUARED SPACING: 0.0625
Info: NONBONDED TABLE SIZE: 705 POINTS
TCL: Setting parameter alchLambda2 to 0.7500000000000001
Info: NONBONDED TABLE R-SQUARED SPACING: 0.0625
Info: NONBONDED TABLE SIZE: 705 POINTS
TCL: Running for 1500000 steps
ETITLE: TS BOND ANGLE DIHED IMPRP ELECT VDW BOUNDARY MISC KINETIC TOTAL TEMP POTENTIAL TOTALAVG TEMPAVG PRESSURE GPRESSURE VOLUME PRESSAVG GPRESSAVG
ENERGY: 0 1.0339 4.2560 8.4566 0.0000 -10682.2028 1395.5159 0.0000 0.0000 1821.3939 -7451.5466 309.4420 -9272.9404 -7451.5466 309.4420 -458.6205 -377.0794 30648.6873 -458.6205 -377.0794
ENERGY: 300000 2.0660 4.4452 7.7698 0.0000 -10685.1164 1404.9359 0.0000 0.0000 1841.8957 -7424.0038 312.9251 -9265.8994 -7463.0449 305.4684 -151.7486 -95.7632 30214.6585 -375.0805 -308.1847
ENERGY: 600000 1.0211 5.1698 6.5992 0.0000 -10767.4432 1484.5460 0.0000 0.0000 1774.6551 -7495.4520 301.5014 -9270.1071 -7472.3787 304.1075 259.8597 292.5132 30628.8717 -317.2930 -257.3171
ENERGY: 900000 0.4658 2.9252 10.6405 0.0000 -10636.5678 1428.6094 0.0000 0.0000 1718.8425 -7475.0845 292.0192 -9193.9270 -7461.1195 302.3436 51.3244 150.7178 30348.3875 -238.7717 -170.5674
ENERGY: 1200000 3.2850 7.4114 6.5360 0.0000 -10804.5518 1486.2874 0.0000 0.0000 1801.2521 -7499.7798 306.0200 -9301.0319 -7475.5470 302.1623 237.5652 267.1925 30554.4541 -165.5866 -105.2022
ENERGY: 1500000 0.7580 7.0175 8.0422 0.0000 -10627.7225 1377.6400 0.0000 0.0000 1708.0397 -7526.2251 290.1839 -9234.2648 -7480.5056 301.6429 -533.4192 -467.7886 30561.2343 -164.5882 -111.5503
TCL: Running FEP window  16: Lambda1 0.7500000000000001 Lambda2 0.8000000000000002 [dLambda 0.050000000000000044]
TCL: Setting parameter firsttimestep to 0
TCL: Setting parameter alchLambda to 0.7500000000000001
Info: NONBONDED TABLE R-SQUARED SPACING: 0.0625
Info: NONBONDED TABLE SIZE: 705 POINTS
TCL: Setting parameter alchLambda2 to 0.8000000000000002
Info: NONBONDED TABLE R-SQUARED SPACING: 0.0625
Info: NONBONDED TABLE SIZE: 705 POINTS
TCL: Running for 1500000 steps
ETITLE: TS BOND ANGLE DIHED IMPRP ELECT VDW BOUNDARY MISC KINETIC TOTAL TEMP POTENTIAL TOTALAVG TEMPAVG PRESSURE GPRESSURE VOLUME PRESSAVG GPRESSAVG
ENERGY: 0 0.7580 7.0175 8.0422 0.0000 -10627.7590 1377.7274 0.0000 0.0000 1707.1458 -7527.0683 290.0320 -9234.2140 -7527.0683 290.0320 -537.1757 -459.4026 30561.2343 -537.1757 -459.4026
ENERGY: 300000 1.5863 8.6666 4.7843 0.0000 -10649.9699 1455.9105 0.0000 0.0000 1748.7581 -7430.2640 297.1017 -9179.0221 -7496.9927 296.6509 90.3198 70.5627 31059.9449 -206.9131 -179.9249
ENERGY: 600000 1.0891 9.1809 4.6927 0.0000 -10586.5163 1365.1265 0.0000 0.0000 1744.8830 -7461.5440 296.4433 -9206.4270 -7486.5978 296.8653 -882.5606 -776.9676 31000.4096 -336.8078 -289.8220
ENERGY: 900000 3.5186 3.5469 8.4651 0.0000 -10807.6208 1519.7663 0.0000 0.0000 1765.7156 -7506.6083 299.9826 -9272.3239 -7493.0696 297.0760 181.2236 306.2994 30737.4427 -210.0101 -144.8333
ENERGY: 1200000 1.6402 3.6589 7.8395 0.0000 -10891.7941 1526.9096 0.0000 0.0000 1731.5008 -7620.2451 294.1698 -9351.7460 -7498.5619 296.6740 486.1651 551.4943 29999.8778 -155.2000 -90.4632
ENERGY: 1500000 1.5148 4.8645 2.8505 0.0000 -10620.5529 1378.3268 0.0000 0.0000 1752.5759 -7480.4205 297.7503 -9232.9964 -7492.5375 296.9414 -595.7908 -434.5942 30644.4346 -167.5231 -95.6367
TCL: Running FEP window  17: Lambda1 0.8000000000000002 Lambda2 0.8500000000000002 [dLambda 0.050000000000000044]
TCL: Setting parameter firsttimestep to 0
TCL: Setting parameter alchLambda to 0.8000000000000002
Info: NONBONDED TABLE R-SQUARED SPACING: 0.0625
Info: NONBONDED TABLE SIZE: 705 POINTS
TCL: Setting parameter alchLambda2 to 0.8500000000000002
Info: NONBONDED TABLE R-SQUARED SPACING: 0.0625
Info: NONBONDED TABLE SIZE: 705 POINTS
TCL: Running for 1500000 steps
ETITLE: TS BOND ANGLE DIHED IMPRP ELECT VDW BOUNDARY MISC KINETIC TOTAL TEMP POTENTIAL TOTALAVG TEMPAVG PRESSURE GPRESSURE VOLUME PRESSAVG GPRESSAVG
ENERGY: 0 1.5148 4.8645 2.8505 0.0000 -10620.5750 1378.0583 0.0000 0.0000 1751.6833 -7481.6037 297.5986 -9233.2871 -7481.6037 297.5986 -525.8504 -430.8677 30644.4346 -525.8504 -430.8677
ENERGY: 300000 3.1344 4.5966 6.7093 0.0000 -10891.4847 1564.6378 0.0000 0.0000 1727.3343 -7585.0722 293.4619 -9312.4066 -7519.2568 300.7707 814.4525 896.8191 30467.2749 -36.4231 23.7775
ENERGY: 600000 1.3684 7.6098 4.7516 0.0000 -10705.0243 1433.1749 0.0000 0.0000 1751.0003 -7507.1193 297.4826 -9258.1196 -7510.3701 300.0831 37.6616 112.7588 30035.9980 -104.4942 -35.9355
ENERGY: 900000 1.1284 5.0825 9.8768 0.0000 -10672.8562 1426.3702 0.0000 0.0000 1739.3771 -7491.0211 295.5079 -9230.3983 -7499.1536 300.0070 -142.5873 -48.9348 30688.3543 -47.2597 24.8470
ENERGY: 1200000 0.5342 3.0657 8.1505 0.0000 -10842.6704 1490.1242 0.0000 0.0000 1724.8625 -7615.9332 293.0420 -9340.7956 -7502.4092 300.4895 55.7453 45.7994 30551.3696 -52.7911 16.3131
ENERGY: 1500000 4.3746 7.3552 7.6226 0.0000 -10714.1039 1443.7954 0.0000 0.0000 1720.6891 -7530.2669 292.3329 -9250.9561 -7508.5898 298.9471 -92.1151 18.4744 30445.8698 -103.6511 -34.8823
TCL: Running FEP window  18: Lambda1 0.8500000000000002 Lambda2 0.9000000000000002 [dLambda 0.050000000000000044]
TCL: Setting parameter firsttimestep to 0
TCL: Setting parameter alchLambda to 0.8500000000000002
Info: NONBONDED TABLE R-SQUARED SPACING: 0.0625
Info: NONBONDED TABLE SIZE: 705 POINTS
TCL: Setting parameter alchLambda2 to 0.9000000000000002
Info: NONBONDED TABLE R-SQUARED SPACING: 0.0625
Info: NONBONDED TABLE SIZE: 705 POINTS
TCL: Running for 1500000 steps
ETITLE: TS BOND ANGLE DIHED IMPRP ELECT VDW BOUNDARY MISC KINETIC TOTAL TEMP POTENTIAL TOTALAVG TEMPAVG PRESSURE GPRESSURE VOLUME PRESSAVG GPRESSAVG
ENERGY: 0 4.3746 7.3552 7.6226 0.0000 -10714.3590 1444.3003 0.0000 0.0000 1719.8267 -7530.8795 292.1864 -9250.7062 -7530.8795 292.1864 -61.7295 31.6205 30445.8698 -61.7295 31.6205
ENERGY: 300000 1.9857 4.5913 7.8032 0.0000 -10719.7680 1499.5642 0.0000 0.0000 1742.2845 -7463.5392 296.0018 -9205.8237 -7512.2187 294.1986 693.5879 759.1841 30358.8014 49.8262 108.8761
ENERGY: 600000 3.2630 5.9864 7.0358 0.0000 -10677.0005 1444.5323 0.0000 0.0000 1765.9168 -7450.2664 300.0168 -9216.1831 -7504.9890 298.3835 67.6576 188.0528 30507.0869 24.4056 94.7006
ENERGY: 900000 0.5165 9.4086 8.3806 0.0000 -10913.6297 1529.3146 0.0000 0.0000 1763.4322 -7602.5772 299.5947 -9366.0094 -7507.4872 299.8311 744.5120 832.0474 29701.4751 76.9151 144.0685
ENERGY: 1200000 1.1036 9.3852 7.0157 0.0000 -10785.3462 1512.3611 0.0000 0.0000 1743.4805 -7512.0001 296.2050 -9255.4806 -7507.4652 299.3489 504.4482 590.6630 30423.5693 203.8805 273.2584
ENERGY: 1500000 0.4484 6.8717 6.8561 0.0000 -10719.7810 1470.5385 0.0000 0.0000 1746.4825 -7488.5838 296.7150 -9235.0663 -7496.9878 299.9562 203.8950 333.6946 30438.1768 218.8362 289.7339
TCL: Running FEP window  19: Lambda1 0.9000000000000002 Lambda2 0.9500000000000003 [dLambda 0.050000000000000044]
TCL: Setting parameter firsttimestep to 0
TCL: Setting parameter alchLambda to 0.9000000000000002
Info: NONBONDED TABLE R-SQUARED SPACING: 0.0625
Info: NONBONDED TABLE SIZE: 705 POINTS
TCL: Setting parameter alchLambda2 to 0.9500000000000003
Info: NONBONDED TABLE R-SQUARED SPACING: 0.0625
Info: NONBONDED TABLE SIZE: 705 POINTS
TCL: Running for 1500000 steps
ETITLE: TS BOND ANGLE DIHED IMPRP ELECT VDW BOUNDARY MISC KINETIC TOTAL TEMP POTENTIAL TOTALAVG TEMPAVG PRESSURE GPRESSURE VOLUME PRESSAVG GPRESSAVG
ENERGY: 0 0.4484 6.8717 6.8561 0.0000 -10720.0441 1471.0406 0.0000 0.0000 1745.6251 -7489.2022 296.5694 -9234.8273 -7489.2022 296.5694 270.0235 351.3184 30438.1768 270.0235 351.3184
ENERGY: 300000 1.6728 6.7886 6.2862 0.0000 -10697.2360 1448.9570 0.0000 0.0000 1731.0219 -7502.5095 294.0884 -9233.5314 -7525.0870 297.6229 0.1188 76.3027 30352.8421 -208.1907 -123.4729
ENERGY: 600000 1.6173 4.9739 8.1602 0.0000 -10778.7246 1509.6849 0.0000 0.0000 1814.8991 -7439.3893 308.3385 -9254.2884 -7494.5873 299.6496 758.3228 807.5624 29981.4137 -80.6642 -3.6673
ENERGY: 900000 2.3678 8.1521 7.7160 0.0000 -10609.8796 1365.1185 0.0000 0.0000 1755.0105 -7471.5147 298.1639 -9226.5252 -7483.5256 298.7087 -591.5577 -542.0754 30395.8832 -205.9958 -131.7850
ENERGY: 1200000 0.9288 6.1671 9.6398 0.0000 -10600.8411 1356.3357 0.0000 0.0000 1755.4362 -7472.3335 298.2362 -9227.7698 -7484.6772 299.6216 -624.6618 -520.6392 30604.2623 -190.0870 -108.9062
ENERGY: 1500000 0.8783 7.6102 5.7292 0.0000 -10627.7224 1342.4391 0.0000 0.0000 1741.4765 -7529.5891 295.8646 -9271.0656 -7492.5314 298.9547 -824.2526 -785.6714 30667.6399 -172.1573 -93.8550
TCL: Running FEP window  20: Lambda1 0.9500000000000003 Lambda2 1.0    [dLambda 0.04999999999999971]
TCL: Setting parameter firsttimestep to 0
TCL: Setting parameter alchLambda to 0.9500000000000003
Info: NONBONDED TABLE R-SQUARED SPACING: 0.0625
Info: NONBONDED TABLE SIZE: 705 POINTS
TCL: Setting parameter alchLambda2 to 1.0
Info: NONBONDED TABLE R-SQUARED SPACING: 0.0625
Info: NONBONDED TABLE SIZE: 705 POINTS
TCL: Running for 1500000 steps
ETITLE: TS BOND ANGLE DIHED IMPRP ELECT VDW BOUNDARY MISC KINETIC TOTAL TEMP POTENTIAL TOTALAVG TEMPAVG PRESSURE GPRESSURE VOLUME PRESSAVG GPRESSAVG
ENERGY: 0 0.8783 7.6102 5.7292 0.0000 -10628.0232 1342.6411 0.0000 0.0000 1740.5900 -7530.5744 295.7139 -9271.1644 -7530.5744 295.7139 -848.3961 -770.7062 30667.6399 -848.3961 -770.7062
ENERGY: 300000 3.1703 8.2826 5.9654 0.0000 -10794.5880 1530.3400 0.0000 0.0000 1789.6402 -7457.1895 304.0472 -9246.8297 -7460.5521 303.3138 668.1099 666.1743 30278.8802 -29.3620 12.7211
ENERGY: 600000 2.0712 3.8919 5.3954 0.0000 -10815.2639 1502.5813 0.0000 0.0000 1736.5060 -7564.8183 295.0201 -9301.3243 -7461.1860 302.8068 878.5274 895.3356 29822.0865 271.6790 318.4013
ENERGY: 900000 3.3414 5.3038 8.4620 0.0000 -10720.7660 1524.3492 0.0000 0.0000 1794.7043 -7384.6052 304.9076 -9179.3095 -7456.6942 302.3784 794.1674 827.9352 30580.8759 350.6199 400.0554
ENERGY: 1200000 2.8587 5.3924 10.0442 0.0000 -10600.7700 1401.7149 0.0000 0.0000 1816.4875 -7364.2725 308.6084 -9180.7599 -7451.5226 302.1541 -300.2675 -250.6122 30922.7093 258.6325 310.0810
ENERGY: 1500000 2.2158 4.9155 7.5055 0.0000 -10614.5911 1423.8973 0.0000 0.0000 1714.9940 -7461.0630 291.3654 -9176.0570 -7453.9879 301.0379 -69.8026 41.0158 30534.4831 174.0145 228.8125
TCL: Exiting due to exit command.
