Info: SIMULATION PARAMETERS:
Info: TIMESTEP               2
Info: NUMBER OF STEPS        0
Info: STEPS PER CYCLE        10
Info: PERIODIC CELL BASIS 1  31.0475 0 0
Info: PERIODIC CELL BASIS 2  0 30.4033 0
Info: PERIODIC CELL BASIS 3  0 0 32.4648
Info: PERIODIC CELL CENTER   0 0 0
Info: WRAPPING WATERS AROUND PERIODIC BOUNDARIES ON OUTPUT.
Info: WRAPPING ALL CLUSTERS AROUND PERIODIC BOUNDARIES ON OUTPUT.
Info: FIRST LDB TIMESTEP     50
Info: LAST LDB TIMESTEP     -1
Info: HOM BACKGROUND SCALING 1
Info: PME BACKGROUND SCALING 1
Info: MIN ATOMS PER PATCH    40
Info: EMPTY PATCH LOAD       40 ATOMS
Info: VELOCITY FILE          mobley_1075836_equil.vel
Info: CENTER OF MASS MOVING INITIALLY? NO
Info: DIELECTRIC             1
Info: EXCLUDE                SCALED ONE-FOUR
Info: 1-4 ELECTROSTATICS SCALED BY 0.833333
Info: MODIFIED 1-4 VDW PARAMETERS WILL BE USED
Info: DCD FILENAME           mobley_1075836_prod.dcd
Info: DCD FREQUENCY          100000
Info: DCD FIRST STEP         100000
Info: DCD FILE WILL CONTAIN UNIT CELL DATA
Info: XST FILENAME           mobley_1075836_prod.xst
Info: XST FREQUENCY          100000
Info: NO VELOCITY DCD OUTPUT
Info: NO FORCE DCD OUTPUT
Info: OUTPUT FILENAME        mobley_1075836_prod
Info: BINARY OUTPUT FILES WILL BE USED
Info: RESTART FILENAME       mobley_1075836_prod.restart
Info: RESTART FREQUENCY      100000
Info: BINARY RESTART FILES WILL BE USED
Info: CUTOFF                 9
Info: PAIRLIST DISTANCE      11
Info: PAIRLIST SHRINK RATE   0.01
Info: PAIRLIST GROW RATE     0.01
Info: PAIRLIST TRIGGER       0.3
Info: PAIRLISTS PER CYCLE    2
Info: PAIRLISTS ENABLED
Info: MARGIN                 2
Info: HYDROGEN GROUP CUTOFF  2.5
Info: PATCH DIMENSION        15.5
Info: ENERGY OUTPUT STEPS    100000
Info: ENERGY EVALUATION STEPS    100000
Info: OUTPUT ENERGY PRECISION 4
Info: CROSSTERM ENERGY INCLUDED IN DIHEDRAL
Info: TIMING OUTPUT STEPS    1000000
Info: PRESSURE OUTPUT STEPS  100000
Info: ALCHEMICAL FEP ON
Info: FEP CURRENT LAMBDA VALUE     0
Info: FEP COMPARISON LAMBDA VALUE  0.05
Info: FEP INTRA-ALCHEMICAL NON-BONDED INTERACTIONS WILL BE RETAINED
Info: FEP INTRA-ALCHEMICAL BONDED INTERACTIONS WILL BE RETAINED
Info: FEP VDW SHIFTING COEFFICIENT 5
Info: FEP ELEC. ACTIVE FOR ANNIHILATED PARTICLES BETWEEN LAMBDA = 0 AND LAMBDA = 0.5
Info: FEP ELEC. ACTIVE FOR EXNIHILATED PARTICLES BETWEEN LAMBDA = 0.5 AND LAMBDA = 1
Info: FEP VDW ACTIVE FOR ANNIHILATED PARTICLES BETWEEN LAMBDA = 0 AND LAMBDA = 1
Info: FEP VDW ACTIVE FOR EXNIHILATED PARTICLES BETWEEN LAMBDA = 0 AND LAMBDA = 1
Info: FEP BOND ACTIVE FOR ANNIHILATED PARTICLES BETWEEN LAMBDA = 1 AND LAMBDA = 1
Info: FEP BOND ACTIVE FOR EXNIHILATED PARTICLES BETWEEN LAMBDA = 0 AND LAMBDA = 0
Info: LANGEVIN DYNAMICS ACTIVE
Info: LANGEVIN TEMPERATURE   300
Info: LANGEVIN USING BBK INTEGRATOR
Info: LANGEVIN DAMPING COEFFICIENT IS 1 INVERSE PS
Info: LANGEVIN DYNAMICS APPLIED TO HYDROGENS
Info: LANGEVIN PISTON PRESSURE CONTROL ACTIVE
Info:        TARGET PRESSURE IS 1.01325 BAR
Info:     OSCILLATION PERIOD IS 50 FS
Info:             DECAY TIME IS 25 FS
Info:     PISTON TEMPERATURE IS 300 K
Info:       PRESSURE CONTROL IS GROUP-BASED
Info:    INITIAL STRAIN RATE IS -0.000178387 -0.000178387 -0.000178387
Info:       CELL FLUCTUATION IS ISOTROPIC
Info: PARTICLE MESH EWALD (PME) ACTIVE
Info: PME TOLERANCE               1e-06
Info: PME EWALD COEFFICIENT       0.348832
Info: PME INTERPOLATION ORDER     4
Info: PME GRID DIMENSIONS         32 32 36
Info: PME MAXIMUM GRID SPACING    1
Info: PME CALCULATION WILL BE PERFORMED ON GPU
Info: FULL ELECTROSTATIC EVALUATION FREQUENCY      2
Info: USING VERLET I (r-RESPA) MTS SCHEME.
Info: C1 SPLITTING OF LONG RANGE ELECTROSTATICS
Info: PLACING ATOMS IN PATCHES BY HYDROGEN GROUPS
Info: RIGID BONDS TO HYDROGEN : ALL
Info:         ERROR TOLERANCE : 1e-08
Info:          MAX ITERATIONS : 100
Info: RIGID WATER USING SETTLE ALGORITHM
Info: RANDOM NUMBER SEED     1743734652
Info: USE HYDROGEN BONDS?    NO
Info: Using AMBER format force field!
Info: AMBER PARM FILE        mobley_1075836.prmtop
Info: COORDINATE PDB         mobley_1075836.pdb
Info: Exclusions will be read from PARM file!
Info: SCNB (VDW SCALING)     2
Info: USING ARITHMETIC MEAN TO COMBINE L-J SIGMA PARAMETERS
Info: BINARY COORDINATES     mobley_1075836_equil.coor
Info: SUMMARY OF PARAMETERS:
Info: 9 BONDS
Info: 10 ANGLES
Info:   10 HARMONIC
Info:   0 COSINE-BASED
Info: 12 DIHEDRAL
Info: 0 IMPROPER
Info: 0 CROSSTERM
Info: 0 VDW
Info: 36 VDW_PAIRS
Info: 0 NBTHOLE_PAIRS
Info: To read alchdata from file: mobley_1075836.pdb
Info: To read alchflag data from column: 5
Info: STRUCTURE SUMMARY:
Info: 2969 ATOMS
Info: 2968 BONDS
Info: 22 ANGLES
Info: 28 DIHEDRALS
Info: 0 IMPROPERS
Info: 0 CROSSTERMS
Info: 3010 EXCLUSIONS
Info: 2963 RIGID BONDS
Info: ALCH: 0 ATOMS TO DISAPPEAR IN FINAL STATE
Info: ALCH: 14 ATOMS TO APPEAR IN FINAL STATE
Info: 5944 DEGREES OF FREEDOM
Info: 991 HYDROGEN GROUPS
Info: 4 ATOMS IN LARGEST HYDROGEN GROUP
Info: 991 MIGRATION GROUPS
Info: 4 ATOMS IN LARGEST MIGRATION GROUP
Info: TOTAL MASS = 17833.9 amu
Info: TOTAL CHARGE = -0.000100046 e
Info: MASS DENSITY = 0.966373 g/cm^3
Info: ATOM DENSITY = 0.0968836 atoms/A^3
Info: ADDED 0 IMPLICIT EXCLUSIONS
Info: NONBONDED TABLE R-SQUARED SPACING: 0.0625
Info: NONBONDED TABLE SIZE: 705 POINTS
Info: REMOVING COM VELOCITY -0.157091 0.129039 -0.212498
Info: Use 3D box decompostion in PME FFT.
Info: Updated CUDA force table with 4096 elements.
Info: Updated CUDA LJ table with 8 x 8 elements.
Info: Found 17 unique exclusion lists needing 32 bytes
TCL: Running for 1500000 steps
ETITLE: TS BOND ANGLE DIHED IMPRP ELECT VDW BOUNDARY MISC KINETIC TOTAL TEMP POTENTIAL TOTALAVG TEMPAVG PRESSURE GPRESSURE VOLUME PRESSAVG GPRESSAVG
ENERGY: 0 1.6686 3.8363 3.5091 0.0000 -10697.9648 1477.5888 0.0000 0.0000 1844.5541 -7366.8080 312.3223 -9211.3621 -7366.8080 312.3223 395.6502 477.2223 30645.0198 395.6502 477.2223
ENERGY: 300000 0.9534 5.0370 2.9438 0.0000 -10805.4427 1458.8864 0.0000 0.0000 1754.0451 -7583.5771 296.9972 -9337.6222 -7479.4122 302.5905 -62.5908 -18.5238 30434.2702 67.2202 96.3062
ENERGY: 600000 2.0089 6.4930 2.7334 0.0000 -10855.8619 1470.0056 0.0000 0.0000 1713.7864 -7660.8345 290.1805 -9374.6208 -7527.0195 300.1645 -116.9099 -71.5795 30507.1512 -79.0719 -38.4386
ENERGY: 900000 3.4175 4.7935 1.9089 0.0000 -10658.1969 1413.7607 0.0000 0.0000 1768.0624 -7466.2539 299.3706 -9234.3163 -7532.5875 300.3823 -65.7918 -4.9692 30343.1516 -148.1398 -105.0227
ENERGY: 1200000 0.7980 6.7894 2.6222 0.0000 -10873.7299 1442.2071 0.0000 0.0000 1725.4241 -7695.8891 292.1510 -9421.3132 -7551.1574 299.3623 -401.7434 -314.2400 30432.6767 -182.3699 -131.3421
ENERGY: 1500000 1.0017 7.1270 1.1668 0.0000 -10754.9134 1468.9130 0.0000 0.0000 1798.3734 -7478.3315 304.5029 -9276.7049 -7539.8951 300.1439 216.2719 285.2617 30588.3374 -137.3010 -86.9195
TCL: Running FEP window   2: Lambda1 0.05   Lambda2 0.1    [dLambda 0.05  ]
TCL: Setting parameter firsttimestep to 0
TCL: Setting parameter alchLambda to 0.05
Info: NONBONDED TABLE R-SQUARED SPACING: 0.0625
Info: NONBONDED TABLE SIZE: 705 POINTS
TCL: Setting parameter alchLambda2 to 0.1
Info: NONBONDED TABLE R-SQUARED SPACING: 0.0625
Info: NONBONDED TABLE SIZE: 705 POINTS
TCL: Running for 1500000 steps
ETITLE: TS BOND ANGLE DIHED IMPRP ELECT VDW BOUNDARY MISC KINETIC TOTAL TEMP POTENTIAL TOTALAVG TEMPAVG PRESSURE GPRESSURE VOLUME PRESSAVG GPRESSAVG
ENERGY: 0 1.0017 7.1270 1.1668 0.0000 -10754.9134 1469.5307 0.0000 0.0000 1797.4921 -7478.5950 304.3537 -9276.0871 -7478.5950 304.3537 200.4390 288.1878 30588.3374 200.4390 288.1878
ENERGY: 300000 2.8982 4.6048 2.3683 0.0000 -10758.0704 1461.7564 0.0000 0.0000 1747.6095 -7538.8332 295.9075 -9286.4427 -7547.3365 297.4218 268.2141 291.6601 30479.9927 -4.9257 66.3375
ENERGY: 600000 1.2160 4.3475 2.4376 0.0000 -10811.4554 1369.8069 0.0000 0.0000 1769.8653 -7663.7822 299.6759 -9433.6475 -7580.0951 297.6015 -986.2025 -891.7471 30269.0126 -63.1693 3.7755
ENERGY: 900000 0.4399 7.2513 1.7628 0.0000 -10775.3673 1420.6856 0.0000 0.0000 1753.7949 -7591.4328 296.9548 -9345.2276 -7578.0359 299.1525 -264.2394 -119.4154 30247.0641 -52.0955 26.0897
ENERGY: 1200000 0.8900 7.5708 2.6578 0.0000 -10677.5930 1440.5872 0.0000 0.0000 1729.2197 -7496.6675 292.7937 -9225.8871 -7571.4354 298.3737 99.5857 143.3648 30707.8125 -49.1603 24.5387
ENERGY: 1500000 1.7499 4.1437 2.2720 0.0000 -10629.2825 1434.6488 0.0000 0.0000 1749.9983 -7436.4700 296.3120 -9186.4682 -7569.0531 298.1228 237.4750 213.4574 30520.2932 -13.7310 44.9881
TCL: Running FEP window   3: Lambda1 0.1    Lambda2 0.15000000000000002 [dLambda 0.05000000000000002]
TCL: Setting parameter firsttimestep to 0
TCL: Setting parameter alchLambda to 0.1
Info: NONBONDED TABLE R-SQUARED SPACING: 0.0625
Info: NONBONDED TABLE SIZE: 705 POINTS
TCL: Setting parameter alchLambda2 to 0.15000000000000002
Info: NONBONDED TABLE R-SQUARED SPACING: 0.0625
Info: NONBONDED TABLE SIZE: 705 POINTS
TCL: Running for 1500000 steps
ETITLE: TS BOND ANGLE DIHED IMPRP ELECT VDW BOUNDARY MISC KINETIC TOTAL TEMP POTENTIAL TOTALAVG TEMPAVG PRESSURE GPRESSURE VOLUME PRESSAVG GPRESSAVG
ENERGY: 0 1.7499 4.1437 2.2720 0.0000 -10629.2843 1436.3362 0.0000 0.0000 1749.1154 -7435.6672 296.1625 -9184.7826 -7435.6672 296.1625 147.7220 218.1443 30520.2932 147.7220 218.1443
ENERGY: 300000 0.7283 3.5189 1.9743 0.0000 -10707.5724 1460.3170 0.0000 0.0000 1765.3476 -7475.6863 298.9109 -9241.0339 -7487.4340 300.9411 170.8178 236.5250 30534.9155 -66.7988 -8.5164
ENERGY: 600000 1.0104 3.7804 2.4544 0.0000 -10811.7772 1452.3548 0.0000 0.0000 1814.6082 -7537.5688 307.2518 -9352.1771 -7518.4194 300.8267 -41.5490 61.4458 30302.2402 -82.1007 -17.8033
ENERGY: 900000 0.6329 9.9573 1.6406 0.0000 -10969.0713 1605.8736 0.0000 0.0000 1765.8142 -7585.1528 298.9899 -9350.9669 -7543.0864 300.8162 1398.4636 1435.9904 29826.8778 101.4280 171.0222
ENERGY: 1200000 1.2750 2.7184 4.2125 0.0000 -10671.6974 1380.3437 0.0000 0.0000 1757.2106 -7525.9372 297.5332 -9283.1478 -7542.2083 299.8064 -436.7243 -400.1450 30378.8491 64.5368 126.2885
ENERGY: 1500000 2.9969 3.0512 2.1543 0.0000 -10572.5789 1268.7984 0.0000 0.0000 1782.6474 -7512.9308 301.8402 -9295.5782 -7539.6752 299.8193 -1463.2892 -1416.6526 30481.2424 8.3640 68.1306
TCL: Running FEP window   4: Lambda1 0.15000000000000002 Lambda2 0.2    [dLambda 0.04999999999999999]
TCL: Setting parameter firsttimestep to 0
TCL: Setting parameter alchLambda to 0.15000000000000002
Info: NONBONDED TABLE R-SQUARED SPACING: 0.0625
Info: NONBONDED TABLE SIZE: 705 POINTS
TCL: Setting parameter alchLambda2 to 0.2
Info: NONBONDED TABLE R-SQUARED SPACING: 0.0625
Info: NONBONDED TABLE SIZE: 705 POINTS
TCL: Running for 1500000 steps
ETITLE: TS BOND ANGLE DIHED IMPRP ELECT VDW BOUNDARY MISC KINETIC TOTAL TEMP POTENTIAL TOTALAVG TEMPAVG PRESSURE GPRESSURE VOLUME PRESSAVG GPRESSAVG
ENERGY: 0 2.9969 3.0512 2.1543 0.0000 -10572.5772 1269.7424 0.0000 0.0000 1781.7361 -7512.8964 301.6859 -9294.6325 -7512.8964 301.6859 -1488.2543 -1406.5302 30481.2424 -1488.2543 -1406.5302
ENERGY: 300000 0.6008 5.5471 2.7935 0.0000 -10716.0570 1363.6155 0.0000 0.0000 1801.0293 -7542.4707 304.9526 -9343.5000 -7514.2363 302.4366 -928.6208 -939.5980 30989.9319 -400.5679 -344.3830
ENERGY: 600000 2.3428 8.0895 1.7222 0.0000 -10746.2953 1431.9788 0.0000 0.0000 1815.9527 -7486.2092 307.4795 -9302.1620 -7515.3440 302.4342 58.9532 24.0288 30175.4360 -346.2157 -311.9975
ENERGY: 900000 0.7039 5.1251 2.6878 0.0000 -10811.7618 1469.9226 0.0000 0.0000 1792.4636 -7540.8588 303.5023 -9333.3224 -7526.9913 302.3269 -203.9614 -209.8057 30984.3587 -306.2269 -271.4224
ENERGY: 1200000 1.2247 4.0930 1.2345 0.0000 -10803.2368 1404.9892 0.0000 0.0000 1803.5006 -7588.1948 305.3711 -9391.6954 -7527.6503 302.4761 -570.2429 -444.2089 30399.2620 -277.6781 -234.1524
ENERGY: 1500000 2.8243 2.9799 4.6639 0.0000 -10894.8699 1519.2426 0.0000 0.0000 1767.6505 -7597.5089 299.3009 -9365.1593 -7537.2416 302.0112 244.5429 362.6859 30291.0945 -159.9888 -110.9844
TCL: Running FEP window   5: Lambda1 0.2    Lambda2 0.25   [dLambda 0.04999999999999999]
TCL: Setting parameter firsttimestep to 0
TCL: Setting parameter alchLambda to 0.2
Info: NONBONDED TABLE R-SQUARED SPACING: 0.0625
Info: NONBONDED TABLE SIZE: 705 POINTS
TCL: Setting parameter alchLambda2 to 0.25
Info: NONBONDED TABLE R-SQUARED SPACING: 0.0625
Info: NONBONDED TABLE SIZE: 705 POINTS
TCL: Running for 1500000 steps
ETITLE: TS BOND ANGLE DIHED IMPRP ELECT VDW BOUNDARY MISC KINETIC TOTAL TEMP POTENTIAL TOTALAVG TEMPAVG PRESSURE GPRESSURE VOLUME PRESSAVG GPRESSAVG
ENERGY: 0 2.8243 2.9799 4.6639 0.0000 -10894.8693 1519.4827 0.0000 0.0000 1766.7754 -7598.1431 299.1527 -9364.9185 -7598.1431 299.1527 283.6887 366.9149 30291.0945 283.6887 366.9149
ENERGY: 300000 0.7296 3.4981 2.7064 0.0000 -10915.3544 1543.9831 0.0000 0.0000 1775.7095 -7588.7277 300.6654 -9364.4372 -7575.8161 299.0991 463.8032 548.6151 30576.8828 65.9539 139.9240
ENERGY: 600000 2.0608 5.1259 1.5950 0.0000 -10843.7994 1512.7185 0.0000 0.0000 1808.1739 -7514.1252 306.1624 -9322.2992 -7546.2482 301.9875 477.9894 583.8889 30349.1472 204.8507 274.8181
ENERGY: 900000 1.5858 5.9074 2.6902 0.0000 -10735.6803 1371.1738 0.0000 0.0000 1804.0468 -7550.2764 305.4635 -9354.3232 -7550.2463 302.5903 -928.0402 -875.1635 30987.9010 98.9320 168.6372
ENERGY: 1200000 1.1011 6.1372 1.5167 0.0000 -10816.2500 1522.3492 0.0000 0.0000 1791.4959 -7493.6500 303.3384 -9285.1459 -7540.1807 302.7965 807.8608 796.3202 30535.7391 205.3225 272.5945
ENERGY: 1500000 1.4956 4.2221 3.4755 0.0000 -10681.0779 1338.3170 0.0000 0.0000 1794.4951 -7539.0725 303.8462 -9333.5676 -7538.0518 302.2595 -777.5606 -661.0517 30280.9909 93.9741 162.8863
TCL: Running FEP window   6: Lambda1 0.25   Lambda2 0.3    [dLambda 0.04999999999999999]
TCL: Setting parameter firsttimestep to 0
TCL: Setting parameter alchLambda to 0.25
Info: NONBONDED TABLE R-SQUARED SPACING: 0.0625
Info: NONBONDED TABLE SIZE: 705 POINTS
TCL: Setting parameter alchLambda2 to 0.3
Info: NONBONDED TABLE R-SQUARED SPACING: 0.0625
Info: NONBONDED TABLE SIZE: 705 POINTS
TCL: Running for 1500000 steps
ETITLE: TS BOND ANGLE DIHED IMPRP ELECT VDW BOUNDARY MISC KINETIC TOTAL TEMP POTENTIAL TOTALAVG TEMPAVG PRESSURE GPRESSURE VOLUME PRESSAVG GPRESSAVG
ENERGY: 0 1.4956 4.2221 3.4755 0.0000 -10681.0776 1341.4311 0.0000 0.0000 1793.6042 -7536.8491 303.6954 -9330.4533 -7536.8491 303.6954 -742.4361 -644.8605 30280.9909 -742.4361 -644.8605
ENERGY: 300000 3.4030 6.8528 2.4566 0.0000 -10776.6232 1524.1123 0.0000 0.0000 1731.0168 -7508.7818 293.0980 -9239.7985 -7498.3787 301.7406 639.4739 714.0829 30670.5241 144.6020 201.7214
ENERGY: 600000 1.2977 2.3429 3.6004 0.0000 -10850.1351 1483.0266 0.0000 0.0000 1806.6679 -7553.1995 305.9074 -9359.8675 -7491.2693 302.5965 110.9432 149.9641 30492.0222 -4.6633 47.6341
ENERGY: 900000 0.5430 5.5691 3.3463 0.0000 -10862.1772 1482.2426 0.0000 0.0000 1781.3392 -7589.1370 301.6187 -9370.4762 -7498.7075 301.9587 4.7947 83.5572 30477.5526 44.6545 101.6952
ENERGY: 1200000 1.2016 6.4423 2.8357 0.0000 -10874.4402 1518.7477 0.0000 0.0000 1763.9045 -7581.3084 298.6666 -9345.2129 -7505.2047 302.5632 450.6447 566.8348 30186.5395 193.2310 257.0848
ENERGY: 1500000 1.2112 8.2151 3.1562 0.0000 -10819.2368 1505.0678 0.0000 0.0000 1775.7696 -7525.8171 300.6756 -9301.5866 -7511.8087 302.2975 382.6678 493.6626 30248.4328 163.9583 223.4042
TCL: Running FEP window   7: Lambda1 0.3    Lambda2 0.35   [dLambda 0.04999999999999999]
TCL: Setting parameter firsttimestep to 0
TCL: Setting parameter alchLambda to 0.3
Info: NONBONDED TABLE R-SQUARED SPACING: 0.0625
Info: NONBONDED TABLE SIZE: 705 POINTS
TCL: Setting parameter alchLambda2 to 0.35
Info: NONBONDED TABLE R-SQUARED SPACING: 0.0625
Info: NONBONDED TABLE SIZE: 705 POINTS
TCL: Running for 1500000 steps
ETITLE: TS BOND ANGLE DIHED IMPRP ELECT VDW BOUNDARY MISC KINETIC TOTAL TEMP POTENTIAL TOTALAVG TEMPAVG PRESSURE GPRESSURE VOLUME PRESSAVG GPRESSAVG
ENERGY: 0 1.2112 8.2151 3.1562 0.0000 -10819.2374 1505.0013 0.0000 0.0000 1774.9081 -7526.7455 300.5297 -9301.6536 -7526.7455 300.5297 410.2300 498.9816 30248.4328 410.2300 498.9816
ENERGY: 300000 0.6722 6.9380 1.1028 0.0000 -10728.2102 1393.1353 0.0000 0.0000 1745.1846 -7581.1772 295.4969 -9326.3618 -7574.6449 299.3861 -555.6062 -454.5937 30449.5782 150.5067 243.8094
ENERGY: 600000 0.0819 5.2670 3.3912 0.0000 -10825.4581 1412.0653 0.0000 0.0000 1783.3296 -7621.3230 301.9557 -9404.6526 -7566.5869 299.3560 -758.0179 -714.0660 30865.3631 -19.3993 51.1503
ENERGY: 900000 0.3702 5.4108 1.3839 0.0000 -10848.0048 1489.2951 0.0000 0.0000 1750.5681 -7600.9766 296.4085 -9351.5446 -7578.0337 298.0049 456.5001 473.9038 30012.3350 -49.1433 11.4912
ENERGY: 1200000 1.5796 5.4529 1.9465 0.0000 -10693.3322 1417.7731 0.0000 0.0000 1724.6765 -7541.9035 292.0245 -9266.5800 -7571.7032 296.6382 94.5329 93.4346 30059.3277 -38.9951 20.8861
ENERGY: 1500000 1.9895 7.5228 1.4503 0.0000 -10766.1752 1507.9115 0.0000 0.0000 1761.3365 -7485.9646 298.2318 -9247.3011 -7564.7806 297.1095 863.1099 906.1647 30156.3631 13.9063 65.1058
TCL: Running FEP window   8: Lambda1 0.35   Lambda2 0.39999999999999997 [dLambda 0.04999999999999999]
TCL: Setting parameter firsttimestep to 0
TCL: Setting parameter alchLambda to 0.35
Info: NONBONDED TABLE R-SQUARED SPACING: 0.0625
Info: NONBONDED TABLE SIZE: 705 POINTS
TCL: Setting parameter alchLambda2 to 0.39999999999999997
Info: NONBONDED TABLE R-SQUARED SPACING: 0.0625
Info: NONBONDED TABLE SIZE: 705 POINTS
TCL: Running for 1500000 steps
ETITLE: TS BOND ANGLE DIHED IMPRP ELECT VDW BOUNDARY MISC KINETIC TOTAL TEMP POTENTIAL TOTALAVG TEMPAVG PRESSURE GPRESSURE VOLUME PRESSAVG GPRESSAVG
ENERGY: 0 1.9895 7.5228 1.4503 0.0000 -10766.1748 1509.1001 0.0000 0.0000 1760.4512 -7485.6609 298.0819 -9246.1121 -7485.6609 298.0819 823.8097 915.0047 30156.3631 823.8097 915.0047
ENERGY: 300000 1.0385 3.8469 3.7259 0.0000 -10827.8397 1475.7295 0.0000 0.0000 1741.9838 -7601.5152 294.9550 -9343.4990 -7540.5962 297.3449 -57.6765 38.6717 30433.1472 102.1768 168.9219
ENERGY: 600000 0.6728 4.8119 2.1493 0.0000 -10811.7296 1540.2759 0.0000 0.0000 1798.1685 -7465.6513 304.4682 -9263.8197 -7525.0254 298.1275 782.3706 973.2040 30474.2464 187.4484 269.3732
ENERGY: 900000 2.5621 8.8817 2.1790 0.0000 -10575.1898 1352.2512 0.0000 0.0000 1758.7797 -7450.5361 297.7989 -9209.3158 -7538.1682 297.4359 -487.2366 -425.4113 30810.9455 -17.8084 59.5680
ENERGY: 1200000 2.1280 4.5590 1.6920 0.0000 -10584.2380 1296.3193 0.0000 0.0000 1766.5593 -7512.9804 299.1161 -9279.5397 -7535.5550 298.1250 -1391.4672 -1303.6752 31114.1875 -67.5745 17.1678
ENERGY: 1500000 1.6257 5.4524 3.3217 0.0000 -10809.4037 1498.4232 0.0000 0.0000 1789.9732 -7510.6075 303.0806 -9300.5808 -7531.5831 298.8739 34.3647 207.2802 30846.6839 -65.4754 16.6430
TCL: Running FEP window   9: Lambda1 0.39999999999999997 Lambda2 0.44999999999999996 [dLambda 0.04999999999999999]
TCL: Setting parameter firsttimestep to 0
TCL: Setting parameter alchLambda to 0.39999999999999997
Info: NONBONDED TABLE R-SQUARED SPACING: 0.0625
Info: NONBONDED TABLE SIZE: 705 POINTS
TCL: Setting parameter alchLambda2 to 0.44999999999999996
Info: NONBONDED TABLE R-SQUARED SPACING: 0.0625
Info: NONBONDED TABLE SIZE: 705 POINTS
TCL: Running for 1500000 steps
ETITLE: TS BOND ANGLE DIHED IMPRP ELECT VDW BOUNDARY MISC KINETIC TOTAL TEMP POTENTIAL TOTALAVG TEMPAVG PRESSURE GPRESSURE VOLUME PRESSAVG GPRESSAVG
ENERGY: 0 1.6257 5.4524 3.3217 0.0000 -10809.4024 1498.1749 0.0000 0.0000 1789.0439 -7511.7839 302.9232 -9300.8278 -7511.7839 302.9232 113.9149 210.9528 30846.6839 113.9149 210.9528
ENERGY: 300000 0.9802 3.5582 2.1617 0.0000 -10557.8602 1308.5155 0.0000 0.0000 1830.7254 -7411.9192 309.9808 -9242.6447 -7490.7769 303.8262 -1017.1857 -944.7092 30785.1735 -416.6616 -330.6595
ENERGY: 600000 2.8447 6.2148 3.8117 0.0000 -10883.6020 1488.2865 0.0000 0.0000 1791.4065 -7591.0378 303.3233 -9382.4443 -7513.4207 302.6030 191.3201 252.6259 30140.6478 -151.3868 -99.1410
ENERGY: 900000 0.3940 8.0125 2.6252 0.0000 -10662.2735 1361.1290 0.0000 0.0000 1780.7640 -7509.3488 301.5213 -9290.1128 -7524.1629 300.3596 -692.7561 -581.4211 30543.5993 -219.5419 -160.3912
ENERGY: 1200000 1.3700 6.3525 2.6519 0.0000 -10708.8269 1430.5434 0.0000 0.0000 1711.0684 -7556.8407 289.7203 -9267.9091 -7539.0041 298.4863 -43.9084 -53.0773 30706.1343 -218.7807 -168.5615
ENERGY: 1500000 0.6670 3.1648 1.4348 0.0000 -10811.4893 1511.3463 0.0000 0.0000 1791.0989 -7503.7775 303.2712 -9294.8764 -7542.7201 298.6532 640.8442 711.2976 30504.8834 -235.1047 -184.4617
TCL: Running FEP window  10: Lambda1 0.44999999999999996 Lambda2 0.49999999999999994 [dLambda 0.04999999999999999]
TCL: Setting parameter firsttimestep to 0
TCL: Setting parameter alchLambda to 0.44999999999999996
Info: NONBONDED TABLE R-SQUARED SPACING: 0.0625
Info: NONBONDED TABLE SIZE: 705 POINTS
TCL: Setting parameter alchLambda2 to 0.49999999999999994
Info: NONBONDED TABLE R-SQUARED SPACING: 0.0625
Info: NONBONDED TABLE SIZE: 705 POINTS
TCL: Running for 1500000 steps
ETITLE: TS BOND ANGLE DIHED IMPRP ELECT VDW BOUNDARY MISC KINETIC TOTAL TEMP POTENTIAL TOTALAVG TEMPAVG PRESSURE GPRESSURE VOLUME PRESSAVG GPRESSAVG
ENERGY: 0 0.6670 3.1648 1.4348 0.0000 -10811.4905 1511.2872 0.0000 0.0000 1790.2106 -7504.7260 303.1208 -9294.9367 -7504.7260 303.1208 636.4770 717.6336 30504.8834 636.4770 717.6336
ENERGY: 300000 1.2439 3.4338 2.5423 0.0000 -10784.7706 1456.0173 0.0000 0.0000 1746.2945 -7575.2388 295.6849 -9321.5333 -7545.6804 298.8757 -163.9579 -79.9401 30749.4586 -154.2372 -81.2492
ENERGY: 600000 1.0257 7.4174 2.1867 0.0000 -10661.4137 1372.0610 0.0000 0.0000 1759.6681 -7519.0547 297.9493 -9278.7228 -7561.4265 296.1962 -92.9719 -57.8016 30009.2309 -180.9431 -109.9305
ENERGY: 900000 1.5541 3.5644 2.1756 0.0000 -10805.1884 1468.9732 0.0000 0.0000 1747.1703 -7581.7508 295.8331 -9328.9210 -7566.4664 295.7932 286.3599 339.1389 30158.5083 -86.4197 -22.2983
ENERGY: 1200000 1.2347 4.6708 3.2662 0.0000 -10778.5485 1444.9736 0.0000 0.0000 1782.5190 -7541.8843 301.8184 -9324.4033 -7552.4299 297.2017 -244.0949 -204.7617 30755.5624 -93.8177 -35.0976
ENERGY: 1500000 2.3229 7.4961 2.7766 0.0000 -10717.6739 1494.8895 0.0000 0.0000 1793.3291 -7416.8596 303.6488 -9210.1887 -7548.9860 297.4791 368.8662 404.3228 31231.8314 -117.3773 -63.8003
TCL: Running FEP window  11: Lambda1 0.49999999999999994 Lambda2 0.5499999999999999 [dLambda 0.04999999999999999]
TCL: Setting parameter firsttimestep to 0
TCL: Setting parameter alchLambda to 0.49999999999999994
Info: NONBONDED TABLE R-SQUARED SPACING: 0.0625
Info: NONBONDED TABLE SIZE: 705 POINTS
TCL: Setting parameter alchLambda2 to 0.5499999999999999
Info: NONBONDED TABLE R-SQUARED SPACING: 0.0625
Info: NONBONDED TABLE SIZE: 705 POINTS
TCL: Running for 1500000 steps
ETITLE: TS BOND ANGLE DIHED IMPRP ELECT VDW BOUNDARY MISC KINETIC TOTAL TEMP POTENTIAL TOTALAVG TEMPAVG PRESSURE GPRESSURE VOLUME PRESSAVG GPRESSAVG
ENERGY: 0 2.3229 7.4961 2.7766 0.0000 -10717.6742 1494.6197 0.0000 0.0000 1792.4003 -7418.0585 303.4915 -9210.4588 -7418.0585 303.4915 317.2775 407.0282 31231.8314 317.2775 407.0282
ENERGY: 300000 3.6145 6.8279 4.6486 0.0000 -10757.8980 1386.8803 0.0000 0.0000 1750.5776 -7605.3491 296.4101 -9355.9266 -7558.2501 294.7987 -830.1076 -783.9663 30877.6828 -182.5391 -110.7772
ENERGY: 600000 2.7983 4.7342 3.2695 0.0000 -10698.7053 1386.6184 0.0000 0.0000 1810.3840 -7490.9009 306.5366 -9301.2848 -7536.2848 297.7762 -534.0207 -537.8728 30634.2356 -234.2874 -173.5824
ENERGY: 900000 2.2174 6.4209 3.7420 0.0000 -10875.0192 1555.7901 0.0000 0.0000 1725.4667 -7581.3821 292.1583 -9306.8488 -7532.4195 298.2219 586.7740 668.4707 30566.1434 -5.7760 58.2019
ENERGY: 1200000 0.4043 7.6993 1.8574 0.0000 -10927.6305 1563.0534 0.0000 0.0000 1822.6148 -7532.0013 308.6075 -9354.6161 -7541.6071 298.3388 1090.2593 1138.3234 29897.2655 67.5574 130.9422
ENERGY: 1500000 0.4411 7.3978 4.1050 0.0000 -10845.5589 1465.4735 0.0000 0.0000 1738.4362 -7629.7053 294.3543 -9368.1414 -7541.9513 298.6510 -64.7337 -28.5052 30419.4346 45.7618 108.7083
TCL: Running FEP window  12: Lambda1 0.5499999999999999 Lambda2 0.6    [dLambda 0.050000000000000044]
TCL: Setting parameter firsttimestep to 0
TCL: Setting parameter alchLambda to 0.5499999999999999
Info: NONBONDED TABLE R-SQUARED SPACING: 0.0625
Info: NONBONDED TABLE SIZE: 705 POINTS
TCL: Setting parameter alchLambda2 to 0.6
Info: NONBONDED TABLE R-SQUARED SPACING: 0.0625
Info: NONBONDED TABLE SIZE: 705 POINTS
TCL: Running for 1500000 steps
ETITLE: TS BOND ANGLE DIHED IMPRP ELECT VDW BOUNDARY MISC KINETIC TOTAL TEMP POTENTIAL TOTALAVG TEMPAVG PRESSURE GPRESSURE VOLUME PRESSAVG GPRESSAVG
ENERGY: 0 0.4411 7.3978 4.1050 0.0000 -10845.2901 1464.9769 0.0000 0.0000 1737.5571 -7630.8122 294.2054 -9368.3693 -7630.8122 294.2054 -105.9983 -27.5641 30419.4346 -105.9983 -27.5641
ENERGY: 300000 0.9800 3.4836 1.6676 0.0000 -10722.1841 1408.7726 0.0000 0.0000 1742.6718 -7564.6086 295.0714 -9307.2804 -7593.0555 299.3331 -612.4010 -489.1255 31002.8849 -66.7868 -2.1909
ENERGY: 600000 0.6105 3.5157 2.9049 0.0000 -10858.9426 1447.6586 0.0000 0.0000 1798.3511 -7605.9017 304.4991 -9404.2528 -7581.5514 300.9601 -313.8399 -241.8446 30512.7810 -89.7954 -26.0791
ENERGY: 900000 3.5371 5.8885 1.7663 0.0000 -10727.5556 1476.4978 0.0000 0.0000 1763.0743 -7476.7915 298.5260 -9239.8658 -7568.3309 300.9981 318.9890 328.4343 30946.6678 113.7873 169.1116
ENERGY: 1200000 1.9911 5.1320 1.7944 0.0000 -10716.7105 1360.7687 0.0000 0.0000 1766.6131 -7580.4112 299.1252 -9347.0244 -7563.6407 301.0040 -1071.9590 -989.5311 30770.3826 -2.2103 56.5055
ENERGY: 1500000 1.7715 8.4682 2.2375 0.0000 -10778.3142 1481.5682 0.0000 0.0000 1745.4578 -7538.8110 295.5432 -9284.2688 -7555.0426 301.0185 483.3183 535.1683 30214.9482 67.2368 127.2545
TCL: Running FEP window  13: Lambda1 0.6    Lambda2 0.65   [dLambda 0.050000000000000044]
TCL: Setting parameter firsttimestep to 0
TCL: Setting parameter alchLambda to 0.6
Info: NONBONDED TABLE R-SQUARED SPACING: 0.0625
Info: NONBONDED TABLE SIZE: 705 POINTS
TCL: Setting parameter alchLambda2 to 0.65
Info: NONBONDED TABLE R-SQUARED SPACING: 0.0625
Info: NONBONDED TABLE SIZE: 705 POINTS
TCL: Running for 1500000 steps
ETITLE: TS BOND ANGLE DIHED IMPRP ELECT VDW BOUNDARY MISC KINETIC TOTAL TEMP POTENTIAL TOTALAVG TEMPAVG PRESSURE GPRESSURE VOLUME PRESSAVG GPRESSAVG
ENERGY: 0 1.7715 8.4682 2.2375 0.0000 -10778.1786 1482.0896 0.0000 0.0000 1744.5721 -7539.0397 295.3932 -9283.6118 -7539.0397 295.3932 457.8775 549.5385 30214.9482 457.8775 549.5385
ENERGY: 300000 0.5790 5.3483 2.6988 0.0000 -10933.7680 1506.2889 0.0000 0.0000 1819.4860 -7599.3671 308.0777 -9418.8531 -7527.6482 302.9542 194.6561 320.6094 30331.7848 -15.2534 52.2233
ENERGY: 600000 2.0994 4.9318 2.2120 0.0000 -10769.6822 1411.6423 0.0000 0.0000 1759.5885 -7589.2082 297.9358 -9348.7967 -7563.3418 301.3885 -339.4126 -275.0703 30187.5518 -140.0826 -87.9688
ENERGY: 900000 0.5472 10.4511 3.5008 0.0000 -10946.1063 1542.0627 0.0000 0.0000 1765.6305 -7623.9140 298.9588 -9389.5446 -7563.3179 300.6568 725.4629 754.2300 30127.2301 -50.6203 6.5468
ENERGY: 1200000 1.2212 11.1756 2.9931 0.0000 -10737.7497 1374.1702 0.0000 0.0000 1802.8639 -7545.3257 305.2632 -9348.1896 -7555.9994 301.0989 -621.3095 -602.2365 30604.4494 -162.6452 -104.1142
ENERGY: 1500000 1.5603 6.0833 2.5060 0.0000 -10862.0256 1505.4676 0.0000 0.0000 1753.8234 -7592.5851 296.9597 -9346.4085 -7557.2940 300.1057 359.6915 398.1901 30390.4424 -61.7313 -4.7972
TCL: Running FEP window  14: Lambda1 0.65   Lambda2 0.7000000000000001 [dLambda 0.050000000000000044]
TCL: Setting parameter firsttimestep to 0
TCL: Setting parameter alchLambda to 0.65
Info: NONBONDED TABLE R-SQUARED SPACING: 0.0625
Info: NONBONDED TABLE SIZE: 705 POINTS
TCL: Setting parameter alchLambda2 to 0.7000000000000001
Info: NONBONDED TABLE R-SQUARED SPACING: 0.0625
Info: NONBONDED TABLE SIZE: 705 POINTS
TCL: Running for 1500000 steps
ETITLE: TS BOND ANGLE DIHED IMPRP ELECT VDW BOUNDARY MISC KINETIC TOTAL TEMP POTENTIAL TOTALAVG TEMPAVG PRESSURE GPRESSURE VOLUME PRESSAVG GPRESSAVG
ENERGY: 0 1.5603 6.0833 2.5060 0.0000 -10862.2752 1506.0140 0.0000 0.0000 1752.8931 -7593.2186 296.8021 -9346.1117 -7593.2186 296.8021 329.8104 413.1693 30390.4424 329.8104 413.1693
ENERGY: 300000 1.0984 7.2445 2.6847 0.0000 -10735.2362 1419.0693 0.0000 0.0000 1805.2692 -7499.8701 305.6705 -9305.1393 -7543.3137 298.0665 -217.2047 -191.1721 30495.4642 97.2595 154.0710
ENERGY: 600000 0.6269 8.2050 2.1763 0.0000 -10723.5093 1420.6328 0.0000 0.0000 1726.0886 -7565.7798 292.2636 -9291.8684 -7551.9831 297.6273 -139.0265 -8.5693 30436.7450 -93.2133 -23.6994
ENERGY: 900000 1.9094 4.4093 2.2927 0.0000 -10694.2754 1432.7084 0.0000 0.0000 1819.0433 -7433.9125 308.0028 -9252.9558 -7544.2978 298.7588 64.7056 185.4453 30498.1495 -17.6909 55.6714
ENERGY: 1200000 3.3222 6.9507 2.4745 0.0000 -10828.8253 1482.6988 0.0000 0.0000 1778.9842 -7554.3949 301.2199 -9333.3792 -7540.4225 299.5020 232.9639 271.3963 30776.3401 21.3437 91.2762
ENERGY: 1500000 1.7179 3.4808 3.9003 0.0000 -10838.3151 1530.5847 0.0000 0.0000 1806.9762 -7491.6553 305.9596 -9298.6315 -7540.6974 300.0005 856.2130 904.8368 30350.7422 103.1615 175.0401
TCL: Running FEP window  15: Lambda1 0.7000000000000001 Lambda2 0.7500000000000001 [dLambda 0.050000000000000044]
TCL: Setting parameter firsttimestep to 0
TCL: Setting parameter alchLambda to 0.7000000000000001
Info: NONBONDED TABLE R-SQUARED SPACING: 0.0625
Info: NONBONDED TABLE SIZE: 705 POINTS
TCL: Setting parameter alchLambda2 to 0.7500000000000001
Info: NONBONDED TABLE R-SQUARED SPACING: 0.0625
Info: NONBONDED TABLE SIZE: 705 POINTS
TCL: Running for 1500000 steps
ETITLE: TS BOND ANGLE DIHED IMPRP ELECT VDW BOUNDARY MISC KINETIC TOTAL TEMP POTENTIAL TOTALAVG TEMPAVG PRESSURE GPRESSURE VOLUME PRESSAVG GPRESSAVG
ENERGY: 0 1.7179 3.4808 3.9003 0.0000 -10838.6092 1531.5924 0.0000 0.0000 1806.0721 -7491.8457 305.8065 -9297.9179 -7491.8457 305.8065 849.2981 924.5656 30350.7422 849.2981 924.5656
ENERGY: 300000 1.9706 3.7477 2.4551 0.0000 -10738.1117 1428.8206 0.0000 0.0000 1765.5862 -7535.5315 298.9513 -9301.1177 -7524.6164 299.0878 183.0394 233.6778 30192.1365 96.1187 177.1839
ENERGY: 600000 0.8810 4.2624 1.2327 0.0000 -10734.8131 1403.9180 0.0000 0.0000 1765.8154 -7558.7036 298.9902 -9324.5190 -7551.7670 298.2624 -523.3147 -531.2641 30904.4126 -41.5162 32.5290
ENERGY: 900000 0.5650 4.5235 1.7970 0.0000 -10814.5487 1458.2298 0.0000 0.0000 1752.6952 -7596.7382 296.7686 -9349.4334 -7563.0514 297.3822 -53.3399 20.3908 30387.1979 -116.3663 -42.9078
ENERGY: 1200000 1.4641 9.9062 1.4376 0.0000 -10737.7458 1408.0314 0.0000 0.0000 1751.7038 -7565.2027 296.6008 -9316.9064 -7545.4982 298.6372 -300.4523 -234.8759 30470.2013 -107.8361 -40.2550
ENERGY: 1500000 0.9562 3.9841 2.6217 0.0000 -10638.7054 1345.6882 0.0000 0.0000 1760.1919 -7525.2633 298.0380 -9285.4552 -7546.3250 298.5931 -602.9084 -543.1808 30455.7207 -63.9054 2.4811
TCL: Running FEP window  16: Lambda1 0.7500000000000001 Lambda2 0.8000000000000002 [dLambda 0.050000000000000044]
TCL: Setting parameter firsttimestep to 0
TCL: Setting parameter alchLambda to 0.7500000000000001
Info: NONBONDED TABLE R-SQUARED SPACING: 0.0625
Info: NONBONDED TABLE SIZE: 705 POINTS
TCL: Setting parameter alchLambda2 to 0.8000000000000002
Info: NONBONDED TABLE R-SQUARED SPACING: 0.0625
Info: NONBONDED TABLE SIZE: 705 POINTS
TCL: Running for 1500000 steps
ETITLE: TS BOND ANGLE DIHED IMPRP ELECT VDW BOUNDARY MISC KINETIC TOTAL TEMP POTENTIAL TOTALAVG TEMPAVG PRESSURE GPRESSURE VOLUME PRESSAVG GPRESSAVG
ENERGY: 0 0.9562 3.9841 2.6217 0.0000 -10639.1807 1345.3702 0.0000 0.0000 1759.2880 -7526.9605 297.8849 -9286.2485 -7526.9605 297.8849 -622.6274 -541.5397 30455.7207 -622.6274 -541.5397
ENERGY: 300000 0.9658 5.8696 1.5005 0.0000 -10771.5092 1416.1832 0.0000 0.0000 1804.3026 -7542.6875 305.5069 -9346.9901 -7549.4231 302.1074 -144.3881 -116.4097 30776.8214 -173.4890 -126.9293
ENERGY: 600000 4.7355 7.0285 2.0398 0.0000 -10825.6069 1467.6795 0.0000 0.0000 1767.3767 -7576.7470 299.2545 -9344.1236 -7529.9396 302.5569 -30.1015 43.6947 30645.4109 47.3948 106.5052
ENERGY: 900000 1.6804 5.4348 2.6114 0.0000 -10730.0959 1458.3183 0.0000 0.0000 1791.5367 -7470.5144 303.3453 -9262.0511 -7521.7681 301.9087 189.3386 305.8540 30504.7864 100.7634 159.6908
ENERGY: 1200000 0.8896 7.0762 3.4215 0.0000 -10730.4776 1435.0541 0.0000 0.0000 1774.1138 -7509.9223 300.3952 -9284.0361 -7531.2899 301.8346 -211.8792 -107.9972 30958.7807 93.3093 146.6391
ENERGY: 1500000 1.2320 4.3391 3.6279 0.0000 -10633.8535 1377.1608 0.0000 0.0000 1790.6924 -7456.8014 303.2024 -9247.4938 -7532.7231 300.9611 -483.3486 -373.5705 30441.8991 47.7167 98.7729
TCL: Running FEP window  17: Lambda1 0.8000000000000002 Lambda2 0.8500000000000002 [dLambda 0.050000000000000044]
TCL: Setting parameter firsttimestep to 0
TCL: Setting parameter alchLambda to 0.8000000000000002
Info: NONBONDED TABLE R-SQUARED SPACING: 0.0625
Info: NONBONDED TABLE SIZE: 705 POINTS
TCL: Setting parameter alchLambda2 to 0.8500000000000002
Info: NONBONDED TABLE R-SQUARED SPACING: 0.0625
Info: NONBONDED TABLE SIZE: 705 POINTS
TCL: Running for 1500000 steps
ETITLE: TS BOND ANGLE DIHED IMPRP ELECT VDW BOUNDARY MISC KINETIC TOTAL TEMP POTENTIAL TOTALAVG TEMPAVG PRESSURE GPRESSURE VOLUME PRESSAVG GPRESSAVG
ENERGY: 0 1.2320 4.3391 3.6279 0.0000 -10634.9737 1378.1537 0.0000 0.0000 1789.7836 -7457.8375 303.0485 -9247.6210 -7457.8375 303.0485 -434.9360 -355.2600 30441.8991 -434.9360 -355.2600
ENERGY: 300000 3.0486 11.2628 1.3047 0.0000 -10957.7005 1516.1679 0.0000 0.0000 1735.7049 -7690.2117 293.8918 -9425.9166 -7565.3605 298.5577 360.2660 401.4769 30170.7240 -1.4396 62.7949
ENERGY: 600000 1.6894 5.4165 2.5285 0.0000 -10674.5406 1363.4904 0.0000 0.0000 1769.3103 -7532.1055 299.5819 -9301.4158 -7575.2935 297.2430 -728.3738 -696.9111 30560.2703 -216.8228 -171.5401
ENERGY: 900000 2.9575 5.2428 2.1293 0.0000 -10681.9745 1420.4035 0.0000 0.0000 1731.6546 -7519.5868 293.2060 -9251.2413 -7576.1633 296.7725 140.0663 111.2010 30572.8762 -188.5197 -139.5418
ENERGY: 1200000 0.4560 5.7326 2.9247 0.0000 -10752.2270 1440.8880 0.0000 0.0000 1805.9675 -7496.2582 305.7888 -9302.2257 -7570.6897 297.8161 157.4061 149.9315 30409.3252 -88.1266 -38.7409
ENERGY: 1500000 1.8638 6.0219 2.1433 0.0000 -10782.3448 1448.9546 0.0000 0.0000 1800.2011 -7523.1601 304.8124 -9323.3612 -7564.0639 298.4097 -170.7784 -61.8571 30700.1528 -38.5428 15.9189
TCL: Running FEP window  18: Lambda1 0.8500000000000002 Lambda2 0.9000000000000002 [dLambda 0.050000000000000044]
TCL: Setting parameter firsttimestep to 0
TCL: Setting parameter alchLambda to 0.8500000000000002
Info: NONBONDED TABLE R-SQUARED SPACING: 0.0625
Info: NONBONDED TABLE SIZE: 705 POINTS
TCL: Setting parameter alchLambda2 to 0.9000000000000002
Info: NONBONDED TABLE R-SQUARED SPACING: 0.0625
Info: NONBONDED TABLE SIZE: 705 POINTS
TCL: Running for 1500000 steps
ETITLE: TS BOND ANGLE DIHED IMPRP ELECT VDW BOUNDARY MISC KINETIC TOTAL TEMP POTENTIAL TOTALAVG TEMPAVG PRESSURE GPRESSURE VOLUME PRESSAVG GPRESSAVG
ENERGY: 0 1.8638 6.0219 2.1433 0.0000 -10782.9746 1449.5520 0.0000 0.0000 1799.3471 -7524.0465 304.6678 -9323.3936 -7524.0465 304.6678 -134.3955 -43.9934 30700.1528 -134.3955 -43.9934
ENERGY: 300000 0.4041 5.5690 1.1420 0.0000 -10733.1204 1417.3372 0.0000 0.0000 1736.0154 -7572.6527 293.9444 -9308.6681 -7532.6053 299.0143 -270.8517 -236.7427 30717.4835 -45.6863 13.2186
ENERGY: 600000 1.4284 3.1024 1.6200 0.0000 -10799.5696 1450.5123 0.0000 0.0000 1787.7548 -7555.1518 302.7050 -9342.9066 -7548.7337 298.0885 90.1205 194.2229 30503.1029 -102.1588 -41.3860
ENERGY: 900000 1.1301 5.7997 3.7148 0.0000 -10650.5555 1397.4575 0.0000 0.0000 1815.4073 -7427.0461 307.3871 -9242.4534 -7541.9558 299.0864 -182.2717 -129.0469 30572.8851 -99.1686 -35.7602
ENERGY: 1200000 3.7239 6.0183 1.2757 0.0000 -10696.6662 1362.3367 0.0000 0.0000 1746.2120 -7577.0997 295.6709 -9323.3117 -7557.9665 297.8650 -518.8703 -524.8470 30476.1219 -200.0986 -143.4319
ENERGY: 1500000 3.4917 5.4137 2.5121 0.0000 -10683.9109 1393.9261 0.0000 0.0000 1785.2800 -7493.2872 302.2859 -9278.5672 -7555.9810 298.2635 -107.5029 -70.1628 30259.0392 -164.6975 -106.3354
TCL: Running FEP window  19: Lambda1 0.9000000000000002 Lambda2 0.9500000000000003 [dLambda 0.050000000000000044]
TCL: Setting parameter firsttimestep to 0
TCL: Setting parameter alchLambda to 0.9000000000000002
Info: NONBONDED TABLE R-SQUARED SPACING: 0.0625
Info: NONBONDED TABLE SIZE: 705 POINTS
TCL: Setting parameter alchLambda2 to 0.9500000000000003
Info: NONBONDED TABLE R-SQUARED SPACING: 0.0625
Info: NONBONDED TABLE SIZE: 705 POINTS
TCL: Running for 1500000 steps
ETITLE: TS BOND ANGLE DIHED IMPRP ELECT VDW BOUNDARY MISC KINETIC TOTAL TEMP POTENTIAL TOTALAVG TEMPAVG PRESSURE GPRESSURE VOLUME PRESSAVG GPRESSAVG
ENERGY: 0 3.4917 5.4137 2.5121 0.0000 -10684.8611 1394.1508 0.0000 0.0000 1784.3864 -7494.9064 302.1346 -9279.2928 -7494.9064 302.1346 -128.1182 -58.3209 30259.0392 -128.1182 -58.3209
ENERGY: 300000 0.9709 6.6889 1.6001 0.0000 -10747.8064 1423.1387 0.0000 0.0000 1748.3049 -7567.1029 296.0252 -9315.4078 -7520.7416 301.9741 -218.7082 -195.9745 30965.7811 -111.6606 -60.1329
ENERGY: 600000 2.0224 5.1469 3.3247 0.0000 -10886.1398 1507.2730 0.0000 0.0000 1840.8009 -7527.5719 311.6868 -9368.3728 -7532.0360 301.0683 235.3874 344.6772 30627.4606 -112.3054 -73.7004
ENERGY: 900000 1.6659 7.0474 2.3885 0.0000 -10881.9047 1461.4692 0.0000 0.0000 1741.8025 -7667.5312 294.9243 -9409.3336 -7532.6519 300.5881 -210.2951 -177.1001 30624.0153 -113.2304 -69.7469
ENERGY: 1200000 1.8355 5.8036 1.0708 0.0000 -10891.1123 1439.0489 0.0000 0.0000 1802.7995 -7640.5540 305.2523 -9443.3535 -7541.9127 300.5818 -314.7837 -184.0135 30481.9106 -184.2313 -134.4718
ENERGY: 1500000 2.0213 5.9144 2.4538 0.0000 -10755.2575 1450.2281 0.0000 0.0000 1778.2141 -7516.4256 301.0895 -9294.6398 -7544.7482 300.8358 94.1577 156.4578 30650.6663 -190.3288 -137.1931
TCL: Running FEP window  20: Lambda1 0.9500000000000003 Lambda2 1.0    [dLambda 0.04999999999999971]
TCL: Setting parameter firsttimestep to 0
TCL: Setting parameter alchLambda to 0.9500000000000003
Info: NONBONDED TABLE R-SQUARED SPACING: 0.0625
Info: NONBONDED TABLE SIZE: 705 POINTS
TCL: Setting parameter alchLambda2 to 1.0
Info: NONBONDED TABLE R-SQUARED SPACING: 0.0625
Info: NONBONDED TABLE SIZE: 705 POINTS
TCL: Running for 1500000 steps
ETITLE: TS BOND ANGLE DIHED IMPRP ELECT VDW BOUNDARY MISC KINETIC TOTAL TEMP POTENTIAL TOTALAVG TEMPAVG PRESSURE GPRESSURE VOLUME PRESSAVG GPRESSAVG
ENERGY: 0 2.0213 5.9144 2.4538 0.0000 -10756.1534 1450.4019 0.0000 0.0000 1777.2976 -7518.0644 300.9343 -9295.3620 -7518.0644 300.9343 90.5275 163.5672 30650.6663 90.5275 163.5672
ENERGY: 300000 1.9845 2.2402 3.9728 0.0000 -10789.0397 1450.6802 0.0000 0.0000 1749.5984 -7580.5636 296.2443 -9330.1620 -7528.0312 297.3357 -65.3050 21.3303 30720.6321 -172.9415 -100.0955
ENERGY: 600000 2.7803 6.5437 3.7041 0.0000 -10619.1526 1383.8332 0.0000 0.0000 1759.7108 -7462.5805 297.9565 -9222.2913 -7528.4487 298.7444 -278.2179 -222.1432 30890.3091 -226.5295 -155.9963
ENERGY: 900000 4.7191 4.4354 2.1248 0.0000 -10695.4516 1400.4108 0.0000 0.0000 1778.6401 -7505.1214 301.1616 -9283.7615 -7515.9748 299.0504 -332.8162 -244.2607 30576.3312 -169.7046 -102.6216
ENERGY: 1200000 2.9005 5.7548 2.8637 0.0000 -10819.7829 1396.9132 0.0000 0.0000 1771.0819 -7640.2687 299.8819 -9411.3506 -7530.7288 299.9710 -459.4983 -414.3679 30236.9569 -164.9215 -98.8820
ENERGY: 1500000 5.9047 6.5914 1.6853 0.0000 -10797.9400 1460.8890 0.0000 0.0000 1774.0049 -7548.8648 300.3768 -9322.8697 -7541.4896 299.2677 92.0074 163.1696 30393.3956 -121.3052 -58.6655
TCL: Exiting due to exit command.
