Info: SIMULATION PARAMETERS:
Info: TIMESTEP               2
Info: NUMBER OF STEPS        0
Info: STEPS PER CYCLE        10
Info: PERIODIC CELL BASIS 1  31.1769 0 0
Info: PERIODIC CELL BASIS 2  0 29.7422 0
Info: PERIODIC CELL BASIS 3  0 0 33.3506
Info: PERIODIC CELL CENTER   0 0 0
Info: WRAPPING WATERS AROUND PERIODIC BOUNDARIES ON OUTPUT.
Info: WRAPPING ALL CLUSTERS AROUND PERIODIC BOUNDARIES ON OUTPUT.
Info: FIRST LDB TIMESTEP     50
Info: LAST LDB TIMESTEP     -1
Info: HOM BACKGROUND SCALING 1
Info: PME BACKGROUND SCALING 1
Info: MIN ATOMS PER PATCH    40
Info: EMPTY PATCH LOAD       40 ATOMS
Info: VELOCITY FILE          mobley_3266352_equil.vel
Info: CENTER OF MASS MOVING INITIALLY? NO
Info: DIELECTRIC             1
Info: EXCLUDE                SCALED ONE-FOUR
Info: 1-4 ELECTROSTATICS SCALED BY 0.833333
Info: MODIFIED 1-4 VDW PARAMETERS WILL BE USED
Info: DCD FILENAME           mobley_3266352_prod.dcd
Info: DCD FREQUENCY          100000
Info: DCD FIRST STEP         100000
Info: DCD FILE WILL CONTAIN UNIT CELL DATA
Info: XST FILENAME           mobley_3266352_prod.xst
Info: XST FREQUENCY          100000
Info: NO VELOCITY DCD OUTPUT
Info: NO FORCE DCD OUTPUT
Info: OUTPUT FILENAME        mobley_3266352_prod
Info: BINARY OUTPUT FILES WILL BE USED
Info: RESTART FILENAME       mobley_3266352_prod.restart
Info: RESTART FREQUENCY      100000
Info: BINARY RESTART FILES WILL BE USED
Info: CUTOFF                 9
Info: PAIRLIST DISTANCE      11
Info: PAIRLIST SHRINK RATE   0.01
Info: PAIRLIST GROW RATE     0.01
Info: PAIRLIST TRIGGER       0.3
Info: PAIRLISTS PER CYCLE    2
Info: PAIRLISTS ENABLED
Info: MARGIN                 2
Info: HYDROGEN GROUP CUTOFF  2.5
Info: PATCH DIMENSION        15.5
Info: ENERGY OUTPUT STEPS    100000
Info: ENERGY EVALUATION STEPS    100000
Info: OUTPUT ENERGY PRECISION 4
Info: CROSSTERM ENERGY INCLUDED IN DIHEDRAL
Info: TIMING OUTPUT STEPS    1000000
Info: PRESSURE OUTPUT STEPS  100000
Info: ALCHEMICAL FEP ON
Info: FEP CURRENT LAMBDA VALUE     1
Info: FEP COMPARISON LAMBDA VALUE  0.95
Info: FEP INTRA-ALCHEMICAL NON-BONDED INTERACTIONS WILL BE RETAINED
Info: FEP INTRA-ALCHEMICAL BONDED INTERACTIONS WILL BE RETAINED
Info: FEP VDW SHIFTING COEFFICIENT 5
Info: FEP ELEC. ACTIVE FOR ANNIHILATED PARTICLES BETWEEN LAMBDA = 0 AND LAMBDA = 0.5
Info: FEP ELEC. ACTIVE FOR EXNIHILATED PARTICLES BETWEEN LAMBDA = 0.5 AND LAMBDA = 1
Info: FEP VDW ACTIVE FOR ANNIHILATED PARTICLES BETWEEN LAMBDA = 0 AND LAMBDA = 1
Info: FEP VDW ACTIVE FOR EXNIHILATED PARTICLES BETWEEN LAMBDA = 0 AND LAMBDA = 1
Info: FEP BOND ACTIVE FOR ANNIHILATED PARTICLES BETWEEN LAMBDA = 1 AND LAMBDA = 1
Info: FEP BOND ACTIVE FOR EXNIHILATED PARTICLES BETWEEN LAMBDA = 0 AND LAMBDA = 0
Info: LANGEVIN DYNAMICS ACTIVE
Info: LANGEVIN TEMPERATURE   300
Info: LANGEVIN USING BBK INTEGRATOR
Info: LANGEVIN DAMPING COEFFICIENT IS 1 INVERSE PS
Info: LANGEVIN DYNAMICS APPLIED TO HYDROGENS
Info: LANGEVIN PISTON PRESSURE CONTROL ACTIVE
Info:        TARGET PRESSURE IS 1.01325 BAR
Info:     OSCILLATION PERIOD IS 50 FS
Info:             DECAY TIME IS 25 FS
Info:     PISTON TEMPERATURE IS 300 K
Info:       PRESSURE CONTROL IS GROUP-BASED
Info:    INITIAL STRAIN RATE IS 0.000449939 0.000449939 0.000449939
Info:       CELL FLUCTUATION IS ISOTROPIC
Info: PARTICLE MESH EWALD (PME) ACTIVE
Info: PME TOLERANCE               1e-06
Info: PME EWALD COEFFICIENT       0.348832
Info: PME INTERPOLATION ORDER     4
Info: PME GRID DIMENSIONS         32 32 36
Info: PME MAXIMUM GRID SPACING    1
Info: PME CALCULATION WILL BE PERFORMED ON GPU
Info: FULL ELECTROSTATIC EVALUATION FREQUENCY      2
Info: USING VERLET I (r-RESPA) MTS SCHEME.
Info: C1 SPLITTING OF LONG RANGE ELECTROSTATICS
Info: PLACING ATOMS IN PATCHES BY HYDROGEN GROUPS
Info: RIGID BONDS TO HYDROGEN : ALL
Info:         ERROR TOLERANCE : 1e-08
Info:          MAX ITERATIONS : 100
Info: RIGID WATER USING SETTLE ALGORITHM
Info: RANDOM NUMBER SEED     1743885473
Info: USE HYDROGEN BONDS?    NO
Info: Using AMBER format force field!
Info: AMBER PARM FILE        mobley_3266352.prmtop
Info: COORDINATE PDB         mobley_3266352.pdb
Info: Exclusions will be read from PARM file!
Info: SCNB (VDW SCALING)     2
Info: USING ARITHMETIC MEAN TO COMBINE L-J SIGMA PARAMETERS
Info: BINARY COORDINATES     mobley_3266352_equil.coor
Info: SUMMARY OF PARAMETERS:
Info: 9 BONDS
Info: 11 ANGLES
Info:   11 HARMONIC
Info:   0 COSINE-BASED
Info: 7 DIHEDRAL
Info: 0 IMPROPER
Info: 0 CROSSTERM
Info: 0 VDW
Info: 36 VDW_PAIRS
Info: 0 NBTHOLE_PAIRS
Info: To read alchdata from file: mobley_3266352.pdb
Info: To read alchflag data from column: 5
Info: STRUCTURE SUMMARY:
Info: 2981 ATOMS
Info: 2981 BONDS
Info: 39 ANGLES
Info: 62 DIHEDRALS
Info: 0 IMPROPERS
Info: 0 CROSSTERMS
Info: 3066 EXCLUSIONS
Info: 2968 RIGID BONDS
Info: ALCH: 0 ATOMS TO DISAPPEAR IN FINAL STATE
Info: ALCH: 23 ATOMS TO APPEAR IN FINAL STATE
Info: 5975 DEGREES OF FREEDOM
Info: 999 HYDROGEN GROUPS
Info: 4 ATOMS IN LARGEST HYDROGEN GROUP
Info: 999 MIGRATION GROUPS
Info: 4 ATOMS IN LARGEST MIGRATION GROUP
Info: TOTAL MASS = 17953 amu
Info: TOTAL CHARGE = 0.00010002 e
Info: MASS DENSITY = 0.964018 g/cm^3
Info: ATOM DENSITY = 0.0963945 atoms/A^3
Info: ADDED 0 IMPLICIT EXCLUSIONS
Info: NONBONDED TABLE R-SQUARED SPACING: 0.0625
Info: NONBONDED TABLE SIZE: 705 POINTS
Info: REMOVING COM VELOCITY 0.0220572 -0.0667795 0.0361706
Info: Use 3D box decompostion in PME FFT.
Info: Updated CUDA force table with 4096 elements.
Info: Updated CUDA LJ table with 8 x 8 elements.
Info: Found 22 unique exclusion lists needing 64 bytes
TCL: Running for 1500000 steps
ETITLE: TS BOND ANGLE DIHED IMPRP ELECT VDW BOUNDARY MISC KINETIC TOTAL TEMP POTENTIAL TOTALAVG TEMPAVG PRESSURE GPRESSURE VOLUME PRESSAVG GPRESSAVG
ENERGY: 0 8.2311 9.8555 5.6686 0.0000 -10628.2995 1399.1093 0.0000 0.0000 1833.6594 -7371.7755 308.8667 -9205.4350 -7371.7755 308.8667 -493.3813 -410.5492 30925.0145 -493.3813 -410.5492
ENERGY: 300000 6.1951 8.2560 11.5897 0.0000 -10802.8530 1438.3277 0.0000 0.0000 1789.0435 -7549.4410 301.3515 -9338.4845 -7474.8805 304.7188 77.0117 135.9013 30375.3823 -38.6753 19.4902
ENERGY: 600000 5.4306 9.1942 7.6929 0.0000 -10859.4074 1476.8464 0.0000 0.0000 1775.6607 -7584.5827 299.0973 -9360.2434 -7498.6376 302.3201 -63.5993 63.3476 30804.7534 -56.3901 11.6092
ENERGY: 900000 4.5712 9.3613 2.3627 0.0000 -10700.5348 1377.1866 0.0000 0.0000 1763.7676 -7543.2854 297.0940 -9307.0530 -7505.9283 301.2597 -383.3947 -334.0496 30762.0623 -134.1693 -64.8114
ENERGY: 1200000 7.4868 8.4901 6.0805 0.0000 -10648.6519 1397.3538 0.0000 0.0000 1697.9645 -7531.2763 286.0099 -9229.2407 -7506.7132 300.4197 -871.5324 -767.9472 31646.4714 -182.1652 -114.5232
ENERGY: 1500000 4.6933 9.5928 8.8064 0.0000 -10687.1138 1342.7847 0.0000 0.0000 1748.1118 -7573.1248 294.4569 -9321.2366 -7504.5583 300.0395 -907.3115 -849.0958 30859.5011 -232.8089 -172.1405
TCL: Running FEP window   2: Lambda1 0.95   Lambda2 0.8999999999999999 [dLambda -0.050000000000000044]
TCL: Setting parameter firsttimestep to 0
TCL: Setting parameter alchLambda to 0.95
Info: NONBONDED TABLE R-SQUARED SPACING: 0.0625
Info: NONBONDED TABLE SIZE: 705 POINTS
TCL: Setting parameter alchLambda2 to 0.8999999999999999
Info: NONBONDED TABLE R-SQUARED SPACING: 0.0625
Info: NONBONDED TABLE SIZE: 705 POINTS
TCL: Running for 1500000 steps
ETITLE: TS BOND ANGLE DIHED IMPRP ELECT VDW BOUNDARY MISC KINETIC TOTAL TEMP POTENTIAL TOTALAVG TEMPAVG PRESSURE GPRESSURE VOLUME PRESSAVG GPRESSAVG
ENERGY: 0 4.6933 9.5928 8.8064 0.0000 -10685.9550 1342.9815 0.0000 0.0000 1747.2305 -7572.6506 294.3084 -9319.8810 -7572.6506 294.3084 -941.1170 -860.5663 30859.5011 -941.1170 -860.5663
ENERGY: 300000 4.3269 12.1677 3.7892 0.0000 -10690.5448 1438.9076 0.0000 0.0000 1775.0658 -7456.2877 298.9971 -9231.3534 -7498.9784 301.1457 -88.0790 -58.8653 31079.4578 -475.3220 -433.0258
ENERGY: 600000 5.4885 5.3808 6.9218 0.0000 -10592.2492 1351.7223 0.0000 0.0000 1753.0704 -7469.6654 295.2921 -9222.7358 -7507.0335 301.2658 -459.9749 -435.0547 30861.8828 -414.6451 -351.0985
ENERGY: 900000 9.5294 12.6611 6.3277 0.0000 -10860.2640 1503.4671 0.0000 0.0000 1791.0885 -7537.1903 301.6960 -9328.2788 -7505.2947 300.9637 240.5282 356.8093 30605.7872 -139.9770 -75.1650
ENERGY: 1200000 3.5180 9.7610 6.4199 0.0000 -10676.3445 1408.7737 0.0000 0.0000 1731.9269 -7515.9449 291.7306 -9247.8718 -7513.8052 298.7533 209.5243 233.2038 30564.1041 -30.3077 21.7766
ENERGY: 1500000 4.6716 8.1407 6.0272 0.0000 -10731.8082 1405.8326 0.0000 0.0000 1776.7123 -7530.4239 299.2744 -9307.1362 -7508.2199 299.1124 -333.4979 -266.2953 30749.6874 -64.5072 -12.4146
TCL: Running FEP window   3: Lambda1 0.8999999999999999 Lambda2 0.8499999999999999 [dLambda -0.050000000000000044]
TCL: Setting parameter firsttimestep to 0
TCL: Setting parameter alchLambda to 0.8999999999999999
Info: NONBONDED TABLE R-SQUARED SPACING: 0.0625
Info: NONBONDED TABLE SIZE: 705 POINTS
TCL: Setting parameter alchLambda2 to 0.8499999999999999
Info: NONBONDED TABLE R-SQUARED SPACING: 0.0625
Info: NONBONDED TABLE SIZE: 705 POINTS
TCL: Running for 1500000 steps
ETITLE: TS BOND ANGLE DIHED IMPRP ELECT VDW BOUNDARY MISC KINETIC TOTAL TEMP POTENTIAL TOTALAVG TEMPAVG PRESSURE GPRESSURE VOLUME PRESSAVG GPRESSAVG
ENERGY: 0 4.6716 8.1406 6.0272 0.0000 -10729.9073 1404.3981 0.0000 0.0000 1775.8548 -7530.8150 299.1300 -9306.6698 -7530.8150 299.1300 -370.3518 -294.0531 30749.6874 -370.3518 -294.0531
ENERGY: 300000 5.9368 11.5673 8.2613 0.0000 -10803.7141 1420.2435 0.0000 0.0000 1748.5689 -7609.1363 294.5339 -9357.7052 -7520.0490 298.3383 -433.6429 -378.5441 30704.0726 -276.5160 -228.6747
ENERGY: 600000 6.0364 6.1807 6.5062 0.0000 -10479.5356 1240.7114 0.0000 0.0000 1814.9599 -7405.1410 305.7169 -9220.1009 -7491.5856 299.9192 -1638.1336 -1573.7793 30942.9820 -445.0778 -396.2871
ENERGY: 900000 6.6106 7.4492 2.5548 0.0000 -10771.0526 1462.4688 0.0000 0.0000 1818.8049 -7473.1644 306.3646 -9291.9692 -7499.6327 299.6409 -88.6853 5.5353 30867.1766 -351.2396 -297.7058
ENERGY: 1200000 4.0866 9.9499 4.7852 0.0000 -10719.9433 1386.1554 0.0000 0.0000 1729.0846 -7585.8815 291.2519 -9314.9661 -7510.8199 298.4557 -631.7379 -609.8722 31054.4697 -320.0881 -259.7836
ENERGY: 1500000 1.6742 10.7864 3.9393 0.0000 -10819.9051 1502.9607 0.0000 0.0000 1762.2265 -7538.3181 296.8344 -9300.5446 -7508.8732 298.6307 313.1061 430.5912 31015.6487 -226.7134 -166.0514
TCL: Running FEP window   4: Lambda1 0.8499999999999999 Lambda2 0.7999999999999998 [dLambda -0.050000000000000044]
TCL: Setting parameter firsttimestep to 0
TCL: Setting parameter alchLambda to 0.8499999999999999
Info: NONBONDED TABLE R-SQUARED SPACING: 0.0625
Info: NONBONDED TABLE SIZE: 705 POINTS
TCL: Setting parameter alchLambda2 to 0.7999999999999998
Info: NONBONDED TABLE R-SQUARED SPACING: 0.0625
Info: NONBONDED TABLE SIZE: 705 POINTS
TCL: Running for 1500000 steps
ETITLE: TS BOND ANGLE DIHED IMPRP ELECT VDW BOUNDARY MISC KINETIC TOTAL TEMP POTENTIAL TOTALAVG TEMPAVG PRESSURE GPRESSURE VOLUME PRESSAVG GPRESSAVG
ENERGY: 0 1.6742 10.7864 3.9393 0.0000 -10818.7864 1503.4531 0.0000 0.0000 1761.3564 -7537.5770 296.6878 -9298.9335 -7537.5770 296.6878 350.8512 424.8313 31015.6487 350.8512 424.8313
ENERGY: 300000 3.8531 5.6160 6.4037 0.0000 -10726.9424 1483.7143 0.0000 0.0000 1802.5369 -7424.8184 303.6244 -9227.3553 -7495.8704 301.6884 764.3255 749.8542 30723.3750 481.7389 541.3873
ENERGY: 600000 4.0411 4.8911 4.3992 0.0000 -10611.1986 1363.1043 0.0000 0.0000 1748.8925 -7485.8704 294.5884 -9234.7629 -7507.1724 300.0835 -314.9263 -264.8881 30556.0587 396.2255 453.6577
ENERGY: 900000 5.5268 14.8562 11.7546 0.0000 -10752.7851 1469.2674 0.0000 0.0000 1772.7921 -7478.5880 298.6141 -9251.3801 -7522.1887 298.8473 631.3024 675.5585 30309.1176 457.2073 508.2520
ENERGY: 1200000 7.5440 8.6481 8.4632 0.0000 -10771.3911 1442.7523 0.0000 0.0000 1789.4703 -7514.5131 301.4234 -9303.9834 -7510.9474 299.7029 -155.6813 -96.2150 30876.6491 307.6547 365.1886
ENERGY: 1500000 2.7568 10.9611 7.9556 0.0000 -10739.5743 1442.2560 0.0000 0.0000 1795.7121 -7479.9326 302.4748 -9275.6447 -7496.6982 300.4122 15.6362 87.5050 30823.4118 231.8982 284.5111
TCL: Running FEP window   5: Lambda1 0.7999999999999998 Lambda2 0.7499999999999998 [dLambda -0.050000000000000044]
TCL: Setting parameter firsttimestep to 0
TCL: Setting parameter alchLambda to 0.7999999999999998
Info: NONBONDED TABLE R-SQUARED SPACING: 0.0625
Info: NONBONDED TABLE SIZE: 705 POINTS
TCL: Setting parameter alchLambda2 to 0.7499999999999998
Info: NONBONDED TABLE R-SQUARED SPACING: 0.0625
Info: NONBONDED TABLE SIZE: 705 POINTS
TCL: Running for 1500000 steps
ETITLE: TS BOND ANGLE DIHED IMPRP ELECT VDW BOUNDARY MISC KINETIC TOTAL TEMP POTENTIAL TOTALAVG TEMPAVG PRESSURE GPRESSURE VOLUME PRESSAVG GPRESSAVG
ENERGY: 0 2.7568 10.9611 7.9556 0.0000 -10737.7038 1441.6568 0.0000 0.0000 1794.7905 -7479.5829 302.3196 -9274.3735 -7479.5829 302.3196 -27.4986 67.2638 30823.4118 -27.4986 67.2638
ENERGY: 300000 3.9537 7.0735 4.9448 0.0000 -10855.0842 1467.2076 0.0000 0.0000 1809.0664 -7562.8382 304.7242 -9371.9046 -7527.3611 300.7079 165.2385 207.9220 30296.4329 164.4912 210.7097
ENERGY: 600000 3.2912 6.1384 5.9636 0.0000 -10709.0872 1385.4099 0.0000 0.0000 1788.8762 -7519.4080 301.3233 -9308.2841 -7511.8807 300.5144 -783.2089 -669.3068 30881.0762 -196.6309 -137.8352
ENERGY: 900000 1.7328 8.4176 6.9132 0.0000 -10739.3534 1448.3102 0.0000 0.0000 1722.3140 -7551.6657 290.1114 -9273.9796 -7513.7961 298.8114 168.0630 210.2544 30433.7680 -146.3508 -81.6994
ENERGY: 1200000 4.2087 8.9632 6.8094 0.0000 -10751.3736 1432.5288 0.0000 0.0000 1803.5990 -7495.2645 303.8033 -9298.8635 -7510.7803 299.8142 -439.3000 -389.9992 31049.4070 -231.6590 -172.1664
ENERGY: 1500000 5.4378 11.0942 11.9034 0.0000 -10764.7027 1481.5159 0.0000 0.0000 1767.1126 -7487.6389 297.6574 -9254.7515 -7508.0445 299.9242 437.3664 446.5202 30620.9204 -126.7601 -68.8469
TCL: Running FEP window   6: Lambda1 0.7499999999999998 Lambda2 0.6999999999999997 [dLambda -0.050000000000000044]
TCL: Setting parameter firsttimestep to 0
TCL: Setting parameter alchLambda to 0.7499999999999998
Info: NONBONDED TABLE R-SQUARED SPACING: 0.0625
Info: NONBONDED TABLE SIZE: 705 POINTS
TCL: Setting parameter alchLambda2 to 0.6999999999999997
Info: NONBONDED TABLE R-SQUARED SPACING: 0.0625
Info: NONBONDED TABLE SIZE: 705 POINTS
TCL: Running for 1500000 steps
ETITLE: TS BOND ANGLE DIHED IMPRP ELECT VDW BOUNDARY MISC KINETIC TOTAL TEMP POTENTIAL TOTALAVG TEMPAVG PRESSURE GPRESSURE VOLUME PRESSAVG GPRESSAVG
ENERGY: 0 5.4378 11.0942 11.9034 0.0000 -10763.7600 1481.5929 0.0000 0.0000 1766.2623 -7487.4694 297.5142 -9253.7317 -7487.4694 297.5142 371.9259 438.1326 30620.9204 371.9259 438.1326
ENERGY: 300000 6.9445 13.6455 12.6871 0.0000 -10952.2383 1539.9816 0.0000 0.0000 1767.6499 -7611.3296 297.7479 -9378.9796 -7530.9064 300.2886 791.4152 879.5997 30121.6324 230.2030 301.5593
ENERGY: 600000 7.1068 9.6605 6.8259 0.0000 -10700.5925 1420.2504 0.0000 0.0000 1828.8374 -7427.9116 308.0545 -9256.7489 -7521.5042 300.5307 -224.7425 -163.2368 30913.1950 151.5069 217.4887
ENERGY: 900000 3.6527 8.0414 9.2072 0.0000 -10656.0014 1414.8951 0.0000 0.0000 1728.3012 -7491.9039 291.1199 -9220.2050 -7510.9010 299.2361 -237.4901 -220.1781 31072.2946 68.6811 131.0737
ENERGY: 1200000 3.6258 7.0114 13.2400 0.0000 -10618.7463 1391.5323 0.0000 0.0000 1775.2723 -7428.0645 299.0318 -9203.3368 -7502.2313 299.8164 -281.1847 -224.9853 30923.1147 37.9707 102.4819
ENERGY: 1500000 2.0305 8.0135 5.4247 0.0000 -10800.3038 1445.9451 0.0000 0.0000 1756.8802 -7582.0098 295.9338 -9338.8899 -7506.5069 299.5002 -186.5091 -106.2821 30745.9034 78.4135 146.4108
TCL: Running FEP window   7: Lambda1 0.6999999999999997 Lambda2 0.6499999999999997 [dLambda -0.050000000000000044]
TCL: Setting parameter firsttimestep to 0
TCL: Setting parameter alchLambda to 0.6999999999999997
Info: NONBONDED TABLE R-SQUARED SPACING: 0.0625
Info: NONBONDED TABLE SIZE: 705 POINTS
TCL: Setting parameter alchLambda2 to 0.6499999999999997
Info: NONBONDED TABLE R-SQUARED SPACING: 0.0625
Info: NONBONDED TABLE SIZE: 705 POINTS
TCL: Running for 1500000 steps
ETITLE: TS BOND ANGLE DIHED IMPRP ELECT VDW BOUNDARY MISC KINETIC TOTAL TEMP POTENTIAL TOTALAVG TEMPAVG PRESSURE GPRESSURE VOLUME PRESSAVG GPRESSAVG
ENERGY: 0 2.0305 8.0135 5.4247 0.0000 -10799.1972 1446.5440 0.0000 0.0000 1756.0006 -7581.1838 295.7857 -9337.1844 -7581.1838 295.7857 -188.9355 -108.1993 30745.9034 -188.9355 -108.1993
ENERGY: 300000 2.4029 9.2162 10.2672 0.0000 -10796.7093 1502.0104 0.0000 0.0000 1812.9114 -7459.9013 305.3719 -9272.8126 -7502.5438 299.1672 565.8175 638.4215 30500.8711 411.4528 484.2089
ENERGY: 600000 7.3668 11.8554 4.6867 0.0000 -10694.5381 1415.3572 0.0000 0.0000 1759.3985 -7495.8736 296.3580 -9255.2720 -7501.1853 299.2097 -98.0561 -128.1402 30228.1136 279.1635 338.9471
ENERGY: 900000 5.7371 10.4686 10.7616 0.0000 -10744.2111 1496.8650 0.0000 0.0000 1779.5749 -7440.8038 299.7566 -9220.3787 -7500.5228 298.1260 825.8688 861.6133 30387.0568 217.0342 276.6112
ENERGY: 1200000 2.2072 6.5417 12.5355 0.0000 -10881.7669 1504.3286 0.0000 0.0000 1846.7434 -7509.4105 311.0707 -9356.1539 -7490.7439 299.9798 665.5392 682.4711 30171.9332 229.6359 290.2186
ENERGY: 1500000 4.4365 10.0471 6.2808 0.0000 -10870.9621 1588.6718 0.0000 0.0000 1793.9368 -7467.5891 302.1758 -9261.5259 -7487.4874 300.5720 1312.6401 1348.9736 30462.7276 250.1978 312.5167
TCL: Running FEP window   8: Lambda1 0.6499999999999997 Lambda2 0.5999999999999996 [dLambda -0.050000000000000044]
TCL: Setting parameter firsttimestep to 0
TCL: Setting parameter alchLambda to 0.6499999999999997
Info: NONBONDED TABLE R-SQUARED SPACING: 0.0625
Info: NONBONDED TABLE SIZE: 705 POINTS
TCL: Setting parameter alchLambda2 to 0.5999999999999996
Info: NONBONDED TABLE R-SQUARED SPACING: 0.0625
Info: NONBONDED TABLE SIZE: 705 POINTS
TCL: Running for 1500000 steps
ETITLE: TS BOND ANGLE DIHED IMPRP ELECT VDW BOUNDARY MISC KINETIC TOTAL TEMP POTENTIAL TOTALAVG TEMPAVG PRESSURE GPRESSURE VOLUME PRESSAVG GPRESSAVG
ENERGY: 0 4.4365 10.0471 6.2808 0.0000 -10869.7838 1588.8380 0.0000 0.0000 1793.0608 -7467.1207 302.0282 -9260.1815 -7467.1207 302.0282 1248.1741 1342.7998 30462.7276 1248.1741 1342.7998
ENERGY: 300000 2.1339 7.6489 6.7490 0.0000 -10739.8702 1415.4046 0.0000 0.0000 1756.1003 -7551.8335 295.8025 -9307.9338 -7483.6757 298.9259 -399.4678 -333.8152 30943.3301 -29.2494 62.0527
ENERGY: 600000 2.8896 11.0790 8.2724 0.0000 -10704.3586 1411.0849 0.0000 0.0000 1805.2103 -7465.8224 304.0747 -9271.0327 -7480.0205 300.5877 -321.4193 -244.5960 30913.2430 -153.9339 -79.4742
ENERGY: 900000 5.5213 10.2315 7.2522 0.0000 -10719.2250 1455.7885 0.0000 0.0000 1787.3797 -7453.0520 301.0713 -9240.4317 -7485.7556 299.7124 -2.6999 2.9592 31119.3921 -83.4857 -24.0778
ENERGY: 1200000 5.9141 11.2828 11.1455 0.0000 -10865.5234 1469.3820 0.0000 0.0000 1766.5701 -7601.2289 297.5660 -9367.7991 -7503.7973 298.5311 -263.3089 -138.8318 30797.5588 -24.7875 41.1121
ENERGY: 1500000 5.0585 8.9692 5.5587 0.0000 -10659.8992 1420.0342 0.0000 0.0000 1773.2660 -7447.0125 298.6939 -9220.2785 -7495.7637 298.8211 40.9396 117.0087 30486.2980 -50.6610 9.5555
TCL: Running FEP window   9: Lambda1 0.5999999999999996 Lambda2 0.5499999999999996 [dLambda -0.050000000000000044]
TCL: Setting parameter firsttimestep to 0
TCL: Setting parameter alchLambda to 0.5999999999999996
Info: NONBONDED TABLE R-SQUARED SPACING: 0.0625
Info: NONBONDED TABLE SIZE: 705 POINTS
TCL: Setting parameter alchLambda2 to 0.5499999999999996
Info: NONBONDED TABLE R-SQUARED SPACING: 0.0625
Info: NONBONDED TABLE SIZE: 705 POINTS
TCL: Running for 1500000 steps
ETITLE: TS BOND ANGLE DIHED IMPRP ELECT VDW BOUNDARY MISC KINETIC TOTAL TEMP POTENTIAL TOTALAVG TEMPAVG PRESSURE GPRESSURE VOLUME PRESSAVG GPRESSAVG
ENERGY: 0 5.0585 8.9692 5.5587 0.0000 -10659.1268 1420.7133 0.0000 0.0000 1772.3765 -7446.4507 298.5441 -9218.8271 -7446.4507 298.5441 14.2670 115.8354 30486.2980 14.2670 115.8354
ENERGY: 300000 4.7988 8.7857 10.2046 0.0000 -10797.5381 1480.8654 0.0000 0.0000 1748.2173 -7544.6663 294.4746 -9292.8836 -7530.0829 299.0047 171.8391 199.6626 31082.2649 82.2246 148.8443
ENERGY: 600000 3.9884 9.7118 9.9785 0.0000 -10629.5089 1328.6570 0.0000 0.0000 1747.1454 -7530.0277 294.2941 -9277.1731 -7529.8538 298.4285 -1132.8324 -1060.6622 30719.9193 -88.1289 -27.1983
ENERGY: 900000 5.4727 8.8318 7.9943 0.0000 -10782.0688 1414.4172 0.0000 0.0000 1783.0373 -7562.3156 300.3398 -9345.3529 -7523.6822 300.0169 -376.5569 -359.6398 30681.8166 -148.5295 -87.7447
ENERGY: 1200000 7.4529 11.3549 9.4222 0.0000 -10840.2618 1496.8224 0.0000 0.0000 1707.2233 -7607.9861 287.5695 -9315.2094 -7515.0282 299.6609 131.9570 187.4385 30392.1652 -67.7579 -15.9756
ENERGY: 1500000 3.5501 8.3296 8.0448 0.0000 -10739.1098 1370.9600 0.0000 0.0000 1702.8403 -7645.3850 286.8312 -9348.2252 -7519.5319 299.4885 -720.5147 -696.6414 30402.1916 -48.2632 4.4465
TCL: Running FEP window  10: Lambda1 0.5499999999999996 Lambda2 0.4999999999999996 [dLambda -0.04999999999999999]
TCL: Setting parameter firsttimestep to 0
TCL: Setting parameter alchLambda to 0.5499999999999996
Info: NONBONDED TABLE R-SQUARED SPACING: 0.0625
Info: NONBONDED TABLE SIZE: 705 POINTS
TCL: Setting parameter alchLambda2 to 0.4999999999999996
Info: NONBONDED TABLE R-SQUARED SPACING: 0.0625
Info: NONBONDED TABLE SIZE: 705 POINTS
TCL: Running for 1500000 steps
ETITLE: TS BOND ANGLE DIHED IMPRP ELECT VDW BOUNDARY MISC KINETIC TOTAL TEMP POTENTIAL TOTALAVG TEMPAVG PRESSURE GPRESSURE VOLUME PRESSAVG GPRESSAVG
ENERGY: 0 3.5501 8.3296 8.0448 0.0000 -10738.5594 1371.4093 0.0000 0.0000 1701.9269 -7645.2987 286.6774 -9347.2256 -7645.2987 286.6774 -787.3150 -700.8513 30402.1916 -787.3150 -700.8513
ENERGY: 300000 5.8678 12.0668 6.1147 0.0000 -10896.1838 1523.3709 0.0000 0.0000 1797.1965 -7551.5671 302.7248 -9348.7636 -7525.5561 301.0240 450.4198 463.4824 30660.0800 -92.5007 -32.0315
ENERGY: 600000 4.6503 8.2359 7.5669 0.0000 -10837.3114 1491.9927 0.0000 0.0000 1753.6067 -7571.2589 295.3824 -9324.8655 -7515.3146 301.2841 264.4515 320.9065 30333.9513 85.4736 154.1531
ENERGY: 900000 4.3594 9.6853 7.2882 0.0000 -10664.2299 1384.7608 0.0000 0.0000 1763.8726 -7494.2636 297.1117 -9258.1362 -7522.0775 299.9406 -812.8687 -715.5699 31243.4333 -78.4376 -17.1866
ENERGY: 1200000 4.5977 9.9336 7.0085 0.0000 -10635.1783 1398.7799 0.0000 0.0000 1773.8378 -7441.0208 298.7902 -9214.8586 -7502.8180 301.0255 -291.9572 -251.1203 30740.2206 -84.4539 -27.9754
ENERGY: 1500000 3.9563 11.3526 6.6574 0.0000 -10618.2726 1384.1026 0.0000 0.0000 1816.4684 -7395.7353 305.9710 -9212.2037 -7484.4367 300.7445 -207.8833 -172.8014 30696.8644 -113.3345 -52.7572
TCL: Running FEP window  11: Lambda1 0.4999999999999996 Lambda2 0.4499999999999996 [dLambda -0.04999999999999999]
TCL: Setting parameter firsttimestep to 0
TCL: Setting parameter alchLambda to 0.4999999999999996
Info: NONBONDED TABLE R-SQUARED SPACING: 0.0625
Info: NONBONDED TABLE SIZE: 705 POINTS
TCL: Setting parameter alchLambda2 to 0.4499999999999996
Info: NONBONDED TABLE R-SQUARED SPACING: 0.0625
Info: NONBONDED TABLE SIZE: 705 POINTS
TCL: Running for 1500000 steps
ETITLE: TS BOND ANGLE DIHED IMPRP ELECT VDW BOUNDARY MISC KINETIC TOTAL TEMP POTENTIAL TOTALAVG TEMPAVG PRESSURE GPRESSURE VOLUME PRESSAVG GPRESSAVG
ENERGY: 0 3.9563 11.3526 6.6574 0.0000 -10618.3342 1384.8627 0.0000 0.0000 1815.5962 -7395.9089 305.8241 -9211.5051 -7395.9089 305.8241 -249.1011 -174.8066 30696.8644 -249.1011 -174.8066
ENERGY: 300000 3.8483 10.0686 9.3868 0.0000 -10743.8426 1421.4964 0.0000 0.0000 1780.2637 -7518.7787 299.8726 -9299.0424 -7458.2170 300.2049 -270.9614 -200.8283 30855.5822 -174.9137 -99.6299
ENERGY: 600000 4.5199 10.9602 8.5256 0.0000 -10725.9852 1444.2293 0.0000 0.0000 1772.8841 -7484.8661 298.6296 -9257.7501 -7452.7816 301.2496 -14.9332 -38.1285 31026.3866 -81.7422 -27.5918
ENERGY: 900000 2.9593 10.3374 9.4183 0.0000 -10791.2585 1452.8139 0.0000 0.0000 1778.4218 -7537.3079 299.5624 -9315.7296 -7463.3195 301.1845 -163.1516 -60.8993 30762.8395 -33.3523 20.4559
ENERGY: 1200000 3.9331 16.4932 5.5365 0.0000 -10764.8584 1445.3508 0.0000 0.0000 1764.6789 -7528.8658 297.2475 -9293.5448 -7470.5540 300.5734 -240.8548 -213.8131 30656.0685 -1.6467 46.2622
ENERGY: 1500000 2.7143 11.2184 12.8376 0.0000 -10694.0201 1388.9132 0.0000 0.0000 1820.7216 -7457.6151 306.6875 -9278.3367 -7472.3635 300.7618 -484.8613 -435.9370 30917.8984 -14.0184 37.9005
TCL: Running FEP window  12: Lambda1 0.4499999999999996 Lambda2 0.39999999999999963 [dLambda -0.04999999999999999]
TCL: Setting parameter firsttimestep to 0
TCL: Setting parameter alchLambda to 0.4499999999999996
Info: NONBONDED TABLE R-SQUARED SPACING: 0.0625
Info: NONBONDED TABLE SIZE: 705 POINTS
TCL: Setting parameter alchLambda2 to 0.39999999999999963
Info: NONBONDED TABLE R-SQUARED SPACING: 0.0625
Info: NONBONDED TABLE SIZE: 705 POINTS
TCL: Running for 1500000 steps
ETITLE: TS BOND ANGLE DIHED IMPRP ELECT VDW BOUNDARY MISC KINETIC TOTAL TEMP POTENTIAL TOTALAVG TEMPAVG PRESSURE GPRESSURE VOLUME PRESSAVG GPRESSAVG
ENERGY: 0 2.7143 11.2184 12.8376 0.0000 -10694.0206 1389.5223 0.0000 0.0000 1819.8187 -7457.9093 306.5354 -9277.7280 -7457.9093 306.5354 -530.7385 -441.2042 30917.8984 -530.7385 -441.2042
ENERGY: 300000 6.7277 12.4678 6.4059 0.0000 -10781.8388 1398.0260 0.0000 0.0000 1771.3327 -7586.8787 298.3683 -9358.2114 -7497.4589 303.1833 -691.4597 -641.7660 30455.6216 -366.6448 -298.5637
ENERGY: 600000 3.8398 7.4477 9.6670 0.0000 -10770.7589 1480.2884 0.0000 0.0000 1827.4577 -7442.0584 307.8221 -9269.5161 -7465.3944 303.5707 292.4187 341.1594 30686.9497 -379.3309 -316.8471
ENERGY: 900000 5.9717 9.0551 12.6344 0.0000 -10892.8834 1533.6391 0.0000 0.0000 1715.0775 -7616.5056 288.8925 -9331.5831 -7487.7399 300.1972 617.1729 636.2863 30322.3798 -116.4802 -68.5589
ENERGY: 1200000 3.3100 8.0873 4.8429 0.0000 -10800.4003 1470.9851 0.0000 0.0000 1754.6006 -7558.5744 295.5498 -9313.1750 -7496.3738 299.6297 55.7640 81.5543 30794.9748 -144.6380 -101.2327
ENERGY: 1500000 5.7360 7.5634 6.5122 0.0000 -10781.3979 1513.3490 0.0000 0.0000 1778.8792 -7469.3580 299.6394 -9248.2372 -7493.1387 300.1684 479.6337 497.1718 30416.4838 -69.3965 -26.6761
TCL: Running FEP window  13: Lambda1 0.39999999999999963 Lambda2 0.34999999999999964 [dLambda -0.04999999999999999]
TCL: Setting parameter firsttimestep to 0
TCL: Setting parameter alchLambda to 0.39999999999999963
Info: NONBONDED TABLE R-SQUARED SPACING: 0.0625
Info: NONBONDED TABLE SIZE: 705 POINTS
TCL: Setting parameter alchLambda2 to 0.34999999999999964
Info: NONBONDED TABLE R-SQUARED SPACING: 0.0625
Info: NONBONDED TABLE SIZE: 705 POINTS
TCL: Running for 1500000 steps
ETITLE: TS BOND ANGLE DIHED IMPRP ELECT VDW BOUNDARY MISC KINETIC TOTAL TEMP POTENTIAL TOTALAVG TEMPAVG PRESSURE GPRESSURE VOLUME PRESSAVG GPRESSAVG
ENERGY: 0 5.7360 7.5634 6.5122 0.0000 -10781.3967 1513.4706 0.0000 0.0000 1777.9783 -7470.1361 299.4877 -9248.1144 -7470.1361 299.4877 426.9681 490.7251 30416.4838 426.9681 490.7251
ENERGY: 300000 5.6320 10.0610 4.2874 0.0000 -10742.4915 1463.7571 0.0000 0.0000 1772.4748 -7486.2792 298.5606 -9258.7540 -7489.9103 300.7966 -53.4652 42.2578 30741.7611 -127.6835 -64.7751
ENERGY: 600000 6.5949 9.0486 9.9618 0.0000 -10679.8671 1382.6039 0.0000 0.0000 1837.6814 -7433.9764 309.5442 -9271.6578 -7486.2977 301.8600 -550.1688 -489.6315 30693.8673 -149.0650 -79.0205
ENERGY: 900000 5.1470 11.7380 9.2747 0.0000 -10702.1741 1376.0509 0.0000 0.0000 1762.7159 -7537.2476 296.9168 -9299.9635 -7486.8847 300.8080 -876.3548 -864.6459 30874.9491 -247.3464 -189.9635
ENERGY: 1200000 2.6703 14.5675 12.4165 0.0000 -10818.8016 1559.3347 0.0000 0.0000 1731.0760 -7498.7365 291.5873 -9229.8125 -7488.7482 300.7393 703.5054 763.0213 30812.4234 -160.4745 -106.9638
ENERGY: 1500000 9.1676 9.7038 10.9844 0.0000 -10946.9607 1556.5618 0.0000 0.0000 1793.7171 -7566.8260 302.1388 -9360.5431 -7495.9060 301.1926 696.2801 701.9062 30201.6924 -119.4973 -69.3753
TCL: Running FEP window  14: Lambda1 0.34999999999999964 Lambda2 0.29999999999999966 [dLambda -0.04999999999999999]
TCL: Setting parameter firsttimestep to 0
TCL: Setting parameter alchLambda to 0.34999999999999964
Info: NONBONDED TABLE R-SQUARED SPACING: 0.0625
Info: NONBONDED TABLE SIZE: 705 POINTS
TCL: Setting parameter alchLambda2 to 0.29999999999999966
Info: NONBONDED TABLE R-SQUARED SPACING: 0.0625
Info: NONBONDED TABLE SIZE: 705 POINTS
TCL: Running for 1500000 steps
ETITLE: TS BOND ANGLE DIHED IMPRP ELECT VDW BOUNDARY MISC KINETIC TOTAL TEMP POTENTIAL TOTALAVG TEMPAVG PRESSURE GPRESSURE VOLUME PRESSAVG GPRESSAVG
ENERGY: 0 9.1676 9.7038 10.9844 0.0000 -10946.9632 1556.9737 0.0000 0.0000 1792.8543 -7567.2794 301.9934 -9360.1337 -7567.2794 301.9934 602.9177 697.3088 30201.6924 602.9177 697.3088
ENERGY: 300000 4.2020 10.0768 8.8740 0.0000 -10763.1355 1486.5740 0.0000 0.0000 1759.9626 -7493.4461 296.4530 -9253.4087 -7484.0831 297.8772 47.3165 130.9053 30832.3787 54.5283 132.5917
ENERGY: 600000 4.9103 7.2219 11.5821 0.0000 -10800.8602 1474.9675 0.0000 0.0000 1804.7225 -7497.4559 303.9925 -9302.1784 -7482.7705 300.0814 397.3749 463.7534 30211.5243 102.7433 181.6493
ENERGY: 900000 3.5336 13.7238 10.3139 0.0000 -10671.8980 1418.3095 0.0000 0.0000 1768.0867 -7457.9305 297.8215 -9226.0172 -7484.0532 299.7599 -334.2449 -247.5594 30881.1719 100.1565 169.3281
ENERGY: 1200000 5.8989 12.3439 7.0374 0.0000 -10708.6270 1477.5559 0.0000 0.0000 1814.8152 -7390.9757 305.6926 -9205.7908 -7475.0192 300.8482 396.1102 493.4598 30321.8555 76.1250 148.6752
ENERGY: 1500000 7.0017 11.5559 10.8069 0.0000 -10816.0738 1478.5715 0.0000 0.0000 1811.0902 -7497.0476 305.0651 -9308.1378 -7484.0772 301.2303 51.8393 109.4382 30490.5649 56.9866 132.3142
TCL: Running FEP window  15: Lambda1 0.29999999999999966 Lambda2 0.24999999999999967 [dLambda -0.04999999999999999]
TCL: Setting parameter firsttimestep to 0
TCL: Setting parameter alchLambda to 0.29999999999999966
Info: NONBONDED TABLE R-SQUARED SPACING: 0.0625
Info: NONBONDED TABLE SIZE: 705 POINTS
TCL: Setting parameter alchLambda2 to 0.24999999999999967
Info: NONBONDED TABLE R-SQUARED SPACING: 0.0625
Info: NONBONDED TABLE SIZE: 705 POINTS
TCL: Running for 1500000 steps
ETITLE: TS BOND ANGLE DIHED IMPRP ELECT VDW BOUNDARY MISC KINETIC TOTAL TEMP POTENTIAL TOTALAVG TEMPAVG PRESSURE GPRESSURE VOLUME PRESSAVG GPRESSAVG
ENERGY: 0 7.0017 11.5559 10.8069 0.0000 -10816.0738 1478.8402 0.0000 0.0000 1810.1981 -7497.6710 304.9148 -9307.8691 -7497.6710 304.9148 20.4466 105.4202 30490.5649 20.4466 105.4202
ENERGY: 300000 3.1254 5.8986 12.8353 0.0000 -10772.5628 1436.1391 0.0000 0.0000 1760.7431 -7553.8212 296.5845 -9314.5644 -7526.5610 299.5580 -87.2307 -75.3940 30211.3139 45.9292 108.8758
ENERGY: 600000 2.8887 5.4229 6.2333 0.0000 -10753.2079 1439.1527 0.0000 0.0000 1794.5578 -7504.9525 302.2804 -9299.5103 -7524.0763 299.5696 365.3207 498.5775 29752.6759 133.0401 201.2815
ENERGY: 900000 3.1929 5.5104 3.6853 0.0000 -10746.4704 1408.0494 0.0000 0.0000 1767.9112 -7558.1212 297.7919 -9326.0323 -7529.3966 298.2816 -716.5612 -688.4114 31063.0600 -32.6343 35.0387
ENERGY: 1200000 1.7235 13.8535 4.3729 0.0000 -10753.7908 1522.2387 0.0000 0.0000 1755.0965 -7456.5056 295.6334 -9211.6022 -7516.7395 299.1710 700.7147 755.3195 30677.3291 -59.4264 8.1266
ENERGY: 1500000 8.9413 11.8928 8.3161 0.0000 -10531.7694 1358.4094 0.0000 0.0000 1748.7426 -7395.4673 294.5631 -9144.2098 -7514.1797 298.4444 -884.3375 -806.6302 31258.9226 -8.9179 58.9301
TCL: Running FEP window  16: Lambda1 0.24999999999999967 Lambda2 0.19999999999999968 [dLambda -0.04999999999999999]
TCL: Setting parameter firsttimestep to 0
TCL: Setting parameter alchLambda to 0.24999999999999967
Info: NONBONDED TABLE R-SQUARED SPACING: 0.0625
Info: NONBONDED TABLE SIZE: 705 POINTS
TCL: Setting parameter alchLambda2 to 0.19999999999999968
Info: NONBONDED TABLE R-SQUARED SPACING: 0.0625
Info: NONBONDED TABLE SIZE: 705 POINTS
TCL: Running for 1500000 steps
ETITLE: TS BOND ANGLE DIHED IMPRP ELECT VDW BOUNDARY MISC KINETIC TOTAL TEMP POTENTIAL TOTALAVG TEMPAVG PRESSURE GPRESSURE VOLUME PRESSAVG GPRESSAVG
ENERGY: 0 8.9412 11.8927 8.3161 0.0000 -10531.7702 1358.9938 0.0000 0.0000 1747.8783 -7395.7481 294.4175 -9143.6264 -7395.7481 294.4175 -885.6205 -806.7282 31258.9226 -885.6205 -806.7282
ENERGY: 300000 5.7014 7.1671 7.3004 0.0000 -10783.0080 1452.7143 0.0000 0.0000 1815.4642 -7494.6606 305.8019 -9310.1248 -7473.3055 300.3018 -271.6420 -150.3958 30864.2548 -340.0633 -262.2407
ENERGY: 600000 6.2249 11.7070 5.4459 0.0000 -10698.2896 1419.9344 0.0000 0.0000 1831.3537 -7423.6238 308.4784 -9254.9775 -7477.9178 300.7010 -528.3626 -464.2650 30970.1455 -238.0635 -173.4565
ENERGY: 900000 6.3953 10.5956 9.2051 0.0000 -10692.8223 1425.5898 0.0000 0.0000 1762.9302 -7478.1063 296.9529 -9241.0366 -7482.3905 299.8396 -459.6817 -381.6914 30636.3337 -148.8884 -94.7285
ENERGY: 1200000 3.1117 9.8302 5.8069 0.0000 -10766.5513 1449.9884 0.0000 0.0000 1746.0310 -7551.7831 294.1064 -9297.8141 -7488.4766 299.6523 -221.9963 -191.5624 30914.4126 -156.7455 -102.6125
ENERGY: 1500000 2.4203 14.1763 8.9464 0.0000 -10675.7872 1433.6639 0.0000 0.0000 1737.3213 -7479.2590 292.6393 -9216.5802 -7487.8460 299.3174 264.5501 302.0364 30172.8620 -134.3564 -78.2757
TCL: Running FEP window  17: Lambda1 0.19999999999999968 Lambda2 0.1499999999999997 [dLambda -0.04999999999999999]
TCL: Setting parameter firsttimestep to 0
TCL: Setting parameter alchLambda to 0.19999999999999968
Info: NONBONDED TABLE R-SQUARED SPACING: 0.0625
Info: NONBONDED TABLE SIZE: 705 POINTS
TCL: Setting parameter alchLambda2 to 0.1499999999999997
Info: NONBONDED TABLE R-SQUARED SPACING: 0.0625
Info: NONBONDED TABLE SIZE: 705 POINTS
TCL: Running for 1500000 steps
ETITLE: TS BOND ANGLE DIHED IMPRP ELECT VDW BOUNDARY MISC KINETIC TOTAL TEMP POTENTIAL TOTALAVG TEMPAVG PRESSURE GPRESSURE VOLUME PRESSAVG GPRESSAVG
ENERGY: 0 2.4203 14.1763 8.9464 0.0000 -10675.7880 1433.6654 0.0000 0.0000 1736.4635 -7480.1161 292.4948 -9216.5795 -7480.1161 292.4948 210.2215 294.3760 30172.8620 210.2215 294.3760
ENERGY: 300000 4.4837 9.6622 5.4793 0.0000 -10568.0066 1333.2954 0.0000 0.0000 1769.2916 -7445.7944 298.0245 -9215.0860 -7498.8786 296.9162 -927.1612 -844.8852 30532.0455 -322.6772 -243.6405
ENERGY: 600000 6.3333 8.8357 4.4317 0.0000 -10671.2738 1367.0874 0.0000 0.0000 1742.3570 -7542.2287 293.4875 -9284.5857 -7477.0558 298.5433 -789.0822 -799.3059 30428.6566 -266.3671 -200.4196
ENERGY: 900000 2.8056 13.2414 8.0878 0.0000 -10678.4231 1421.8710 0.0000 0.0000 1772.4604 -7459.9568 298.5582 -9232.4172 -7455.8704 299.9906 -478.2698 -412.5794 31139.2115 -379.3414 -310.8237
ENERGY: 1200000 3.9722 6.1488 7.6957 0.0000 -10657.3441 1441.9971 0.0000 0.0000 1795.0101 -7402.5203 302.3565 -9197.5304 -7448.0955 300.3404 36.1372 29.9631 31043.2021 -306.3754 -243.0720
ENERGY: 1500000 7.7493 11.2054 6.8311 0.0000 -10934.3345 1587.4306 0.0000 0.0000 1747.3558 -7573.7623 294.3295 -9321.1181 -7465.6326 299.5546 953.0153 954.1616 30189.8766 -205.8133 -140.0983
TCL: Running FEP window  18: Lambda1 0.1499999999999997 Lambda2 0.09999999999999969 [dLambda -0.05 ]
TCL: Setting parameter firsttimestep to 0
TCL: Setting parameter alchLambda to 0.1499999999999997
Info: NONBONDED TABLE R-SQUARED SPACING: 0.0625
Info: NONBONDED TABLE SIZE: 705 POINTS
TCL: Setting parameter alchLambda2 to 0.09999999999999969
Info: NONBONDED TABLE R-SQUARED SPACING: 0.0625
Info: NONBONDED TABLE SIZE: 705 POINTS
TCL: Running for 1500000 steps
ETITLE: TS BOND ANGLE DIHED IMPRP ELECT VDW BOUNDARY MISC KINETIC TOTAL TEMP POTENTIAL TOTALAVG TEMPAVG PRESSURE GPRESSURE VOLUME PRESSAVG GPRESSAVG
ENERGY: 0 7.7493 11.2054 6.8311 0.0000 -10934.3345 1586.2841 0.0000 0.0000 1746.4576 -7575.8070 294.1782 -9322.2646 -7575.8070 294.1782 866.5696 946.3949 30189.8766 866.5696 946.3949
ENERGY: 300000 6.4019 7.2919 6.4036 0.0000 -10825.3126 1531.4098 0.0000 0.0000 1822.0618 -7451.7437 306.9132 -9273.8055 -7537.9783 296.4848 792.3244 797.4905 30195.6877 505.3300 572.0189
ENERGY: 600000 3.4080 7.3257 9.1056 0.0000 -10753.0990 1407.7720 0.0000 0.0000 1766.6324 -7558.8552 297.5765 -9325.4876 -7541.4667 297.8617 -587.9562 -442.2318 30594.9372 201.9158 282.1506
ENERGY: 900000 5.2982 6.7831 8.5150 0.0000 -10611.0558 1358.9596 0.0000 0.0000 1763.2643 -7468.2355 297.0092 -9231.4998 -7527.3013 296.9283 -737.6320 -684.5606 30772.6904 9.1273 91.7047
ENERGY: 1200000 6.6366 7.4766 9.3988 0.0000 -10737.1184 1462.5162 0.0000 0.0000 1739.6355 -7511.4546 293.0291 -9251.0901 -7507.6156 298.0251 -302.7468 -249.4825 30950.8588 23.1849 98.3480
ENERGY: 1500000 4.0283 7.9434 13.0609 0.0000 -10657.3508 1422.5027 0.0000 0.0000 1721.5706 -7488.2448 289.9862 -9209.8154 -7502.6707 298.2948 211.5071 271.2397 30296.7373 132.1355 204.1018
TCL: Running FEP window  19: Lambda1 0.09999999999999969 Lambda2 0.049999999999999684 [dLambda -0.05 ]
TCL: Setting parameter firsttimestep to 0
TCL: Setting parameter alchLambda to 0.09999999999999969
Info: NONBONDED TABLE R-SQUARED SPACING: 0.0625
Info: NONBONDED TABLE SIZE: 705 POINTS
TCL: Setting parameter alchLambda2 to 0.049999999999999684
Info: NONBONDED TABLE R-SQUARED SPACING: 0.0625
Info: NONBONDED TABLE SIZE: 705 POINTS
TCL: Running for 1500000 steps
ETITLE: TS BOND ANGLE DIHED IMPRP ELECT VDW BOUNDARY MISC KINETIC TOTAL TEMP POTENTIAL TOTALAVG TEMPAVG PRESSURE GPRESSURE VOLUME PRESSAVG GPRESSAVG
ENERGY: 0 4.0283 7.9434 13.0609 0.0000 -10657.3509 1421.7087 0.0000 0.0000 1720.6465 -7489.9630 289.8305 -9210.6095 -7489.9630 289.8305 162.2765 264.4733 30296.7373 162.2765 264.4733
ENERGY: 300000 5.3167 12.4422 9.7064 0.0000 -10658.5862 1373.7611 0.0000 0.0000 1786.6115 -7470.7484 300.9419 -9257.3599 -7480.5521 298.3153 -792.1566 -787.6750 30691.3228 -392.1434 -326.4062
ENERGY: 600000 3.8400 11.6275 10.3148 0.0000 -10502.0576 1264.9053 0.0000 0.0000 1747.9987 -7463.3713 294.4378 -9211.3700 -7467.1275 298.1803 -1210.5181 -1157.9577 30543.4373 -334.8618 -265.8724
ENERGY: 900000 3.1234 11.4881 8.9089 0.0000 -10678.6793 1439.2970 0.0000 0.0000 1782.3409 -7433.5211 300.2225 -9215.8620 -7468.7961 299.5523 -77.6381 -49.9593 30873.5696 -188.9218 -126.1001
ENERGY: 1200000 3.4939 9.9149 7.1035 0.0000 -10705.1919 1385.9061 0.0000 0.0000 1823.6056 -7475.1678 307.1732 -9298.7734 -7477.9371 299.0573 -514.8472 -461.5884 30366.7247 -175.0062 -118.6729
ENERGY: 1500000 5.2726 8.7228 7.5498 0.0000 -10712.7376 1504.2941 0.0000 0.0000 1808.9494 -7377.9489 304.7045 -9186.8983 -7459.3017 300.5904 656.5750 770.9242 30300.2104 -69.1402 -3.4659
TCL: Running FEP window  20: Lambda1 0.049999999999999684 Lambda2 0.0    [dLambda -0.049999999999999684]
TCL: Setting parameter firsttimestep to 0
TCL: Setting parameter alchLambda to 0.049999999999999684
Info: NONBONDED TABLE R-SQUARED SPACING: 0.0625
Info: NONBONDED TABLE SIZE: 705 POINTS
TCL: Setting parameter alchLambda2 to 0.0
Info: NONBONDED TABLE R-SQUARED SPACING: 0.0625
Info: NONBONDED TABLE SIZE: 705 POINTS
TCL: Running for 1500000 steps
ETITLE: TS BOND ANGLE DIHED IMPRP ELECT VDW BOUNDARY MISC KINETIC TOTAL TEMP POTENTIAL TOTALAVG TEMPAVG PRESSURE GPRESSURE VOLUME PRESSAVG GPRESSAVG
ENERGY: 0 5.2726 8.7228 7.5498 0.0000 -10712.7372 1504.3371 0.0000 0.0000 1808.0873 -7378.7675 304.5593 -9186.8548 -7378.7675 304.5593 667.0114 767.1852 30300.2104 667.0114 767.1852
ENERGY: 300000 4.9113 11.2808 9.0213 0.0000 -10569.3221 1379.5719 0.0000 0.0000 1801.8217 -7362.7152 303.5039 -9164.5369 -7395.9957 301.4954 -320.2624 -266.8363 30266.6879 -235.6399 -171.2884
ENERGY: 600000 5.2580 7.5987 7.7428 0.0000 -10807.9138 1463.7126 0.0000 0.0000 1729.3587 -7594.2429 291.2980 -9323.6017 -7458.1577 301.1181 -228.8333 -155.9132 30677.3693 -266.0132 -203.9524
ENERGY: 900000 4.0176 9.4927 9.6782 0.0000 -10591.7548 1391.9749 0.0000 0.0000 1852.4663 -7324.1251 312.0346 -9176.5914 -7458.7898 300.7839 -312.7626 -204.8269 30492.4768 -193.3238 -124.7779
ENERGY: 1200000 4.7017 8.6940 8.4526 0.0000 -10500.2240 1310.3491 0.0000 0.0000 1731.4763 -7436.5504 291.6547 -9168.0267 -7466.9558 299.9192 -937.5113 -868.7701 30706.8283 -119.8122 -57.9077
ENERGY: 1500000 3.1368 10.2850 8.1720 0.0000 -10890.6276 1521.4704 0.0000 0.0000 1766.9604 -7580.6030 297.6318 -9347.5634 -7479.4183 298.9876 347.0071 380.0919 30812.4570 -81.0220 -20.8056
TCL: Exiting due to exit command.
