Info: SIMULATION PARAMETERS:
Info: TIMESTEP               2
Info: NUMBER OF STEPS        0
Info: STEPS PER CYCLE        10
Info: PERIODIC CELL BASIS 1  32.1873 0 0
Info: PERIODIC CELL BASIS 2  0 29.9953 0
Info: PERIODIC CELL BASIS 3  0 0 31.423
Info: PERIODIC CELL CENTER   0 0 0
Info: WRAPPING WATERS AROUND PERIODIC BOUNDARIES ON OUTPUT.
Info: WRAPPING ALL CLUSTERS AROUND PERIODIC BOUNDARIES ON OUTPUT.
Info: FIRST LDB TIMESTEP     50
Info: LAST LDB TIMESTEP     -1
Info: HOM BACKGROUND SCALING 1
Info: PME BACKGROUND SCALING 1
Info: MIN ATOMS PER PATCH    40
Info: EMPTY PATCH LOAD       40 ATOMS
Info: VELOCITY FILE          mobley_1199854_equil.vel
Info: CENTER OF MASS MOVING INITIALLY? NO
Info: DIELECTRIC             1
Info: EXCLUDE                SCALED ONE-FOUR
Info: 1-4 ELECTROSTATICS SCALED BY 0.833333
Info: MODIFIED 1-4 VDW PARAMETERS WILL BE USED
Info: DCD FILENAME           mobley_1199854_prod.dcd
Info: DCD FREQUENCY          100000
Info: DCD FIRST STEP         100000
Info: DCD FILE WILL CONTAIN UNIT CELL DATA
Info: XST FILENAME           mobley_1199854_prod.xst
Info: XST FREQUENCY          100000
Info: NO VELOCITY DCD OUTPUT
Info: NO FORCE DCD OUTPUT
Info: OUTPUT FILENAME        mobley_1199854_prod
Info: BINARY OUTPUT FILES WILL BE USED
Info: RESTART FILENAME       mobley_1199854_prod.restart
Info: RESTART FREQUENCY      100000
Info: BINARY RESTART FILES WILL BE USED
Info: CUTOFF                 9
Info: PAIRLIST DISTANCE      11
Info: PAIRLIST SHRINK RATE   0.01
Info: PAIRLIST GROW RATE     0.01
Info: PAIRLIST TRIGGER       0.3
Info: PAIRLISTS PER CYCLE    2
Info: PAIRLISTS ENABLED
Info: MARGIN                 2
Info: HYDROGEN GROUP CUTOFF  2.5
Info: PATCH DIMENSION        15.5
Info: ENERGY OUTPUT STEPS    100000
Info: ENERGY EVALUATION STEPS    100000
Info: OUTPUT ENERGY PRECISION 4
Info: CROSSTERM ENERGY INCLUDED IN DIHEDRAL
Info: TIMING OUTPUT STEPS    1000000
Info: PRESSURE OUTPUT STEPS  100000
Info: ALCHEMICAL FEP ON
Info: FEP CURRENT LAMBDA VALUE     1
Info: FEP COMPARISON LAMBDA VALUE  0.95
Info: FEP INTRA-ALCHEMICAL NON-BONDED INTERACTIONS WILL BE RETAINED
Info: FEP INTRA-ALCHEMICAL BONDED INTERACTIONS WILL BE RETAINED
Info: FEP VDW SHIFTING COEFFICIENT 5
Info: FEP ELEC. ACTIVE FOR ANNIHILATED PARTICLES BETWEEN LAMBDA = 0 AND LAMBDA = 0.5
Info: FEP ELEC. ACTIVE FOR EXNIHILATED PARTICLES BETWEEN LAMBDA = 0.5 AND LAMBDA = 1
Info: FEP VDW ACTIVE FOR ANNIHILATED PARTICLES BETWEEN LAMBDA = 0 AND LAMBDA = 1
Info: FEP VDW ACTIVE FOR EXNIHILATED PARTICLES BETWEEN LAMBDA = 0 AND LAMBDA = 1
Info: FEP BOND ACTIVE FOR ANNIHILATED PARTICLES BETWEEN LAMBDA = 1 AND LAMBDA = 1
Info: FEP BOND ACTIVE FOR EXNIHILATED PARTICLES BETWEEN LAMBDA = 0 AND LAMBDA = 0
Info: LANGEVIN DYNAMICS ACTIVE
Info: LANGEVIN TEMPERATURE   300
Info: LANGEVIN USING BBK INTEGRATOR
Info: LANGEVIN DAMPING COEFFICIENT IS 1 INVERSE PS
Info: LANGEVIN DYNAMICS APPLIED TO HYDROGENS
Info: LANGEVIN PISTON PRESSURE CONTROL ACTIVE
Info:        TARGET PRESSURE IS 1.01325 BAR
Info:     OSCILLATION PERIOD IS 50 FS
Info:             DECAY TIME IS 25 FS
Info:     PISTON TEMPERATURE IS 300 K
Info:       PRESSURE CONTROL IS GROUP-BASED
Info:    INITIAL STRAIN RATE IS -0.000695473 -0.000695473 -0.000695473
Info:       CELL FLUCTUATION IS ISOTROPIC
Info: PARTICLE MESH EWALD (PME) ACTIVE
Info: PME TOLERANCE               1e-06
Info: PME EWALD COEFFICIENT       0.348832
Info: PME INTERPOLATION ORDER     4
Info: PME GRID DIMENSIONS         36 32 32
Info: PME MAXIMUM GRID SPACING    1
Info: PME CALCULATION WILL BE PERFORMED ON GPU
Info: FULL ELECTROSTATIC EVALUATION FREQUENCY      2
Info: USING VERLET I (r-RESPA) MTS SCHEME.
Info: C1 SPLITTING OF LONG RANGE ELECTROSTATICS
Info: PLACING ATOMS IN PATCHES BY HYDROGEN GROUPS
Info: RIGID BONDS TO HYDROGEN : ALL
Info:         ERROR TOLERANCE : 1e-08
Info:          MAX ITERATIONS : 100
Info: RIGID WATER USING SETTLE ALGORITHM
Info: RANDOM NUMBER SEED     1743680801
Info: USE HYDROGEN BONDS?    NO
Info: Using AMBER format force field!
Info: AMBER PARM FILE        mobley_1199854.prmtop
Info: COORDINATE PDB         mobley_1199854.pdb
Info: Exclusions will be read from PARM file!
Info: SCNB (VDW SCALING)     2
Info: USING ARITHMETIC MEAN TO COMBINE L-J SIGMA PARAMETERS
Info: BINARY COORDINATES     mobley_1199854_equil.coor
Info: SUMMARY OF PARAMETERS:
Info: 6 BONDS
Info: 7 ANGLES
Info:   7 HARMONIC
Info:   0 COSINE-BASED
Info: 3 DIHEDRAL
Info: 0 IMPROPER
Info: 0 CROSSTERM
Info: 0 VDW
Info: 21 VDW_PAIRS
Info: 0 NBTHOLE_PAIRS
Info: To read alchdata from file: mobley_1199854.pdb
Info: To read alchflag data from column: 5
Info: STRUCTURE SUMMARY:
Info: 2951 ATOMS
Info: 2950 BONDS
Info: 18 ANGLES
Info: 18 DIHEDRALS
Info: 0 IMPROPERS
Info: 0 CROSSTERMS
Info: 2986 EXCLUSIONS
Info: 2947 RIGID BONDS
Info: ALCH: 0 ATOMS TO DISAPPEAR IN FINAL STATE
Info: ALCH: 11 ATOMS TO APPEAR IN FINAL STATE
Info: 5906 DEGREES OF FREEDOM
Info: 984 HYDROGEN GROUPS
Info: 4 ATOMS IN LARGEST HYDROGEN GROUP
Info: 984 MIGRATION GROUPS
Info: 4 ATOMS IN LARGEST MIGRATION GROUP
Info: TOTAL MASS = 17825.7 amu
Info: TOTAL CHARGE = 2.23517e-08 e
Info: MASS DENSITY = 0.975707 g/cm^3
Info: ATOM DENSITY = 0.0972711 atoms/A^3
Info: ADDED 0 IMPLICIT EXCLUSIONS
Info: NONBONDED TABLE R-SQUARED SPACING: 0.0625
Info: NONBONDED TABLE SIZE: 705 POINTS
Info: REMOVING COM VELOCITY -0.0231612 -0.0550758 0.212299
Info: Use 3D box decompostion in PME FFT.
Info: Updated CUDA force table with 4096 elements.
Info: Updated CUDA LJ table with 6 x 6 elements.
Info: Found 14 unique exclusion lists needing 24 bytes
TCL: Running for 1500000 steps
ETITLE: TS BOND ANGLE DIHED IMPRP ELECT VDW BOUNDARY MISC KINETIC TOTAL TEMP POTENTIAL TOTALAVG TEMPAVG PRESSURE GPRESSURE VOLUME PRESSAVG GPRESSAVG
ENERGY: 0 0.7416 1.4658 0.4103 0.0000 -10599.7402 1350.4690 0.0000 0.0000 1705.0987 -7541.5547 290.5671 -9246.6535 -7541.5547 290.5671 -720.8094 -630.5980 30337.9034 -720.8094 -630.5980
ENERGY: 300000 2.6813 3.9507 0.1724 0.0000 -10839.7031 1534.7394 0.0000 0.0000 1741.9370 -7556.2222 296.8448 -9298.1593 -7552.7735 296.1821 654.2471 703.7734 30416.5296 -138.9083 -83.1352
ENERGY: 600000 2.1456 4.3531 0.8182 0.0000 -10634.2688 1443.1085 0.0000 0.0000 1757.2881 -7426.5554 299.4608 -9183.8435 -7540.2860 297.5424 -24.6611 69.8327 30808.6880 -61.5875 -5.2914
ENERGY: 900000 0.6018 2.7227 0.5387 0.0000 -10746.7926 1428.3304 0.0000 0.0000 1771.1827 -7543.4163 301.8285 -9314.5990 -7515.8742 299.1441 -175.4896 -156.7084 30465.9096 107.6859 156.7761
ENERGY: 1200000 1.3788 7.8910 0.6523 0.0000 -10616.9903 1357.1113 0.0000 0.0000 1809.7733 -7440.1837 308.4048 -9249.9569 -7496.5294 300.4347 -676.1344 -673.9763 30611.1454 32.1568 84.3612
ENERGY: 1500000 0.4305 4.6215 1.6529 0.0000 -10575.5505 1291.3497 0.0000 0.0000 1679.2789 -7598.2171 286.1671 -9277.4960 -7490.5539 300.1451 -1304.6916 -1226.4971 30579.6402 -105.7772 -43.5836
TCL: Running FEP window   2: Lambda1 0.95   Lambda2 0.8999999999999999 [dLambda -0.050000000000000044]
TCL: Setting parameter firsttimestep to 0
TCL: Setting parameter alchLambda to 0.95
Info: NONBONDED TABLE R-SQUARED SPACING: 0.0625
Info: NONBONDED TABLE SIZE: 705 POINTS
TCL: Setting parameter alchLambda2 to 0.8999999999999999
Info: NONBONDED TABLE R-SQUARED SPACING: 0.0625
Info: NONBONDED TABLE SIZE: 705 POINTS
TCL: Running for 1500000 steps
ETITLE: TS BOND ANGLE DIHED IMPRP ELECT VDW BOUNDARY MISC KINETIC TOTAL TEMP POTENTIAL TOTALAVG TEMPAVG PRESSURE GPRESSURE VOLUME PRESSAVG GPRESSAVG
ENERGY: 0 0.4305 4.6215 1.6529 0.0000 -10575.3980 1291.8105 0.0000 0.0000 1678.3942 -7598.4884 286.0164 -9276.8826 -7598.4884 286.0164 -1313.6534 -1229.4163 30579.6402 -1313.6534 -1229.4163
ENERGY: 300000 1.0096 2.3223 1.7926 0.0000 -10506.8608 1346.9259 0.0000 0.0000 1771.3466 -7383.4638 301.8565 -9154.8104 -7473.5141 301.2983 -426.8181 -357.7022 30518.8542 -492.0907 -433.3801
ENERGY: 600000 0.6173 5.1519 0.5267 0.0000 -10628.3753 1397.4836 0.0000 0.0000 1768.1969 -7456.3989 301.3197 -9224.5958 -7507.5478 299.9397 -87.0519 -62.3151 30235.4825 -234.1695 -182.6113
ENERGY: 900000 2.4099 6.9966 1.6156 0.0000 -10809.8394 1455.8676 0.0000 0.0000 1764.3922 -7578.5576 300.6714 -9342.9497 -7507.0920 300.8210 -110.1994 -25.4530 30346.3759 -56.6847 -5.4139
ENERGY: 1200000 2.4563 2.9117 1.7763 0.0000 -10705.5735 1425.9931 0.0000 0.0000 1798.8234 -7473.6126 306.5388 -9272.4360 -7509.9039 301.8531 -214.3713 -204.0078 30371.3885 -109.0891 -59.0451
ENERGY: 1500000 0.4297 4.3605 0.2753 0.0000 -10542.2968 1362.2563 0.0000 0.0000 1725.3303 -7449.6445 294.0148 -9174.9749 -7499.5072 300.3872 -547.5689 -517.3135 30828.1749 -151.0953 -100.6400
TCL: Running FEP window   3: Lambda1 0.8999999999999999 Lambda2 0.8499999999999999 [dLambda -0.050000000000000044]
TCL: Setting parameter firsttimestep to 0
TCL: Setting parameter alchLambda to 0.8999999999999999
Info: NONBONDED TABLE R-SQUARED SPACING: 0.0625
Info: NONBONDED TABLE SIZE: 705 POINTS
TCL: Setting parameter alchLambda2 to 0.8499999999999999
Info: NONBONDED TABLE R-SQUARED SPACING: 0.0625
Info: NONBONDED TABLE SIZE: 705 POINTS
TCL: Running for 1500000 steps
ETITLE: TS BOND ANGLE DIHED IMPRP ELECT VDW BOUNDARY MISC KINETIC TOTAL TEMP POTENTIAL TOTALAVG TEMPAVG PRESSURE GPRESSURE VOLUME PRESSAVG GPRESSAVG
ENERGY: 0 0.4297 4.3605 0.2753 0.0000 -10541.8313 1362.2277 0.0000 0.0000 1724.4673 -7450.0707 293.8677 -9174.5380 -7450.0707 293.8677 -620.2056 -529.2361 30828.1749 -620.2056 -529.2361
ENERGY: 300000 0.5239 6.0719 0.3149 0.0000 -10608.4024 1425.1846 0.0000 0.0000 1774.0332 -7402.2740 302.3143 -9176.3072 -7468.1780 300.2565 287.6222 366.4450 30278.2960 -37.4613 35.3531
ENERGY: 600000 0.8045 5.2974 2.7091 0.0000 -10823.7021 1533.9735 0.0000 0.0000 1776.9906 -7503.9269 302.8183 -9280.9175 -7477.9482 300.1989 678.7262 740.4680 30250.7589 60.6347 122.5690
ENERGY: 900000 0.6940 3.8082 1.4821 0.0000 -10694.1591 1462.6532 0.0000 0.0000 1769.0710 -7456.4506 301.4687 -9225.5217 -7469.8564 300.8756 328.0646 408.8558 30383.2864 12.2476 68.6638
ENERGY: 1200000 0.4482 4.3465 0.2047 0.0000 -10569.2376 1292.4851 0.0000 0.0000 1731.7208 -7540.0324 295.1038 -9271.7531 -7477.9708 300.8704 -1188.9609 -1128.5060 30463.8586 -139.1621 -82.1084
ENERGY: 1500000 1.2429 5.4098 0.2094 0.0000 -10693.4034 1400.8561 0.0000 0.0000 1673.8545 -7611.8308 285.2428 -9285.6852 -7488.3623 299.6846 -504.7715 -463.1668 30444.8530 -142.0031 -84.3718
TCL: Running FEP window   4: Lambda1 0.8499999999999999 Lambda2 0.7999999999999998 [dLambda -0.050000000000000044]
TCL: Setting parameter firsttimestep to 0
TCL: Setting parameter alchLambda to 0.8499999999999999
Info: NONBONDED TABLE R-SQUARED SPACING: 0.0625
Info: NONBONDED TABLE SIZE: 705 POINTS
TCL: Setting parameter alchLambda2 to 0.7999999999999998
Info: NONBONDED TABLE R-SQUARED SPACING: 0.0625
Info: NONBONDED TABLE SIZE: 705 POINTS
TCL: Running for 1500000 steps
ETITLE: TS BOND ANGLE DIHED IMPRP ELECT VDW BOUNDARY MISC KINETIC TOTAL TEMP POTENTIAL TOTALAVG TEMPAVG PRESSURE GPRESSURE VOLUME PRESSAVG GPRESSAVG
ENERGY: 0 1.2429 5.4098 0.2094 0.0000 -10692.9879 1401.4118 0.0000 0.0000 1672.9606 -7611.7534 285.0904 -9284.7140 -7611.7534 285.0904 -556.7221 -462.7897 30444.8530 -556.7221 -462.7897
ENERGY: 300000 0.3964 4.4611 0.8295 0.0000 -10819.5068 1511.7545 0.0000 0.0000 1741.5198 -7560.5455 296.7737 -9302.0653 -7552.1893 295.4076 555.4513 626.3661 29995.6640 227.7897 308.5771
ENERGY: 600000 0.9440 7.1851 0.1965 0.0000 -10728.3378 1361.5052 0.0000 0.0000 1726.7493 -7631.7576 294.2566 -9358.5069 -7551.2678 297.4421 -785.7493 -776.1087 30359.7578 110.4625 176.3358
ENERGY: 900000 0.2047 4.0856 0.4692 0.0000 -10687.8202 1342.5222 0.0000 0.0000 1791.3057 -7549.2327 305.2577 -9340.5385 -7534.8816 298.8960 -610.5456 -554.7515 29850.6994 -9.9965 60.0956
ENERGY: 1200000 0.8570 5.4295 1.7504 0.0000 -10756.8732 1487.7512 0.0000 0.0000 1739.5150 -7521.5700 296.4320 -9261.0850 -7546.6375 297.8551 344.0752 451.1563 30235.6401 14.7278 92.3914
ENERGY: 1500000 0.1755 4.1319 2.3424 0.0000 -10712.6731 1453.2935 0.0000 0.0000 1749.5207 -7503.2090 298.1371 -9252.7298 -7533.0190 298.4987 -49.9685 -8.5468 30880.0590 70.8758 138.7566
TCL: Running FEP window   5: Lambda1 0.7999999999999998 Lambda2 0.7499999999999998 [dLambda -0.050000000000000044]
TCL: Setting parameter firsttimestep to 0
TCL: Setting parameter alchLambda to 0.7999999999999998
Info: NONBONDED TABLE R-SQUARED SPACING: 0.0625
Info: NONBONDED TABLE SIZE: 705 POINTS
TCL: Setting parameter alchLambda2 to 0.7499999999999998
Info: NONBONDED TABLE R-SQUARED SPACING: 0.0625
Info: NONBONDED TABLE SIZE: 705 POINTS
TCL: Running for 1500000 steps
ETITLE: TS BOND ANGLE DIHED IMPRP ELECT VDW BOUNDARY MISC KINETIC TOTAL TEMP POTENTIAL TOTALAVG TEMPAVG PRESSURE GPRESSURE VOLUME PRESSAVG GPRESSAVG
ENERGY: 0 0.1755 4.1319 2.3424 0.0000 -10712.3932 1453.2305 0.0000 0.0000 1748.6304 -7503.8825 297.9854 -9252.5128 -7503.8825 297.9854 -100.5570 -18.7014 30880.0590 -100.5570 -18.7014
ENERGY: 300000 0.0586 2.2272 1.3668 0.0000 -10596.5299 1361.7698 0.0000 0.0000 1743.4620 -7487.6455 297.1046 -9231.1076 -7502.0508 297.1589 -366.4201 -351.9613 30349.9509 134.9243 199.5695
ENERGY: 600000 0.8773 3.6126 0.4632 0.0000 -10646.5778 1410.8314 0.0000 0.0000 1760.6061 -7470.1873 300.0262 -9230.7934 -7499.2262 299.5996 -166.4820 -134.9005 30481.0227 193.3680 252.4401
ENERGY: 900000 0.6723 4.5672 2.0848 0.0000 -10703.0044 1454.0908 0.0000 0.0000 1796.3735 -7445.2157 306.1213 -9241.5892 -7490.3224 300.3935 609.0401 604.2000 29830.4592 229.6466 277.6723
ENERGY: 1200000 1.4383 3.2987 0.7717 0.0000 -10678.0106 1411.8113 0.0000 0.0000 1760.4904 -7500.2001 300.0065 -9260.6905 -7506.1458 299.0278 -18.5757 74.2180 30197.8560 183.1996 238.4232
ENERGY: 1500000 0.3202 6.3298 1.1420 0.0000 -10735.0613 1458.2945 0.0000 0.0000 1707.5158 -7561.4589 290.9790 -9268.9747 -7502.6471 299.6776 198.0021 283.6514 29975.1524 224.8038 277.7290
TCL: Running FEP window   6: Lambda1 0.7499999999999998 Lambda2 0.6999999999999997 [dLambda -0.050000000000000044]
TCL: Setting parameter firsttimestep to 0
TCL: Setting parameter alchLambda to 0.7499999999999998
Info: NONBONDED TABLE R-SQUARED SPACING: 0.0625
Info: NONBONDED TABLE SIZE: 705 POINTS
TCL: Setting parameter alchLambda2 to 0.6999999999999997
Info: NONBONDED TABLE R-SQUARED SPACING: 0.0625
Info: NONBONDED TABLE SIZE: 705 POINTS
TCL: Running for 1500000 steps
ETITLE: TS BOND ANGLE DIHED IMPRP ELECT VDW BOUNDARY MISC KINETIC TOTAL TEMP POTENTIAL TOTALAVG TEMPAVG PRESSURE GPRESSURE VOLUME PRESSAVG GPRESSAVG
ENERGY: 0 0.3202 6.3298 1.1420 0.0000 -10734.8511 1458.4693 0.0000 0.0000 1706.6426 -7561.9472 290.8302 -9268.5898 -7561.9472 290.8302 209.9753 277.0169 29975.1524 209.9753 277.0169
ENERGY: 300000 0.9214 3.4785 0.4010 0.0000 -10633.0586 1373.1773 0.0000 0.0000 1744.2261 -7510.8542 297.2348 -9255.0803 -7508.9872 298.4866 -390.2985 -307.5884 30299.7064 11.3836 103.0445
ENERGY: 600000 0.4459 4.3088 0.8478 0.0000 -10794.3170 1468.4849 0.0000 0.0000 1739.4357 -7580.7939 296.4185 -9320.2295 -7531.5908 296.6066 135.6543 224.2461 30099.4449 -47.1378 40.0865
ENERGY: 900000 0.3254 4.3228 0.4270 0.0000 -10730.7496 1449.4039 0.0000 0.0000 1769.8485 -7506.4221 301.6012 -9276.2705 -7531.7601 297.1903 -49.5495 -12.5934 30557.8095 -79.7541 -6.5522
ENERGY: 1200000 1.9247 7.8595 0.4606 0.0000 -10841.9508 1506.0157 0.0000 0.0000 1770.1485 -7555.5417 301.6523 -9325.6902 -7536.0321 296.4116 414.2780 516.8383 29999.1360 -85.0181 -20.3016
ENERGY: 1500000 0.6076 4.6548 0.0432 0.0000 -10763.7542 1521.6949 0.0000 0.0000 1776.1553 -7460.5984 302.6759 -9236.7538 -7515.2983 297.5696 725.4140 828.9944 30419.5613 -81.6240 -19.6270
TCL: Running FEP window   7: Lambda1 0.6999999999999997 Lambda2 0.6499999999999997 [dLambda -0.050000000000000044]
TCL: Setting parameter firsttimestep to 0
TCL: Setting parameter alchLambda to 0.6999999999999997
Info: NONBONDED TABLE R-SQUARED SPACING: 0.0625
Info: NONBONDED TABLE SIZE: 705 POINTS
TCL: Setting parameter alchLambda2 to 0.6499999999999997
Info: NONBONDED TABLE R-SQUARED SPACING: 0.0625
Info: NONBONDED TABLE SIZE: 705 POINTS
TCL: Running for 1500000 steps
ETITLE: TS BOND ANGLE DIHED IMPRP ELECT VDW BOUNDARY MISC KINETIC TOTAL TEMP POTENTIAL TOTALAVG TEMPAVG PRESSURE GPRESSURE VOLUME PRESSAVG GPRESSAVG
ENERGY: 0 0.6076 4.6548 0.0432 0.0000 -10763.5669 1522.2160 0.0000 0.0000 1775.2956 -7460.7497 302.5294 -9236.0453 -7460.7497 302.5294 758.3612 829.6249 30419.5613 758.3612 829.6249
ENERGY: 300000 0.7055 4.8695 2.5996 0.0000 -10737.6289 1449.4611 0.0000 0.0000 1778.5186 -7501.4747 303.0787 -9279.9933 -7499.3501 303.4511 -139.1405 -65.6002 30367.7872 -17.3267 46.1427
ENERGY: 600000 0.1374 1.9638 0.2334 0.0000 -10691.2651 1435.8376 0.0000 0.0000 1759.7916 -7493.3015 299.8874 -9253.0930 -7496.1070 301.7884 -95.7504 -31.6552 30628.8478 -56.0537 7.0807
ENERGY: 900000 0.5960 2.8822 0.7224 0.0000 -10671.7345 1430.7343 0.0000 0.0000 1724.7198 -7512.0799 293.9108 -9236.7996 -7509.2552 300.1919 -240.0533 -156.3194 30653.1503 -64.9175 3.6200
ENERGY: 1200000 0.0408 3.6687 0.2555 0.0000 -10717.2902 1425.0713 0.0000 0.0000 1731.1451 -7557.1089 295.0057 -9288.2540 -7516.0341 300.1133 -262.1254 -178.4901 30576.5432 -54.1220 11.3906
ENERGY: 1500000 0.3068 5.5257 0.4693 0.0000 -10663.6503 1436.8560 0.0000 0.0000 1687.6071 -7532.8854 287.5864 -9220.4925 -7523.2970 298.9669 190.5427 257.3679 29849.0450 15.7681 75.2936
TCL: Running FEP window   8: Lambda1 0.6499999999999997 Lambda2 0.5999999999999996 [dLambda -0.050000000000000044]
TCL: Setting parameter firsttimestep to 0
TCL: Setting parameter alchLambda to 0.6499999999999997
Info: NONBONDED TABLE R-SQUARED SPACING: 0.0625
Info: NONBONDED TABLE SIZE: 705 POINTS
TCL: Setting parameter alchLambda2 to 0.5999999999999996
Info: NONBONDED TABLE R-SQUARED SPACING: 0.0625
Info: NONBONDED TABLE SIZE: 705 POINTS
TCL: Running for 1500000 steps
ETITLE: TS BOND ANGLE DIHED IMPRP ELECT VDW BOUNDARY MISC KINETIC TOTAL TEMP POTENTIAL TOTALAVG TEMPAVG PRESSURE GPRESSURE VOLUME PRESSAVG GPRESSAVG
ENERGY: 0 0.3068 5.5257 0.4693 0.0000 -10663.6106 1437.0008 0.0000 0.0000 1686.7257 -7533.5823 287.4362 -9220.3081 -7533.5823 287.4362 175.3403 252.3344 29849.0450 175.3403 252.3344
ENERGY: 300000 2.9576 2.0178 1.1191 0.0000 -10543.2722 1300.4717 0.0000 0.0000 1756.8707 -7479.8354 299.3896 -9236.7061 -7502.3986 299.4333 -1053.5676 -1055.9107 30787.1084 92.3604 126.4373
ENERGY: 600000 0.3826 3.8763 1.9088 0.0000 -10503.1990 1333.8276 0.0000 0.0000 1735.0114 -7428.1923 295.6646 -9163.2037 -7488.6854 300.3726 -772.1984 -779.7341 30914.4966 -10.6732 9.8737
ENERGY: 900000 0.1529 6.6273 0.3008 0.0000 -10765.9025 1436.4189 0.0000 0.0000 1755.5981 -7566.8044 299.1728 -9322.4026 -7512.8507 299.3037 -86.5033 -34.1102 30204.2373 28.6934 62.5688
ENERGY: 1200000 2.3405 5.1115 0.7949 0.0000 -10755.8111 1476.6187 0.0000 0.0000 1715.2423 -7555.7032 292.2957 -9270.9455 -7517.7285 299.1482 257.9829 373.9321 30393.5403 96.3914 140.9802
ENERGY: 1500000 1.4336 2.4871 0.1346 0.0000 -10775.3723 1459.1620 0.0000 0.0000 1772.2049 -7539.9501 302.0027 -9312.1550 -7522.7427 299.1238 123.4317 108.1883 30373.3451 133.5259 176.1928
TCL: Running FEP window   9: Lambda1 0.5999999999999996 Lambda2 0.5499999999999996 [dLambda -0.050000000000000044]
TCL: Setting parameter firsttimestep to 0
TCL: Setting parameter alchLambda to 0.5999999999999996
Info: NONBONDED TABLE R-SQUARED SPACING: 0.0625
Info: NONBONDED TABLE SIZE: 705 POINTS
TCL: Setting parameter alchLambda2 to 0.5499999999999996
Info: NONBONDED TABLE R-SQUARED SPACING: 0.0625
Info: NONBONDED TABLE SIZE: 705 POINTS
TCL: Running for 1500000 steps
ETITLE: TS BOND ANGLE DIHED IMPRP ELECT VDW BOUNDARY MISC KINETIC TOTAL TEMP POTENTIAL TOTALAVG TEMPAVG PRESSURE GPRESSURE VOLUME PRESSAVG GPRESSAVG
ENERGY: 0 1.4336 2.4871 0.1346 0.0000 -10775.4364 1458.9325 0.0000 0.0000 1771.3160 -7541.1326 301.8513 -9312.4486 -7541.1326 301.8513 13.4957 95.9456 30373.3451 13.4957 95.9456
ENERGY: 300000 0.3124 5.5648 0.1924 0.0000 -10711.1027 1500.0845 0.0000 0.0000 1777.1765 -7427.7722 302.8499 -9204.9487 -7477.6279 303.9757 659.0092 751.1280 30375.8693 244.9273 331.9749
ENERGY: 600000 1.3973 5.8095 0.2794 0.0000 -10701.6468 1424.9697 0.0000 0.0000 1811.1591 -7458.0318 308.6410 -9269.1909 -7480.8030 303.5366 -116.3571 -37.6793 30357.9721 137.9693 211.6214
ENERGY: 900000 1.5546 5.8440 0.5491 0.0000 -10753.3176 1412.6426 0.0000 0.0000 1771.7139 -7561.0134 301.9191 -9332.7273 -7506.2940 303.1860 -586.5505 -506.2870 30401.1869 -25.4121 44.7820
ENERGY: 1200000 0.6178 3.0988 0.1101 0.0000 -10719.6977 1466.6663 0.0000 0.0000 1718.5531 -7530.6516 292.8599 -9249.2047 -7509.7228 301.1741 175.1010 214.1790 30478.5994 -40.7604 26.7878
ENERGY: 1500000 2.1652 4.7917 0.0765 0.0000 -10737.8084 1470.5222 0.0000 0.0000 1784.5536 -7475.6991 304.1071 -9260.2528 -7510.3731 301.0529 362.0923 442.5013 29987.8842 -51.0071 16.0715
TCL: Running FEP window  10: Lambda1 0.5499999999999996 Lambda2 0.4999999999999996 [dLambda -0.04999999999999999]
TCL: Setting parameter firsttimestep to 0
TCL: Setting parameter alchLambda to 0.5499999999999996
Info: NONBONDED TABLE R-SQUARED SPACING: 0.0625
Info: NONBONDED TABLE SIZE: 705 POINTS
TCL: Setting parameter alchLambda2 to 0.4999999999999996
Info: NONBONDED TABLE R-SQUARED SPACING: 0.0625
Info: NONBONDED TABLE SIZE: 705 POINTS
TCL: Running for 1500000 steps
ETITLE: TS BOND ANGLE DIHED IMPRP ELECT VDW BOUNDARY MISC KINETIC TOTAL TEMP POTENTIAL TOTALAVG TEMPAVG PRESSURE GPRESSURE VOLUME PRESSAVG GPRESSAVG
ENERGY: 0 2.1652 4.7917 0.0765 0.0000 -10737.9225 1470.0761 0.0000 0.0000 1783.6602 -7477.1529 303.9548 -9260.8130 -7477.1529 303.9548 368.3290 430.4207 29987.8842 368.3290 430.4207
ENERGY: 300000 1.5194 3.7084 0.1207 0.0000 -10606.8967 1296.8113 0.0000 0.0000 1754.5016 -7550.2353 298.9859 -9304.7369 -7500.7074 301.1882 -1432.1235 -1372.2784 30862.9520 -77.8057 -27.0713
ENERGY: 600000 0.7041 3.7034 0.4400 0.0000 -10775.3049 1457.0762 0.0000 0.0000 1724.0455 -7589.3357 293.7959 -9313.3813 -7512.5416 300.7639 126.4605 127.8990 30098.3490 141.3652 194.1063
ENERGY: 900000 0.5892 3.5074 0.1065 0.0000 -10811.0491 1437.0576 0.0000 0.0000 1799.3901 -7570.3983 306.6354 -9369.7884 -7509.4476 301.6320 -61.0012 -27.1956 29843.8043 112.1145 158.4791
ENERGY: 1200000 0.3670 5.0732 3.8366 0.0000 -10810.6104 1562.2499 0.0000 0.0000 1724.7610 -7514.3227 293.9178 -9239.0837 -7517.6845 300.6374 1148.2041 1211.3032 30003.3384 129.4376 178.6916
ENERGY: 1500000 1.4542 3.7284 0.2798 0.0000 -10649.7328 1376.3550 0.0000 0.0000 1739.1176 -7528.7978 296.3643 -9267.9154 -7515.9307 300.0255 -724.9859 -688.0700 30801.4623 -23.9060 29.3806
TCL: Running FEP window  11: Lambda1 0.4999999999999996 Lambda2 0.4499999999999996 [dLambda -0.04999999999999999]
TCL: Setting parameter firsttimestep to 0
TCL: Setting parameter alchLambda to 0.4999999999999996
Info: NONBONDED TABLE R-SQUARED SPACING: 0.0625
Info: NONBONDED TABLE SIZE: 705 POINTS
TCL: Setting parameter alchLambda2 to 0.4499999999999996
Info: NONBONDED TABLE R-SQUARED SPACING: 0.0625
Info: NONBONDED TABLE SIZE: 705 POINTS
TCL: Running for 1500000 steps
ETITLE: TS BOND ANGLE DIHED IMPRP ELECT VDW BOUNDARY MISC KINETIC TOTAL TEMP POTENTIAL TOTALAVG TEMPAVG PRESSURE GPRESSURE VOLUME PRESSAVG GPRESSAVG
ENERGY: 0 1.4542 3.7284 0.2798 0.0000 -10649.5262 1376.4155 0.0000 0.0000 1738.2024 -7529.4459 296.2083 -9267.6482 -7529.4459 296.2083 -776.7450 -691.8392 30801.4623 -776.7450 -691.8392
ENERGY: 300000 2.3246 7.2656 0.3052 0.0000 -10653.9394 1431.6335 0.0000 0.0000 1753.3029 -7459.1076 298.7816 -9212.4105 -7446.7078 302.7209 -157.5852 -87.3207 30523.4271 -186.3569 -126.1725
ENERGY: 600000 0.3733 4.1322 0.9108 0.0000 -10826.4115 1517.9489 0.0000 0.0000 1787.6501 -7515.3962 304.6348 -9303.0463 -7490.5159 302.6793 474.9295 537.0558 30481.2720 -225.1164 -166.7862
ENERGY: 900000 0.8850 2.4033 1.0825 0.0000 -10814.1788 1484.9473 0.0000 0.0000 1780.8755 -7543.9852 303.4803 -9324.8607 -7493.2253 301.9172 276.6187 364.4284 29890.6170 -219.4971 -159.2085
ENERGY: 1200000 2.3734 4.1832 2.5410 0.0000 -10783.9739 1507.0297 0.0000 0.0000 1809.3572 -7458.4895 308.3339 -9267.8467 -7485.7874 302.0241 709.7849 717.7511 30086.0699 -161.4907 -101.4077
ENERGY: 1500000 3.0491 3.1566 0.8297 0.0000 -10637.0964 1370.0065 0.0000 0.0000 1751.6628 -7508.3917 298.5021 -9260.0545 -7476.4038 302.2508 -818.8985 -710.1603 30659.0999 -198.9460 -134.8646
TCL: Running FEP window  12: Lambda1 0.4499999999999996 Lambda2 0.39999999999999963 [dLambda -0.04999999999999999]
TCL: Setting parameter firsttimestep to 0
TCL: Setting parameter alchLambda to 0.4499999999999996
Info: NONBONDED TABLE R-SQUARED SPACING: 0.0625
Info: NONBONDED TABLE SIZE: 705 POINTS
TCL: Setting parameter alchLambda2 to 0.39999999999999963
Info: NONBONDED TABLE R-SQUARED SPACING: 0.0625
Info: NONBONDED TABLE SIZE: 705 POINTS
TCL: Running for 1500000 steps
ETITLE: TS BOND ANGLE DIHED IMPRP ELECT VDW BOUNDARY MISC KINETIC TOTAL TEMP POTENTIAL TOTALAVG TEMPAVG PRESSURE GPRESSURE VOLUME PRESSAVG GPRESSAVG
ENERGY: 0 3.0491 3.1566 0.8297 0.0000 -10637.0978 1370.4612 0.0000 0.0000 1750.8149 -7508.7863 298.3576 -9259.6012 -7508.7863 298.3576 -805.1164 -708.1281 30659.0999 -805.1164 -708.1281
ENERGY: 300000 0.4268 5.7301 0.3518 0.0000 -10703.8082 1444.1095 0.0000 0.0000 1712.6285 -7540.5615 291.8503 -9253.1900 -7513.8761 299.3903 -316.7897 -261.7893 30786.1085 -547.0663 -469.3256
ENERGY: 600000 0.7065 7.0292 2.6669 0.0000 -10633.3302 1322.3084 0.0000 0.0000 1773.0522 -7527.5670 302.1471 -9300.6192 -7503.7070 300.1940 -941.9600 -891.7158 30398.3317 -584.7613 -525.8493
ENERGY: 900000 5.5695 5.3104 0.7282 0.0000 -10797.6257 1471.6142 0.0000 0.0000 1757.0285 -7557.3749 299.4165 -9314.4034 -7486.2515 301.5657 -139.0312 -72.2730 30168.7413 -365.9157 -309.5531
ENERGY: 1200000 0.2417 6.7699 1.8481 0.0000 -10644.2731 1382.3996 0.0000 0.0000 1752.5644 -7500.4494 298.6558 -9253.0138 -7496.9536 300.8708 -129.9610 -87.6501 29748.2372 -385.9549 -327.7344
ENERGY: 1500000 1.4384 2.2206 0.6188 0.0000 -10744.9373 1476.0447 0.0000 0.0000 1723.2071 -7541.4077 293.6530 -9264.6148 -7493.6968 300.4520 158.0556 178.2365 30542.6590 -291.3298 -236.0609
TCL: Running FEP window  13: Lambda1 0.39999999999999963 Lambda2 0.34999999999999964 [dLambda -0.04999999999999999]
TCL: Setting parameter firsttimestep to 0
TCL: Setting parameter alchLambda to 0.39999999999999963
Info: NONBONDED TABLE R-SQUARED SPACING: 0.0625
Info: NONBONDED TABLE SIZE: 705 POINTS
TCL: Setting parameter alchLambda2 to 0.34999999999999964
Info: NONBONDED TABLE R-SQUARED SPACING: 0.0625
Info: NONBONDED TABLE SIZE: 705 POINTS
TCL: Running for 1500000 steps
ETITLE: TS BOND ANGLE DIHED IMPRP ELECT VDW BOUNDARY MISC KINETIC TOTAL TEMP POTENTIAL TOTALAVG TEMPAVG PRESSURE GPRESSURE VOLUME PRESSAVG GPRESSAVG
ENERGY: 0 1.4384 2.2206 0.6188 0.0000 -10744.9377 1476.4222 0.0000 0.0000 1722.3122 -7541.9256 293.5005 -9264.2377 -7541.9256 293.5005 101.5480 177.3182 30542.6590 101.5480 177.3182
ENERGY: 300000 0.0215 3.6235 1.7367 0.0000 -10605.5129 1349.0844 0.0000 0.0000 1782.3758 -7468.6709 303.7360 -9251.0468 -7507.2646 298.4133 -567.3944 -567.2005 30385.1071 -458.7612 -413.8013
ENERGY: 600000 0.5280 2.9855 0.1930 0.0000 -10666.0477 1438.5190 0.0000 0.0000 1785.3057 -7438.5164 304.2353 -9223.8221 -7479.1120 302.1478 209.4967 252.9472 30075.0399 -399.7294 -342.9600
ENERGY: 900000 0.4849 8.1768 0.2406 0.0000 -10677.1947 1455.0022 0.0000 0.0000 1713.3693 -7499.9210 291.9765 -9213.2902 -7481.9227 300.6848 314.3019 366.9353 30004.9400 -315.7881 -257.8050
ENERGY: 1200000 0.2801 3.9887 2.2188 0.0000 -10690.3992 1444.8782 0.0000 0.0000 1716.3515 -7522.6817 292.4847 -9239.0333 -7482.4192 299.5673 -129.3996 -76.3352 30640.4472 -298.8049 -236.4595
ENERGY: 1500000 0.9590 2.7064 0.3777 0.0000 -10709.2952 1360.9474 0.0000 0.0000 1766.3169 -7577.9878 300.9994 -9344.3047 -7506.5197 299.4500 -791.0136 -665.2827 30114.7448 -261.7267 -201.9045
TCL: Running FEP window  14: Lambda1 0.34999999999999964 Lambda2 0.29999999999999966 [dLambda -0.04999999999999999]
TCL: Setting parameter firsttimestep to 0
TCL: Setting parameter alchLambda to 0.34999999999999964
Info: NONBONDED TABLE R-SQUARED SPACING: 0.0625
Info: NONBONDED TABLE SIZE: 705 POINTS
TCL: Setting parameter alchLambda2 to 0.29999999999999966
Info: NONBONDED TABLE R-SQUARED SPACING: 0.0625
Info: NONBONDED TABLE SIZE: 705 POINTS
TCL: Running for 1500000 steps
ETITLE: TS BOND ANGLE DIHED IMPRP ELECT VDW BOUNDARY MISC KINETIC TOTAL TEMP POTENTIAL TOTALAVG TEMPAVG PRESSURE GPRESSURE VOLUME PRESSAVG GPRESSAVG
ENERGY: 0 0.9590 2.7064 0.3777 0.0000 -10709.2951 1361.0864 0.0000 0.0000 1765.4598 -7578.7059 300.8533 -9344.1656 -7578.7059 300.8533 -751.3930 -669.4982 30114.7448 -751.3930 -669.4982
ENERGY: 300000 3.1052 3.8781 0.1781 0.0000 -10624.1440 1379.4171 0.0000 0.0000 1794.6829 -7442.8826 305.8332 -9237.5655 -7481.8971 302.9796 -499.7168 -406.6519 30550.5652 -175.2778 -105.6110
ENERGY: 600000 0.5435 4.5748 0.1517 0.0000 -10724.2709 1463.1900 0.0000 0.0000 1739.7806 -7516.0303 296.4773 -9255.8108 -7476.9919 301.6001 362.2893 410.8293 29995.2229 -77.1726 -4.6784
ENERGY: 900000 1.8887 9.9852 0.7905 0.0000 -10810.8206 1511.8934 0.0000 0.0000 1771.0885 -7515.1743 301.8125 -9286.2628 -7493.4694 301.8600 390.0045 476.1851 30244.1477 -63.9330 4.5545
ENERGY: 1200000 0.9005 3.0379 0.2089 0.0000 -10545.8431 1323.9087 0.0000 0.0000 1775.5524 -7442.2347 302.5732 -9217.7871 -7494.0334 301.7025 -898.8569 -910.7851 30810.2712 -122.0314 -58.9538
ENERGY: 1500000 0.1042 2.1191 0.4996 0.0000 -10582.1288 1346.4942 0.0000 0.0000 1773.1214 -7459.7903 302.1589 -9232.9117 -7493.5182 301.6288 -603.5501 -566.9159 30282.8828 -147.6007 -86.2744
TCL: Running FEP window  15: Lambda1 0.29999999999999966 Lambda2 0.24999999999999967 [dLambda -0.04999999999999999]
TCL: Setting parameter firsttimestep to 0
TCL: Setting parameter alchLambda to 0.29999999999999966
Info: NONBONDED TABLE R-SQUARED SPACING: 0.0625
Info: NONBONDED TABLE SIZE: 705 POINTS
TCL: Setting parameter alchLambda2 to 0.24999999999999967
Info: NONBONDED TABLE R-SQUARED SPACING: 0.0625
Info: NONBONDED TABLE SIZE: 705 POINTS
TCL: Running for 1500000 steps
ETITLE: TS BOND ANGLE DIHED IMPRP ELECT VDW BOUNDARY MISC KINETIC TOTAL TEMP POTENTIAL TOTALAVG TEMPAVG PRESSURE GPRESSURE VOLUME PRESSAVG GPRESSAVG
ENERGY: 0 0.1042 2.1191 0.4996 0.0000 -10582.1297 1346.4162 0.0000 0.0000 1772.2191 -7460.7715 302.0051 -9232.9905 -7460.7715 302.0051 -658.8568 -573.1389 30282.8828 -658.8568 -573.1389
ENERGY: 300000 0.6480 4.3663 0.7435 0.0000 -10738.8085 1409.4106 0.0000 0.0000 1724.5227 -7599.1174 293.8772 -9323.6400 -7492.9363 300.2661 -294.9485 -297.9824 30077.4463 -185.7744 -137.1134
ENERGY: 600000 0.2409 4.9915 0.4308 0.0000 -10631.0300 1401.8119 0.0000 0.0000 1752.3240 -7471.2310 298.6148 -9223.5550 -7488.6967 301.1184 -251.4494 -213.7574 30287.1764 -101.2350 -60.8717
ENERGY: 900000 1.9648 3.3076 0.4698 0.0000 -10672.1442 1383.7917 0.0000 0.0000 1753.9493 -7528.6609 298.8918 -9282.6102 -7496.7909 301.3047 -339.2370 -262.9549 30122.6723 -33.0792 13.6834
ENERGY: 1200000 0.7471 3.4244 0.7158 0.0000 -10604.3923 1370.0408 0.0000 0.0000 1763.5767 -7465.8874 300.5324 -9229.4642 -7492.6468 301.0830 -445.7378 -407.4979 30593.5718 -47.3425 2.7797
ENERGY: 1500000 2.0826 8.2462 0.4642 0.0000 -10758.8511 1499.6576 0.0000 0.0000 1786.1114 -7462.2890 304.3725 -9248.4004 -7485.1708 301.2640 519.1876 553.6598 30277.4377 5.5602 56.9204
TCL: Running FEP window  16: Lambda1 0.24999999999999967 Lambda2 0.19999999999999968 [dLambda -0.04999999999999999]
TCL: Setting parameter firsttimestep to 0
TCL: Setting parameter alchLambda to 0.24999999999999967
Info: NONBONDED TABLE R-SQUARED SPACING: 0.0625
Info: NONBONDED TABLE SIZE: 705 POINTS
TCL: Setting parameter alchLambda2 to 0.19999999999999968
Info: NONBONDED TABLE R-SQUARED SPACING: 0.0625
Info: NONBONDED TABLE SIZE: 705 POINTS
TCL: Running for 1500000 steps
ETITLE: TS BOND ANGLE DIHED IMPRP ELECT VDW BOUNDARY MISC KINETIC TOTAL TEMP POTENTIAL TOTALAVG TEMPAVG PRESSURE GPRESSURE VOLUME PRESSAVG GPRESSAVG
ENERGY: 0 2.0826 8.2462 0.4642 0.0000 -10758.8517 1500.0378 0.0000 0.0000 1785.2329 -7462.7880 304.2228 -9248.0209 -7462.7880 304.2228 471.8834 554.1072 30277.4377 471.8834 554.1072
ENERGY: 300000 0.9722 4.6314 1.0184 0.0000 -10744.3189 1429.9051 0.0000 0.0000 1773.3874 -7534.4045 302.2042 -9307.7919 -7517.0199 299.1819 -92.0954 -7.6125 29957.6554 257.8178 332.9278
ENERGY: 600000 0.0688 4.5657 0.1508 0.0000 -10823.1977 1601.9084 0.0000 0.0000 1777.3912 -7439.1128 302.8865 -9216.5041 -7509.9667 298.8406 1493.0642 1505.6171 30027.6193 262.7270 330.2798
ENERGY: 900000 2.9452 2.7722 0.3296 0.0000 -10761.0198 1519.9227 0.0000 0.0000 1701.4311 -7533.6191 289.9421 -9235.0501 -7513.8940 298.7077 491.0572 568.1991 30424.4593 216.6671 293.3464
ENERGY: 1200000 0.6102 5.2932 0.8315 0.0000 -10602.2553 1354.6699 0.0000 0.0000 1776.0224 -7464.8281 302.6533 -9240.8505 -7507.7755 299.0550 -840.3105 -766.5162 30846.6959 94.5327 171.8238
ENERGY: 1500000 0.2071 3.8282 0.2140 0.0000 -10535.2745 1328.8536 0.0000 0.0000 1751.8939 -7450.2777 298.5415 -9202.1716 -7503.9812 299.5589 -861.7664 -829.4641 30856.4661 -0.7191 66.5447
TCL: Running FEP window  17: Lambda1 0.19999999999999968 Lambda2 0.1499999999999997 [dLambda -0.04999999999999999]
TCL: Setting parameter firsttimestep to 0
TCL: Setting parameter alchLambda to 0.19999999999999968
Info: NONBONDED TABLE R-SQUARED SPACING: 0.0625
Info: NONBONDED TABLE SIZE: 705 POINTS
TCL: Setting parameter alchLambda2 to 0.1499999999999997
Info: NONBONDED TABLE R-SQUARED SPACING: 0.0625
Info: NONBONDED TABLE SIZE: 705 POINTS
TCL: Running for 1500000 steps
ETITLE: TS BOND ANGLE DIHED IMPRP ELECT VDW BOUNDARY MISC KINETIC TOTAL TEMP POTENTIAL TOTALAVG TEMPAVG PRESSURE GPRESSURE VOLUME PRESSAVG GPRESSAVG
ENERGY: 0 0.2071 3.8282 0.2140 0.0000 -10535.2744 1329.1020 0.0000 0.0000 1751.0042 -7450.9189 298.3899 -9201.9232 -7450.9189 298.3899 -906.7319 -831.7485 30856.4661 -906.7319 -831.7485
ENERGY: 300000 0.2450 4.2967 2.6508 0.0000 -10560.8468 1312.7755 0.0000 0.0000 1783.0155 -7457.8633 303.8450 -9240.8788 -7439.4626 300.7989 -1126.9388 -1038.5029 30713.7883 -231.5973 -158.1209
ENERGY: 600000 0.7582 5.5388 0.8489 0.0000 -10700.2924 1408.2098 0.0000 0.0000 1776.5261 -7508.4106 302.7391 -9284.9367 -7458.0373 301.3569 -110.5290 -93.6238 30132.6672 -76.3460 -6.2119
ENERGY: 900000 0.7051 2.7822 0.6387 0.0000 -10608.7045 1402.4920 0.0000 0.0000 1702.0223 -7500.0643 290.0429 -9202.0866 -7462.4403 299.9252 -344.8560 -253.0437 30428.4749 -43.5686 22.6683
ENERGY: 1200000 0.6197 2.8676 1.7708 0.0000 -10649.9011 1448.8796 0.0000 0.0000 1761.3798 -7434.3836 300.1580 -9195.7634 -7473.9130 299.4311 61.4545 153.5716 30629.4200 -20.9250 38.4666
ENERGY: 1500000 1.9147 4.3348 1.1976 0.0000 -10696.6857 1452.1353 0.0000 0.0000 1761.8680 -7475.2353 300.2412 -9237.1033 -7468.4025 299.8556 30.8999 156.0724 30034.6520 -5.5739 54.5185
TCL: Running FEP window  18: Lambda1 0.1499999999999997 Lambda2 0.09999999999999969 [dLambda -0.05 ]
TCL: Setting parameter firsttimestep to 0
TCL: Setting parameter alchLambda to 0.1499999999999997
Info: NONBONDED TABLE R-SQUARED SPACING: 0.0625
Info: NONBONDED TABLE SIZE: 705 POINTS
TCL: Setting parameter alchLambda2 to 0.09999999999999969
Info: NONBONDED TABLE R-SQUARED SPACING: 0.0625
Info: NONBONDED TABLE SIZE: 705 POINTS
TCL: Running for 1500000 steps
ETITLE: TS BOND ANGLE DIHED IMPRP ELECT VDW BOUNDARY MISC KINETIC TOTAL TEMP POTENTIAL TOTALAVG TEMPAVG PRESSURE GPRESSURE VOLUME PRESSAVG GPRESSAVG
ENERGY: 0 1.9147 4.3348 1.1976 0.0000 -10696.6846 1452.3313 0.0000 0.0000 1760.9850 -7475.9212 300.0907 -9236.9062 -7475.9212 300.0907 61.1266 155.5104 30034.6520 61.1266 155.5104
ENERGY: 300000 0.2166 4.0656 0.7660 0.0000 -10697.1062 1372.8810 0.0000 0.0000 1730.6496 -7588.5274 294.9213 -9319.1770 -7525.1538 298.1441 -833.2955 -704.9595 30413.4972 -298.8896 -210.1574
ENERGY: 600000 0.4861 3.8255 0.5542 0.0000 -10661.6409 1412.1628 0.0000 0.0000 1745.2240 -7499.3885 297.4049 -9244.6124 -7506.7804 298.2068 -165.2536 -121.9888 30165.9149 -79.8127 3.7157
ENERGY: 900000 0.4821 7.6137 0.7723 0.0000 -10715.2996 1457.9819 0.0000 0.0000 1723.8312 -7524.6184 293.7593 -9248.4496 -7500.8205 297.8687 -58.1577 40.0103 30444.5679 25.6215 112.4498
ENERGY: 1200000 0.1222 5.4099 0.2596 0.0000 -10888.0882 1573.8820 0.0000 0.0000 1698.4578 -7609.9568 289.4354 -9308.4146 -7509.8833 296.8813 1000.8516 1043.0001 29708.2882 74.2153 159.4464
ENERGY: 1500000 1.2308 4.6041 0.2897 0.0000 -10746.1598 1439.3737 0.0000 0.0000 1754.9195 -7545.7419 299.0571 -9300.6614 -7497.5561 298.0737 26.3794 40.5746 30001.6997 54.5990 130.4537
TCL: Running FEP window  19: Lambda1 0.09999999999999969 Lambda2 0.049999999999999684 [dLambda -0.05 ]
TCL: Setting parameter firsttimestep to 0
TCL: Setting parameter alchLambda to 0.09999999999999969
Info: NONBONDED TABLE R-SQUARED SPACING: 0.0625
Info: NONBONDED TABLE SIZE: 705 POINTS
TCL: Setting parameter alchLambda2 to 0.049999999999999684
Info: NONBONDED TABLE R-SQUARED SPACING: 0.0625
Info: NONBONDED TABLE SIZE: 705 POINTS
TCL: Running for 1500000 steps
ETITLE: TS BOND ANGLE DIHED IMPRP ELECT VDW BOUNDARY MISC KINETIC TOTAL TEMP POTENTIAL TOTALAVG TEMPAVG PRESSURE GPRESSURE VOLUME PRESSAVG GPRESSAVG
ENERGY: 0 1.2308 4.6041 0.2897 0.0000 -10746.1600 1439.7033 0.0000 0.0000 1754.0621 -7546.2699 298.9110 -9300.3320 -7546.2699 298.9110 -39.9350 39.3890 30001.6997 -39.9350 39.3890
ENERGY: 300000 2.9235 3.5772 2.0405 0.0000 -10834.1852 1569.7397 0.0000 0.0000 1828.3671 -7427.5373 311.5734 -9255.9043 -7473.8077 304.9744 1086.6371 1092.5981 29934.2645 270.9371 339.9885
ENERGY: 600000 0.6221 5.1982 1.2774 0.0000 -10668.0535 1411.2023 0.0000 0.0000 1748.4585 -7501.2950 297.9561 -9249.7535 -7492.3299 301.1630 -518.6710 -436.1554 30840.0972 -81.0480 -18.9588
ENERGY: 900000 0.1378 5.9902 0.5777 0.0000 -10622.2684 1365.8112 0.0000 0.0000 1720.9225 -7528.8290 293.2637 -9249.7515 -7509.0091 298.8135 -694.9697 -620.3248 30621.0968 -275.4947 -200.8987
ENERGY: 1200000 0.3564 2.5067 0.6530 0.0000 -10734.4189 1492.3252 0.0000 0.0000 1755.1371 -7483.4405 299.0942 -9238.5776 -7512.7234 298.7507 236.9834 317.4700 30366.5152 -310.2982 -233.0187
ENERGY: 1500000 1.7111 4.2938 0.3241 0.0000 -10601.7952 1426.7080 0.0000 0.0000 1826.4049 -7342.3532 311.2390 -9168.7581 -7495.5403 299.9933 200.6855 258.3198 30357.5569 -178.2148 -104.5885
TCL: Running FEP window  20: Lambda1 0.049999999999999684 Lambda2 0.0    [dLambda -0.049999999999999684]
TCL: Setting parameter firsttimestep to 0
TCL: Setting parameter alchLambda to 0.049999999999999684
Info: NONBONDED TABLE R-SQUARED SPACING: 0.0625
Info: NONBONDED TABLE SIZE: 705 POINTS
TCL: Setting parameter alchLambda2 to 0.0
Info: NONBONDED TABLE R-SQUARED SPACING: 0.0625
Info: NONBONDED TABLE SIZE: 705 POINTS
TCL: Running for 1500000 steps
ETITLE: TS BOND ANGLE DIHED IMPRP ELECT VDW BOUNDARY MISC KINETIC TOTAL TEMP POTENTIAL TOTALAVG TEMPAVG PRESSURE GPRESSURE VOLUME PRESSAVG GPRESSAVG
ENERGY: 0 1.7111 4.2938 0.3241 0.0000 -10601.7959 1426.4666 0.0000 0.0000 1825.5339 -7343.4663 311.0906 -9169.0002 -7343.4663 311.0906 176.7798 256.9906 30357.5569 176.7798 256.9906
ENERGY: 300000 0.9045 3.6669 0.2313 0.0000 -10729.6574 1433.2458 0.0000 0.0000 1789.4755 -7502.1334 304.9458 -9291.6089 -7455.1210 305.4685 -90.7974 -80.7964 30224.4488 180.7778 249.6169
ENERGY: 600000 0.1457 3.2805 0.6476 0.0000 -10768.9614 1464.3495 0.0000 0.0000 1797.0257 -7503.5124 306.2325 -9300.5380 -7473.7593 306.0380 -19.7868 -7.1861 30393.8477 70.3881 122.5445
ENERGY: 900000 0.6608 3.7394 0.5462 0.0000 -10619.3210 1360.3809 0.0000 0.0000 1807.0004 -7446.9933 307.9323 -9253.9937 -7472.4169 305.2804 -649.1978 -571.7364 30393.8792 13.9500 73.7766
ENERGY: 1200000 2.1516 4.7105 0.1636 0.0000 -10751.9732 1478.9150 0.0000 0.0000 1728.1234 -7537.9091 294.4908 -9266.0326 -7474.3057 304.1252 408.4815 452.1427 30140.1853 84.7150 144.2112
ENERGY: 1500000 0.2796 3.2938 0.3630 0.0000 -10615.1473 1390.0736 0.0000 0.0000 1745.4436 -7475.6938 297.4423 -9221.1373 -7477.3019 302.8388 -310.5678 -258.8648 30245.7753 70.1381 127.8437
TCL: Exiting due to exit command.
