Info: SIMULATION PARAMETERS:
Info: TIMESTEP               2
Info: NUMBER OF STEPS        0
Info: STEPS PER CYCLE        10
Info: PERIODIC CELL BASIS 1  30.2458 0 0
Info: PERIODIC CELL BASIS 2  0 31.6357 0
Info: PERIODIC CELL BASIS 3  0 0 31.7038
Info: PERIODIC CELL CENTER   0 0 0
Info: WRAPPING WATERS AROUND PERIODIC BOUNDARIES ON OUTPUT.
Info: WRAPPING ALL CLUSTERS AROUND PERIODIC BOUNDARIES ON OUTPUT.
Info: FIRST LDB TIMESTEP     50
Info: LAST LDB TIMESTEP     -1
Info: HOM BACKGROUND SCALING 1
Info: PME BACKGROUND SCALING 1
Info: MIN ATOMS PER PATCH    40
Info: EMPTY PATCH LOAD       40 ATOMS
Info: VELOCITY FILE          mobley_627267_equil.vel
Info: CENTER OF MASS MOVING INITIALLY? NO
Info: DIELECTRIC             1
Info: EXCLUDE                SCALED ONE-FOUR
Info: 1-4 ELECTROSTATICS SCALED BY 0.833333
Info: MODIFIED 1-4 VDW PARAMETERS WILL BE USED
Info: DCD FILENAME           mobley_627267_prod.dcd
Info: DCD FREQUENCY          100000
Info: DCD FIRST STEP         100000
Info: DCD FILE WILL CONTAIN UNIT CELL DATA
Info: XST FILENAME           mobley_627267_prod.xst
Info: XST FREQUENCY          100000
Info: NO VELOCITY DCD OUTPUT
Info: NO FORCE DCD OUTPUT
Info: OUTPUT FILENAME        mobley_627267_prod
Info: BINARY OUTPUT FILES WILL BE USED
Info: RESTART FILENAME       mobley_627267_prod.restart
Info: RESTART FREQUENCY      100000
Info: BINARY RESTART FILES WILL BE USED
Info: CUTOFF                 9
Info: PAIRLIST DISTANCE      11
Info: PAIRLIST SHRINK RATE   0.01
Info: PAIRLIST GROW RATE     0.01
Info: PAIRLIST TRIGGER       0.3
Info: PAIRLISTS PER CYCLE    2
Info: PAIRLISTS ENABLED
Info: MARGIN                 2
Info: HYDROGEN GROUP CUTOFF  2.5
Info: PATCH DIMENSION        15.5
Info: ENERGY OUTPUT STEPS    100000
Info: ENERGY EVALUATION STEPS    100000
Info: OUTPUT ENERGY PRECISION 4
Info: CROSSTERM ENERGY INCLUDED IN DIHEDRAL
Info: TIMING OUTPUT STEPS    1000000
Info: PRESSURE OUTPUT STEPS  100000
Info: ALCHEMICAL FEP ON
Info: FEP CURRENT LAMBDA VALUE     1
Info: FEP COMPARISON LAMBDA VALUE  0.95
Info: FEP INTRA-ALCHEMICAL NON-BONDED INTERACTIONS WILL BE RETAINED
Info: FEP INTRA-ALCHEMICAL BONDED INTERACTIONS WILL BE RETAINED
Info: FEP VDW SHIFTING COEFFICIENT 5
Info: FEP ELEC. ACTIVE FOR ANNIHILATED PARTICLES BETWEEN LAMBDA = 0 AND LAMBDA = 0.5
Info: FEP ELEC. ACTIVE FOR EXNIHILATED PARTICLES BETWEEN LAMBDA = 0.5 AND LAMBDA = 1
Info: FEP VDW ACTIVE FOR ANNIHILATED PARTICLES BETWEEN LAMBDA = 0 AND LAMBDA = 1
Info: FEP VDW ACTIVE FOR EXNIHILATED PARTICLES BETWEEN LAMBDA = 0 AND LAMBDA = 1
Info: FEP BOND ACTIVE FOR ANNIHILATED PARTICLES BETWEEN LAMBDA = 1 AND LAMBDA = 1
Info: FEP BOND ACTIVE FOR EXNIHILATED PARTICLES BETWEEN LAMBDA = 0 AND LAMBDA = 0
Info: LANGEVIN DYNAMICS ACTIVE
Info: LANGEVIN TEMPERATURE   300
Info: LANGEVIN USING BBK INTEGRATOR
Info: LANGEVIN DAMPING COEFFICIENT IS 1 INVERSE PS
Info: LANGEVIN DYNAMICS APPLIED TO HYDROGENS
Info: LANGEVIN PISTON PRESSURE CONTROL ACTIVE
Info:        TARGET PRESSURE IS 1.01325 BAR
Info:     OSCILLATION PERIOD IS 50 FS
Info:             DECAY TIME IS 25 FS
Info:     PISTON TEMPERATURE IS 300 K
Info:       PRESSURE CONTROL IS GROUP-BASED
Info:    INITIAL STRAIN RATE IS -0.000353648 -0.000353648 -0.000353648
Info:       CELL FLUCTUATION IS ISOTROPIC
Info: PARTICLE MESH EWALD (PME) ACTIVE
Info: PME TOLERANCE               1e-06
Info: PME EWALD COEFFICIENT       0.348832
Info: PME INTERPOLATION ORDER     4
Info: PME GRID DIMENSIONS         32 32 32
Info: PME MAXIMUM GRID SPACING    1
Info: PME CALCULATION WILL BE PERFORMED ON GPU
Info: FULL ELECTROSTATIC EVALUATION FREQUENCY      2
Info: USING VERLET I (r-RESPA) MTS SCHEME.
Info: C1 SPLITTING OF LONG RANGE ELECTROSTATICS
Info: PLACING ATOMS IN PATCHES BY HYDROGEN GROUPS
Info: RIGID BONDS TO HYDROGEN : ALL
Info:         ERROR TOLERANCE : 1e-08
Info:          MAX ITERATIONS : 100
Info: RIGID WATER USING SETTLE ALGORITHM
Info: RANDOM NUMBER SEED     1743742259
Info: USE HYDROGEN BONDS?    NO
Info: Using AMBER format force field!
Info: AMBER PARM FILE        mobley_627267.prmtop
Info: COORDINATE PDB         mobley_627267.pdb
Info: Exclusions will be read from PARM file!
Info: SCNB (VDW SCALING)     2
Info: USING ARITHMETIC MEAN TO COMBINE L-J SIGMA PARAMETERS
Info: BINARY COORDINATES     mobley_627267_equil.coor
Info: SUMMARY OF PARAMETERS:
Info: 6 BONDS
Info: 7 ANGLES
Info:   7 HARMONIC
Info:   0 COSINE-BASED
Info: 5 DIHEDRAL
Info: 0 IMPROPER
Info: 0 CROSSTERM
Info: 0 VDW
Info: 21 VDW_PAIRS
Info: 0 NBTHOLE_PAIRS
Info: To read alchdata from file: mobley_627267.pdb
Info: To read alchflag data from column: 5
Info: STRUCTURE SUMMARY:
Info: 2945 ATOMS
Info: 2944 BONDS
Info: 24 ANGLES
Info: 28 DIHEDRALS
Info: 0 IMPROPERS
Info: 0 CROSSTERMS
Info: 2995 EXCLUSIONS
Info: 2940 RIGID BONDS
Info: ALCH: 0 ATOMS TO DISAPPEAR IN FINAL STATE
Info: ALCH: 14 ATOMS TO APPEAR IN FINAL STATE
Info: 5895 DEGREES OF FREEDOM
Info: 982 HYDROGEN GROUPS
Info: 4 ATOMS IN LARGEST HYDROGEN GROUP
Info: 982 MIGRATION GROUPS
Info: 4 ATOMS IN LARGEST MIGRATION GROUP
Info: TOTAL MASS = 17738.6 amu
Info: TOTAL CHARGE = 0.000100003 e
Info: MASS DENSITY = 0.971016 g/cm^3
Info: ATOM DENSITY = 0.0970805 atoms/A^3
Info: ADDED 0 IMPLICIT EXCLUSIONS
Info: NONBONDED TABLE R-SQUARED SPACING: 0.0625
Info: NONBONDED TABLE SIZE: 705 POINTS
Info: REMOVING COM VELOCITY 0.0402187 -0.219785 -0.0101486
Info: Use 3D box decompostion in PME FFT.
Info: Updated CUDA force table with 4096 elements.
Info: Updated CUDA LJ table with 6 x 6 elements.
Info: Found 17 unique exclusion lists needing 36 bytes
TCL: Running for 1500000 steps
ETITLE: TS BOND ANGLE DIHED IMPRP ELECT VDW BOUNDARY MISC KINETIC TOTAL TEMP POTENTIAL TOTALAVG TEMPAVG PRESSURE GPRESSURE VOLUME PRESSAVG GPRESSAVG
ENERGY: 0 1.4209 5.9997 0.4068 0.0000 -10738.3481 1482.4427 0.0000 0.0000 1791.2423 -7456.8357 305.8165 -9248.0780 -7456.8357 305.8165 383.4146 466.8682 30335.6608 383.4146 466.8682
ENERGY: 300000 0.7128 5.7920 1.5246 0.0000 -10702.6413 1450.9029 0.0000 0.0000 1773.8191 -7469.8900 302.8419 -9243.7090 -7491.4160 304.7370 289.4468 329.7110 30012.6009 291.7004 353.0887
ENERGY: 600000 0.4530 7.0145 0.8642 0.0000 -10469.3059 1323.8523 0.0000 0.0000 1776.9042 -7360.2177 303.3686 -9137.1219 -7455.1106 304.8148 -412.9598 -391.3056 30514.3601 135.6921 193.5456
ENERGY: 900000 1.2821 7.5073 1.5940 0.0000 -10683.9861 1431.1987 0.0000 0.0000 1747.8121 -7494.5919 298.4017 -9242.4040 -7465.3443 303.1314 -213.7996 -137.3514 30491.8080 139.6623 193.9571
ENERGY: 1200000 0.0977 9.2883 1.2423 0.0000 -10740.7185 1481.7083 0.0000 0.0000 1814.7105 -7433.6715 309.8232 -9248.3819 -7455.2210 304.2501 568.6921 607.5972 30247.7998 182.1882 234.7383
ENERGY: 1500000 4.0333 5.7827 0.5568 0.0000 -10707.2913 1396.8285 0.0000 0.0000 1695.5785 -7604.5116 289.4839 -9300.0901 -7477.7741 302.0813 -542.3557 -448.6475 30071.1743 122.4436 174.0231
TCL: Running FEP window   2: Lambda1 0.95   Lambda2 0.8999999999999999 [dLambda -0.050000000000000044]
TCL: Setting parameter firsttimestep to 0
TCL: Setting parameter alchLambda to 0.95
Info: NONBONDED TABLE R-SQUARED SPACING: 0.0625
Info: NONBONDED TABLE SIZE: 705 POINTS
TCL: Setting parameter alchLambda2 to 0.8999999999999999
Info: NONBONDED TABLE R-SQUARED SPACING: 0.0625
Info: NONBONDED TABLE SIZE: 705 POINTS
TCL: Running for 1500000 steps
ETITLE: TS BOND ANGLE DIHED IMPRP ELECT VDW BOUNDARY MISC KINETIC TOTAL TEMP POTENTIAL TOTALAVG TEMPAVG PRESSURE GPRESSURE VOLUME PRESSAVG GPRESSAVG
ENERGY: 0 4.0333 5.7827 0.5568 0.0000 -10707.0834 1396.9230 0.0000 0.0000 1694.6787 -7605.1090 289.3303 -9299.7877 -7605.1090 289.3303 -533.1215 -461.2852 30071.1743 -533.1215 -461.2852
ENERGY: 300000 0.5472 5.1288 1.6581 0.0000 -10594.3894 1396.3274 0.0000 0.0000 1824.3547 -7366.3732 311.4697 -9190.7279 -7479.3653 301.6435 -324.1615 -208.1138 30833.5550 -138.5646 -76.1745
ENERGY: 600000 0.9919 7.6928 1.7210 0.0000 -10726.8006 1417.0974 0.0000 0.0000 1763.0366 -7536.2610 301.0010 -9299.2976 -7487.2604 302.2635 -115.3843 -66.9142 30082.8364 125.4641 192.3733
ENERGY: 900000 1.1187 4.4953 0.3954 0.0000 -10591.0230 1457.6318 0.0000 0.0000 1780.4961 -7346.8857 303.9818 -9127.3818 -7467.6930 301.4300 372.9458 450.9161 30712.8515 76.6490 154.5103
ENERGY: 1200000 1.4270 7.6913 0.5883 0.0000 -10537.2911 1340.4030 0.0000 0.0000 1718.6080 -7468.5736 293.4157 -9187.1815 -7457.8401 301.1115 -695.2300 -690.5535 30445.4227 -63.7309 9.9454
ENERGY: 1500000 0.5227 3.4337 1.4389 0.0000 -10862.4631 1555.8653 0.0000 0.0000 1785.8048 -7515.3977 304.8882 -9301.2025 -7474.6135 300.7672 1120.6870 1143.8603 29869.3442 -14.2227 51.9767
TCL: Running FEP window   3: Lambda1 0.8999999999999999 Lambda2 0.8499999999999999 [dLambda -0.050000000000000044]
TCL: Setting parameter firsttimestep to 0
TCL: Setting parameter alchLambda to 0.8999999999999999
Info: NONBONDED TABLE R-SQUARED SPACING: 0.0625
Info: NONBONDED TABLE SIZE: 705 POINTS
TCL: Setting parameter alchLambda2 to 0.8499999999999999
Info: NONBONDED TABLE R-SQUARED SPACING: 0.0625
Info: NONBONDED TABLE SIZE: 705 POINTS
TCL: Running for 1500000 steps
ETITLE: TS BOND ANGLE DIHED IMPRP ELECT VDW BOUNDARY MISC KINETIC TOTAL TEMP POTENTIAL TOTALAVG TEMPAVG PRESSURE GPRESSURE VOLUME PRESSAVG GPRESSAVG
ENERGY: 0 0.5227 3.4337 1.4389 0.0000 -10861.9565 1556.1788 0.0000 0.0000 1784.9394 -7515.4429 304.7404 -9300.3824 -7515.4429 304.7404 1074.4931 1136.7697 29869.3442 1074.4931 1136.7697
ENERGY: 300000 0.1299 5.8301 1.7214 0.0000 -10643.6188 1398.1895 0.0000 0.0000 1739.4351 -7498.3128 296.9715 -9237.7479 -7473.8413 301.3807 -286.4367 -244.2063 30232.3306 72.6748 128.0758
ENERGY: 600000 1.0391 5.7674 0.5314 0.0000 -10694.3056 1487.3963 0.0000 0.0000 1743.0439 -7456.5274 297.5877 -9199.5714 -7480.7221 301.1452 474.6424 577.1264 30083.3632 80.6156 131.4800
ENERGY: 900000 1.0689 5.6625 0.3685 0.0000 -10714.5146 1403.7118 0.0000 0.0000 1782.3230 -7521.3800 304.2937 -9303.7029 -7475.5650 301.3476 -658.4633 -565.0760 30636.3645 26.9353 82.5284
ENERGY: 1200000 1.1570 7.6696 0.5707 0.0000 -10675.6514 1466.8099 0.0000 0.0000 1745.8097 -7453.6346 298.0598 -9199.4442 -7470.9789 301.7714 263.2321 357.5567 30151.2174 73.8242 132.8374
ENERGY: 1500000 1.5059 9.1607 1.4392 0.0000 -10552.1006 1377.0882 0.0000 0.0000 1750.7278 -7412.1788 298.8995 -9162.9066 -7464.9465 300.6280 -586.3731 -522.3002 30999.7097 12.1449 71.5622
TCL: Running FEP window   4: Lambda1 0.8499999999999999 Lambda2 0.7999999999999998 [dLambda -0.050000000000000044]
TCL: Setting parameter firsttimestep to 0
TCL: Setting parameter alchLambda to 0.8499999999999999
Info: NONBONDED TABLE R-SQUARED SPACING: 0.0625
Info: NONBONDED TABLE SIZE: 705 POINTS
TCL: Setting parameter alchLambda2 to 0.7999999999999998
Info: NONBONDED TABLE R-SQUARED SPACING: 0.0625
Info: NONBONDED TABLE SIZE: 705 POINTS
TCL: Running for 1500000 steps
ETITLE: TS BOND ANGLE DIHED IMPRP ELECT VDW BOUNDARY MISC KINETIC TOTAL TEMP POTENTIAL TOTALAVG TEMPAVG PRESSURE GPRESSURE VOLUME PRESSAVG GPRESSAVG
ENERGY: 0 1.5059 9.1607 1.4392 0.0000 -10552.1089 1377.3801 0.0000 0.0000 1749.8840 -7412.7390 298.7554 -9162.6230 -7412.7390 298.7554 -614.3762 -528.6555 30999.7097 -614.3762 -528.6555
ENERGY: 300000 0.6466 3.8280 1.7766 0.0000 -10718.2892 1467.6404 0.0000 0.0000 1740.5968 -7503.8009 297.1699 -9244.3977 -7460.1343 298.3669 23.8951 69.0280 30446.9496 -313.5831 -243.2902
ENERGY: 600000 2.3433 10.0375 0.6014 0.0000 -10548.6030 1413.8342 0.0000 0.0000 1742.0680 -7379.7186 297.4210 -9121.7866 -7451.1803 297.6541 8.4981 38.2946 30658.9472 -231.1320 -164.8067
ENERGY: 900000 1.4094 5.7393 0.4616 0.0000 -10644.8983 1419.3875 0.0000 0.0000 1740.7424 -7477.1582 297.1947 -9217.9006 -7453.8815 297.3947 -43.2861 50.8025 30306.5450 -181.0665 -108.5988
ENERGY: 1200000 2.0270 4.6625 0.4483 0.0000 -10617.1067 1401.8522 0.0000 0.0000 1811.7059 -7396.4107 309.3102 -9208.1166 -7445.1636 298.6919 -240.4081 -197.8841 30495.9190 -203.2947 -136.9949
ENERGY: 1500000 3.0578 5.0408 0.6701 0.0000 -10556.9611 1359.8852 0.0000 0.0000 1738.6401 -7449.6670 296.8358 -9188.3071 -7437.8284 299.1880 -677.5222 -623.5629 30329.4691 -244.6191 -188.2544
TCL: Running FEP window   5: Lambda1 0.7999999999999998 Lambda2 0.7499999999999998 [dLambda -0.050000000000000044]
TCL: Setting parameter firsttimestep to 0
TCL: Setting parameter alchLambda to 0.7999999999999998
Info: NONBONDED TABLE R-SQUARED SPACING: 0.0625
Info: NONBONDED TABLE SIZE: 705 POINTS
TCL: Setting parameter alchLambda2 to 0.7499999999999998
Info: NONBONDED TABLE R-SQUARED SPACING: 0.0625
Info: NONBONDED TABLE SIZE: 705 POINTS
TCL: Running for 1500000 steps
ETITLE: TS BOND ANGLE DIHED IMPRP ELECT VDW BOUNDARY MISC KINETIC TOTAL TEMP POTENTIAL TOTALAVG TEMPAVG PRESSURE GPRESSURE VOLUME PRESSAVG GPRESSAVG
ENERGY: 0 3.0578 5.0408 0.6701 0.0000 -10556.9315 1360.4102 0.0000 0.0000 1737.7337 -7450.0188 296.6811 -9187.7526 -7450.0188 296.6811 -710.4909 -628.3539 30329.4691 -710.4909 -628.3539
ENERGY: 300000 1.2954 6.8711 0.4859 0.0000 -10770.0200 1518.5657 0.0000 0.0000 1721.4191 -7521.3827 293.8957 -9242.8018 -7506.8658 296.1525 379.8178 512.9553 30273.3552 -389.4741 -281.5786
ENERGY: 600000 1.5010 7.0193 0.7124 0.0000 -10826.7572 1522.9428 0.0000 0.0000 1767.4921 -7527.0896 301.7617 -9294.5817 -7496.2611 298.0559 491.1132 532.2996 30317.2352 -125.1234 -47.3897
ENERGY: 900000 1.7651 9.7122 1.0669 0.0000 -10569.5294 1364.8728 0.0000 0.0000 1743.6090 -7448.5034 297.6841 -9192.1124 -7472.5330 300.1363 -616.0810 -541.0925 30378.1696 -115.7901 -42.7771
ENERGY: 1200000 1.1691 8.8075 0.9701 0.0000 -10800.7868 1506.5476 0.0000 0.0000 1700.9743 -7582.3182 290.4052 -9283.2925 -7477.7217 299.6901 215.6148 323.4745 30404.8426 -35.3013 38.5665
ENERGY: 1500000 1.0959 4.4837 1.3568 0.0000 -10642.1198 1404.1018 0.0000 0.0000 1740.8912 -7490.1903 297.2201 -9231.0815 -7473.5714 300.2548 -207.5937 -216.6631 30351.5519 -57.9298 3.9210
TCL: Running FEP window   6: Lambda1 0.7499999999999998 Lambda2 0.6999999999999997 [dLambda -0.050000000000000044]
TCL: Setting parameter firsttimestep to 0
TCL: Setting parameter alchLambda to 0.7499999999999998
Info: NONBONDED TABLE R-SQUARED SPACING: 0.0625
Info: NONBONDED TABLE SIZE: 705 POINTS
TCL: Setting parameter alchLambda2 to 0.6999999999999997
Info: NONBONDED TABLE R-SQUARED SPACING: 0.0625
Info: NONBONDED TABLE SIZE: 705 POINTS
TCL: Running for 1500000 steps
ETITLE: TS BOND ANGLE DIHED IMPRP ELECT VDW BOUNDARY MISC KINETIC TOTAL TEMP POTENTIAL TOTALAVG TEMPAVG PRESSURE GPRESSURE VOLUME PRESSAVG GPRESSAVG
ENERGY: 0 1.0959 4.4837 1.3568 0.0000 -10641.9498 1404.6098 0.0000 0.0000 1740.0065 -7490.3969 297.0691 -9230.4035 -7490.3969 297.0691 -311.8017 -217.7443 30351.5519 -311.8017 -217.7443
ENERGY: 300000 2.5801 4.4966 0.9710 0.0000 -10657.9977 1421.9814 0.0000 0.0000 1753.7189 -7474.2498 299.4102 -9227.9687 -7494.4806 296.6167 -304.2705 -280.7873 30633.5806 -79.8767 -24.2581
ENERGY: 600000 2.2309 5.6205 2.1993 0.0000 -10631.3812 1373.6312 0.0000 0.0000 1761.3425 -7486.3569 300.7117 -9247.6993 -7486.7031 299.4961 -868.7150 -774.4063 30824.1567 -172.4721 -109.6706
ENERGY: 900000 2.8959 4.0183 0.3945 0.0000 -10591.3207 1414.8204 0.0000 0.0000 1770.6287 -7398.5629 302.2972 -9169.1916 -7471.9578 301.1282 -12.8738 30.3391 30169.7509 -62.4525 -8.1247
ENERGY: 1200000 1.3787 7.6220 1.9123 0.0000 -10665.6690 1456.0539 0.0000 0.0000 1755.4977 -7443.2043 299.7139 -9198.7020 -7470.8050 300.5908 -12.2366 80.8030 30638.0198 -32.3086 30.2403
ENERGY: 1500000 1.3221 6.3884 0.1879 0.0000 -10624.8410 1408.7263 0.0000 0.0000 1740.3529 -7467.8634 297.1282 -9208.2164 -7470.7854 299.4768 -9.3229 17.6241 30022.8888 -74.0566 -14.4454
TCL: Running FEP window   7: Lambda1 0.6999999999999997 Lambda2 0.6499999999999997 [dLambda -0.050000000000000044]
TCL: Setting parameter firsttimestep to 0
TCL: Setting parameter alchLambda to 0.6999999999999997
Info: NONBONDED TABLE R-SQUARED SPACING: 0.0625
Info: NONBONDED TABLE SIZE: 705 POINTS
TCL: Setting parameter alchLambda2 to 0.6499999999999997
Info: NONBONDED TABLE R-SQUARED SPACING: 0.0625
Info: NONBONDED TABLE SIZE: 705 POINTS
TCL: Running for 1500000 steps
ETITLE: TS BOND ANGLE DIHED IMPRP ELECT VDW BOUNDARY MISC KINETIC TOTAL TEMP POTENTIAL TOTALAVG TEMPAVG PRESSURE GPRESSURE VOLUME PRESSAVG GPRESSAVG
ENERGY: 0 1.3221 6.3884 0.1879 0.0000 -10624.7191 1408.9965 0.0000 0.0000 1739.4603 -7468.3640 296.9758 -9207.8242 -7468.3640 296.9758 -76.0568 10.7117 30022.8888 -76.0568 10.7117
ENERGY: 300000 1.3328 6.1404 1.9304 0.0000 -10672.5331 1463.5615 0.0000 0.0000 1727.4657 -7472.1023 294.9280 -9199.5680 -7454.0942 299.7228 465.1504 504.9126 29862.4773 172.0461 255.9971
ENERGY: 600000 4.5791 7.2796 0.3050 0.0000 -10707.9820 1459.7998 0.0000 0.0000 1747.6934 -7488.3251 298.3815 -9236.0185 -7455.7048 301.4368 209.1339 263.2034 30139.5267 265.2841 336.7269
ENERGY: 900000 0.3306 8.0019 0.6496 0.0000 -10704.1540 1410.4801 0.0000 0.0000 1795.9730 -7488.7188 306.6242 -9284.6918 -7457.5187 302.2229 -153.7381 -116.9925 30049.2295 101.5483 179.9150
ENERGY: 1200000 0.4555 3.6480 1.5855 0.0000 -10557.2780 1384.0401 0.0000 0.0000 1798.0681 -7369.4808 306.9819 -9167.5489 -7459.3202 301.7494 -313.8467 -277.2723 30502.6657 72.9460 143.7477
ENERGY: 1500000 3.3488 4.3573 1.3235 0.0000 -10673.1432 1398.7216 0.0000 0.0000 1721.2075 -7544.1845 293.8596 -9265.3920 -7468.1619 301.0347 -506.1360 -484.6543 30407.7161 25.2241 92.6095
TCL: Running FEP window   8: Lambda1 0.6499999999999997 Lambda2 0.5999999999999996 [dLambda -0.050000000000000044]
TCL: Setting parameter firsttimestep to 0
TCL: Setting parameter alchLambda to 0.6499999999999997
Info: NONBONDED TABLE R-SQUARED SPACING: 0.0625
Info: NONBONDED TABLE SIZE: 705 POINTS
TCL: Setting parameter alchLambda2 to 0.5999999999999996
Info: NONBONDED TABLE R-SQUARED SPACING: 0.0625
Info: NONBONDED TABLE SIZE: 705 POINTS
TCL: Running for 1500000 steps
ETITLE: TS BOND ANGLE DIHED IMPRP ELECT VDW BOUNDARY MISC KINETIC TOTAL TEMP POTENTIAL TOTALAVG TEMPAVG PRESSURE GPRESSURE VOLUME PRESSAVG GPRESSAVG
ENERGY: 0 3.3488 4.3573 1.3235 0.0000 -10673.2235 1399.0712 0.0000 0.0000 1720.3461 -7544.7766 293.7125 -9265.1227 -7544.7766 293.7125 -566.6980 -492.1382 30407.7161 -566.6980 -492.1382
ENERGY: 300000 1.8106 5.4598 1.1311 0.0000 -10625.9283 1419.5875 0.0000 0.0000 1717.6498 -7480.2896 293.2521 -9197.9394 -7466.8988 300.3864 -459.1381 -375.7471 30985.7003 164.4090 225.6618
ENERGY: 600000 4.1898 12.1858 1.7548 0.0000 -10849.8791 1527.8490 0.0000 0.0000 1774.0481 -7529.8515 302.8810 -9303.8996 -7489.3586 299.3592 606.6536 680.1924 29822.8025 165.6354 237.3859
ENERGY: 900000 1.5929 8.3741 0.4523 0.0000 -10595.8282 1328.2763 0.0000 0.0000 1791.3268 -7465.8057 305.8309 -9257.1325 -7483.7739 300.4272 -1005.8745 -923.9547 30659.6036 -104.3924 -32.3829
ENERGY: 1200000 2.3098 7.1900 0.9169 0.0000 -10617.2977 1428.7843 0.0000 0.0000 1802.0241 -7376.0725 307.6573 -9178.0966 -7482.3477 299.8267 61.1672 53.4556 30664.4730 -116.5289 -54.2215
ENERGY: 1500000 1.7567 5.7087 1.0948 0.0000 -10580.2139 1416.5692 0.0000 0.0000 1782.4378 -7372.6467 304.3133 -9155.0845 -7472.8863 300.6218 -214.1218 -130.9897 31048.6430 -153.4002 -90.8349
TCL: Running FEP window   9: Lambda1 0.5999999999999996 Lambda2 0.5499999999999996 [dLambda -0.050000000000000044]
TCL: Setting parameter firsttimestep to 0
TCL: Setting parameter alchLambda to 0.5999999999999996
Info: NONBONDED TABLE R-SQUARED SPACING: 0.0625
Info: NONBONDED TABLE SIZE: 705 POINTS
TCL: Setting parameter alchLambda2 to 0.5499999999999996
Info: NONBONDED TABLE R-SQUARED SPACING: 0.0625
Info: NONBONDED TABLE SIZE: 705 POINTS
TCL: Running for 1500000 steps
ETITLE: TS BOND ANGLE DIHED IMPRP ELECT VDW BOUNDARY MISC KINETIC TOTAL TEMP POTENTIAL TOTALAVG TEMPAVG PRESSURE GPRESSURE VOLUME PRESSAVG GPRESSAVG
ENERGY: 0 1.7567 5.7087 1.0948 0.0000 -10580.2822 1416.4750 0.0000 0.0000 1781.5581 -7373.6890 304.1631 -9155.2470 -7373.6890 304.1631 -217.8711 -139.3729 31048.6430 -217.8711 -139.3729
ENERGY: 300000 1.0618 7.1143 0.5765 0.0000 -10680.3879 1442.9695 0.0000 0.0000 1728.4478 -7500.2181 295.0957 -9228.6659 -7453.1703 301.5591 -176.2426 -105.8557 30703.5869 -410.6885 -345.4292
ENERGY: 600000 0.6069 7.4650 2.0957 0.0000 -10672.3331 1486.2437 0.0000 0.0000 1742.8892 -7433.0328 297.5612 -9175.9219 -7457.9923 300.5712 628.7031 626.7669 30220.3821 -312.8851 -250.0448
ENERGY: 900000 0.9727 3.9545 0.9228 0.0000 -10613.5405 1383.1634 0.0000 0.0000 1689.7745 -7534.7527 288.4930 -9224.5272 -7469.4870 299.0867 -404.9054 -330.8887 30283.9298 -236.4224 -171.6439
ENERGY: 1200000 0.3925 4.6839 3.0629 0.0000 -10701.2835 1465.7996 0.0000 0.0000 1705.9097 -7521.4349 291.2478 -9227.3446 -7476.9537 297.8608 -95.4843 10.6105 30697.8814 -197.1618 -126.9221
ENERGY: 1500000 1.3296 7.4859 1.1307 0.0000 -10623.3394 1399.0092 0.0000 0.0000 1735.2339 -7479.1500 296.2543 -9214.3839 -7483.5050 298.0224 -317.9376 -281.2411 30432.0852 -217.3572 -158.2885
TCL: Running FEP window  10: Lambda1 0.5499999999999996 Lambda2 0.4999999999999996 [dLambda -0.04999999999999999]
TCL: Setting parameter firsttimestep to 0
TCL: Setting parameter alchLambda to 0.5499999999999996
Info: NONBONDED TABLE R-SQUARED SPACING: 0.0625
Info: NONBONDED TABLE SIZE: 705 POINTS
TCL: Setting parameter alchLambda2 to 0.4999999999999996
Info: NONBONDED TABLE R-SQUARED SPACING: 0.0625
Info: NONBONDED TABLE SIZE: 705 POINTS
TCL: Running for 1500000 steps
ETITLE: TS BOND ANGLE DIHED IMPRP ELECT VDW BOUNDARY MISC KINETIC TOTAL TEMP POTENTIAL TOTALAVG TEMPAVG PRESSURE GPRESSURE VOLUME PRESSAVG GPRESSAVG
ENERGY: 0 1.3296 7.4859 1.1307 0.0000 -10623.4047 1399.3971 0.0000 0.0000 1734.3865 -7479.6749 296.1096 -9214.0614 -7479.6749 296.1096 -389.4330 -282.8162 30432.0852 -389.4330 -282.8162
ENERGY: 300000 2.1334 8.1360 3.0068 0.0000 -10705.6410 1437.6020 0.0000 0.0000 1741.7365 -7513.0263 297.3644 -9254.7629 -7481.3931 300.7920 22.4877 -4.0776 30030.3352 -148.1561 -89.4481
ENERGY: 600000 1.1946 8.1721 1.5458 0.0000 -10482.7076 1373.3953 0.0000 0.0000 1755.3061 -7343.0936 299.6812 -9098.3997 -7451.3128 299.9080 -406.7657 -310.0029 30739.2349 -130.7413 -78.0299
ENERGY: 900000 1.5716 7.7049 2.1992 0.0000 -10735.2886 1474.8819 0.0000 0.0000 1760.6381 -7488.2930 300.5915 -9248.9311 -7466.7625 299.0231 325.4216 406.0598 30182.9456 -50.1368 -4.5664
ENERGY: 1200000 1.7892 6.7941 0.4277 0.0000 -10619.8727 1442.1175 0.0000 0.0000 1802.8097 -7365.9344 307.7914 -9168.7442 -7456.9218 300.0627 354.4710 430.7286 29901.5486 -36.3082 13.0539
ENERGY: 1500000 0.9634 5.8560 3.3014 0.0000 -10667.3362 1418.4142 0.0000 0.0000 1755.8806 -7482.9206 299.7792 -9238.8012 -7464.5490 300.1926 42.5239 30.1479 30174.7760 -92.0536 -50.3571
TCL: Running FEP window  11: Lambda1 0.4999999999999996 Lambda2 0.4499999999999996 [dLambda -0.04999999999999999]
TCL: Setting parameter firsttimestep to 0
TCL: Setting parameter alchLambda to 0.4999999999999996
Info: NONBONDED TABLE R-SQUARED SPACING: 0.0625
Info: NONBONDED TABLE SIZE: 705 POINTS
TCL: Setting parameter alchLambda2 to 0.4499999999999996
Info: NONBONDED TABLE R-SQUARED SPACING: 0.0625
Info: NONBONDED TABLE SIZE: 705 POINTS
TCL: Running for 1500000 steps
ETITLE: TS BOND ANGLE DIHED IMPRP ELECT VDW BOUNDARY MISC KINETIC TOTAL TEMP POTENTIAL TOTALAVG TEMPAVG PRESSURE GPRESSURE VOLUME PRESSAVG GPRESSAVG
ENERGY: 0 0.9634 5.8560 3.3014 0.0000 -10667.2835 1418.9969 0.0000 0.0000 1755.0229 -7483.1429 299.6328 -9238.1658 -7483.1429 299.6328 -56.0049 30.9638 30174.7760 -56.0049 30.9638
ENERGY: 300000 0.7149 5.3596 0.8822 0.0000 -10725.8061 1466.4494 0.0000 0.0000 1735.8551 -7516.5449 296.3603 -9252.4000 -7507.5428 298.0163 518.3357 493.2078 29935.3057 199.0581 257.6062
ENERGY: 600000 1.2206 7.0366 1.2930 0.0000 -10622.7384 1367.1274 0.0000 0.0000 1782.1145 -7463.9464 304.2581 -9246.0608 -7512.7024 299.5830 -419.3772 -351.0842 29962.3611 3.9696 72.8309
ENERGY: 900000 1.2801 9.0603 1.2959 0.0000 -10719.0966 1462.3013 0.0000 0.0000 1718.3079 -7526.8511 293.3645 -9245.1590 -7499.8634 299.3133 190.5648 244.8917 30028.6725 73.8087 140.4446
ENERGY: 1200000 0.7945 7.7995 1.0030 0.0000 -10629.6381 1377.9934 0.0000 0.0000 1768.1864 -7473.8613 301.8802 -9242.0478 -7490.0096 299.4176 -595.7661 -526.4258 30527.3677 -46.6469 11.2361
ENERGY: 1500000 2.1213 6.2518 1.4393 0.0000 -10664.7971 1428.9909 0.0000 0.0000 1739.6165 -7486.3773 297.0025 -9225.9938 -7485.9859 299.3250 -293.5731 -222.3526 30612.1254 -92.1528 -34.1653
TCL: Running FEP window  12: Lambda1 0.4499999999999996 Lambda2 0.39999999999999963 [dLambda -0.04999999999999999]
TCL: Setting parameter firsttimestep to 0
TCL: Setting parameter alchLambda to 0.4499999999999996
Info: NONBONDED TABLE R-SQUARED SPACING: 0.0625
Info: NONBONDED TABLE SIZE: 705 POINTS
TCL: Setting parameter alchLambda2 to 0.39999999999999963
Info: NONBONDED TABLE R-SQUARED SPACING: 0.0625
Info: NONBONDED TABLE SIZE: 705 POINTS
TCL: Running for 1500000 steps
ETITLE: TS BOND ANGLE DIHED IMPRP ELECT VDW BOUNDARY MISC KINETIC TOTAL TEMP POTENTIAL TOTALAVG TEMPAVG PRESSURE GPRESSURE VOLUME PRESSAVG GPRESSAVG
ENERGY: 0 2.1213 6.2518 1.4393 0.0000 -10664.7973 1429.0979 0.0000 0.0000 1738.7275 -7487.1594 296.8507 -9225.8869 -7487.1594 296.8507 -310.1266 -228.8918 30612.1254 -310.1266 -228.8918
ENERGY: 300000 0.9266 7.8456 1.4193 0.0000 -10504.5417 1357.7647 0.0000 0.0000 1721.6601 -7414.9254 293.9368 -9136.5855 -7451.2711 297.0834 -419.7198 -386.8412 30511.1573 -226.8336 -155.8502
ENERGY: 600000 0.3242 7.4128 1.0484 0.0000 -10692.5738 1442.7922 0.0000 0.0000 1744.5335 -7496.4627 297.8420 -9240.9962 -7437.4540 299.9537 111.5683 130.8417 29947.9267 -195.5623 -134.5200
ENERGY: 900000 0.4816 5.0356 0.8065 0.0000 -10584.7147 1355.7493 0.0000 0.0000 1739.6795 -7482.9622 297.0132 -9222.6418 -7454.8480 299.9899 -679.9360 -603.7920 30270.7485 -261.9307 -211.6830
ENERGY: 1200000 2.0503 5.0005 0.3354 0.0000 -10749.3405 1491.9277 0.0000 0.0000 1754.4907 -7495.5359 299.5419 -9250.0266 -7461.2814 301.0459 565.3592 605.5711 29874.0101 -95.4082 -43.6385
ENERGY: 1500000 1.1898 5.3178 1.5585 0.0000 -10826.0230 1541.0932 0.0000 0.0000 1756.6166 -7520.2472 299.9049 -9276.8637 -7473.9607 300.6177 890.6367 910.0314 29894.1114 -46.0019 5.7584
TCL: Running FEP window  13: Lambda1 0.39999999999999963 Lambda2 0.34999999999999964 [dLambda -0.04999999999999999]
TCL: Setting parameter firsttimestep to 0
TCL: Setting parameter alchLambda to 0.39999999999999963
Info: NONBONDED TABLE R-SQUARED SPACING: 0.0625
Info: NONBONDED TABLE SIZE: 705 POINTS
TCL: Setting parameter alchLambda2 to 0.34999999999999964
Info: NONBONDED TABLE R-SQUARED SPACING: 0.0625
Info: NONBONDED TABLE SIZE: 705 POINTS
TCL: Running for 1500000 steps
ETITLE: TS BOND ANGLE DIHED IMPRP ELECT VDW BOUNDARY MISC KINETIC TOTAL TEMP POTENTIAL TOTALAVG TEMPAVG PRESSURE GPRESSURE VOLUME PRESSAVG GPRESSAVG
ENERGY: 0 1.1898 5.3178 1.5585 0.0000 -10826.0220 1541.2531 0.0000 0.0000 1755.7209 -7520.9820 299.7520 -9276.7029 -7520.9820 299.7520 822.6978 907.2988 29894.1114 822.6978 907.2988
ENERGY: 300000 4.2475 5.1387 0.5482 0.0000 -10528.7486 1378.8398 0.0000 0.0000 1710.8447 -7429.1296 292.0903 -9139.9743 -7465.1885 298.5044 -520.8673 -462.6298 30480.4030 291.8548 360.5141
ENERGY: 600000 1.8965 8.1454 2.5156 0.0000 -10881.0292 1568.4511 0.0000 0.0000 1769.0806 -7530.9401 302.0329 -9300.0206 -7471.3141 301.7844 1012.3366 1062.6465 29764.8312 228.3644 286.7006
ENERGY: 900000 0.3870 6.4068 0.6506 0.0000 -10780.6560 1501.5176 0.0000 0.0000 1727.9476 -7543.7466 295.0103 -9271.6941 -7491.5257 299.9729 209.7594 291.9235 30369.6089 80.2654 148.9377
ENERGY: 1200000 0.5267 6.8698 0.4894 0.0000 -10754.3607 1596.0133 0.0000 0.0000 1768.6398 -7381.8217 301.9576 -9150.4615 -7483.4533 300.1956 1411.4040 1467.9566 30264.4723 197.0759 266.4144
ENERGY: 1500000 3.2906 4.8888 0.4371 0.0000 -10421.0381 1334.1082 0.0000 0.0000 1770.6060 -7307.7073 302.2933 -9078.3133 -7464.9718 300.4167 -848.1209 -788.9595 31113.0905 173.9940 238.9948
TCL: Running FEP window  14: Lambda1 0.34999999999999964 Lambda2 0.29999999999999966 [dLambda -0.04999999999999999]
TCL: Setting parameter firsttimestep to 0
TCL: Setting parameter alchLambda to 0.34999999999999964
Info: NONBONDED TABLE R-SQUARED SPACING: 0.0625
Info: NONBONDED TABLE SIZE: 705 POINTS
TCL: Setting parameter alchLambda2 to 0.29999999999999966
Info: NONBONDED TABLE R-SQUARED SPACING: 0.0625
Info: NONBONDED TABLE SIZE: 705 POINTS
TCL: Running for 1500000 steps
ETITLE: TS BOND ANGLE DIHED IMPRP ELECT VDW BOUNDARY MISC KINETIC TOTAL TEMP POTENTIAL TOTALAVG TEMPAVG PRESSURE GPRESSURE VOLUME PRESSAVG GPRESSAVG
ENERGY: 0 3.2906 4.8888 0.4371 0.0000 -10421.0371 1334.1291 0.0000 0.0000 1769.7221 -7308.5693 302.1424 -9078.2915 -7308.5693 302.1424 -872.2016 -791.4013 31113.0905 -872.2016 -791.4013
ENERGY: 300000 0.6925 5.9920 1.4198 0.0000 -10734.2253 1522.7314 0.0000 0.0000 1823.0474 -7380.3422 311.2465 -9203.3896 -7409.8734 305.9253 482.6101 634.0629 30858.5839 -286.1983 -178.4601
ENERGY: 600000 1.7406 6.7262 2.1161 0.0000 -10692.2531 1438.4397 0.0000 0.0000 1817.2977 -7425.9327 310.2649 -9243.2304 -7408.8676 306.0193 -34.2882 5.9928 30405.9668 -291.1024 -192.7753
ENERGY: 900000 1.6370 4.4703 2.4724 0.0000 -10723.4164 1423.2005 0.0000 0.0000 1845.4678 -7446.1683 315.0744 -9291.6361 -7411.6607 305.4248 97.4896 180.7045 29694.1112 -199.8826 -109.2944
ENERGY: 1200000 2.1240 8.3449 1.0460 0.0000 -10474.6809 1308.8079 0.0000 0.0000 1804.2562 -7350.1020 308.0383 -9154.3582 -7395.2570 305.6446 -806.7643 -760.8743 30544.1561 -244.9958 -163.4738
ENERGY: 1500000 1.8099 6.6601 2.6457 0.0000 -10538.9096 1383.1807 0.0000 0.0000 1787.9063 -7356.7070 305.2469 -9144.6133 -7401.7043 305.5245 -479.7901 -361.0198 30861.9326 -223.8916 -144.8537
TCL: Running FEP window  15: Lambda1 0.29999999999999966 Lambda2 0.24999999999999967 [dLambda -0.04999999999999999]
TCL: Setting parameter firsttimestep to 0
TCL: Setting parameter alchLambda to 0.29999999999999966
Info: NONBONDED TABLE R-SQUARED SPACING: 0.0625
Info: NONBONDED TABLE SIZE: 705 POINTS
TCL: Setting parameter alchLambda2 to 0.24999999999999967
Info: NONBONDED TABLE R-SQUARED SPACING: 0.0625
Info: NONBONDED TABLE SIZE: 705 POINTS
TCL: Running for 1500000 steps
ETITLE: TS BOND ANGLE DIHED IMPRP ELECT VDW BOUNDARY MISC KINETIC TOTAL TEMP POTENTIAL TOTALAVG TEMPAVG PRESSURE GPRESSURE VOLUME PRESSAVG GPRESSAVG
ENERGY: 0 1.8099 6.6601 2.6457 0.0000 -10538.9097 1383.4876 0.0000 0.0000 1786.9976 -7357.3087 305.0918 -9144.3064 -7357.3087 305.0918 -449.5516 -362.0153 30861.9326 -449.5516 -362.0153
ENERGY: 300000 1.0458 7.7218 1.8183 0.0000 -10667.0867 1436.4129 0.0000 0.0000 1790.9896 -7429.0983 305.7734 -9220.0878 -7369.7650 308.4446 142.9707 157.8465 29796.3426 181.5268 240.0395
ENERGY: 600000 2.2679 4.4151 0.1468 0.0000 -10689.7426 1478.1683 0.0000 0.0000 1746.4717 -7458.2727 298.1729 -9204.7444 -7406.4685 304.5916 255.0233 269.2276 30546.5870 192.0607 251.1544
ENERGY: 900000 1.3107 4.9189 0.6703 0.0000 -10686.4270 1404.2124 0.0000 0.0000 1806.4905 -7468.8243 308.4198 -9275.3148 -7425.9368 303.8819 -285.4800 -185.7489 29958.8162 -58.0114 -2.9679
ENERGY: 1200000 1.9111 4.4758 1.8904 0.0000 -10649.9861 1421.0051 0.0000 0.0000 1780.1843 -7440.5195 303.9286 -9220.7038 -7430.0958 302.7671 -137.3700 -83.4473 30279.1543 -6.1739 48.9268
ENERGY: 1500000 0.7637 4.4367 0.2706 0.0000 -10724.4536 1415.5022 0.0000 0.0000 1736.8657 -7566.6146 296.5328 -9303.4803 -7444.7956 301.8914 -406.2253 -367.6226 30609.4394 -52.4310 3.1067
TCL: Running FEP window  16: Lambda1 0.24999999999999967 Lambda2 0.19999999999999968 [dLambda -0.04999999999999999]
TCL: Setting parameter firsttimestep to 0
TCL: Setting parameter alchLambda to 0.24999999999999967
Info: NONBONDED TABLE R-SQUARED SPACING: 0.0625
Info: NONBONDED TABLE SIZE: 705 POINTS
TCL: Setting parameter alchLambda2 to 0.19999999999999968
Info: NONBONDED TABLE R-SQUARED SPACING: 0.0625
Info: NONBONDED TABLE SIZE: 705 POINTS
TCL: Running for 1500000 steps
ETITLE: TS BOND ANGLE DIHED IMPRP ELECT VDW BOUNDARY MISC KINETIC TOTAL TEMP POTENTIAL TOTALAVG TEMPAVG PRESSURE GPRESSURE VOLUME PRESSAVG GPRESSAVG
ENERGY: 0 0.7637 4.4367 0.2706 0.0000 -10724.4531 1415.9127 0.0000 0.0000 1735.9651 -7567.1043 296.3791 -9303.0694 -7567.1043 296.3791 -443.8909 -367.5719 30609.4394 -443.8909 -367.5719
ENERGY: 300000 0.5957 8.3570 1.2103 0.0000 -10731.9217 1492.2629 0.0000 0.0000 1776.9845 -7452.5114 303.3823 -9229.4958 -7493.6606 302.6616 476.9821 514.1360 29989.1151 -57.9364 22.8143
ENERGY: 600000 2.2151 8.6528 1.0932 0.0000 -10665.7636 1481.3625 0.0000 0.0000 1763.0678 -7409.3722 301.0063 -9172.4399 -7485.3696 300.6742 263.0304 226.5365 30790.9581 -94.9479 -31.5780
ENERGY: 900000 0.8274 5.9001 1.3702 0.0000 -10667.7749 1439.7290 0.0000 0.0000 1753.4910 -7466.4572 299.3713 -9219.9482 -7473.3961 300.5992 94.9635 128.5923 30112.8424 -51.0306 19.1795
ENERGY: 1200000 0.3189 5.3631 2.6743 0.0000 -10819.3252 1552.1813 0.0000 0.0000 1801.7861 -7457.0016 307.6166 -9258.7876 -7476.0183 301.1148 793.7187 871.9111 30206.5285 -75.2222 3.7698
ENERGY: 1500000 1.5809 3.0939 0.6554 0.0000 -10634.7447 1414.8394 0.0000 0.0000 1775.8523 -7438.7228 303.1890 -9214.5751 -7471.5210 301.0838 67.6635 103.2074 29877.7230 -149.5164 -68.6136
TCL: Running FEP window  17: Lambda1 0.19999999999999968 Lambda2 0.1499999999999997 [dLambda -0.04999999999999999]
TCL: Setting parameter firsttimestep to 0
TCL: Setting parameter alchLambda to 0.19999999999999968
Info: NONBONDED TABLE R-SQUARED SPACING: 0.0625
Info: NONBONDED TABLE SIZE: 705 POINTS
TCL: Setting parameter alchLambda2 to 0.1499999999999997
Info: NONBONDED TABLE R-SQUARED SPACING: 0.0625
Info: NONBONDED TABLE SIZE: 705 POINTS
TCL: Running for 1500000 steps
ETITLE: TS BOND ANGLE DIHED IMPRP ELECT VDW BOUNDARY MISC KINETIC TOTAL TEMP POTENTIAL TOTALAVG TEMPAVG PRESSURE GPRESSURE VOLUME PRESSAVG GPRESSAVG
ENERGY: 0 1.5809 3.0939 0.6554 0.0000 -10634.7440 1415.2131 0.0000 0.0000 1774.9457 -7439.2550 303.0342 -9214.2007 -7439.2550 303.0342 19.7839 102.5145 29877.7230 19.7839 102.5145
ENERGY: 300000 0.9613 6.4348 0.7516 0.0000 -10743.6134 1437.8994 0.0000 0.0000 1770.3516 -7527.2147 302.2499 -9297.5663 -7471.5401 300.4834 -191.1391 -164.5109 30200.3866 -65.0575 -0.7332
ENERGY: 600000 1.5729 4.6102 0.4466 0.0000 -10722.8567 1480.3405 0.0000 0.0000 1703.4958 -7532.3907 290.8356 -9235.8864 -7496.9396 299.7074 -75.4132 3.9553 30523.1376 -57.2767 3.7509
ENERGY: 900000 0.4231 9.2401 1.8316 0.0000 -10720.2520 1442.3688 0.0000 0.0000 1746.0677 -7520.3208 298.1039 -9266.3885 -7510.2143 298.0332 24.0923 20.5353 30133.8608 -71.6510 -16.2851
ENERGY: 1200000 1.6778 5.8828 1.5288 0.0000 -10670.7233 1467.0709 0.0000 0.0000 1770.6031 -7423.9599 302.2928 -9194.5630 -7503.2641 297.3190 199.2313 291.1105 30431.8268 -124.3399 -62.4943
ENERGY: 1500000 1.2770 8.5177 1.5559 0.0000 -10801.9788 1542.5891 0.0000 0.0000 1768.5375 -7479.5016 301.9401 -9248.0390 -7493.5894 298.3226 818.2042 783.0249 29999.8024 -90.0626 -40.8397
TCL: Running FEP window  18: Lambda1 0.1499999999999997 Lambda2 0.09999999999999969 [dLambda -0.05 ]
TCL: Setting parameter firsttimestep to 0
TCL: Setting parameter alchLambda to 0.1499999999999997
Info: NONBONDED TABLE R-SQUARED SPACING: 0.0625
Info: NONBONDED TABLE SIZE: 705 POINTS
TCL: Setting parameter alchLambda2 to 0.09999999999999969
Info: NONBONDED TABLE R-SQUARED SPACING: 0.0625
Info: NONBONDED TABLE SIZE: 705 POINTS
TCL: Running for 1500000 steps
ETITLE: TS BOND ANGLE DIHED IMPRP ELECT VDW BOUNDARY MISC KINETIC TOTAL TEMP POTENTIAL TOTALAVG TEMPAVG PRESSURE GPRESSURE VOLUME PRESSAVG GPRESSAVG
ENERGY: 0 1.2770 8.5177 1.5559 0.0000 -10801.9796 1542.4144 0.0000 0.0000 1767.6384 -7480.5761 301.7866 -9248.2145 -7480.5761 301.7866 691.7599 777.9621 29999.8024 691.7599 777.9621
ENERGY: 300000 1.5674 5.0644 1.6338 0.0000 -10685.5106 1486.6424 0.0000 0.0000 1767.8575 -7422.7450 301.8240 -9190.6026 -7473.4404 301.2768 703.6540 738.0554 30113.0879 352.9441 405.1214
ENERGY: 600000 2.4665 7.9666 1.1323 0.0000 -10643.8321 1398.6840 0.0000 0.0000 1753.9309 -7479.6518 299.4464 -9233.5827 -7484.2883 300.0136 -351.2545 -272.9075 30397.1992 89.9861 151.1080
ENERGY: 900000 0.7847 5.6646 2.3073 0.0000 -10688.3528 1450.2017 0.0000 0.0000 1759.5587 -7469.8359 300.4072 -9229.3945 -7479.8375 299.7760 170.8645 220.2343 30016.2487 62.6731 123.5678
ENERGY: 1200000 2.5982 6.3491 1.0068 0.0000 -10759.1554 1458.7804 0.0000 0.0000 1755.8016 -7534.6192 299.7657 -9290.4208 -7475.1358 299.8509 -133.7265 -68.8182 30125.6450 114.9943 182.3040
ENERGY: 1500000 1.1420 4.2963 0.9760 0.0000 -10615.0678 1390.0584 0.0000 0.0000 1768.4506 -7450.1445 301.9253 -9218.5951 -7477.2573 299.4862 -596.3026 -581.2682 30690.0431 111.4835 181.2092
TCL: Running FEP window  19: Lambda1 0.09999999999999969 Lambda2 0.049999999999999684 [dLambda -0.05 ]
TCL: Setting parameter firsttimestep to 0
TCL: Setting parameter alchLambda to 0.09999999999999969
Info: NONBONDED TABLE R-SQUARED SPACING: 0.0625
Info: NONBONDED TABLE SIZE: 705 POINTS
TCL: Setting parameter alchLambda2 to 0.049999999999999684
Info: NONBONDED TABLE R-SQUARED SPACING: 0.0625
Info: NONBONDED TABLE SIZE: 705 POINTS
TCL: Running for 1500000 steps
ETITLE: TS BOND ANGLE DIHED IMPRP ELECT VDW BOUNDARY MISC KINETIC TOTAL TEMP POTENTIAL TOTALAVG TEMPAVG PRESSURE GPRESSURE VOLUME PRESSAVG GPRESSAVG
ENERGY: 0 1.1420 4.2963 0.9760 0.0000 -10615.0690 1389.8229 0.0000 0.0000 1767.5735 -7451.2583 301.7756 -9218.8318 -7451.2583 301.7756 -672.6016 -585.3950 30690.0431 -672.6016 -585.3950
ENERGY: 300000 1.1017 5.2553 1.4012 0.0000 -10727.1160 1418.0169 0.0000 0.0000 1723.7111 -7577.6299 294.2870 -9301.3410 -7469.6635 301.6551 -212.8044 -59.0257 29768.7009 -501.7968 -407.6387
ENERGY: 600000 0.8089 12.3696 0.2312 0.0000 -10571.0923 1369.6566 0.0000 0.0000 1738.7256 -7449.3005 296.8504 -9188.0261 -7471.7510 300.0049 -705.2025 -721.1822 30793.1801 -545.5903 -479.5631
ENERGY: 900000 2.0712 7.1577 1.0289 0.0000 -10495.8753 1386.1942 0.0000 0.0000 1722.5135 -7376.9099 294.0825 -9099.4234 -7459.8286 300.6483 -395.9307 -288.3121 30811.5154 -397.5926 -332.1344
ENERGY: 1200000 0.5820 6.0182 0.9832 0.0000 -10552.6782 1392.4180 0.0000 0.0000 1695.4598 -7457.2170 289.4637 -9152.6769 -7465.2894 299.1140 -420.0269 -322.3358 30669.7058 -250.9812 -185.7046
ENERGY: 1500000 0.4125 3.6501 2.2442 0.0000 -10608.1287 1505.3589 0.0000 0.0000 1759.5018 -7336.9610 300.3975 -9096.4628 -7461.3358 299.7288 689.3344 735.6889 30799.0918 -162.3123 -97.2131
TCL: Running FEP window  20: Lambda1 0.049999999999999684 Lambda2 0.0    [dLambda -0.049999999999999684]
TCL: Setting parameter firsttimestep to 0
TCL: Setting parameter alchLambda to 0.049999999999999684
Info: NONBONDED TABLE R-SQUARED SPACING: 0.0625
Info: NONBONDED TABLE SIZE: 705 POINTS
TCL: Setting parameter alchLambda2 to 0.0
Info: NONBONDED TABLE R-SQUARED SPACING: 0.0625
Info: NONBONDED TABLE SIZE: 705 POINTS
TCL: Running for 1500000 steps
ETITLE: TS BOND ANGLE DIHED IMPRP ELECT VDW BOUNDARY MISC KINETIC TOTAL TEMP POTENTIAL TOTALAVG TEMPAVG PRESSURE GPRESSURE VOLUME PRESSAVG GPRESSAVG
ENERGY: 0 0.4125 3.6501 2.2442 0.0000 -10608.1303 1505.1293 0.0000 0.0000 1758.6492 -7338.0449 300.2519 -9096.6941 -7338.0449 300.2519 657.1123 732.0182 30799.0918 657.1123 732.0182
ENERGY: 300000 1.3137 3.9229 1.2032 0.0000 -10746.9166 1500.7237 0.0000 0.0000 1816.9162 -7422.8369 310.1998 -9239.7531 -7446.9726 300.6117 234.5001 269.9119 30769.5789 386.6901 444.0182
ENERGY: 600000 1.7531 9.3762 1.5785 0.0000 -10768.1336 1470.1948 0.0000 0.0000 1777.5436 -7507.6874 303.4777 -9285.2310 -7444.0567 301.8142 -47.0972 16.7173 30308.8891 44.8825 118.2914
ENERGY: 900000 3.7205 4.0339 0.6648 0.0000 -10609.7804 1374.3158 0.0000 0.0000 1757.8659 -7469.1796 300.1182 -9227.0455 -7446.7334 301.8267 -420.7282 -374.6706 30042.5064 -71.8695 -3.7276
ENERGY: 1200000 0.8964 4.3905 1.6974 0.0000 -10553.8425 1335.9520 0.0000 0.0000 1737.7805 -7473.1257 296.6890 -9210.9062 -7448.6907 300.9155 -903.2471 -794.6366 30198.6957 -165.7960 -95.4043
ENERGY: 1500000 0.6352 4.7808 2.5196 0.0000 -10700.1122 1461.2010 0.0000 0.0000 1782.4500 -7448.5257 304.3154 -9230.9756 -7450.7369 300.2352 121.9561 224.8957 30260.2321 -89.7228 -16.0145
TCL: Exiting due to exit command.
