Info: SIMULATION PARAMETERS:
Info: TIMESTEP               2
Info: NUMBER OF STEPS        0
Info: STEPS PER CYCLE        10
Info: PERIODIC CELL BASIS 1  31.7236 0 0
Info: PERIODIC CELL BASIS 2  0 31.2847 0
Info: PERIODIC CELL BASIS 3  0 0 29.9294
Info: PERIODIC CELL CENTER   0 0 0
Info: WRAPPING WATERS AROUND PERIODIC BOUNDARIES ON OUTPUT.
Info: WRAPPING ALL CLUSTERS AROUND PERIODIC BOUNDARIES ON OUTPUT.
Info: FIRST LDB TIMESTEP     50
Info: LAST LDB TIMESTEP     -1
Info: HOM BACKGROUND SCALING 1
Info: PME BACKGROUND SCALING 1
Info: MIN ATOMS PER PATCH    40
Info: EMPTY PATCH LOAD       40 ATOMS
Info: VELOCITY FILE          mobley_4043951_equil.vel
Info: CENTER OF MASS MOVING INITIALLY? NO
Info: DIELECTRIC             1
Info: EXCLUDE                SCALED ONE-FOUR
Info: 1-4 ELECTROSTATICS SCALED BY 0.833333
Info: MODIFIED 1-4 VDW PARAMETERS WILL BE USED
Info: DCD FILENAME           mobley_4043951_prod.dcd
Info: DCD FREQUENCY          100000
Info: DCD FIRST STEP         100000
Info: DCD FILE WILL CONTAIN UNIT CELL DATA
Info: XST FILENAME           mobley_4043951_prod.xst
Info: XST FREQUENCY          100000
Info: NO VELOCITY DCD OUTPUT
Info: NO FORCE DCD OUTPUT
Info: OUTPUT FILENAME        mobley_4043951_prod
Info: BINARY OUTPUT FILES WILL BE USED
Info: RESTART FILENAME       mobley_4043951_prod.restart
Info: RESTART FREQUENCY      100000
Info: BINARY RESTART FILES WILL BE USED
Info: CUTOFF                 9
Info: PAIRLIST DISTANCE      11
Info: PAIRLIST SHRINK RATE   0.01
Info: PAIRLIST GROW RATE     0.01
Info: PAIRLIST TRIGGER       0.3
Info: PAIRLISTS PER CYCLE    2
Info: PAIRLISTS ENABLED
Info: MARGIN                 2
Info: HYDROGEN GROUP CUTOFF  2.5
Info: PATCH DIMENSION        15.5
Info: ENERGY OUTPUT STEPS    100000
Info: ENERGY EVALUATION STEPS    100000
Info: OUTPUT ENERGY PRECISION 4
Info: CROSSTERM ENERGY INCLUDED IN DIHEDRAL
Info: TIMING OUTPUT STEPS    1000000
Info: PRESSURE OUTPUT STEPS  100000
Info: ALCHEMICAL FEP ON
Info: FEP CURRENT LAMBDA VALUE     0
Info: FEP COMPARISON LAMBDA VALUE  0.05
Info: FEP INTRA-ALCHEMICAL NON-BONDED INTERACTIONS WILL BE RETAINED
Info: FEP INTRA-ALCHEMICAL BONDED INTERACTIONS WILL BE RETAINED
Info: FEP VDW SHIFTING COEFFICIENT 5
Info: FEP ELEC. ACTIVE FOR ANNIHILATED PARTICLES BETWEEN LAMBDA = 0 AND LAMBDA = 0.5
Info: FEP ELEC. ACTIVE FOR EXNIHILATED PARTICLES BETWEEN LAMBDA = 0.5 AND LAMBDA = 1
Info: FEP VDW ACTIVE FOR ANNIHILATED PARTICLES BETWEEN LAMBDA = 0 AND LAMBDA = 1
Info: FEP VDW ACTIVE FOR EXNIHILATED PARTICLES BETWEEN LAMBDA = 0 AND LAMBDA = 1
Info: FEP BOND ACTIVE FOR ANNIHILATED PARTICLES BETWEEN LAMBDA = 1 AND LAMBDA = 1
Info: FEP BOND ACTIVE FOR EXNIHILATED PARTICLES BETWEEN LAMBDA = 0 AND LAMBDA = 0
Info: LANGEVIN DYNAMICS ACTIVE
Info: LANGEVIN TEMPERATURE   300
Info: LANGEVIN USING BBK INTEGRATOR
Info: LANGEVIN DAMPING COEFFICIENT IS 1 INVERSE PS
Info: LANGEVIN DYNAMICS APPLIED TO HYDROGENS
Info: LANGEVIN PISTON PRESSURE CONTROL ACTIVE
Info:        TARGET PRESSURE IS 1.01325 BAR
Info:     OSCILLATION PERIOD IS 50 FS
Info:             DECAY TIME IS 25 FS
Info:     PISTON TEMPERATURE IS 300 K
Info:       PRESSURE CONTROL IS GROUP-BASED
Info:    INITIAL STRAIN RATE IS -2.51842e-06 -2.51842e-06 -2.51842e-06
Info:       CELL FLUCTUATION IS ISOTROPIC
Info: PARTICLE MESH EWALD (PME) ACTIVE
Info: PME TOLERANCE               1e-06
Info: PME EWALD COEFFICIENT       0.348832
Info: PME INTERPOLATION ORDER     4
Info: PME GRID DIMENSIONS         32 32 32
Info: PME MAXIMUM GRID SPACING    1
Info: PME CALCULATION WILL BE PERFORMED ON GPU
Info: FULL ELECTROSTATIC EVALUATION FREQUENCY      2
Info: USING VERLET I (r-RESPA) MTS SCHEME.
Info: C1 SPLITTING OF LONG RANGE ELECTROSTATICS
Info: PLACING ATOMS IN PATCHES BY HYDROGEN GROUPS
Info: RIGID BONDS TO HYDROGEN : ALL
Info:         ERROR TOLERANCE : 1e-08
Info:          MAX ITERATIONS : 100
Info: RIGID WATER USING SETTLE ALGORITHM
Info: RANDOM NUMBER SEED     1743839436
Info: USE HYDROGEN BONDS?    NO
Info: Using AMBER format force field!
Info: AMBER PARM FILE        mobley_4043951.prmtop
Info: COORDINATE PDB         mobley_4043951.pdb
Info: Exclusions will be read from PARM file!
Info: SCNB (VDW SCALING)     2
Info: USING ARITHMETIC MEAN TO COMBINE L-J SIGMA PARAMETERS
Info: BINARY COORDINATES     mobley_4043951_equil.coor
Info: SUMMARY OF PARAMETERS:
Info: 7 BONDS
Info: 9 ANGLES
Info:   9 HARMONIC
Info:   0 COSINE-BASED
Info: 8 DIHEDRAL
Info: 0 IMPROPER
Info: 0 CROSSTERM
Info: 0 VDW
Info: 21 VDW_PAIRS
Info: 0 NBTHOLE_PAIRS
Info: To read alchdata from file: mobley_4043951.pdb
Info: To read alchflag data from column: 5
Info: STRUCTURE SUMMARY:
Info: 2910 ATOMS
Info: 2909 BONDS
Info: 24 ANGLES
Info: 34 DIHEDRALS
Info: 0 IMPROPERS
Info: 0 CROSSTERMS
Info: 2961 EXCLUSIONS
Info: 2905 RIGID BONDS
Info: ALCH: 0 ATOMS TO DISAPPEAR IN FINAL STATE
Info: ALCH: 15 ATOMS TO APPEAR IN FINAL STATE
Info: 5825 DEGREES OF FREEDOM
Info: 970 HYDROGEN GROUPS
Info: 4 ATOMS IN LARGEST HYDROGEN GROUP
Info: 970 MIGRATION GROUPS
Info: 4 ATOMS IN LARGEST MIGRATION GROUP
Info: TOTAL MASS = 17455.6 amu
Info: TOTAL CHARGE = 9.99868e-05 e
Info: MASS DENSITY = 0.975847 g/cm^3
Info: ATOM DENSITY = 0.0979673 atoms/A^3
Info: ADDED 0 IMPLICIT EXCLUSIONS
Info: NONBONDED TABLE R-SQUARED SPACING: 0.0625
Info: NONBONDED TABLE SIZE: 705 POINTS
Info: REDUCING NUMBER OF PATCHES TO IMPROVE LOAD BALANCE
Info: REMOVING COM VELOCITY 0.15623 0.0894258 0.17388
Info: Use 3D box decompostion in PME FFT.
Info: Updated CUDA force table with 4096 elements.
Info: Updated CUDA LJ table with 6 x 6 elements.
Info: Found 18 unique exclusion lists needing 40 bytes
TCL: Running for 1500000 steps
ETITLE: TS BOND ANGLE DIHED IMPRP ELECT VDW BOUNDARY MISC KINETIC TOTAL TEMP POTENTIAL TOTALAVG TEMPAVG PRESSURE GPRESSURE VOLUME PRESSAVG GPRESSAVG
ENERGY: 0 0.7189 6.6914 4.0960 0.0000 -10525.1934 1414.4041 0.0000 0.0000 1740.5556 -7358.7275 300.7339 -9099.2830 -7358.7275 300.7339 76.2469 142.8248 29703.7743 76.2469 142.8248
ENERGY: 300000 0.6961 5.7393 3.0624 0.0000 -10512.6942 1429.5692 0.0000 0.0000 1722.5858 -7351.0415 297.6290 -9073.6273 -7375.3644 296.6129 250.2980 320.2276 29718.0921 84.1535 147.0485
ENERGY: 600000 0.2787 4.2747 3.2145 0.0000 -10533.3956 1423.1496 0.0000 0.0000 1695.7310 -7406.7472 292.9891 -9102.4782 -7372.4565 298.2052 -77.0036 -85.1962 30046.5275 -131.5293 -75.6425
ENERGY: 900000 1.1807 6.0599 4.3681 0.0000 -10445.8843 1348.8256 0.0000 0.0000 1776.2129 -7309.2372 306.8948 -9085.4501 -7357.9932 300.1609 -643.0587 -520.5780 30010.6959 -249.8800 -181.9598
ENERGY: 1200000 0.4131 3.4909 3.7575 0.0000 -10477.7446 1383.3538 0.0000 0.0000 1777.7100 -7309.0192 307.1534 -9086.7292 -7356.9822 300.5311 -499.9582 -381.5679 30183.6028 -225.1911 -155.2923
ENERGY: 1500000 1.0104 8.6414 2.7573 0.0000 -10496.4075 1428.3151 0.0000 0.0000 1696.9098 -7358.7735 293.1927 -9055.6833 -7362.8330 300.0479 248.8883 349.4082 29519.3069 -205.6589 -129.7738
TCL: Running FEP window   2: Lambda1 0.05   Lambda2 0.1    [dLambda 0.05  ]
TCL: Setting parameter firsttimestep to 0
TCL: Setting parameter alchLambda to 0.05
Info: NONBONDED TABLE R-SQUARED SPACING: 0.0625
Info: NONBONDED TABLE SIZE: 705 POINTS
TCL: Setting parameter alchLambda2 to 0.1
Info: NONBONDED TABLE R-SQUARED SPACING: 0.0625
Info: NONBONDED TABLE SIZE: 705 POINTS
TCL: Running for 1500000 steps
ETITLE: TS BOND ANGLE DIHED IMPRP ELECT VDW BOUNDARY MISC KINETIC TOTAL TEMP POTENTIAL TOTALAVG TEMPAVG PRESSURE GPRESSURE VOLUME PRESSAVG GPRESSAVG
ENERGY: 0 1.0104 8.6414 2.7573 0.0000 -10496.4078 1433.0354 0.0000 0.0000 1696.0494 -7354.9139 293.0441 -9050.9633 -7354.9139 293.0441 270.3682 351.9504 29519.3069 270.3682 351.9504
ENERGY: 300000 0.5378 5.1471 2.6670 0.0000 -10516.9577 1426.6834 0.0000 0.0000 1711.3126 -7370.6099 295.6813 -9081.9225 -7345.3449 299.2703 253.5463 297.2546 29637.1396 312.2657 375.6270
ENERGY: 600000 1.2167 3.6530 5.2314 0.0000 -10503.6238 1376.5015 0.0000 0.0000 1691.3442 -7425.6771 292.2311 -9117.0213 -7362.3006 296.7123 -489.1849 -467.6372 30031.8404 179.0892 233.9789
ENERGY: 900000 4.5089 4.4005 7.5969 0.0000 -10655.5818 1439.0348 0.0000 0.0000 1783.4430 -7416.5978 308.1440 -9200.0408 -7362.9066 298.9780 -159.4177 -115.0490 29495.1427 135.1671 187.0025
ENERGY: 1200000 0.6631 5.2527 4.6734 0.0000 -10656.3697 1470.6470 0.0000 0.0000 1671.6580 -7503.4755 288.8297 -9175.1336 -7371.6451 298.5345 76.4423 99.6002 29884.4814 81.5259 132.2124
ENERGY: 1500000 1.6665 5.1342 4.5802 0.0000 -10599.3979 1471.3094 0.0000 0.0000 1733.3089 -7383.3987 299.4818 -9116.7076 -7374.5161 298.8847 704.7089 760.7669 29468.5565 123.8244 170.6806
TCL: Running FEP window   3: Lambda1 0.1    Lambda2 0.15000000000000002 [dLambda 0.05000000000000002]
TCL: Setting parameter firsttimestep to 0
TCL: Setting parameter alchLambda to 0.1
Info: NONBONDED TABLE R-SQUARED SPACING: 0.0625
Info: NONBONDED TABLE SIZE: 705 POINTS
TCL: Setting parameter alchLambda2 to 0.15000000000000002
Info: NONBONDED TABLE R-SQUARED SPACING: 0.0625
Info: NONBONDED TABLE SIZE: 705 POINTS
TCL: Running for 1500000 steps
ETITLE: TS BOND ANGLE DIHED IMPRP ELECT VDW BOUNDARY MISC KINETIC TOTAL TEMP POTENTIAL TOTALAVG TEMPAVG PRESSURE GPRESSURE VOLUME PRESSAVG GPRESSAVG
ENERGY: 0 1.6665 5.1342 4.5802 0.0000 -10599.3981 1472.9055 0.0000 0.0000 1732.4625 -7382.6491 299.3355 -9115.1116 -7382.6491 299.3355 700.3237 770.9399 29468.5565 700.3237 770.9399
ENERGY: 300000 0.7405 6.8995 4.4320 0.0000 -10571.5725 1459.7950 0.0000 0.0000 1694.7824 -7404.9232 292.8252 -9099.7056 -7391.7969 297.7591 513.6633 619.2711 29477.9299 -4.4915 93.4684
ENERGY: 600000 1.0776 5.5202 3.7390 0.0000 -10468.9345 1417.3400 0.0000 0.0000 1725.4908 -7315.7668 298.1310 -9041.2576 -7381.9205 298.9389 -163.3860 -38.7807 30321.1868 -72.5131 18.4197
ENERGY: 900000 1.9201 6.7835 4.6527 0.0000 -10443.9916 1378.9840 0.0000 0.0000 1773.4385 -7278.2127 306.4154 -9051.6513 -7363.7337 300.7856 -139.5433 -93.8409 30045.2960 -122.4033 -36.4031
ENERGY: 1200000 0.1764 5.4853 4.5891 0.0000 -10502.4350 1393.3196 0.0000 0.0000 1781.2746 -7317.5899 307.7693 -9098.8645 -7375.8279 301.0646 -154.9259 -137.3315 29853.3451 -83.2731 -2.7863
ENERGY: 1500000 1.7855 5.3221 3.7947 0.0000 -10508.4602 1407.0072 0.0000 0.0000 1733.1459 -7357.4048 299.4536 -9090.5507 -7381.7130 300.1696 -196.3459 -160.9488 30162.5530 -93.7447 -27.8756
TCL: Running FEP window   4: Lambda1 0.15000000000000002 Lambda2 0.2    [dLambda 0.04999999999999999]
TCL: Setting parameter firsttimestep to 0
TCL: Setting parameter alchLambda to 0.15000000000000002
Info: NONBONDED TABLE R-SQUARED SPACING: 0.0625
Info: NONBONDED TABLE SIZE: 705 POINTS
TCL: Setting parameter alchLambda2 to 0.2
Info: NONBONDED TABLE R-SQUARED SPACING: 0.0625
Info: NONBONDED TABLE SIZE: 705 POINTS
TCL: Running for 1500000 steps
ETITLE: TS BOND ANGLE DIHED IMPRP ELECT VDW BOUNDARY MISC KINETIC TOTAL TEMP POTENTIAL TOTALAVG TEMPAVG PRESSURE GPRESSURE VOLUME PRESSAVG GPRESSAVG
ENERGY: 0 1.7855 5.3221 3.7947 0.0000 -10508.4604 1407.4878 0.0000 0.0000 1732.2624 -7357.8080 299.3010 -9090.0704 -7357.8080 299.3010 -245.9579 -154.9015 30162.5530 -245.9579 -154.9015
ENERGY: 300000 1.9742 5.5951 1.6478 0.0000 -10378.4500 1407.6626 0.0000 0.0000 1757.5520 -7204.0183 303.6705 -8961.5703 -7356.9205 297.3620 212.5697 226.1452 30308.1505 489.8635 521.1880
ENERGY: 600000 1.2835 11.9770 5.7586 0.0000 -10510.1278 1387.4468 0.0000 0.0000 1763.2307 -7340.4311 304.6517 -9103.6618 -7361.0601 298.3150 -170.5893 -182.3830 29814.0252 176.9462 212.1335
ENERGY: 900000 1.3941 4.3818 3.7126 0.0000 -10526.4463 1419.9172 0.0000 0.0000 1691.8684 -7405.1720 292.3217 -9097.0405 -7371.1020 297.2489 -109.6127 -41.9808 29830.7062 176.0965 222.0753
ENERGY: 1200000 1.2089 6.5324 2.5424 0.0000 -10615.5076 1436.3872 0.0000 0.0000 1734.7158 -7434.1207 299.7249 -9168.8365 -7370.6156 297.9370 223.3130 240.7539 29443.6974 165.1005 212.5249
ENERGY: 1500000 0.6557 4.9860 3.4972 0.0000 -10580.4500 1478.6242 0.0000 0.0000 1780.7511 -7311.9358 307.6789 -9092.6869 -7368.3537 298.6343 400.9954 451.2567 29691.1755 150.7638 205.1636
TCL: Running FEP window   5: Lambda1 0.2    Lambda2 0.25   [dLambda 0.04999999999999999]
TCL: Setting parameter firsttimestep to 0
TCL: Setting parameter alchLambda to 0.2
Info: NONBONDED TABLE R-SQUARED SPACING: 0.0625
Info: NONBONDED TABLE SIZE: 705 POINTS
TCL: Setting parameter alchLambda2 to 0.25
Info: NONBONDED TABLE R-SQUARED SPACING: 0.0625
Info: NONBONDED TABLE SIZE: 705 POINTS
TCL: Running for 1500000 steps
ETITLE: TS BOND ANGLE DIHED IMPRP ELECT VDW BOUNDARY MISC KINETIC TOTAL TEMP POTENTIAL TOTALAVG TEMPAVG PRESSURE GPRESSURE VOLUME PRESSAVG GPRESSAVG
ENERGY: 0 0.6557 4.9860 3.4972 0.0000 -10580.4506 1478.5242 0.0000 0.0000 1779.8195 -7312.9680 307.5179 -9092.7875 -7312.9680 307.5179 362.1038 452.5249 29691.1755 362.1038 452.5249
ENERGY: 300000 0.3311 6.0059 3.5586 0.0000 -10705.6111 1471.3700 0.0000 0.0000 1740.1528 -7484.1927 300.6643 -9224.3456 -7373.1779 306.0232 202.9631 252.3100 29560.2053 -5.1760 65.2158
ENERGY: 600000 1.2742 8.3845 3.9422 0.0000 -10560.0509 1392.0407 0.0000 0.0000 1743.1953 -7411.2140 301.1900 -9154.4093 -7363.2585 303.4224 -354.6502 -292.5084 29960.7966 -235.6583 -168.6706
ENERGY: 900000 1.0193 5.5512 7.1098 0.0000 -10450.1432 1398.0323 0.0000 0.0000 1677.9287 -7360.5019 289.9132 -9038.4306 -7366.9949 300.3810 92.9888 175.2127 29706.7261 -147.7186 -88.2883
ENERGY: 1200000 1.9354 4.9599 4.9494 0.0000 -10556.2774 1404.4790 0.0000 0.0000 1731.8166 -7408.1370 299.2239 -9139.9536 -7363.9652 300.5301 -411.6911 -255.9194 30009.1064 -151.4918 -80.5822
ENERGY: 1500000 0.5028 8.5250 7.1694 0.0000 -10470.0422 1389.8446 0.0000 0.0000 1772.3429 -7291.6575 306.2261 -9064.0004 -7360.5030 301.8969 -89.3257 -62.1864 29981.2653 -186.8172 -124.7512
TCL: Running FEP window   6: Lambda1 0.25   Lambda2 0.3    [dLambda 0.04999999999999999]
TCL: Setting parameter firsttimestep to 0
TCL: Setting parameter alchLambda to 0.25
Info: NONBONDED TABLE R-SQUARED SPACING: 0.0625
Info: NONBONDED TABLE SIZE: 705 POINTS
TCL: Setting parameter alchLambda2 to 0.3
Info: NONBONDED TABLE R-SQUARED SPACING: 0.0625
Info: NONBONDED TABLE SIZE: 705 POINTS
TCL: Running for 1500000 steps
ETITLE: TS BOND ANGLE DIHED IMPRP ELECT VDW BOUNDARY MISC KINETIC TOTAL TEMP POTENTIAL TOTALAVG TEMPAVG PRESSURE GPRESSURE VOLUME PRESSAVG GPRESSAVG
ENERGY: 0 0.5028 8.5250 7.1694 0.0000 -10470.0412 1390.3549 0.0000 0.0000 1771.5017 -7291.9874 306.0808 -9063.4891 -7291.9874 306.0808 -128.3448 -54.7806 29981.2653 -128.3448 -54.7806
ENERGY: 300000 2.3638 5.5342 4.5130 0.0000 -10527.2956 1385.8863 0.0000 0.0000 1759.9436 -7369.0547 304.0837 -9128.9983 -7354.6437 301.6159 -376.1315 -343.1088 30097.3822 -36.0412 18.8217
ENERGY: 600000 1.0719 5.3383 2.9220 0.0000 -10586.7272 1405.8023 0.0000 0.0000 1739.4550 -7432.1378 300.5437 -9171.5928 -7357.5354 301.6691 -189.3222 -182.4418 29625.9537 -16.6104 27.0121
ENERGY: 900000 0.1502 4.3071 4.4604 0.0000 -10636.9254 1471.7193 0.0000 0.0000 1714.9530 -7441.3354 296.3103 -9156.2884 -7359.8332 301.5495 313.8336 409.8554 29459.6909 17.6971 74.5471
ENERGY: 1200000 0.5756 6.7397 5.3032 0.0000 -10625.3363 1467.5503 0.0000 0.0000 1759.3739 -7385.7937 303.9853 -9145.1676 -7356.8327 301.8199 84.2419 219.9603 30101.4044 27.4158 88.6384
ENERGY: 1500000 0.7246 6.6869 5.7164 0.0000 -10470.8396 1380.3061 0.0000 0.0000 1744.8142 -7332.5914 301.4697 -9077.4056 -7364.3002 301.3303 -111.1620 -63.3121 29771.5518 11.3797 73.1344
TCL: Running FEP window   7: Lambda1 0.3    Lambda2 0.35   [dLambda 0.04999999999999999]
TCL: Setting parameter firsttimestep to 0
TCL: Setting parameter alchLambda to 0.3
Info: NONBONDED TABLE R-SQUARED SPACING: 0.0625
Info: NONBONDED TABLE SIZE: 705 POINTS
TCL: Setting parameter alchLambda2 to 0.35
Info: NONBONDED TABLE R-SQUARED SPACING: 0.0625
Info: NONBONDED TABLE SIZE: 705 POINTS
TCL: Running for 1500000 steps
ETITLE: TS BOND ANGLE DIHED IMPRP ELECT VDW BOUNDARY MISC KINETIC TOTAL TEMP POTENTIAL TOTALAVG TEMPAVG PRESSURE GPRESSURE VOLUME PRESSAVG GPRESSAVG
ENERGY: 0 0.7246 6.6869 5.7164 0.0000 -10470.8401 1380.0494 0.0000 0.0000 1743.9405 -7333.7223 301.3187 -9077.6628 -7333.7223 301.3187 -145.8268 -62.6526 29771.5518 -145.8268 -62.6526
ENERGY: 300000 3.2581 7.0706 4.2519 0.0000 -10530.0690 1388.2495 0.0000 0.0000 1722.2249 -7405.0140 297.5667 -9127.2389 -7339.0609 302.0492 -334.2311 -244.5457 29626.4035 -73.9502 -8.8173
ENERGY: 600000 1.0313 4.9973 2.2286 0.0000 -10562.8640 1393.7732 0.0000 0.0000 1770.7188 -7390.1148 305.9455 -9160.8336 -7346.5779 301.3331 -333.6452 -250.8056 29972.3871 -76.0687 -26.5210
ENERGY: 900000 0.6950 7.7515 3.8716 0.0000 -10443.3016 1386.7922 0.0000 0.0000 1783.7245 -7260.4667 308.1926 -9044.1912 -7342.0814 301.8776 -146.9935 -130.9783 30073.4770 -43.6852 -10.3576
ENERGY: 1200000 1.5216 3.2195 4.5353 0.0000 -10367.9553 1348.2810 0.0000 0.0000 1734.8533 -7275.5446 299.7486 -9010.3979 -7336.2362 300.7457 -541.3918 -474.6452 30385.9133 -66.7204 -23.6713
ENERGY: 1500000 0.8280 5.3164 4.3379 0.0000 -10504.5792 1380.3231 0.0000 0.0000 1786.2538 -7327.5200 308.6296 -9113.7738 -7336.4959 300.8920 -237.8624 -255.0921 29754.2910 -69.2614 -26.5011
TCL: Running FEP window   8: Lambda1 0.35   Lambda2 0.39999999999999997 [dLambda 0.04999999999999999]
TCL: Setting parameter firsttimestep to 0
TCL: Setting parameter alchLambda to 0.35
Info: NONBONDED TABLE R-SQUARED SPACING: 0.0625
Info: NONBONDED TABLE SIZE: 705 POINTS
TCL: Setting parameter alchLambda2 to 0.39999999999999997
Info: NONBONDED TABLE R-SQUARED SPACING: 0.0625
Info: NONBONDED TABLE SIZE: 705 POINTS
TCL: Running for 1500000 steps
ETITLE: TS BOND ANGLE DIHED IMPRP ELECT VDW BOUNDARY MISC KINETIC TOTAL TEMP POTENTIAL TOTALAVG TEMPAVG PRESSURE GPRESSURE VOLUME PRESSAVG GPRESSAVG
ENERGY: 0 0.8280 5.3164 4.3379 0.0000 -10504.5784 1381.5774 0.0000 0.0000 1785.4228 -7327.0958 308.4860 -9112.5186 -7327.0958 308.4860 -323.8019 -242.9844 29754.2910 -323.8019 -242.9844
ENERGY: 300000 0.7175 4.5622 3.5371 0.0000 -10478.5268 1393.2890 0.0000 0.0000 1686.9686 -7389.4524 291.4751 -9076.4210 -7369.6533 298.2703 4.4919 49.4640 29378.2877 -236.6493 -163.7912
ENERGY: 600000 0.8058 6.3943 4.2536 0.0000 -10659.0506 1560.6784 0.0000 0.0000 1782.0685 -7304.8500 307.9065 -9086.9185 -7343.2029 300.2666 1263.2920 1323.7942 29889.7258 -91.7003 -13.2500
ENERGY: 900000 0.4438 5.1806 3.7885 0.0000 -10418.4352 1370.6171 0.0000 0.0000 1787.7022 -7250.7029 308.8799 -9038.4051 -7325.9522 301.8679 -278.4392 -226.3550 30402.4645 -147.0681 -76.6483
ENERGY: 1200000 0.0441 9.3963 2.7173 0.0000 -10615.5488 1476.3897 0.0000 0.0000 1757.4085 -7369.5930 303.6457 -9127.0014 -7338.0902 301.5562 363.0278 383.5661 29805.2638 -161.3027 -104.4759
ENERGY: 1500000 0.4365 6.1197 2.9516 0.0000 -10585.6423 1479.1638 0.0000 0.0000 1750.0875 -7346.8832 302.3808 -9096.9707 -7345.0748 302.3234 474.5997 599.4719 29741.0438 -13.9606 50.6589
TCL: Running FEP window   9: Lambda1 0.39999999999999997 Lambda2 0.44999999999999996 [dLambda 0.04999999999999999]
TCL: Setting parameter firsttimestep to 0
TCL: Setting parameter alchLambda to 0.39999999999999997
Info: NONBONDED TABLE R-SQUARED SPACING: 0.0625
Info: NONBONDED TABLE SIZE: 705 POINTS
TCL: Setting parameter alchLambda2 to 0.44999999999999996
Info: NONBONDED TABLE R-SQUARED SPACING: 0.0625
Info: NONBONDED TABLE SIZE: 705 POINTS
TCL: Running for 1500000 steps
ETITLE: TS BOND ANGLE DIHED IMPRP ELECT VDW BOUNDARY MISC KINETIC TOTAL TEMP POTENTIAL TOTALAVG TEMPAVG PRESSURE GPRESSURE VOLUME PRESSAVG GPRESSAVG
ENERGY: 0 0.4365 6.1197 2.9516 0.0000 -10585.6437 1479.1878 0.0000 0.0000 1749.1591 -7347.7891 302.2204 -9096.9481 -7347.7891 302.2204 520.8470 602.7327 29741.0438 520.8470 602.7327
ENERGY: 300000 0.1812 4.9054 3.3860 0.0000 -10497.2428 1437.2396 0.0000 0.0000 1774.2336 -7277.2971 306.5528 -9051.5307 -7331.6211 301.4767 428.9916 464.4030 29819.2083 265.8685 345.2140
ENERGY: 600000 0.4748 7.5902 4.3136 0.0000 -10519.9359 1418.6414 0.0000 0.0000 1686.8810 -7402.0349 291.4600 -9088.9159 -7357.9969 300.0816 162.9168 225.9523 29621.4814 108.1592 167.5347
ENERGY: 900000 0.5128 6.3172 4.2705 0.0000 -10476.2432 1353.2629 0.0000 0.0000 1774.3814 -7337.4983 306.5783 -9111.8798 -7363.5077 299.7083 -588.6989 -532.0402 29919.5751 -7.2531 59.5171
ENERGY: 1200000 2.0346 4.5364 5.4586 0.0000 -10375.8331 1363.3740 0.0000 0.0000 1744.5945 -7255.8350 301.4317 -9000.4295 -7356.6186 299.5227 -269.3684 -160.7835 30146.3372 -90.0052 -25.7961
ENERGY: 1500000 2.5507 9.7433 2.7100 0.0000 -10640.5320 1480.5507 0.0000 0.0000 1761.2974 -7383.6799 304.3177 -9144.9773 -7359.9871 300.2154 159.5338 195.9492 30056.1368 -15.8424 50.9722
TCL: Running FEP window  10: Lambda1 0.44999999999999996 Lambda2 0.49999999999999994 [dLambda 0.04999999999999999]
TCL: Setting parameter firsttimestep to 0
TCL: Setting parameter alchLambda to 0.44999999999999996
Info: NONBONDED TABLE R-SQUARED SPACING: 0.0625
Info: NONBONDED TABLE SIZE: 705 POINTS
TCL: Setting parameter alchLambda2 to 0.49999999999999994
Info: NONBONDED TABLE R-SQUARED SPACING: 0.0625
Info: NONBONDED TABLE SIZE: 705 POINTS
TCL: Running for 1500000 steps
ETITLE: TS BOND ANGLE DIHED IMPRP ELECT VDW BOUNDARY MISC KINETIC TOTAL TEMP POTENTIAL TOTALAVG TEMPAVG PRESSURE GPRESSURE VOLUME PRESSAVG GPRESSAVG
ENERGY: 0 2.5507 9.7433 2.7100 0.0000 -10640.5315 1480.5245 0.0000 0.0000 1760.4250 -7384.5780 304.1669 -9145.0030 -7384.5780 304.1669 120.7259 199.9913 30056.1368 120.7259 199.9913
ENERGY: 300000 2.9940 4.7339 3.6015 0.0000 -10437.9874 1287.7092 0.0000 0.0000 1815.3813 -7323.5675 313.6623 -9138.9488 -7387.8146 302.9703 -1288.1042 -1189.8333 30498.9643 -288.5006 -267.5994
ENERGY: 600000 1.6827 8.0166 3.7939 0.0000 -10574.1064 1428.6120 0.0000 0.0000 1682.0657 -7449.9355 290.6280 -9132.0012 -7396.5859 300.5655 -81.1891 55.8146 29599.1651 -76.4815 -27.8977
ENERGY: 900000 1.6712 5.1812 6.2191 0.0000 -10511.0892 1425.8009 0.0000 0.0000 1734.2867 -7337.9302 299.6507 -9072.2169 -7394.9108 299.6067 199.8580 196.2413 29771.2883 -47.5443 -4.3161
ENERGY: 1200000 1.0598 4.9766 1.9699 0.0000 -10598.8373 1452.2814 0.0000 0.0000 1802.1805 -7336.3691 311.3814 -9138.5495 -7379.4770 299.9750 136.2163 229.5726 29833.5045 -21.7174 29.7902
ENERGY: 1500000 0.8090 4.2986 3.6464 0.0000 -10638.4296 1515.2380 0.0000 0.0000 1783.4066 -7331.0310 308.1377 -9114.4377 -7374.9558 300.6113 896.9454 934.4106 29821.6647 -9.6363 43.9975
TCL: Running FEP window  11: Lambda1 0.49999999999999994 Lambda2 0.5499999999999999 [dLambda 0.04999999999999999]
TCL: Setting parameter firsttimestep to 0
TCL: Setting parameter alchLambda to 0.49999999999999994
Info: NONBONDED TABLE R-SQUARED SPACING: 0.0625
Info: NONBONDED TABLE SIZE: 705 POINTS
TCL: Setting parameter alchLambda2 to 0.5499999999999999
Info: NONBONDED TABLE R-SQUARED SPACING: 0.0625
Info: NONBONDED TABLE SIZE: 705 POINTS
TCL: Running for 1500000 steps
ETITLE: TS BOND ANGLE DIHED IMPRP ELECT VDW BOUNDARY MISC KINETIC TOTAL TEMP POTENTIAL TOTALAVG TEMPAVG PRESSURE GPRESSURE VOLUME PRESSAVG GPRESSAVG
ENERGY: 0 0.8090 4.2986 3.6464 0.0000 -10638.4292 1515.1910 0.0000 0.0000 1782.5097 -7331.9744 307.9827 -9114.4841 -7331.9744 307.9827 858.0186 938.9984 29821.6647 858.0186 938.9984
ENERGY: 300000 0.6452 3.8163 3.5856 0.0000 -10529.7761 1382.5685 0.0000 0.0000 1736.6287 -7402.5318 300.0554 -9139.1605 -7354.1857 301.6816 -433.6093 -305.0101 30035.6095 -169.3678 -116.9967
ENERGY: 600000 1.8549 6.0120 4.1108 0.0000 -10474.9763 1384.8114 0.0000 0.0000 1688.3358 -7389.8514 291.7113 -9078.1872 -7371.8998 299.2534 -242.6233 -226.7420 30073.8861 -255.0857 -192.1942
ENERGY: 900000 1.7638 5.5071 4.2763 0.0000 -10396.7234 1370.6087 0.0000 0.0000 1680.8062 -7333.7613 290.4104 -9014.5675 -7375.3951 298.7026 -284.7598 -232.9148 30234.5956 -122.8913 -59.0435
ENERGY: 1200000 1.8988 7.5486 1.2810 0.0000 -10375.9952 1386.1434 0.0000 0.0000 1751.1657 -7227.9576 302.5671 -8979.1233 -7373.6175 298.7476 1.0373 19.1467 30515.6809 -184.6167 -124.0185
ENERGY: 1500000 1.0111 4.9026 4.5865 0.0000 -10538.2367 1397.2228 0.0000 0.0000 1800.4320 -7330.0818 311.0793 -9130.5137 -7370.0710 299.7311 -323.0344 -241.8484 30053.0071 -161.9776 -107.1604
TCL: Running FEP window  12: Lambda1 0.5499999999999999 Lambda2 0.6    [dLambda 0.050000000000000044]
TCL: Setting parameter firsttimestep to 0
TCL: Setting parameter alchLambda to 0.5499999999999999
Info: NONBONDED TABLE R-SQUARED SPACING: 0.0625
Info: NONBONDED TABLE SIZE: 705 POINTS
TCL: Setting parameter alchLambda2 to 0.6
Info: NONBONDED TABLE R-SQUARED SPACING: 0.0625
Info: NONBONDED TABLE SIZE: 705 POINTS
TCL: Running for 1500000 steps
ETITLE: TS BOND ANGLE DIHED IMPRP ELECT VDW BOUNDARY MISC KINETIC TOTAL TEMP POTENTIAL TOTALAVG TEMPAVG PRESSURE GPRESSURE VOLUME PRESSAVG GPRESSAVG
ENERGY: 0 1.0111 4.9026 4.5865 0.0000 -10538.1794 1397.4096 0.0000 0.0000 1799.5513 -7330.7183 310.9272 -9130.2697 -7330.7183 310.9272 -317.2585 -234.8415 30053.0071 -317.2585 -234.8415
ENERGY: 300000 2.2066 3.9522 4.5048 0.0000 -10473.6655 1330.7599 0.0000 0.0000 1734.8854 -7397.3566 299.7542 -9132.2420 -7330.5490 305.0581 -929.8473 -895.0961 30180.2065 -460.3963 -398.8784
ENERGY: 600000 0.6402 7.6850 5.6309 0.0000 -10600.2065 1465.7094 0.0000 0.0000 1675.4286 -7445.1124 289.4812 -9120.5411 -7375.8435 299.9224 118.5993 233.9104 29917.7327 -255.6869 -192.5631
ENERGY: 900000 2.7815 8.9514 2.6469 0.0000 -10387.6296 1352.2909 0.0000 0.0000 1763.8322 -7257.1267 304.7556 -9020.9589 -7361.4223 300.7770 -234.4222 -153.4790 29850.7766 -196.9226 -138.0478
ENERGY: 1200000 0.2543 4.8663 3.5483 0.0000 -10528.5304 1433.5821 0.0000 0.0000 1716.1573 -7370.1220 296.5183 -9086.2793 -7370.1924 300.7091 54.1989 141.6236 29913.9187 -90.7570 -28.3797
ENERGY: 1500000 1.1531 5.3092 7.8580 0.0000 -10447.0506 1369.2145 0.0000 0.0000 1694.8533 -7368.6625 292.8374 -9063.5158 -7375.8042 300.5362 -389.2414 -342.1368 30255.3184 -79.7399 -19.5131
TCL: Running FEP window  13: Lambda1 0.6    Lambda2 0.65   [dLambda 0.050000000000000044]
TCL: Setting parameter firsttimestep to 0
TCL: Setting parameter alchLambda to 0.6
Info: NONBONDED TABLE R-SQUARED SPACING: 0.0625
Info: NONBONDED TABLE SIZE: 705 POINTS
TCL: Setting parameter alchLambda2 to 0.65
Info: NONBONDED TABLE R-SQUARED SPACING: 0.0625
Info: NONBONDED TABLE SIZE: 705 POINTS
TCL: Running for 1500000 steps
ETITLE: TS BOND ANGLE DIHED IMPRP ELECT VDW BOUNDARY MISC KINETIC TOTAL TEMP POTENTIAL TOTALAVG TEMPAVG PRESSURE GPRESSURE VOLUME PRESSAVG GPRESSAVG
ENERGY: 0 1.1531 5.3092 7.8580 0.0000 -10447.0277 1370.2585 0.0000 0.0000 1693.9796 -7368.4694 292.6865 -9062.4490 -7368.4694 292.6865 -404.2039 -328.7271 30255.3184 -404.2039 -328.7271
ENERGY: 300000 0.4421 8.5796 4.8858 0.0000 -10334.6139 1295.9605 0.0000 0.0000 1734.2754 -7290.4704 299.6488 -9024.7459 -7319.3048 301.4585 -996.7838 -973.6106 30620.4838 -511.8001 -466.6998
ENERGY: 600000 0.4666 5.0505 5.1174 0.0000 -10499.2445 1378.4484 0.0000 0.0000 1704.8244 -7405.3372 294.5602 -9110.1616 -7329.8036 300.6903 -455.5460 -306.8394 30054.5926 -384.4253 -319.8104
ENERGY: 900000 0.8293 6.1030 4.9422 0.0000 -10545.5571 1430.8188 0.0000 0.0000 1749.8563 -7353.0073 302.3409 -9102.8636 -7332.3753 300.5995 -86.7324 -87.8011 30341.1312 -370.0866 -316.6237
ENERGY: 1200000 2.3063 7.8716 5.0016 0.0000 -10468.2420 1364.0264 0.0000 0.0000 1754.5477 -7334.4884 303.1514 -9089.0361 -7346.0025 299.7259 -572.5711 -509.8102 30419.4093 -374.2907 -324.3681
ENERGY: 1500000 3.3792 7.1971 4.7167 0.0000 -10579.8545 1460.4678 0.0000 0.0000 1799.4653 -7304.6285 310.9123 -9104.0938 -7347.0024 301.2184 505.5001 603.3470 29531.2612 -245.1045 -193.0848
TCL: Running FEP window  14: Lambda1 0.65   Lambda2 0.7000000000000001 [dLambda 0.050000000000000044]
TCL: Setting parameter firsttimestep to 0
TCL: Setting parameter alchLambda to 0.65
Info: NONBONDED TABLE R-SQUARED SPACING: 0.0625
Info: NONBONDED TABLE SIZE: 705 POINTS
TCL: Setting parameter alchLambda2 to 0.7000000000000001
Info: NONBONDED TABLE R-SQUARED SPACING: 0.0625
Info: NONBONDED TABLE SIZE: 705 POINTS
TCL: Running for 1500000 steps
ETITLE: TS BOND ANGLE DIHED IMPRP ELECT VDW BOUNDARY MISC KINETIC TOTAL TEMP POTENTIAL TOTALAVG TEMPAVG PRESSURE GPRESSURE VOLUME PRESSAVG GPRESSAVG
ENERGY: 0 3.3792 7.1971 4.7167 0.0000 -10579.6424 1460.3564 0.0000 0.0000 1798.5823 -7305.4107 310.7598 -9103.9930 -7305.4107 310.7598 516.1627 607.3385 29531.2612 516.1627 607.3385
ENERGY: 300000 1.3490 5.4409 4.4267 0.0000 -10669.0065 1449.5496 0.0000 0.0000 1756.3048 -7451.9355 303.4550 -9208.2403 -7390.0891 301.7577 202.1842 232.9127 29482.1076 69.0609 132.1100
ENERGY: 600000 1.9087 5.0679 6.5766 0.0000 -10523.8308 1429.8255 0.0000 0.0000 1670.7007 -7409.7512 288.6643 -9080.4520 -7380.6948 298.1337 372.9652 416.5903 29712.6061 151.5188 204.8132
ENERGY: 900000 1.9521 9.3681 3.9704 0.0000 -10611.5123 1457.0836 0.0000 0.0000 1721.7346 -7417.4035 297.4820 -9139.1381 -7373.0356 298.9963 49.9254 53.1907 30132.9198 145.8426 197.0765
ENERGY: 1200000 1.7691 5.3852 3.4345 0.0000 -10517.3505 1376.3043 0.0000 0.0000 1773.2121 -7357.2454 306.3763 -9130.4575 -7362.9591 299.5727 -317.1319 -234.2770 29631.5965 65.5789 125.7375
ENERGY: 1500000 0.4900 4.8118 6.1474 0.0000 -10383.4619 1337.6062 0.0000 0.0000 1794.3076 -7240.0989 310.0212 -9034.4065 -7370.7108 299.7283 -513.1858 -457.1351 30356.2285 -41.0601 18.5855
TCL: Running FEP window  15: Lambda1 0.7000000000000001 Lambda2 0.7500000000000001 [dLambda 0.050000000000000044]
TCL: Setting parameter firsttimestep to 0
TCL: Setting parameter alchLambda to 0.7000000000000001
Info: NONBONDED TABLE R-SQUARED SPACING: 0.0625
Info: NONBONDED TABLE SIZE: 705 POINTS
TCL: Setting parameter alchLambda2 to 0.7500000000000001
Info: NONBONDED TABLE R-SQUARED SPACING: 0.0625
Info: NONBONDED TABLE SIZE: 705 POINTS
TCL: Running for 1500000 steps
ETITLE: TS BOND ANGLE DIHED IMPRP ELECT VDW BOUNDARY MISC KINETIC TOTAL TEMP POTENTIAL TOTALAVG TEMPAVG PRESSURE GPRESSURE VOLUME PRESSAVG GPRESSAVG
ENERGY: 0 0.4900 4.8118 6.1474 0.0000 -10383.4641 1337.2895 0.0000 0.0000 1793.4880 -7241.2374 309.8796 -9034.7254 -7241.2374 309.8796 -531.9456 -455.5251 30356.2285 -531.9456 -455.5251
ENERGY: 300000 0.3372 3.8376 4.2260 0.0000 -10386.9212 1362.7689 0.0000 0.0000 1736.3874 -7279.3641 300.0137 -9015.7515 -7307.6713 304.8938 -480.6474 -392.3314 30634.4486 -326.5625 -264.0467
ENERGY: 600000 1.8688 5.0657 4.7653 0.0000 -10608.7560 1451.6343 0.0000 0.0000 1688.1069 -7457.3150 291.6718 -9145.4219 -7351.2865 301.6804 355.8591 387.6681 29702.4825 -230.5180 -167.3209
ENERGY: 900000 0.8661 6.2007 2.2089 0.0000 -10598.2310 1399.4189 0.0000 0.0000 1715.7241 -7473.8123 296.4435 -9189.5364 -7362.8188 301.0049 -249.0003 -244.6320 29700.1447 -248.8358 -185.4583
ENERGY: 1200000 0.6821 5.1269 4.4696 0.0000 -10480.5838 1381.1337 0.0000 0.0000 1777.4523 -7311.7192 307.1089 -9089.1715 -7367.0147 301.3744 -127.8854 -69.6206 29895.2358 -217.8370 -155.2484
ENERGY: 1500000 1.4423 5.9510 3.8587 0.0000 -10549.7399 1420.3715 0.0000 0.0000 1778.4607 -7339.6558 307.2831 -9118.1165 -7362.1377 302.0405 93.0313 169.6086 29824.0851 -181.7236 -117.4195
TCL: Running FEP window  16: Lambda1 0.7500000000000001 Lambda2 0.8000000000000002 [dLambda 0.050000000000000044]
TCL: Setting parameter firsttimestep to 0
TCL: Setting parameter alchLambda to 0.7500000000000001
Info: NONBONDED TABLE R-SQUARED SPACING: 0.0625
Info: NONBONDED TABLE SIZE: 705 POINTS
TCL: Setting parameter alchLambda2 to 0.8000000000000002
Info: NONBONDED TABLE R-SQUARED SPACING: 0.0625
Info: NONBONDED TABLE SIZE: 705 POINTS
TCL: Running for 1500000 steps
ETITLE: TS BOND ANGLE DIHED IMPRP ELECT VDW BOUNDARY MISC KINETIC TOTAL TEMP POTENTIAL TOTALAVG TEMPAVG PRESSURE GPRESSURE VOLUME PRESSAVG GPRESSAVG
ENERGY: 0 1.4423 5.9510 3.8587 0.0000 -10549.7056 1420.6262 0.0000 0.0000 1777.5726 -7340.2548 307.1297 -9117.8274 -7340.2548 307.1297 84.6835 178.2382 29824.0851 84.6835 178.2382
ENERGY: 300000 0.1525 6.2913 3.4605 0.0000 -10491.8544 1366.1952 0.0000 0.0000 1712.0493 -7403.7055 295.8086 -9115.7549 -7397.3381 297.1509 -618.2665 -557.2801 30175.8485 -377.5799 -324.0539
ENERGY: 600000 1.8091 8.4358 4.8401 0.0000 -10511.8873 1468.0746 0.0000 0.0000 1795.2885 -7233.4391 310.1906 -9028.7276 -7356.7517 300.8376 464.5506 525.9969 30285.8596 -186.6378 -138.7919
ENERGY: 900000 2.8549 7.5666 3.9296 0.0000 -10651.5171 1485.0748 0.0000 0.0000 1800.2607 -7351.8305 311.0497 -9152.0912 -7362.4378 301.2204 743.2746 804.7674 29629.1159 -58.0675 -8.3431
ENERGY: 1200000 0.9977 4.3362 4.8366 0.0000 -10600.6594 1455.9026 0.0000 0.0000 1708.5973 -7425.9891 295.2121 -9134.5864 -7373.5261 299.7507 192.9154 263.1974 29973.2945 -20.1277 29.7376
ENERGY: 1500000 1.8449 10.6273 5.3417 0.0000 -10573.8540 1462.4056 0.0000 0.0000 1763.9846 -7329.6500 304.7819 -9093.6345 -7366.3228 300.2221 261.8310 392.3018 29917.0496 26.2506 73.3305
TCL: Running FEP window  17: Lambda1 0.8000000000000002 Lambda2 0.8500000000000002 [dLambda 0.050000000000000044]
TCL: Setting parameter firsttimestep to 0
TCL: Setting parameter alchLambda to 0.8000000000000002
Info: NONBONDED TABLE R-SQUARED SPACING: 0.0625
Info: NONBONDED TABLE SIZE: 705 POINTS
TCL: Setting parameter alchLambda2 to 0.8500000000000002
Info: NONBONDED TABLE R-SQUARED SPACING: 0.0625
Info: NONBONDED TABLE SIZE: 705 POINTS
TCL: Running for 1500000 steps
ETITLE: TS BOND ANGLE DIHED IMPRP ELECT VDW BOUNDARY MISC KINETIC TOTAL TEMP POTENTIAL TOTALAVG TEMPAVG PRESSURE GPRESSURE VOLUME PRESSAVG GPRESSAVG
ENERGY: 0 1.8449 10.6273 5.3417 0.0000 -10573.9404 1463.3223 0.0000 0.0000 1763.1531 -7329.6512 304.6383 -9092.8043 -7329.6512 304.6383 333.4259 415.2628 29917.0496 333.4259 415.2628
ENERGY: 300000 1.0570 4.6362 2.4017 0.0000 -10435.4853 1331.8051 0.0000 0.0000 1755.7807 -7339.8044 303.3645 -9095.5852 -7327.3535 303.6473 -733.1126 -690.6148 30098.4052 -25.7854 29.5512
ENERGY: 600000 0.5229 8.0523 4.4184 0.0000 -10549.9894 1396.8133 0.0000 0.0000 1730.7094 -7409.4731 299.0326 -9140.1824 -7337.4084 302.9102 -159.7641 -142.9619 29947.4992 -6.3074 46.2779
ENERGY: 900000 2.9336 5.2908 4.5032 0.0000 -10481.6707 1407.9760 0.0000 0.0000 1695.9577 -7365.0094 293.0282 -9060.9671 -7336.6135 300.5850 5.8940 5.6001 30086.4003 -6.0041 54.2181
ENERGY: 1200000 0.0304 8.6381 3.5581 0.0000 -10480.8685 1320.2414 0.0000 0.0000 1734.3238 -7414.0767 299.6571 -9148.4005 -7360.8608 300.4103 -873.4531 -823.4804 30028.7843 -14.7904 37.9016
ENERGY: 1500000 2.0105 4.8918 3.9525 0.0000 -10519.2345 1326.2343 0.0000 0.0000 1725.4908 -7456.6546 298.1310 -9182.1454 -7372.5053 299.8421 -926.8508 -877.7660 29856.7800 -117.0573 -65.6212
TCL: Running FEP window  18: Lambda1 0.8500000000000002 Lambda2 0.9000000000000002 [dLambda 0.050000000000000044]
TCL: Setting parameter firsttimestep to 0
TCL: Setting parameter alchLambda to 0.8500000000000002
Info: NONBONDED TABLE R-SQUARED SPACING: 0.0625
Info: NONBONDED TABLE SIZE: 705 POINTS
TCL: Setting parameter alchLambda2 to 0.9000000000000002
Info: NONBONDED TABLE R-SQUARED SPACING: 0.0625
Info: NONBONDED TABLE SIZE: 705 POINTS
TCL: Running for 1500000 steps
ETITLE: TS BOND ANGLE DIHED IMPRP ELECT VDW BOUNDARY MISC KINETIC TOTAL TEMP POTENTIAL TOTALAVG TEMPAVG PRESSURE GPRESSURE VOLUME PRESSAVG GPRESSAVG
ENERGY: 0 2.0105 4.8918 3.9525 0.0000 -10519.3002 1326.4523 0.0000 0.0000 1724.6243 -7457.3688 297.9813 -9181.9931 -7457.3688 297.9813 -937.2401 -864.7654 29856.7800 -937.2401 -864.7654
ENERGY: 300000 0.2380 8.4238 4.3495 0.0000 -10449.0277 1302.8008 0.0000 0.0000 1767.9485 -7365.2670 305.4668 -9133.2155 -7422.3203 300.5738 -1029.3885 -923.3097 30250.4876 -655.3295 -581.5688
ENERGY: 600000 0.6354 3.4479 3.2848 0.0000 -10507.6927 1353.4314 0.0000 0.0000 1707.8337 -7439.0595 295.0802 -9146.8931 -7389.4921 300.8467 -541.3263 -427.5767 29821.5084 -387.2377 -321.9694
ENERGY: 900000 0.7294 6.8139 3.1241 0.0000 -10584.1251 1465.5271 0.0000 0.0000 1755.0590 -7352.8716 303.2398 -9107.9306 -7380.7552 300.3744 374.2258 458.1526 29837.9019 -281.1582 -210.7281
ENERGY: 1200000 0.6567 5.4682 4.5902 0.0000 -10372.2035 1364.3219 0.0000 0.0000 1681.6290 -7315.5375 290.5525 -8997.1665 -7371.7957 298.8411 -674.4695 -534.4419 30699.5257 -355.6605 -285.4606
ENERGY: 1500000 2.7006 7.6398 5.0544 0.0000 -10539.4873 1367.8524 0.0000 0.0000 1705.9183 -7450.3218 294.7492 -9156.2401 -7379.2919 299.2379 -392.0085 -367.0469 29711.2764 -288.1922 -219.2877
TCL: Running FEP window  19: Lambda1 0.9000000000000002 Lambda2 0.9500000000000003 [dLambda 0.050000000000000044]
TCL: Setting parameter firsttimestep to 0
TCL: Setting parameter alchLambda to 0.9000000000000002
Info: NONBONDED TABLE R-SQUARED SPACING: 0.0625
Info: NONBONDED TABLE SIZE: 705 POINTS
TCL: Setting parameter alchLambda2 to 0.9500000000000003
Info: NONBONDED TABLE R-SQUARED SPACING: 0.0625
Info: NONBONDED TABLE SIZE: 705 POINTS
TCL: Running for 1500000 steps
ETITLE: TS BOND ANGLE DIHED IMPRP ELECT VDW BOUNDARY MISC KINETIC TOTAL TEMP POTENTIAL TOTALAVG TEMPAVG PRESSURE GPRESSURE VOLUME PRESSAVG GPRESSAVG
ENERGY: 0 2.7006 7.6398 5.0544 0.0000 -10539.4722 1367.6111 0.0000 0.0000 1705.0525 -7451.4139 294.5996 -9156.4664 -7451.4139 294.5996 -454.2600 -358.9063 29711.2764 -454.2600 -358.9063
ENERGY: 300000 2.0860 5.5309 3.8883 0.0000 -10500.9262 1391.9963 0.0000 0.0000 1744.4796 -7352.9451 301.4119 -9097.4247 -7379.3591 299.4945 -561.7856 -480.9274 30858.4175 -245.1403 -195.6508
ENERGY: 600000 0.6493 8.3436 4.9734 0.0000 -10508.3123 1385.6479 0.0000 0.0000 1717.6089 -7391.0893 296.7691 -9108.6982 -7385.2238 299.2873 -219.7125 -122.3359 29956.5229 -137.8467 -80.9205
ENERGY: 900000 1.4969 8.6620 4.9853 0.0000 -10540.1561 1452.0911 0.0000 0.0000 1711.7716 -7361.1492 295.7606 -9072.9207 -7374.9499 298.7280 -11.8850 104.2567 30680.6922 -215.6690 -145.5908
ENERGY: 1200000 0.3642 8.3153 3.5052 0.0000 -10514.3235 1421.5774 0.0000 0.0000 1748.0427 -7332.5187 302.0275 -9080.5614 -7366.4139 299.1214 85.6652 116.2401 30057.9830 -119.4023 -55.9143
ENERGY: 1500000 1.1242 5.7365 4.2187 0.0000 -10481.9066 1371.6229 0.0000 0.0000 1721.1001 -7378.1043 297.3723 -9099.2044 -7369.9482 298.7401 -286.8250 -234.5067 29775.5561 -120.8484 -61.9589
TCL: Running FEP window  20: Lambda1 0.9500000000000003 Lambda2 1.0    [dLambda 0.04999999999999971]
TCL: Setting parameter firsttimestep to 0
TCL: Setting parameter alchLambda to 0.9500000000000003
Info: NONBONDED TABLE R-SQUARED SPACING: 0.0625
Info: NONBONDED TABLE SIZE: 705 POINTS
TCL: Setting parameter alchLambda2 to 1.0
Info: NONBONDED TABLE R-SQUARED SPACING: 0.0625
Info: NONBONDED TABLE SIZE: 705 POINTS
TCL: Running for 1500000 steps
ETITLE: TS BOND ANGLE DIHED IMPRP ELECT VDW BOUNDARY MISC KINETIC TOTAL TEMP POTENTIAL TOTALAVG TEMPAVG PRESSURE GPRESSURE VOLUME PRESSAVG GPRESSAVG
ENERGY: 0 1.1242 5.7365 4.2187 0.0000 -10481.9228 1371.1867 0.0000 0.0000 1720.2621 -7379.3947 297.2276 -9099.6567 -7379.3947 297.2276 -308.0432 -229.7208 29775.5561 -308.0432 -229.7208
ENERGY: 300000 0.7167 5.0137 5.7113 0.0000 -10350.0678 1307.6068 0.0000 0.0000 1769.0883 -7261.9311 305.6638 -9031.0194 -7347.6505 301.4898 -896.7625 -864.7335 30761.4994 57.4855 110.1910
ENERGY: 600000 0.2080 5.5805 3.9483 0.0000 -10506.5321 1395.4959 0.0000 0.0000 1683.3004 -7417.9990 290.8413 -9101.2994 -7360.8652 302.2054 40.9659 75.3511 29640.3955 70.7824 125.4505
ENERGY: 900000 0.8918 6.8999 2.6845 0.0000 -10612.4018 1496.3517 0.0000 0.0000 1805.0577 -7300.5162 311.8786 -9105.5739 -7354.9535 302.2541 708.1157 712.1462 29917.7546 156.7120 196.6966
ENERGY: 1200000 0.2589 4.5716 4.5675 0.0000 -10548.5262 1386.1658 0.0000 0.0000 1757.4190 -7395.5435 303.6475 -9152.9625 -7360.4123 301.4885 -293.8279 -256.7353 29899.5059 82.7137 121.4751
ENERGY: 1500000 1.0711 4.5774 6.7349 0.0000 -10521.7372 1436.9045 0.0000 0.0000 1717.3694 -7355.0798 296.7278 -9072.4492 -7370.4230 300.4693 101.6410 178.3920 30299.6844 68.7089 110.8799
TCL: Exiting due to exit command.
