Info: SIMULATION PARAMETERS:
Info: TIMESTEP               2
Info: NUMBER OF STEPS        0
Info: STEPS PER CYCLE        10
Info: PERIODIC CELL BASIS 1  34.203 0 0
Info: PERIODIC CELL BASIS 2  0 29.3209 0
Info: PERIODIC CELL BASIS 3  0 0 30.7643
Info: PERIODIC CELL CENTER   0 0 0
Info: WRAPPING WATERS AROUND PERIODIC BOUNDARIES ON OUTPUT.
Info: WRAPPING ALL CLUSTERS AROUND PERIODIC BOUNDARIES ON OUTPUT.
Info: FIRST LDB TIMESTEP     50
Info: LAST LDB TIMESTEP     -1
Info: HOM BACKGROUND SCALING 1
Info: PME BACKGROUND SCALING 1
Info: MIN ATOMS PER PATCH    40
Info: EMPTY PATCH LOAD       40 ATOMS
Info: VELOCITY FILE          mobley_1722522_equil.vel
Info: CENTER OF MASS MOVING INITIALLY? NO
Info: DIELECTRIC             1
Info: EXCLUDE                SCALED ONE-FOUR
Info: 1-4 ELECTROSTATICS SCALED BY 0.833333
Info: MODIFIED 1-4 VDW PARAMETERS WILL BE USED
Info: DCD FILENAME           mobley_1722522_prod.dcd
Info: DCD FREQUENCY          100000
Info: DCD FIRST STEP         100000
Info: DCD FILE WILL CONTAIN UNIT CELL DATA
Info: XST FILENAME           mobley_1722522_prod.xst
Info: XST FREQUENCY          100000
Info: NO VELOCITY DCD OUTPUT
Info: NO FORCE DCD OUTPUT
Info: OUTPUT FILENAME        mobley_1722522_prod
Info: BINARY OUTPUT FILES WILL BE USED
Info: RESTART FILENAME       mobley_1722522_prod.restart
Info: RESTART FREQUENCY      100000
Info: BINARY RESTART FILES WILL BE USED
Info: CUTOFF                 9
Info: PAIRLIST DISTANCE      11
Info: PAIRLIST SHRINK RATE   0.01
Info: PAIRLIST GROW RATE     0.01
Info: PAIRLIST TRIGGER       0.3
Info: PAIRLISTS PER CYCLE    2
Info: PAIRLISTS ENABLED
Info: MARGIN                 2
Info: HYDROGEN GROUP CUTOFF  2.5
Info: PATCH DIMENSION        15.5
Info: ENERGY OUTPUT STEPS    100000
Info: ENERGY EVALUATION STEPS    100000
Info: OUTPUT ENERGY PRECISION 4
Info: CROSSTERM ENERGY INCLUDED IN DIHEDRAL
Info: TIMING OUTPUT STEPS    1000000
Info: PRESSURE OUTPUT STEPS  100000
Info: ALCHEMICAL FEP ON
Info: FEP CURRENT LAMBDA VALUE     1
Info: FEP COMPARISON LAMBDA VALUE  0.95
Info: FEP INTRA-ALCHEMICAL NON-BONDED INTERACTIONS WILL BE RETAINED
Info: FEP INTRA-ALCHEMICAL BONDED INTERACTIONS WILL BE RETAINED
Info: FEP VDW SHIFTING COEFFICIENT 5
Info: FEP ELEC. ACTIVE FOR ANNIHILATED PARTICLES BETWEEN LAMBDA = 0 AND LAMBDA = 0.5
Info: FEP ELEC. ACTIVE FOR EXNIHILATED PARTICLES BETWEEN LAMBDA = 0.5 AND LAMBDA = 1
Info: FEP VDW ACTIVE FOR ANNIHILATED PARTICLES BETWEEN LAMBDA = 0 AND LAMBDA = 1
Info: FEP VDW ACTIVE FOR EXNIHILATED PARTICLES BETWEEN LAMBDA = 0 AND LAMBDA = 1
Info: FEP BOND ACTIVE FOR ANNIHILATED PARTICLES BETWEEN LAMBDA = 1 AND LAMBDA = 1
Info: FEP BOND ACTIVE FOR EXNIHILATED PARTICLES BETWEEN LAMBDA = 0 AND LAMBDA = 0
Info: LANGEVIN DYNAMICS ACTIVE
Info: LANGEVIN TEMPERATURE   300
Info: LANGEVIN USING BBK INTEGRATOR
Info: LANGEVIN DAMPING COEFFICIENT IS 1 INVERSE PS
Info: LANGEVIN DYNAMICS APPLIED TO HYDROGENS
Info: LANGEVIN PISTON PRESSURE CONTROL ACTIVE
Info:        TARGET PRESSURE IS 1.01325 BAR
Info:     OSCILLATION PERIOD IS 50 FS
Info:             DECAY TIME IS 25 FS
Info:     PISTON TEMPERATURE IS 300 K
Info:       PRESSURE CONTROL IS GROUP-BASED
Info:    INITIAL STRAIN RATE IS 0.000130731 0.000130731 0.000130731
Info:       CELL FLUCTUATION IS ISOTROPIC
Info: PARTICLE MESH EWALD (PME) ACTIVE
Info: PME TOLERANCE               1e-06
Info: PME EWALD COEFFICIENT       0.348832
Info: PME INTERPOLATION ORDER     4
Info: PME GRID DIMENSIONS         36 32 32
Info: PME MAXIMUM GRID SPACING    1
Info: PME CALCULATION WILL BE PERFORMED ON GPU
Info: FULL ELECTROSTATIC EVALUATION FREQUENCY      2
Info: USING VERLET I (r-RESPA) MTS SCHEME.
Info: C1 SPLITTING OF LONG RANGE ELECTROSTATICS
Info: PLACING ATOMS IN PATCHES BY HYDROGEN GROUPS
Info: RIGID BONDS TO HYDROGEN : ALL
Info:         ERROR TOLERANCE : 1e-08
Info:          MAX ITERATIONS : 100
Info: RIGID WATER USING SETTLE ALGORITHM
Info: RANDOM NUMBER SEED     1743933295
Info: USE HYDROGEN BONDS?    NO
Info: Using AMBER format force field!
Info: AMBER PARM FILE        mobley_1722522.prmtop
Info: COORDINATE PDB         mobley_1722522.pdb
Info: Exclusions will be read from PARM file!
Info: SCNB (VDW SCALING)     2
Info: USING ARITHMETIC MEAN TO COMBINE L-J SIGMA PARAMETERS
Info: BINARY COORDINATES     mobley_1722522_equil.coor
Info: SUMMARY OF PARAMETERS:
Info: 9 BONDS
Info: 13 ANGLES
Info:   13 HARMONIC
Info:   0 COSINE-BASED
Info: 17 DIHEDRAL
Info: 0 IMPROPER
Info: 0 CROSSTERM
Info: 0 VDW
Info: 36 VDW_PAIRS
Info: 0 NBTHOLE_PAIRS
Info: To read alchdata from file: mobley_1722522.pdb
Info: To read alchflag data from column: 5
Info: STRUCTURE SUMMARY:
Info: 2996 ATOMS
Info: 2995 BONDS
Info: 34 ANGLES
Info: 50 DIHEDRALS
Info: 0 IMPROPERS
Info: 0 CROSSTERMS
Info: 3067 EXCLUSIONS
Info: 2988 RIGID BONDS
Info: ALCH: 0 ATOMS TO DISAPPEAR IN FINAL STATE
Info: ALCH: 20 ATOMS TO APPEAR IN FINAL STATE
Info: 6000 DEGREES OF FREEDOM
Info: 1000 HYDROGEN GROUPS
Info: 4 ATOMS IN LARGEST HYDROGEN GROUP
Info: 1000 MIGRATION GROUPS
Info: 4 ATOMS IN LARGEST MIGRATION GROUP
Info: TOTAL MASS = 17988 amu
Info: TOTAL CHARGE = 9.99756e-05 e
Info: MASS DENSITY = 0.968173 g/cm^3
Info: ATOM DENSITY = 0.0971073 atoms/A^3
Info: ADDED 0 IMPLICIT EXCLUSIONS
Info: NONBONDED TABLE R-SQUARED SPACING: 0.0625
Info: NONBONDED TABLE SIZE: 705 POINTS
Info: REMOVING COM VELOCITY 0.120809 0.120468 -0.0497974
Info: Use 3D box decompostion in PME FFT.
Info: Updated CUDA force table with 4096 elements.
Info: Updated CUDA LJ table with 8 x 8 elements.
Info: Found 23 unique exclusion lists needing 60 bytes
TCL: Running for 1500000 steps
ETITLE: TS BOND ANGLE DIHED IMPRP ELECT VDW BOUNDARY MISC KINETIC TOTAL TEMP POTENTIAL TOTALAVG TEMPAVG PRESSURE GPRESSURE VOLUME PRESSAVG GPRESSAVG
ENERGY: 0 3.3099 5.4438 5.7224 0.0000 -10907.7665 1499.3951 0.0000 0.0000 1777.4837 -7616.4116 298.1568 -9393.8953 -7616.4116 298.1568 252.4427 329.5722 30852.4745 252.4427 329.5722
ENERGY: 300000 2.6688 8.2756 5.4247 0.0000 -10797.0828 1441.1495 0.0000 0.0000 1774.3948 -7565.1693 297.6387 -9339.5642 -7557.7485 299.0574 -224.7970 -105.4191 31351.0013 -282.1500 -194.6950
ENERGY: 600000 1.9397 8.1478 4.3623 0.0000 -10846.1890 1384.5069 0.0000 0.0000 1750.5113 -7696.7211 293.6324 -9447.2323 -7581.4599 298.9482 -528.4613 -488.3187 30765.1050 -385.5470 -315.6058
ENERGY: 900000 2.4992 11.0269 3.4460 0.0000 -10810.3599 1447.4664 0.0000 0.0000 1794.4450 -7551.4763 301.0019 -9345.9213 -7582.4830 297.8530 -53.9897 -16.4344 31007.1396 -313.2420 -246.4299
ENERGY: 1200000 4.3876 8.0727 3.3312 0.0000 -10616.2011 1363.2904 0.0000 0.0000 1817.8848 -7419.2343 304.9337 -9237.1191 -7568.5954 299.0972 -351.3299 -284.8035 31346.2217 -251.0773 -182.6474
ENERGY: 1500000 2.5565 10.6135 6.0076 0.0000 -10819.5293 1491.7491 0.0000 0.0000 1806.4211 -7502.1815 303.0108 -9308.6026 -7564.3974 299.9943 595.7958 657.3993 30852.6669 -158.4286 -91.6736
TCL: Running FEP window   2: Lambda1 0.95   Lambda2 0.8999999999999999 [dLambda -0.050000000000000044]
TCL: Setting parameter firsttimestep to 0
TCL: Setting parameter alchLambda to 0.95
Info: NONBONDED TABLE R-SQUARED SPACING: 0.0625
Info: NONBONDED TABLE SIZE: 705 POINTS
TCL: Setting parameter alchLambda2 to 0.8999999999999999
Info: NONBONDED TABLE R-SQUARED SPACING: 0.0625
Info: NONBONDED TABLE SIZE: 705 POINTS
TCL: Running for 1500000 steps
ETITLE: TS BOND ANGLE DIHED IMPRP ELECT VDW BOUNDARY MISC KINETIC TOTAL TEMP POTENTIAL TOTALAVG TEMPAVG PRESSURE GPRESSURE VOLUME PRESSAVG GPRESSAVG
ENERGY: 0 2.5565 10.6136 6.0076 0.0000 -10818.7021 1491.6755 0.0000 0.0000 1805.5656 -7502.2835 302.8673 -9307.8490 -7502.2835 302.8673 572.9612 647.6724 30852.6669 572.9612 647.6724
ENERGY: 300000 1.1582 6.2499 3.4736 0.0000 -10826.2048 1420.4271 0.0000 0.0000 1735.7351 -7659.1609 291.1539 -9394.8960 -7593.9139 299.3644 -366.6651 -303.1497 30911.4984 59.5879 135.1125
ENERGY: 600000 0.9364 5.6164 6.1465 0.0000 -10873.8679 1468.7020 0.0000 0.0000 1747.3030 -7645.1637 293.0943 -9392.4667 -7602.8516 297.9332 289.0991 314.8232 30696.0212 127.5000 203.3121
ENERGY: 900000 0.7001 9.5489 4.2673 0.0000 -10819.0808 1383.1887 0.0000 0.0000 1783.0524 -7638.3235 299.0909 -9421.3759 -7605.4417 298.9165 -666.2745 -670.0936 31087.9185 26.2875 97.8006
ENERGY: 1200000 1.2232 7.6072 4.8170 0.0000 -10893.2405 1469.9070 0.0000 0.0000 1738.0129 -7671.6732 291.5360 -9409.6861 -7617.3207 298.7180 -159.0407 -96.9355 30962.7425 -59.1076 9.0590
ENERGY: 1500000 2.0672 9.6573 4.8652 0.0000 -10939.7640 1604.4645 0.0000 0.0000 1788.7135 -7529.9964 300.0405 -9318.7099 -7608.2307 298.8616 1090.5975 1175.2014 31358.9295 28.1087 100.1228
TCL: Running FEP window   3: Lambda1 0.8999999999999999 Lambda2 0.8499999999999999 [dLambda -0.050000000000000044]
TCL: Setting parameter firsttimestep to 0
TCL: Setting parameter alchLambda to 0.8999999999999999
Info: NONBONDED TABLE R-SQUARED SPACING: 0.0625
Info: NONBONDED TABLE SIZE: 705 POINTS
TCL: Setting parameter alchLambda2 to 0.8499999999999999
Info: NONBONDED TABLE R-SQUARED SPACING: 0.0625
Info: NONBONDED TABLE SIZE: 705 POINTS
TCL: Running for 1500000 steps
ETITLE: TS BOND ANGLE DIHED IMPRP ELECT VDW BOUNDARY MISC KINETIC TOTAL TEMP POTENTIAL TOTALAVG TEMPAVG PRESSURE GPRESSURE VOLUME PRESSAVG GPRESSAVG
ENERGY: 0 2.0672 9.6573 4.8652 0.0000 -10938.4223 1604.4236 0.0000 0.0000 1787.8465 -7529.5625 299.8951 -9317.4089 -7529.5625 299.8951 1097.1108 1161.6550 31358.9295 1097.1108 1161.6550
ENERGY: 300000 4.3877 6.1585 6.2832 0.0000 -10637.8401 1323.4980 0.0000 0.0000 1777.3068 -7520.2058 298.1271 -9297.5126 -7547.5320 302.9960 -962.8903 -893.4616 31264.0959 60.9626 112.2743
ENERGY: 600000 4.5772 8.5460 3.8692 0.0000 -10826.1880 1449.8501 0.0000 0.0000 1791.9205 -7567.4250 300.5785 -9359.3455 -7548.4201 302.3337 -151.8331 -159.8304 31372.9544 -101.2743 -60.6221
ENERGY: 900000 3.9205 11.1088 5.2135 0.0000 -10869.2150 1428.4192 0.0000 0.0000 1755.5978 -7664.9552 294.4857 -9420.5530 -7574.2313 300.1307 -352.2731 -300.2678 30737.2623 -62.7828 -21.5762
ENERGY: 1200000 4.1255 5.1857 5.2049 0.0000 -10794.1591 1451.2755 0.0000 0.0000 1715.5401 -7612.8273 287.7664 -9328.3674 -7579.8295 298.5484 249.1121 326.1264 30409.3059 -72.6771 -21.0650
ENERGY: 1500000 2.8615 7.9258 4.3105 0.0000 -10893.4221 1486.2757 0.0000 0.0000 1804.9484 -7587.1002 302.7638 -9392.0486 -7578.4463 299.5630 201.0700 243.2774 30879.3001 -62.9768 -8.9096
TCL: Running FEP window   4: Lambda1 0.8499999999999999 Lambda2 0.7999999999999998 [dLambda -0.050000000000000044]
TCL: Setting parameter firsttimestep to 0
TCL: Setting parameter alchLambda to 0.8499999999999999
Info: NONBONDED TABLE R-SQUARED SPACING: 0.0625
Info: NONBONDED TABLE SIZE: 705 POINTS
TCL: Setting parameter alchLambda2 to 0.7999999999999998
Info: NONBONDED TABLE R-SQUARED SPACING: 0.0625
Info: NONBONDED TABLE SIZE: 705 POINTS
TCL: Running for 1500000 steps
ETITLE: TS BOND ANGLE DIHED IMPRP ELECT VDW BOUNDARY MISC KINETIC TOTAL TEMP POTENTIAL TOTALAVG TEMPAVG PRESSURE GPRESSURE VOLUME PRESSAVG GPRESSAVG
ENERGY: 0 2.8615 7.9259 4.3105 0.0000 -10891.5273 1484.4205 0.0000 0.0000 1804.0575 -7587.9514 302.6143 -9392.0089 -7587.9514 302.6143 128.3106 206.5049 30879.3001 128.3106 206.5049
ENERGY: 300000 1.8011 13.0411 5.2934 0.0000 -10683.4257 1327.0743 0.0000 0.0000 1746.7392 -7589.4766 292.9997 -9336.2158 -7642.9153 297.0842 -1055.2297 -1037.5332 31118.7302 -217.1605 -178.4217
ENERGY: 600000 0.9352 16.2826 3.7839 0.0000 -10931.6865 1512.9523 0.0000 0.0000 1803.1644 -7594.5681 302.4645 -9397.7325 -7620.5152 300.3665 636.4278 622.2255 30556.0832 59.3566 96.1932
ENERGY: 900000 3.2009 9.1088 4.5177 0.0000 -10811.9779 1404.6169 0.0000 0.0000 1794.8085 -7595.7251 301.0629 -9390.5336 -7602.8517 300.5346 -360.2757 -298.0365 30702.6578 -36.5203 2.6773
ENERGY: 1200000 0.9566 8.6091 3.9040 0.0000 -10856.8714 1438.9865 0.0000 0.0000 1811.0129 -7593.4022 303.7811 -9404.4151 -7606.4660 301.2967 -230.0380 -139.4773 31063.4251 -31.0343 11.9394
ENERGY: 1500000 3.1503 4.3200 7.2282 0.0000 -10918.7937 1530.6112 0.0000 0.0000 1829.8810 -7543.6030 306.9460 -9373.4841 -7601.5847 301.9610 640.4940 690.8775 30617.8980 -49.5150 -0.5235
TCL: Running FEP window   5: Lambda1 0.7999999999999998 Lambda2 0.7499999999999998 [dLambda -0.050000000000000044]
TCL: Setting parameter firsttimestep to 0
TCL: Setting parameter alchLambda to 0.7999999999999998
Info: NONBONDED TABLE R-SQUARED SPACING: 0.0625
Info: NONBONDED TABLE SIZE: 705 POINTS
TCL: Setting parameter alchLambda2 to 0.7499999999999998
Info: NONBONDED TABLE R-SQUARED SPACING: 0.0625
Info: NONBONDED TABLE SIZE: 705 POINTS
TCL: Running for 1500000 steps
ETITLE: TS BOND ANGLE DIHED IMPRP ELECT VDW BOUNDARY MISC KINETIC TOTAL TEMP POTENTIAL TOTALAVG TEMPAVG PRESSURE GPRESSURE VOLUME PRESSAVG GPRESSAVG
ENERGY: 0 3.1503 4.3200 7.2282 0.0000 -10917.1735 1530.1459 0.0000 0.0000 1829.0091 -7543.3201 306.7997 -9372.3292 -7543.3201 306.7997 581.0732 674.8444 30617.8980 581.0732 674.8444
ENERGY: 300000 1.4423 8.5723 6.0140 0.0000 -10816.2741 1384.2973 0.0000 0.0000 1762.8648 -7653.0834 295.7046 -9415.9481 -7603.4248 300.0255 -802.1684 -745.7481 31229.2439 10.7772 109.4638
ENERGY: 600000 0.9249 5.5704 5.2905 0.0000 -10871.1694 1456.2550 0.0000 0.0000 1757.1319 -7645.9967 294.7430 -9403.1286 -7586.1583 301.6177 -15.3328 75.3703 30893.0497 39.2997 107.5584
ENERGY: 900000 4.6771 8.0792 7.3941 0.0000 -10768.0156 1366.3259 0.0000 0.0000 1730.9628 -7650.5764 290.3534 -9381.5392 -7599.9361 299.7002 -608.0824 -603.1487 30853.4060 -111.7071 -36.8452
ENERGY: 1200000 0.9134 8.6628 3.8540 0.0000 -10903.8515 1458.1722 0.0000 0.0000 1828.2670 -7603.9821 306.6753 -9432.2491 -7596.8849 300.3713 -217.6642 -253.5822 31188.7856 -120.0703 -61.2319
ENERGY: 1500000 2.2195 9.1474 8.2027 0.0000 -10907.4114 1437.3066 0.0000 0.0000 1786.5561 -7663.9792 299.6786 -9450.5353 -7606.5886 299.6990 -289.1933 -177.2592 30517.5546 -165.3175 -102.7630
TCL: Running FEP window   6: Lambda1 0.7499999999999998 Lambda2 0.6999999999999997 [dLambda -0.050000000000000044]
TCL: Setting parameter firsttimestep to 0
TCL: Setting parameter alchLambda to 0.7499999999999998
Info: NONBONDED TABLE R-SQUARED SPACING: 0.0625
Info: NONBONDED TABLE SIZE: 705 POINTS
TCL: Setting parameter alchLambda2 to 0.6999999999999997
Info: NONBONDED TABLE R-SQUARED SPACING: 0.0625
Info: NONBONDED TABLE SIZE: 705 POINTS
TCL: Running for 1500000 steps
ETITLE: TS BOND ANGLE DIHED IMPRP ELECT VDW BOUNDARY MISC KINETIC TOTAL TEMP POTENTIAL TOTALAVG TEMPAVG PRESSURE GPRESSURE VOLUME PRESSAVG GPRESSAVG
ENERGY: 0 2.2195 9.1474 8.2027 0.0000 -10906.6087 1436.8737 0.0000 0.0000 1785.6806 -7664.4848 299.5318 -9450.1654 -7664.4848 299.5318 -266.4498 -193.3538 30517.5546 -266.4498 -193.3538
ENERGY: 300000 1.4060 7.4896 5.5437 0.0000 -10899.2010 1487.7376 0.0000 0.0000 1813.1953 -7583.8287 304.1471 -9397.0240 -7604.1308 300.9051 150.8093 173.0435 31010.3309 25.2992 64.7683
ENERGY: 600000 1.8423 8.9258 3.3207 0.0000 -10745.8586 1363.9235 0.0000 0.0000 1729.2900 -7638.5563 290.0728 -9367.8463 -7605.7035 298.8082 -541.3897 -437.7454 30395.6534 -265.2308 -212.8150
ENERGY: 900000 2.8746 5.2269 4.7571 0.0000 -10909.9452 1517.0592 0.0000 0.0000 1780.2990 -7599.7285 298.6291 -9380.0275 -7598.6128 298.0301 331.2445 452.9047 30935.6589 -103.4025 -40.1812
ENERGY: 1200000 3.0574 10.6786 5.6854 0.0000 -10938.5888 1542.4456 0.0000 0.0000 1791.2814 -7585.4404 300.4713 -9376.7218 -7599.2487 298.4498 652.8180 732.4597 30775.1845 -29.6074 38.5528
ENERGY: 1500000 1.4403 9.5666 5.3769 0.0000 -10887.1880 1508.6541 0.0000 0.0000 1856.6517 -7505.4982 311.4366 -9362.1499 -7588.5840 299.6479 620.9663 700.0128 30632.9958 17.8267 83.7774
TCL: Running FEP window   7: Lambda1 0.6999999999999997 Lambda2 0.6499999999999997 [dLambda -0.050000000000000044]
TCL: Setting parameter firsttimestep to 0
TCL: Setting parameter alchLambda to 0.6999999999999997
Info: NONBONDED TABLE R-SQUARED SPACING: 0.0625
Info: NONBONDED TABLE SIZE: 705 POINTS
TCL: Setting parameter alchLambda2 to 0.6499999999999997
Info: NONBONDED TABLE R-SQUARED SPACING: 0.0625
Info: NONBONDED TABLE SIZE: 705 POINTS
TCL: Running for 1500000 steps
ETITLE: TS BOND ANGLE DIHED IMPRP ELECT VDW BOUNDARY MISC KINETIC TOTAL TEMP POTENTIAL TOTALAVG TEMPAVG PRESSURE GPRESSURE VOLUME PRESSAVG GPRESSAVG
ENERGY: 0 1.4403 9.5666 5.3769 0.0000 -10886.3134 1508.9018 0.0000 0.0000 1855.7882 -7505.2395 311.2917 -9361.0276 -7505.2395 311.2917 612.9242 692.7877 30632.9958 612.9242 692.7877
ENERGY: 300000 1.1743 8.2123 3.9960 0.0000 -10795.5774 1370.4709 0.0000 0.0000 1835.6904 -7576.0335 307.9205 -9411.7239 -7585.0963 302.1465 -787.7104 -776.1024 30811.3019 -96.4933 -36.3703
ENERGY: 600000 1.2535 13.4201 3.8869 0.0000 -10893.4397 1461.0597 0.0000 0.0000 1786.3487 -7627.4707 299.6439 -9413.8194 -7589.7238 301.8585 -129.2309 -70.9253 30932.9313 82.1830 152.0715
ENERGY: 900000 3.7004 6.4375 4.1077 0.0000 -10640.2298 1329.0842 0.0000 0.0000 1748.4805 -7548.4194 293.2918 -9296.9000 -7578.4292 301.9874 -952.9263 -875.9202 31447.9989 -100.3959 -35.2215
ENERGY: 1200000 3.4751 11.3620 3.9229 0.0000 -10895.2519 1506.7167 0.0000 0.0000 1812.5552 -7557.2200 304.0398 -9369.7751 -7589.1881 301.2832 542.5273 586.7962 30711.8175 -116.5335 -46.5851
ENERGY: 1500000 4.6806 11.1442 4.9426 0.0000 -10913.9018 1430.4370 0.0000 0.0000 1732.1126 -7730.5849 290.5462 -9462.6975 -7590.3054 300.6474 -547.2302 -512.3039 30878.7276 -124.5598 -58.6546
TCL: Running FEP window   8: Lambda1 0.6499999999999997 Lambda2 0.5999999999999996 [dLambda -0.050000000000000044]
TCL: Setting parameter firsttimestep to 0
TCL: Setting parameter alchLambda to 0.6499999999999997
Info: NONBONDED TABLE R-SQUARED SPACING: 0.0625
Info: NONBONDED TABLE SIZE: 705 POINTS
TCL: Setting parameter alchLambda2 to 0.5999999999999996
Info: NONBONDED TABLE R-SQUARED SPACING: 0.0625
Info: NONBONDED TABLE SIZE: 705 POINTS
TCL: Running for 1500000 steps
ETITLE: TS BOND ANGLE DIHED IMPRP ELECT VDW BOUNDARY MISC KINETIC TOTAL TEMP POTENTIAL TOTALAVG TEMPAVG PRESSURE GPRESSURE VOLUME PRESSAVG GPRESSAVG
ENERGY: 0 4.6806 11.1442 4.9426 0.0000 -10912.6938 1430.6945 0.0000 0.0000 1731.2186 -7730.0134 290.3963 -9461.2320 -7730.0134 290.3963 -609.4507 -521.1702 30878.7276 -609.4507 -521.1702
ENERGY: 300000 0.4962 11.5299 4.1299 0.0000 -10895.9507 1504.6562 0.0000 0.0000 1778.5595 -7596.5791 298.3373 -9375.1386 -7655.6550 297.7328 550.0216 558.5980 30507.3451 -189.7846 -117.4770
ENERGY: 600000 2.5724 10.6206 4.8794 0.0000 -10893.4344 1491.8146 0.0000 0.0000 1792.9450 -7590.6025 300.7503 -9383.5475 -7622.3570 298.4682 403.7875 498.0142 30543.0696 -115.0965 -44.8534
ENERGY: 900000 1.5059 16.2647 4.9333 0.0000 -10879.0967 1455.1328 0.0000 0.0000 1719.5867 -7681.6733 288.4451 -9401.2600 -7618.6964 298.3110 3.9369 -30.3042 30708.7065 -55.2494 7.1164
ENERGY: 1200000 2.1182 6.0155 4.5184 0.0000 -10820.1517 1464.0856 0.0000 0.0000 1790.1196 -7553.2943 300.2764 -9343.4139 -7612.4096 298.7069 267.1672 323.8351 30527.5390 -140.7222 -73.2749
ENERGY: 1500000 3.6924 10.4938 7.0749 0.0000 -10849.9314 1459.7248 0.0000 0.0000 1758.6731 -7610.2724 295.0015 -9368.9455 -7608.4554 298.8287 -52.8327 16.1746 31047.4557 -73.9089 -3.5758
TCL: Running FEP window   9: Lambda1 0.5999999999999996 Lambda2 0.5499999999999996 [dLambda -0.050000000000000044]
TCL: Setting parameter firsttimestep to 0
TCL: Setting parameter alchLambda to 0.5999999999999996
Info: NONBONDED TABLE R-SQUARED SPACING: 0.0625
Info: NONBONDED TABLE SIZE: 705 POINTS
TCL: Setting parameter alchLambda2 to 0.5499999999999996
Info: NONBONDED TABLE R-SQUARED SPACING: 0.0625
Info: NONBONDED TABLE SIZE: 705 POINTS
TCL: Running for 1500000 steps
ETITLE: TS BOND ANGLE DIHED IMPRP ELECT VDW BOUNDARY MISC KINETIC TOTAL TEMP POTENTIAL TOTALAVG TEMPAVG PRESSURE GPRESSURE VOLUME PRESSAVG GPRESSAVG
ENERGY: 0 3.6924 10.4939 7.0749 0.0000 -10849.6322 1460.3835 0.0000 0.0000 1757.7661 -7610.2214 294.8494 -9367.9875 -7610.2214 294.8494 -71.1864 12.7764 31047.4557 -71.1864 12.7764
ENERGY: 300000 1.2031 8.4352 3.9505 0.0000 -10944.9304 1570.7955 0.0000 0.0000 1772.2125 -7588.3336 297.2726 -9360.5461 -7616.0308 298.8351 1131.8591 1215.4680 30294.7166 195.9153 270.3311
ENERGY: 600000 3.3306 9.7062 5.2024 0.0000 -10756.2309 1368.3302 0.0000 0.0000 1785.0412 -7584.6203 299.4245 -9369.6615 -7592.9585 301.0330 -778.9005 -738.0541 30873.8077 120.1813 182.4116
ENERGY: 900000 0.8719 9.9275 4.7599 0.0000 -10762.2088 1416.7425 0.0000 0.0000 1803.2833 -7526.6237 302.4845 -9329.9071 -7589.3231 301.3217 66.6812 97.9434 30783.9921 63.9662 126.9908
ENERGY: 1200000 2.0486 7.7780 5.8259 0.0000 -10838.3890 1492.3442 0.0000 0.0000 1778.6432 -7551.7491 298.3513 -9330.3923 -7588.0123 300.4299 235.5652 334.6284 30721.8621 151.4687 212.8335
ENERGY: 1500000 1.2212 6.4302 5.5209 0.0000 -10741.7029 1395.1399 0.0000 0.0000 1774.7398 -7558.6510 297.6966 -9333.3907 -7578.0447 301.2514 -321.7749 -242.5840 30775.8555 71.9704 132.4327
TCL: Running FEP window  10: Lambda1 0.5499999999999996 Lambda2 0.4999999999999996 [dLambda -0.04999999999999999]
TCL: Setting parameter firsttimestep to 0
TCL: Setting parameter alchLambda to 0.5499999999999996
Info: NONBONDED TABLE R-SQUARED SPACING: 0.0625
Info: NONBONDED TABLE SIZE: 705 POINTS
TCL: Setting parameter alchLambda2 to 0.4999999999999996
Info: NONBONDED TABLE R-SQUARED SPACING: 0.0625
Info: NONBONDED TABLE SIZE: 705 POINTS
TCL: Running for 1500000 steps
ETITLE: TS BOND ANGLE DIHED IMPRP ELECT VDW BOUNDARY MISC KINETIC TOTAL TEMP POTENTIAL TOTALAVG TEMPAVG PRESSURE GPRESSURE VOLUME PRESSAVG GPRESSAVG
ENERGY: 0 1.2212 6.4302 5.5209 0.0000 -10741.8068 1395.2687 0.0000 0.0000 1773.8648 -7559.5011 297.5498 -9333.3659 -7559.5011 297.5498 -324.6187 -252.0085 30775.8555 -324.6187 -252.0085
ENERGY: 300000 2.4121 9.4119 5.1846 0.0000 -10770.0107 1382.6799 0.0000 0.0000 1808.8782 -7561.4440 303.4230 -9370.3222 -7570.1697 300.0455 -563.9968 -499.6350 31028.6756 -239.2564 -175.4453
ENERGY: 600000 4.9379 9.0197 6.2862 0.0000 -10852.4396 1422.3525 0.0000 0.0000 1787.5375 -7622.3058 299.8433 -9409.8433 -7571.1410 299.8150 -272.0587 -222.8948 30470.2588 -299.5275 -244.5486
ENERGY: 900000 0.5282 11.6672 4.3039 0.0000 -10908.3574 1481.4224 0.0000 0.0000 1736.9013 -7673.5343 291.3495 -9410.4356 -7583.7734 298.6824 147.6103 235.3107 30430.0053 -180.1717 -128.7553
ENERGY: 1200000 3.2439 9.9552 4.6411 0.0000 -10715.3388 1408.0915 0.0000 0.0000 1846.1107 -7443.2966 309.6684 -9289.4073 -7565.5151 300.8166 -574.9990 -467.3715 31483.9317 -261.8930 -203.4464
ENERGY: 1500000 2.1215 9.8476 4.5674 0.0000 -10763.6255 1409.9282 0.0000 0.0000 1795.0147 -7542.1462 301.0975 -9337.1609 -7563.2724 301.0021 -399.7794 -356.3785 30688.2809 -239.5701 -183.6726
TCL: Running FEP window  11: Lambda1 0.4999999999999996 Lambda2 0.4499999999999996 [dLambda -0.04999999999999999]
TCL: Setting parameter firsttimestep to 0
TCL: Setting parameter alchLambda to 0.4999999999999996
Info: NONBONDED TABLE R-SQUARED SPACING: 0.0625
Info: NONBONDED TABLE SIZE: 705 POINTS
TCL: Setting parameter alchLambda2 to 0.4499999999999996
Info: NONBONDED TABLE R-SQUARED SPACING: 0.0625
Info: NONBONDED TABLE SIZE: 705 POINTS
TCL: Running for 1500000 steps
ETITLE: TS BOND ANGLE DIHED IMPRP ELECT VDW BOUNDARY MISC KINETIC TOTAL TEMP POTENTIAL TOTALAVG TEMPAVG PRESSURE GPRESSURE VOLUME PRESSAVG GPRESSAVG
ENERGY: 0 2.1215 9.8476 4.5674 0.0000 -10763.0023 1410.4986 0.0000 0.0000 1794.1175 -7541.8498 300.9470 -9335.9673 -7541.8498 300.9470 -435.2555 -358.1164 30688.2809 -435.2555 -358.1164
ENERGY: 300000 0.6028 8.6120 4.2476 0.0000 -10856.2745 1449.9870 0.0000 0.0000 1759.1022 -7633.7229 295.0735 -9392.8251 -7590.2380 299.2171 -229.2649 -191.7513 30902.2849 -11.8409 34.7557
ENERGY: 600000 2.1039 12.6289 5.0016 0.0000 -10921.2354 1511.4340 0.0000 0.0000 1794.0189 -7596.0482 300.9305 -9390.0671 -7600.9137 300.8653 472.9644 472.4069 30568.6687 217.4887 258.2630
ENERGY: 900000 1.3000 17.2711 6.4574 0.0000 -10957.2638 1565.3029 0.0000 0.0000 1815.0480 -7551.8845 304.4579 -9366.9325 -7590.2793 302.4035 762.1097 855.3147 30855.2388 147.0539 204.4409
ENERGY: 1200000 3.6460 8.2974 5.6793 0.0000 -10842.9530 1373.1624 0.0000 0.0000 1813.8508 -7638.3171 304.2571 -9452.1680 -7599.2996 302.0357 -713.8422 -737.4108 30907.5708 72.8661 119.0585
ENERGY: 1500000 2.9420 7.8007 5.9514 0.0000 -10812.4620 1464.8195 0.0000 0.0000 1786.8890 -7544.0595 299.7345 -9330.9485 -7596.8593 301.3856 251.4586 265.4855 30640.2335 14.3271 63.8346
TCL: Running FEP window  12: Lambda1 0.4499999999999996 Lambda2 0.39999999999999963 [dLambda -0.04999999999999999]
TCL: Setting parameter firsttimestep to 0
TCL: Setting parameter alchLambda to 0.4499999999999996
Info: NONBONDED TABLE R-SQUARED SPACING: 0.0625
Info: NONBONDED TABLE SIZE: 705 POINTS
TCL: Setting parameter alchLambda2 to 0.39999999999999963
Info: NONBONDED TABLE R-SQUARED SPACING: 0.0625
Info: NONBONDED TABLE SIZE: 705 POINTS
TCL: Running for 1500000 steps
ETITLE: TS BOND ANGLE DIHED IMPRP ELECT VDW BOUNDARY MISC KINETIC TOTAL TEMP POTENTIAL TOTALAVG TEMPAVG PRESSURE GPRESSURE VOLUME PRESSAVG GPRESSAVG
ENERGY: 0 2.9420 7.8007 5.9514 0.0000 -10812.4601 1464.6773 0.0000 0.0000 1786.0247 -7545.0641 299.5895 -9331.0888 -7545.0641 299.5895 163.2877 255.2181 30640.2335 163.2877 255.2181
ENERGY: 300000 2.5632 6.2062 8.1782 0.0000 -10722.7095 1385.1145 0.0000 0.0000 1812.1474 -7508.5001 303.9714 -9320.6475 -7577.5682 298.3863 -331.3885 -293.1532 30882.2636 2.6888 74.0704
ENERGY: 600000 0.8818 10.8801 3.9743 0.0000 -10845.6233 1424.2830 0.0000 0.0000 1742.4620 -7663.1421 292.2823 -9405.6041 -7580.3380 298.1410 -432.9129 -370.4561 30842.7027 -121.8172 -58.1238
ENERGY: 900000 2.9266 7.9152 4.6828 0.0000 -10854.6877 1525.8400 0.0000 0.0000 1769.9180 -7543.4050 296.8878 -9313.3230 -7579.6395 298.8863 505.9880 593.7039 30891.3985 -64.1943 -2.1872
ENERGY: 1200000 1.4835 8.1405 5.0722 0.0000 -10696.8653 1332.5167 0.0000 0.0000 1817.5707 -7532.0817 304.8811 -9349.6524 -7571.6535 300.0527 -776.0804 -730.3872 30802.7626 -46.5291 7.3782
ENERGY: 1500000 2.4488 12.9690 6.6671 0.0000 -10863.7845 1522.8320 0.0000 0.0000 1785.9041 -7532.9635 299.5693 -9318.8676 -7578.9694 299.9591 755.1686 812.9512 30768.2325 -5.2871 51.3883
TCL: Running FEP window  13: Lambda1 0.39999999999999963 Lambda2 0.34999999999999964 [dLambda -0.04999999999999999]
TCL: Setting parameter firsttimestep to 0
TCL: Setting parameter alchLambda to 0.39999999999999963
Info: NONBONDED TABLE R-SQUARED SPACING: 0.0625
Info: NONBONDED TABLE SIZE: 705 POINTS
TCL: Setting parameter alchLambda2 to 0.34999999999999964
Info: NONBONDED TABLE R-SQUARED SPACING: 0.0625
Info: NONBONDED TABLE SIZE: 705 POINTS
TCL: Running for 1500000 steps
ETITLE: TS BOND ANGLE DIHED IMPRP ELECT VDW BOUNDARY MISC KINETIC TOTAL TEMP POTENTIAL TOTALAVG TEMPAVG PRESSURE GPRESSURE VOLUME PRESSAVG GPRESSAVG
ENERGY: 0 2.4488 12.9690 6.6671 0.0000 -10863.7851 1522.3460 0.0000 0.0000 1785.0161 -7534.3381 299.4203 -9319.3542 -7534.3381 299.4203 721.2725 799.7936 30768.2325 721.2725 799.7936
ENERGY: 300000 1.1340 9.2612 4.0817 0.0000 -10855.2020 1403.2576 0.0000 0.0000 1870.4479 -7567.0194 313.7507 -9437.4673 -7562.9585 303.0006 -470.9321 -442.1197 30543.4242 235.1052 296.8708
ENERGY: 600000 1.1931 15.4260 4.9804 0.0000 -10846.2479 1398.1239 0.0000 0.0000 1835.8035 -7590.7210 307.9394 -9426.5245 -7581.5843 304.3267 -795.6427 -748.1405 30890.6910 64.8191 122.8306
ENERGY: 900000 3.2819 10.9308 7.7516 0.0000 -10927.0034 1526.0324 0.0000 0.0000 1716.0162 -7662.9904 287.8462 -9379.0067 -7590.5458 303.0655 524.2221 578.8114 30388.7465 130.3658 194.7266
ENERGY: 1200000 3.3640 13.6282 6.0963 0.0000 -10923.1579 1546.9636 0.0000 0.0000 1805.4701 -7547.6357 302.8513 -9353.1058 -7589.4775 301.5308 586.9216 692.0150 31060.2334 161.2624 231.6322
ENERGY: 1500000 2.3139 7.3868 5.8356 0.0000 -10689.1371 1353.8622 0.0000 0.0000 1772.4106 -7547.3280 297.3059 -9319.7386 -7583.2916 301.4317 -531.4084 -565.2441 30356.9297 4.4210 64.4998
TCL: Running FEP window  14: Lambda1 0.34999999999999964 Lambda2 0.29999999999999966 [dLambda -0.04999999999999999]
TCL: Setting parameter firsttimestep to 0
TCL: Setting parameter alchLambda to 0.34999999999999964
Info: NONBONDED TABLE R-SQUARED SPACING: 0.0625
Info: NONBONDED TABLE SIZE: 705 POINTS
TCL: Setting parameter alchLambda2 to 0.29999999999999966
Info: NONBONDED TABLE R-SQUARED SPACING: 0.0625
Info: NONBONDED TABLE SIZE: 705 POINTS
TCL: Running for 1500000 steps
ETITLE: TS BOND ANGLE DIHED IMPRP ELECT VDW BOUNDARY MISC KINETIC TOTAL TEMP POTENTIAL TOTALAVG TEMPAVG PRESSURE GPRESSURE VOLUME PRESSAVG GPRESSAVG
ENERGY: 0 2.3139 7.3868 5.8356 0.0000 -10689.1366 1354.3135 0.0000 0.0000 1771.5227 -7547.7642 297.1569 -9319.2869 -7547.7642 297.1569 -648.1913 -564.6907 30356.9297 -648.1913 -564.6907
ENERGY: 300000 5.4313 10.1857 6.2305 0.0000 -10857.5911 1483.4966 0.0000 0.0000 1804.6582 -7547.5889 302.7151 -9352.2470 -7576.7173 299.1813 173.5162 162.1441 30877.3838 -348.4625 -294.2334
ENERGY: 600000 2.4314 7.7244 4.2270 0.0000 -10824.0984 1427.8124 0.0000 0.0000 1779.2682 -7602.6351 298.4562 -9381.9033 -7591.2707 300.0065 -263.2535 -231.8610 30565.5391 -250.0652 -201.5800
ENERGY: 900000 2.0286 8.4983 4.2540 0.0000 -10912.7513 1465.7349 0.0000 0.0000 1827.1121 -7605.1235 306.4815 -9432.2356 -7599.5371 300.0132 48.8278 75.4010 30515.1889 -305.4211 -262.4971
ENERGY: 1200000 1.9372 8.4855 5.3369 0.0000 -10986.5907 1519.3445 0.0000 0.0000 1864.6344 -7586.8523 312.7756 -9451.4866 -7596.8640 300.1749 205.8210 250.6090 30973.5238 -204.3900 -153.6968
ENERGY: 1500000 3.1161 12.4662 5.5251 0.0000 -10887.1284 1440.8545 0.0000 0.0000 1756.2235 -7668.9430 294.5906 -9425.1664 -7593.0704 300.2712 -482.9644 -380.0832 30793.5350 -129.6874 -76.9898
TCL: Running FEP window  15: Lambda1 0.29999999999999966 Lambda2 0.24999999999999967 [dLambda -0.04999999999999999]
TCL: Setting parameter firsttimestep to 0
TCL: Setting parameter alchLambda to 0.29999999999999966
Info: NONBONDED TABLE R-SQUARED SPACING: 0.0625
Info: NONBONDED TABLE SIZE: 705 POINTS
TCL: Setting parameter alchLambda2 to 0.24999999999999967
Info: NONBONDED TABLE R-SQUARED SPACING: 0.0625
Info: NONBONDED TABLE SIZE: 705 POINTS
TCL: Running for 1500000 steps
ETITLE: TS BOND ANGLE DIHED IMPRP ELECT VDW BOUNDARY MISC KINETIC TOTAL TEMP POTENTIAL TOTALAVG TEMPAVG PRESSURE GPRESSURE VOLUME PRESSAVG GPRESSAVG
ENERGY: 0 3.1161 12.4662 5.5251 0.0000 -10887.1287 1441.4395 0.0000 0.0000 1755.3365 -7669.2453 294.4418 -9424.5817 -7669.2453 294.4418 -460.8043 -379.9072 30793.5350 -460.8043 -379.9072
ENERGY: 300000 1.4177 10.0739 4.5909 0.0000 -10928.6380 1494.9074 0.0000 0.0000 1760.3825 -7657.2655 295.2883 -9417.6480 -7619.6532 300.4274 2.1437 97.9379 30833.3335 -390.1158 -327.6513
ENERGY: 600000 1.9852 7.4472 4.9350 0.0000 -10546.9889 1316.1481 0.0000 0.0000 1854.3273 -7362.1460 311.0467 -9216.4733 -7600.3038 300.8510 -879.1037 -850.0656 31453.7313 -359.0683 -296.9412
ENERGY: 900000 0.9451 6.4558 5.9522 0.0000 -10627.3624 1320.7040 0.0000 0.0000 1730.4069 -7562.8985 290.2601 -9293.3054 -7592.4579 300.1020 -1098.5744 -1065.4902 31317.7864 -426.6550 -370.2032
ENERGY: 1200000 4.0839 11.4026 4.4837 0.0000 -10985.2527 1564.1034 0.0000 0.0000 1782.7749 -7618.4040 299.0444 -9401.1790 -7589.4344 299.0834 1003.7131 1055.6381 30353.7578 -226.8648 -172.8387
ENERGY: 1500000 1.8656 11.1062 5.7298 0.0000 -10931.2020 1478.4104 0.0000 0.0000 1800.2417 -7633.8483 301.9743 -9434.0900 -7594.0313 298.7015 -161.3058 -134.1202 30986.3387 -140.0370 -93.1518
TCL: Running FEP window  16: Lambda1 0.24999999999999967 Lambda2 0.19999999999999968 [dLambda -0.04999999999999999]
TCL: Setting parameter firsttimestep to 0
TCL: Setting parameter alchLambda to 0.24999999999999967
Info: NONBONDED TABLE R-SQUARED SPACING: 0.0625
Info: NONBONDED TABLE SIZE: 705 POINTS
TCL: Setting parameter alchLambda2 to 0.19999999999999968
Info: NONBONDED TABLE R-SQUARED SPACING: 0.0625
Info: NONBONDED TABLE SIZE: 705 POINTS
TCL: Running for 1500000 steps
ETITLE: TS BOND ANGLE DIHED IMPRP ELECT VDW BOUNDARY MISC KINETIC TOTAL TEMP POTENTIAL TOTALAVG TEMPAVG PRESSURE GPRESSURE VOLUME PRESSAVG GPRESSAVG
ENERGY: 0 1.8656 11.1062 5.7298 0.0000 -10931.2004 1477.9493 0.0000 0.0000 1799.3594 -7635.1901 301.8263 -9434.5495 -7635.1901 301.8263 -211.6226 -146.6155 30986.3387 -211.6226 -146.6155
ENERGY: 300000 2.6943 8.2272 5.9838 0.0000 -10935.5838 1531.8768 0.0000 0.0000 1736.3254 -7650.4762 291.2529 -9386.8016 -7623.7736 297.0613 395.2595 496.2492 30764.8886 313.4776 376.3115
ENERGY: 600000 1.1960 9.5633 5.0256 0.0000 -10843.2051 1418.1983 0.0000 0.0000 1800.0535 -7609.1685 301.9427 -9409.2219 -7592.1569 301.3433 -526.3781 -467.7126 31019.9239 24.2228 91.6280
ENERGY: 900000 0.9711 11.0365 4.5964 0.0000 -10781.1457 1396.5874 0.0000 0.0000 1718.5759 -7649.3784 288.2756 -9367.9543 -7602.9005 299.6596 -662.2305 -568.6156 31047.9041 -10.5038 65.1139
ENERGY: 1200000 4.9220 9.8721 7.0255 0.0000 -10859.9943 1441.1924 0.0000 0.0000 1744.4912 -7652.4911 292.6226 -9396.9823 -7608.8594 300.4437 -365.2227 -312.2441 30610.9070 -88.8198 -8.5117
ENERGY: 1500000 1.5335 8.2764 6.2847 0.0000 -10752.7840 1415.1324 0.0000 0.0000 1815.9834 -7505.5737 304.6148 -9321.5570 -7601.7106 301.1164 -99.8884 -14.5265 30732.7235 -161.0077 -80.5071
TCL: Running FEP window  17: Lambda1 0.19999999999999968 Lambda2 0.1499999999999997 [dLambda -0.04999999999999999]
TCL: Setting parameter firsttimestep to 0
TCL: Setting parameter alchLambda to 0.19999999999999968
Info: NONBONDED TABLE R-SQUARED SPACING: 0.0625
Info: NONBONDED TABLE SIZE: 705 POINTS
TCL: Setting parameter alchLambda2 to 0.1499999999999997
Info: NONBONDED TABLE R-SQUARED SPACING: 0.0625
Info: NONBONDED TABLE SIZE: 705 POINTS
TCL: Running for 1500000 steps
ETITLE: TS BOND ANGLE DIHED IMPRP ELECT VDW BOUNDARY MISC KINETIC TOTAL TEMP POTENTIAL TOTALAVG TEMPAVG PRESSURE GPRESSURE VOLUME PRESSAVG GPRESSAVG
ENERGY: 0 1.5335 8.2764 6.2847 0.0000 -10752.7833 1414.2352 0.0000 0.0000 1815.1145 -7507.3390 304.4691 -9322.4535 -7507.3390 304.4691 -103.4044 -26.6470 30732.7235 -103.4044 -26.6470
ENERGY: 300000 1.6212 5.9057 6.9983 0.0000 -10763.0837 1402.9359 0.0000 0.0000 1827.5782 -7518.0444 306.5597 -9345.6227 -7549.4365 302.5598 -242.4199 -192.2718 30585.7829 -229.6129 -168.0663
ENERGY: 600000 1.6770 10.7195 4.0906 0.0000 -10897.4371 1500.3092 0.0000 0.0000 1735.7001 -7644.9407 291.1480 -9380.6408 -7574.0556 299.6805 84.7906 155.5239 30834.7162 -270.8421 -204.9004
ENERGY: 900000 1.5094 10.3949 5.6375 0.0000 -10974.7031 1487.1349 0.0000 0.0000 1753.4263 -7716.6002 294.1214 -9470.0265 -7608.8962 297.7219 53.8429 49.2701 30311.6095 -185.6269 -121.2078
ENERGY: 1200000 0.7664 5.9337 7.1731 0.0000 -10850.3719 1421.2790 0.0000 0.0000 1739.5776 -7675.6420 291.7984 -9415.2197 -7617.8900 296.1979 -565.6516 -531.3328 30754.8375 -299.6982 -239.4441
ENERGY: 1500000 1.0863 7.6820 5.0145 0.0000 -10830.2537 1424.1106 0.0000 0.0000 1793.4957 -7598.8646 300.8427 -9392.3603 -7614.9663 297.0526 -367.4878 -282.7709 30781.0234 -222.7345 -157.6629
TCL: Running FEP window  18: Lambda1 0.1499999999999997 Lambda2 0.09999999999999969 [dLambda -0.05 ]
TCL: Setting parameter firsttimestep to 0
TCL: Setting parameter alchLambda to 0.1499999999999997
Info: NONBONDED TABLE R-SQUARED SPACING: 0.0625
Info: NONBONDED TABLE SIZE: 705 POINTS
TCL: Setting parameter alchLambda2 to 0.09999999999999969
Info: NONBONDED TABLE R-SQUARED SPACING: 0.0625
Info: NONBONDED TABLE SIZE: 705 POINTS
TCL: Running for 1500000 steps
ETITLE: TS BOND ANGLE DIHED IMPRP ELECT VDW BOUNDARY MISC KINETIC TOTAL TEMP POTENTIAL TOTALAVG TEMPAVG PRESSURE GPRESSURE VOLUME PRESSAVG GPRESSAVG
ENERGY: 0 1.0863 7.6820 5.0145 0.0000 -10830.2549 1423.9653 0.0000 0.0000 1792.6439 -7599.8629 300.6998 -9392.5068 -7599.8629 300.6998 -356.4115 -288.8690 30781.0234 -356.4115 -288.8690
ENERGY: 300000 1.6282 8.2598 6.7292 0.0000 -10746.8195 1351.0717 0.0000 0.0000 1796.1114 -7583.0192 301.2815 -9379.1305 -7590.6645 302.5403 -947.9749 -876.5101 30869.9408 -92.2337 -21.6971
ENERGY: 600000 1.6467 7.3980 4.8578 0.0000 -10781.9834 1428.2865 0.0000 0.0000 1744.2191 -7595.5752 292.5770 -9339.7943 -7590.9251 300.7469 -262.7107 -252.9032 30947.7425 -154.1061 -86.7711
ENERGY: 900000 1.3564 13.5209 6.0289 0.0000 -10955.8937 1608.9525 0.0000 0.0000 1807.9474 -7518.0875 303.2668 -9326.0349 -7589.9822 300.7475 1353.3433 1453.5915 30658.6714 -62.2058 2.6766
ENERGY: 1200000 0.8070 8.2207 4.9495 0.0000 -10728.6027 1348.1375 0.0000 0.0000 1800.4861 -7566.0021 302.0153 -9366.4881 -7584.8879 300.1166 -769.7896 -742.2912 30721.5745 -211.5327 -147.5512
ENERGY: 1500000 1.7391 9.3656 5.0904 0.0000 -10796.2850 1404.4702 0.0000 0.0000 1815.9208 -7559.6989 304.6043 -9375.6197 -7581.3544 300.4214 -457.1736 -336.5194 30650.5802 -147.7460 -80.1822
TCL: Running FEP window  19: Lambda1 0.09999999999999969 Lambda2 0.049999999999999684 [dLambda -0.05 ]
TCL: Setting parameter firsttimestep to 0
TCL: Setting parameter alchLambda to 0.09999999999999969
Info: NONBONDED TABLE R-SQUARED SPACING: 0.0625
Info: NONBONDED TABLE SIZE: 705 POINTS
TCL: Setting parameter alchLambda2 to 0.049999999999999684
Info: NONBONDED TABLE R-SQUARED SPACING: 0.0625
Info: NONBONDED TABLE SIZE: 705 POINTS
TCL: Running for 1500000 steps
ETITLE: TS BOND ANGLE DIHED IMPRP ELECT VDW BOUNDARY MISC KINETIC TOTAL TEMP POTENTIAL TOTALAVG TEMPAVG PRESSURE GPRESSURE VOLUME PRESSAVG GPRESSAVG
ENERGY: 0 1.7391 9.3656 5.0904 0.0000 -10796.2853 1404.6120 0.0000 0.0000 1815.0537 -7560.4246 304.4589 -9375.4783 -7560.4246 304.4589 -422.5595 -340.6520 30650.5802 -422.5595 -340.6520
ENERGY: 300000 1.5884 8.5120 3.3325 0.0000 -10770.9598 1431.7141 0.0000 0.0000 1709.1183 -7616.6945 286.6891 -9325.8128 -7590.9060 298.4685 -185.8775 -121.5105 30711.7129 44.0287 111.3162
ENERGY: 600000 0.6010 8.6333 6.5903 0.0000 -10727.3629 1307.5971 0.0000 0.0000 1781.2428 -7622.6984 298.7874 -9403.9412 -7614.1498 297.4000 -1448.1552 -1371.1994 31193.2102 -187.4304 -123.1379
ENERGY: 900000 5.5631 10.1802 4.7797 0.0000 -10756.2149 1437.0561 0.0000 0.0000 1859.5968 -7439.0390 311.9306 -9298.6358 -7594.2879 298.6133 -130.0139 -75.0148 31079.9249 -28.4586 38.1645
ENERGY: 1200000 2.9642 7.7319 4.8746 0.0000 -10855.0844 1436.1280 0.0000 0.0000 1743.0719 -7660.3140 292.3846 -9403.3859 -7597.3759 299.3516 -281.3100 -201.8472 30539.6527 -43.1452 21.6038
ENERGY: 1500000 2.1179 11.6265 6.6884 0.0000 -10958.7927 1540.7523 0.0000 0.0000 1774.9709 -7622.6368 297.7353 -9397.6076 -7600.3685 298.9095 595.8704 609.4694 30610.2571 -66.4046 -6.4723
TCL: Running FEP window  20: Lambda1 0.049999999999999684 Lambda2 0.0    [dLambda -0.049999999999999684]
TCL: Setting parameter firsttimestep to 0
TCL: Setting parameter alchLambda to 0.049999999999999684
Info: NONBONDED TABLE R-SQUARED SPACING: 0.0625
Info: NONBONDED TABLE SIZE: 705 POINTS
TCL: Setting parameter alchLambda2 to 0.0
Info: NONBONDED TABLE R-SQUARED SPACING: 0.0625
Info: NONBONDED TABLE SIZE: 705 POINTS
TCL: Running for 1500000 steps
ETITLE: TS BOND ANGLE DIHED IMPRP ELECT VDW BOUNDARY MISC KINETIC TOTAL TEMP POTENTIAL TOTALAVG TEMPAVG PRESSURE GPRESSURE VOLUME PRESSAVG GPRESSAVG
ENERGY: 0 2.1179 11.6265 6.6884 0.0000 -10958.7934 1539.5315 0.0000 0.0000 1774.0617 -7624.7673 297.5828 -9398.8291 -7624.7673 297.5828 521.6223 600.8979 30610.2571 521.6223 600.8979
ENERGY: 300000 1.7577 8.9267 4.9171 0.0000 -10862.4358 1477.6800 0.0000 0.0000 1775.0071 -7594.1473 297.7414 -9369.1544 -7599.4357 298.3828 178.9120 235.2827 30723.0621 79.3072 145.0739
ENERGY: 600000 1.1550 7.4046 4.6867 0.0000 -10711.1831 1345.7657 0.0000 0.0000 1788.1247 -7564.0462 299.9418 -9352.1710 -7594.8697 299.2170 -1196.1384 -1112.1760 31467.5960 -113.3311 -33.4020
ENERGY: 900000 2.0929 8.6823 7.2410 0.0000 -10788.6835 1436.2913 0.0000 0.0000 1802.5988 -7531.7772 302.3697 -9334.3761 -7597.2762 299.9158 30.6383 67.7146 30365.2962 -23.7466 33.4582
ENERGY: 1200000 3.3487 6.0115 6.5037 0.0000 -10763.7586 1397.4485 0.0000 0.0000 1779.7033 -7570.7430 298.5291 -9350.4463 -7602.0350 299.7445 -286.8363 -262.9558 30497.7880 80.3808 128.1611
ENERGY: 1500000 1.8622 9.4986 5.7014 0.0000 -10826.2803 1432.0914 0.0000 0.0000 1775.6476 -7601.4791 297.8488 -9377.1267 -7607.3281 299.1853 -36.4363 -1.5649 30785.1886 -4.9226 46.4409
TCL: Exiting due to exit command.
