Info: SIMULATION PARAMETERS:
Info: TIMESTEP               2
Info: NUMBER OF STEPS        0
Info: STEPS PER CYCLE        10
Info: PERIODIC CELL BASIS 1  31.5761 0 0
Info: PERIODIC CELL BASIS 2  0 31.1547 0
Info: PERIODIC CELL BASIS 3  0 0 31.247
Info: PERIODIC CELL CENTER   0 0 0
Info: WRAPPING WATERS AROUND PERIODIC BOUNDARIES ON OUTPUT.
Info: WRAPPING ALL CLUSTERS AROUND PERIODIC BOUNDARIES ON OUTPUT.
Info: FIRST LDB TIMESTEP     50
Info: LAST LDB TIMESTEP     -1
Info: HOM BACKGROUND SCALING 1
Info: PME BACKGROUND SCALING 1
Info: MIN ATOMS PER PATCH    40
Info: EMPTY PATCH LOAD       40 ATOMS
Info: VELOCITY FILE          mobley_4630641_equil.vel
Info: CENTER OF MASS MOVING INITIALLY? NO
Info: DIELECTRIC             1
Info: EXCLUDE                SCALED ONE-FOUR
Info: 1-4 ELECTROSTATICS SCALED BY 0.833333
Info: MODIFIED 1-4 VDW PARAMETERS WILL BE USED
Info: DCD FILENAME           mobley_4630641_prod.dcd
Info: DCD FREQUENCY          100000
Info: DCD FIRST STEP         100000
Info: DCD FILE WILL CONTAIN UNIT CELL DATA
Info: XST FILENAME           mobley_4630641_prod.xst
Info: XST FREQUENCY          100000
Info: NO VELOCITY DCD OUTPUT
Info: NO FORCE DCD OUTPUT
Info: OUTPUT FILENAME        mobley_4630641_prod
Info: BINARY OUTPUT FILES WILL BE USED
Info: RESTART FILENAME       mobley_4630641_prod.restart
Info: RESTART FREQUENCY      100000
Info: BINARY RESTART FILES WILL BE USED
Info: CUTOFF                 9
Info: PAIRLIST DISTANCE      11
Info: PAIRLIST SHRINK RATE   0.01
Info: PAIRLIST GROW RATE     0.01
Info: PAIRLIST TRIGGER       0.3
Info: PAIRLISTS PER CYCLE    2
Info: PAIRLISTS ENABLED
Info: MARGIN                 2
Info: HYDROGEN GROUP CUTOFF  2.5
Info: PATCH DIMENSION        15.5
Info: ENERGY OUTPUT STEPS    100000
Info: ENERGY EVALUATION STEPS    100000
Info: OUTPUT ENERGY PRECISION 4
Info: CROSSTERM ENERGY INCLUDED IN DIHEDRAL
Info: TIMING OUTPUT STEPS    1000000
Info: PRESSURE OUTPUT STEPS  100000
Info: ALCHEMICAL FEP ON
Info: FEP CURRENT LAMBDA VALUE     0
Info: FEP COMPARISON LAMBDA VALUE  0.05
Info: FEP INTRA-ALCHEMICAL NON-BONDED INTERACTIONS WILL BE RETAINED
Info: FEP INTRA-ALCHEMICAL BONDED INTERACTIONS WILL BE RETAINED
Info: FEP VDW SHIFTING COEFFICIENT 5
Info: FEP ELEC. ACTIVE FOR ANNIHILATED PARTICLES BETWEEN LAMBDA = 0 AND LAMBDA = 0.5
Info: FEP ELEC. ACTIVE FOR EXNIHILATED PARTICLES BETWEEN LAMBDA = 0.5 AND LAMBDA = 1
Info: FEP VDW ACTIVE FOR ANNIHILATED PARTICLES BETWEEN LAMBDA = 0 AND LAMBDA = 1
Info: FEP VDW ACTIVE FOR EXNIHILATED PARTICLES BETWEEN LAMBDA = 0 AND LAMBDA = 1
Info: FEP BOND ACTIVE FOR ANNIHILATED PARTICLES BETWEEN LAMBDA = 1 AND LAMBDA = 1
Info: FEP BOND ACTIVE FOR EXNIHILATED PARTICLES BETWEEN LAMBDA = 0 AND LAMBDA = 0
Info: LANGEVIN DYNAMICS ACTIVE
Info: LANGEVIN TEMPERATURE   300
Info: LANGEVIN USING BBK INTEGRATOR
Info: LANGEVIN DAMPING COEFFICIENT IS 1 INVERSE PS
Info: LANGEVIN DYNAMICS APPLIED TO HYDROGENS
Info: LANGEVIN PISTON PRESSURE CONTROL ACTIVE
Info:        TARGET PRESSURE IS 1.01325 BAR
Info:     OSCILLATION PERIOD IS 50 FS
Info:             DECAY TIME IS 25 FS
Info:     PISTON TEMPERATURE IS 300 K
Info:       PRESSURE CONTROL IS GROUP-BASED
Info:    INITIAL STRAIN RATE IS 2.18248e-06 2.18248e-06 2.18248e-06
Info:       CELL FLUCTUATION IS ISOTROPIC
Info: PARTICLE MESH EWALD (PME) ACTIVE
Info: PME TOLERANCE               1e-06
Info: PME EWALD COEFFICIENT       0.348832
Info: PME INTERPOLATION ORDER     4
Info: PME GRID DIMENSIONS         32 32 32
Info: PME MAXIMUM GRID SPACING    1
Info: PME CALCULATION WILL BE PERFORMED ON GPU
Info: FULL ELECTROSTATIC EVALUATION FREQUENCY      2
Info: USING VERLET I (r-RESPA) MTS SCHEME.
Info: C1 SPLITTING OF LONG RANGE ELECTROSTATICS
Info: PLACING ATOMS IN PATCHES BY HYDROGEN GROUPS
Info: RIGID BONDS TO HYDROGEN : ALL
Info:         ERROR TOLERANCE : 1e-08
Info:          MAX ITERATIONS : 100
Info: RIGID WATER USING SETTLE ALGORITHM
Info: RANDOM NUMBER SEED     1743901577
Info: USE HYDROGEN BONDS?    NO
Info: Using AMBER format force field!
Info: AMBER PARM FILE        mobley_4630641.prmtop
Info: COORDINATE PDB         mobley_4630641.pdb
Info: Exclusions will be read from PARM file!
Info: SCNB (VDW SCALING)     2
Info: USING ARITHMETIC MEAN TO COMBINE L-J SIGMA PARAMETERS
Info: BINARY COORDINATES     mobley_4630641_equil.coor
Info: SUMMARY OF PARAMETERS:
Info: 5 BONDS
Info: 5 ANGLES
Info:   5 HARMONIC
Info:   0 COSINE-BASED
Info: 8 DIHEDRAL
Info: 0 IMPROPER
Info: 0 CROSSTERM
Info: 0 VDW
Info: 15 VDW_PAIRS
Info: 0 NBTHOLE_PAIRS
Info: To read alchdata from file: mobley_4630641.pdb
Info: To read alchflag data from column: 5
Info: STRUCTURE SUMMARY:
Info: 2956 ATOMS
Info: 2955 BONDS
Info: 26 ANGLES
Info: 28 DIHEDRALS
Info: 0 IMPROPERS
Info: 0 CROSSTERMS
Info: 3002 EXCLUSIONS
Info: 2950 RIGID BONDS
Info: ALCH: 0 ATOMS TO DISAPPEAR IN FINAL STATE
Info: ALCH: 16 ATOMS TO APPEAR IN FINAL STATE
Info: 5918 DEGREES OF FREEDOM
Info: 986 HYDROGEN GROUPS
Info: 4 ATOMS IN LARGEST HYDROGEN GROUP
Info: 986 MIGRATION GROUPS
Info: 4 ATOMS IN LARGEST MIGRATION GROUP
Info: TOTAL MASS = 17745.8 amu
Info: TOTAL CHARGE = -0.000399992 e
Info: MASS DENSITY = 0.958659 g/cm^3
Info: ATOM DENSITY = 0.0961643 atoms/A^3
Info: ADDED 0 IMPLICIT EXCLUSIONS
Info: NONBONDED TABLE R-SQUARED SPACING: 0.0625
Info: NONBONDED TABLE SIZE: 705 POINTS
Info: REDUCING NUMBER OF PATCHES TO IMPROVE LOAD BALANCE
Info: REMOVING COM VELOCITY 0.140573 -0.0385813 0.183212
Info: Use 3D box decompostion in PME FFT.
Info: Updated CUDA force table with 4096 elements.
Info: Updated CUDA LJ table with 5 x 5 elements.
Info: Found 19 unique exclusion lists needing 40 bytes
TCL: Running for 1500000 steps
ETITLE: TS BOND ANGLE DIHED IMPRP ELECT VDW BOUNDARY MISC KINETIC TOTAL TEMP POTENTIAL TOTALAVG TEMPAVG PRESSURE GPRESSURE VOLUME PRESSAVG GPRESSAVG
ENERGY: 0 1.3841 5.0124 6.1292 0.0000 -10616.7695 1405.9154 0.0000 0.0000 1768.0265 -7430.3019 300.6798 -9198.3284 -7430.3019 300.6798 -428.6511 -343.2908 30739.0612 -428.6511 -343.2908
ENERGY: 300000 4.4760 4.1763 5.0759 0.0000 -10688.8084 1429.2820 0.0000 0.0000 1811.8234 -7433.9747 308.1281 -9245.7981 -7448.9432 301.3497 -193.6895 -130.6067 30283.6361 -333.9726 -276.3506
ENERGY: 600000 2.2885 8.5394 2.7294 0.0000 -10727.4450 1514.0756 0.0000 0.0000 1803.9288 -7395.8832 306.7855 -9199.8120 -7442.7003 304.7249 822.3273 917.6750 30209.0023 -2.6952 62.0971
ENERGY: 900000 1.6124 3.9666 2.5479 0.0000 -10725.2384 1449.5840 0.0000 0.0000 1738.4487 -7529.0787 295.6496 -9267.5274 -7448.8096 303.5038 -242.7350 -209.2314 30687.9284 12.3606 74.7798
ENERGY: 1200000 2.2289 5.7382 1.5050 0.0000 -10748.3562 1503.9456 0.0000 0.0000 1732.3594 -7502.5791 294.6140 -9234.9385 -7448.3716 303.0093 399.8229 487.4196 30237.9950 79.5730 138.7559
ENERGY: 1500000 0.7579 6.5024 3.5236 0.0000 -10665.5874 1408.9889 0.0000 0.0000 1764.3331 -7481.4816 300.0516 -9245.8148 -7454.0186 302.1696 -586.1157 -439.7631 30877.4622 -25.3304 35.6517
TCL: Running FEP window   2: Lambda1 0.05   Lambda2 0.1    [dLambda 0.05  ]
TCL: Setting parameter firsttimestep to 0
TCL: Setting parameter alchLambda to 0.05
Info: NONBONDED TABLE R-SQUARED SPACING: 0.0625
Info: NONBONDED TABLE SIZE: 705 POINTS
TCL: Setting parameter alchLambda2 to 0.1
Info: NONBONDED TABLE R-SQUARED SPACING: 0.0625
Info: NONBONDED TABLE SIZE: 705 POINTS
TCL: Running for 1500000 steps
ETITLE: TS BOND ANGLE DIHED IMPRP ELECT VDW BOUNDARY MISC KINETIC TOTAL TEMP POTENTIAL TOTALAVG TEMPAVG PRESSURE GPRESSURE VOLUME PRESSAVG GPRESSAVG
ENERGY: 0 0.7579 6.5024 3.5236 0.0000 -10665.5875 1410.1082 0.0000 0.0000 1763.4458 -7481.2497 299.9007 -9244.6955 -7481.2497 299.9007 -516.8892 -436.2796 30877.4622 -516.8892 -436.2796
ENERGY: 300000 1.2300 9.2719 2.9965 0.0000 -10731.3698 1450.8759 0.0000 0.0000 1784.0225 -7482.9729 303.4001 -9266.9955 -7495.1146 296.9158 -42.8244 36.7348 30244.7929 -322.2471 -255.9636
ENERGY: 600000 0.4298 6.5593 3.6695 0.0000 -10591.4520 1329.1588 0.0000 0.0000 1790.9512 -7460.6833 304.5785 -9251.6345 -7477.0390 300.2071 -870.2021 -802.6825 30176.4958 -282.3588 -219.8288
ENERGY: 900000 0.8197 14.3047 2.8781 0.0000 -10660.7798 1379.1048 0.0000 0.0000 1713.2790 -7550.3935 291.3691 -9263.6725 -7469.6040 301.7117 -713.0176 -646.9708 30401.7158 -281.4782 -215.5831
ENERGY: 1200000 0.7903 6.5177 3.0867 0.0000 -10695.6834 1428.5667 0.0000 0.0000 1778.8908 -7477.8313 302.5274 -9256.7221 -7468.3128 301.6791 -249.9904 -151.9009 30605.9220 -203.8801 -137.4439
ENERGY: 1500000 3.1648 8.1717 2.4027 0.0000 -10796.2214 1558.5257 0.0000 0.0000 1735.1025 -7488.8542 295.0805 -9223.9567 -7469.8150 301.7592 1190.1774 1210.0505 29805.7851 37.9945 99.7955
TCL: Running FEP window   3: Lambda1 0.1    Lambda2 0.15000000000000002 [dLambda 0.05000000000000002]
TCL: Setting parameter firsttimestep to 0
TCL: Setting parameter alchLambda to 0.1
Info: NONBONDED TABLE R-SQUARED SPACING: 0.0625
Info: NONBONDED TABLE SIZE: 705 POINTS
TCL: Setting parameter alchLambda2 to 0.15000000000000002
Info: NONBONDED TABLE R-SQUARED SPACING: 0.0625
Info: NONBONDED TABLE SIZE: 705 POINTS
TCL: Running for 1500000 steps
ETITLE: TS BOND ANGLE DIHED IMPRP ELECT VDW BOUNDARY MISC KINETIC TOTAL TEMP POTENTIAL TOTALAVG TEMPAVG PRESSURE GPRESSURE VOLUME PRESSAVG GPRESSAVG
ENERGY: 0 3.1648 8.1717 2.4027 0.0000 -10796.2219 1558.2492 0.0000 0.0000 1734.2645 -7489.9692 294.9380 -9224.2336 -7489.9692 294.9380 1122.5731 1210.3672 29805.7851 1122.5731 1210.3672
ENERGY: 300000 0.3070 6.8219 5.0576 0.0000 -10756.0325 1508.5772 0.0000 0.0000 1765.1985 -7470.0704 300.1988 -9235.2689 -7487.4344 297.9183 335.9605 399.4223 30475.6547 254.1963 300.6269
ENERGY: 600000 2.4982 10.9882 1.9463 0.0000 -10942.2518 1615.6981 0.0000 0.0000 1729.3327 -7581.7882 294.0993 -9311.1210 -7481.9632 301.1378 1141.2305 1141.4025 30187.2713 251.7340 294.6099
ENERGY: 900000 2.6464 8.7555 5.2285 0.0000 -10613.1525 1327.4290 0.0000 0.0000 1718.5673 -7550.5259 292.2685 -9269.0931 -7495.1123 299.6419 -1273.7439 -1147.9453 30629.8401 24.3143 69.1401
ENERGY: 1200000 0.3425 5.1992 2.5935 0.0000 -10753.7781 1450.8533 0.0000 0.0000 1813.1303 -7481.6593 308.3503 -9294.7896 -7496.2632 300.7939 -47.7730 60.4524 30294.7995 -4.3894 38.2835
ENERGY: 1500000 0.6959 8.1836 3.4425 0.0000 -10441.9406 1282.3465 0.0000 0.0000 1717.9579 -7429.3142 292.1648 -9147.2721 -7488.1711 299.9164 -1263.8246 -1247.6733 31029.0436 -45.5809 -7.0825
TCL: Running FEP window   4: Lambda1 0.15000000000000002 Lambda2 0.2    [dLambda 0.04999999999999999]
TCL: Setting parameter firsttimestep to 0
TCL: Setting parameter alchLambda to 0.15000000000000002
Info: NONBONDED TABLE R-SQUARED SPACING: 0.0625
Info: NONBONDED TABLE SIZE: 705 POINTS
TCL: Setting parameter alchLambda2 to 0.2
Info: NONBONDED TABLE R-SQUARED SPACING: 0.0625
Info: NONBONDED TABLE SIZE: 705 POINTS
TCL: Running for 1500000 steps
ETITLE: TS BOND ANGLE DIHED IMPRP ELECT VDW BOUNDARY MISC KINETIC TOTAL TEMP POTENTIAL TOTALAVG TEMPAVG PRESSURE GPRESSURE VOLUME PRESSAVG GPRESSAVG
ENERGY: 0 0.6959 8.1836 3.4425 0.0000 -10441.9410 1283.2776 0.0000 0.0000 1717.0905 -7429.2510 292.0173 -9146.3415 -7429.2510 292.0173 -1333.1777 -1242.0678 31029.0436 -1333.1777 -1242.0678
ENERGY: 300000 0.5824 5.6893 3.4739 0.0000 -10751.7560 1494.5243 0.0000 0.0000 1721.5190 -7525.9671 292.7705 -9247.4861 -7509.1422 297.1637 356.7347 458.5124 30378.5283 -613.9943 -523.7502
ENERGY: 600000 0.4992 4.3834 4.5194 0.0000 -10683.7018 1412.0356 0.0000 0.0000 1769.0691 -7493.1951 300.8571 -9262.2642 -7497.5221 298.6158 -330.4758 -243.6103 30281.9851 -318.0812 -240.7765
ENERGY: 900000 2.8763 5.8314 2.5451 0.0000 -10667.7251 1416.4389 0.0000 0.0000 1791.4176 -7448.6158 304.6578 -9240.0334 -7495.3922 299.1404 -349.7054 -326.5236 30421.7436 -233.0210 -175.9439
ENERGY: 1200000 1.1423 7.9917 2.3827 0.0000 -10612.6568 1423.7147 0.0000 0.0000 1717.8854 -7459.5400 292.1525 -9177.4254 -7483.0017 298.4603 -246.0860 -197.3978 30886.7425 -206.7301 -151.9054
ENERGY: 1500000 0.9104 7.3039 4.2437 0.0000 -10592.9587 1380.3195 0.0000 0.0000 1825.9795 -7374.2016 310.5355 -9200.1812 -7464.0219 299.3295 -494.1343 -406.3866 30433.2262 -167.1849 -108.5720
TCL: Running FEP window   5: Lambda1 0.2    Lambda2 0.25   [dLambda 0.04999999999999999]
TCL: Setting parameter firsttimestep to 0
TCL: Setting parameter alchLambda to 0.2
Info: NONBONDED TABLE R-SQUARED SPACING: 0.0625
Info: NONBONDED TABLE SIZE: 705 POINTS
TCL: Setting parameter alchLambda2 to 0.25
Info: NONBONDED TABLE R-SQUARED SPACING: 0.0625
Info: NONBONDED TABLE SIZE: 705 POINTS
TCL: Running for 1500000 steps
ETITLE: TS BOND ANGLE DIHED IMPRP ELECT VDW BOUNDARY MISC KINETIC TOTAL TEMP POTENTIAL TOTALAVG TEMPAVG PRESSURE GPRESSURE VOLUME PRESSAVG GPRESSAVG
ENERGY: 0 0.9104 7.3039 4.2437 0.0000 -10592.9609 1381.1054 0.0000 0.0000 1825.1476 -7374.2498 310.3941 -9199.3975 -7374.2498 310.3941 -480.0759 -399.3161 30433.2262 -480.0759 -399.3161
ENERGY: 300000 3.4347 6.1427 2.7623 0.0000 -10757.9687 1487.9315 0.0000 0.0000 1754.5934 -7503.1041 298.3953 -9257.6975 -7473.9880 302.8163 428.9238 417.6059 30100.6960 38.3760 80.0354
ENERGY: 600000 2.9254 6.6328 1.3657 0.0000 -10640.3304 1369.7819 0.0000 0.0000 1784.5227 -7475.1019 303.4852 -9259.6246 -7475.5915 302.4784 -559.8843 -495.7025 30500.4741 -147.9914 -94.6903
ENERGY: 900000 1.2501 5.7265 2.9636 0.0000 -10786.5502 1513.4315 0.0000 0.0000 1764.8997 -7498.2788 300.1480 -9263.1785 -7487.2529 301.4503 576.3624 637.7991 30202.1286 -110.1818 -50.7394
ENERGY: 1200000 1.3406 10.2213 4.5556 0.0000 -10579.4410 1363.2611 0.0000 0.0000 1748.6606 -7451.4018 297.3863 -9200.0624 -7474.2584 301.8144 -495.8647 -415.3020 30329.0525 -19.9662 35.3660
ENERGY: 1500000 2.5761 6.3910 2.5291 0.0000 -10789.3241 1459.6111 0.0000 0.0000 1830.1573 -7488.0596 311.2460 -9318.2168 -7474.2755 302.4245 -168.2768 -111.3314 30341.9916 -34.9909 28.2248
TCL: Running FEP window   6: Lambda1 0.25   Lambda2 0.3    [dLambda 0.04999999999999999]
TCL: Setting parameter firsttimestep to 0
TCL: Setting parameter alchLambda to 0.25
Info: NONBONDED TABLE R-SQUARED SPACING: 0.0625
Info: NONBONDED TABLE SIZE: 705 POINTS
TCL: Setting parameter alchLambda2 to 0.3
Info: NONBONDED TABLE R-SQUARED SPACING: 0.0625
Info: NONBONDED TABLE SIZE: 705 POINTS
TCL: Running for 1500000 steps
ETITLE: TS BOND ANGLE DIHED IMPRP ELECT VDW BOUNDARY MISC KINETIC TOTAL TEMP POTENTIAL TOTALAVG TEMPAVG PRESSURE GPRESSURE VOLUME PRESSAVG GPRESSAVG
ENERGY: 0 2.5761 6.3910 2.5291 0.0000 -10789.3244 1459.3416 0.0000 0.0000 1829.2934 -7489.1933 311.0991 -9318.4867 -7489.1933 311.0991 -181.2049 -109.7080 30341.9916 -181.2049 -109.7080
ENERGY: 300000 2.1991 4.3822 3.6187 0.0000 -10657.5284 1397.2253 0.0000 0.0000 1760.4002 -7489.7028 299.3828 -9250.1030 -7511.0751 301.1546 -600.5902 -530.5907 30797.6421 -136.8170 -71.8645
ENERGY: 600000 1.3080 8.5019 2.3413 0.0000 -10590.5145 1347.7031 0.0000 0.0000 1791.4167 -7439.2435 304.6576 -9230.6602 -7471.1645 301.5049 -677.5197 -678.8467 30398.6746 -160.7706 -97.6432
ENERGY: 900000 1.7683 9.5213 4.0465 0.0000 -10710.9339 1430.9617 0.0000 0.0000 1793.0969 -7471.5393 304.9434 -9264.6362 -7478.0197 300.9713 -114.2354 9.9210 30051.2567 -192.7548 -123.1568
ENERGY: 1200000 0.6749 4.0942 2.3960 0.0000 -10710.3203 1430.8515 0.0000 0.0000 1704.2965 -7568.0073 289.8415 -9272.3038 -7478.5287 300.1976 -169.4184 -155.1232 30182.6064 -187.6919 -128.5867
ENERGY: 1500000 1.5323 6.9256 3.5743 0.0000 -10652.4480 1379.3087 0.0000 0.0000 1687.8501 -7573.2569 287.0445 -9261.1070 -7489.3614 299.1944 -651.1269 -581.4726 30378.3566 -237.3957 -178.8753
TCL: Running FEP window   7: Lambda1 0.3    Lambda2 0.35   [dLambda 0.04999999999999999]
TCL: Setting parameter firsttimestep to 0
TCL: Setting parameter alchLambda to 0.3
Info: NONBONDED TABLE R-SQUARED SPACING: 0.0625
Info: NONBONDED TABLE SIZE: 705 POINTS
TCL: Setting parameter alchLambda2 to 0.35
Info: NONBONDED TABLE R-SQUARED SPACING: 0.0625
Info: NONBONDED TABLE SIZE: 705 POINTS
TCL: Running for 1500000 steps
ETITLE: TS BOND ANGLE DIHED IMPRP ELECT VDW BOUNDARY MISC KINETIC TOTAL TEMP POTENTIAL TOTALAVG TEMPAVG PRESSURE GPRESSURE VOLUME PRESSAVG GPRESSAVG
ENERGY: 0 1.5323 6.9256 3.5743 0.0000 -10652.4480 1379.5948 0.0000 0.0000 1686.9890 -7573.8319 286.8981 -9260.8209 -7573.8319 286.8981 -661.0420 -577.2799 30378.3566 -661.0420 -577.2799
ENERGY: 300000 2.6021 6.9689 3.2068 0.0000 -10771.2897 1456.7364 0.0000 0.0000 1821.0392 -7480.7362 309.6954 -9301.7754 -7518.9827 296.7529 -67.5788 -38.8531 30448.9345 -406.7080 -357.4539
ENERGY: 600000 1.6141 8.6531 3.6110 0.0000 -10781.2848 1547.1026 0.0000 0.0000 1770.8963 -7449.4077 301.1678 -9220.3040 -7500.7044 297.9511 827.0583 864.1391 30384.3814 -200.7383 -154.7203
ENERGY: 900000 1.1354 6.7732 4.1216 0.0000 -10735.5722 1418.8819 0.0000 0.0000 1757.3903 -7547.2699 298.8709 -9304.6602 -7503.8230 298.7465 -366.7102 -318.9644 30420.2424 -189.0143 -132.9502
ENERGY: 1200000 0.3941 9.1717 4.7181 0.0000 -10744.9474 1482.3864 0.0000 0.0000 1703.1970 -7545.0801 289.6545 -9248.2771 -7512.3479 297.4080 91.8543 173.7883 30429.9950 -96.0005 -38.8368
ENERGY: 1500000 1.1941 6.4848 4.3217 0.0000 -10602.6561 1430.2233 0.0000 0.0000 1766.0438 -7394.3885 300.3426 -9160.4323 -7496.5067 297.8070 -28.4201 10.7512 30651.2185 -123.6283 -74.2379
TCL: Running FEP window   8: Lambda1 0.35   Lambda2 0.39999999999999997 [dLambda 0.04999999999999999]
TCL: Setting parameter firsttimestep to 0
TCL: Setting parameter alchLambda to 0.35
Info: NONBONDED TABLE R-SQUARED SPACING: 0.0625
Info: NONBONDED TABLE SIZE: 705 POINTS
TCL: Setting parameter alchLambda2 to 0.39999999999999997
Info: NONBONDED TABLE R-SQUARED SPACING: 0.0625
Info: NONBONDED TABLE SIZE: 705 POINTS
TCL: Running for 1500000 steps
ETITLE: TS BOND ANGLE DIHED IMPRP ELECT VDW BOUNDARY MISC KINETIC TOTAL TEMP POTENTIAL TOTALAVG TEMPAVG PRESSURE GPRESSURE VOLUME PRESSAVG GPRESSAVG
ENERGY: 0 1.1941 6.4848 4.3217 0.0000 -10602.6557 1429.9502 0.0000 0.0000 1765.1821 -7395.5229 300.1960 -9160.7050 -7395.5229 300.1960 -64.9325 13.3762 30651.2185 -64.9325 13.3762
ENERGY: 300000 0.1849 6.6399 3.0573 0.0000 -10750.3639 1520.9226 0.0000 0.0000 1724.8604 -7494.6988 293.3387 -9219.5592 -7428.6181 302.2780 917.9672 942.8225 29972.4639 293.5106 366.1857
ENERGY: 600000 0.4159 7.0353 5.3722 0.0000 -10736.6563 1409.0619 0.0000 0.0000 1817.5626 -7497.2084 309.1041 -9314.7710 -7427.9148 304.7640 -243.3171 -241.7009 30092.2172 105.0686 164.8028
ENERGY: 900000 1.9888 6.0474 5.1930 0.0000 -10667.9371 1490.5540 0.0000 0.0000 1698.3618 -7465.7920 288.8322 -9164.1538 -7445.8377 302.4091 336.4018 436.9736 30229.5068 -18.5359 51.6387
ENERGY: 1200000 1.0092 4.1222 4.0969 0.0000 -10669.4197 1410.5799 0.0000 0.0000 1779.6764 -7469.9351 302.6610 -9249.6115 -7448.7525 301.3212 -340.8591 -245.7687 30292.8663 2.9905 70.8891
ENERGY: 1500000 0.8689 4.5524 3.3632 0.0000 -10639.7141 1433.6163 0.0000 0.0000 1792.8197 -7404.4936 304.8962 -9197.3133 -7449.4127 301.9267 92.4430 114.8827 30417.4445 86.9023 149.4622
TCL: Running FEP window   9: Lambda1 0.39999999999999997 Lambda2 0.44999999999999996 [dLambda 0.04999999999999999]
TCL: Setting parameter firsttimestep to 0
TCL: Setting parameter alchLambda to 0.39999999999999997
Info: NONBONDED TABLE R-SQUARED SPACING: 0.0625
Info: NONBONDED TABLE SIZE: 705 POINTS
TCL: Setting parameter alchLambda2 to 0.44999999999999996
Info: NONBONDED TABLE R-SQUARED SPACING: 0.0625
Info: NONBONDED TABLE SIZE: 705 POINTS
TCL: Running for 1500000 steps
ETITLE: TS BOND ANGLE DIHED IMPRP ELECT VDW BOUNDARY MISC KINETIC TOTAL TEMP POTENTIAL TOTALAVG TEMPAVG PRESSURE GPRESSURE VOLUME PRESSAVG GPRESSAVG
ENERGY: 0 0.8689 4.5524 3.3632 0.0000 -10639.7142 1433.7197 0.0000 0.0000 1791.9166 -7405.2934 304.7426 -9197.2100 -7405.2934 304.7426 37.5388 122.3097 30417.4445 37.5388 122.3097
ENERGY: 300000 3.2089 9.7687 2.3276 0.0000 -10784.9313 1463.4536 0.0000 0.0000 1721.5233 -7584.6493 292.7712 -9306.1725 -7484.2809 301.7342 -137.4498 -116.1614 30353.3633 103.8260 152.3391
ENERGY: 600000 0.1096 7.4573 2.3947 0.0000 -10784.7548 1489.3163 0.0000 0.0000 1798.9317 -7486.5452 305.9357 -9285.4769 -7490.5816 301.7773 501.9863 561.7619 29999.3530 215.3883 282.6282
ENERGY: 900000 1.3519 7.0719 5.2949 0.0000 -10627.8713 1393.7906 0.0000 0.0000 1757.6902 -7462.6719 298.9219 -9220.3621 -7487.0669 300.5570 -474.4527 -397.9182 30700.2249 33.9703 101.2417
ENERGY: 1200000 3.0594 7.0047 5.3771 0.0000 -10564.9708 1389.9669 0.0000 0.0000 1744.0735 -7415.4892 296.6062 -9159.5627 -7479.7084 299.3663 -351.1787 -319.5912 30772.5609 -21.7411 47.3973
ENERGY: 1500000 2.7084 5.7546 1.5088 0.0000 -10682.3359 1445.9162 0.0000 0.0000 1730.5084 -7495.9395 294.2992 -9226.4479 -7480.7423 298.4509 -51.5725 -54.1905 30343.1320 -68.2454 -2.2540
TCL: Running FEP window  10: Lambda1 0.44999999999999996 Lambda2 0.49999999999999994 [dLambda 0.04999999999999999]
TCL: Setting parameter firsttimestep to 0
TCL: Setting parameter alchLambda to 0.44999999999999996
Info: NONBONDED TABLE R-SQUARED SPACING: 0.0625
Info: NONBONDED TABLE SIZE: 705 POINTS
TCL: Setting parameter alchLambda2 to 0.49999999999999994
Info: NONBONDED TABLE R-SQUARED SPACING: 0.0625
Info: NONBONDED TABLE SIZE: 705 POINTS
TCL: Running for 1500000 steps
ETITLE: TS BOND ANGLE DIHED IMPRP ELECT VDW BOUNDARY MISC KINETIC TOTAL TEMP POTENTIAL TOTALAVG TEMPAVG PRESSURE GPRESSURE VOLUME PRESSAVG GPRESSAVG
ENERGY: 0 2.7084 5.7546 1.5088 0.0000 -10682.3368 1446.0952 0.0000 0.0000 1729.6312 -7496.6385 294.1501 -9226.2698 -7496.6385 294.1501 -116.5745 -46.8643 30343.1320 -116.5745 -46.8643
ENERGY: 300000 1.3148 4.5225 2.2386 0.0000 -10669.2760 1459.1614 0.0000 0.0000 1792.7658 -7409.2729 304.8870 -9202.0387 -7439.4850 300.7040 94.1533 107.8113 30671.7617 -17.1977 51.1711
ENERGY: 600000 0.4788 5.3596 6.7182 0.0000 -10574.0369 1379.4754 0.0000 0.0000 1778.2916 -7403.7133 302.4255 -9182.0049 -7429.9491 301.8089 -532.8365 -443.3258 30781.5510 -135.8661 -59.6075
ENERGY: 900000 0.7484 8.1738 2.8541 0.0000 -10690.6511 1470.6719 0.0000 0.0000 1837.3171 -7370.8858 312.4637 -9208.2029 -7440.4387 301.7588 196.8625 254.0700 30657.3320 -247.1531 -180.7970
ENERGY: 1200000 1.1774 5.4859 4.1283 0.0000 -10662.4325 1420.8652 0.0000 0.0000 1753.3762 -7477.3996 298.1882 -9230.7758 -7457.7385 300.4288 6.5373 75.8331 30249.5463 -155.1121 -88.3577
ENERGY: 1500000 2.0122 7.9037 2.8519 0.0000 -10528.4478 1365.5249 0.0000 0.0000 1728.2420 -7421.9131 293.9138 -9150.1552 -7448.4728 300.5327 -597.4897 -579.4254 30972.4376 -197.4106 -122.9315
TCL: Running FEP window  11: Lambda1 0.49999999999999994 Lambda2 0.5499999999999999 [dLambda 0.04999999999999999]
TCL: Setting parameter firsttimestep to 0
TCL: Setting parameter alchLambda to 0.49999999999999994
Info: NONBONDED TABLE R-SQUARED SPACING: 0.0625
Info: NONBONDED TABLE SIZE: 705 POINTS
TCL: Setting parameter alchLambda2 to 0.5499999999999999
Info: NONBONDED TABLE R-SQUARED SPACING: 0.0625
Info: NONBONDED TABLE SIZE: 705 POINTS
TCL: Running for 1500000 steps
ETITLE: TS BOND ANGLE DIHED IMPRP ELECT VDW BOUNDARY MISC KINETIC TOTAL TEMP POTENTIAL TOTALAVG TEMPAVG PRESSURE GPRESSURE VOLUME PRESSAVG GPRESSAVG
ENERGY: 0 2.0122 7.9037 2.8519 0.0000 -10528.4487 1365.4427 0.0000 0.0000 1727.3925 -7422.8457 293.7693 -9150.2382 -7422.8457 293.7693 -661.8922 -572.4365 30972.4376 -661.8922 -572.4365
ENERGY: 300000 1.6210 9.7161 2.4555 0.0000 -10560.7097 1332.1668 0.0000 0.0000 1836.0815 -7378.6689 312.2535 -9214.7503 -7435.2195 302.4101 -1124.1730 -1002.3208 31323.5412 -382.7858 -294.9008
ENERGY: 600000 1.0130 11.2232 5.4106 0.0000 -10709.4568 1454.3247 0.0000 0.0000 1762.6342 -7474.8511 299.7627 -9237.4853 -7461.7894 300.9888 88.2573 111.9298 30472.7884 -329.1521 -257.5596
ENERGY: 900000 1.5301 6.0073 4.1560 0.0000 -10535.6377 1342.4264 0.0000 0.0000 1801.6880 -7379.8298 306.4044 -9181.5178 -7457.1237 301.8022 -648.7656 -607.9035 30424.8971 -305.7698 -240.3861
ENERGY: 1200000 0.2572 6.6031 4.6461 0.0000 -10737.7387 1457.8666 0.0000 0.0000 1760.4881 -7507.8776 299.3977 -9268.3657 -7464.3378 301.6600 184.1960 182.9824 30214.3341 -261.7814 -198.6508
ENERGY: 1500000 0.7341 7.7133 4.5800 0.0000 -10766.9380 1498.1687 0.0000 0.0000 1817.5863 -7438.1555 309.1082 -9255.7419 -7469.1010 302.1043 697.4972 697.4492 29859.2878 -206.4635 -148.2771
TCL: Running FEP window  12: Lambda1 0.5499999999999999 Lambda2 0.6    [dLambda 0.050000000000000044]
TCL: Setting parameter firsttimestep to 0
TCL: Setting parameter alchLambda to 0.5499999999999999
Info: NONBONDED TABLE R-SQUARED SPACING: 0.0625
Info: NONBONDED TABLE SIZE: 705 POINTS
TCL: Setting parameter alchLambda2 to 0.6
Info: NONBONDED TABLE R-SQUARED SPACING: 0.0625
Info: NONBONDED TABLE SIZE: 705 POINTS
TCL: Running for 1500000 steps
ETITLE: TS BOND ANGLE DIHED IMPRP ELECT VDW BOUNDARY MISC KINETIC TOTAL TEMP POTENTIAL TOTALAVG TEMPAVG PRESSURE GPRESSURE VOLUME PRESSAVG GPRESSAVG
ENERGY: 0 0.7341 7.7133 4.5800 0.0000 -10767.0774 1498.0707 0.0000 0.0000 1816.6848 -7439.2944 308.9548 -9255.9792 -7439.2944 308.9548 618.2368 701.9339 29859.2878 618.2368 701.9339
ENERGY: 300000 5.2639 5.5874 2.7018 0.0000 -10690.0726 1462.7431 0.0000 0.0000 1785.2663 -7428.5100 303.6116 -9213.7763 -7517.0375 300.0749 15.2265 25.5434 30456.5285 -201.8400 -137.7437
ENERGY: 600000 0.4911 6.0228 2.5839 0.0000 -10596.6416 1364.5115 0.0000 0.0000 1780.6144 -7442.4179 302.8205 -9223.0323 -7489.9339 301.3737 -572.1038 -552.2526 30620.2886 -122.0005 -71.7234
ENERGY: 900000 2.3292 11.0114 2.8045 0.0000 -10518.8127 1319.7905 0.0000 0.0000 1759.3155 -7423.5616 299.1983 -9182.8771 -7480.5707 301.9509 -1054.4350 -967.6506 30931.4772 -243.1182 -182.2682
ENERGY: 1200000 0.3044 8.7506 2.1078 0.0000 -10844.7206 1529.6022 0.0000 0.0000 1757.0210 -7546.9346 298.8081 -9303.9555 -7492.9276 302.0729 796.1178 824.2878 29773.2728 -136.9408 -75.6568
ENERGY: 1500000 3.3958 8.3805 2.6246 0.0000 -10639.6001 1465.1035 0.0000 0.0000 1760.4619 -7399.6339 299.3933 -9160.0957 -7479.7417 301.2628 151.8942 223.5110 30924.9372 -139.8808 -76.9227
TCL: Running FEP window  13: Lambda1 0.6    Lambda2 0.65   [dLambda 0.050000000000000044]
TCL: Setting parameter firsttimestep to 0
TCL: Setting parameter alchLambda to 0.6
Info: NONBONDED TABLE R-SQUARED SPACING: 0.0625
Info: NONBONDED TABLE SIZE: 705 POINTS
TCL: Setting parameter alchLambda2 to 0.65
Info: NONBONDED TABLE R-SQUARED SPACING: 0.0625
Info: NONBONDED TABLE SIZE: 705 POINTS
TCL: Running for 1500000 steps
ETITLE: TS BOND ANGLE DIHED IMPRP ELECT VDW BOUNDARY MISC KINETIC TOTAL TEMP POTENTIAL TOTALAVG TEMPAVG PRESSURE GPRESSURE VOLUME PRESSAVG GPRESSAVG
ENERGY: 0 3.3958 8.3805 2.6246 0.0000 -10640.1705 1465.3277 0.0000 0.0000 1759.5816 -7400.8603 299.2436 -9160.4419 -7400.8603 299.2436 158.1663 230.4060 30924.9372 158.1663 230.4060
ENERGY: 300000 0.1819 5.8305 2.0117 0.0000 -10591.7863 1355.7473 0.0000 0.0000 1733.3800 -7494.6349 294.7876 -9228.0149 -7489.2684 297.8914 -671.9378 -543.3875 30463.3704 -257.4794 -159.6957
ENERGY: 600000 4.0629 7.3889 2.3816 0.0000 -10609.1987 1412.4350 0.0000 0.0000 1755.7798 -7427.1505 298.5970 -9182.9303 -7503.1110 297.8614 -192.4394 -170.4639 30529.9888 -51.9243 23.2400
ENERGY: 900000 1.2794 5.2502 4.4563 0.0000 -10749.8675 1500.6153 0.0000 0.0000 1775.0466 -7463.2197 301.8736 -9238.2663 -7497.0329 298.4186 478.7855 584.6639 30429.3002 -130.6160 -57.6905
ENERGY: 1200000 0.7594 6.9845 1.9367 0.0000 -10583.2903 1332.3587 0.0000 0.0000 1791.7044 -7449.5466 304.7065 -9241.2511 -7481.6143 299.3193 -957.4388 -859.3318 30729.6068 -236.0045 -157.8190
ENERGY: 1500000 2.0969 8.0967 3.8960 0.0000 -10711.0783 1466.7183 0.0000 0.0000 1767.9990 -7462.2713 300.6751 -9230.2703 -7486.9236 298.7087 103.2533 248.4088 30430.2231 -207.5698 -124.1698
TCL: Running FEP window  14: Lambda1 0.65   Lambda2 0.7000000000000001 [dLambda 0.050000000000000044]
TCL: Setting parameter firsttimestep to 0
TCL: Setting parameter alchLambda to 0.65
Info: NONBONDED TABLE R-SQUARED SPACING: 0.0625
Info: NONBONDED TABLE SIZE: 705 POINTS
TCL: Setting parameter alchLambda2 to 0.7000000000000001
Info: NONBONDED TABLE R-SQUARED SPACING: 0.0625
Info: NONBONDED TABLE SIZE: 705 POINTS
TCL: Running for 1500000 steps
ETITLE: TS BOND ANGLE DIHED IMPRP ELECT VDW BOUNDARY MISC KINETIC TOTAL TEMP POTENTIAL TOTALAVG TEMPAVG PRESSURE GPRESSURE VOLUME PRESSAVG GPRESSAVG
ENERGY: 0 2.0969 8.0966 3.8960 0.0000 -10711.9474 1466.3387 0.0000 0.0000 1767.1284 -7464.3908 300.5270 -9231.5191 -7464.3908 300.5270 168.5233 251.1919 30430.2231 168.5233 251.1919
ENERGY: 300000 4.8103 4.7614 2.1641 0.0000 -10736.8896 1452.1233 0.0000 0.0000 1739.5060 -7533.5244 295.8294 -9273.0304 -7489.6937 297.9247 -168.7873 -43.4913 30625.1763 230.9114 286.9056
ENERGY: 600000 0.4017 8.8769 2.6594 0.0000 -10677.5713 1425.7822 0.0000 0.0000 1771.5099 -7468.3412 301.2722 -9239.8510 -7494.8944 298.5142 63.9751 142.7160 29934.3140 181.1671 248.6185
ENERGY: 900000 0.3729 5.5271 4.7356 0.0000 -10795.6702 1479.5970 0.0000 0.0000 1796.5441 -7508.8934 305.5296 -9305.4376 -7495.3737 298.3066 149.0704 205.2966 30368.8289 94.7180 168.0640
ENERGY: 1200000 1.3134 10.2983 4.0508 0.0000 -10520.5555 1310.1833 0.0000 0.0000 1730.7124 -7463.9973 294.3339 -9194.7098 -7495.1077 298.7595 -828.7312 -794.1535 30179.6736 -53.5545 11.8453
ENERGY: 1500000 3.2642 8.5346 4.6475 0.0000 -10657.2243 1401.4755 0.0000 0.0000 1789.2257 -7450.0768 304.2850 -9239.3025 -7494.6373 299.1557 -311.4775 -232.1990 30697.3354 -9.3910 56.2699
TCL: Running FEP window  15: Lambda1 0.7000000000000001 Lambda2 0.7500000000000001 [dLambda 0.050000000000000044]
TCL: Setting parameter firsttimestep to 0
TCL: Setting parameter alchLambda to 0.7000000000000001
Info: NONBONDED TABLE R-SQUARED SPACING: 0.0625
Info: NONBONDED TABLE SIZE: 705 POINTS
TCL: Setting parameter alchLambda2 to 0.7500000000000001
Info: NONBONDED TABLE R-SQUARED SPACING: 0.0625
Info: NONBONDED TABLE SIZE: 705 POINTS
TCL: Running for 1500000 steps
ETITLE: TS BOND ANGLE DIHED IMPRP ELECT VDW BOUNDARY MISC KINETIC TOTAL TEMP POTENTIAL TOTALAVG TEMPAVG PRESSURE GPRESSURE VOLUME PRESSAVG GPRESSAVG
ENERGY: 0 3.2642 8.5346 4.6475 0.0000 -10657.3992 1401.1474 0.0000 0.0000 1788.3400 -7451.4656 304.1344 -9239.8056 -7451.4656 304.1344 -307.5828 -227.1592 30697.3354 -307.5828 -227.1592
ENERGY: 300000 1.2392 11.2385 4.6985 0.0000 -10588.6941 1386.1419 0.0000 0.0000 1758.3744 -7427.0016 299.0383 -9185.3760 -7471.0989 298.9145 -206.2798 -164.1477 30487.9427 -79.8816 -36.7397
ENERGY: 600000 1.4988 7.3810 2.9303 0.0000 -10546.6649 1387.7187 0.0000 0.0000 1741.9840 -7405.1521 296.2508 -9147.1361 -7448.4169 298.8066 -263.1572 -210.7781 30638.4425 -230.8520 -174.2904
ENERGY: 900000 2.9963 5.2749 3.0076 0.0000 -10762.9517 1437.2277 0.0000 0.0000 1774.8475 -7539.5978 301.8398 -9314.4452 -7459.7805 300.0922 10.5450 98.2824 29684.1342 -167.8989 -105.2070
ENERGY: 1200000 1.1617 10.8275 1.6908 0.0000 -10604.5390 1424.6441 0.0000 0.0000 1746.5076 -7419.7073 297.0201 -9166.2149 -7458.6472 299.7326 296.4437 258.6282 30067.8183 -53.9034 4.5446
ENERGY: 1500000 3.4394 5.2829 2.6118 0.0000 -10834.3766 1503.1792 0.0000 0.0000 1759.9077 -7559.9555 299.2990 -9319.8632 -7464.2687 299.2101 374.1104 435.5707 30225.0220 -16.9403 41.4293
TCL: Running FEP window  16: Lambda1 0.7500000000000001 Lambda2 0.8000000000000002 [dLambda 0.050000000000000044]
TCL: Setting parameter firsttimestep to 0
TCL: Setting parameter alchLambda to 0.7500000000000001
Info: NONBONDED TABLE R-SQUARED SPACING: 0.0625
Info: NONBONDED TABLE SIZE: 705 POINTS
TCL: Setting parameter alchLambda2 to 0.8000000000000002
Info: NONBONDED TABLE R-SQUARED SPACING: 0.0625
Info: NONBONDED TABLE SIZE: 705 POINTS
TCL: Running for 1500000 steps
ETITLE: TS BOND ANGLE DIHED IMPRP ELECT VDW BOUNDARY MISC KINETIC TOTAL TEMP POTENTIAL TOTALAVG TEMPAVG PRESSURE GPRESSURE VOLUME PRESSAVG GPRESSAVG
ENERGY: 0 3.4394 5.2829 2.6118 0.0000 -10835.2172 1503.7562 0.0000 0.0000 1759.0354 -7561.0914 299.1507 -9320.1268 -7561.0914 299.1507 374.4574 450.1622 30225.0220 374.4574 450.1622
ENERGY: 300000 1.7081 7.9055 4.8154 0.0000 -10528.6870 1412.8687 0.0000 0.0000 1762.3736 -7339.0157 299.7184 -9101.3893 -7439.4543 297.4444 253.8730 314.9797 30498.0881 85.8805 159.0343
ENERGY: 600000 0.6291 9.3789 6.7997 0.0000 -10743.3704 1472.7790 0.0000 0.0000 1727.4097 -7526.3740 293.7723 -9253.7837 -7456.4502 297.9493 404.0404 465.1788 30106.4313 217.7367 288.3761
ENERGY: 900000 1.5792 5.7127 2.7284 0.0000 -10749.0942 1482.8487 0.0000 0.0000 1767.8245 -7488.4007 300.6454 -9256.2252 -7465.3378 298.3384 262.0703 299.0850 30511.6533 145.0042 210.2192
ENERGY: 1200000 2.1743 7.5625 2.5272 0.0000 -10721.6386 1420.2710 0.0000 0.0000 1783.0949 -7506.0087 303.2424 -9289.1037 -7472.8504 297.8003 -67.1757 -49.2355 30102.2735 63.5639 129.3054
ENERGY: 1500000 2.1189 6.3857 2.0945 0.0000 -10677.8403 1432.2881 0.0000 0.0000 1776.7221 -7458.2310 302.1586 -9234.9531 -7465.5072 298.2851 21.3771 93.3158 30123.1092 27.4016 92.5315
TCL: Running FEP window  17: Lambda1 0.8000000000000002 Lambda2 0.8500000000000002 [dLambda 0.050000000000000044]
TCL: Setting parameter firsttimestep to 0
TCL: Setting parameter alchLambda to 0.8000000000000002
Info: NONBONDED TABLE R-SQUARED SPACING: 0.0625
Info: NONBONDED TABLE SIZE: 705 POINTS
TCL: Setting parameter alchLambda2 to 0.8500000000000002
Info: NONBONDED TABLE R-SQUARED SPACING: 0.0625
Info: NONBONDED TABLE SIZE: 705 POINTS
TCL: Running for 1500000 steps
ETITLE: TS BOND ANGLE DIHED IMPRP ELECT VDW BOUNDARY MISC KINETIC TOTAL TEMP POTENTIAL TOTALAVG TEMPAVG PRESSURE GPRESSURE VOLUME PRESSAVG GPRESSAVG
ENERGY: 0 2.1189 6.3857 2.0945 0.0000 -10678.7567 1433.0492 0.0000 0.0000 1775.8289 -7459.2795 302.0067 -9235.1084 -7459.2795 302.0067 28.2583 108.4683 30123.1092 28.2583 108.4683
ENERGY: 300000 2.5738 8.4431 2.5328 0.0000 -10698.8259 1403.7104 0.0000 0.0000 1788.8065 -7492.7594 304.2137 -9281.5659 -7501.1017 299.9064 -670.2909 -525.6474 30595.7647 -321.1822 -240.2342
ENERGY: 600000 1.1093 7.8307 2.7915 0.0000 -10716.9113 1387.6588 0.0000 0.0000 1748.2111 -7569.3099 297.3099 -9317.5211 -7505.3276 301.9047 -653.6195 -595.1385 30282.5196 -337.3328 -269.6039
ENERGY: 900000 0.1469 8.6290 4.0214 0.0000 -10732.6196 1489.5197 0.0000 0.0000 1804.2081 -7426.0945 306.8330 -9230.3026 -7496.0641 301.4738 564.7142 588.6925 30237.6611 -264.4667 -220.6273
ENERGY: 1200000 0.8775 11.3604 2.4384 0.0000 -10713.3823 1495.6036 0.0000 0.0000 1826.0165 -7377.0860 310.5418 -9203.1024 -7478.6327 302.2642 830.5646 886.1045 30202.8161 -159.6757 -111.7833
ENERGY: 1500000 2.5219 8.0786 4.0981 0.0000 -10612.0439 1374.7718 0.0000 0.0000 1704.4399 -7518.1335 289.8659 -9222.5734 -7477.0393 301.7745 -651.5751 -573.0916 30641.9555 -148.3799 -95.0362
TCL: Running FEP window  18: Lambda1 0.8500000000000002 Lambda2 0.9000000000000002 [dLambda 0.050000000000000044]
TCL: Setting parameter firsttimestep to 0
TCL: Setting parameter alchLambda to 0.8500000000000002
Info: NONBONDED TABLE R-SQUARED SPACING: 0.0625
Info: NONBONDED TABLE SIZE: 705 POINTS
TCL: Setting parameter alchLambda2 to 0.9000000000000002
Info: NONBONDED TABLE R-SQUARED SPACING: 0.0625
Info: NONBONDED TABLE SIZE: 705 POINTS
TCL: Running for 1500000 steps
ETITLE: TS BOND ANGLE DIHED IMPRP ELECT VDW BOUNDARY MISC KINETIC TOTAL TEMP POTENTIAL TOTALAVG TEMPAVG PRESSURE GPRESSURE VOLUME PRESSAVG GPRESSAVG
ENERGY: 0 2.5219 8.0786 4.0981 0.0000 -10613.5703 1376.2604 0.0000 0.0000 1703.5450 -7519.0662 289.7137 -9222.6112 -7519.0662 289.7137 -632.1795 -543.8306 30641.9555 -632.1795 -543.8306
ENERGY: 300000 3.0124 8.7623 4.4133 0.0000 -10724.1726 1476.0817 0.0000 0.0000 1882.6203 -7349.2826 320.1682 -9231.9029 -7454.5066 302.3757 305.5944 367.1031 30417.7736 174.7600 255.3530
ENERGY: 600000 0.9728 6.5965 3.5921 0.0000 -10629.8752 1386.0198 0.0000 0.0000 1744.3940 -7488.3000 296.6607 -9232.6940 -7477.7089 302.1142 -309.4814 -289.7973 30426.1932 117.2395 199.3344
ENERGY: 900000 1.9252 6.8782 1.8594 0.0000 -10732.8846 1475.7507 0.0000 0.0000 1724.1880 -7522.2832 293.2243 -9246.4712 -7483.7670 300.1982 434.3144 429.9374 30340.6181 152.0680 213.4655
ENERGY: 1200000 1.2503 6.4654 2.0315 0.0000 -10594.7212 1413.2812 0.0000 0.0000 1673.4907 -7498.2022 284.6025 -9171.6928 -7475.1379 299.7130 2.8584 83.6067 30181.4324 60.4029 129.6041
ENERGY: 1500000 3.1773 8.3773 4.9787 0.0000 -10498.9578 1370.0222 0.0000 0.0000 1780.8230 -7331.5792 302.8560 -9112.4022 -7458.8166 300.1837 -373.3242 -324.9424 30926.9406 -44.4977 20.2189
TCL: Running FEP window  19: Lambda1 0.9000000000000002 Lambda2 0.9500000000000003 [dLambda 0.050000000000000044]
TCL: Setting parameter firsttimestep to 0
TCL: Setting parameter alchLambda to 0.9000000000000002
Info: NONBONDED TABLE R-SQUARED SPACING: 0.0625
Info: NONBONDED TABLE SIZE: 705 POINTS
TCL: Setting parameter alchLambda2 to 0.9500000000000003
Info: NONBONDED TABLE R-SQUARED SPACING: 0.0625
Info: NONBONDED TABLE SIZE: 705 POINTS
TCL: Running for 1500000 steps
ETITLE: TS BOND ANGLE DIHED IMPRP ELECT VDW BOUNDARY MISC KINETIC TOTAL TEMP POTENTIAL TOTALAVG TEMPAVG PRESSURE GPRESSURE VOLUME PRESSAVG GPRESSAVG
ENERGY: 0 3.1773 8.3773 4.9787 0.0000 -10499.6749 1370.1179 0.0000 0.0000 1779.9698 -7333.0539 302.7109 -9113.0237 -7333.0539 302.7109 -401.9678 -313.0088 30926.9406 -401.9678 -313.0088
ENERGY: 300000 0.6183 7.5400 1.4639 0.0000 -10599.1012 1351.3312 0.0000 0.0000 1813.1527 -7424.9952 308.3542 -9238.1479 -7455.3963 301.5774 -576.6280 -564.2802 30533.4722 -424.0069 -397.2385
ENERGY: 600000 1.2157 8.2904 2.2647 0.0000 -10662.2002 1400.6269 0.0000 0.0000 1786.7240 -7463.0784 303.8595 -9249.8024 -7473.9519 301.9373 -299.8393 -201.7186 30254.7187 -275.9667 -241.9917
ENERGY: 900000 2.0709 8.2718 1.9972 0.0000 -10632.6774 1467.6188 0.0000 0.0000 1773.2191 -7379.4995 301.5628 -9152.7187 -7464.3098 301.5780 632.4058 669.7226 30110.2436 -171.9850 -133.6214
ENERGY: 1200000 1.7304 9.1710 3.2023 0.0000 -10500.3001 1293.0624 0.0000 0.0000 1776.9088 -7416.2251 302.1903 -9193.1339 -7458.6841 301.4854 -1138.1047 -1064.5441 30871.8486 -299.2420 -263.5138
ENERGY: 1500000 1.0222 6.2023 1.8279 0.0000 -10680.2031 1431.5491 0.0000 0.0000 1831.1821 -7408.4195 311.4203 -9239.6016 -7453.3673 302.5651 -76.1161 -35.4195 30753.8394 -208.0870 -167.3202
TCL: Running FEP window  20: Lambda1 0.9500000000000003 Lambda2 1.0    [dLambda 0.04999999999999971]
TCL: Setting parameter firsttimestep to 0
TCL: Setting parameter alchLambda to 0.9500000000000003
Info: NONBONDED TABLE R-SQUARED SPACING: 0.0625
Info: NONBONDED TABLE SIZE: 705 POINTS
TCL: Setting parameter alchLambda2 to 1.0
Info: NONBONDED TABLE R-SQUARED SPACING: 0.0625
Info: NONBONDED TABLE SIZE: 705 POINTS
TCL: Running for 1500000 steps
ETITLE: TS BOND ANGLE DIHED IMPRP ELECT VDW BOUNDARY MISC KINETIC TOTAL TEMP POTENTIAL TOTALAVG TEMPAVG PRESSURE GPRESSURE VOLUME PRESSAVG GPRESSAVG
ENERGY: 0 1.0222 6.2023 1.8279 0.0000 -10681.2578 1432.5225 0.0000 0.0000 1830.3244 -7409.3584 311.2745 -9239.6828 -7409.3584 311.2745 -85.6483 -12.9249 30753.8394 -85.6483 -12.9249
ENERGY: 300000 0.5016 8.8226 1.6302 0.0000 -10791.6391 1448.0850 0.0000 0.0000 1792.3290 -7540.2707 304.8128 -9332.5997 -7445.7865 304.8418 -125.3864 -66.4015 30405.5763 -45.4491 8.7938
ENERGY: 600000 1.4536 4.6877 3.0424 0.0000 -10802.4431 1484.3890 0.0000 0.0000 1734.8836 -7573.9867 295.0433 -9308.8704 -7472.6125 302.8024 381.4729 423.9342 29980.8350 94.6287 158.4999
ENERGY: 900000 2.7929 7.1477 4.8206 0.0000 -10621.7416 1413.1932 0.0000 0.0000 1729.1089 -7464.6784 294.0612 -9193.7873 -7473.9415 301.3419 80.3586 156.7303 30034.6728 -24.8908 40.3568
ENERGY: 1200000 0.7660 2.5834 3.3185 0.0000 -10718.6218 1432.3190 0.0000 0.0000 1719.2255 -7560.4094 292.3804 -9279.6349 -7476.8066 300.3540 -251.1337 -184.7804 30643.6805 -42.1925 19.8081
ENERGY: 1500000 0.1386 6.4544 3.1649 0.0000 -10675.4821 1429.2276 0.0000 0.0000 1741.5425 -7494.9540 296.1757 -9236.4965 -7477.8194 299.7862 106.6363 218.2453 30084.9413 -73.3390 -7.4180
TCL: Exiting due to exit command.
