Info: SIMULATION PARAMETERS:
Info: TIMESTEP               2
Info: NUMBER OF STEPS        0
Info: STEPS PER CYCLE        10
Info: PERIODIC CELL BASIS 1  30.3923 0 0
Info: PERIODIC CELL BASIS 2  0 30.6144 0
Info: PERIODIC CELL BASIS 3  0 0 32.1621
Info: PERIODIC CELL CENTER   0 0 0
Info: WRAPPING WATERS AROUND PERIODIC BOUNDARIES ON OUTPUT.
Info: WRAPPING ALL CLUSTERS AROUND PERIODIC BOUNDARIES ON OUTPUT.
Info: FIRST LDB TIMESTEP     50
Info: LAST LDB TIMESTEP     -1
Info: HOM BACKGROUND SCALING 1
Info: PME BACKGROUND SCALING 1
Info: MIN ATOMS PER PATCH    40
Info: EMPTY PATCH LOAD       40 ATOMS
Info: VELOCITY FILE          mobley_6115639_equil.vel
Info: CENTER OF MASS MOVING INITIALLY? NO
Info: DIELECTRIC             1
Info: EXCLUDE                SCALED ONE-FOUR
Info: 1-4 ELECTROSTATICS SCALED BY 0.833333
Info: MODIFIED 1-4 VDW PARAMETERS WILL BE USED
Info: DCD FILENAME           mobley_6115639_prod.dcd
Info: DCD FREQUENCY          100000
Info: DCD FIRST STEP         100000
Info: DCD FILE WILL CONTAIN UNIT CELL DATA
Info: XST FILENAME           mobley_6115639_prod.xst
Info: XST FREQUENCY          100000
Info: NO VELOCITY DCD OUTPUT
Info: NO FORCE DCD OUTPUT
Info: OUTPUT FILENAME        mobley_6115639_prod
Info: BINARY OUTPUT FILES WILL BE USED
Info: RESTART FILENAME       mobley_6115639_prod.restart
Info: RESTART FREQUENCY      100000
Info: BINARY RESTART FILES WILL BE USED
Info: CUTOFF                 9
Info: PAIRLIST DISTANCE      11
Info: PAIRLIST SHRINK RATE   0.01
Info: PAIRLIST GROW RATE     0.01
Info: PAIRLIST TRIGGER       0.3
Info: PAIRLISTS PER CYCLE    2
Info: PAIRLISTS ENABLED
Info: MARGIN                 2
Info: HYDROGEN GROUP CUTOFF  2.5
Info: PATCH DIMENSION        15.5
Info: ENERGY OUTPUT STEPS    100000
Info: ENERGY EVALUATION STEPS    100000
Info: OUTPUT ENERGY PRECISION 4
Info: CROSSTERM ENERGY INCLUDED IN DIHEDRAL
Info: TIMING OUTPUT STEPS    1000000
Info: PRESSURE OUTPUT STEPS  100000
Info: ALCHEMICAL FEP ON
Info: FEP CURRENT LAMBDA VALUE     0
Info: FEP COMPARISON LAMBDA VALUE  0.05
Info: FEP INTRA-ALCHEMICAL NON-BONDED INTERACTIONS WILL BE RETAINED
Info: FEP INTRA-ALCHEMICAL BONDED INTERACTIONS WILL BE RETAINED
Info: FEP VDW SHIFTING COEFFICIENT 5
Info: FEP ELEC. ACTIVE FOR ANNIHILATED PARTICLES BETWEEN LAMBDA = 0 AND LAMBDA = 0.5
Info: FEP ELEC. ACTIVE FOR EXNIHILATED PARTICLES BETWEEN LAMBDA = 0.5 AND LAMBDA = 1
Info: FEP VDW ACTIVE FOR ANNIHILATED PARTICLES BETWEEN LAMBDA = 0 AND LAMBDA = 1
Info: FEP VDW ACTIVE FOR EXNIHILATED PARTICLES BETWEEN LAMBDA = 0 AND LAMBDA = 1
Info: FEP BOND ACTIVE FOR ANNIHILATED PARTICLES BETWEEN LAMBDA = 1 AND LAMBDA = 1
Info: FEP BOND ACTIVE FOR EXNIHILATED PARTICLES BETWEEN LAMBDA = 0 AND LAMBDA = 0
Info: LANGEVIN DYNAMICS ACTIVE
Info: LANGEVIN TEMPERATURE   300
Info: LANGEVIN USING BBK INTEGRATOR
Info: LANGEVIN DAMPING COEFFICIENT IS 1 INVERSE PS
Info: LANGEVIN DYNAMICS APPLIED TO HYDROGENS
Info: LANGEVIN PISTON PRESSURE CONTROL ACTIVE
Info:        TARGET PRESSURE IS 1.01325 BAR
Info:     OSCILLATION PERIOD IS 50 FS
Info:             DECAY TIME IS 25 FS
Info:     PISTON TEMPERATURE IS 300 K
Info:       PRESSURE CONTROL IS GROUP-BASED
Info:    INITIAL STRAIN RATE IS -0.000258339 -0.000258339 -0.000258339
Info:       CELL FLUCTUATION IS ISOTROPIC
Info: PARTICLE MESH EWALD (PME) ACTIVE
Info: PME TOLERANCE               1e-06
Info: PME EWALD COEFFICIENT       0.348832
Info: PME INTERPOLATION ORDER     4
Info: PME GRID DIMENSIONS         32 32 36
Info: PME MAXIMUM GRID SPACING    1
Info: PME CALCULATION WILL BE PERFORMED ON GPU
Info: FULL ELECTROSTATIC EVALUATION FREQUENCY      2
Info: USING VERLET I (r-RESPA) MTS SCHEME.
Info: C1 SPLITTING OF LONG RANGE ELECTROSTATICS
Info: PLACING ATOMS IN PATCHES BY HYDROGEN GROUPS
Info: RIGID BONDS TO HYDROGEN : ALL
Info:         ERROR TOLERANCE : 1e-08
Info:          MAX ITERATIONS : 100
Info: RIGID WATER USING SETTLE ALGORITHM
Info: RANDOM NUMBER SEED     1743913839
Info: USE HYDROGEN BONDS?    NO
Info: Using AMBER format force field!
Info: AMBER PARM FILE        mobley_6115639.prmtop
Info: COORDINATE PDB         mobley_6115639.pdb
Info: Exclusions will be read from PARM file!
Info: SCNB (VDW SCALING)     2
Info: USING ARITHMETIC MEAN TO COMBINE L-J SIGMA PARAMETERS
Info: BINARY COORDINATES     mobley_6115639_equil.coor
Info: SUMMARY OF PARAMETERS:
Info: 6 BONDS
Info: 5 ANGLES
Info:   5 HARMONIC
Info:   0 COSINE-BASED
Info: 5 DIHEDRAL
Info: 0 IMPROPER
Info: 0 CROSSTERM
Info: 0 VDW
Info: 28 VDW_PAIRS
Info: 0 NBTHOLE_PAIRS
Info: To read alchdata from file: mobley_6115639.pdb
Info: To read alchflag data from column: 5
Info: STRUCTURE SUMMARY:
Info: 2918 ATOMS
Info: 2917 BONDS
Info: 27 ANGLES
Info: 27 DIHEDRALS
Info: 0 IMPROPERS
Info: 0 CROSSTERMS
Info: 2962 EXCLUSIONS
Info: 2910 RIGID BONDS
Info: ALCH: 0 ATOMS TO DISAPPEAR IN FINAL STATE
Info: ALCH: 17 ATOMS TO APPEAR IN FINAL STATE
Info: 5844 DEGREES OF FREEDOM
Info: 975 HYDROGEN GROUPS
Info: 4 ATOMS IN LARGEST HYDROGEN GROUP
Info: 975 MIGRATION GROUPS
Info: 4 ATOMS IN LARGEST MIGRATION GROUP
Info: TOTAL MASS = 17561.5 amu
Info: TOTAL CHARGE = 0.000599861 e
Info: MASS DENSITY = 0.974516 g/cm^3
Info: ATOM DENSITY = 0.0975107 atoms/A^3
Info: ADDED 0 IMPLICIT EXCLUSIONS
Info: NONBONDED TABLE R-SQUARED SPACING: 0.0625
Info: NONBONDED TABLE SIZE: 705 POINTS
Info: REMOVING COM VELOCITY -0.210144 0.027512 0.182116
Info: Use 3D box decompostion in PME FFT.
Info: Updated CUDA force table with 4096 elements.
Info: Updated CUDA LJ table with 7 x 7 elements.
Info: Found 17 unique exclusion lists needing 32 bytes
TCL: Running for 1500000 steps
ETITLE: TS BOND ANGLE DIHED IMPRP ELECT VDW BOUNDARY MISC KINETIC TOTAL TEMP POTENTIAL TOTALAVG TEMPAVG PRESSURE GPRESSURE VOLUME PRESSAVG GPRESSAVG
ENERGY: 0 1.7414 4.3802 10.9268 0.0000 -10630.9408 1458.9473 0.0000 0.0000 1635.9175 -7519.0276 281.7355 -9154.9451 -7519.0276 281.7355 204.6325 286.7630 29924.9232 204.6325 286.7630
ENERGY: 300000 3.2703 7.2526 10.6640 0.0000 -10473.5553 1320.4505 0.0000 0.0000 1759.9829 -7371.9349 303.1019 -9131.9179 -7426.9078 299.4682 -579.7864 -498.5899 29718.8065 -62.8034 -10.4161
ENERGY: 600000 0.2909 7.7253 10.6769 0.0000 -10726.0008 1501.3710 0.0000 0.0000 1691.9654 -7513.9713 291.3880 -9205.9367 -7435.8595 297.2456 313.7732 396.7633 30162.6973 -43.7098 9.7513
ENERGY: 900000 3.3460 7.8429 11.6720 0.0000 -10764.1299 1552.9042 0.0000 0.0000 1760.6384 -7427.7264 303.2148 -9188.3648 -7440.2964 298.5350 840.2907 888.9110 30027.6228 -9.4590 53.0896
ENERGY: 1200000 1.2474 7.5840 10.7176 0.0000 -10524.6772 1325.8059 0.0000 0.0000 1794.2237 -7385.0985 308.9988 -9179.3223 -7430.4073 299.9890 -809.6042 -790.8739 30040.9924 -76.2472 -18.2288
ENERGY: 1500000 1.3986 6.3705 11.0581 0.0000 -10776.3973 1452.3201 0.0000 0.0000 1723.6306 -7581.6195 296.8413 -9305.2500 -7444.9596 299.8717 -266.5586 -218.6926 29758.4719 -100.5693 -51.8183
TCL: Running FEP window   2: Lambda1 0.05   Lambda2 0.1    [dLambda 0.05  ]
TCL: Setting parameter firsttimestep to 0
TCL: Setting parameter alchLambda to 0.05
Info: NONBONDED TABLE R-SQUARED SPACING: 0.0625
Info: NONBONDED TABLE SIZE: 705 POINTS
TCL: Setting parameter alchLambda2 to 0.1
Info: NONBONDED TABLE R-SQUARED SPACING: 0.0625
Info: NONBONDED TABLE SIZE: 705 POINTS
TCL: Running for 1500000 steps
ETITLE: TS BOND ANGLE DIHED IMPRP ELECT VDW BOUNDARY MISC KINETIC TOTAL TEMP POTENTIAL TOTALAVG TEMPAVG PRESSURE GPRESSURE VOLUME PRESSAVG GPRESSAVG
ENERGY: 0 1.3986 6.3705 11.0581 0.0000 -10776.3976 1452.8196 0.0000 0.0000 1722.7601 -7581.9908 296.6914 -9304.7509 -7581.9908 296.6914 -292.5049 -214.9130 29758.4719 -292.5049 -214.9130
ENERGY: 300000 0.5639 11.5028 12.5050 0.0000 -10634.4965 1385.2586 0.0000 0.0000 1774.1574 -7450.5088 305.5430 -9224.6662 -7487.6132 301.3342 -477.6757 -445.0195 30165.0865 -312.4533 -254.3973
ENERGY: 600000 2.5797 8.6359 11.8796 0.0000 -10685.5172 1461.9217 0.0000 0.0000 1734.0329 -7466.4674 298.6328 -9200.5003 -7461.5085 301.2601 219.7585 298.0188 29804.8072 -227.8087 -170.0291
ENERGY: 900000 1.6805 11.2064 10.5097 0.0000 -10728.8478 1506.5980 0.0000 0.0000 1771.7503 -7427.1029 305.1284 -9198.8532 -7455.9827 302.1766 658.8536 665.6847 29568.4767 -34.0267 22.8291
ENERGY: 1200000 1.9043 11.0790 10.6281 0.0000 -10719.1868 1502.2036 0.0000 0.0000 1730.6507 -7462.7211 298.0503 -9193.3718 -7453.5014 302.4660 862.8446 894.6107 29521.0516 56.1672 107.2934
ENERGY: 1500000 3.0821 8.3638 10.9576 0.0000 -10536.3831 1310.1290 0.0000 0.0000 1806.6974 -7397.1531 311.1470 -9203.8506 -7448.7061 302.6113 -1071.6201 -1060.2350 30081.8086 -54.1596 -6.3705
TCL: Running FEP window   3: Lambda1 0.1    Lambda2 0.15000000000000002 [dLambda 0.05000000000000002]
TCL: Setting parameter firsttimestep to 0
TCL: Setting parameter alchLambda to 0.1
Info: NONBONDED TABLE R-SQUARED SPACING: 0.0625
Info: NONBONDED TABLE SIZE: 705 POINTS
TCL: Setting parameter alchLambda2 to 0.15000000000000002
Info: NONBONDED TABLE R-SQUARED SPACING: 0.0625
Info: NONBONDED TABLE SIZE: 705 POINTS
TCL: Running for 1500000 steps
ETITLE: TS BOND ANGLE DIHED IMPRP ELECT VDW BOUNDARY MISC KINETIC TOTAL TEMP POTENTIAL TOTALAVG TEMPAVG PRESSURE GPRESSURE VOLUME PRESSAVG GPRESSAVG
ENERGY: 0 3.0821 8.3638 10.9576 0.0000 -10536.3823 1312.2453 0.0000 0.0000 1805.8354 -7395.8981 310.9985 -9201.7335 -7395.8981 310.9985 -1127.4705 -1052.5595 30081.8086 -1127.4705 -1052.5595
ENERGY: 300000 2.1310 10.2999 12.0861 0.0000 -10631.8465 1426.2053 0.0000 0.0000 1790.0042 -7391.1201 308.2721 -9181.1243 -7398.7532 305.4247 86.9517 197.2748 29498.7783 -296.5754 -226.6598
ENERGY: 600000 3.8756 6.0372 11.1974 0.0000 -10441.6069 1317.2997 0.0000 0.0000 1731.5240 -7371.6730 298.2007 -9103.1970 -7405.4160 302.5394 -639.4659 -609.6217 30052.0466 -254.6606 -187.6629
ENERGY: 900000 1.8357 5.3436 11.8713 0.0000 -10518.2161 1381.3677 0.0000 0.0000 1761.0160 -7356.7819 303.2798 -9117.7979 -7398.7404 302.8346 -326.4442 -299.0876 30323.5849 -258.1956 -192.1994
ENERGY: 1200000 0.5395 6.2107 13.3122 0.0000 -10518.7019 1285.9252 0.0000 0.0000 1708.2211 -7504.4932 294.1875 -9212.7142 -7404.5740 301.9808 -1387.5442 -1346.4574 30098.8126 -262.8943 -196.6792
ENERGY: 1500000 1.9035 9.8140 13.4251 0.0000 -10651.8477 1456.5733 0.0000 0.0000 1696.7757 -7473.3560 292.2164 -9170.1317 -7412.4406 301.4375 -107.1706 -15.5651 30363.4711 -246.9568 -185.3354
TCL: Running FEP window   4: Lambda1 0.15000000000000002 Lambda2 0.2    [dLambda 0.04999999999999999]
TCL: Setting parameter firsttimestep to 0
TCL: Setting parameter alchLambda to 0.15000000000000002
Info: NONBONDED TABLE R-SQUARED SPACING: 0.0625
Info: NONBONDED TABLE SIZE: 705 POINTS
TCL: Setting parameter alchLambda2 to 0.2
Info: NONBONDED TABLE R-SQUARED SPACING: 0.0625
Info: NONBONDED TABLE SIZE: 705 POINTS
TCL: Running for 1500000 steps
ETITLE: TS BOND ANGLE DIHED IMPRP ELECT VDW BOUNDARY MISC KINETIC TOTAL TEMP POTENTIAL TOTALAVG TEMPAVG PRESSURE GPRESSURE VOLUME PRESSAVG GPRESSAVG
ENERGY: 0 1.9035 9.8140 13.4251 0.0000 -10651.8482 1457.6970 0.0000 0.0000 1695.9410 -7473.0676 292.0727 -9169.0085 -7473.0676 292.0727 -91.8920 -9.4105 30363.4711 -91.8920 -9.4105
ENERGY: 300000 1.1722 4.9044 10.7575 0.0000 -10545.8302 1420.9123 0.0000 0.0000 1769.5227 -7338.5611 304.7448 -9108.0838 -7412.2234 298.6518 265.3817 335.8968 29807.7551 -82.8519 -48.1086
ENERGY: 600000 1.6403 14.5397 12.8671 0.0000 -10669.8831 1454.0680 0.0000 0.0000 1739.4320 -7447.3360 299.5626 -9186.7680 -7403.9880 300.8501 355.3116 399.8424 29797.5267 14.0765 66.2497
ENERGY: 900000 3.0342 6.9476 11.3943 0.0000 -10640.2732 1396.1360 0.0000 0.0000 1741.6398 -7481.1212 299.9429 -9222.7610 -7416.1362 300.8475 -364.6128 -381.9432 30093.4291 -78.0155 -26.9532
ENERGY: 1200000 2.4460 10.8356 12.2795 0.0000 -10668.7704 1455.6254 0.0000 0.0000 1760.1816 -7427.4022 303.1361 -9187.5838 -7417.4430 300.8552 254.1613 281.3139 29830.5464 -81.3774 -28.2165
ENERGY: 1500000 1.7857 4.5495 11.0780 0.0000 -10739.3288 1492.7657 0.0000 0.0000 1730.6298 -7498.5202 298.0467 -9229.1500 -7428.7074 300.8975 387.3582 428.8670 29980.7850 33.0313 79.8865
TCL: Running FEP window   5: Lambda1 0.2    Lambda2 0.25   [dLambda 0.04999999999999999]
TCL: Setting parameter firsttimestep to 0
TCL: Setting parameter alchLambda to 0.2
Info: NONBONDED TABLE R-SQUARED SPACING: 0.0625
Info: NONBONDED TABLE SIZE: 705 POINTS
TCL: Setting parameter alchLambda2 to 0.25
Info: NONBONDED TABLE R-SQUARED SPACING: 0.0625
Info: NONBONDED TABLE SIZE: 705 POINTS
TCL: Running for 1500000 steps
ETITLE: TS BOND ANGLE DIHED IMPRP ELECT VDW BOUNDARY MISC KINETIC TOTAL TEMP POTENTIAL TOTALAVG TEMPAVG PRESSURE GPRESSURE VOLUME PRESSAVG GPRESSAVG
ENERGY: 0 1.7857 4.5495 11.0780 0.0000 -10739.3282 1492.5419 0.0000 0.0000 1729.7652 -7499.6079 297.8978 -9229.3731 -7499.6079 297.8978 355.3844 429.2387 29980.7850 355.3844 429.2387
ENERGY: 300000 1.1721 6.4999 10.4964 0.0000 -10525.5545 1354.4471 0.0000 0.0000 1750.2807 -7402.6582 301.4310 -9152.9389 -7426.8842 299.0905 -572.5020 -469.8699 30110.6856 -181.1107 -99.8048
ENERGY: 600000 3.1157 8.0010 10.4740 0.0000 -10746.1097 1495.6181 0.0000 0.0000 1751.3488 -7477.5520 301.6149 -9228.9008 -7416.1940 301.5842 805.1686 821.4261 29649.9260 -116.2516 -49.0815
ENERGY: 900000 5.0570 6.5881 11.6900 0.0000 -10634.4684 1465.4360 0.0000 0.0000 1717.3085 -7428.3888 295.7525 -9145.6972 -7425.4882 301.4132 357.3943 434.5313 29961.3029 -66.5678 6.0213
ENERGY: 1200000 1.9825 9.3205 11.3959 0.0000 -10667.1807 1453.3419 0.0000 0.0000 1765.5451 -7425.5948 304.0598 -9191.1399 -7428.8127 300.8973 670.1677 736.7616 29304.3178 -15.8278 47.5642
ENERGY: 1500000 1.8430 9.8171 14.8642 0.0000 -10606.8758 1415.8415 0.0000 0.0000 1730.0723 -7434.4376 297.9507 -9164.5100 -7426.6302 300.7116 55.6734 96.7580 29945.6764 -13.4901 51.1260
TCL: Running FEP window   6: Lambda1 0.25   Lambda2 0.3    [dLambda 0.04999999999999999]
TCL: Setting parameter firsttimestep to 0
TCL: Setting parameter alchLambda to 0.25
Info: NONBONDED TABLE R-SQUARED SPACING: 0.0625
Info: NONBONDED TABLE SIZE: 705 POINTS
TCL: Setting parameter alchLambda2 to 0.3
Info: NONBONDED TABLE R-SQUARED SPACING: 0.0625
Info: NONBONDED TABLE SIZE: 705 POINTS
TCL: Running for 1500000 steps
ETITLE: TS BOND ANGLE DIHED IMPRP ELECT VDW BOUNDARY MISC KINETIC TOTAL TEMP POTENTIAL TOTALAVG TEMPAVG PRESSURE GPRESSURE VOLUME PRESSAVG GPRESSAVG
ENERGY: 0 1.8430 9.8171 14.8642 0.0000 -10606.8759 1415.2230 0.0000 0.0000 1729.1911 -7435.9375 297.7990 -9165.1286 -7435.9375 297.7990 11.0414 96.2151 29945.6764 11.0414 96.2151
ENERGY: 300000 1.3197 4.7774 13.5385 0.0000 -10723.0796 1515.9243 0.0000 0.0000 1755.2171 -7432.3025 302.2811 -9187.5197 -7405.3343 298.6633 607.2376 646.1867 29928.7485 -195.1515 -135.2582
ENERGY: 600000 1.8401 6.4080 11.1009 0.0000 -10668.7384 1414.8501 0.0000 0.0000 1733.4850 -7501.0543 298.5384 -9234.5393 -7429.4895 299.7585 -7.2513 38.2034 29537.0920 -262.8032 -207.3817
ENERGY: 900000 1.0825 7.3426 10.8475 0.0000 -10663.8375 1370.8226 0.0000 0.0000 1789.5561 -7484.1863 308.1949 -9273.7424 -7435.3822 300.8217 -560.9905 -505.3877 29891.5613 -295.7026 -237.0120
ENERGY: 1200000 0.8009 5.9182 10.4323 0.0000 -10694.2918 1476.4423 0.0000 0.0000 1759.6472 -7441.0508 303.0441 -9200.6980 -7439.3131 300.6824 334.4790 356.4595 30149.3868 -221.0595 -160.2339
ENERGY: 1500000 2.4385 4.2450 10.7263 0.0000 -10720.4787 1490.2347 0.0000 0.0000 1727.4612 -7485.3730 297.5010 -9212.8342 -7439.9153 300.7745 803.1466 867.8606 29333.9090 -145.0939 -86.3019
TCL: Running FEP window   7: Lambda1 0.3    Lambda2 0.35   [dLambda 0.04999999999999999]
TCL: Setting parameter firsttimestep to 0
TCL: Setting parameter alchLambda to 0.3
Info: NONBONDED TABLE R-SQUARED SPACING: 0.0625
Info: NONBONDED TABLE SIZE: 705 POINTS
TCL: Setting parameter alchLambda2 to 0.35
Info: NONBONDED TABLE R-SQUARED SPACING: 0.0625
Info: NONBONDED TABLE SIZE: 705 POINTS
TCL: Running for 1500000 steps
ETITLE: TS BOND ANGLE DIHED IMPRP ELECT VDW BOUNDARY MISC KINETIC TOTAL TEMP POTENTIAL TOTALAVG TEMPAVG PRESSURE GPRESSURE VOLUME PRESSAVG GPRESSAVG
ENERGY: 0 2.4385 4.2450 10.7263 0.0000 -10720.4788 1491.3208 0.0000 0.0000 1726.5875 -7485.1607 297.3506 -9211.7482 -7485.1607 297.3506 803.2907 880.0847 29333.9090 803.2907 880.0847
ENERGY: 300000 1.7697 7.7752 13.5932 0.0000 -10568.1571 1375.6218 0.0000 0.0000 1756.4500 -7412.9472 302.4934 -9169.3972 -7442.8180 297.4341 -238.3515 -142.2046 29739.0433 -144.8992 -68.5161
ENERGY: 600000 3.6632 4.4099 11.2050 0.0000 -10746.3169 1491.6607 0.0000 0.0000 1736.1153 -7499.2629 298.9914 -9235.3782 -7441.5097 299.9162 632.1186 713.8365 29587.6496 38.6909 101.0362
ENERGY: 900000 1.6003 7.7665 12.5745 0.0000 -10495.2840 1362.5422 0.0000 0.0000 1742.8905 -7367.9100 300.1583 -9110.8006 -7436.8620 300.9465 -477.6642 -371.2517 30134.1107 -60.7090 7.5443
ENERGY: 1200000 2.3708 2.7153 10.2948 0.0000 -10651.4653 1426.2891 0.0000 0.0000 1743.6671 -7466.1281 300.2920 -9209.7952 -7437.4879 300.7749 -97.0029 -45.0319 30115.8854 -11.3201 55.6392
ENERGY: 1500000 1.9876 4.0508 12.1614 0.0000 -10655.9593 1443.2502 0.0000 0.0000 1721.9642 -7472.5450 296.5543 -9194.5092 -7438.0720 300.3105 489.6794 557.1770 29456.7794 -15.2225 49.5928
TCL: Running FEP window   8: Lambda1 0.35   Lambda2 0.39999999999999997 [dLambda 0.04999999999999999]
TCL: Setting parameter firsttimestep to 0
TCL: Setting parameter alchLambda to 0.35
Info: NONBONDED TABLE R-SQUARED SPACING: 0.0625
Info: NONBONDED TABLE SIZE: 705 POINTS
TCL: Setting parameter alchLambda2 to 0.39999999999999997
Info: NONBONDED TABLE R-SQUARED SPACING: 0.0625
Info: NONBONDED TABLE SIZE: 705 POINTS
TCL: Running for 1500000 steps
ETITLE: TS BOND ANGLE DIHED IMPRP ELECT VDW BOUNDARY MISC KINETIC TOTAL TEMP POTENTIAL TOTALAVG TEMPAVG PRESSURE GPRESSURE VOLUME PRESSAVG GPRESSAVG
ENERGY: 0 1.9876 4.0508 12.1614 0.0000 -10655.9591 1443.0589 0.0000 0.0000 1721.0957 -7473.6047 296.4048 -9194.7004 -7473.6047 296.4048 471.7698 563.4533 29456.7794 471.7698 563.4533
ENERGY: 300000 2.2746 9.1360 10.3764 0.0000 -10673.6060 1456.3151 0.0000 0.0000 1737.4913 -7458.0127 299.2284 -9195.5040 -7428.7834 298.3992 -15.8247 29.7992 30289.1337 -101.4245 -54.8442
ENERGY: 600000 2.8677 6.0624 12.7965 0.0000 -10578.9950 1393.3839 0.0000 0.0000 1741.8036 -7422.0809 299.9711 -9163.8845 -7422.3013 300.3994 -218.7200 -171.7990 29910.7569 42.0093 76.4810
ENERGY: 900000 1.8470 9.9573 12.9811 0.0000 -10663.2730 1485.0822 0.0000 0.0000 1747.8579 -7405.5474 301.0137 -9153.4053 -7434.3879 298.9335 518.6816 507.5111 29940.1850 34.8775 72.2577
ENERGY: 1200000 1.8451 6.0306 12.6937 0.0000 -10600.3343 1381.7811 0.0000 0.0000 1718.9577 -7479.0260 296.0366 -9197.9838 -7432.8469 298.8894 -423.4207 -339.4647 29858.6210 -52.9156 -2.3277
ENERGY: 1500000 1.0003 10.9842 11.3211 0.0000 -10623.5395 1441.9043 0.0000 0.0000 1725.2145 -7433.1152 297.1141 -9158.3297 -7433.9496 299.4729 232.3208 287.3387 29983.3370 -26.1676 26.4524
TCL: Running FEP window   9: Lambda1 0.39999999999999997 Lambda2 0.44999999999999996 [dLambda 0.04999999999999999]
TCL: Setting parameter firsttimestep to 0
TCL: Setting parameter alchLambda to 0.39999999999999997
Info: NONBONDED TABLE R-SQUARED SPACING: 0.0625
Info: NONBONDED TABLE SIZE: 705 POINTS
TCL: Setting parameter alchLambda2 to 0.44999999999999996
Info: NONBONDED TABLE R-SQUARED SPACING: 0.0625
Info: NONBONDED TABLE SIZE: 705 POINTS
TCL: Running for 1500000 steps
ETITLE: TS BOND ANGLE DIHED IMPRP ELECT VDW BOUNDARY MISC KINETIC TOTAL TEMP POTENTIAL TOTALAVG TEMPAVG PRESSURE GPRESSURE VOLUME PRESSAVG GPRESSAVG
ENERGY: 0 1.0003 10.9842 11.3211 0.0000 -10623.5393 1441.9858 0.0000 0.0000 1724.3126 -7433.9353 296.9588 -9158.2479 -7433.9353 296.9588 214.1905 297.9991 29983.3370 214.1905 297.9991
ENERGY: 300000 2.6583 5.3064 11.2988 0.0000 -10605.2399 1425.8916 0.0000 0.0000 1740.0194 -7420.0654 299.6638 -9160.0847 -7414.4410 301.0294 103.3041 156.5603 29891.4570 -54.7096 21.7329
ENERGY: 600000 0.5781 14.8442 13.2269 0.0000 -10630.6884 1415.2148 0.0000 0.0000 1707.2040 -7479.6203 294.0124 -9186.8243 -7426.1145 301.2571 -140.4754 -70.2918 30009.8668 85.8738 156.8768
ENERGY: 900000 1.9813 8.5864 12.6257 0.0000 -10728.0917 1453.7390 0.0000 0.0000 1743.5644 -7507.5948 300.2743 -9251.1592 -7432.7525 301.3644 144.4657 237.8509 29619.8002 -13.7881 61.8877
ENERGY: 1200000 2.5322 8.2026 14.1562 0.0000 -10470.3605 1333.9043 0.0000 0.0000 1701.6719 -7409.8933 293.0596 -9111.5652 -7429.3956 300.9823 -801.0010 -701.4875 30519.0346 -59.6688 19.6915
ENERGY: 1500000 4.2078 8.5141 10.6658 0.0000 -10569.8133 1406.4282 0.0000 0.0000 1808.1258 -7331.8716 311.3930 -9139.9974 -7428.2572 301.1074 -178.4212 -107.0201 30514.4555 53.2449 128.5095
TCL: Running FEP window  10: Lambda1 0.44999999999999996 Lambda2 0.49999999999999994 [dLambda 0.04999999999999999]
TCL: Setting parameter firsttimestep to 0
TCL: Setting parameter alchLambda to 0.44999999999999996
Info: NONBONDED TABLE R-SQUARED SPACING: 0.0625
Info: NONBONDED TABLE SIZE: 705 POINTS
TCL: Setting parameter alchLambda2 to 0.49999999999999994
Info: NONBONDED TABLE R-SQUARED SPACING: 0.0625
Info: NONBONDED TABLE SIZE: 705 POINTS
TCL: Running for 1500000 steps
ETITLE: TS BOND ANGLE DIHED IMPRP ELECT VDW BOUNDARY MISC KINETIC TOTAL TEMP POTENTIAL TOTALAVG TEMPAVG PRESSURE GPRESSURE VOLUME PRESSAVG GPRESSAVG
ENERGY: 0 4.2078 8.5141 10.6658 0.0000 -10569.8134 1407.3261 0.0000 0.0000 1807.2470 -7331.8526 311.2416 -9139.0996 -7331.8526 311.2416 -188.1064 -95.5042 30514.4555 -188.1064 -95.5042
ENERGY: 300000 1.4906 6.2458 11.5884 0.0000 -10637.3098 1430.3782 0.0000 0.0000 1739.1048 -7448.5020 299.5063 -9187.6069 -7421.1621 300.1401 -41.2568 -18.0140 30110.1886 -167.4704 -107.9983
ENERGY: 600000 1.9860 9.3518 12.3035 0.0000 -10794.3615 1557.3233 0.0000 0.0000 1751.0734 -7462.3234 301.5675 -9213.3969 -7419.6824 300.4192 860.5922 957.0901 30255.2158 -58.5214 -7.9726
ENERGY: 900000 3.3034 6.1104 11.2554 0.0000 -10762.5529 1545.8627 0.0000 0.0000 1751.3585 -7444.6625 301.6166 -9196.0210 -7427.7133 300.1702 1033.8753 1077.2177 29916.6485 -37.1370 8.6703
ENERGY: 1200000 2.6303 9.2975 11.3762 0.0000 -10522.4263 1282.8128 0.0000 0.0000 1765.5994 -7450.7100 304.0691 -9216.3094 -7436.1139 299.9923 -1170.3006 -1149.4330 30400.6219 -150.5388 -106.2513
ENERGY: 1500000 1.4048 7.0886 12.6575 0.0000 -10587.3851 1441.6840 0.0000 0.0000 1717.3940 -7407.1560 295.7673 -9124.5501 -7436.7287 300.1262 413.6462 498.0206 29842.5146 -160.8927 -113.5031
TCL: Running FEP window  11: Lambda1 0.49999999999999994 Lambda2 0.5499999999999999 [dLambda 0.04999999999999999]
TCL: Setting parameter firsttimestep to 0
TCL: Setting parameter alchLambda to 0.49999999999999994
Info: NONBONDED TABLE R-SQUARED SPACING: 0.0625
Info: NONBONDED TABLE SIZE: 705 POINTS
TCL: Setting parameter alchLambda2 to 0.5499999999999999
Info: NONBONDED TABLE R-SQUARED SPACING: 0.0625
Info: NONBONDED TABLE SIZE: 705 POINTS
TCL: Running for 1500000 steps
ETITLE: TS BOND ANGLE DIHED IMPRP ELECT VDW BOUNDARY MISC KINETIC TOTAL TEMP POTENTIAL TOTALAVG TEMPAVG PRESSURE GPRESSURE VOLUME PRESSAVG GPRESSAVG
ENERGY: 0 1.4048 7.0886 12.6575 0.0000 -10587.3852 1441.1007 0.0000 0.0000 1716.5321 -7408.6014 295.6188 -9125.1335 -7408.6014 295.6188 417.0406 498.6384 29842.5146 417.0406 498.6384
ENERGY: 300000 4.4954 2.3999 10.8351 0.0000 -10603.1682 1401.9748 0.0000 0.0000 1787.3979 -7396.0650 307.8232 -9183.4629 -7438.9257 300.9394 397.2885 417.6885 29097.5056 -117.2833 -39.6604
ENERGY: 600000 1.7159 4.1492 11.5031 0.0000 -10614.1819 1409.7543 0.0000 0.0000 1714.8129 -7472.2466 295.3228 -9187.0595 -7450.1526 301.6003 -196.6565 -50.4852 30032.3386 -2.0322 72.1628
ENERGY: 900000 2.0327 9.5136 11.8650 0.0000 -10556.1265 1371.0674 0.0000 0.0000 1746.0893 -7415.5586 300.7091 -9161.6478 -7448.5424 301.6486 -393.0281 -334.9427 29872.2601 20.1797 95.0447
ENERGY: 1200000 1.5432 5.1775 11.3317 0.0000 -10599.1901 1403.1043 0.0000 0.0000 1684.2185 -7493.8149 290.0538 -9178.0334 -7450.5086 300.8980 -187.2076 -53.6879 30034.2795 -17.6402 59.9409
ENERGY: 1500000 2.5313 4.2674 10.1766 0.0000 -10407.9333 1296.8376 0.0000 0.0000 1684.5405 -7409.5799 290.1093 -9094.1204 -7445.1093 299.4642 -791.6392 -778.2469 30599.4930 -71.9103 0.5251
TCL: Running FEP window  12: Lambda1 0.5499999999999999 Lambda2 0.6    [dLambda 0.050000000000000044]
TCL: Setting parameter firsttimestep to 0
TCL: Setting parameter alchLambda to 0.5499999999999999
Info: NONBONDED TABLE R-SQUARED SPACING: 0.0625
Info: NONBONDED TABLE SIZE: 705 POINTS
TCL: Setting parameter alchLambda2 to 0.6
Info: NONBONDED TABLE R-SQUARED SPACING: 0.0625
Info: NONBONDED TABLE SIZE: 705 POINTS
TCL: Running for 1500000 steps
ETITLE: TS BOND ANGLE DIHED IMPRP ELECT VDW BOUNDARY MISC KINETIC TOTAL TEMP POTENTIAL TOTALAVG TEMPAVG PRESSURE GPRESSURE VOLUME PRESSAVG GPRESSAVG
ENERGY: 0 2.5313 4.2674 10.1766 0.0000 -10407.4899 1296.4593 0.0000 0.0000 1683.6734 -7410.3818 289.9600 -9094.0553 -7410.3818 289.9600 -861.1992 -772.9653 30599.4930 -861.1992 -772.9653
ENERGY: 300000 1.4554 3.0722 10.1751 0.0000 -10548.3800 1399.5504 0.0000 0.0000 1702.0315 -7432.0954 293.1216 -9134.1269 -7467.0352 294.0013 187.0148 220.7167 29834.2380 -61.6006 6.8877
ENERGY: 600000 4.6399 7.3791 10.8696 0.0000 -10711.9547 1401.1110 0.0000 0.0000 1788.3499 -7499.6052 307.9872 -9287.9551 -7467.7539 298.3547 -347.5794 -271.1070 29908.3861 -9.1864 58.5878
ENERGY: 900000 4.1963 9.6600 10.3738 0.0000 -10597.8759 1406.7240 0.0000 0.0000 1681.5074 -7485.4145 289.5869 -9166.9219 -7475.9027 296.8699 -111.4370 19.6320 29943.8789 69.2244 137.1449
ENERGY: 1200000 1.9199 12.0703 10.3504 0.0000 -10547.0173 1401.1933 0.0000 0.0000 1726.0726 -7395.4108 297.2619 -9121.4834 -7468.4463 297.4264 103.1122 117.2323 30011.0578 17.6176 86.6425
ENERGY: 1500000 4.4478 8.4585 10.7892 0.0000 -10624.8591 1429.3794 0.0000 0.0000 1649.4942 -7522.2900 284.0737 -9171.7842 -7476.2221 296.0605 348.1065 375.7275 29643.1173 33.2321 102.7356
TCL: Running FEP window  13: Lambda1 0.6    Lambda2 0.65   [dLambda 0.050000000000000044]
TCL: Setting parameter firsttimestep to 0
TCL: Setting parameter alchLambda to 0.6
Info: NONBONDED TABLE R-SQUARED SPACING: 0.0625
Info: NONBONDED TABLE SIZE: 705 POINTS
TCL: Setting parameter alchLambda2 to 0.65
Info: NONBONDED TABLE R-SQUARED SPACING: 0.0625
Info: NONBONDED TABLE SIZE: 705 POINTS
TCL: Running for 1500000 steps
ETITLE: TS BOND ANGLE DIHED IMPRP ELECT VDW BOUNDARY MISC KINETIC TOTAL TEMP POTENTIAL TOTALAVG TEMPAVG PRESSURE GPRESSURE VOLUME PRESSAVG GPRESSAVG
ENERGY: 0 4.4478 8.4585 10.7892 0.0000 -10624.4440 1428.8783 0.0000 0.0000 1648.6092 -7523.2611 283.9213 -9171.8703 -7523.2611 283.9213 300.1138 378.5715 29643.1173 300.1138 378.5715
ENERGY: 300000 1.8220 6.4682 13.0635 0.0000 -10524.2773 1363.8193 0.0000 0.0000 1783.7328 -7355.3715 307.1921 -9139.1044 -7458.5437 296.8955 -267.8991 -161.0443 30250.0031 -175.8905 -116.8386
ENERGY: 600000 2.9016 7.7269 10.2108 0.0000 -10634.9633 1411.3477 0.0000 0.0000 1755.5418 -7447.2345 302.3370 -9202.7763 -7438.6403 299.4334 52.6499 197.8312 29607.0881 -98.0323 -8.7235
ENERGY: 900000 3.4875 9.3846 10.1745 0.0000 -10676.0184 1488.7735 0.0000 0.0000 1696.7206 -7467.4778 292.2069 -9164.1983 -7443.5820 298.2931 621.7942 686.7750 30076.9324 24.6408 100.5096
ENERGY: 1200000 3.0052 12.1937 11.6074 0.0000 -10599.8581 1415.2084 0.0000 0.0000 1691.5497 -7466.2937 291.3164 -9157.8434 -7441.3819 297.9870 -145.6602 -96.0244 30011.0435 12.7050 81.7553
ENERGY: 1500000 1.5575 8.9518 13.1296 0.0000 -10650.3041 1429.6116 0.0000 0.0000 1767.6265 -7429.4271 304.4182 -9197.0537 -7445.1693 297.8885 45.3540 154.7059 29965.1010 25.1341 97.7490
TCL: Running FEP window  14: Lambda1 0.65   Lambda2 0.7000000000000001 [dLambda 0.050000000000000044]
TCL: Setting parameter firsttimestep to 0
TCL: Setting parameter alchLambda to 0.65
Info: NONBONDED TABLE R-SQUARED SPACING: 0.0625
Info: NONBONDED TABLE SIZE: 705 POINTS
TCL: Setting parameter alchLambda2 to 0.7000000000000001
Info: NONBONDED TABLE R-SQUARED SPACING: 0.0625
Info: NONBONDED TABLE SIZE: 705 POINTS
TCL: Running for 1500000 steps
ETITLE: TS BOND ANGLE DIHED IMPRP ELECT VDW BOUNDARY MISC KINETIC TOTAL TEMP POTENTIAL TOTALAVG TEMPAVG PRESSURE GPRESSURE VOLUME PRESSAVG GPRESSAVG
ENERGY: 0 1.5575 8.9518 13.1296 0.0000 -10652.1815 1430.0318 0.0000 0.0000 1766.7798 -7431.7310 304.2724 -9198.5108 -7431.7310 304.2724 75.2319 159.9750 29965.1010 75.2319 159.9750
ENERGY: 300000 2.2093 4.4726 11.9833 0.0000 -10577.3942 1397.7224 0.0000 0.0000 1773.7620 -7387.2447 305.4749 -9161.0067 -7431.8712 301.0161 -102.6149 2.0947 29920.2152 -88.1770 -20.6535
ENERGY: 600000 1.7900 4.6052 10.3375 0.0000 -10618.7885 1417.3964 0.0000 0.0000 1754.7730 -7429.8864 302.2046 -9184.6594 -7438.3160 299.8528 78.7980 217.0149 29720.2529 -51.1278 18.7216
ENERGY: 900000 2.5537 6.3186 11.0638 0.0000 -10570.7770 1401.4513 0.0000 0.0000 1734.3236 -7415.0661 298.6829 -9149.3897 -7431.9610 299.4886 -93.0578 -35.3673 29928.9872 -17.2288 48.7278
ENERGY: 1200000 2.8394 6.5623 14.9709 0.0000 -10602.5611 1415.0210 0.0000 0.0000 1735.9358 -7427.2317 298.9605 -9163.1676 -7434.6798 299.6572 165.1816 205.9368 29777.6490 -25.7399 40.7751
ENERGY: 1500000 4.9515 3.6106 10.5000 0.0000 -10651.1814 1436.6061 0.0000 0.0000 1783.7243 -7411.7890 307.1906 -9195.5133 -7431.2599 300.3036 60.9482 165.9691 30256.7083 -11.1410 53.6240
TCL: Running FEP window  15: Lambda1 0.7000000000000001 Lambda2 0.7500000000000001 [dLambda 0.050000000000000044]
TCL: Setting parameter firsttimestep to 0
TCL: Setting parameter alchLambda to 0.7000000000000001
Info: NONBONDED TABLE R-SQUARED SPACING: 0.0625
Info: NONBONDED TABLE SIZE: 705 POINTS
TCL: Setting parameter alchLambda2 to 0.7500000000000001
Info: NONBONDED TABLE R-SQUARED SPACING: 0.0625
Info: NONBONDED TABLE SIZE: 705 POINTS
TCL: Running for 1500000 steps
ETITLE: TS BOND ANGLE DIHED IMPRP ELECT VDW BOUNDARY MISC KINETIC TOTAL TEMP POTENTIAL TOTALAVG TEMPAVG PRESSURE GPRESSURE VOLUME PRESSAVG GPRESSAVG
ENERGY: 0 4.9515 3.6106 10.5000 0.0000 -10651.6956 1436.6074 0.0000 0.0000 1782.8646 -7413.1617 307.0425 -9196.0263 -7413.1617 307.0425 87.4347 174.3136 30256.7083 87.4347 174.3136
ENERGY: 300000 4.7145 7.3906 10.6416 0.0000 -10684.8934 1467.2059 0.0000 0.0000 1696.5663 -7498.3744 292.1804 -9194.9407 -7496.2145 297.1942 506.8859 674.7808 29735.4945 492.6464 572.0077
ENERGY: 600000 2.9813 5.7550 10.5155 0.0000 -10589.1403 1418.8291 0.0000 0.0000 1717.0797 -7433.9797 295.7131 -9151.0594 -7477.6067 297.9300 -46.8960 84.3311 29942.4430 305.6565 387.6949
ENERGY: 900000 2.0344 7.0055 10.6987 0.0000 -10730.8032 1464.6998 0.0000 0.0000 1740.9502 -7505.4147 299.8241 -9246.3649 -7483.0238 298.2757 253.5618 293.4843 29865.8508 338.6567 419.5043
ENERGY: 1200000 2.9647 3.4921 9.8229 0.0000 -10535.8747 1373.8283 0.0000 0.0000 1684.7633 -7461.0034 290.1477 -9145.7667 -7482.7056 298.0227 -412.9031 -336.4058 30003.4937 215.3983 292.7074
ENERGY: 1500000 2.1318 5.5200 10.1951 0.0000 -10582.0073 1353.3034 0.0000 0.0000 1728.9664 -7481.8906 297.7603 -9210.8570 -7469.9175 298.6102 -525.0381 -473.4627 29827.8902 222.9969 295.2536
TCL: Running FEP window  16: Lambda1 0.7500000000000001 Lambda2 0.8000000000000002 [dLambda 0.050000000000000044]
TCL: Setting parameter firsttimestep to 0
TCL: Setting parameter alchLambda to 0.7500000000000001
Info: NONBONDED TABLE R-SQUARED SPACING: 0.0625
Info: NONBONDED TABLE SIZE: 705 POINTS
TCL: Setting parameter alchLambda2 to 0.8000000000000002
Info: NONBONDED TABLE R-SQUARED SPACING: 0.0625
Info: NONBONDED TABLE SIZE: 705 POINTS
TCL: Running for 1500000 steps
ETITLE: TS BOND ANGLE DIHED IMPRP ELECT VDW BOUNDARY MISC KINETIC TOTAL TEMP POTENTIAL TOTALAVG TEMPAVG PRESSURE GPRESSURE VOLUME PRESSAVG GPRESSAVG
ENERGY: 0 2.1318 5.5200 10.1951 0.0000 -10584.4531 1353.4947 0.0000 0.0000 1728.1172 -7484.9943 297.6140 -9213.1115 -7484.9943 297.6140 -539.5199 -467.9735 29827.8902 -539.5199 -467.9735
ENERGY: 300000 0.9054 7.0318 11.0954 0.0000 -10549.6076 1357.1651 0.0000 0.0000 1732.3965 -7441.0134 298.3510 -9173.4099 -7455.4716 298.9699 -453.5508 -410.9807 30049.1389 -520.1081 -471.7829
ENERGY: 600000 1.9881 8.9484 13.0427 0.0000 -10520.0276 1356.1377 0.0000 0.0000 1783.4583 -7356.4525 307.1448 -9139.9108 -7425.5147 302.2016 -527.2125 -418.2626 29983.9270 -339.3141 -297.9326
ENERGY: 900000 1.2819 6.2020 10.7030 0.0000 -10606.2381 1382.7260 0.0000 0.0000 1721.5037 -7483.8214 296.4750 -9205.3251 -7443.6768 300.9874 -539.0334 -462.3420 30268.5026 -364.9253 -309.8925
ENERGY: 1200000 2.7990 7.7438 11.7024 0.0000 -10773.0224 1565.2194 0.0000 0.0000 1770.4660 -7415.0919 304.9073 -9185.5579 -7441.4698 301.4558 1171.6046 1194.5900 29922.3217 -96.9292 -35.4434
ENERGY: 1500000 3.1402 5.7939 13.3564 0.0000 -10658.3069 1415.1509 0.0000 0.0000 1727.5416 -7493.3239 297.5149 -9220.8655 -7438.1974 301.3961 87.7240 191.1177 29267.3224 -78.9349 -21.2699
TCL: Running FEP window  17: Lambda1 0.8000000000000002 Lambda2 0.8500000000000002 [dLambda 0.050000000000000044]
TCL: Setting parameter firsttimestep to 0
TCL: Setting parameter alchLambda to 0.8000000000000002
Info: NONBONDED TABLE R-SQUARED SPACING: 0.0625
Info: NONBONDED TABLE SIZE: 705 POINTS
TCL: Setting parameter alchLambda2 to 0.8500000000000002
Info: NONBONDED TABLE R-SQUARED SPACING: 0.0625
Info: NONBONDED TABLE SIZE: 705 POINTS
TCL: Running for 1500000 steps
ETITLE: TS BOND ANGLE DIHED IMPRP ELECT VDW BOUNDARY MISC KINETIC TOTAL TEMP POTENTIAL TOTALAVG TEMPAVG PRESSURE GPRESSURE VOLUME PRESSAVG GPRESSAVG
ENERGY: 0 3.1402 5.7939 13.3564 0.0000 -10659.9351 1415.2238 0.0000 0.0000 1726.6926 -7495.7282 297.3687 -9222.4208 -7495.7282 297.3687 111.5811 199.7328 29267.3224 111.5811 199.7328
ENERGY: 300000 3.3523 8.8095 10.9808 0.0000 -10516.6108 1332.4437 0.0000 0.0000 1802.2850 -7358.7395 310.3871 -9161.0245 -7414.6134 305.8946 -549.6507 -477.7148 30217.6252 6.5608 38.5835
ENERGY: 600000 1.3870 5.9720 11.9433 0.0000 -10586.7670 1374.6447 0.0000 0.0000 1701.5566 -7491.2634 293.0398 -9192.8200 -7430.8062 301.7583 -122.3935 -84.9853 29657.2872 5.2572 26.1514
ENERGY: 900000 1.6959 7.0876 12.1949 0.0000 -10483.4643 1361.3450 0.0000 0.0000 1764.9940 -7336.1468 303.9649 -9101.1409 -7427.0202 302.6888 -97.0525 -74.3206 30274.4306 -112.9945 -89.5567
ENERGY: 1200000 2.4382 14.2735 10.4418 0.0000 -10615.1643 1363.3813 0.0000 0.0000 1723.8414 -7500.7880 296.8776 -9224.6295 -7435.2718 302.0412 -693.7475 -573.7126 30232.1835 -164.8258 -117.1072
ENERGY: 1500000 2.4289 6.2094 10.9878 0.0000 -10627.9578 1415.2793 0.0000 0.0000 1746.5768 -7446.4755 300.7931 -9193.0524 -7442.2110 301.3004 -127.6490 -110.1339 30109.7916 -242.5585 -197.3929
TCL: Running FEP window  18: Lambda1 0.8500000000000002 Lambda2 0.9000000000000002 [dLambda 0.050000000000000044]
TCL: Setting parameter firsttimestep to 0
TCL: Setting parameter alchLambda to 0.8500000000000002
Info: NONBONDED TABLE R-SQUARED SPACING: 0.0625
Info: NONBONDED TABLE SIZE: 705 POINTS
TCL: Setting parameter alchLambda2 to 0.9000000000000002
Info: NONBONDED TABLE R-SQUARED SPACING: 0.0625
Info: NONBONDED TABLE SIZE: 705 POINTS
TCL: Running for 1500000 steps
ETITLE: TS BOND ANGLE DIHED IMPRP ELECT VDW BOUNDARY MISC KINETIC TOTAL TEMP POTENTIAL TOTALAVG TEMPAVG PRESSURE GPRESSURE VOLUME PRESSAVG GPRESSAVG
ENERGY: 0 2.4289 6.2094 10.9878 0.0000 -10630.1822 1416.0448 0.0000 0.0000 1745.6916 -7448.8197 300.6406 -9194.5113 -7448.8197 300.6406 -157.4839 -92.2474 30109.7916 -157.4839 -92.2474
ENERGY: 300000 1.0912 4.0416 11.0463 0.0000 -10494.6299 1348.4859 0.0000 0.0000 1772.0892 -7357.8758 305.1868 -9129.9649 -7431.3217 302.0494 -241.4219 -169.1598 30044.6311 -83.2252 -32.8389
ENERGY: 600000 2.2100 3.6908 11.3811 0.0000 -10643.0845 1424.9695 0.0000 0.0000 1738.5546 -7462.2784 299.4115 -9200.8329 -7460.0984 299.7790 192.3844 264.5786 29830.0853 -115.2858 -76.9618
ENERGY: 900000 1.9236 4.4070 10.9895 0.0000 -10580.8166 1397.3877 0.0000 0.0000 1736.4282 -7429.6806 299.0453 -9166.1088 -7449.3018 300.6111 70.8160 108.7267 29586.2448 -77.5402 -39.7082
ENERGY: 1200000 1.6159 5.6339 9.7449 0.0000 -10621.8198 1442.5084 0.0000 0.0000 1736.5903 -7425.7265 299.0732 -9162.3168 -7448.2183 300.6903 334.4085 456.2345 29937.2253 -145.6688 -101.2159
ENERGY: 1500000 0.5428 7.8440 9.8891 0.0000 -10705.3983 1520.5279 0.0000 0.0000 1741.9676 -7424.6269 299.9993 -9166.5945 -7449.7171 300.4829 809.5961 864.4577 30059.9700 -144.3798 -95.7406
TCL: Running FEP window  19: Lambda1 0.9000000000000002 Lambda2 0.9500000000000003 [dLambda 0.050000000000000044]
TCL: Setting parameter firsttimestep to 0
TCL: Setting parameter alchLambda to 0.9000000000000002
Info: NONBONDED TABLE R-SQUARED SPACING: 0.0625
Info: NONBONDED TABLE SIZE: 705 POINTS
TCL: Setting parameter alchLambda2 to 0.9500000000000003
Info: NONBONDED TABLE R-SQUARED SPACING: 0.0625
Info: NONBONDED TABLE SIZE: 705 POINTS
TCL: Running for 1500000 steps
ETITLE: TS BOND ANGLE DIHED IMPRP ELECT VDW BOUNDARY MISC KINETIC TOTAL TEMP POTENTIAL TOTALAVG TEMPAVG PRESSURE GPRESSURE VOLUME PRESSAVG GPRESSAVG
ENERGY: 0 0.5428 7.8440 9.8891 0.0000 -10707.6781 1521.7913 0.0000 0.0000 1741.0594 -7426.5515 299.8429 -9167.6109 -7426.5515 299.8429 810.2755 885.9282 30059.9700 810.2755 885.9282
ENERGY: 300000 1.9161 6.6864 10.7293 0.0000 -10727.0821 1470.8481 0.0000 0.0000 1775.7413 -7461.1607 305.8158 -9236.9020 -7436.9266 302.6922 276.4325 338.4466 29968.0240 349.8455 415.0796
ENERGY: 600000 2.1304 9.0660 11.5284 0.0000 -10899.8828 1675.8262 0.0000 0.0000 1753.3826 -7447.9492 301.9652 -9201.3319 -7442.8769 301.7619 1978.2953 2035.3529 29935.5927 399.2178 468.6588
ENERGY: 900000 1.3519 11.2314 13.4076 0.0000 -10651.0619 1450.4961 0.0000 0.0000 1803.1246 -7371.4503 310.5317 -9174.5749 -7436.3916 302.5331 467.0177 498.6125 30039.7115 254.1212 317.7377
ENERGY: 1200000 1.8654 10.0369 10.0056 0.0000 -10644.3668 1386.2415 0.0000 0.0000 1721.7131 -7514.5043 296.5111 -9236.2174 -7444.8318 301.1846 -356.5445 -223.9252 30068.7997 84.9225 153.3052
ENERGY: 1500000 1.4593 4.4459 12.5294 0.0000 -10611.5316 1401.5937 0.0000 0.0000 1748.3639 -7443.1393 301.1009 -9191.5032 -7449.4111 300.7401 -254.2066 -167.1191 30491.7600 -10.4771 54.8232
TCL: Running FEP window  20: Lambda1 0.9500000000000003 Lambda2 1.0    [dLambda 0.04999999999999971]
TCL: Setting parameter firsttimestep to 0
TCL: Setting parameter alchLambda to 0.9500000000000003
Info: NONBONDED TABLE R-SQUARED SPACING: 0.0625
Info: NONBONDED TABLE SIZE: 705 POINTS
TCL: Setting parameter alchLambda2 to 1.0
Info: NONBONDED TABLE R-SQUARED SPACING: 0.0625
Info: NONBONDED TABLE SIZE: 705 POINTS
TCL: Running for 1500000 steps
ETITLE: TS BOND ANGLE DIHED IMPRP ELECT VDW BOUNDARY MISC KINETIC TOTAL TEMP POTENTIAL TOTALAVG TEMPAVG PRESSURE GPRESSURE VOLUME PRESSAVG GPRESSAVG
ENERGY: 0 1.4593 4.4459 12.5294 0.0000 -10614.5648 1402.5047 0.0000 0.0000 1747.4999 -7446.1255 300.9521 -9193.6255 -7446.1255 300.9521 -215.7796 -146.8029 30491.7600 -215.7796 -146.8029
ENERGY: 300000 4.8297 6.6280 11.0428 0.0000 -10582.2995 1356.9222 0.0000 0.0000 1794.1061 -7408.7708 308.9785 -9202.8769 -7454.8999 303.5193 -662.7036 -612.5422 30297.0630 -119.8003 -59.3102
ENERGY: 600000 2.9636 11.0180 11.4824 0.0000 -10635.0524 1374.2675 0.0000 0.0000 1772.4296 -7462.8914 305.2454 -9235.3209 -7447.6558 303.5803 -548.9814 -489.6448 30011.2142 -232.5974 -174.3467
ENERGY: 900000 1.6910 8.3876 12.1251 0.0000 -10721.7022 1454.3355 0.0000 0.0000 1776.9177 -7468.2453 306.0184 -9245.1630 -7470.5853 301.4474 148.6679 274.1184 30121.7408 -22.0797 37.8714
ENERGY: 1200000 2.3041 7.9510 11.9396 0.0000 -10629.2464 1388.8304 0.0000 0.0000 1768.6434 -7449.5780 304.5934 -9218.2214 -7463.4960 302.1792 -244.1706 -178.6940 29971.7053 42.2523 95.6711
ENERGY: 1500000 2.3390 5.5382 10.8137 0.0000 -10596.5824 1406.7571 0.0000 0.0000 1673.0017 -7498.1327 288.1221 -9171.1345 -7463.3189 301.0341 -131.5347 -99.2961 30195.8130 10.8560 64.0662
TCL: Exiting due to exit command.
