Info: SIMULATION PARAMETERS:
Info: TIMESTEP               2
Info: NUMBER OF STEPS        0
Info: STEPS PER CYCLE        10
Info: PERIODIC CELL BASIS 1  31.7747 0 0
Info: PERIODIC CELL BASIS 2  0 29.3999 0
Info: PERIODIC CELL BASIS 3  0 0 32.8249
Info: PERIODIC CELL CENTER   0 0 0
Info: WRAPPING WATERS AROUND PERIODIC BOUNDARIES ON OUTPUT.
Info: WRAPPING ALL CLUSTERS AROUND PERIODIC BOUNDARIES ON OUTPUT.
Info: FIRST LDB TIMESTEP     50
Info: LAST LDB TIMESTEP     -1
Info: HOM BACKGROUND SCALING 1
Info: PME BACKGROUND SCALING 1
Info: MIN ATOMS PER PATCH    40
Info: EMPTY PATCH LOAD       40 ATOMS
Info: VELOCITY FILE          mobley_6195751_equil.vel
Info: CENTER OF MASS MOVING INITIALLY? NO
Info: DIELECTRIC             1
Info: EXCLUDE                SCALED ONE-FOUR
Info: 1-4 ELECTROSTATICS SCALED BY 0.833333
Info: MODIFIED 1-4 VDW PARAMETERS WILL BE USED
Info: DCD FILENAME           mobley_6195751_prod.dcd
Info: DCD FREQUENCY          100000
Info: DCD FIRST STEP         100000
Info: DCD FILE WILL CONTAIN UNIT CELL DATA
Info: XST FILENAME           mobley_6195751_prod.xst
Info: XST FREQUENCY          100000
Info: NO VELOCITY DCD OUTPUT
Info: NO FORCE DCD OUTPUT
Info: OUTPUT FILENAME        mobley_6195751_prod
Info: BINARY OUTPUT FILES WILL BE USED
Info: RESTART FILENAME       mobley_6195751_prod.restart
Info: RESTART FREQUENCY      100000
Info: BINARY RESTART FILES WILL BE USED
Info: CUTOFF                 9
Info: PAIRLIST DISTANCE      11
Info: PAIRLIST SHRINK RATE   0.01
Info: PAIRLIST GROW RATE     0.01
Info: PAIRLIST TRIGGER       0.3
Info: PAIRLISTS PER CYCLE    2
Info: PAIRLISTS ENABLED
Info: MARGIN                 2
Info: HYDROGEN GROUP CUTOFF  2.5
Info: PATCH DIMENSION        15.5
Info: ENERGY OUTPUT STEPS    100000
Info: ENERGY EVALUATION STEPS    100000
Info: OUTPUT ENERGY PRECISION 4
Info: CROSSTERM ENERGY INCLUDED IN DIHEDRAL
Info: TIMING OUTPUT STEPS    1000000
Info: PRESSURE OUTPUT STEPS  100000
Info: ALCHEMICAL FEP ON
Info: FEP CURRENT LAMBDA VALUE     1
Info: FEP COMPARISON LAMBDA VALUE  0.95
Info: FEP INTRA-ALCHEMICAL NON-BONDED INTERACTIONS WILL BE RETAINED
Info: FEP INTRA-ALCHEMICAL BONDED INTERACTIONS WILL BE RETAINED
Info: FEP VDW SHIFTING COEFFICIENT 5
Info: FEP ELEC. ACTIVE FOR ANNIHILATED PARTICLES BETWEEN LAMBDA = 0 AND LAMBDA = 0.5
Info: FEP ELEC. ACTIVE FOR EXNIHILATED PARTICLES BETWEEN LAMBDA = 0.5 AND LAMBDA = 1
Info: FEP VDW ACTIVE FOR ANNIHILATED PARTICLES BETWEEN LAMBDA = 0 AND LAMBDA = 1
Info: FEP VDW ACTIVE FOR EXNIHILATED PARTICLES BETWEEN LAMBDA = 0 AND LAMBDA = 1
Info: FEP BOND ACTIVE FOR ANNIHILATED PARTICLES BETWEEN LAMBDA = 1 AND LAMBDA = 1
Info: FEP BOND ACTIVE FOR EXNIHILATED PARTICLES BETWEEN LAMBDA = 0 AND LAMBDA = 0
Info: LANGEVIN DYNAMICS ACTIVE
Info: LANGEVIN TEMPERATURE   300
Info: LANGEVIN USING BBK INTEGRATOR
Info: LANGEVIN DAMPING COEFFICIENT IS 1 INVERSE PS
Info: LANGEVIN DYNAMICS APPLIED TO HYDROGENS
Info: LANGEVIN PISTON PRESSURE CONTROL ACTIVE
Info:        TARGET PRESSURE IS 1.01325 BAR
Info:     OSCILLATION PERIOD IS 50 FS
Info:             DECAY TIME IS 25 FS
Info:     PISTON TEMPERATURE IS 300 K
Info:       PRESSURE CONTROL IS GROUP-BASED
Info:    INITIAL STRAIN RATE IS 0.000828277 0.000828277 0.000828277
Info:       CELL FLUCTUATION IS ISOTROPIC
Info: PARTICLE MESH EWALD (PME) ACTIVE
Info: PME TOLERANCE               1e-06
Info: PME EWALD COEFFICIENT       0.348832
Info: PME INTERPOLATION ORDER     4
Info: PME GRID DIMENSIONS         32 32 36
Info: PME MAXIMUM GRID SPACING    1
Info: PME CALCULATION WILL BE PERFORMED ON GPU
Info: FULL ELECTROSTATIC EVALUATION FREQUENCY      2
Info: USING VERLET I (r-RESPA) MTS SCHEME.
Info: C1 SPLITTING OF LONG RANGE ELECTROSTATICS
Info: PLACING ATOMS IN PATCHES BY HYDROGEN GROUPS
Info: RIGID BONDS TO HYDROGEN : ALL
Info:         ERROR TOLERANCE : 1e-08
Info:          MAX ITERATIONS : 100
Info: RIGID WATER USING SETTLE ALGORITHM
Info: RANDOM NUMBER SEED     1743940645
Info: USE HYDROGEN BONDS?    NO
Info: Using AMBER format force field!
Info: AMBER PARM FILE        mobley_6195751.prmtop
Info: COORDINATE PDB         mobley_6195751.pdb
Info: Exclusions will be read from PARM file!
Info: SCNB (VDW SCALING)     2
Info: USING ARITHMETIC MEAN TO COMBINE L-J SIGMA PARAMETERS
Info: BINARY COORDINATES     mobley_6195751_equil.coor
Info: SUMMARY OF PARAMETERS:
Info: 12 BONDS
Info: 12 ANGLES
Info:   12 HARMONIC
Info:   0 COSINE-BASED
Info: 6 DIHEDRAL
Info: 0 IMPROPER
Info: 0 CROSSTERM
Info: 0 VDW
Info: 55 VDW_PAIRS
Info: 0 NBTHOLE_PAIRS
Info: To read alchdata from file: mobley_6195751.pdb
Info: To read alchflag data from column: 5
Info: STRUCTURE SUMMARY:
Info: 2951 ATOMS
Info: 2951 BONDS
Info: 36 ANGLES
Info: 47 DIHEDRALS
Info: 0 IMPROPERS
Info: 0 CROSSTERMS
Info: 3024 EXCLUSIONS
Info: 2936 RIGID BONDS
Info: ALCH: 0 ATOMS TO DISAPPEAR IN FINAL STATE
Info: ALCH: 23 ATOMS TO APPEAR IN FINAL STATE
Info: 5917 DEGREES OF FREEDOM
Info: 991 HYDROGEN GROUPS
Info: 4 ATOMS IN LARGEST HYDROGEN GROUP
Info: 991 MIGRATION GROUPS
Info: 4 ATOMS IN LARGEST MIGRATION GROUP
Info: TOTAL MASS = 17834.7 amu
Info: TOTAL CHARGE = -3.1665e-08 e
Info: MASS DENSITY = 0.965813 g/cm^3
Info: ATOM DENSITY = 0.096236 atoms/A^3
Info: ADDED 0 IMPLICIT EXCLUSIONS
Info: NONBONDED TABLE R-SQUARED SPACING: 0.0625
Info: NONBONDED TABLE SIZE: 705 POINTS
Info: REMOVING COM VELOCITY 0.0625465 -0.123329 0.11108
Info: Use 3D box decompostion in PME FFT.
Info: Updated CUDA force table with 4096 elements.
Info: Updated CUDA LJ table with 10 x 10 elements.
Info: Found 26 unique exclusion lists needing 72 bytes
TCL: Running for 1500000 steps
ETITLE: TS BOND ANGLE DIHED IMPRP ELECT VDW BOUNDARY MISC KINETIC TOTAL TEMP POTENTIAL TOTALAVG TEMPAVG PRESSURE GPRESSURE VOLUME PRESSAVG GPRESSAVG
ENERGY: 0 3.8426 5.2368 8.2089 0.0000 -10518.2500 1401.5481 0.0000 0.0000 1773.9018 -7325.5119 301.7299 -9099.4137 -7325.5119 301.7299 36.7203 120.4642 30664.1869 36.7203 120.4642
ENERGY: 300000 10.1788 9.5154 12.9246 0.0000 -10597.4689 1318.4341 0.0000 0.0000 1691.6003 -7554.8157 287.7310 -9246.4160 -7474.4404 299.1493 -1305.6600 -1159.0841 30999.5023 -138.1269 -32.6444
ENERGY: 600000 7.0815 10.7734 10.5550 0.0000 -10595.9526 1383.7036 0.0000 0.0000 1752.1257 -7431.7134 298.0259 -9183.8390 -7460.0444 298.3274 -49.2582 -22.5357 30025.9774 -203.1403 -113.7629
ENERGY: 900000 7.9365 5.6359 13.2157 0.0000 -10593.9545 1317.2103 0.0000 0.0000 1775.5080 -7474.4480 302.0031 -9249.9561 -7447.2295 298.8670 -1160.2520 -1068.3261 30521.4295 -281.0801 -199.0476
ENERGY: 1200000 5.2707 9.0043 11.2969 0.0000 -10603.5828 1366.8776 0.0000 0.0000 1761.5420 -7449.5914 299.6276 -9211.1334 -7446.4606 298.6251 -443.6301 -448.3445 30117.9143 -315.8621 -240.7178
ENERGY: 1500000 5.5425 7.4758 12.2741 0.0000 -10627.9369 1401.3625 0.0000 0.0000 1787.9103 -7413.3716 304.1127 -9201.2819 -7438.5415 299.5126 -269.7037 -221.2302 30769.1876 -300.3482 -227.9621
TCL: Running FEP window   2: Lambda1 0.95   Lambda2 0.8999999999999999 [dLambda -0.050000000000000044]
TCL: Setting parameter firsttimestep to 0
TCL: Setting parameter alchLambda to 0.95
Info: NONBONDED TABLE R-SQUARED SPACING: 0.0625
Info: NONBONDED TABLE SIZE: 705 POINTS
TCL: Setting parameter alchLambda2 to 0.8999999999999999
Info: NONBONDED TABLE R-SQUARED SPACING: 0.0625
Info: NONBONDED TABLE SIZE: 705 POINTS
TCL: Running for 1500000 steps
ETITLE: TS BOND ANGLE DIHED IMPRP ELECT VDW BOUNDARY MISC KINETIC TOTAL TEMP POTENTIAL TOTALAVG TEMPAVG PRESSURE GPRESSURE VOLUME PRESSAVG GPRESSAVG
ENERGY: 0 5.5426 7.4758 12.2741 0.0000 -10624.4824 1399.7734 0.0000 0.0000 1787.0143 -7412.4022 303.9603 -9199.4165 -7412.4022 303.9603 -347.2254 -252.1527 30769.1876 -347.2254 -252.1527
ENERGY: 300000 8.8428 4.5459 12.3740 0.0000 -10520.5365 1291.8251 0.0000 0.0000 1730.8542 -7472.0944 294.4078 -9202.9486 -7450.3674 299.1796 -1405.0016 -1364.1334 30983.1484 -888.0953 -811.0481
ENERGY: 600000 6.2268 8.7327 15.2768 0.0000 -10729.0004 1459.3984 0.0000 0.0000 1742.9174 -7496.4483 296.4597 -9239.3657 -7444.9744 300.3547 257.0709 291.5248 30670.4182 -441.9329 -378.0954
ENERGY: 900000 4.6534 8.4168 11.7470 0.0000 -10608.1218 1434.0974 0.0000 0.0000 1752.1414 -7397.0658 298.0286 -9149.2072 -7428.5287 300.6136 58.1485 103.3393 30762.8438 -477.4688 -417.0395
ENERGY: 1200000 7.0703 7.8716 11.1256 0.0000 -10663.4592 1455.2673 0.0000 0.0000 1776.0543 -7406.0702 302.0961 -9182.1245 -7435.1022 299.9405 427.9855 461.3694 30289.9048 -351.1766 -298.4740
ENERGY: 1500000 4.4893 11.2901 10.3619 0.0000 -10618.6975 1356.5275 0.0000 0.0000 1791.1259 -7444.9028 304.6596 -9236.0287 -7446.2593 299.2401 -770.8381 -752.0257 30833.2296 -269.7579 -220.0419
TCL: Running FEP window   3: Lambda1 0.8999999999999999 Lambda2 0.8499999999999999 [dLambda -0.050000000000000044]
TCL: Setting parameter firsttimestep to 0
TCL: Setting parameter alchLambda to 0.8999999999999999
Info: NONBONDED TABLE R-SQUARED SPACING: 0.0625
Info: NONBONDED TABLE SIZE: 705 POINTS
TCL: Setting parameter alchLambda2 to 0.8499999999999999
Info: NONBONDED TABLE R-SQUARED SPACING: 0.0625
Info: NONBONDED TABLE SIZE: 705 POINTS
TCL: Running for 1500000 steps
ETITLE: TS BOND ANGLE DIHED IMPRP ELECT VDW BOUNDARY MISC KINETIC TOTAL TEMP POTENTIAL TOTALAVG TEMPAVG PRESSURE GPRESSURE VOLUME PRESSAVG GPRESSAVG
ENERGY: 0 4.4893 11.2901 10.3619 0.0000 -10616.5683 1357.2989 0.0000 0.0000 1790.2338 -7442.8943 304.5079 -9233.1282 -7442.8943 304.5079 -836.1683 -758.6934 30833.2296 -836.1683 -758.6934
ENERGY: 300000 8.9127 9.9822 12.2628 0.0000 -10719.6784 1488.3711 0.0000 0.0000 1758.1356 -7442.0140 299.0482 -9200.1496 -7437.8090 299.5211 628.5056 717.4009 30065.1888 -89.2230 -5.4299
ENERGY: 600000 3.0612 4.9345 13.4325 0.0000 -10638.7068 1452.5470 0.0000 0.0000 1825.5868 -7339.1448 310.5212 -9164.7316 -7421.8245 302.5167 407.5259 464.3646 30652.1734 54.9825 122.4745
ENERGY: 900000 5.4448 5.7465 11.4285 0.0000 -10691.6593 1452.4312 0.0000 0.0000 1815.5913 -7401.0171 308.8211 -9216.6083 -7421.1536 302.4803 -93.2650 -32.7469 30703.0767 65.9120 129.2527
ENERGY: 1200000 1.9674 8.7835 14.4095 0.0000 -10619.6647 1374.9750 0.0000 0.0000 1738.8107 -7480.7185 295.7612 -9219.5292 -7426.1783 301.6283 -414.8561 -356.5044 30152.5199 29.5194 92.2023
ENERGY: 1500000 2.4269 7.5827 15.9751 0.0000 -10821.2454 1531.0642 0.0000 0.0000 1746.2006 -7517.9958 297.0181 -9264.1964 -7433.2929 301.5147 690.8076 735.7730 30361.4922 48.6118 108.7974
TCL: Running FEP window   4: Lambda1 0.8499999999999999 Lambda2 0.7999999999999998 [dLambda -0.050000000000000044]
TCL: Setting parameter firsttimestep to 0
TCL: Setting parameter alchLambda to 0.8499999999999999
Info: NONBONDED TABLE R-SQUARED SPACING: 0.0625
Info: NONBONDED TABLE SIZE: 705 POINTS
TCL: Setting parameter alchLambda2 to 0.7999999999999998
Info: NONBONDED TABLE R-SQUARED SPACING: 0.0625
Info: NONBONDED TABLE SIZE: 705 POINTS
TCL: Running for 1500000 steps
ETITLE: TS BOND ANGLE DIHED IMPRP ELECT VDW BOUNDARY MISC KINETIC TOTAL TEMP POTENTIAL TOTALAVG TEMPAVG PRESSURE GPRESSURE VOLUME PRESSAVG GPRESSAVG
ENERGY: 0 2.4269 7.5827 15.9751 0.0000 -10817.9342 1528.8886 0.0000 0.0000 1745.3362 -7517.7246 296.8711 -9263.0608 -7517.7246 296.8711 618.9908 695.2384 30361.4922 618.9908 695.2384
ENERGY: 300000 3.0781 8.9037 14.8101 0.0000 -10650.8233 1422.5495 0.0000 0.0000 1824.4324 -7377.0495 310.3249 -9201.4819 -7439.0408 302.1989 170.0715 245.8219 30233.0374 372.7126 456.4949
ENERGY: 600000 4.9281 8.6714 9.6399 0.0000 -10627.9906 1484.2220 0.0000 0.0000 1738.9142 -7381.6149 295.7788 -9120.5291 -7433.2205 301.3157 431.0911 425.6926 30958.8360 188.0494 246.6555
ENERGY: 900000 5.4703 5.2585 16.0364 0.0000 -10701.9626 1464.7896 0.0000 0.0000 1739.9087 -7470.4991 295.9479 -9210.4078 -7429.3725 300.2122 136.9290 173.9457 30420.9958 161.4027 217.6447
ENERGY: 1200000 5.4647 12.4929 14.6614 0.0000 -10637.2124 1406.9871 0.0000 0.0000 1775.2952 -7422.3112 301.9669 -9197.6064 -7437.3983 300.5979 -426.6152 -349.4199 30604.9261 67.2160 125.0322
ENERGY: 1500000 7.1277 9.4983 10.0685 0.0000 -10793.6904 1471.6876 0.0000 0.0000 1786.6534 -7508.6549 303.8989 -9295.3083 -7441.7792 300.7026 178.1289 199.8145 30138.1876 43.2090 101.6035
TCL: Running FEP window   5: Lambda1 0.7999999999999998 Lambda2 0.7499999999999998 [dLambda -0.050000000000000044]
TCL: Setting parameter firsttimestep to 0
TCL: Setting parameter alchLambda to 0.7999999999999998
Info: NONBONDED TABLE R-SQUARED SPACING: 0.0625
Info: NONBONDED TABLE SIZE: 705 POINTS
TCL: Setting parameter alchLambda2 to 0.7499999999999998
Info: NONBONDED TABLE R-SQUARED SPACING: 0.0625
Info: NONBONDED TABLE SIZE: 705 POINTS
TCL: Running for 1500000 steps
ETITLE: TS BOND ANGLE DIHED IMPRP ELECT VDW BOUNDARY MISC KINETIC TOTAL TEMP POTENTIAL TOTALAVG TEMPAVG PRESSURE GPRESSURE VOLUME PRESSAVG GPRESSAVG
ENERGY: 0 7.1277 9.4983 10.0685 0.0000 -10791.8950 1471.0204 0.0000 0.0000 1785.8065 -7508.3736 303.7548 -9294.1801 -7508.3736 303.7548 108.7353 177.6601 30138.1876 108.7353 177.6601
ENERGY: 300000 2.3878 8.8537 11.5817 0.0000 -10632.2787 1399.2954 0.0000 0.0000 1767.9000 -7442.2602 300.7091 -9210.1601 -7430.4682 301.6425 -100.9068 -2.8169 30303.3227 103.5233 162.5640
ENERGY: 600000 9.5937 7.2369 10.5066 0.0000 -10674.4759 1397.5651 0.0000 0.0000 1701.0157 -7548.5578 289.3325 -9249.5735 -7445.1183 298.5133 -525.8301 -421.0334 30445.6686 60.2545 116.2078
ENERGY: 900000 4.9163 6.5466 13.3963 0.0000 -10626.2413 1434.7864 0.0000 0.0000 1714.7046 -7451.8910 291.6608 -9166.5956 -7441.6793 298.2621 196.3661 227.4549 30435.6646 48.1591 104.8765
ENERGY: 1200000 4.1438 5.3262 14.5726 0.0000 -10673.9178 1403.7866 0.0000 0.0000 1807.2456 -7438.8431 307.4015 -9246.0887 -7447.1819 298.8951 -397.0642 -327.0235 30443.4486 -18.5037 42.7687
ENERGY: 1500000 6.5241 8.7351 19.6436 0.0000 -10673.4895 1479.5978 0.0000 0.0000 1793.5079 -7365.4810 305.0648 -9158.9890 -7444.0928 300.3623 360.6183 430.7326 30398.0948 18.9306 78.2184
TCL: Running FEP window   6: Lambda1 0.7499999999999998 Lambda2 0.6999999999999997 [dLambda -0.050000000000000044]
TCL: Setting parameter firsttimestep to 0
TCL: Setting parameter alchLambda to 0.7499999999999998
Info: NONBONDED TABLE R-SQUARED SPACING: 0.0625
Info: NONBONDED TABLE SIZE: 705 POINTS
TCL: Setting parameter alchLambda2 to 0.6999999999999997
Info: NONBONDED TABLE R-SQUARED SPACING: 0.0625
Info: NONBONDED TABLE SIZE: 705 POINTS
TCL: Running for 1500000 steps
ETITLE: TS BOND ANGLE DIHED IMPRP ELECT VDW BOUNDARY MISC KINETIC TOTAL TEMP POTENTIAL TOTALAVG TEMPAVG PRESSURE GPRESSURE VOLUME PRESSAVG GPRESSAVG
ENERGY: 0 6.5241 8.7351 19.6436 0.0000 -10670.4035 1479.4659 0.0000 0.0000 1792.6568 -7363.3780 304.9200 -9156.0348 -7363.3780 304.9200 338.1109 421.1828 30398.0948 338.1109 421.1828
ENERGY: 300000 4.4001 6.7615 9.7143 0.0000 -10718.2456 1486.5202 0.0000 0.0000 1734.9631 -7475.8863 295.1067 -9210.8494 -7435.9923 298.3539 193.1422 251.6950 30645.8515 241.2756 296.3361
ENERGY: 600000 5.6381 6.7937 11.4184 0.0000 -10682.7925 1455.1972 0.0000 0.0000 1809.3863 -7394.3588 307.7656 -9203.7451 -7414.3961 300.2570 90.4196 179.6398 30438.3650 -6.2362 61.4865
ENERGY: 900000 6.3808 10.0298 11.3389 0.0000 -10738.7445 1512.8910 0.0000 0.0000 1706.8957 -7491.2083 290.3326 -9198.1039 -7430.0635 301.0037 472.7374 527.5017 30321.2486 1.1432 66.7354
ENERGY: 1200000 6.5567 8.5083 11.5786 0.0000 -10747.2001 1480.8028 0.0000 0.0000 1764.7039 -7475.0498 300.1654 -9239.7537 -7426.4601 301.4908 427.3059 499.0550 29994.7333 -24.3072 38.8443
ENERGY: 1500000 5.4948 5.4525 16.4921 0.0000 -10627.0863 1438.4971 0.0000 0.0000 1767.1086 -7394.0411 300.5744 -9161.1497 -7429.8669 301.1481 -37.6950 30.4181 30676.7460 -10.2882 53.8934
TCL: Running FEP window   7: Lambda1 0.6999999999999997 Lambda2 0.6499999999999997 [dLambda -0.050000000000000044]
TCL: Setting parameter firsttimestep to 0
TCL: Setting parameter alchLambda to 0.6999999999999997
Info: NONBONDED TABLE R-SQUARED SPACING: 0.0625
Info: NONBONDED TABLE SIZE: 705 POINTS
TCL: Setting parameter alchLambda2 to 0.6499999999999997
Info: NONBONDED TABLE R-SQUARED SPACING: 0.0625
Info: NONBONDED TABLE SIZE: 705 POINTS
TCL: Running for 1500000 steps
ETITLE: TS BOND ANGLE DIHED IMPRP ELECT VDW BOUNDARY MISC KINETIC TOTAL TEMP POTENTIAL TOTALAVG TEMPAVG PRESSURE GPRESSURE VOLUME PRESSAVG GPRESSAVG
ENERGY: 0 5.4948 5.4525 16.4921 0.0000 -10624.6443 1437.9630 0.0000 0.0000 1766.1999 -7393.0419 300.4199 -9159.2418 -7393.0419 300.4199 -72.0848 14.0982 30676.7460 -72.0848 14.0982
ENERGY: 300000 8.9012 7.8422 14.1266 0.0000 -10711.8521 1441.2075 0.0000 0.0000 1784.8701 -7454.9045 303.5956 -9239.7746 -7405.5477 300.7002 -116.3989 -53.8829 30347.5369 -215.2683 -153.1318
ENERGY: 600000 5.1401 3.9370 10.6834 0.0000 -10612.5206 1447.0749 0.0000 0.0000 1734.5588 -7411.1265 295.0379 -9145.6852 -7399.2207 302.9718 293.0103 335.8055 30186.5083 -85.8277 -33.3531
ENERGY: 900000 4.0993 7.3749 13.8210 0.0000 -10576.0587 1363.4008 0.0000 0.0000 1790.8542 -7396.5085 304.6134 -9187.3627 -7401.2153 303.0988 -333.6957 -270.2737 30268.8272 -213.7690 -155.6982
ENERGY: 1200000 2.9701 5.1489 12.8719 0.0000 -10611.9386 1425.3977 0.0000 0.0000 1760.2630 -7405.2871 299.4100 -9165.5501 -7412.1419 301.8898 -16.7146 42.1542 30531.7845 -206.4195 -149.1454
ENERGY: 1500000 7.7702 6.0474 12.2079 0.0000 -10792.3093 1482.3822 0.0000 0.0000 1758.6821 -7525.2195 299.1412 -9283.9016 -7429.2502 300.6140 401.3475 445.0541 30195.3606 -159.3383 -104.0145
TCL: Running FEP window   8: Lambda1 0.6499999999999997 Lambda2 0.5999999999999996 [dLambda -0.050000000000000044]
TCL: Setting parameter firsttimestep to 0
TCL: Setting parameter alchLambda to 0.6499999999999997
Info: NONBONDED TABLE R-SQUARED SPACING: 0.0625
Info: NONBONDED TABLE SIZE: 705 POINTS
TCL: Setting parameter alchLambda2 to 0.5999999999999996
Info: NONBONDED TABLE R-SQUARED SPACING: 0.0625
Info: NONBONDED TABLE SIZE: 705 POINTS
TCL: Running for 1500000 steps
ETITLE: TS BOND ANGLE DIHED IMPRP ELECT VDW BOUNDARY MISC KINETIC TOTAL TEMP POTENTIAL TOTALAVG TEMPAVG PRESSURE GPRESSURE VOLUME PRESSAVG GPRESSAVG
ENERGY: 0 7.7702 6.0474 12.2079 0.0000 -10789.7730 1482.0901 0.0000 0.0000 1757.8103 -7523.8472 298.9929 -9281.6575 -7523.8472 298.9929 352.3487 436.6398 30195.3606 352.3487 436.6398
ENERGY: 300000 3.6995 5.9443 15.3723 0.0000 -10548.4646 1354.2009 0.0000 0.0000 1723.6609 -7445.5867 293.1843 -9169.2477 -7439.6973 297.4764 -390.7613 -338.2791 29973.4687 -23.7772 21.9980
ENERGY: 600000 4.1532 10.8137 13.9342 0.0000 -10597.3934 1366.3472 0.0000 0.0000 1772.3850 -7429.7601 301.4719 -9202.1451 -7435.7962 299.2246 -602.6931 -595.6194 30503.3580 -8.2916 38.8684
ENERGY: 900000 8.7979 8.5342 14.5709 0.0000 -10633.1732 1445.8255 0.0000 0.0000 1758.2781 -7397.1665 299.0724 -9155.4446 -7431.7056 300.2470 93.2044 78.7987 30480.8589 -100.6011 -66.9679
ENERGY: 1200000 4.7110 8.4588 16.7859 0.0000 -10664.5673 1385.4376 0.0000 0.0000 1761.6582 -7487.5158 299.6474 -9249.1740 -7446.8437 299.2961 -673.6924 -584.2154 30591.8044 -169.8249 -118.6084
ENERGY: 1500000 2.5124 4.7842 10.7843 0.0000 -10697.0028 1437.2758 0.0000 0.0000 1730.9973 -7510.6489 294.4321 -9241.6462 -7452.3680 299.1396 -86.9754 17.0868 30261.1427 -169.5067 -114.1866
TCL: Running FEP window   9: Lambda1 0.5999999999999996 Lambda2 0.5499999999999996 [dLambda -0.050000000000000044]
TCL: Setting parameter firsttimestep to 0
TCL: Setting parameter alchLambda to 0.5999999999999996
Info: NONBONDED TABLE R-SQUARED SPACING: 0.0625
Info: NONBONDED TABLE SIZE: 705 POINTS
TCL: Setting parameter alchLambda2 to 0.5499999999999996
Info: NONBONDED TABLE R-SQUARED SPACING: 0.0625
Info: NONBONDED TABLE SIZE: 705 POINTS
TCL: Running for 1500000 steps
ETITLE: TS BOND ANGLE DIHED IMPRP ELECT VDW BOUNDARY MISC KINETIC TOTAL TEMP POTENTIAL TOTALAVG TEMPAVG PRESSURE GPRESSURE VOLUME PRESSAVG GPRESSAVG
ENERGY: 0 2.5124 4.7842 10.7843 0.0000 -10696.7826 1437.6946 0.0000 0.0000 1730.1515 -7510.8557 294.2883 -9241.0072 -7510.8557 294.2883 -63.4752 6.9361 30261.1427 -63.4752 6.9361
ENERGY: 300000 3.3849 7.8560 13.6776 0.0000 -10614.7242 1454.2272 0.0000 0.0000 1751.7241 -7383.8544 297.9576 -9135.5785 -7444.3533 297.9090 354.2847 428.9265 30436.9421 86.7253 149.6033
ENERGY: 600000 5.2539 6.5072 12.9236 0.0000 -10745.7446 1557.3881 0.0000 0.0000 1770.6317 -7393.0401 301.1737 -9163.6718 -7431.2770 300.7600 1265.4069 1401.0780 29927.3226 113.0733 194.5103
ENERGY: 900000 3.7026 8.4680 13.4140 0.0000 -10547.3461 1382.6527 0.0000 0.0000 1812.3211 -7326.7876 308.2648 -9139.1088 -7427.3298 300.3714 -303.2380 -247.6928 30748.6771 36.9897 121.3816
ENERGY: 1200000 5.8366 6.8163 12.6024 0.0000 -10752.0736 1512.2466 0.0000 0.0000 1729.8609 -7484.7106 294.2388 -9214.5715 -7445.0747 298.5351 736.8386 766.9668 30271.6974 81.6978 160.7023
ENERGY: 1500000 5.2762 7.8283 13.7771 0.0000 -10411.4277 1272.6874 0.0000 0.0000 1768.2781 -7343.5806 300.7734 -9111.8587 -7436.5222 298.7478 -1102.6224 -1011.7041 30568.4542 -18.5371 58.9243
TCL: Running FEP window  10: Lambda1 0.5499999999999996 Lambda2 0.4999999999999996 [dLambda -0.04999999999999999]
TCL: Setting parameter firsttimestep to 0
TCL: Setting parameter alchLambda to 0.5499999999999996
Info: NONBONDED TABLE R-SQUARED SPACING: 0.0625
Info: NONBONDED TABLE SIZE: 705 POINTS
TCL: Setting parameter alchLambda2 to 0.4999999999999996
Info: NONBONDED TABLE R-SQUARED SPACING: 0.0625
Info: NONBONDED TABLE SIZE: 705 POINTS
TCL: Running for 1500000 steps
ETITLE: TS BOND ANGLE DIHED IMPRP ELECT VDW BOUNDARY MISC KINETIC TOTAL TEMP POTENTIAL TOTALAVG TEMPAVG PRESSURE GPRESSURE VOLUME PRESSAVG GPRESSAVG
ENERGY: 0 5.2762 7.8283 13.7771 0.0000 -10410.7590 1272.4032 0.0000 0.0000 1767.3883 -7344.0859 300.6220 -9111.4742 -7344.0859 300.6220 -1108.2978 -1024.8063 30568.4542 -1108.2978 -1024.8063
ENERGY: 300000 7.2370 5.1672 9.0136 0.0000 -10786.5392 1475.5853 0.0000 0.0000 1781.6546 -7507.8816 303.0486 -9289.5362 -7424.7390 301.7459 193.6890 261.2712 29882.8485 -347.2374 -274.6106
ENERGY: 600000 5.6340 7.6752 13.1076 0.0000 -10523.3024 1377.5790 0.0000 0.0000 1784.9173 -7334.3892 303.6036 -9119.3065 -7402.2997 301.9375 -391.3239 -294.2510 30510.8302 -408.0220 -319.1914
ENERGY: 900000 9.5683 9.6958 14.7472 0.0000 -10539.2721 1407.8066 0.0000 0.0000 1751.9274 -7345.5268 297.9922 -9097.4542 -7390.0999 301.9886 -319.3423 -203.9183 30644.9676 -264.6303 -186.0336
ENERGY: 1200000 4.3294 6.2585 13.7920 0.0000 -10629.7430 1342.8153 0.0000 0.0000 1749.4156 -7513.1321 297.5650 -9262.5478 -7412.8037 301.6202 -878.1349 -780.5789 30372.2437 -169.9900 -84.4297
ENERGY: 1500000 6.6289 5.9648 10.8183 0.0000 -10751.1232 1498.4094 0.0000 0.0000 1761.7757 -7467.5261 299.6673 -9229.3018 -7418.9262 301.0771 576.3191 669.3440 30311.6336 -78.8556 9.3277
TCL: Running FEP window  11: Lambda1 0.4999999999999996 Lambda2 0.4499999999999996 [dLambda -0.04999999999999999]
TCL: Setting parameter firsttimestep to 0
TCL: Setting parameter alchLambda to 0.4999999999999996
Info: NONBONDED TABLE R-SQUARED SPACING: 0.0625
Info: NONBONDED TABLE SIZE: 705 POINTS
TCL: Setting parameter alchLambda2 to 0.4499999999999996
Info: NONBONDED TABLE R-SQUARED SPACING: 0.0625
Info: NONBONDED TABLE SIZE: 705 POINTS
TCL: Running for 1500000 steps
ETITLE: TS BOND ANGLE DIHED IMPRP ELECT VDW BOUNDARY MISC KINETIC TOTAL TEMP POTENTIAL TOTALAVG TEMPAVG PRESSURE GPRESSURE VOLUME PRESSAVG GPRESSAVG
ENERGY: 0 6.6289 5.9648 10.8183 0.0000 -10750.9864 1499.3000 0.0000 0.0000 1760.8937 -7467.3807 299.5173 -9228.2744 -7467.3807 299.5173 590.8877 667.8585 30311.6336 590.8877 667.8585
ENERGY: 300000 6.0468 12.4465 12.8742 0.0000 -10549.2191 1372.9991 0.0000 0.0000 1738.2943 -7406.5583 295.6733 -9144.8526 -7455.9657 296.3636 -486.3992 -348.9800 30770.9177 26.9944 120.0479
ENERGY: 600000 6.2742 8.9344 13.8534 0.0000 -10630.2338 1399.4579 0.0000 0.0000 1745.4430 -7456.2708 296.8893 -9201.7139 -7435.7599 297.8995 -251.3090 -157.4662 30127.5735 -33.9341 45.6127
ENERGY: 900000 8.1276 7.3383 10.1640 0.0000 -10524.6419 1364.1304 0.0000 0.0000 1789.0637 -7345.8181 304.3089 -9134.8817 -7429.3225 299.8804 -580.2665 -539.0847 30394.8941 20.7358 97.9251
ENERGY: 1200000 2.4143 7.8779 15.8994 0.0000 -10658.1103 1429.2412 0.0000 0.0000 1755.0139 -7447.6636 298.5172 -9202.6775 -7439.6367 299.5278 -64.1396 53.5978 30167.5582 -122.1255 -46.0608
ENERGY: 1500000 5.4488 5.1823 14.3021 0.0000 -10612.0164 1379.5283 0.0000 0.0000 1775.4210 -7432.1340 301.9883 -9207.5550 -7433.9272 300.1935 -692.7735 -621.6364 30908.9134 -157.8036 -79.0831
TCL: Running FEP window  12: Lambda1 0.4499999999999996 Lambda2 0.39999999999999963 [dLambda -0.04999999999999999]
TCL: Setting parameter firsttimestep to 0
TCL: Setting parameter alchLambda to 0.4499999999999996
Info: NONBONDED TABLE R-SQUARED SPACING: 0.0625
Info: NONBONDED TABLE SIZE: 705 POINTS
TCL: Setting parameter alchLambda2 to 0.39999999999999963
Info: NONBONDED TABLE R-SQUARED SPACING: 0.0625
Info: NONBONDED TABLE SIZE: 705 POINTS
TCL: Running for 1500000 steps
ETITLE: TS BOND ANGLE DIHED IMPRP ELECT VDW BOUNDARY MISC KINETIC TOTAL TEMP POTENTIAL TOTALAVG TEMPAVG PRESSURE GPRESSURE VOLUME PRESSAVG GPRESSAVG
ENERGY: 0 5.4488 5.1823 14.3021 0.0000 -10612.0145 1380.0322 0.0000 0.0000 1774.5854 -7432.4638 301.8462 -9207.0492 -7432.4638 301.8462 -703.2930 -628.2957 30908.9134 -703.2930 -628.2957
ENERGY: 300000 5.8537 6.8024 8.6151 0.0000 -10601.1623 1451.6674 0.0000 0.0000 1769.2260 -7358.9978 300.9346 -9128.2237 -7437.2951 297.1767 210.4196 305.8642 30590.3271 -221.4360 -167.3848
ENERGY: 600000 5.8736 10.0332 13.4467 0.0000 -10573.0806 1422.3997 0.0000 0.0000 1792.1528 -7329.1746 304.8343 -9121.3274 -7414.7232 299.2756 -219.0580 -107.1977 31012.4446 -161.4322 -99.3069
ENERGY: 900000 2.2651 8.3067 11.5971 0.0000 -10744.5210 1533.9389 0.0000 0.0000 1758.9603 -7429.4529 299.1885 -9188.4132 -7402.9053 300.4273 1098.9008 1101.7439 29968.7526 76.0922 132.1043
ENERGY: 1200000 3.5504 5.6742 9.5862 0.0000 -10756.1652 1500.8992 0.0000 0.0000 1715.4592 -7520.9959 291.7892 -9236.4551 -7403.3948 299.4673 137.5738 216.0542 30542.3285 15.7158 72.9798
ENERGY: 1500000 4.1462 6.4768 10.0540 0.0000 -10599.3059 1390.4727 0.0000 0.0000 1799.1129 -7389.0433 306.0182 -9188.1562 -7409.6266 300.3362 -265.5185 -244.1395 30157.2493 71.3807 129.9849
TCL: Running FEP window  13: Lambda1 0.39999999999999963 Lambda2 0.34999999999999964 [dLambda -0.04999999999999999]
TCL: Setting parameter firsttimestep to 0
TCL: Setting parameter alchLambda to 0.39999999999999963
Info: NONBONDED TABLE R-SQUARED SPACING: 0.0625
Info: NONBONDED TABLE SIZE: 705 POINTS
TCL: Setting parameter alchLambda2 to 0.34999999999999964
Info: NONBONDED TABLE R-SQUARED SPACING: 0.0625
Info: NONBONDED TABLE SIZE: 705 POINTS
TCL: Running for 1500000 steps
ETITLE: TS BOND ANGLE DIHED IMPRP ELECT VDW BOUNDARY MISC KINETIC TOTAL TEMP POTENTIAL TOTALAVG TEMPAVG PRESSURE GPRESSURE VOLUME PRESSAVG GPRESSAVG
ENERGY: 0 4.1462 6.4768 10.0540 0.0000 -10599.3057 1390.4065 0.0000 0.0000 1798.2401 -7389.9821 305.8697 -9188.2221 -7389.9821 305.8697 -350.9634 -255.1160 30157.2493 -350.9634 -255.1160
ENERGY: 300000 3.7959 5.9393 10.4452 0.0000 -10588.3977 1415.5390 0.0000 0.0000 1804.4976 -7348.1807 306.9341 -9152.6783 -7371.3234 304.3390 -57.5896 3.9306 30556.2386 -43.0610 15.9821
ENERGY: 600000 6.6531 6.3844 14.6014 0.0000 -10673.3833 1442.5501 0.0000 0.0000 1758.8303 -7444.3641 299.1664 -9203.1944 -7404.9658 303.1371 -22.4286 57.1060 30315.5448 -69.3121 -1.1162
ENERGY: 900000 4.7856 14.1351 6.9203 0.0000 -10554.9444 1362.8746 0.0000 0.0000 1740.1564 -7426.0723 295.9900 -9166.2287 -7404.3808 303.3045 -641.9839 -559.5500 30441.4313 -201.0335 -134.4664
ENERGY: 1200000 7.1347 4.8669 12.8523 0.0000 -10611.6841 1377.8776 0.0000 0.0000 1722.7397 -7486.2130 293.0276 -9208.9528 -7404.4740 301.7221 -583.7053 -546.4805 30302.2463 -250.8159 -188.6422
ENERGY: 1500000 11.5619 5.7941 14.9194 0.0000 -10813.8761 1497.1312 0.0000 0.0000 1811.5090 -7472.9604 308.1267 -9284.4695 -7402.4591 302.2339 36.1002 132.7070 30409.2206 -247.5072 -183.5835
TCL: Running FEP window  14: Lambda1 0.34999999999999964 Lambda2 0.29999999999999966 [dLambda -0.04999999999999999]
TCL: Setting parameter firsttimestep to 0
TCL: Setting parameter alchLambda to 0.34999999999999964
Info: NONBONDED TABLE R-SQUARED SPACING: 0.0625
Info: NONBONDED TABLE SIZE: 705 POINTS
TCL: Setting parameter alchLambda2 to 0.29999999999999966
Info: NONBONDED TABLE R-SQUARED SPACING: 0.0625
Info: NONBONDED TABLE SIZE: 705 POINTS
TCL: Running for 1500000 steps
ETITLE: TS BOND ANGLE DIHED IMPRP ELECT VDW BOUNDARY MISC KINETIC TOTAL TEMP POTENTIAL TOTALAVG TEMPAVG PRESSURE GPRESSURE VOLUME PRESSAVG GPRESSAVG
ENERGY: 0 11.5620 5.7941 14.9194 0.0000 -10813.8749 1497.8600 0.0000 0.0000 1810.6165 -7473.1229 307.9749 -9283.7394 -7473.1229 307.9749 30.6881 130.4503 30409.2206 30.6881 130.4503
ENERGY: 300000 7.6243 9.5489 9.4134 0.0000 -10540.2915 1383.2180 0.0000 0.0000 1800.7272 -7329.7598 306.2928 -9130.4870 -7402.0372 303.3950 -379.4145 -232.8257 30291.6559 -13.5507 80.3162
ENERGY: 600000 3.5897 5.8863 16.2399 0.0000 -10693.4502 1428.9460 0.0000 0.0000 1771.3478 -7467.4405 301.2955 -9238.7883 -7403.9602 302.4332 -177.9168 -115.2027 30520.9345 11.1549 79.8245
ENERGY: 900000 5.5629 9.9118 8.8556 0.0000 -10560.8336 1366.2370 0.0000 0.0000 1690.5128 -7479.7534 287.5460 -9170.2661 -7424.8373 300.3434 -455.7349 -428.2115 30432.9386 -184.1223 -129.5409
ENERGY: 1200000 4.8749 6.2587 14.9053 0.0000 -10728.6879 1483.0896 0.0000 0.0000 1827.2203 -7392.3391 310.7991 -9219.5594 -7418.6459 301.4605 299.2130 356.5371 30807.2634 -193.4143 -137.7181
ENERGY: 1500000 5.9245 7.4597 16.6635 0.0000 -10738.4808 1478.6597 0.0000 0.0000 1831.7689 -7398.0045 311.5728 -9229.7734 -7419.3928 301.6837 185.6404 308.0728 30173.9214 -160.5663 -101.7259
TCL: Running FEP window  15: Lambda1 0.29999999999999966 Lambda2 0.24999999999999967 [dLambda -0.04999999999999999]
TCL: Setting parameter firsttimestep to 0
TCL: Setting parameter alchLambda to 0.29999999999999966
Info: NONBONDED TABLE R-SQUARED SPACING: 0.0625
Info: NONBONDED TABLE SIZE: 705 POINTS
TCL: Setting parameter alchLambda2 to 0.24999999999999967
Info: NONBONDED TABLE R-SQUARED SPACING: 0.0625
Info: NONBONDED TABLE SIZE: 705 POINTS
TCL: Running for 1500000 steps
ETITLE: TS BOND ANGLE DIHED IMPRP ELECT VDW BOUNDARY MISC KINETIC TOTAL TEMP POTENTIAL TOTALAVG TEMPAVG PRESSURE GPRESSURE VOLUME PRESSAVG GPRESSAVG
ENERGY: 0 5.9245 7.4597 16.6635 0.0000 -10738.4811 1479.1862 0.0000 0.0000 1830.8880 -7398.3592 311.4229 -9229.2472 -7398.3592 311.4229 222.8417 302.6800 30173.9214 222.8417 302.6800
ENERGY: 300000 4.2361 15.0551 7.8915 0.0000 -10688.3972 1396.9103 0.0000 0.0000 1786.7686 -7477.5356 303.9185 -9264.3042 -7437.5293 302.7856 -520.0493 -430.1527 30039.4253 50.4918 124.0012
ENERGY: 600000 6.3495 9.9796 14.4740 0.0000 -10612.8229 1392.6071 0.0000 0.0000 1784.5914 -7404.8213 303.5482 -9189.4128 -7431.2096 301.8770 -271.5777 -251.9647 30418.5308 64.1052 114.4613
ENERGY: 900000 7.1762 4.4514 11.6037 0.0000 -10687.8604 1419.3109 0.0000 0.0000 1761.8421 -7483.4761 299.6787 -9245.3182 -7415.9100 302.0241 -569.9675 -447.6912 30582.6901 -35.4968 28.4918
ENERGY: 1200000 5.9231 6.9644 14.2590 0.0000 -10665.4182 1451.0692 0.0000 0.0000 1718.6933 -7468.5093 292.3393 -9187.2026 -7424.5617 300.3958 -26.7562 10.5316 30653.1042 -60.6283 0.5306
ENERGY: 1500000 2.6203 8.5515 11.8755 0.0000 -10725.3785 1448.7281 0.0000 0.0000 1779.8847 -7473.7184 302.7476 -9253.6031 -7425.5964 301.4024 -16.9538 64.9067 30014.5701 -73.7083 -8.6269
TCL: Running FEP window  16: Lambda1 0.24999999999999967 Lambda2 0.19999999999999968 [dLambda -0.04999999999999999]
TCL: Setting parameter firsttimestep to 0
TCL: Setting parameter alchLambda to 0.24999999999999967
Info: NONBONDED TABLE R-SQUARED SPACING: 0.0625
Info: NONBONDED TABLE SIZE: 705 POINTS
TCL: Setting parameter alchLambda2 to 0.19999999999999968
Info: NONBONDED TABLE R-SQUARED SPACING: 0.0625
Info: NONBONDED TABLE SIZE: 705 POINTS
TCL: Running for 1500000 steps
ETITLE: TS BOND ANGLE DIHED IMPRP ELECT VDW BOUNDARY MISC KINETIC TOTAL TEMP POTENTIAL TOTALAVG TEMPAVG PRESSURE GPRESSURE VOLUME PRESSAVG GPRESSAVG
ENERGY: 0 2.6203 8.5515 11.8755 0.0000 -10725.3781 1449.0328 0.0000 0.0000 1779.0314 -7474.2666 302.6024 -9253.2980 -7474.2666 302.6024 -16.9261 60.5551 30014.5701 -16.9261 60.5551
ENERGY: 300000 11.0333 8.6249 15.9422 0.0000 -10646.9184 1404.7527 0.0000 0.0000 1745.2354 -7461.3300 296.8539 -9206.5654 -7401.2629 301.8894 -503.6447 -374.8427 30615.4690 89.0866 167.3659
ENERGY: 600000 7.2699 11.5857 10.8856 0.0000 -10735.9158 1499.5514 0.0000 0.0000 1729.2408 -7477.3823 294.1334 -9206.6231 -7437.3747 299.9720 433.8912 490.2479 30249.2551 174.5467 240.5728
ENERGY: 900000 5.4913 8.6793 10.2851 0.0000 -10647.1330 1422.2100 0.0000 0.0000 1793.4319 -7407.0354 305.0519 -9200.4673 -7441.0886 300.2480 -202.0432 -155.7850 30232.7988 126.4444 179.4479
ENERGY: 1200000 9.2422 13.1439 11.1757 0.0000 -10875.7123 1535.0750 0.0000 0.0000 1732.6810 -7574.3945 294.7185 -9307.0756 -7458.6596 299.5700 438.7715 483.8282 30203.7657 192.9483 248.2816
ENERGY: 1500000 11.0704 8.2606 12.3454 0.0000 -10559.2050 1413.1516 0.0000 0.0000 1746.4894 -7367.8876 297.0673 -9114.3771 -7437.0161 300.1017 139.1966 192.2321 30424.8876 151.1980 204.5019
TCL: Running FEP window  17: Lambda1 0.19999999999999968 Lambda2 0.1499999999999997 [dLambda -0.04999999999999999]
TCL: Setting parameter firsttimestep to 0
TCL: Setting parameter alchLambda to 0.19999999999999968
Info: NONBONDED TABLE R-SQUARED SPACING: 0.0625
Info: NONBONDED TABLE SIZE: 705 POINTS
TCL: Setting parameter alchLambda2 to 0.1499999999999997
Info: NONBONDED TABLE R-SQUARED SPACING: 0.0625
Info: NONBONDED TABLE SIZE: 705 POINTS
TCL: Running for 1500000 steps
ETITLE: TS BOND ANGLE DIHED IMPRP ELECT VDW BOUNDARY MISC KINETIC TOTAL TEMP POTENTIAL TOTALAVG TEMPAVG PRESSURE GPRESSURE VOLUME PRESSAVG GPRESSAVG
ENERGY: 0 11.0704 8.2606 12.3454 0.0000 -10559.2056 1413.2822 0.0000 0.0000 1745.6265 -7368.6205 296.9205 -9114.2470 -7368.6205 296.9205 103.4178 189.9008 30424.8876 103.4178 189.9008
ENERGY: 300000 5.0281 9.0095 11.5886 0.0000 -10598.7847 1420.5936 0.0000 0.0000 1703.0745 -7449.4904 289.6826 -9152.5649 -7414.9913 297.5647 -13.1183 39.4953 30444.7818 -49.9575 -3.4633
ENERGY: 600000 6.8297 8.0805 10.1079 0.0000 -10667.7037 1415.7417 0.0000 0.0000 1744.2446 -7482.6992 296.6854 -9226.9439 -7428.1317 296.8712 -481.3684 -398.7705 30316.0653 -158.4249 -89.4340
ENERGY: 900000 6.8244 4.6155 13.3946 0.0000 -10684.5504 1456.5892 0.0000 0.0000 1762.7158 -7440.4109 299.8273 -9203.1267 -7432.6631 298.7110 338.1308 403.7021 29802.4227 -226.0914 -152.4818
ENERGY: 1200000 4.0545 5.4439 14.6953 0.0000 -10516.4335 1369.4268 0.0000 0.0000 1780.6030 -7342.2100 302.8698 -9122.8130 -7426.2475 297.7418 -336.6971 -332.0457 30409.9256 -258.4815 -194.8043
ENERGY: 1500000 5.5952 10.3223 10.6215 0.0000 -10763.9971 1469.2366 0.0000 0.0000 1785.4808 -7482.7408 303.6994 -9268.2216 -7426.1866 298.0312 205.3516 254.0081 30071.5745 -185.4091 -125.8323
TCL: Running FEP window  18: Lambda1 0.1499999999999997 Lambda2 0.09999999999999969 [dLambda -0.05 ]
TCL: Setting parameter firsttimestep to 0
TCL: Setting parameter alchLambda to 0.1499999999999997
Info: NONBONDED TABLE R-SQUARED SPACING: 0.0625
Info: NONBONDED TABLE SIZE: 705 POINTS
TCL: Setting parameter alchLambda2 to 0.09999999999999969
Info: NONBONDED TABLE R-SQUARED SPACING: 0.0625
Info: NONBONDED TABLE SIZE: 705 POINTS
TCL: Running for 1500000 steps
ETITLE: TS BOND ANGLE DIHED IMPRP ELECT VDW BOUNDARY MISC KINETIC TOTAL TEMP POTENTIAL TOTALAVG TEMPAVG PRESSURE GPRESSURE VOLUME PRESSAVG GPRESSAVG
ENERGY: 0 5.5952 10.3223 10.6215 0.0000 -10763.9963 1469.3772 0.0000 0.0000 1784.5521 -7483.5281 303.5415 -9268.0801 -7483.5281 303.5415 160.8387 253.0615 30071.5745 160.8387 253.0615
ENERGY: 300000 5.2775 16.3296 14.2907 0.0000 -10526.1111 1309.2500 0.0000 0.0000 1800.7974 -7380.1658 306.3047 -9180.9632 -7396.1600 304.4633 -1260.8642 -1233.4846 30542.4310 -407.9007 -366.4380
ENERGY: 600000 7.5174 6.0503 14.3229 0.0000 -10757.1879 1447.3799 0.0000 0.0000 1803.3800 -7478.5375 306.7440 -9281.9175 -7412.8467 305.4093 -210.6519 -216.6679 29851.1193 -211.4879 -187.0709
ENERGY: 900000 5.3017 6.8730 16.9136 0.0000 -10756.8884 1513.4596 0.0000 0.0000 1796.2596 -7418.0809 305.5329 -9214.3405 -7422.7079 304.5254 731.5200 760.7913 30161.8807 -82.3586 -53.2296
ENERGY: 1200000 7.1749 9.1132 10.8822 0.0000 -10767.7422 1507.2827 0.0000 0.0000 1762.5604 -7470.7289 299.8008 -9233.2893 -7423.4643 303.9772 403.4594 504.5995 30278.1873 -40.6687 -2.7198
ENERGY: 1500000 5.5357 5.3705 8.4377 0.0000 -10837.4376 1544.7479 0.0000 0.0000 1763.0121 -7510.3337 299.8777 -9273.3458 -7435.5935 303.3049 666.5107 761.3309 30054.6703 21.8021 69.6412
TCL: Running FEP window  19: Lambda1 0.09999999999999969 Lambda2 0.049999999999999684 [dLambda -0.05 ]
TCL: Setting parameter firsttimestep to 0
TCL: Setting parameter alchLambda to 0.09999999999999969
Info: NONBONDED TABLE R-SQUARED SPACING: 0.0625
Info: NONBONDED TABLE SIZE: 705 POINTS
TCL: Setting parameter alchLambda2 to 0.049999999999999684
Info: NONBONDED TABLE R-SQUARED SPACING: 0.0625
Info: NONBONDED TABLE SIZE: 705 POINTS
TCL: Running for 1500000 steps
ETITLE: TS BOND ANGLE DIHED IMPRP ELECT VDW BOUNDARY MISC KINETIC TOTAL TEMP POTENTIAL TOTALAVG TEMPAVG PRESSURE GPRESSURE VOLUME PRESSAVG GPRESSAVG
ENERGY: 0 5.5357 5.3705 8.4377 0.0000 -10837.4376 1544.7824 0.0000 0.0000 1762.1342 -7511.1772 299.7283 -9273.3114 -7511.1772 299.7283 688.8640 758.9981 30054.6703 688.8640 758.9981
ENERGY: 300000 7.2378 6.3847 10.6335 0.0000 -10748.7932 1462.8175 0.0000 0.0000 1740.3756 -7521.3440 296.0273 -9261.7197 -7441.5608 297.9363 -123.6080 -139.3715 30116.9675 15.8304 44.9078
ENERGY: 600000 7.4339 5.6833 17.6207 0.0000 -10833.5389 1559.3779 0.0000 0.0000 1795.9594 -7447.4636 305.4818 -9243.4230 -7424.6622 300.6988 951.3939 1004.8657 29778.3420 215.1492 252.2352
ENERGY: 900000 4.6016 9.4465 13.8562 0.0000 -10777.5109 1506.3488 0.0000 0.0000 1760.7394 -7482.5184 299.4911 -9243.2578 -7434.5117 300.6782 416.1587 511.7313 29839.5591 281.2924 329.9202
ENERGY: 1200000 8.1978 8.5454 12.7213 0.0000 -10735.5016 1474.2513 0.0000 0.0000 1808.1339 -7423.6519 307.5526 -9231.7858 -7431.7146 300.8647 85.8473 53.1405 30666.3530 189.3397 227.2027
ENERGY: 1500000 4.9091 8.6562 15.5740 0.0000 -10541.6448 1331.7508 0.0000 0.0000 1741.0119 -7439.7428 296.1356 -9180.7547 -7425.8255 300.1749 -791.2888 -767.0605 30371.3020 97.1395 143.2954
TCL: Running FEP window  20: Lambda1 0.049999999999999684 Lambda2 0.0    [dLambda -0.049999999999999684]
TCL: Setting parameter firsttimestep to 0
TCL: Setting parameter alchLambda to 0.049999999999999684
Info: NONBONDED TABLE R-SQUARED SPACING: 0.0625
Info: NONBONDED TABLE SIZE: 705 POINTS
TCL: Setting parameter alchLambda2 to 0.0
Info: NONBONDED TABLE R-SQUARED SPACING: 0.0625
Info: NONBONDED TABLE SIZE: 705 POINTS
TCL: Running for 1500000 steps
ETITLE: TS BOND ANGLE DIHED IMPRP ELECT VDW BOUNDARY MISC KINETIC TOTAL TEMP POTENTIAL TOTALAVG TEMPAVG PRESSURE GPRESSURE VOLUME PRESSAVG GPRESSAVG
ENERGY: 0 4.9091 8.6562 15.5740 0.0000 -10541.6463 1331.7893 0.0000 0.0000 1740.1592 -7440.5584 295.9905 -9180.7176 -7440.5584 295.9905 -852.7484 -771.6849 30371.3020 -852.7484 -771.6849
ENERGY: 300000 2.0936 8.8220 8.6631 0.0000 -10619.2991 1471.7202 0.0000 0.0000 1777.0746 -7350.9255 302.2696 -9128.0001 -7423.7058 299.7127 601.4531 705.2432 29862.4852 42.5005 113.1777
ENERGY: 600000 6.7513 9.8020 13.9724 0.0000 -10665.6716 1481.0920 0.0000 0.0000 1817.3494 -7336.7046 309.1201 -9154.0540 -7400.7572 300.6123 262.0755 292.7158 30373.3100 -14.1709 58.0556
ENERGY: 900000 5.9430 6.4463 9.1324 0.0000 -10752.3891 1507.4997 0.0000 0.0000 1740.0221 -7483.3456 295.9672 -9223.3676 -7404.8865 301.2989 453.3629 541.0163 29795.2145 116.0900 186.1592
ENERGY: 1200000 4.7745 6.1500 12.6354 0.0000 -10663.8620 1463.9828 0.0000 0.0000 1807.9807 -7368.3386 307.5265 -9176.3193 -7396.3272 301.5776 36.0794 96.7229 30425.5893 31.0064 97.4086
ENERGY: 1500000 4.3286 10.8377 13.2301 0.0000 -10815.5673 1551.4859 0.0000 0.0000 1768.3700 -7467.3151 300.7890 -9235.6851 -7400.3312 301.0091 738.0172 779.2042 29968.5463 84.9797 147.9565
TCL: Exiting due to exit command.
