Info: SIMULATION PARAMETERS:
Info: TIMESTEP               2
Info: NUMBER OF STEPS        0
Info: STEPS PER CYCLE        10
Info: PERIODIC CELL BASIS 1  31.0051 0 0
Info: PERIODIC CELL BASIS 2  0 29.5987 0
Info: PERIODIC CELL BASIS 3  0 0 33.3554
Info: PERIODIC CELL CENTER   0 0 0
Info: WRAPPING WATERS AROUND PERIODIC BOUNDARIES ON OUTPUT.
Info: WRAPPING ALL CLUSTERS AROUND PERIODIC BOUNDARIES ON OUTPUT.
Info: FIRST LDB TIMESTEP     50
Info: LAST LDB TIMESTEP     -1
Info: HOM BACKGROUND SCALING 1
Info: PME BACKGROUND SCALING 1
Info: MIN ATOMS PER PATCH    40
Info: EMPTY PATCH LOAD       40 ATOMS
Info: VELOCITY FILE          mobley_7774695_equil.vel
Info: CENTER OF MASS MOVING INITIALLY? NO
Info: DIELECTRIC             1
Info: EXCLUDE                SCALED ONE-FOUR
Info: 1-4 ELECTROSTATICS SCALED BY 0.833333
Info: MODIFIED 1-4 VDW PARAMETERS WILL BE USED
Info: DCD FILENAME           mobley_7774695_prod.dcd
Info: DCD FREQUENCY          100000
Info: DCD FIRST STEP         100000
Info: DCD FILE WILL CONTAIN UNIT CELL DATA
Info: XST FILENAME           mobley_7774695_prod.xst
Info: XST FREQUENCY          100000
Info: NO VELOCITY DCD OUTPUT
Info: NO FORCE DCD OUTPUT
Info: OUTPUT FILENAME        mobley_7774695_prod
Info: BINARY OUTPUT FILES WILL BE USED
Info: RESTART FILENAME       mobley_7774695_prod.restart
Info: RESTART FREQUENCY      100000
Info: BINARY RESTART FILES WILL BE USED
Info: CUTOFF                 9
Info: PAIRLIST DISTANCE      11
Info: PAIRLIST SHRINK RATE   0.01
Info: PAIRLIST GROW RATE     0.01
Info: PAIRLIST TRIGGER       0.3
Info: PAIRLISTS PER CYCLE    2
Info: PAIRLISTS ENABLED
Info: MARGIN                 2
Info: HYDROGEN GROUP CUTOFF  2.5
Info: PATCH DIMENSION        15.5
Info: ENERGY OUTPUT STEPS    100000
Info: ENERGY EVALUATION STEPS    100000
Info: OUTPUT ENERGY PRECISION 4
Info: CROSSTERM ENERGY INCLUDED IN DIHEDRAL
Info: TIMING OUTPUT STEPS    1000000
Info: PRESSURE OUTPUT STEPS  100000
Info: ALCHEMICAL FEP ON
Info: FEP CURRENT LAMBDA VALUE     1
Info: FEP COMPARISON LAMBDA VALUE  0.95
Info: FEP INTRA-ALCHEMICAL NON-BONDED INTERACTIONS WILL BE RETAINED
Info: FEP INTRA-ALCHEMICAL BONDED INTERACTIONS WILL BE RETAINED
Info: FEP VDW SHIFTING COEFFICIENT 5
Info: FEP ELEC. ACTIVE FOR ANNIHILATED PARTICLES BETWEEN LAMBDA = 0 AND LAMBDA = 0.5
Info: FEP ELEC. ACTIVE FOR EXNIHILATED PARTICLES BETWEEN LAMBDA = 0.5 AND LAMBDA = 1
Info: FEP VDW ACTIVE FOR ANNIHILATED PARTICLES BETWEEN LAMBDA = 0 AND LAMBDA = 1
Info: FEP VDW ACTIVE FOR EXNIHILATED PARTICLES BETWEEN LAMBDA = 0 AND LAMBDA = 1
Info: FEP BOND ACTIVE FOR ANNIHILATED PARTICLES BETWEEN LAMBDA = 1 AND LAMBDA = 1
Info: FEP BOND ACTIVE FOR EXNIHILATED PARTICLES BETWEEN LAMBDA = 0 AND LAMBDA = 0
Info: LANGEVIN DYNAMICS ACTIVE
Info: LANGEVIN TEMPERATURE   300
Info: LANGEVIN USING BBK INTEGRATOR
Info: LANGEVIN DAMPING COEFFICIENT IS 1 INVERSE PS
Info: LANGEVIN DYNAMICS APPLIED TO HYDROGENS
Info: LANGEVIN PISTON PRESSURE CONTROL ACTIVE
Info:        TARGET PRESSURE IS 1.01325 BAR
Info:     OSCILLATION PERIOD IS 50 FS
Info:             DECAY TIME IS 25 FS
Info:     PISTON TEMPERATURE IS 300 K
Info:       PRESSURE CONTROL IS GROUP-BASED
Info:    INITIAL STRAIN RATE IS -0.000621548 -0.000621548 -0.000621548
Info:       CELL FLUCTUATION IS ISOTROPIC
Info: PARTICLE MESH EWALD (PME) ACTIVE
Info: PME TOLERANCE               1e-06
Info: PME EWALD COEFFICIENT       0.348832
Info: PME INTERPOLATION ORDER     4
Info: PME GRID DIMENSIONS         32 32 36
Info: PME MAXIMUM GRID SPACING    1
Info: PME CALCULATION WILL BE PERFORMED ON GPU
Info: FULL ELECTROSTATIC EVALUATION FREQUENCY      2
Info: USING VERLET I (r-RESPA) MTS SCHEME.
Info: C1 SPLITTING OF LONG RANGE ELECTROSTATICS
Info: PLACING ATOMS IN PATCHES BY HYDROGEN GROUPS
Info: RIGID BONDS TO HYDROGEN : ALL
Info:         ERROR TOLERANCE : 1e-08
Info:          MAX ITERATIONS : 100
Info: RIGID WATER USING SETTLE ALGORITHM
Info: RANDOM NUMBER SEED     1743790247
Info: USE HYDROGEN BONDS?    NO
Info: Using AMBER format force field!
Info: AMBER PARM FILE        mobley_7774695.prmtop
Info: COORDINATE PDB         mobley_7774695.pdb
Info: Exclusions will be read from PARM file!
Info: SCNB (VDW SCALING)     2
Info: USING ARITHMETIC MEAN TO COMBINE L-J SIGMA PARAMETERS
Info: BINARY COORDINATES     mobley_7774695_equil.coor
Info: SUMMARY OF PARAMETERS:
Info: 8 BONDS
Info: 8 ANGLES
Info:   8 HARMONIC
Info:   0 COSINE-BASED
Info: 4 DIHEDRAL
Info: 0 IMPROPER
Info: 0 CROSSTERM
Info: 0 VDW
Info: 36 VDW_PAIRS
Info: 0 NBTHOLE_PAIRS
Info: To read alchdata from file: mobley_7774695.pdb
Info: To read alchflag data from column: 5
Info: STRUCTURE SUMMARY:
Info: 2966 ATOMS
Info: 2966 BONDS
Info: 27 ANGLES
Info: 41 DIHEDRALS
Info: 0 IMPROPERS
Info: 0 CROSSTERMS
Info: 3024 EXCLUSIONS
Info: 2958 RIGID BONDS
Info: ALCH: 0 ATOMS TO DISAPPEAR IN FINAL STATE
Info: ALCH: 17 ATOMS TO APPEAR IN FINAL STATE
Info: 5940 DEGREES OF FREEDOM
Info: 991 HYDROGEN GROUPS
Info: 4 ATOMS IN LARGEST HYDROGEN GROUP
Info: 991 MIGRATION GROUPS
Info: 4 ATOMS IN LARGEST MIGRATION GROUP
Info: TOTAL MASS = 17816.9 amu
Info: TOTAL CHARGE = -0.000199948 e
Info: MASS DENSITY = 0.966537 g/cm^3
Info: ATOM DENSITY = 0.0968944 atoms/A^3
Info: ADDED 0 IMPLICIT EXCLUSIONS
Info: NONBONDED TABLE R-SQUARED SPACING: 0.0625
Info: NONBONDED TABLE SIZE: 705 POINTS
Info: REMOVING COM VELOCITY 0.209012 0.127295 -0.0195045
Info: Use 3D box decompostion in PME FFT.
Info: Updated CUDA force table with 4096 elements.
Info: Updated CUDA LJ table with 8 x 8 elements.
Info: Found 16 unique exclusion lists needing 40 bytes
TCL: Running for 1500000 steps
ETITLE: TS BOND ANGLE DIHED IMPRP ELECT VDW BOUNDARY MISC KINETIC TOTAL TEMP POTENTIAL TOTALAVG TEMPAVG PRESSURE GPRESSURE VOLUME PRESSAVG GPRESSAVG
ENERGY: 0 3.4400 5.2348 1.9690 0.0000 -10827.0882 1506.2592 0.0000 0.0000 1767.3301 -7542.8552 299.4481 -9310.1852 -7542.8552 299.4481 297.3368 387.7754 30610.6397 297.3368 387.7754
ENERGY: 300000 3.9314 13.0149 2.9591 0.0000 -10829.5623 1501.1352 0.0000 0.0000 1753.6071 -7554.9146 297.1230 -9308.5217 -7523.8070 300.6062 335.0800 435.5035 30321.3211 -16.0149 53.6950
ENERGY: 600000 1.9479 5.8383 4.5655 0.0000 -10778.1018 1450.0879 0.0000 0.0000 1809.0271 -7506.6352 306.5131 -9315.6623 -7528.6472 301.2016 -203.9336 -164.7149 31052.1114 -88.7715 -25.9180
ENERGY: 900000 3.1192 6.8825 5.4418 0.0000 -10785.3921 1395.6623 0.0000 0.0000 1767.5552 -7606.7310 299.4863 -9374.2862 -7536.0326 301.0949 -281.8846 -284.7577 30287.7621 -67.2985 -17.8407
ENERGY: 1200000 2.9417 9.6714 4.6875 0.0000 -10897.7230 1488.9792 0.0000 0.0000 1759.7788 -7631.6644 298.1687 -9391.4432 -7543.2408 301.4928 230.4275 306.6982 30215.5471 26.3408 83.0197
ENERGY: 1500000 3.6584 4.5091 3.0672 0.0000 -10715.0878 1427.3737 0.0000 0.0000 1815.4167 -7461.0627 307.5957 -9276.4794 -7545.8372 301.0778 -12.3515 63.9008 30557.4195 30.6785 90.4420
TCL: Running FEP window   2: Lambda1 0.95   Lambda2 0.8999999999999999 [dLambda -0.050000000000000044]
TCL: Setting parameter firsttimestep to 0
TCL: Setting parameter alchLambda to 0.95
Info: NONBONDED TABLE R-SQUARED SPACING: 0.0625
Info: NONBONDED TABLE SIZE: 705 POINTS
TCL: Setting parameter alchLambda2 to 0.8999999999999999
Info: NONBONDED TABLE R-SQUARED SPACING: 0.0625
Info: NONBONDED TABLE SIZE: 705 POINTS
TCL: Running for 1500000 steps
ETITLE: TS BOND ANGLE DIHED IMPRP ELECT VDW BOUNDARY MISC KINETIC TOTAL TEMP POTENTIAL TOTALAVG TEMPAVG PRESSURE GPRESSURE VOLUME PRESSAVG GPRESSAVG
ENERGY: 0 3.6584 4.5091 3.0672 0.0000 -10713.5445 1427.3559 0.0000 0.0000 1814.5433 -7460.4107 307.4477 -9274.9540 -7460.4107 307.4477 -30.2657 58.8105 30557.4195 -30.2657 58.8105
ENERGY: 300000 1.7621 3.6867 1.0265 0.0000 -10756.7615 1458.2395 0.0000 0.0000 1751.2158 -7540.8309 296.7178 -9292.0468 -7528.4220 301.9528 -6.8134 47.5988 30773.5245 -213.2917 -137.2000
ENERGY: 600000 2.6073 6.0173 4.7525 0.0000 -10659.4615 1384.8994 0.0000 0.0000 1775.4749 -7485.7101 300.8281 -9261.1850 -7534.5703 300.4765 -211.9469 -202.5143 30617.8197 -119.3813 -71.6935
ENERGY: 900000 2.1366 3.5881 2.8989 0.0000 -10815.8209 1472.8314 0.0000 0.0000 1782.5181 -7551.8478 302.0215 -9334.3659 -7549.9925 300.1871 69.6977 181.4670 30317.0466 -38.0218 20.2303
ENERGY: 1200000 2.3856 6.4510 3.1357 0.0000 -10825.5600 1507.3206 0.0000 0.0000 1781.9434 -7524.3237 301.9241 -9306.2671 -7549.2778 300.0964 654.7296 743.8738 30376.7206 43.2906 97.9667
ENERGY: 1500000 1.6876 6.9488 3.3175 0.0000 -10685.0276 1364.3170 0.0000 0.0000 1794.0018 -7514.7549 303.9673 -9308.7567 -7553.8961 300.9075 -554.4375 -493.7594 30485.1067 14.8962 72.8556
TCL: Running FEP window   3: Lambda1 0.8999999999999999 Lambda2 0.8499999999999999 [dLambda -0.050000000000000044]
TCL: Setting parameter firsttimestep to 0
TCL: Setting parameter alchLambda to 0.8999999999999999
Info: NONBONDED TABLE R-SQUARED SPACING: 0.0625
Info: NONBONDED TABLE SIZE: 705 POINTS
TCL: Setting parameter alchLambda2 to 0.8499999999999999
Info: NONBONDED TABLE R-SQUARED SPACING: 0.0625
Info: NONBONDED TABLE SIZE: 705 POINTS
TCL: Running for 1500000 steps
ETITLE: TS BOND ANGLE DIHED IMPRP ELECT VDW BOUNDARY MISC KINETIC TOTAL TEMP POTENTIAL TOTALAVG TEMPAVG PRESSURE GPRESSURE VOLUME PRESSAVG GPRESSAVG
ENERGY: 0 1.6876 6.9488 3.3175 0.0000 -10683.8511 1364.7325 0.0000 0.0000 1793.1206 -7514.0441 303.8180 -9307.1647 -7514.0441 303.8180 -586.7570 -503.7034 30485.1067 -586.7570 -503.7034
ENERGY: 300000 1.3398 4.4566 6.2757 0.0000 -10902.5592 1538.8251 0.0000 0.0000 1767.4640 -7584.1980 299.4708 -9351.6619 -7526.2329 301.2831 1145.9053 1161.7976 29895.1374 -108.9028 -58.4390
ENERGY: 600000 3.9671 4.5485 4.3162 0.0000 -10715.5209 1396.0728 0.0000 0.0000 1747.1675 -7559.4488 296.0319 -9306.6163 -7543.2078 299.8212 -599.2750 -506.8943 30827.6636 -171.7716 -104.0966
ENERGY: 900000 2.4176 4.8765 4.3922 0.0000 -10825.4280 1437.1880 0.0000 0.0000 1763.8242 -7612.7296 298.8541 -9376.5537 -7555.7069 299.8574 -313.3796 -199.5817 30145.8383 -211.8319 -143.7820
ENERGY: 1200000 2.0970 7.0263 3.8338 0.0000 -10755.1267 1439.9579 0.0000 0.0000 1785.0215 -7517.1901 302.4457 -9302.2116 -7547.7108 300.6418 30.5502 88.0502 30617.3414 -204.2707 -141.4031
ENERGY: 1500000 1.8696 7.2936 3.9404 0.0000 -10748.7310 1473.9478 0.0000 0.0000 1726.2879 -7535.3917 292.4941 -9261.6797 -7544.2567 300.2817 287.0363 394.9930 30340.7641 -151.3430 -82.7571
TCL: Running FEP window   4: Lambda1 0.8499999999999999 Lambda2 0.7999999999999998 [dLambda -0.050000000000000044]
TCL: Setting parameter firsttimestep to 0
TCL: Setting parameter alchLambda to 0.8499999999999999
Info: NONBONDED TABLE R-SQUARED SPACING: 0.0625
Info: NONBONDED TABLE SIZE: 705 POINTS
TCL: Setting parameter alchLambda2 to 0.7999999999999998
Info: NONBONDED TABLE R-SQUARED SPACING: 0.0625
Info: NONBONDED TABLE SIZE: 705 POINTS
TCL: Running for 1500000 steps
ETITLE: TS BOND ANGLE DIHED IMPRP ELECT VDW BOUNDARY MISC KINETIC TOTAL TEMP POTENTIAL TOTALAVG TEMPAVG PRESSURE GPRESSURE VOLUME PRESSAVG GPRESSAVG
ENERGY: 0 1.8696 7.2936 3.9404 0.0000 -10746.9229 1474.3163 0.0000 0.0000 1725.3955 -7534.1076 292.3429 -9259.5030 -7534.1076 292.3429 304.3138 396.2947 30340.7641 304.3138 396.2947
ENERGY: 300000 0.9381 5.5743 4.2295 0.0000 -10644.9812 1447.6624 0.0000 0.0000 1819.3753 -7367.2016 308.2664 -9186.5769 -7529.1996 297.3089 336.1279 361.7256 30759.3149 -7.8417 44.2304
ENERGY: 600000 3.3254 5.3792 3.0682 0.0000 -10738.7606 1392.3138 0.0000 0.0000 1704.7016 -7629.9724 288.8367 -9334.6739 -7535.0627 296.5500 -508.7614 -467.2737 30544.2593 -130.4454 -86.5309
ENERGY: 900000 2.9956 4.3908 1.6695 0.0000 -10762.1881 1425.5579 0.0000 0.0000 1799.2344 -7528.3399 304.8538 -9327.5742 -7537.8707 298.4500 -324.8461 -304.3601 30939.4455 -206.7786 -160.5988
ENERGY: 1200000 1.7407 8.4563 3.1787 0.0000 -10780.6813 1538.4972 0.0000 0.0000 1787.2591 -7441.5493 302.8248 -9228.8084 -7518.6661 300.1719 1214.9398 1257.5546 30283.5963 -0.5255 44.7341
ENERGY: 1500000 1.1182 6.5686 1.1932 0.0000 -10734.1545 1429.4811 0.0000 0.0000 1809.4767 -7486.3168 306.5893 -9295.7934 -7514.3168 300.4631 -117.9538 -60.0302 30534.8170 -21.4193 25.3167
TCL: Running FEP window   5: Lambda1 0.7999999999999998 Lambda2 0.7499999999999998 [dLambda -0.050000000000000044]
TCL: Setting parameter firsttimestep to 0
TCL: Setting parameter alchLambda to 0.7999999999999998
Info: NONBONDED TABLE R-SQUARED SPACING: 0.0625
Info: NONBONDED TABLE SIZE: 705 POINTS
TCL: Setting parameter alchLambda2 to 0.7499999999999998
Info: NONBONDED TABLE R-SQUARED SPACING: 0.0625
Info: NONBONDED TABLE SIZE: 705 POINTS
TCL: Running for 1500000 steps
ETITLE: TS BOND ANGLE DIHED IMPRP ELECT VDW BOUNDARY MISC KINETIC TOTAL TEMP POTENTIAL TOTALAVG TEMPAVG PRESSURE GPRESSURE VOLUME PRESSAVG GPRESSAVG
ENERGY: 0 1.1181 6.5686 1.1932 0.0000 -10732.7917 1429.6289 0.0000 0.0000 1808.5847 -7485.6981 306.4381 -9294.2828 -7485.6981 306.4381 -159.5431 -62.6597 30534.8170 -159.5431 -62.6597
ENERGY: 300000 2.3166 4.5589 5.2301 0.0000 -10682.6570 1369.8174 0.0000 0.0000 1766.2318 -7534.5022 299.2621 -9300.7341 -7551.4219 301.1226 -508.7020 -441.5340 30536.6852 -158.7857 -73.0552
ENERGY: 600000 1.7809 5.9356 5.0708 0.0000 -10724.6562 1368.9252 0.0000 0.0000 1781.7615 -7561.1821 301.8933 -9342.9436 -7548.5271 299.7712 -662.8716 -519.7061 30432.9487 -131.8026 -36.2241
ENERGY: 900000 2.1275 9.4382 5.9145 0.0000 -10635.8925 1367.2118 0.0000 0.0000 1696.5704 -7554.6300 287.4589 -9251.2005 -7535.0335 299.0900 -468.4903 -397.4958 30241.9593 -38.9839 42.2322
ENERGY: 1200000 2.5057 5.5619 3.1920 0.0000 -10629.1770 1373.2789 0.0000 0.0000 1714.0750 -7530.5635 290.4248 -9244.6385 -7527.7361 299.3523 -398.9400 -418.9201 30785.1326 -15.4737 50.5133
ENERGY: 1500000 3.1574 8.2200 5.1888 0.0000 -10876.5320 1539.3182 0.0000 0.0000 1785.2385 -7535.4091 302.4825 -9320.6476 -7531.6002 299.5779 676.1807 755.5492 30658.1523 18.7576 83.6401
TCL: Running FEP window   6: Lambda1 0.7499999999999998 Lambda2 0.6999999999999997 [dLambda -0.050000000000000044]
TCL: Setting parameter firsttimestep to 0
TCL: Setting parameter alchLambda to 0.7499999999999998
Info: NONBONDED TABLE R-SQUARED SPACING: 0.0625
Info: NONBONDED TABLE SIZE: 705 POINTS
TCL: Setting parameter alchLambda2 to 0.6999999999999997
Info: NONBONDED TABLE R-SQUARED SPACING: 0.0625
Info: NONBONDED TABLE SIZE: 705 POINTS
TCL: Running for 1500000 steps
ETITLE: TS BOND ANGLE DIHED IMPRP ELECT VDW BOUNDARY MISC KINETIC TOTAL TEMP POTENTIAL TOTALAVG TEMPAVG PRESSURE GPRESSURE VOLUME PRESSAVG GPRESSAVG
ENERGY: 0 3.1574 8.2200 5.1888 0.0000 -10874.6431 1538.8162 0.0000 0.0000 1784.3234 -7534.9373 302.3274 -9319.2608 -7534.9373 302.3274 664.4916 750.2100 30658.1523 664.4916 750.2100
ENERGY: 300000 2.4623 7.4053 1.9304 0.0000 -10663.8788 1383.6137 0.0000 0.0000 1750.7119 -7517.7553 296.6324 -9268.4672 -7531.3410 299.3255 -375.5635 -243.3793 30213.8925 339.8538 423.2571
ENERGY: 600000 3.5828 6.6656 7.9443 0.0000 -10773.3144 1405.6469 0.0000 0.0000 1784.5562 -7564.9186 302.3668 -9349.4748 -7558.4988 297.9749 -430.4169 -295.8999 30346.8312 31.1742 109.5443
ENERGY: 900000 0.6759 3.2481 1.2496 0.0000 -10818.5476 1490.1031 0.0000 0.0000 1773.5105 -7549.7604 300.4953 -9323.2709 -7561.5075 297.2242 99.7576 110.2829 30887.5468 -8.8833 61.1888
ENERGY: 1200000 1.8536 3.2610 1.4469 0.0000 -10654.4740 1358.8778 0.0000 0.0000 1803.7174 -7485.3173 305.6134 -9289.0347 -7552.4549 298.0082 -704.2374 -611.1480 30679.9821 -19.9063 56.3994
ENERGY: 1500000 5.2190 5.3168 2.4463 0.0000 -10855.9400 1417.5921 0.0000 0.0000 1759.2396 -7666.1263 298.0773 -9425.3659 -7549.7818 298.7014 -620.8968 -518.1864 30232.8880 -72.3242 8.3915
TCL: Running FEP window   7: Lambda1 0.6999999999999997 Lambda2 0.6499999999999997 [dLambda -0.050000000000000044]
TCL: Setting parameter firsttimestep to 0
TCL: Setting parameter alchLambda to 0.6999999999999997
Info: NONBONDED TABLE R-SQUARED SPACING: 0.0625
Info: NONBONDED TABLE SIZE: 705 POINTS
TCL: Setting parameter alchLambda2 to 0.6499999999999997
Info: NONBONDED TABLE R-SQUARED SPACING: 0.0625
Info: NONBONDED TABLE SIZE: 705 POINTS
TCL: Running for 1500000 steps
ETITLE: TS BOND ANGLE DIHED IMPRP ELECT VDW BOUNDARY MISC KINETIC TOTAL TEMP POTENTIAL TOTALAVG TEMPAVG PRESSURE GPRESSURE VOLUME PRESSAVG GPRESSAVG
ENERGY: 0 5.2190 5.3168 2.4463 0.0000 -10855.3052 1418.2452 0.0000 0.0000 1758.3828 -7665.6951 297.9321 -9424.0779 -7665.6951 297.9321 -614.9161 -516.4803 30232.8880 -614.9161 -516.4803
ENERGY: 300000 5.1349 4.7057 3.9841 0.0000 -10833.6204 1504.3675 0.0000 0.0000 1752.9755 -7562.4527 297.0160 -9315.4282 -7571.5859 299.0604 468.4317 517.5554 30108.3458 -357.3091 -292.6907
ENERGY: 600000 2.1813 3.0128 4.1702 0.0000 -10742.0296 1485.9965 0.0000 0.0000 1791.4685 -7455.2003 303.5380 -9246.6688 -7537.3776 299.2704 242.7203 313.7996 30749.4335 -74.9307 -10.2973
ENERGY: 900000 1.5764 5.5143 3.1474 0.0000 -10882.9727 1508.2337 0.0000 0.0000 1752.9197 -7611.5814 297.0065 -9364.5010 -7552.7108 297.9279 501.6087 493.9025 30156.2864 2.1354 58.2709
ENERGY: 1200000 4.4250 4.9495 2.5296 0.0000 -10823.3216 1478.0043 0.0000 0.0000 1785.5576 -7547.8556 302.5365 -9333.4132 -7545.4625 298.4182 282.5570 358.2600 30092.7868 -77.8333 -24.0050
ENERGY: 1500000 1.5109 9.5091 2.4269 0.0000 -10733.0047 1485.4485 0.0000 0.0000 1768.9584 -7465.1509 299.7240 -9234.1093 -7544.2615 298.4990 493.6470 554.2197 30541.5952 39.7014 85.4515
TCL: Running FEP window   8: Lambda1 0.6499999999999997 Lambda2 0.5999999999999996 [dLambda -0.050000000000000044]
TCL: Setting parameter firsttimestep to 0
TCL: Setting parameter alchLambda to 0.6499999999999997
Info: NONBONDED TABLE R-SQUARED SPACING: 0.0625
Info: NONBONDED TABLE SIZE: 705 POINTS
TCL: Setting parameter alchLambda2 to 0.5999999999999996
Info: NONBONDED TABLE R-SQUARED SPACING: 0.0625
Info: NONBONDED TABLE SIZE: 705 POINTS
TCL: Running for 1500000 steps
ETITLE: TS BOND ANGLE DIHED IMPRP ELECT VDW BOUNDARY MISC KINETIC TOTAL TEMP POTENTIAL TOTALAVG TEMPAVG PRESSURE GPRESSURE VOLUME PRESSAVG GPRESSAVG
ENERGY: 0 1.5109 9.5091 2.4269 0.0000 -10731.6906 1485.6601 0.0000 0.0000 1768.0482 -7464.5354 299.5698 -9232.5836 -7464.5354 299.5698 472.7299 551.4984 30541.5952 472.7299 551.4984
ENERGY: 300000 0.7280 5.5483 3.4252 0.0000 -10669.3328 1383.5493 0.0000 0.0000 1812.3170 -7463.7649 307.0705 -9276.0819 -7469.2038 303.8892 -394.1049 -344.9290 30597.3870 -117.0119 -56.3505
ENERGY: 600000 0.6235 2.2586 2.1033 0.0000 -10908.3381 1508.7579 0.0000 0.0000 1747.6046 -7646.9902 296.1059 -9394.5948 -7522.5539 300.8550 452.6355 512.1704 30041.3310 47.6740 101.2184
ENERGY: 900000 3.7019 7.4765 3.7917 0.0000 -10710.7419 1424.3434 0.0000 0.0000 1786.4289 -7484.9996 302.6842 -9271.4285 -7522.1258 299.2031 -40.6227 71.6711 30285.7507 20.6154 74.4986
ENERGY: 1200000 2.4339 2.5631 5.6828 0.0000 -10679.0199 1371.3471 0.0000 0.0000 1782.2012 -7514.7919 301.9678 -9296.9930 -7527.3064 299.2675 -469.8381 -380.8253 30164.8521 -10.0735 46.5723
ENERGY: 1500000 2.3237 4.2564 8.1981 0.0000 -10508.5822 1258.0912 0.0000 0.0000 1747.2261 -7488.4866 296.0418 -9235.7127 -7527.7390 298.9503 -1348.1099 -1268.4056 31034.8098 -181.0013 -126.1555
TCL: Running FEP window   9: Lambda1 0.5999999999999996 Lambda2 0.5499999999999996 [dLambda -0.050000000000000044]
TCL: Setting parameter firsttimestep to 0
TCL: Setting parameter alchLambda to 0.5999999999999996
Info: NONBONDED TABLE R-SQUARED SPACING: 0.0625
Info: NONBONDED TABLE SIZE: 705 POINTS
TCL: Setting parameter alchLambda2 to 0.5499999999999996
Info: NONBONDED TABLE R-SQUARED SPACING: 0.0625
Info: NONBONDED TABLE SIZE: 705 POINTS
TCL: Running for 1500000 steps
ETITLE: TS BOND ANGLE DIHED IMPRP ELECT VDW BOUNDARY MISC KINETIC TOTAL TEMP POTENTIAL TOTALAVG TEMPAVG PRESSURE GPRESSURE VOLUME PRESSAVG GPRESSAVG
ENERGY: 0 2.3237 4.2564 8.1981 0.0000 -10508.1717 1258.0415 0.0000 0.0000 1746.3555 -7488.9963 295.8943 -9235.3519 -7488.9963 295.8943 -1356.9990 -1275.1006 31034.8098 -1356.9990 -1275.1006
ENERGY: 300000 1.4447 7.7464 2.2969 0.0000 -10697.6523 1395.1290 0.0000 0.0000 1748.1405 -7542.8947 296.1967 -9291.0353 -7512.9332 299.0328 -408.6071 -319.6232 30365.9741 -516.3506 -454.7572
ENERGY: 600000 1.5834 5.6454 5.8897 0.0000 -10661.3076 1342.6745 0.0000 0.0000 1814.0253 -7491.4894 307.3600 -9305.5147 -7526.4993 298.2982 -998.0325 -964.9350 30937.1772 -326.0714 -256.2285
ENERGY: 900000 3.2983 4.9309 2.7633 0.0000 -10747.3235 1480.1004 0.0000 0.0000 1757.2352 -7498.9955 297.7377 -9256.2306 -7532.6010 298.9390 288.7183 383.6491 30515.7984 -251.1278 -183.0279
ENERGY: 1200000 2.0011 9.4164 2.6006 0.0000 -10723.9059 1443.9210 0.0000 0.0000 1754.8714 -7511.0954 297.3372 -9265.9667 -7518.7074 300.8359 73.5941 125.2694 30564.5317 -156.2055 -87.7251
ENERGY: 1500000 3.2715 10.3776 4.0175 0.0000 -10885.3426 1489.2696 0.0000 0.0000 1824.4021 -7554.0044 309.1181 -9378.4064 -7516.5252 301.4000 123.1577 179.1267 30490.9488 -167.4964 -98.8866
TCL: Running FEP window  10: Lambda1 0.5499999999999996 Lambda2 0.4999999999999996 [dLambda -0.04999999999999999]
TCL: Setting parameter firsttimestep to 0
TCL: Setting parameter alchLambda to 0.5499999999999996
Info: NONBONDED TABLE R-SQUARED SPACING: 0.0625
Info: NONBONDED TABLE SIZE: 705 POINTS
TCL: Setting parameter alchLambda2 to 0.4999999999999996
Info: NONBONDED TABLE R-SQUARED SPACING: 0.0625
Info: NONBONDED TABLE SIZE: 705 POINTS
TCL: Running for 1500000 steps
ETITLE: TS BOND ANGLE DIHED IMPRP ELECT VDW BOUNDARY MISC KINETIC TOTAL TEMP POTENTIAL TOTALAVG TEMPAVG PRESSURE GPRESSURE VOLUME PRESSAVG GPRESSAVG
ENERGY: 0 3.2715 10.3776 4.0175 0.0000 -10884.3631 1489.5461 0.0000 0.0000 1823.5225 -7553.6279 308.9691 -9377.1504 -7553.6279 308.9691 108.5765 176.7537 30490.9488 108.5765 176.7537
ENERGY: 300000 6.0252 3.8880 2.8593 0.0000 -10685.2417 1397.5691 0.0000 0.0000 1816.4484 -7458.4516 307.7705 -9274.9000 -7488.5546 305.7902 -173.7285 -74.9627 30182.9274 125.1378 190.4757
ENERGY: 600000 4.3405 6.5416 4.2224 0.0000 -10822.7262 1516.7629 0.0000 0.0000 1742.6775 -7548.1814 295.2711 -9290.8589 -7498.7801 304.3830 399.6981 438.4889 30602.6096 72.3876 126.4005
ENERGY: 900000 1.4531 5.9807 4.8345 0.0000 -10713.3417 1422.6820 0.0000 0.0000 1816.6686 -7461.7227 307.8078 -9278.3913 -7501.5337 304.6432 -149.7566 -99.8542 30582.7047 56.7187 98.9197
ENERGY: 1200000 1.3893 5.9928 1.7420 0.0000 -10825.4676 1451.4782 0.0000 0.0000 1739.8757 -7624.9895 294.7964 -9364.8653 -7521.2735 302.9575 -42.7280 40.8414 30343.8290 130.2958 173.0202
ENERGY: 1500000 3.1920 4.9243 5.6259 0.0000 -10742.4353 1445.8603 0.0000 0.0000 1755.4668 -7527.3660 297.4381 -9282.8328 -7524.0613 302.2642 -111.8533 -56.2813 30609.6754 149.4785 194.6410
TCL: Running FEP window  11: Lambda1 0.4999999999999996 Lambda2 0.4499999999999996 [dLambda -0.04999999999999999]
TCL: Setting parameter firsttimestep to 0
TCL: Setting parameter alchLambda to 0.4999999999999996
Info: NONBONDED TABLE R-SQUARED SPACING: 0.0625
Info: NONBONDED TABLE SIZE: 705 POINTS
TCL: Setting parameter alchLambda2 to 0.4499999999999996
Info: NONBONDED TABLE R-SQUARED SPACING: 0.0625
Info: NONBONDED TABLE SIZE: 705 POINTS
TCL: Running for 1500000 steps
ETITLE: TS BOND ANGLE DIHED IMPRP ELECT VDW BOUNDARY MISC KINETIC TOTAL TEMP POTENTIAL TOTALAVG TEMPAVG PRESSURE GPRESSURE VOLUME PRESSAVG GPRESSAVG
ENERGY: 0 3.1920 4.9243 5.6259 0.0000 -10742.4756 1446.0326 0.0000 0.0000 1754.5949 -7528.1059 297.2904 -9282.7008 -7528.1059 297.2904 -130.6456 -62.4099 30609.6754 -130.6456 -62.4099
ENERGY: 300000 3.9020 6.9865 3.4573 0.0000 -10589.4837 1318.9487 0.0000 0.0000 1736.9679 -7519.2214 294.3037 -9256.1892 -7497.5622 299.1867 -741.8029 -690.0391 30122.9324 51.3755 119.5333
ENERGY: 600000 1.8355 5.4455 4.5990 0.0000 -10794.3421 1468.7018 0.0000 0.0000 1744.8767 -7568.8837 295.6437 -9313.7603 -7498.7210 299.5825 236.1539 231.9278 30393.3904 -5.1916 57.7756
ENERGY: 900000 1.5711 4.0353 1.8250 0.0000 -10723.3913 1440.3208 0.0000 0.0000 1807.6062 -7468.0329 306.2723 -9275.6391 -7504.6872 299.3527 232.6180 248.5249 30420.6829 -139.1869 -78.1785
ENERGY: 1200000 4.1059 3.9304 4.4150 0.0000 -10731.0488 1399.4915 0.0000 0.0000 1770.4656 -7548.6404 299.9794 -9319.1060 -7504.6514 299.9754 -187.2631 -57.0928 30239.9322 -196.7988 -125.1940
ENERGY: 1500000 3.8017 5.3157 5.1751 0.0000 -10701.8764 1439.2563 0.0000 0.0000 1781.7998 -7466.5276 301.8998 -9248.3274 -7516.4428 299.7331 -33.7122 26.5552 30462.5298 -170.0476 -100.1696
TCL: Running FEP window  12: Lambda1 0.4499999999999996 Lambda2 0.39999999999999963 [dLambda -0.04999999999999999]
TCL: Setting parameter firsttimestep to 0
TCL: Setting parameter alchLambda to 0.4499999999999996
Info: NONBONDED TABLE R-SQUARED SPACING: 0.0625
Info: NONBONDED TABLE SIZE: 705 POINTS
TCL: Setting parameter alchLambda2 to 0.39999999999999963
Info: NONBONDED TABLE R-SQUARED SPACING: 0.0625
Info: NONBONDED TABLE SIZE: 705 POINTS
TCL: Running for 1500000 steps
ETITLE: TS BOND ANGLE DIHED IMPRP ELECT VDW BOUNDARY MISC KINETIC TOTAL TEMP POTENTIAL TOTALAVG TEMPAVG PRESSURE GPRESSURE VOLUME PRESSAVG GPRESSAVG
ENERGY: 0 3.8017 5.3157 5.1752 0.0000 -10701.8769 1439.6901 0.0000 0.0000 1780.9251 -7466.9691 301.7516 -9247.8942 -7466.9691 301.7516 -53.3820 25.3994 30462.5298 -53.3820 25.3994
ENERGY: 300000 3.5764 4.4423 7.1450 0.0000 -10769.2984 1476.4204 0.0000 0.0000 1777.5465 -7500.1678 301.1791 -9277.7143 -7519.2668 299.5310 77.0516 101.8152 30818.5960 -27.1207 45.9505
ENERGY: 600000 3.4310 4.5412 4.5033 0.0000 -10628.9704 1374.2634 0.0000 0.0000 1788.2777 -7453.9539 302.9974 -9242.2315 -7511.2798 298.6992 -588.6800 -491.9171 30980.0271 -129.8906 -67.7841
ENERGY: 900000 2.1037 6.1550 2.4548 0.0000 -10702.0616 1403.1125 0.0000 0.0000 1789.9102 -7498.3254 303.2740 -9288.2356 -7516.6828 299.5711 -557.2838 -519.4740 30759.2553 -105.5880 -45.9546
ENERGY: 1200000 2.4639 6.6580 1.6093 0.0000 -10790.9887 1395.8044 0.0000 0.0000 1784.5397 -7599.9134 302.3640 -9384.4531 -7512.7936 300.3162 -731.7834 -636.1851 30629.9292 -139.8398 -83.3252
ENERGY: 1500000 2.2874 3.4976 3.2549 0.0000 -10777.9867 1480.1728 0.0000 0.0000 1808.9954 -7479.7787 306.5077 -9288.7741 -7510.6549 300.6151 241.1523 308.7484 30722.8013 -79.1668 -22.5868
TCL: Running FEP window  13: Lambda1 0.39999999999999963 Lambda2 0.34999999999999964 [dLambda -0.04999999999999999]
TCL: Setting parameter firsttimestep to 0
TCL: Setting parameter alchLambda to 0.39999999999999963
Info: NONBONDED TABLE R-SQUARED SPACING: 0.0625
Info: NONBONDED TABLE SIZE: 705 POINTS
TCL: Setting parameter alchLambda2 to 0.34999999999999964
Info: NONBONDED TABLE R-SQUARED SPACING: 0.0625
Info: NONBONDED TABLE SIZE: 705 POINTS
TCL: Running for 1500000 steps
ETITLE: TS BOND ANGLE DIHED IMPRP ELECT VDW BOUNDARY MISC KINETIC TOTAL TEMP POTENTIAL TOTALAVG TEMPAVG PRESSURE GPRESSURE VOLUME PRESSAVG GPRESSAVG
ENERGY: 0 2.2874 3.4976 3.2549 0.0000 -10777.9875 1480.5006 0.0000 0.0000 1808.1136 -7480.3334 306.3583 -9288.4470 -7480.3334 306.3583 237.7444 305.4545 30722.8013 237.7444 305.4545
ENERGY: 300000 2.3825 5.7714 2.9497 0.0000 -10564.7377 1331.9619 0.0000 0.0000 1774.4925 -7447.1796 300.6617 -9221.6721 -7511.1039 300.6684 -584.6063 -541.1360 30677.3414 52.8689 105.4218
ENERGY: 600000 3.4858 10.9830 2.3441 0.0000 -10762.5453 1431.8763 0.0000 0.0000 1739.1784 -7574.6777 294.6782 -9313.8561 -7515.5155 300.9617 -159.0715 -105.5496 30594.4822 150.7688 199.0201
ENERGY: 900000 1.9369 2.3198 3.3347 0.0000 -10697.1777 1319.1083 0.0000 0.0000 1786.0999 -7584.3781 302.6284 -9370.4780 -7529.5504 301.1847 -1087.4684 -1068.3767 30606.5918 -13.2129 37.7656
ENERGY: 1200000 6.7236 5.7071 4.3165 0.0000 -10714.0379 1398.7322 0.0000 0.0000 1832.0360 -7466.5224 310.4116 -9298.5584 -7522.1412 301.9648 -218.7120 -175.4742 30151.6938 28.1288 75.8392
ENERGY: 1500000 2.7115 4.9490 3.4062 0.0000 -10765.3728 1450.5431 0.0000 0.0000 1810.4242 -7493.3387 306.7498 -9303.7629 -7522.1878 302.2415 157.8474 253.5929 30296.5995 -26.2828 24.7793
TCL: Running FEP window  14: Lambda1 0.34999999999999964 Lambda2 0.29999999999999966 [dLambda -0.04999999999999999]
TCL: Setting parameter firsttimestep to 0
TCL: Setting parameter alchLambda to 0.34999999999999964
Info: NONBONDED TABLE R-SQUARED SPACING: 0.0625
Info: NONBONDED TABLE SIZE: 705 POINTS
TCL: Setting parameter alchLambda2 to 0.29999999999999966
Info: NONBONDED TABLE R-SQUARED SPACING: 0.0625
Info: NONBONDED TABLE SIZE: 705 POINTS
TCL: Running for 1500000 steps
ETITLE: TS BOND ANGLE DIHED IMPRP ELECT VDW BOUNDARY MISC KINETIC TOTAL TEMP POTENTIAL TOTALAVG TEMPAVG PRESSURE GPRESSURE VOLUME PRESSAVG GPRESSAVG
ENERGY: 0 2.7115 4.9490 3.4062 0.0000 -10765.3728 1451.0043 0.0000 0.0000 1809.5393 -7493.7624 306.5999 -9303.3018 -7493.7624 306.5999 174.9726 253.7216 30296.5995 174.9726 253.7216
ENERGY: 300000 2.1625 5.1816 4.4567 0.0000 -10786.3895 1399.4967 0.0000 0.0000 1788.1845 -7586.9075 302.9816 -9375.0920 -7546.3826 304.1597 -351.6018 -319.1735 30238.2645 52.1820 113.0291
ENERGY: 600000 3.1202 5.9701 1.9299 0.0000 -10695.0532 1420.2256 0.0000 0.0000 1785.7954 -7478.0121 302.5768 -9263.8074 -7523.2420 304.4799 -150.8714 -94.9390 30327.4433 -3.2747 52.1347
ENERGY: 900000 2.9551 4.5286 3.6514 0.0000 -10768.4303 1498.2874 0.0000 0.0000 1753.1180 -7505.8898 297.0401 -9259.0078 -7541.6826 301.5964 611.3657 668.8832 30349.7369 -14.0437 48.1313
ENERGY: 1200000 3.1351 2.1242 3.4006 0.0000 -10836.6034 1473.9561 0.0000 0.0000 1832.1958 -7521.7917 310.4387 -9353.9875 -7541.2795 301.4947 153.4228 261.8961 30130.7506 123.5974 185.1271
ENERGY: 1500000 1.9958 3.2364 4.5001 0.0000 -10758.3614 1402.5132 0.0000 0.0000 1771.1788 -7574.9371 300.1002 -9346.1160 -7539.0805 301.6426 -340.0348 -275.7441 30347.2393 82.4716 143.7422
TCL: Running FEP window  15: Lambda1 0.29999999999999966 Lambda2 0.24999999999999967 [dLambda -0.04999999999999999]
TCL: Setting parameter firsttimestep to 0
TCL: Setting parameter alchLambda to 0.29999999999999966
Info: NONBONDED TABLE R-SQUARED SPACING: 0.0625
Info: NONBONDED TABLE SIZE: 705 POINTS
TCL: Setting parameter alchLambda2 to 0.24999999999999967
Info: NONBONDED TABLE R-SQUARED SPACING: 0.0625
Info: NONBONDED TABLE SIZE: 705 POINTS
TCL: Running for 1500000 steps
ETITLE: TS BOND ANGLE DIHED IMPRP ELECT VDW BOUNDARY MISC KINETIC TOTAL TEMP POTENTIAL TOTALAVG TEMPAVG PRESSURE GPRESSURE VOLUME PRESSAVG GPRESSAVG
ENERGY: 0 1.9958 3.2364 4.5001 0.0000 -10758.3602 1402.2770 0.0000 0.0000 1770.3114 -7576.0395 299.9533 -9346.3509 -7576.0395 299.9533 -379.6505 -282.8588 30347.2393 -379.6505 -282.8588
ENERGY: 300000 2.1776 4.7080 3.2257 0.0000 -10588.7576 1273.9767 0.0000 0.0000 1780.4822 -7524.1874 301.6766 -9304.6696 -7525.5130 300.4444 -1305.4723 -1255.0494 30535.2452 -444.9370 -368.5387
ENERGY: 600000 3.6763 3.3819 3.0235 0.0000 -10750.2209 1327.2858 0.0000 0.0000 1761.7704 -7651.0829 298.5061 -9412.8533 -7537.1054 300.2882 -1375.0855 -1282.5448 30625.8935 -592.9225 -520.1586
ENERGY: 900000 1.3392 4.7637 3.5310 0.0000 -10799.2542 1520.3344 0.0000 0.0000 1805.3615 -7463.9244 305.8920 -9269.2860 -7525.4803 301.4050 903.2257 939.0393 30324.8204 -284.9096 -209.4528
ENERGY: 1200000 1.8951 4.4358 3.5450 0.0000 -10926.3925 1549.2648 0.0000 0.0000 1816.7333 -7550.5185 307.8188 -9367.2518 -7517.1788 301.8546 733.0544 863.5912 30158.7459 -111.3914 -32.2501
ENERGY: 1500000 2.7453 4.6236 2.8809 0.0000 -10691.8914 1433.6782 0.0000 0.0000 1745.0439 -7502.9196 295.6721 -9247.9635 -7528.8418 301.0279 6.5368 70.8215 30573.6904 -128.4964 -49.5328
TCL: Running FEP window  16: Lambda1 0.24999999999999967 Lambda2 0.19999999999999968 [dLambda -0.04999999999999999]
TCL: Setting parameter firsttimestep to 0
TCL: Setting parameter alchLambda to 0.24999999999999967
Info: NONBONDED TABLE R-SQUARED SPACING: 0.0625
Info: NONBONDED TABLE SIZE: 705 POINTS
TCL: Setting parameter alchLambda2 to 0.19999999999999968
Info: NONBONDED TABLE R-SQUARED SPACING: 0.0625
Info: NONBONDED TABLE SIZE: 705 POINTS
TCL: Running for 1500000 steps
ETITLE: TS BOND ANGLE DIHED IMPRP ELECT VDW BOUNDARY MISC KINETIC TOTAL TEMP POTENTIAL TOTALAVG TEMPAVG PRESSURE GPRESSURE VOLUME PRESSAVG GPRESSAVG
ENERGY: 0 2.7453 4.6236 2.8809 0.0000 -10691.8930 1433.4971 0.0000 0.0000 1744.1575 -7503.9886 295.5219 -9248.1461 -7503.9886 295.5219 -15.1310 64.8895 30573.6904 -15.1310 64.8895
ENERGY: 300000 1.4278 4.2453 6.8458 0.0000 -10795.1622 1485.0591 0.0000 0.0000 1761.9362 -7535.6480 298.5342 -9297.5842 -7505.8718 300.8128 416.9245 474.1658 29990.1913 82.6550 168.2586
ENERGY: 600000 1.2509 4.5744 4.0304 0.0000 -10763.5066 1496.4496 0.0000 0.0000 1797.0251 -7460.1761 304.4795 -9257.2012 -7496.0425 302.3020 618.3952 701.2097 30466.2299 -16.0426 54.0942
ENERGY: 900000 2.3526 4.7387 4.9638 0.0000 -10844.5435 1429.1562 0.0000 0.0000 1766.6247 -7636.7076 299.3286 -9403.3322 -7534.2576 300.8250 -332.3790 -263.0577 30127.5436 55.2601 118.3427
ENERGY: 1200000 2.2953 4.6609 2.8813 0.0000 -10805.8824 1449.7589 0.0000 0.0000 1782.1188 -7564.1672 301.9539 -9346.2860 -7542.1911 300.3210 317.4916 374.3285 29466.7316 -3.6935 59.6572
ENERGY: 1500000 3.9467 6.4899 1.9810 0.0000 -10762.1422 1418.9360 0.0000 0.0000 1794.6870 -7536.1016 304.0834 -9330.7887 -7539.2319 300.8970 -393.1993 -272.7483 30309.9777 -35.2880 31.3726
TCL: Running FEP window  17: Lambda1 0.19999999999999968 Lambda2 0.1499999999999997 [dLambda -0.04999999999999999]
TCL: Setting parameter firsttimestep to 0
TCL: Setting parameter alchLambda to 0.19999999999999968
Info: NONBONDED TABLE R-SQUARED SPACING: 0.0625
Info: NONBONDED TABLE SIZE: 705 POINTS
TCL: Setting parameter alchLambda2 to 0.1499999999999997
Info: NONBONDED TABLE R-SQUARED SPACING: 0.0625
Info: NONBONDED TABLE SIZE: 705 POINTS
TCL: Running for 1500000 steps
ETITLE: TS BOND ANGLE DIHED IMPRP ELECT VDW BOUNDARY MISC KINETIC TOTAL TEMP POTENTIAL TOTALAVG TEMPAVG PRESSURE GPRESSURE VOLUME PRESSAVG GPRESSAVG
ENERGY: 0 3.9467 6.4899 1.9810 0.0000 -10762.1420 1419.1184 0.0000 0.0000 1793.8004 -7536.8056 303.9331 -9330.6060 -7536.8056 303.9331 -362.3792 -276.4538 30309.9777 -362.3792 -276.4538
ENERGY: 300000 1.8041 4.3518 4.8065 0.0000 -10777.5318 1485.9333 0.0000 0.0000 1753.2227 -7527.4133 297.0578 -9280.6361 -7525.3822 298.1132 98.1144 164.3267 30713.7488 189.9622 230.6353
ENERGY: 600000 2.1076 5.9146 4.4818 0.0000 -10686.6254 1371.9790 0.0000 0.0000 1762.8696 -7539.2730 298.6924 -9302.1426 -7541.2201 297.9311 -814.8779 -728.8337 30353.4088 -139.1628 -90.7103
ENERGY: 900000 3.7399 5.8081 1.9569 0.0000 -10718.0032 1419.3675 0.0000 0.0000 1768.6102 -7518.5206 299.6650 -9287.1308 -7540.4539 298.1789 -610.7752 -515.2707 31054.8581 -211.0760 -153.4631
ENERGY: 1200000 0.7310 7.5433 1.7355 0.0000 -10646.5948 1356.5039 0.0000 0.0000 1753.4326 -7526.6485 297.0934 -9280.0811 -7539.9003 297.8004 -832.6446 -844.1943 30820.7310 -152.1435 -103.0785
ENERGY: 1500000 1.1864 6.6541 2.7044 0.0000 -10843.3269 1506.5216 0.0000 0.0000 1763.8363 -7562.4241 298.8562 -9326.2604 -7546.0847 298.4055 508.5970 555.2924 29971.9349 -49.6312 6.6928
TCL: Running FEP window  18: Lambda1 0.1499999999999997 Lambda2 0.09999999999999969 [dLambda -0.05 ]
TCL: Setting parameter firsttimestep to 0
TCL: Setting parameter alchLambda to 0.1499999999999997
Info: NONBONDED TABLE R-SQUARED SPACING: 0.0625
Info: NONBONDED TABLE SIZE: 705 POINTS
TCL: Setting parameter alchLambda2 to 0.09999999999999969
Info: NONBONDED TABLE R-SQUARED SPACING: 0.0625
Info: NONBONDED TABLE SIZE: 705 POINTS
TCL: Running for 1500000 steps
ETITLE: TS BOND ANGLE DIHED IMPRP ELECT VDW BOUNDARY MISC KINETIC TOTAL TEMP POTENTIAL TOTALAVG TEMPAVG PRESSURE GPRESSURE VOLUME PRESSAVG GPRESSAVG
ENERGY: 0 1.1864 6.6541 2.7044 0.0000 -10843.3256 1506.6008 0.0000 0.0000 1762.9403 -7563.2396 298.7043 -9326.1799 -7563.2396 298.7043 470.7845 553.3422 29971.9349 470.7845 553.3422
ENERGY: 300000 2.7123 4.3619 5.5276 0.0000 -10531.5960 1306.9013 0.0000 0.0000 1781.8436 -7430.2494 301.9072 -9212.0930 -7528.6411 298.2063 -1065.4248 -991.0094 30815.2587 -215.4709 -173.2056
ENERGY: 600000 2.4305 5.6465 3.3493 0.0000 -10722.7167 1408.3098 0.0000 0.0000 1712.8490 -7590.1315 290.2171 -9302.9805 -7546.7800 299.4568 -422.2729 -419.3604 30498.7528 -177.0478 -138.7573
ENERGY: 900000 3.4139 5.7261 4.6832 0.0000 -10771.1476 1451.6902 0.0000 0.0000 1772.5925 -7533.0416 300.3398 -9305.6341 -7539.7020 299.7872 -8.3961 58.7826 30164.4067 -70.1131 -25.0914
ENERGY: 1200000 2.0969 5.5984 0.4967 0.0000 -10859.1645 1509.0034 0.0000 0.0000 1755.7947 -7586.1743 297.4936 -9341.9690 -7535.7345 300.2221 512.5594 579.3251 29925.9902 -47.5139 11.7569
ENERGY: 1500000 2.2294 6.3786 4.3427 0.0000 -10916.1697 1520.8797 0.0000 0.0000 1731.9605 -7650.3790 293.4553 -9382.3395 -7534.8902 299.9692 -2.0714 71.9794 30561.3821 -28.6775 31.8894
TCL: Running FEP window  19: Lambda1 0.09999999999999969 Lambda2 0.049999999999999684 [dLambda -0.05 ]
TCL: Setting parameter firsttimestep to 0
TCL: Setting parameter alchLambda to 0.09999999999999969
Info: NONBONDED TABLE R-SQUARED SPACING: 0.0625
Info: NONBONDED TABLE SIZE: 705 POINTS
TCL: Setting parameter alchLambda2 to 0.049999999999999684
Info: NONBONDED TABLE R-SQUARED SPACING: 0.0625
Info: NONBONDED TABLE SIZE: 705 POINTS
TCL: Running for 1500000 steps
ETITLE: TS BOND ANGLE DIHED IMPRP ELECT VDW BOUNDARY MISC KINETIC TOTAL TEMP POTENTIAL TOTALAVG TEMPAVG PRESSURE GPRESSURE VOLUME PRESSAVG GPRESSAVG
ENERGY: 0 2.2294 6.3786 4.3427 0.0000 -10916.1693 1520.8851 0.0000 0.0000 1731.1110 -7651.2226 293.3113 -9382.3336 -7651.2226 293.3113 -22.1896 67.4482 30561.3821 -22.1896 67.4482
ENERGY: 300000 1.5098 4.5707 4.9226 0.0000 -10813.4728 1447.4982 0.0000 0.0000 1827.6450 -7527.3265 309.6676 -9354.9715 -7544.3788 298.8216 -111.3459 -69.4685 30339.3402 76.2934 136.8375
ENERGY: 600000 2.4698 6.3427 1.9164 0.0000 -10664.1052 1344.7775 0.0000 0.0000 1757.8443 -7550.7545 297.8409 -9308.5987 -7551.8712 298.7246 -855.7121 -845.9946 30437.4007 -8.6498 43.7315
ENERGY: 900000 3.1470 4.7326 4.9206 0.0000 -10788.9512 1466.8852 0.0000 0.0000 1823.7640 -7485.5018 309.0100 -9309.2658 -7550.9279 298.0254 294.8956 324.6337 30342.0268 113.9166 163.9038
ENERGY: 1200000 3.3411 4.2067 3.1083 0.0000 -10810.6014 1467.7385 0.0000 0.0000 1782.3488 -7549.8579 301.9928 -9332.2068 -7537.5124 298.6336 160.5135 196.6437 30244.6692 81.9003 127.9036
ENERGY: 1500000 2.1321 5.0855 3.8688 0.0000 -10675.3456 1406.4463 0.0000 0.0000 1796.9145 -7460.8984 304.4608 -9257.8129 -7524.9460 299.0058 32.8939 68.4287 29866.8567 74.4372 125.6154
TCL: Running FEP window  20: Lambda1 0.049999999999999684 Lambda2 0.0    [dLambda -0.049999999999999684]
TCL: Setting parameter firsttimestep to 0
TCL: Setting parameter alchLambda to 0.049999999999999684
Info: NONBONDED TABLE R-SQUARED SPACING: 0.0625
Info: NONBONDED TABLE SIZE: 705 POINTS
TCL: Setting parameter alchLambda2 to 0.0
Info: NONBONDED TABLE R-SQUARED SPACING: 0.0625
Info: NONBONDED TABLE SIZE: 705 POINTS
TCL: Running for 1500000 steps
ETITLE: TS BOND ANGLE DIHED IMPRP ELECT VDW BOUNDARY MISC KINETIC TOTAL TEMP POTENTIAL TOTALAVG TEMPAVG PRESSURE GPRESSURE VOLUME PRESSAVG GPRESSAVG
ENERGY: 0 2.1321 5.0855 3.8688 0.0000 -10675.3445 1406.6657 0.0000 0.0000 1795.9992 -7461.5931 304.3057 -9257.5923 -7461.5931 304.3057 1.3897 65.0956 29866.8567 1.3897 65.0956
ENERGY: 300000 2.4881 5.7928 3.3270 0.0000 -10780.9619 1459.2095 0.0000 0.0000 1785.3076 -7524.8369 302.4942 -9310.1446 -7519.1159 302.6052 -76.2755 30.0277 30258.1159 -18.3517 63.9759
ENERGY: 600000 0.9564 5.1929 4.6306 0.0000 -10885.5726 1554.8800 0.0000 0.0000 1770.9398 -7548.9730 300.0597 -9319.9128 -7527.8738 300.4275 1030.4528 1041.2651 30305.0406 100.7375 178.5473
ENERGY: 900000 2.1969 9.7545 2.9447 0.0000 -10786.1560 1445.8534 0.0000 0.0000 1755.8250 -7569.5816 297.4988 -9325.4066 -7521.0720 300.4923 -240.8651 -186.3064 30548.3070 48.2322 125.6457
ENERGY: 1200000 1.4220 8.1647 3.6430 0.0000 -10742.8388 1466.7374 0.0000 0.0000 1747.3340 -7515.5378 296.0601 -9262.8718 -7516.9603 301.0015 222.1652 361.2792 30185.7667 61.8006 135.4015
ENERGY: 1500000 3.8879 3.7556 5.3457 0.0000 -10731.8959 1361.8666 0.0000 0.0000 1791.2910 -7565.7491 303.5080 -9357.0401 -7518.8976 301.5250 -938.1120 -927.3724 30161.3381 -44.2237 23.4259
TCL: Exiting due to exit command.
