Info: SIMULATION PARAMETERS:
Info: TIMESTEP               2
Info: NUMBER OF STEPS        0
Info: STEPS PER CYCLE        10
Info: PERIODIC CELL BASIS 1  31.9114 0 0
Info: PERIODIC CELL BASIS 2  0 29.9931 0
Info: PERIODIC CELL BASIS 3  0 0 31.8393
Info: PERIODIC CELL CENTER   0 0 0
Info: WRAPPING WATERS AROUND PERIODIC BOUNDARIES ON OUTPUT.
Info: WRAPPING ALL CLUSTERS AROUND PERIODIC BOUNDARIES ON OUTPUT.
Info: FIRST LDB TIMESTEP     50
Info: LAST LDB TIMESTEP     -1
Info: HOM BACKGROUND SCALING 1
Info: PME BACKGROUND SCALING 1
Info: MIN ATOMS PER PATCH    40
Info: EMPTY PATCH LOAD       40 ATOMS
Info: VELOCITY FILE          mobley_2751110_equil.vel
Info: CENTER OF MASS MOVING INITIALLY? NO
Info: DIELECTRIC             1
Info: EXCLUDE                SCALED ONE-FOUR
Info: 1-4 ELECTROSTATICS SCALED BY 0.833333
Info: MODIFIED 1-4 VDW PARAMETERS WILL BE USED
Info: DCD FILENAME           mobley_2751110_prod.dcd
Info: DCD FREQUENCY          100000
Info: DCD FIRST STEP         100000
Info: DCD FILE WILL CONTAIN UNIT CELL DATA
Info: XST FILENAME           mobley_2751110_prod.xst
Info: XST FREQUENCY          100000
Info: NO VELOCITY DCD OUTPUT
Info: NO FORCE DCD OUTPUT
Info: OUTPUT FILENAME        mobley_2751110_prod
Info: BINARY OUTPUT FILES WILL BE USED
Info: RESTART FILENAME       mobley_2751110_prod.restart
Info: RESTART FREQUENCY      100000
Info: BINARY RESTART FILES WILL BE USED
Info: CUTOFF                 9
Info: PAIRLIST DISTANCE      11
Info: PAIRLIST SHRINK RATE   0.01
Info: PAIRLIST GROW RATE     0.01
Info: PAIRLIST TRIGGER       0.3
Info: PAIRLISTS PER CYCLE    2
Info: PAIRLISTS ENABLED
Info: MARGIN                 2
Info: HYDROGEN GROUP CUTOFF  2.5
Info: PATCH DIMENSION        15.5
Info: ENERGY OUTPUT STEPS    100000
Info: ENERGY EVALUATION STEPS    100000
Info: OUTPUT ENERGY PRECISION 4
Info: CROSSTERM ENERGY INCLUDED IN DIHEDRAL
Info: TIMING OUTPUT STEPS    1000000
Info: PRESSURE OUTPUT STEPS  100000
Info: ALCHEMICAL FEP ON
Info: FEP CURRENT LAMBDA VALUE     0
Info: FEP COMPARISON LAMBDA VALUE  0.05
Info: FEP INTRA-ALCHEMICAL NON-BONDED INTERACTIONS WILL BE RETAINED
Info: FEP INTRA-ALCHEMICAL BONDED INTERACTIONS WILL BE RETAINED
Info: FEP VDW SHIFTING COEFFICIENT 5
Info: FEP ELEC. ACTIVE FOR ANNIHILATED PARTICLES BETWEEN LAMBDA = 0 AND LAMBDA = 0.5
Info: FEP ELEC. ACTIVE FOR EXNIHILATED PARTICLES BETWEEN LAMBDA = 0.5 AND LAMBDA = 1
Info: FEP VDW ACTIVE FOR ANNIHILATED PARTICLES BETWEEN LAMBDA = 0 AND LAMBDA = 1
Info: FEP VDW ACTIVE FOR EXNIHILATED PARTICLES BETWEEN LAMBDA = 0 AND LAMBDA = 1
Info: FEP BOND ACTIVE FOR ANNIHILATED PARTICLES BETWEEN LAMBDA = 1 AND LAMBDA = 1
Info: FEP BOND ACTIVE FOR EXNIHILATED PARTICLES BETWEEN LAMBDA = 0 AND LAMBDA = 0
Info: LANGEVIN DYNAMICS ACTIVE
Info: LANGEVIN TEMPERATURE   300
Info: LANGEVIN USING BBK INTEGRATOR
Info: LANGEVIN DAMPING COEFFICIENT IS 1 INVERSE PS
Info: LANGEVIN DYNAMICS APPLIED TO HYDROGENS
Info: LANGEVIN PISTON PRESSURE CONTROL ACTIVE
Info:        TARGET PRESSURE IS 1.01325 BAR
Info:     OSCILLATION PERIOD IS 50 FS
Info:             DECAY TIME IS 25 FS
Info:     PISTON TEMPERATURE IS 300 K
Info:       PRESSURE CONTROL IS GROUP-BASED
Info:    INITIAL STRAIN RATE IS -0.000208496 -0.000208496 -0.000208496
Info:       CELL FLUCTUATION IS ISOTROPIC
Info: PARTICLE MESH EWALD (PME) ACTIVE
Info: PME TOLERANCE               1e-06
Info: PME EWALD COEFFICIENT       0.348832
Info: PME INTERPOLATION ORDER     4
Info: PME GRID DIMENSIONS         32 32 32
Info: PME MAXIMUM GRID SPACING    1
Info: PME CALCULATION WILL BE PERFORMED ON GPU
Info: FULL ELECTROSTATIC EVALUATION FREQUENCY      2
Info: USING VERLET I (r-RESPA) MTS SCHEME.
Info: C1 SPLITTING OF LONG RANGE ELECTROSTATICS
Info: PLACING ATOMS IN PATCHES BY HYDROGEN GROUPS
Info: RIGID BONDS TO HYDROGEN : ALL
Info:         ERROR TOLERANCE : 1e-08
Info:          MAX ITERATIONS : 100
Info: RIGID WATER USING SETTLE ALGORITHM
Info: RANDOM NUMBER SEED     1743743462
Info: USE HYDROGEN BONDS?    NO
Info: Using AMBER format force field!
Info: AMBER PARM FILE        mobley_2751110.prmtop
Info: COORDINATE PDB         mobley_2751110.pdb
Info: Exclusions will be read from PARM file!
Info: SCNB (VDW SCALING)     2
Info: USING ARITHMETIC MEAN TO COMBINE L-J SIGMA PARAMETERS
Info: BINARY COORDINATES     mobley_2751110_equil.coor
Info: SUMMARY OF PARAMETERS:
Info: 8 BONDS
Info: 7 ANGLES
Info:   7 HARMONIC
Info:   0 COSINE-BASED
Info: 4 DIHEDRAL
Info: 0 IMPROPER
Info: 0 CROSSTERM
Info: 0 VDW
Info: 28 VDW_PAIRS
Info: 0 NBTHOLE_PAIRS
Info: To read alchdata from file: mobley_2751110.pdb
Info: To read alchflag data from column: 5
Info: STRUCTURE SUMMARY:
Info: 2955 ATOMS
Info: 2955 BONDS
Info: 22 ANGLES
Info: 36 DIHEDRALS
Info: 0 IMPROPERS
Info: 0 CROSSTERMS
Info: 3004 EXCLUSIONS
Info: 2945 RIGID BONDS
Info: ALCH: 0 ATOMS TO DISAPPEAR IN FINAL STATE
Info: ALCH: 15 ATOMS TO APPEAR IN FINAL STATE
Info: 5920 DEGREES OF FREEDOM
Info: 990 HYDROGEN GROUPS
Info: 3 ATOMS IN LARGEST HYDROGEN GROUP
Info: 990 MIGRATION GROUPS
Info: 3 ATOMS IN LARGEST MIGRATION GROUP
Info: TOTAL MASS = 17794.8 amu
Info: TOTAL CHARGE = 3.72529e-08 e
Info: MASS DENSITY = 0.969668 g/cm^3
Info: ATOM DENSITY = 0.096968 atoms/A^3
Info: ADDED 0 IMPLICIT EXCLUSIONS
Info: NONBONDED TABLE R-SQUARED SPACING: 0.0625
Info: NONBONDED TABLE SIZE: 705 POINTS
Info: REMOVING COM VELOCITY -0.080755 -0.0388702 0.0788765
Info: Use 3D box decompostion in PME FFT.
Info: Updated CUDA force table with 4096 elements.
Info: Updated CUDA LJ table with 7 x 7 elements.
Info: Found 17 unique exclusion lists needing 36 bytes
TCL: Running for 1500000 steps
ETITLE: TS BOND ANGLE DIHED IMPRP ELECT VDW BOUNDARY MISC KINETIC TOTAL TEMP POTENTIAL TOTALAVG TEMPAVG PRESSURE GPRESSURE VOLUME PRESSAVG GPRESSAVG
ENERGY: 0 4.6622 5.6003 3.6253 0.0000 -10717.1755 1452.9717 0.0000 0.0000 1766.3357 -7483.9802 300.2907 -9250.3159 -7483.9802 300.2907 -24.8159 66.4850 30473.9819 -24.8159 66.4850
ENERGY: 300000 2.5586 4.3351 7.2459 0.0000 -10626.5610 1376.5440 0.0000 0.0000 1774.7689 -7461.1084 301.7244 -9235.8773 -7462.4975 300.7557 -447.1159 -432.1088 30277.9503 150.2352 228.9849
ENERGY: 600000 3.3794 3.3046 3.8765 0.0000 -10701.3178 1424.4277 0.0000 0.0000 1756.2796 -7510.0499 298.5811 -9266.3295 -7471.5609 301.1554 -382.3716 -363.5754 30660.4732 204.5155 274.1026
ENERGY: 900000 4.3402 4.7962 2.8059 0.0000 -10785.6718 1479.0560 0.0000 0.0000 1777.6026 -7517.0709 302.2062 -9294.6735 -7481.0163 300.7669 271.3736 328.8379 30014.1534 233.2268 284.1870
ENERGY: 1200000 3.3612 2.5462 5.5258 0.0000 -10723.7397 1414.2100 0.0000 0.0000 1756.8710 -7541.2255 298.6817 -9298.0965 -7485.4339 300.9127 -465.8949 -410.3999 30614.3523 108.0947 153.6912
ENERGY: 1500000 3.7091 4.4732 3.7830 0.0000 -10731.1570 1416.4828 0.0000 0.0000 1741.0851 -7561.6238 295.9979 -9302.7089 -7492.2193 300.4157 -144.9703 -58.2946 30146.6808 49.7448 100.1551
TCL: Running FEP window   2: Lambda1 0.05   Lambda2 0.1    [dLambda 0.05  ]
TCL: Setting parameter firsttimestep to 0
TCL: Setting parameter alchLambda to 0.05
Info: NONBONDED TABLE R-SQUARED SPACING: 0.0625
Info: NONBONDED TABLE SIZE: 705 POINTS
TCL: Setting parameter alchLambda2 to 0.1
Info: NONBONDED TABLE R-SQUARED SPACING: 0.0625
Info: NONBONDED TABLE SIZE: 705 POINTS
TCL: Running for 1500000 steps
ETITLE: TS BOND ANGLE DIHED IMPRP ELECT VDW BOUNDARY MISC KINETIC TOTAL TEMP POTENTIAL TOTALAVG TEMPAVG PRESSURE GPRESSURE VOLUME PRESSAVG GPRESSAVG
ENERGY: 0 3.7091 4.4732 3.7830 0.0000 -10731.1569 1419.2546 0.0000 0.0000 1740.1914 -7559.7456 295.8460 -9299.9370 -7559.7456 295.8460 -121.2722 -50.3786 30146.6808 -121.2722 -50.3786
ENERGY: 300000 3.0113 2.4417 1.8574 0.0000 -10731.1472 1435.3252 0.0000 0.0000 1744.8633 -7543.6483 296.6402 -9288.5116 -7525.4844 299.5213 -186.0992 -180.4713 30270.4549 127.5186 166.8052
ENERGY: 600000 2.9330 1.8049 2.4194 0.0000 -10807.1947 1481.5427 0.0000 0.0000 1738.4564 -7580.0383 295.5510 -9318.4946 -7517.1285 300.2698 248.1781 362.3280 29865.8005 284.4727 350.1121
ENERGY: 900000 2.6696 4.2064 5.3023 0.0000 -10648.5887 1339.0234 0.0000 0.0000 1765.7123 -7531.6746 300.1847 -9297.3869 -7499.3516 302.0503 -858.1204 -776.8343 30089.8782 141.9822 202.1980
ENERGY: 1200000 0.9689 3.3238 2.9946 0.0000 -10770.4047 1440.8005 0.0000 0.0000 1716.5241 -7605.7927 291.8224 -9322.3168 -7510.4298 300.7093 -111.7712 -83.6061 30268.9103 28.2363 91.5700
ENERGY: 1500000 2.8151 2.9227 5.1968 0.0000 -10799.3351 1467.7690 0.0000 0.0000 1766.4608 -7554.1706 300.3120 -9320.6314 -7505.1609 300.8817 169.0396 197.5702 29952.2007 -87.8947 -23.2814
TCL: Running FEP window   3: Lambda1 0.1    Lambda2 0.15000000000000002 [dLambda 0.05000000000000002]
TCL: Setting parameter firsttimestep to 0
TCL: Setting parameter alchLambda to 0.1
Info: NONBONDED TABLE R-SQUARED SPACING: 0.0625
Info: NONBONDED TABLE SIZE: 705 POINTS
TCL: Setting parameter alchLambda2 to 0.15000000000000002
Info: NONBONDED TABLE R-SQUARED SPACING: 0.0625
Info: NONBONDED TABLE SIZE: 705 POINTS
TCL: Running for 1500000 steps
ETITLE: TS BOND ANGLE DIHED IMPRP ELECT VDW BOUNDARY MISC KINETIC TOTAL TEMP POTENTIAL TOTALAVG TEMPAVG PRESSURE GPRESSURE VOLUME PRESSAVG GPRESSAVG
ENERGY: 0 2.8151 2.9227 5.1968 0.0000 -10799.3347 1471.6184 0.0000 0.0000 1765.5663 -7551.2154 300.1599 -9316.7817 -7551.2154 300.1599 134.1877 212.5803 29952.2007 134.1877 212.5803
ENERGY: 300000 3.8712 2.8825 2.3348 0.0000 -10700.4876 1429.2080 0.0000 0.0000 1719.0511 -7543.1399 292.2520 -9262.1910 -7549.1524 296.8128 -26.1420 20.1857 30125.7163 244.3121 312.7916
ENERGY: 600000 1.8776 2.8103 2.6070 0.0000 -10665.8690 1404.8964 0.0000 0.0000 1781.0620 -7472.6158 302.7943 -9253.6778 -7521.4550 300.3556 -462.3329 -377.6017 30662.4109 148.5346 221.5621
ENERGY: 900000 2.2063 7.5137 3.8922 0.0000 -10698.0217 1416.7224 0.0000 0.0000 1801.3873 -7466.2998 306.2498 -9267.6871 -7516.6957 300.9481 -186.1003 -132.3826 30687.5041 185.4392 254.8230
ENERGY: 1200000 2.8829 4.5859 3.6743 0.0000 -10699.4457 1465.4298 0.0000 0.0000 1739.8123 -7483.0606 295.7815 -9222.8728 -7502.9064 301.9790 256.3682 325.8544 30198.5596 108.4324 176.6232
ENERGY: 1500000 2.0651 3.2996 1.1476 0.0000 -10648.9614 1407.0058 0.0000 0.0000 1820.8523 -7414.5912 309.5590 -9235.4435 -7498.5010 302.1689 -66.1592 48.0887 30126.9581 162.8503 232.8134
TCL: Running FEP window   4: Lambda1 0.15000000000000002 Lambda2 0.2    [dLambda 0.04999999999999999]
TCL: Setting parameter firsttimestep to 0
TCL: Setting parameter alchLambda to 0.15000000000000002
Info: NONBONDED TABLE R-SQUARED SPACING: 0.0625
Info: NONBONDED TABLE SIZE: 705 POINTS
TCL: Setting parameter alchLambda2 to 0.2
Info: NONBONDED TABLE R-SQUARED SPACING: 0.0625
Info: NONBONDED TABLE SIZE: 705 POINTS
TCL: Running for 1500000 steps
ETITLE: TS BOND ANGLE DIHED IMPRP ELECT VDW BOUNDARY MISC KINETIC TOTAL TEMP POTENTIAL TOTALAVG TEMPAVG PRESSURE GPRESSURE VOLUME PRESSAVG GPRESSAVG
ENERGY: 0 2.0651 3.2996 1.1476 0.0000 -10648.9618 1407.0563 0.0000 0.0000 1819.9852 -7415.4081 309.4116 -9235.3933 -7415.4081 309.4116 -53.8530 49.0303 30126.9581 -53.8530 49.0303
ENERGY: 300000 4.6647 6.7123 3.8583 0.0000 -10631.9568 1418.3823 0.0000 0.0000 1793.3800 -7404.9593 304.8885 -9198.3393 -7476.4649 301.6171 -165.6382 -58.0904 30582.1603 -153.9479 -66.1417
ENERGY: 600000 1.4550 2.1543 1.9161 0.0000 -10588.8302 1372.2253 0.0000 0.0000 1784.3980 -7426.6814 303.3615 -9211.0795 -7481.6477 300.8917 -709.3945 -606.5786 31022.1601 -223.2783 -135.9962
ENERGY: 900000 1.7941 4.3640 3.5987 0.0000 -10638.9433 1450.3293 0.0000 0.0000 1720.2794 -7458.5778 292.4608 -9178.8572 -7482.7314 300.2512 171.2468 266.9652 30394.4807 -192.9332 -110.5309
ENERGY: 1200000 5.3248 3.3300 5.1206 0.0000 -10849.7854 1491.9418 0.0000 0.0000 1763.5882 -7580.4800 299.8236 -9344.0682 -7496.7194 299.5128 481.3439 480.2770 29883.5917 -13.9154 57.9505
ENERGY: 1500000 6.1723 3.1780 2.7007 0.0000 -10577.2088 1383.2988 0.0000 0.0000 1692.6734 -7489.1856 287.7676 -9181.8589 -7496.3269 299.3450 -688.9323 -577.3501 30661.3642 -66.4803 4.5999
TCL: Running FEP window   5: Lambda1 0.2    Lambda2 0.25   [dLambda 0.04999999999999999]
TCL: Setting parameter firsttimestep to 0
TCL: Setting parameter alchLambda to 0.2
Info: NONBONDED TABLE R-SQUARED SPACING: 0.0625
Info: NONBONDED TABLE SIZE: 705 POINTS
TCL: Setting parameter alchLambda2 to 0.25
Info: NONBONDED TABLE R-SQUARED SPACING: 0.0625
Info: NONBONDED TABLE SIZE: 705 POINTS
TCL: Running for 1500000 steps
ETITLE: TS BOND ANGLE DIHED IMPRP ELECT VDW BOUNDARY MISC KINETIC TOTAL TEMP POTENTIAL TOTALAVG TEMPAVG PRESSURE GPRESSURE VOLUME PRESSAVG GPRESSAVG
ENERGY: 0 6.1723 3.1780 2.7007 0.0000 -10577.2083 1384.8020 0.0000 0.0000 1691.7801 -7488.5752 287.6157 -9180.3553 -7488.5752 287.6157 -648.6900 -567.2351 30661.3642 -648.6900 -567.2351
ENERGY: 300000 4.7062 3.0940 2.6607 0.0000 -10751.9808 1447.6022 0.0000 0.0000 1778.0489 -7515.8688 302.2821 -9293.9177 -7503.9634 296.8575 223.3562 326.9036 29807.1275 -386.7358 -315.7689
ENERGY: 600000 3.7560 4.7671 7.7899 0.0000 -10701.3639 1470.1659 0.0000 0.0000 1779.3722 -7435.5127 302.5070 -9214.8849 -7482.2619 299.8880 323.9593 369.3265 30039.0941 -315.8450 -253.9822
ENERGY: 900000 1.4931 6.1704 3.3175 0.0000 -10681.9516 1428.5599 0.0000 0.0000 1789.1979 -7453.2128 304.1775 -9242.4107 -7491.1294 300.2102 -227.8519 -219.8429 30738.1408 -202.2637 -143.1424
ENERGY: 1200000 4.2958 3.5727 2.2952 0.0000 -10847.4135 1493.5239 0.0000 0.0000 1740.1600 -7603.5659 295.8407 -9343.7259 -7502.4503 299.8946 -116.3490 -9.5992 30454.6126 -193.6839 -137.8645
ENERGY: 1500000 6.2944 3.4919 1.6991 0.0000 -10711.9405 1467.5466 0.0000 0.0000 1798.9346 -7433.9739 305.8328 -9232.9085 -7509.0848 299.0727 212.1982 276.1490 30765.2528 -214.2817 -155.9855
TCL: Running FEP window   6: Lambda1 0.25   Lambda2 0.3    [dLambda 0.04999999999999999]
TCL: Setting parameter firsttimestep to 0
TCL: Setting parameter alchLambda to 0.25
Info: NONBONDED TABLE R-SQUARED SPACING: 0.0625
Info: NONBONDED TABLE SIZE: 705 POINTS
TCL: Setting parameter alchLambda2 to 0.3
Info: NONBONDED TABLE R-SQUARED SPACING: 0.0625
Info: NONBONDED TABLE SIZE: 705 POINTS
TCL: Running for 1500000 steps
ETITLE: TS BOND ANGLE DIHED IMPRP ELECT VDW BOUNDARY MISC KINETIC TOTAL TEMP POTENTIAL TOTALAVG TEMPAVG PRESSURE GPRESSURE VOLUME PRESSAVG GPRESSAVG
ENERGY: 0 6.2944 3.4919 1.6991 0.0000 -10711.9398 1467.4365 0.0000 0.0000 1798.0454 -7434.9725 305.6816 -9233.0179 -7434.9725 305.6816 197.7604 280.0108 30765.2528 197.7604 280.0108
ENERGY: 300000 1.3177 1.3966 1.2938 0.0000 -10656.1144 1375.6214 0.0000 0.0000 1757.5336 -7518.9513 298.7943 -9276.4850 -7480.1231 302.2116 -817.5836 -748.1860 30805.0033 -330.1858 -238.9101
ENERGY: 600000 1.8687 3.3411 2.6794 0.0000 -10695.0246 1467.8905 0.0000 0.0000 1798.7431 -7420.5017 305.8002 -9219.2449 -7494.9151 302.4663 306.9020 390.1538 30285.2906 -150.8607 -69.2532
ENERGY: 900000 2.1598 3.9357 4.2954 0.0000 -10825.8361 1519.5764 0.0000 0.0000 1744.7512 -7551.1175 296.6212 -9295.8687 -7490.1693 302.6584 474.5879 577.7348 30178.0910 56.8490 139.5093
ENERGY: 1200000 2.3348 6.3736 6.5938 0.0000 -10552.5939 1329.8315 0.0000 0.0000 1762.7171 -7444.7431 299.6755 -9207.4602 -7482.9298 302.1414 -945.5393 -850.1673 31008.3180 -105.4235 -26.8081
ENERGY: 1500000 5.0402 2.4320 1.9389 0.0000 -10707.7699 1411.7300 0.0000 0.0000 1754.1772 -7532.4517 298.2237 -9286.6289 -7491.4988 301.7043 -474.9235 -316.9166 30359.0453 -115.0554 -33.0157
TCL: Running FEP window   7: Lambda1 0.3    Lambda2 0.35   [dLambda 0.04999999999999999]
TCL: Setting parameter firsttimestep to 0
TCL: Setting parameter alchLambda to 0.3
Info: NONBONDED TABLE R-SQUARED SPACING: 0.0625
Info: NONBONDED TABLE SIZE: 705 POINTS
TCL: Setting parameter alchLambda2 to 0.35
Info: NONBONDED TABLE R-SQUARED SPACING: 0.0625
Info: NONBONDED TABLE SIZE: 705 POINTS
TCL: Running for 1500000 steps
ETITLE: TS BOND ANGLE DIHED IMPRP ELECT VDW BOUNDARY MISC KINETIC TOTAL TEMP POTENTIAL TOTALAVG TEMPAVG PRESSURE GPRESSURE VOLUME PRESSAVG GPRESSAVG
ENERGY: 0 5.0402 2.4320 1.9389 0.0000 -10707.7707 1411.6828 0.0000 0.0000 1753.2706 -7533.4062 298.0696 -9286.6768 -7533.4062 298.0696 -380.6348 -308.6530 30359.0453 -380.6348 -308.6530
ENERGY: 300000 2.7708 5.9841 9.3219 0.0000 -10681.7906 1396.1093 0.0000 0.0000 1792.5200 -7475.0844 304.7423 -9267.6044 -7522.9829 298.0062 -406.3420 -350.5341 30703.9156 -575.3658 -519.9601
ENERGY: 600000 1.8494 4.0488 3.4687 0.0000 -10745.3778 1447.1048 0.0000 0.0000 1776.1591 -7512.7470 301.9608 -9288.9061 -7518.9682 297.3852 110.0179 201.7755 30272.5217 -104.4253 -53.9244
ENERGY: 900000 4.2908 3.3417 2.4836 0.0000 -10762.2130 1480.5589 0.0000 0.0000 1786.9942 -7484.5438 303.8028 -9271.5381 -7510.3867 298.1090 357.3209 360.2832 30379.3251 -52.8907 -5.8242
ENERGY: 1200000 1.8426 3.5352 4.9468 0.0000 -10613.2617 1369.7505 0.0000 0.0000 1743.5610 -7489.6256 296.4189 -9233.1866 -7510.6124 298.2905 -499.9702 -466.7200 30348.3104 -54.0552 0.3910
ENERGY: 1500000 2.5318 1.9428 3.4077 0.0000 -10802.9332 1439.5696 0.0000 0.0000 1754.8473 -7600.6340 298.3376 -9355.4813 -7512.3422 298.5330 -254.5592 -232.8812 30464.9520 -24.3389 25.2198
TCL: Running FEP window   8: Lambda1 0.35   Lambda2 0.39999999999999997 [dLambda 0.04999999999999999]
TCL: Setting parameter firsttimestep to 0
TCL: Setting parameter alchLambda to 0.35
Info: NONBONDED TABLE R-SQUARED SPACING: 0.0625
Info: NONBONDED TABLE SIZE: 705 POINTS
TCL: Setting parameter alchLambda2 to 0.39999999999999997
Info: NONBONDED TABLE R-SQUARED SPACING: 0.0625
Info: NONBONDED TABLE SIZE: 705 POINTS
TCL: Running for 1500000 steps
ETITLE: TS BOND ANGLE DIHED IMPRP ELECT VDW BOUNDARY MISC KINETIC TOTAL TEMP POTENTIAL TOTALAVG TEMPAVG PRESSURE GPRESSURE VOLUME PRESSAVG GPRESSAVG
ENERGY: 0 2.5318 1.9428 3.4077 0.0000 -10802.9331 1439.4751 0.0000 0.0000 1753.9494 -7601.6264 298.1850 -9355.5758 -7601.6264 298.1850 -298.4455 -229.2825 30464.9520 -298.4455 -229.2825
ENERGY: 300000 2.3232 2.6844 1.5717 0.0000 -10781.4647 1451.7201 0.0000 0.0000 1753.5520 -7569.6132 298.1174 -9323.1653 -7536.2625 297.4716 -70.3967 -35.9622 30132.5851 -169.2092 -118.7332
ENERGY: 600000 5.0852 1.2495 6.0405 0.0000 -10735.3725 1459.6703 0.0000 0.0000 1713.5376 -7549.7893 291.3146 -9263.3269 -7519.9730 298.0106 -94.9514 0.7370 30519.0085 -138.3511 -88.9502
ENERGY: 900000 2.6700 6.1808 4.4988 0.0000 -10953.1859 1538.0281 0.0000 0.0000 1809.2526 -7592.5557 307.5869 -9401.8083 -7516.7373 298.8107 680.1042 769.6680 29896.4218 -110.5376 -56.4869
ENERGY: 1200000 2.0979 4.8243 5.6001 0.0000 -10606.7992 1427.0437 0.0000 0.0000 1769.8579 -7397.3755 300.8895 -9167.2334 -7510.3705 299.0550 120.0380 201.5286 30802.1284 -17.1274 42.4847
ENERGY: 1500000 2.4629 3.6052 5.4275 0.0000 -10686.0801 1454.9227 0.0000 0.0000 1741.0062 -7478.6557 295.9845 -9219.6619 -7501.0819 299.7397 276.4382 348.7347 30547.4500 30.3665 92.0383
TCL: Running FEP window   9: Lambda1 0.39999999999999997 Lambda2 0.44999999999999996 [dLambda 0.04999999999999999]
TCL: Setting parameter firsttimestep to 0
TCL: Setting parameter alchLambda to 0.39999999999999997
Info: NONBONDED TABLE R-SQUARED SPACING: 0.0625
Info: NONBONDED TABLE SIZE: 705 POINTS
TCL: Setting parameter alchLambda2 to 0.44999999999999996
Info: NONBONDED TABLE R-SQUARED SPACING: 0.0625
Info: NONBONDED TABLE SIZE: 705 POINTS
TCL: Running for 1500000 steps
ETITLE: TS BOND ANGLE DIHED IMPRP ELECT VDW BOUNDARY MISC KINETIC TOTAL TEMP POTENTIAL TOTALAVG TEMPAVG PRESSURE GPRESSURE VOLUME PRESSAVG GPRESSAVG
ENERGY: 0 2.4629 3.6052 5.4275 0.0000 -10686.0796 1454.7125 0.0000 0.0000 1740.1194 -7479.7521 295.8338 -9219.8715 -7479.7521 295.8338 269.1605 352.8051 30547.4500 269.1605 352.8051
ENERGY: 300000 2.9376 2.0355 3.4228 0.0000 -10619.7797 1411.1979 0.0000 0.0000 1764.0703 -7436.1157 299.9056 -9200.1859 -7451.0338 299.4127 -297.6549 -235.6166 30691.3297 -4.6600 71.8007
ENERGY: 600000 3.6094 5.7142 3.7173 0.0000 -10606.5271 1362.1285 0.0000 0.0000 1760.7262 -7470.6315 299.3371 -9231.3577 -7484.4408 299.1211 -721.7714 -645.8395 30572.7901 -129.7485 -54.3035
ENERGY: 900000 2.7366 4.6419 0.7845 0.0000 -10709.9051 1392.9690 0.0000 0.0000 1757.1269 -7551.6463 298.7252 -9308.7732 -7492.3644 299.0069 -110.1344 -81.3846 30073.9377 -121.9129 -48.0932
ENERGY: 1200000 1.3147 4.9931 5.2322 0.0000 -10876.4347 1511.3353 0.0000 0.0000 1788.6607 -7564.8986 304.0862 -9353.5593 -7486.7211 300.9733 437.2174 537.8117 29929.4150 -62.6691 9.4369
ENERGY: 1500000 2.8603 1.4154 2.1903 0.0000 -10658.8450 1395.6887 0.0000 0.0000 1746.9413 -7509.7489 296.9935 -9256.6902 -7485.6130 300.9295 109.9776 205.3138 29794.6095 -92.3807 -23.3989
TCL: Running FEP window  10: Lambda1 0.44999999999999996 Lambda2 0.49999999999999994 [dLambda 0.04999999999999999]
TCL: Setting parameter firsttimestep to 0
TCL: Setting parameter alchLambda to 0.44999999999999996
Info: NONBONDED TABLE R-SQUARED SPACING: 0.0625
Info: NONBONDED TABLE SIZE: 705 POINTS
TCL: Setting parameter alchLambda2 to 0.49999999999999994
Info: NONBONDED TABLE R-SQUARED SPACING: 0.0625
Info: NONBONDED TABLE SIZE: 705 POINTS
TCL: Running for 1500000 steps
ETITLE: TS BOND ANGLE DIHED IMPRP ELECT VDW BOUNDARY MISC KINETIC TOTAL TEMP POTENTIAL TOTALAVG TEMPAVG PRESSURE GPRESSURE VOLUME PRESSAVG GPRESSAVG
ENERGY: 0 2.8603 1.4154 2.1903 0.0000 -10658.8444 1396.2238 0.0000 0.0000 1746.0488 -7510.1057 296.8418 -9256.1545 -7510.1057 296.8418 130.1921 217.7230 29794.6095 130.1921 217.7230
ENERGY: 300000 10.7305 2.4680 1.6606 0.0000 -10896.5621 1608.8827 0.0000 0.0000 1752.9498 -7519.8705 298.0150 -9272.8203 -7551.4673 294.0784 735.2238 869.3344 30515.9568 107.1724 179.9809
ENERGY: 600000 5.0140 7.2021 3.1243 0.0000 -10624.5640 1436.3051 0.0000 0.0000 1750.5215 -7422.3970 297.6022 -9172.9185 -7500.0663 297.4409 -126.9207 -60.3420 30612.3690 -27.9316 41.5755
ENERGY: 900000 4.3671 3.0666 2.7764 0.0000 -10722.9861 1388.9727 0.0000 0.0000 1785.9945 -7537.8087 303.6329 -9323.8033 -7514.2170 298.0662 -498.7067 -395.1637 30239.8518 -33.3861 37.0825
ENERGY: 1200000 5.8209 5.5511 2.5082 0.0000 -10664.8892 1438.3798 0.0000 0.0000 1797.8373 -7414.7919 305.6462 -9212.6292 -7515.2576 297.4671 312.1660 387.7188 30080.6778 -82.5975 -15.1620
ENERGY: 1500000 1.9380 3.8454 4.6805 0.0000 -10704.6936 1487.8438 0.0000 0.0000 1820.2207 -7386.1652 309.4516 -9206.3859 -7506.8840 298.1008 750.6811 774.4119 30444.7096 -109.2175 -53.5022
TCL: Running FEP window  11: Lambda1 0.49999999999999994 Lambda2 0.5499999999999999 [dLambda 0.04999999999999999]
TCL: Setting parameter firsttimestep to 0
TCL: Setting parameter alchLambda to 0.49999999999999994
Info: NONBONDED TABLE R-SQUARED SPACING: 0.0625
Info: NONBONDED TABLE SIZE: 705 POINTS
TCL: Setting parameter alchLambda2 to 0.5499999999999999
Info: NONBONDED TABLE R-SQUARED SPACING: 0.0625
Info: NONBONDED TABLE SIZE: 705 POINTS
TCL: Running for 1500000 steps
ETITLE: TS BOND ANGLE DIHED IMPRP ELECT VDW BOUNDARY MISC KINETIC TOTAL TEMP POTENTIAL TOTALAVG TEMPAVG PRESSURE GPRESSURE VOLUME PRESSAVG GPRESSAVG
ENERGY: 0 1.9380 3.8454 4.6805 0.0000 -10704.6934 1488.2491 0.0000 0.0000 1819.3375 -7386.6428 309.3015 -9205.9804 -7386.6428 309.3015 709.5868 783.2006 30444.7096 709.5868 783.2006
ENERGY: 300000 2.1803 4.1415 3.3132 0.0000 -10829.9275 1486.5948 0.0000 0.0000 1764.0383 -7569.6596 299.9001 -9333.6978 -7473.8071 303.4466 226.4678 288.2051 30172.7613 205.5387 242.5212
ENERGY: 600000 3.0352 2.9796 4.0244 0.0000 -10818.0735 1450.2248 0.0000 0.0000 1796.4831 -7561.3266 305.4160 -9357.8097 -7505.6074 303.1036 -190.4796 -142.1071 30285.7422 121.8197 171.3473
ENERGY: 900000 2.6429 3.0331 2.7126 0.0000 -10672.4851 1438.2711 0.0000 0.0000 1779.5024 -7446.3230 302.5292 -9225.8254 -7493.3607 303.5108 176.2724 215.8775 30183.7115 100.2712 155.3385
ENERGY: 1200000 3.5262 1.9963 3.7970 0.0000 -10769.1767 1465.9931 0.0000 0.0000 1803.4518 -7490.4124 306.6007 -9293.8642 -7496.3511 303.6339 217.7986 316.1305 30145.6338 86.6448 145.6219
ENERGY: 1500000 4.1187 2.8964 3.0194 0.0000 -10726.2568 1449.5178 0.0000 0.0000 1755.1337 -7511.5708 298.3863 -9266.7045 -7499.8593 302.1830 -25.0634 -10.3552 30492.4953 20.2108 79.4814
TCL: Running FEP window  12: Lambda1 0.5499999999999999 Lambda2 0.6    [dLambda 0.050000000000000044]
TCL: Setting parameter firsttimestep to 0
TCL: Setting parameter alchLambda to 0.5499999999999999
Info: NONBONDED TABLE R-SQUARED SPACING: 0.0625
Info: NONBONDED TABLE SIZE: 705 POINTS
TCL: Setting parameter alchLambda2 to 0.6
Info: NONBONDED TABLE R-SQUARED SPACING: 0.0625
Info: NONBONDED TABLE SIZE: 705 POINTS
TCL: Running for 1500000 steps
ETITLE: TS BOND ANGLE DIHED IMPRP ELECT VDW BOUNDARY MISC KINETIC TOTAL TEMP POTENTIAL TOTALAVG TEMPAVG PRESSURE GPRESSURE VOLUME PRESSAVG GPRESSAVG
ENERGY: 0 4.1187 2.8964 3.0194 0.0000 -10726.7545 1449.1484 0.0000 0.0000 1754.2018 -7513.3698 298.2279 -9267.5716 -7513.3698 298.2279 -100.0151 -7.4959 30492.4953 -100.0151 -7.4959
ENERGY: 300000 4.6348 3.6525 4.1450 0.0000 -10644.6172 1344.2934 0.0000 0.0000 1768.9799 -7518.9116 300.7403 -9287.8914 -7510.7086 300.7288 -807.0796 -757.9847 30366.4436 -132.0766 -42.7464
ENERGY: 600000 1.1100 4.1522 4.2181 0.0000 -10633.1993 1468.6693 0.0000 0.0000 1764.1852 -7390.8643 299.9251 -9155.0496 -7503.1526 300.3819 314.5989 371.5484 30819.6305 -63.3600 4.4047
ENERGY: 900000 2.9960 3.6056 3.3963 0.0000 -10833.3965 1542.8960 0.0000 0.0000 1718.1360 -7562.3667 292.0964 -9280.5027 -7509.9832 299.2206 396.7523 419.5467 30817.3469 -30.7954 35.2022
ENERGY: 1200000 1.8283 3.2321 5.8241 0.0000 -10754.8324 1461.8088 0.0000 0.0000 1773.3462 -7508.7929 301.4826 -9282.1392 -7507.9335 299.3641 55.0869 121.9864 30241.8837 -73.6551 -0.9969
ENERGY: 1500000 2.4484 3.9384 2.8485 0.0000 -10653.6777 1397.6058 0.0000 0.0000 1741.3896 -7505.4472 296.0497 -9246.8368 -7499.0735 299.0854 -287.5333 -250.8143 30640.4540 -103.9508 -37.6932
TCL: Running FEP window  13: Lambda1 0.6    Lambda2 0.65   [dLambda 0.050000000000000044]
TCL: Setting parameter firsttimestep to 0
TCL: Setting parameter alchLambda to 0.6
Info: NONBONDED TABLE R-SQUARED SPACING: 0.0625
Info: NONBONDED TABLE SIZE: 705 POINTS
TCL: Setting parameter alchLambda2 to 0.65
Info: NONBONDED TABLE R-SQUARED SPACING: 0.0625
Info: NONBONDED TABLE SIZE: 705 POINTS
TCL: Running for 1500000 steps
ETITLE: TS BOND ANGLE DIHED IMPRP ELECT VDW BOUNDARY MISC KINETIC TOTAL TEMP POTENTIAL TOTALAVG TEMPAVG PRESSURE GPRESSURE VOLUME PRESSAVG GPRESSAVG
ENERGY: 0 2.4484 3.9384 2.8485 0.0000 -10654.3917 1398.3696 0.0000 0.0000 1740.5052 -7506.2817 295.8994 -9246.7869 -7506.2817 295.8994 -334.3084 -239.4682 30640.4540 -334.3084 -239.4682
ENERGY: 300000 1.3154 2.7958 3.4993 0.0000 -10782.8374 1490.4954 0.0000 0.0000 1751.4983 -7533.2331 297.7682 -9284.7314 -7507.2513 299.7159 339.0482 375.5815 30655.9353 16.0488 76.7583
ENERGY: 600000 3.4311 4.5342 3.3497 0.0000 -10775.1865 1465.3857 0.0000 0.0000 1792.6103 -7505.8755 304.7576 -9298.4857 -7468.0328 302.7318 178.4006 246.7189 30075.6970 -108.6268 -40.3233
ENERGY: 900000 3.7525 4.9875 2.1869 0.0000 -10641.5601 1417.4422 0.0000 0.0000 1722.3281 -7490.8629 292.8091 -9213.1910 -7485.7883 300.2986 -156.8055 -11.7619 30317.8929 -224.3736 -136.5678
ENERGY: 1200000 6.0917 7.0155 4.1025 0.0000 -10762.3350 1386.6511 0.0000 0.0000 1744.2158 -7614.2585 296.5302 -9358.4742 -7494.6588 300.7958 -631.6186 -530.8586 30257.5949 -366.0871 -281.1679
ENERGY: 1500000 3.7402 6.4695 5.9736 0.0000 -10792.3678 1519.3140 0.0000 0.0000 1759.3815 -7497.4890 299.1085 -9256.8705 -7497.1331 300.7894 564.0856 672.4376 29994.2592 -233.2638 -141.4535
TCL: Running FEP window  14: Lambda1 0.65   Lambda2 0.7000000000000001 [dLambda 0.050000000000000044]
TCL: Setting parameter firsttimestep to 0
TCL: Setting parameter alchLambda to 0.65
Info: NONBONDED TABLE R-SQUARED SPACING: 0.0625
Info: NONBONDED TABLE SIZE: 705 POINTS
TCL: Setting parameter alchLambda2 to 0.7000000000000001
Info: NONBONDED TABLE R-SQUARED SPACING: 0.0625
Info: NONBONDED TABLE SIZE: 705 POINTS
TCL: Running for 1500000 steps
ETITLE: TS BOND ANGLE DIHED IMPRP ELECT VDW BOUNDARY MISC KINETIC TOTAL TEMP POTENTIAL TOTALAVG TEMPAVG PRESSURE GPRESSURE VOLUME PRESSAVG GPRESSAVG
ENERGY: 0 3.7402 6.4695 5.9736 0.0000 -10794.6285 1521.6864 0.0000 0.0000 1758.5101 -7498.2489 298.9603 -9256.7589 -7498.2489 298.9603 607.4016 693.3382 29994.2592 607.4016 693.3382
ENERGY: 300000 5.2200 2.6786 5.7312 0.0000 -10867.7338 1509.0880 0.0000 0.0000 1753.6033 -7591.4127 298.1261 -9345.0160 -7517.2699 299.5519 296.9410 363.5743 30268.5028 183.4764 239.2757
ENERGY: 600000 1.9029 6.8185 6.5257 0.0000 -10749.3608 1469.3355 0.0000 0.0000 1726.7674 -7538.0109 293.5638 -9264.7783 -7480.3398 300.8289 302.8251 330.5170 30424.4640 82.6563 134.3437
ENERGY: 900000 3.6496 5.0458 5.0124 0.0000 -10620.3408 1449.4442 0.0000 0.0000 1775.1926 -7381.9962 301.7965 -9157.1888 -7479.1588 301.2783 433.7167 484.5887 30350.2610 73.7389 125.0753
ENERGY: 1200000 1.1706 3.8739 4.6378 0.0000 -10773.3531 1437.3146 0.0000 0.0000 1743.3951 -7582.9612 296.3906 -9326.3562 -7491.2865 300.9427 -197.5485 -161.5571 30419.9895 -56.3972 -3.8352
ENERGY: 1500000 3.5701 6.0425 3.5866 0.0000 -10856.4334 1552.4648 0.0000 0.0000 1774.0313 -7516.7381 301.5990 -9290.7694 -7498.6554 299.9145 904.8858 915.0630 30446.5333 109.8193 158.6394
TCL: Running FEP window  15: Lambda1 0.7000000000000001 Lambda2 0.7500000000000001 [dLambda 0.050000000000000044]
TCL: Setting parameter firsttimestep to 0
TCL: Setting parameter alchLambda to 0.7000000000000001
Info: NONBONDED TABLE R-SQUARED SPACING: 0.0625
Info: NONBONDED TABLE SIZE: 705 POINTS
TCL: Setting parameter alchLambda2 to 0.7500000000000001
Info: NONBONDED TABLE R-SQUARED SPACING: 0.0625
Info: NONBONDED TABLE SIZE: 705 POINTS
TCL: Running for 1500000 steps
ETITLE: TS BOND ANGLE DIHED IMPRP ELECT VDW BOUNDARY MISC KINETIC TOTAL TEMP POTENTIAL TOTALAVG TEMPAVG PRESSURE GPRESSURE VOLUME PRESSAVG GPRESSAVG
ENERGY: 0 3.5701 6.0425 3.5866 0.0000 -10856.3320 1552.0747 0.0000 0.0000 1773.1805 -7517.8775 301.4544 -9291.0580 -7517.8775 301.4544 837.9797 921.6626 30446.5333 837.9797 921.6626
ENERGY: 300000 2.0869 4.7693 8.5727 0.0000 -10639.0263 1408.3100 0.0000 0.0000 1726.4599 -7488.8274 293.5115 -9215.2873 -7503.9482 300.6254 -23.6596 -7.2499 30527.8807 238.9820 266.0932
ENERGY: 600000 4.2113 3.6332 3.1382 0.0000 -10622.4927 1417.0974 0.0000 0.0000 1752.7190 -7441.6936 297.9758 -9194.4126 -7522.2052 298.4203 -185.8084 -185.8584 30623.9196 155.0864 184.7221
ENERGY: 900000 2.6193 3.7198 2.7020 0.0000 -10621.6775 1342.7709 0.0000 0.0000 1757.7535 -7512.1120 298.8317 -9269.8656 -7515.8673 298.3495 -552.8074 -430.9409 29845.8786 11.6774 51.1068
ENERGY: 1200000 2.4377 2.3423 4.8612 0.0000 -10736.2488 1432.9291 0.0000 0.0000 1742.2948 -7551.3838 296.2036 -9293.6786 -7514.7646 298.7752 -248.7371 -128.0434 30501.5121 -59.2193 -11.9173
ENERGY: 1500000 5.3605 6.6107 4.4403 0.0000 -10717.5081 1450.8816 0.0000 0.0000 1728.2273 -7521.9878 293.8120 -9250.2151 -7518.9892 298.4221 50.1913 87.5380 30622.0056 -19.2274 26.2456
TCL: Running FEP window  16: Lambda1 0.7500000000000001 Lambda2 0.8000000000000002 [dLambda 0.050000000000000044]
TCL: Setting parameter firsttimestep to 0
TCL: Setting parameter alchLambda to 0.7500000000000001
Info: NONBONDED TABLE R-SQUARED SPACING: 0.0625
Info: NONBONDED TABLE SIZE: 705 POINTS
TCL: Setting parameter alchLambda2 to 0.8000000000000002
Info: NONBONDED TABLE R-SQUARED SPACING: 0.0625
Info: NONBONDED TABLE SIZE: 705 POINTS
TCL: Running for 1500000 steps
ETITLE: TS BOND ANGLE DIHED IMPRP ELECT VDW BOUNDARY MISC KINETIC TOTAL TEMP POTENTIAL TOTALAVG TEMPAVG PRESSURE GPRESSURE VOLUME PRESSAVG GPRESSAVG
ENERGY: 0 5.3605 6.6107 4.4403 0.0000 -10719.4432 1451.4974 0.0000 0.0000 1727.3487 -7524.1857 293.6626 -9251.5344 -7524.1857 293.6626 26.8405 97.9080 30622.0056 26.8405 97.9080
ENERGY: 300000 3.9936 2.5677 5.7465 0.0000 -10731.0076 1414.9881 0.0000 0.0000 1790.2930 -7513.4187 304.3637 -9303.7117 -7529.2390 299.2255 -165.1208 -136.0407 30280.6022 231.3098 274.8350
ENERGY: 600000 4.1492 5.6156 5.4954 0.0000 -10767.2016 1530.3275 0.0000 0.0000 1825.8104 -7395.8036 310.4019 -9221.6140 -7487.6130 301.9432 1061.7030 1111.5517 30109.1670 170.0410 216.5760
ENERGY: 900000 5.0501 3.6274 3.8813 0.0000 -10817.4151 1516.0520 0.0000 0.0000 1738.6193 -7550.1850 295.5787 -9288.8042 -7507.3781 300.9363 468.5302 562.8987 30054.4143 109.5971 160.2351
ENERGY: 1200000 4.3328 3.4779 4.5921 0.0000 -10702.7744 1384.5337 0.0000 0.0000 1785.2462 -7520.5917 303.5057 -9305.8379 -7507.5032 300.9646 -411.6502 -320.8292 30326.8879 -41.5770 10.9140
ENERGY: 1500000 3.9335 4.8873 3.1346 0.0000 -10710.2850 1478.1070 0.0000 0.0000 1770.2849 -7449.9376 300.9621 -9220.2225 -7502.7500 300.6206 411.3389 515.1394 30647.6926 -23.0726 34.4244
TCL: Running FEP window  17: Lambda1 0.8000000000000002 Lambda2 0.8500000000000002 [dLambda 0.050000000000000044]
TCL: Setting parameter firsttimestep to 0
TCL: Setting parameter alchLambda to 0.8000000000000002
Info: NONBONDED TABLE R-SQUARED SPACING: 0.0625
Info: NONBONDED TABLE SIZE: 705 POINTS
TCL: Setting parameter alchLambda2 to 0.8500000000000002
Info: NONBONDED TABLE R-SQUARED SPACING: 0.0625
Info: NONBONDED TABLE SIZE: 705 POINTS
TCL: Running for 1500000 steps
ETITLE: TS BOND ANGLE DIHED IMPRP ELECT VDW BOUNDARY MISC KINETIC TOTAL TEMP POTENTIAL TOTALAVG TEMPAVG PRESSURE GPRESSURE VOLUME PRESSAVG GPRESSAVG
ENERGY: 0 3.9335 4.8873 3.1346 0.0000 -10711.5796 1477.7596 0.0000 0.0000 1769.4208 -7452.4436 300.8152 -9221.8644 -7452.4436 300.8152 422.5126 517.0336 30647.6926 422.5126 517.0336
ENERGY: 300000 9.4242 5.2644 1.3039 0.0000 -10781.0659 1449.3384 0.0000 0.0000 1751.2767 -7564.4583 297.7306 -9315.7350 -7516.1553 298.3829 -66.4426 -57.2979 30195.2977 -126.9974 -74.1456
ENERGY: 600000 2.0049 2.5032 4.1431 0.0000 -10627.3126 1348.4449 0.0000 0.0000 1811.4090 -7458.8075 307.9535 -9270.2165 -7500.4605 300.7797 -741.3578 -672.0439 30767.0380 -82.8665 -41.7399
ENERGY: 900000 5.4718 4.9160 1.8564 0.0000 -10650.0420 1399.6108 0.0000 0.0000 1763.4199 -7474.7671 299.7950 -9238.1870 -7489.7120 300.3720 -498.8939 -461.9639 30680.2794 -59.4460 -9.4572
ENERGY: 1200000 3.2345 4.5636 4.7516 0.0000 -10810.2619 1512.5193 0.0000 0.0000 1700.4229 -7584.7701 289.0850 -9285.1930 -7500.9085 299.3796 145.6813 226.1203 30673.5780 -28.5763 24.8627
ENERGY: 1500000 1.2297 3.5757 2.6621 0.0000 -10688.3132 1382.2781 0.0000 0.0000 1770.3405 -7528.2270 300.9716 -9298.5676 -7510.5792 299.0983 -293.0305 -246.6849 30338.5454 -61.0041 -3.0395
TCL: Running FEP window  18: Lambda1 0.8500000000000002 Lambda2 0.9000000000000002 [dLambda 0.050000000000000044]
TCL: Setting parameter firsttimestep to 0
TCL: Setting parameter alchLambda to 0.8500000000000002
Info: NONBONDED TABLE R-SQUARED SPACING: 0.0625
Info: NONBONDED TABLE SIZE: 705 POINTS
TCL: Setting parameter alchLambda2 to 0.9000000000000002
Info: NONBONDED TABLE R-SQUARED SPACING: 0.0625
Info: NONBONDED TABLE SIZE: 705 POINTS
TCL: Running for 1500000 steps
ETITLE: TS BOND ANGLE DIHED IMPRP ELECT VDW BOUNDARY MISC KINETIC TOTAL TEMP POTENTIAL TOTALAVG TEMPAVG PRESSURE GPRESSURE VOLUME PRESSAVG GPRESSAVG
ENERGY: 0 1.2297 3.5757 2.6621 0.0000 -10689.9247 1383.9482 0.0000 0.0000 1769.4782 -7529.0309 300.8250 -9298.5090 -7529.0309 300.8250 -306.0449 -222.0885 30338.5454 -306.0449 -222.0885
ENERGY: 300000 2.8898 3.5415 3.1915 0.0000 -10715.4413 1411.5324 0.0000 0.0000 1754.7916 -7539.4945 298.3281 -9294.2861 -7550.5051 299.9925 -231.7868 -157.6664 30188.5104 -425.0044 -362.3703
ENERGY: 600000 2.8613 3.0544 5.4992 0.0000 -10673.6634 1411.9702 0.0000 0.0000 1763.3813 -7486.8969 299.7885 -9250.2783 -7548.4523 297.3888 -247.8132 -182.7296 30407.4646 -375.8533 -312.3697
ENERGY: 900000 1.8157 4.0576 7.6953 0.0000 -10800.7052 1481.6010 0.0000 0.0000 1725.4666 -7580.0690 293.3427 -9305.5357 -7546.2487 297.3795 220.0868 259.2970 30571.7857 -166.7571 -102.4633
ENERGY: 1200000 4.8582 1.5284 3.8951 0.0000 -10739.6405 1481.9008 0.0000 0.0000 1682.5368 -7564.9213 286.0443 -9247.4581 -7546.8888 296.2960 596.0575 699.5779 29971.3711 -98.6282 -27.1251
ENERGY: 1500000 3.8196 5.7461 4.1532 0.0000 -10840.1038 1507.4844 0.0000 0.0000 1759.8701 -7559.0304 299.1915 -9318.9004 -7546.5013 297.0199 327.7613 387.7317 30569.3197 -62.0119 11.3475
TCL: Running FEP window  19: Lambda1 0.9000000000000002 Lambda2 0.9500000000000003 [dLambda 0.050000000000000044]
TCL: Setting parameter firsttimestep to 0
TCL: Setting parameter alchLambda to 0.9000000000000002
Info: NONBONDED TABLE R-SQUARED SPACING: 0.0625
Info: NONBONDED TABLE SIZE: 705 POINTS
TCL: Setting parameter alchLambda2 to 0.9500000000000003
Info: NONBONDED TABLE R-SQUARED SPACING: 0.0625
Info: NONBONDED TABLE SIZE: 705 POINTS
TCL: Running for 1500000 steps
ETITLE: TS BOND ANGLE DIHED IMPRP ELECT VDW BOUNDARY MISC KINETIC TOTAL TEMP POTENTIAL TOTALAVG TEMPAVG PRESSURE GPRESSURE VOLUME PRESSAVG GPRESSAVG
ENERGY: 0 3.8196 5.7461 4.1532 0.0000 -10841.7610 1507.0193 0.0000 0.0000 1759.0024 -7562.0204 299.0440 -9321.0229 -7562.0204 299.0440 299.5839 383.3250 30569.3197 299.5839 383.3250
ENERGY: 300000 4.4534 3.5505 1.8861 0.0000 -10839.1101 1490.6820 0.0000 0.0000 1782.8616 -7555.6766 303.1003 -9338.5382 -7507.8252 301.7114 323.6439 420.1384 30237.0127 75.2684 148.9511
ENERGY: 600000 2.2902 5.8275 8.2415 0.0000 -10877.3714 1550.8457 0.0000 0.0000 1819.6002 -7490.5663 309.3461 -9310.1665 -7481.9611 304.7449 790.6197 856.9361 30427.5457 5.4615 83.0798
ENERGY: 900000 2.8680 4.3071 5.8274 0.0000 -10809.0162 1499.3420 0.0000 0.0000 1769.3127 -7527.3590 300.7968 -9296.6717 -7486.2093 304.0672 265.8660 428.0397 30670.1267 37.6668 115.2158
ENERGY: 1200000 2.9838 3.5924 3.3975 0.0000 -10715.9004 1420.1800 0.0000 0.0000 1766.4987 -7519.2480 300.3184 -9285.7468 -7494.5076 303.1258 117.4336 118.1813 29839.8093 -1.8033 63.8836
ENERGY: 1500000 5.9938 4.0520 3.8439 0.0000 -10813.5705 1480.9180 0.0000 0.0000 1789.6575 -7529.1054 304.2556 -9318.7628 -7492.8985 302.8885 591.1015 653.1880 29770.5736 9.4071 76.2850
TCL: Running FEP window  20: Lambda1 0.9500000000000003 Lambda2 1.0    [dLambda 0.04999999999999971]
TCL: Setting parameter firsttimestep to 0
TCL: Setting parameter alchLambda to 0.9500000000000003
Info: NONBONDED TABLE R-SQUARED SPACING: 0.0625
Info: NONBONDED TABLE SIZE: 705 POINTS
TCL: Setting parameter alchLambda2 to 1.0
Info: NONBONDED TABLE R-SQUARED SPACING: 0.0625
Info: NONBONDED TABLE SIZE: 705 POINTS
TCL: Running for 1500000 steps
ETITLE: TS BOND ANGLE DIHED IMPRP ELECT VDW BOUNDARY MISC KINETIC TOTAL TEMP POTENTIAL TOTALAVG TEMPAVG PRESSURE GPRESSURE VOLUME PRESSAVG GPRESSAVG
ENERGY: 0 5.9938 4.0520 3.8439 0.0000 -10815.0304 1481.0877 0.0000 0.0000 1788.7605 -7531.2924 304.1031 -9320.0529 -7531.2924 304.1031 579.1579 664.0314 29770.5736 579.1579 664.0314
ENERGY: 300000 3.1194 2.8918 3.2843 0.0000 -10700.4179 1458.0047 0.0000 0.0000 1709.4986 -7523.6191 290.6280 -9233.1177 -7529.0501 299.0204 -92.7450 -55.3248 30998.4516 196.5216 252.5161
ENERGY: 600000 3.4341 5.0423 6.3539 0.0000 -10650.0445 1403.5477 0.0000 0.0000 1763.5672 -7468.0993 299.8201 -9231.6665 -7542.7819 297.7619 27.7158 71.6150 30465.4626 79.4197 133.0042
ENERGY: 900000 1.9514 4.6479 5.2136 0.0000 -10706.9047 1368.1410 0.0000 0.0000 1751.3378 -7575.6130 297.7410 -9326.9508 -7542.6632 298.5847 -427.2657 -320.7113 29909.2184 -2.9566 50.8871
ENERGY: 1200000 2.1675 6.1992 3.3269 0.0000 -10669.8645 1434.1723 0.0000 0.0000 1822.9976 -7401.0010 309.9237 -9223.9986 -7522.3628 299.3559 161.6419 272.3559 30710.4401 57.4676 118.7628
ENERGY: 1500000 3.0259 5.9877 4.8257 0.0000 -10872.6406 1490.9058 0.0000 0.0000 1789.5060 -7578.3894 304.2299 -9367.8954 -7518.9454 300.6240 89.7523 144.8779 30274.9003 49.2497 115.3114
TCL: Exiting due to exit command.
