Info: SIMULATION PARAMETERS:
Info: TIMESTEP               2
Info: NUMBER OF STEPS        0
Info: STEPS PER CYCLE        10
Info: PERIODIC CELL BASIS 1  32.1903 0 0
Info: PERIODIC CELL BASIS 2  0 29.998 0
Info: PERIODIC CELL BASIS 3  0 0 31.8446
Info: PERIODIC CELL CENTER   0 0 0
Info: WRAPPING WATERS AROUND PERIODIC BOUNDARIES ON OUTPUT.
Info: WRAPPING ALL CLUSTERS AROUND PERIODIC BOUNDARIES ON OUTPUT.
Info: FIRST LDB TIMESTEP     50
Info: LAST LDB TIMESTEP     -1
Info: HOM BACKGROUND SCALING 1
Info: PME BACKGROUND SCALING 1
Info: MIN ATOMS PER PATCH    40
Info: EMPTY PATCH LOAD       40 ATOMS
Info: VELOCITY FILE          mobley_7176290_equil.vel
Info: CENTER OF MASS MOVING INITIALLY? NO
Info: DIELECTRIC             1
Info: EXCLUDE                SCALED ONE-FOUR
Info: 1-4 ELECTROSTATICS SCALED BY 0.833333
Info: MODIFIED 1-4 VDW PARAMETERS WILL BE USED
Info: DCD FILENAME           mobley_7176290_prod.dcd
Info: DCD FREQUENCY          100000
Info: DCD FIRST STEP         100000
Info: DCD FILE WILL CONTAIN UNIT CELL DATA
Info: XST FILENAME           mobley_7176290_prod.xst
Info: XST FREQUENCY          100000
Info: NO VELOCITY DCD OUTPUT
Info: NO FORCE DCD OUTPUT
Info: OUTPUT FILENAME        mobley_7176290_prod
Info: BINARY OUTPUT FILES WILL BE USED
Info: RESTART FILENAME       mobley_7176290_prod.restart
Info: RESTART FREQUENCY      100000
Info: BINARY RESTART FILES WILL BE USED
Info: CUTOFF                 9
Info: PAIRLIST DISTANCE      11
Info: PAIRLIST SHRINK RATE   0.01
Info: PAIRLIST GROW RATE     0.01
Info: PAIRLIST TRIGGER       0.3
Info: PAIRLISTS PER CYCLE    2
Info: PAIRLISTS ENABLED
Info: MARGIN                 2
Info: HYDROGEN GROUP CUTOFF  2.5
Info: PATCH DIMENSION        15.5
Info: ENERGY OUTPUT STEPS    100000
Info: ENERGY EVALUATION STEPS    100000
Info: OUTPUT ENERGY PRECISION 4
Info: CROSSTERM ENERGY INCLUDED IN DIHEDRAL
Info: TIMING OUTPUT STEPS    1000000
Info: PRESSURE OUTPUT STEPS  100000
Info: ALCHEMICAL FEP ON
Info: FEP CURRENT LAMBDA VALUE     0
Info: FEP COMPARISON LAMBDA VALUE  0.05
Info: FEP INTRA-ALCHEMICAL NON-BONDED INTERACTIONS WILL BE RETAINED
Info: FEP INTRA-ALCHEMICAL BONDED INTERACTIONS WILL BE RETAINED
Info: FEP VDW SHIFTING COEFFICIENT 5
Info: FEP ELEC. ACTIVE FOR ANNIHILATED PARTICLES BETWEEN LAMBDA = 0 AND LAMBDA = 0.5
Info: FEP ELEC. ACTIVE FOR EXNIHILATED PARTICLES BETWEEN LAMBDA = 0.5 AND LAMBDA = 1
Info: FEP VDW ACTIVE FOR ANNIHILATED PARTICLES BETWEEN LAMBDA = 0 AND LAMBDA = 1
Info: FEP VDW ACTIVE FOR EXNIHILATED PARTICLES BETWEEN LAMBDA = 0 AND LAMBDA = 1
Info: FEP BOND ACTIVE FOR ANNIHILATED PARTICLES BETWEEN LAMBDA = 1 AND LAMBDA = 1
Info: FEP BOND ACTIVE FOR EXNIHILATED PARTICLES BETWEEN LAMBDA = 0 AND LAMBDA = 0
Info: LANGEVIN DYNAMICS ACTIVE
Info: LANGEVIN TEMPERATURE   300
Info: LANGEVIN USING BBK INTEGRATOR
Info: LANGEVIN DAMPING COEFFICIENT IS 1 INVERSE PS
Info: LANGEVIN DYNAMICS APPLIED TO HYDROGENS
Info: LANGEVIN PISTON PRESSURE CONTROL ACTIVE
Info:        TARGET PRESSURE IS 1.01325 BAR
Info:     OSCILLATION PERIOD IS 50 FS
Info:             DECAY TIME IS 25 FS
Info:     PISTON TEMPERATURE IS 300 K
Info:       PRESSURE CONTROL IS GROUP-BASED
Info:    INITIAL STRAIN RATE IS -0.000185158 -0.000185158 -0.000185158
Info:       CELL FLUCTUATION IS ISOTROPIC
Info: PARTICLE MESH EWALD (PME) ACTIVE
Info: PME TOLERANCE               1e-06
Info: PME EWALD COEFFICIENT       0.348832
Info: PME INTERPOLATION ORDER     4
Info: PME GRID DIMENSIONS         36 32 32
Info: PME MAXIMUM GRID SPACING    1
Info: PME CALCULATION WILL BE PERFORMED ON GPU
Info: FULL ELECTROSTATIC EVALUATION FREQUENCY      2
Info: USING VERLET I (r-RESPA) MTS SCHEME.
Info: C1 SPLITTING OF LONG RANGE ELECTROSTATICS
Info: PLACING ATOMS IN PATCHES BY HYDROGEN GROUPS
Info: RIGID BONDS TO HYDROGEN : ALL
Info:         ERROR TOLERANCE : 1e-08
Info:          MAX ITERATIONS : 100
Info: RIGID WATER USING SETTLE ALGORITHM
Info: RANDOM NUMBER SEED     1743750697
Info: USE HYDROGEN BONDS?    NO
Info: Using AMBER format force field!
Info: AMBER PARM FILE        mobley_7176290.prmtop
Info: COORDINATE PDB         mobley_7176290.pdb
Info: Exclusions will be read from PARM file!
Info: SCNB (VDW SCALING)     2
Info: USING ARITHMETIC MEAN TO COMBINE L-J SIGMA PARAMETERS
Info: BINARY COORDINATES     mobley_7176290_equil.coor
Info: SUMMARY OF PARAMETERS:
Info: 8 BONDS
Info: 7 ANGLES
Info:   7 HARMONIC
Info:   0 COSINE-BASED
Info: 4 DIHEDRAL
Info: 0 IMPROPER
Info: 0 CROSSTERM
Info: 0 VDW
Info: 28 VDW_PAIRS
Info: 0 NBTHOLE_PAIRS
Info: To read alchdata from file: mobley_7176290.pdb
Info: To read alchflag data from column: 5
Info: STRUCTURE SUMMARY:
Info: 3000 ATOMS
Info: 3000 BONDS
Info: 22 ANGLES
Info: 36 DIHEDRALS
Info: 0 IMPROPERS
Info: 0 CROSSTERMS
Info: 3049 EXCLUSIONS
Info: 2990 RIGID BONDS
Info: ALCH: 0 ATOMS TO DISAPPEAR IN FINAL STATE
Info: ALCH: 15 ATOMS TO APPEAR IN FINAL STATE
Info: 6010 DEGREES OF FREEDOM
Info: 1005 HYDROGEN GROUPS
Info: 3 ATOMS IN LARGEST HYDROGEN GROUP
Info: 1005 MIGRATION GROUPS
Info: 3 ATOMS IN LARGEST MIGRATION GROUP
Info: TOTAL MASS = 18065 amu
Info: TOTAL CHARGE = -0.000200011 e
Info: MASS DENSITY = 0.97554 g/cm^3
Info: ATOM DENSITY = 0.0975592 atoms/A^3
Info: ADDED 0 IMPLICIT EXCLUSIONS
Info: NONBONDED TABLE R-SQUARED SPACING: 0.0625
Info: NONBONDED TABLE SIZE: 705 POINTS
Info: REMOVING COM VELOCITY -0.219249 0.0575768 0.154843
Info: Use 3D box decompostion in PME FFT.
Info: Updated CUDA force table with 4096 elements.
Info: Updated CUDA LJ table with 7 x 7 elements.
Info: Found 18 unique exclusion lists needing 40 bytes
TCL: Running for 1500000 steps
ETITLE: TS BOND ANGLE DIHED IMPRP ELECT VDW BOUNDARY MISC KINETIC TOTAL TEMP POTENTIAL TOTALAVG TEMPAVG PRESSURE GPRESSURE VOLUME PRESSAVG GPRESSAVG
ENERGY: 0 3.3121 2.7253 5.3813 0.0000 -10843.5000 1458.4011 0.0000 0.0000 1777.2166 -7596.4636 297.6160 -9373.6802 -7596.4636 297.6160 -53.9570 37.4188 30750.5563 -53.9570 37.4188
ENERGY: 300000 3.8318 3.4299 3.8163 0.0000 -10981.4022 1532.7296 0.0000 0.0000 1825.9603 -7611.6343 305.7787 -9437.5946 -7612.4657 299.4288 515.7838 629.9955 30313.7068 -39.3995 46.0315
ENERGY: 600000 2.8514 4.5262 1.9485 0.0000 -10943.0485 1429.8941 0.0000 0.0000 1812.3168 -7691.5115 303.4939 -9503.8283 -7645.4704 298.3437 -786.2948 -713.0283 31012.0415 84.4739 160.6266
ENERGY: 900000 2.5441 4.3153 4.1434 0.0000 -10824.3770 1425.8689 0.0000 0.0000 1768.3326 -7619.1726 296.1283 -9387.5052 -7639.5434 298.4992 -276.7082 -245.3467 30476.1167 56.7758 122.1431
ENERGY: 1200000 2.2302 3.0593 3.3056 0.0000 -10879.0724 1455.1331 0.0000 0.0000 1793.8208 -7621.5235 300.3966 -9415.3443 -7631.9483 299.0022 -105.7080 -3.6629 30782.5661 -39.3219 20.9014
ENERGY: 1500000 4.0235 3.9207 4.2867 0.0000 -10871.6213 1477.7010 0.0000 0.0000 1814.6186 -7567.0708 303.8794 -9381.6894 -7619.5102 299.4040 -101.4256 -19.5475 30896.9344 -91.3570 -35.1442
TCL: Running FEP window   2: Lambda1 0.05   Lambda2 0.1    [dLambda 0.05  ]
TCL: Setting parameter firsttimestep to 0
TCL: Setting parameter alchLambda to 0.05
Info: NONBONDED TABLE R-SQUARED SPACING: 0.0625
Info: NONBONDED TABLE SIZE: 705 POINTS
TCL: Setting parameter alchLambda2 to 0.1
Info: NONBONDED TABLE R-SQUARED SPACING: 0.0625
Info: NONBONDED TABLE SIZE: 705 POINTS
TCL: Running for 1500000 steps
ETITLE: TS BOND ANGLE DIHED IMPRP ELECT VDW BOUNDARY MISC KINETIC TOTAL TEMP POTENTIAL TOTALAVG TEMPAVG PRESSURE GPRESSURE VOLUME PRESSAVG GPRESSAVG
ENERGY: 0 4.0235 3.9207 4.2867 0.0000 -10871.6232 1480.8745 0.0000 0.0000 1813.7273 -7564.7905 303.7302 -9378.5178 -7564.7905 303.7302 -93.2643 -13.1313 30896.9344 -93.2643 -13.1313
ENERGY: 300000 2.6308 3.6891 1.2334 0.0000 -10784.1081 1407.3237 0.0000 0.0000 1796.2497 -7572.9815 300.8033 -9369.2312 -7557.5444 302.6560 -369.5046 -362.1459 30920.7934 -232.1306 -207.0381
ENERGY: 600000 2.4907 4.9348 3.9291 0.0000 -10941.3349 1517.2838 0.0000 0.0000 1873.4814 -7539.2150 313.7367 -9412.6965 -7562.9946 305.6059 448.7732 531.3030 30861.0912 -148.1303 -88.6246
ENERGY: 900000 4.3314 5.2368 5.0452 0.0000 -10916.8357 1430.5621 0.0000 0.0000 1816.8440 -7654.8163 304.2521 -9471.6603 -7589.5650 304.0224 -232.6310 -179.4090 30187.0384 -107.3910 -44.3082
ENERGY: 1200000 3.8036 4.5059 1.5839 0.0000 -10907.3641 1489.4705 0.0000 0.0000 1743.3320 -7664.6683 291.9416 -9408.0003 -7598.7414 302.9829 -271.2446 -183.7232 31306.3189 -122.1897 -55.2502
ENERGY: 1500000 1.3267 5.8886 4.7193 0.0000 -10943.3897 1543.9451 0.0000 0.0000 1787.8468 -7599.6633 299.3962 -9387.5101 -7596.7381 303.0797 767.8688 820.3697 30583.7190 -148.0926 -83.0045
TCL: Running FEP window   3: Lambda1 0.1    Lambda2 0.15000000000000002 [dLambda 0.05000000000000002]
TCL: Setting parameter firsttimestep to 0
TCL: Setting parameter alchLambda to 0.1
Info: NONBONDED TABLE R-SQUARED SPACING: 0.0625
Info: NONBONDED TABLE SIZE: 705 POINTS
TCL: Setting parameter alchLambda2 to 0.15000000000000002
Info: NONBONDED TABLE R-SQUARED SPACING: 0.0625
Info: NONBONDED TABLE SIZE: 705 POINTS
TCL: Running for 1500000 steps
ETITLE: TS BOND ANGLE DIHED IMPRP ELECT VDW BOUNDARY MISC KINETIC TOTAL TEMP POTENTIAL TOTALAVG TEMPAVG PRESSURE GPRESSURE VOLUME PRESSAVG GPRESSAVG
ENERGY: 0 1.3266 5.8886 4.7192 0.0000 -10943.3897 1545.1700 0.0000 0.0000 1786.9630 -7599.3223 299.2481 -9386.2853 -7599.3223 299.2481 742.0019 825.7333 30583.7190 742.0019 825.7333
ENERGY: 300000 6.1976 3.2027 4.9020 0.0000 -10928.3099 1507.0879 0.0000 0.0000 1804.6441 -7602.2755 302.2091 -9406.9196 -7603.9895 299.5267 249.9250 320.3716 30685.8282 169.3482 242.7650
ENERGY: 600000 3.7678 1.7206 6.9998 0.0000 -10858.0361 1518.3112 0.0000 0.0000 1772.9883 -7554.2485 296.9079 -9327.2368 -7586.5477 301.7908 620.8344 623.3874 30589.4325 109.5710 176.1461
ENERGY: 900000 3.6676 2.7322 3.1751 0.0000 -10938.2717 1485.6984 0.0000 0.0000 1801.1875 -7641.8109 301.6302 -9442.9985 -7585.4557 301.3126 -34.8436 42.6031 30762.4579 61.0024 132.5854
ENERGY: 1200000 2.4829 2.5441 3.2244 0.0000 -10836.5210 1475.0228 0.0000 0.0000 1777.1611 -7576.0857 297.6067 -9353.2468 -7590.6580 300.4459 -61.8251 -8.5448 31201.2546 12.7876 81.0609
ENERGY: 1500000 3.0582 5.1167 5.7191 0.0000 -10794.2319 1396.4638 0.0000 0.0000 1734.4412 -7649.4328 290.4528 -9383.8740 -7592.7014 298.9517 -537.2488 -466.9733 30901.8807 -53.4517 14.0784
TCL: Running FEP window   4: Lambda1 0.15000000000000002 Lambda2 0.2    [dLambda 0.04999999999999999]
TCL: Setting parameter firsttimestep to 0
TCL: Setting parameter alchLambda to 0.15000000000000002
Info: NONBONDED TABLE R-SQUARED SPACING: 0.0625
Info: NONBONDED TABLE SIZE: 705 POINTS
TCL: Setting parameter alchLambda2 to 0.2
Info: NONBONDED TABLE R-SQUARED SPACING: 0.0625
Info: NONBONDED TABLE SIZE: 705 POINTS
TCL: Running for 1500000 steps
ETITLE: TS BOND ANGLE DIHED IMPRP ELECT VDW BOUNDARY MISC KINETIC TOTAL TEMP POTENTIAL TOTALAVG TEMPAVG PRESSURE GPRESSURE VOLUME PRESSAVG GPRESSAVG
ENERGY: 0 3.0582 5.1167 5.7191 0.0000 -10794.2305 1400.0036 0.0000 0.0000 1733.5562 -7646.7767 290.3045 -9380.3329 -7646.7767 290.3045 -536.9685 -460.5801 30901.8807 -536.9685 -460.5801
ENERGY: 300000 4.2732 2.3523 3.6598 0.0000 -10910.1221 1425.7360 0.0000 0.0000 1833.7849 -7640.3160 307.0890 -9474.1009 -7633.1972 299.4667 -904.5134 -788.3911 30914.3675 -576.3564 -491.5060
ENERGY: 600000 4.8333 3.6922 4.1783 0.0000 -10831.4754 1430.4700 0.0000 0.0000 1784.9542 -7603.3473 298.9117 -9388.3015 -7624.9138 299.5368 -450.6892 -389.8460 30928.4137 -640.5768 -561.1374
ENERGY: 900000 4.6744 3.3384 6.9796 0.0000 -10881.0448 1519.5065 0.0000 0.0000 1778.7548 -7567.7911 297.8736 -9346.5459 -7613.2306 299.8463 474.1714 540.1080 30823.7232 -333.3246 -259.0549
ENERGY: 1200000 2.3164 2.6077 5.6083 0.0000 -10885.3444 1409.3351 0.0000 0.0000 1755.6972 -7709.7798 294.0123 -9465.4770 -7619.7567 299.9998 -513.9734 -486.4622 30408.3556 -215.3996 -146.5894
ENERGY: 1500000 3.0896 2.7590 3.4984 0.0000 -10733.4203 1343.4402 0.0000 0.0000 1793.4521 -7587.1811 300.3348 -9380.6333 -7623.1804 299.7482 -1070.6348 -1028.6077 31161.4208 -293.1708 -231.0831
TCL: Running FEP window   5: Lambda1 0.2    Lambda2 0.25   [dLambda 0.04999999999999999]
TCL: Setting parameter firsttimestep to 0
TCL: Setting parameter alchLambda to 0.2
Info: NONBONDED TABLE R-SQUARED SPACING: 0.0625
Info: NONBONDED TABLE SIZE: 705 POINTS
TCL: Setting parameter alchLambda2 to 0.25
Info: NONBONDED TABLE R-SQUARED SPACING: 0.0625
Info: NONBONDED TABLE SIZE: 705 POINTS
TCL: Running for 1500000 steps
ETITLE: TS BOND ANGLE DIHED IMPRP ELECT VDW BOUNDARY MISC KINETIC TOTAL TEMP POTENTIAL TOTALAVG TEMPAVG PRESSURE GPRESSURE VOLUME PRESSAVG GPRESSAVG
ENERGY: 0 3.0896 2.7590 3.4984 0.0000 -10733.4199 1343.5875 0.0000 0.0000 1792.5259 -7587.9595 300.1797 -9380.4855 -7587.9595 300.1797 -1112.7198 -1021.4681 31161.4208 -1112.7198 -1021.4681
ENERGY: 300000 3.1428 5.4977 3.5124 0.0000 -10852.8355 1481.9346 0.0000 0.0000 1765.4397 -7593.3082 295.6438 -9358.7479 -7586.4756 300.5334 38.8253 126.4143 31274.3674 -400.6475 -329.6578
ENERGY: 600000 1.4221 3.4714 6.1342 0.0000 -10725.5121 1390.2485 0.0000 0.0000 1787.7969 -7536.4389 299.3878 -9324.2358 -7595.3627 298.2482 -224.0125 -130.8983 30931.9387 -260.8356 -181.6172
ENERGY: 900000 4.3009 4.9587 6.0279 0.0000 -10900.3371 1478.6163 0.0000 0.0000 1796.0381 -7610.3951 300.7679 -9406.4331 -7602.1272 299.2779 148.0196 239.2623 30772.8960 -145.6717 -66.6038
ENERGY: 1200000 3.9537 1.4244 2.2804 0.0000 -10920.9870 1494.7598 0.0000 0.0000 1866.8328 -7551.7360 312.6233 -9418.5688 -7592.9803 300.4338 477.8612 561.0621 30420.3814 -15.6934 63.5300
ENERGY: 1500000 3.6702 4.0010 4.6232 0.0000 -10839.8104 1400.9165 0.0000 0.0000 1833.4649 -7593.1346 307.0354 -9426.5996 -7586.3534 301.5725 -718.8814 -648.9631 30646.1828 -9.3126 68.5703
TCL: Running FEP window   6: Lambda1 0.25   Lambda2 0.3    [dLambda 0.04999999999999999]
TCL: Setting parameter firsttimestep to 0
TCL: Setting parameter alchLambda to 0.25
Info: NONBONDED TABLE R-SQUARED SPACING: 0.0625
Info: NONBONDED TABLE SIZE: 705 POINTS
TCL: Setting parameter alchLambda2 to 0.3
Info: NONBONDED TABLE R-SQUARED SPACING: 0.0625
Info: NONBONDED TABLE SIZE: 705 POINTS
TCL: Running for 1500000 steps
ETITLE: TS BOND ANGLE DIHED IMPRP ELECT VDW BOUNDARY MISC KINETIC TOTAL TEMP POTENTIAL TOTALAVG TEMPAVG PRESSURE GPRESSURE VOLUME PRESSAVG GPRESSAVG
ENERGY: 0 3.6702 4.0010 4.6232 0.0000 -10839.8113 1402.4233 0.0000 0.0000 1832.5929 -7592.5007 306.8894 -9425.0936 -7592.5007 306.8894 -725.5075 -637.5432 30646.1828 -725.5075 -637.5432
ENERGY: 300000 2.7674 2.2481 2.8370 0.0000 -10754.0808 1379.7672 0.0000 0.0000 1753.3568 -7613.1042 293.6204 -9366.4611 -7586.7833 302.3251 -616.1717 -611.2294 30919.1001 -373.6283 -300.1003
ENERGY: 600000 2.1018 8.4394 3.8452 0.0000 -10960.9060 1496.2781 0.0000 0.0000 1765.0977 -7685.1439 295.5865 -9450.2415 -7608.2282 300.4439 -62.4608 90.0810 30624.5670 -238.8073 -156.7785
ENERGY: 900000 4.1047 3.3141 1.4573 0.0000 -10852.1649 1517.5432 0.0000 0.0000 1737.4457 -7588.2998 290.9559 -9325.7455 -7602.0831 299.6884 348.4088 364.7099 31503.7271 -250.6839 -180.7006
ENERGY: 1200000 9.6632 4.0874 4.8724 0.0000 -10873.8969 1494.3130 0.0000 0.0000 1764.3063 -7596.6545 295.4540 -9360.9609 -7608.3956 299.1675 11.3040 107.5668 30955.8254 -174.5649 -109.8895
ENERGY: 1500000 1.9640 3.5140 4.2633 0.0000 -10888.6560 1506.4011 0.0000 0.0000 1835.7709 -7536.7428 307.4216 -9372.5137 -7601.9935 298.8940 627.9163 673.9877 30484.3645 -126.1952 -64.8085
TCL: Running FEP window   7: Lambda1 0.3    Lambda2 0.35   [dLambda 0.04999999999999999]
TCL: Setting parameter firsttimestep to 0
TCL: Setting parameter alchLambda to 0.3
Info: NONBONDED TABLE R-SQUARED SPACING: 0.0625
Info: NONBONDED TABLE SIZE: 705 POINTS
TCL: Setting parameter alchLambda2 to 0.35
Info: NONBONDED TABLE R-SQUARED SPACING: 0.0625
Info: NONBONDED TABLE SIZE: 705 POINTS
TCL: Running for 1500000 steps
ETITLE: TS BOND ANGLE DIHED IMPRP ELECT VDW BOUNDARY MISC KINETIC TOTAL TEMP POTENTIAL TOTALAVG TEMPAVG PRESSURE GPRESSURE VOLUME PRESSAVG GPRESSAVG
ENERGY: 0 1.9640 3.5140 4.2633 0.0000 -10888.6565 1506.4507 0.0000 0.0000 1834.8681 -7537.5965 307.2704 -9372.4646 -7537.5965 307.2704 592.9609 679.2020 30484.3645 592.9609 679.2020
ENERGY: 300000 3.3669 1.6844 3.1370 0.0000 -10897.7066 1480.7522 0.0000 0.0000 1795.2210 -7613.5452 300.6310 -9408.7662 -7595.4390 303.3920 6.3297 125.1567 30635.1004 13.3176 99.0231
ENERGY: 600000 4.7118 2.8734 2.3248 0.0000 -11067.0714 1545.1370 0.0000 0.0000 1817.2160 -7694.8083 304.3144 -9512.0243 -7628.5219 301.2029 470.3303 522.2148 30215.7750 150.6858 230.3080
ENERGY: 900000 3.9544 5.3903 4.4371 0.0000 -10714.8965 1428.7932 0.0000 0.0000 1804.5887 -7467.7328 302.1998 -9272.3215 -7604.0951 301.7954 179.3276 240.3935 31034.9423 222.2868 283.9632
ENERGY: 1200000 5.1958 4.7032 2.0151 0.0000 -10810.8713 1392.5870 0.0000 0.0000 1796.5636 -7609.8067 300.8559 -9406.3703 -7595.9083 301.6341 -230.9735 -170.3894 30142.5283 186.7993 241.0329
ENERGY: 1500000 3.6745 3.5588 3.7207 0.0000 -10949.8818 1517.9270 0.0000 0.0000 1796.4617 -7624.5392 300.8388 -9421.0008 -7601.5093 301.1743 343.0156 402.3219 30899.3016 194.3949 249.6396
TCL: Running FEP window   8: Lambda1 0.35   Lambda2 0.39999999999999997 [dLambda 0.04999999999999999]
TCL: Setting parameter firsttimestep to 0
TCL: Setting parameter alchLambda to 0.35
Info: NONBONDED TABLE R-SQUARED SPACING: 0.0625
Info: NONBONDED TABLE SIZE: 705 POINTS
TCL: Setting parameter alchLambda2 to 0.39999999999999997
Info: NONBONDED TABLE R-SQUARED SPACING: 0.0625
Info: NONBONDED TABLE SIZE: 705 POINTS
TCL: Running for 1500000 steps
ETITLE: TS BOND ANGLE DIHED IMPRP ELECT VDW BOUNDARY MISC KINETIC TOTAL TEMP POTENTIAL TOTALAVG TEMPAVG PRESSURE GPRESSURE VOLUME PRESSAVG GPRESSAVG
ENERGY: 0 3.6744 3.5588 3.7207 0.0000 -10949.8807 1518.3258 0.0000 0.0000 1795.5550 -7625.0460 300.6870 -9420.6010 -7625.0460 300.6870 341.3087 410.5328 30899.3016 341.3087 410.5328
ENERGY: 300000 3.2070 5.4983 4.2427 0.0000 -10837.2754 1383.6680 0.0000 0.0000 1771.2076 -7669.4517 296.6097 -9440.6593 -7621.0716 302.2577 -607.4371 -551.1752 30614.3907 -111.3730 -45.0800
ENERGY: 600000 3.3901 1.5871 8.7551 0.0000 -10843.8869 1472.1843 0.0000 0.0000 1819.1582 -7538.8121 304.6396 -9357.9703 -7604.0712 301.1038 135.5459 172.9417 31068.2934 -127.9245 -71.8120
ENERGY: 900000 6.0987 2.6140 1.3328 0.0000 -10938.3024 1528.8374 0.0000 0.0000 1753.1143 -7646.3052 293.5798 -9399.4195 -7606.9594 300.8917 428.6903 456.5457 31001.0318 -77.3552 -15.5628
ENERGY: 1200000 5.7560 3.2962 3.3609 0.0000 -10859.6392 1401.2397 0.0000 0.0000 1767.7165 -7678.2699 296.0251 -9445.9864 -7617.9773 300.5465 -970.2515 -864.6042 30999.7803 -88.0110 -24.9423
ENERGY: 1500000 3.9477 2.1913 5.6260 0.0000 -10890.2543 1487.6021 0.0000 0.0000 1810.5683 -7580.3188 303.2011 -9390.8871 -7602.8990 300.8959 223.1321 297.1143 30919.3953 -74.1600 -17.9175
TCL: Running FEP window   9: Lambda1 0.39999999999999997 Lambda2 0.44999999999999996 [dLambda 0.04999999999999999]
TCL: Setting parameter firsttimestep to 0
TCL: Setting parameter alchLambda to 0.39999999999999997
Info: NONBONDED TABLE R-SQUARED SPACING: 0.0625
Info: NONBONDED TABLE SIZE: 705 POINTS
TCL: Setting parameter alchLambda2 to 0.44999999999999996
Info: NONBONDED TABLE R-SQUARED SPACING: 0.0625
Info: NONBONDED TABLE SIZE: 705 POINTS
TCL: Running for 1500000 steps
ETITLE: TS BOND ANGLE DIHED IMPRP ELECT VDW BOUNDARY MISC KINETIC TOTAL TEMP POTENTIAL TOTALAVG TEMPAVG PRESSURE GPRESSURE VOLUME PRESSAVG GPRESSAVG
ENERGY: 0 3.9477 2.1913 5.6260 0.0000 -10890.2550 1489.2367 0.0000 0.0000 1809.6701 -7579.5831 303.0507 -9389.2532 -7579.5831 303.0507 224.0319 309.4512 30919.3953 224.0319 309.4512
ENERGY: 300000 2.8780 3.4178 3.2020 0.0000 -10871.0576 1478.4117 0.0000 0.0000 1769.8888 -7613.2593 296.3889 -9383.1481 -7586.7213 300.7400 134.4071 176.1726 31076.4135 -169.6535 -113.6822
ENERGY: 600000 5.0154 2.3642 2.1470 0.0000 -10861.5424 1360.2498 0.0000 0.0000 1793.3604 -7698.4056 300.3195 -9491.7660 -7611.3870 300.4904 -1043.7346 -990.0714 30598.5242 -320.7878 -271.7728
ENERGY: 900000 2.6842 5.8198 2.5821 0.0000 -10847.5300 1428.0273 0.0000 0.0000 1737.6551 -7670.7616 290.9910 -9408.4167 -7622.6534 298.7477 -418.2830 -351.3834 31009.1191 -222.4214 -168.5936
ENERGY: 1200000 2.7478 1.6080 5.3497 0.0000 -10934.0852 1491.9921 0.0000 0.0000 1852.1900 -7580.1977 310.1712 -9432.3877 -7619.3375 299.9777 382.4455 483.0315 30450.8342 -153.7049 -92.8037
ENERGY: 1500000 7.2411 2.6194 3.2831 0.0000 -10892.7431 1415.0524 0.0000 0.0000 1773.1758 -7691.3714 296.9393 -9464.5471 -7620.0745 300.4701 -576.2762 -515.8723 30734.2600 -150.9355 -89.3029
TCL: Running FEP window  10: Lambda1 0.44999999999999996 Lambda2 0.49999999999999994 [dLambda 0.04999999999999999]
TCL: Setting parameter firsttimestep to 0
TCL: Setting parameter alchLambda to 0.44999999999999996
Info: NONBONDED TABLE R-SQUARED SPACING: 0.0625
Info: NONBONDED TABLE SIZE: 705 POINTS
TCL: Setting parameter alchLambda2 to 0.49999999999999994
Info: NONBONDED TABLE R-SQUARED SPACING: 0.0625
Info: NONBONDED TABLE SIZE: 705 POINTS
TCL: Running for 1500000 steps
ETITLE: TS BOND ANGLE DIHED IMPRP ELECT VDW BOUNDARY MISC KINETIC TOTAL TEMP POTENTIAL TOTALAVG TEMPAVG PRESSURE GPRESSURE VOLUME PRESSAVG GPRESSAVG
ENERGY: 0 7.2411 2.6194 3.2831 0.0000 -10892.7426 1414.9754 0.0000 0.0000 1772.2982 -7692.3255 296.7923 -9464.6237 -7692.3255 296.7923 -589.8027 -509.8905 30734.2600 -589.8027 -509.8905
ENERGY: 300000 0.7061 2.4543 3.1455 0.0000 -10948.6425 1522.9797 0.0000 0.0000 1793.8552 -7625.5017 300.4023 -9419.3569 -7636.6861 298.6434 520.0395 591.7684 30638.3237 -169.4586 -114.0977
ENERGY: 600000 1.9452 4.9486 2.8415 0.0000 -10945.3391 1548.7982 0.0000 0.0000 1793.9680 -7592.8376 300.4212 -9386.8055 -7613.6165 299.4105 533.1625 610.0984 31062.6384 -29.6079 33.6747
ENERGY: 900000 1.9303 6.0474 5.2673 0.0000 -10902.6435 1397.1243 0.0000 0.0000 1817.5294 -7674.7447 304.3669 -9492.2741 -7631.9491 298.8634 -899.5701 -782.7941 31092.0781 -224.1699 -147.0153
ENERGY: 1200000 2.8435 4.1260 5.2355 0.0000 -10871.5256 1517.5168 0.0000 0.0000 1749.7792 -7592.0246 293.0213 -9341.8039 -7623.2533 298.7707 355.1539 472.1849 30833.5879 -200.8208 -122.8030
ENERGY: 1500000 4.6530 4.5400 7.2341 0.0000 -10920.3588 1463.2122 0.0000 0.0000 1787.4830 -7653.2365 299.3352 -9440.7195 -7619.3107 299.4349 103.4394 185.9308 30316.7676 -189.4764 -119.5895
TCL: Running FEP window  11: Lambda1 0.49999999999999994 Lambda2 0.5499999999999999 [dLambda 0.04999999999999999]
TCL: Setting parameter firsttimestep to 0
TCL: Setting parameter alchLambda to 0.49999999999999994
Info: NONBONDED TABLE R-SQUARED SPACING: 0.0625
Info: NONBONDED TABLE SIZE: 705 POINTS
TCL: Setting parameter alchLambda2 to 0.5499999999999999
Info: NONBONDED TABLE R-SQUARED SPACING: 0.0625
Info: NONBONDED TABLE SIZE: 705 POINTS
TCL: Running for 1500000 steps
ETITLE: TS BOND ANGLE DIHED IMPRP ELECT VDW BOUNDARY MISC KINETIC TOTAL TEMP POTENTIAL TOTALAVG TEMPAVG PRESSURE GPRESSURE VOLUME PRESSAVG GPRESSAVG
ENERGY: 0 4.6530 4.5400 7.2341 0.0000 -10920.3592 1462.4775 0.0000 0.0000 1786.5886 -7654.8659 299.1855 -9441.4546 -7654.8659 299.1855 98.0000 185.7755 30316.7676 98.0000 185.7755
ENERGY: 300000 6.4386 2.7140 4.7964 0.0000 -10872.9378 1480.7278 0.0000 0.0000 1749.9626 -7628.2984 293.0520 -9378.2610 -7607.0752 295.9458 34.8658 112.4910 31404.6333 150.2076 225.6465
ENERGY: 600000 3.0573 7.1648 6.2558 0.0000 -10881.2299 1440.8360 0.0000 0.0000 1755.0921 -7668.8238 293.9110 -9423.9159 -7611.8355 296.9712 -351.6445 -283.4772 31080.7562 -45.6979 28.4521
ENERGY: 900000 4.3794 3.0788 7.8716 0.0000 -10875.6642 1442.6136 0.0000 0.0000 1820.3638 -7597.3570 304.8415 -9417.7208 -7606.2010 297.5196 -175.7968 -128.2725 30683.0664 -39.0211 30.9364
ENERGY: 1200000 2.9198 5.4514 9.4029 0.0000 -10836.1291 1463.2593 0.0000 0.0000 1796.1520 -7558.9438 300.7870 -9355.0958 -7596.9212 298.0497 18.1315 57.2481 30920.7733 -2.9808 61.4471
ENERGY: 1500000 5.1774 7.4822 3.2686 0.0000 -10935.6068 1443.6396 0.0000 0.0000 1792.0373 -7684.0017 300.0979 -9476.0391 -7605.5082 297.9020 -653.1957 -577.8049 30875.0767 -88.5569 -26.2313
TCL: Running FEP window  12: Lambda1 0.5499999999999999 Lambda2 0.6    [dLambda 0.050000000000000044]
TCL: Setting parameter firsttimestep to 0
TCL: Setting parameter alchLambda to 0.5499999999999999
Info: NONBONDED TABLE R-SQUARED SPACING: 0.0625
Info: NONBONDED TABLE SIZE: 705 POINTS
TCL: Setting parameter alchLambda2 to 0.6
Info: NONBONDED TABLE R-SQUARED SPACING: 0.0625
Info: NONBONDED TABLE SIZE: 705 POINTS
TCL: Running for 1500000 steps
ETITLE: TS BOND ANGLE DIHED IMPRP ELECT VDW BOUNDARY MISC KINETIC TOTAL TEMP POTENTIAL TOTALAVG TEMPAVG PRESSURE GPRESSURE VOLUME PRESSAVG GPRESSAVG
ENERGY: 0 5.1773 7.4822 3.2686 0.0000 -10935.2824 1443.9258 0.0000 0.0000 1791.1465 -7684.2820 299.9487 -9475.4285 -7684.2820 299.9487 -654.5188 -567.2167 30875.0767 -654.5188 -567.2167
ENERGY: 300000 3.8010 5.8132 7.7204 0.0000 -10954.9841 1555.2950 0.0000 0.0000 1777.3406 -7605.0139 297.6368 -9382.3545 -7610.0321 300.1739 1023.6524 1035.3644 30414.0189 -41.9978 27.1183
ENERGY: 600000 3.6593 3.8932 3.7351 0.0000 -10777.6428 1408.0440 0.0000 0.0000 1811.2256 -7547.0856 303.3112 -9358.3112 -7604.6893 300.6512 -395.5118 -272.0553 31113.0294 -10.2627 65.0504
ENERGY: 900000 3.8841 3.2503 2.5733 0.0000 -10926.7152 1459.3007 0.0000 0.0000 1802.3634 -7655.3433 301.8271 -9457.7067 -7605.8765 301.8330 -109.7925 -48.7043 30731.6443 3.0278 70.7987
ENERGY: 1200000 3.8437 2.6504 2.0145 0.0000 -10855.6384 1452.5057 0.0000 0.0000 1763.8209 -7630.8031 295.3727 -9394.6240 -7602.5018 301.4138 -199.5207 -186.9033 31044.1487 -62.3741 4.1830
ENERGY: 1500000 2.6614 5.8419 3.3948 0.0000 -11013.1437 1525.5566 0.0000 0.0000 1806.3103 -7669.3788 302.4881 -9475.6891 -7599.3083 301.1914 132.6592 134.1744 30826.7802 -25.8926 26.8255
TCL: Running FEP window  13: Lambda1 0.6    Lambda2 0.65   [dLambda 0.050000000000000044]
TCL: Setting parameter firsttimestep to 0
TCL: Setting parameter alchLambda to 0.6
Info: NONBONDED TABLE R-SQUARED SPACING: 0.0625
Info: NONBONDED TABLE SIZE: 705 POINTS
TCL: Setting parameter alchLambda2 to 0.65
Info: NONBONDED TABLE R-SQUARED SPACING: 0.0625
Info: NONBONDED TABLE SIZE: 705 POINTS
TCL: Running for 1500000 steps
ETITLE: TS BOND ANGLE DIHED IMPRP ELECT VDW BOUNDARY MISC KINETIC TOTAL TEMP POTENTIAL TOTALAVG TEMPAVG PRESSURE GPRESSURE VOLUME PRESSAVG GPRESSAVG
ENERGY: 0 2.6614 5.8419 3.3948 0.0000 -11012.3710 1525.7417 0.0000 0.0000 1805.4329 -7669.2985 302.3411 -9474.7313 -7669.2985 302.3411 75.6128 150.0194 30826.7802 75.6128 150.0194
ENERGY: 300000 4.5727 5.1195 3.8757 0.0000 -10829.3556 1416.3954 0.0000 0.0000 1776.7267 -7622.6656 297.5340 -9399.3923 -7623.7686 302.1523 -635.1513 -559.8300 31183.0341 -468.5931 -383.5365
ENERGY: 600000 3.5476 2.3185 1.5542 0.0000 -10931.8677 1543.5044 0.0000 0.0000 1820.7700 -7560.1731 304.9095 -9380.9431 -7605.0172 302.6205 636.9655 693.8198 31086.2988 -125.7642 -52.6793
ENERGY: 900000 2.2301 2.3233 3.0929 0.0000 -10848.0148 1419.1817 0.0000 0.0000 1830.3140 -7590.8728 306.5078 -9421.1868 -7605.1709 301.8829 -238.2310 -145.7310 30647.0616 -88.1755 -21.6034
ENERGY: 1200000 2.8352 4.7584 3.3580 0.0000 -10842.7384 1464.8100 0.0000 0.0000 1788.3285 -7578.6483 299.4768 -9366.9768 -7607.9606 301.8831 -108.5492 -29.9673 31186.3792 -57.7062 4.9641
ENERGY: 1500000 4.2307 3.8986 2.9361 0.0000 -10830.4929 1410.7947 0.0000 0.0000 1797.3025 -7611.3302 300.9796 -9408.6328 -7600.0783 301.8101 -495.5250 -378.2148 30825.0392 -89.1223 -21.7643
TCL: Running FEP window  14: Lambda1 0.65   Lambda2 0.7000000000000001 [dLambda 0.050000000000000044]
TCL: Setting parameter firsttimestep to 0
TCL: Setting parameter alchLambda to 0.65
Info: NONBONDED TABLE R-SQUARED SPACING: 0.0625
Info: NONBONDED TABLE SIZE: 705 POINTS
TCL: Setting parameter alchLambda2 to 0.7000000000000001
Info: NONBONDED TABLE R-SQUARED SPACING: 0.0625
Info: NONBONDED TABLE SIZE: 705 POINTS
TCL: Running for 1500000 steps
ETITLE: TS BOND ANGLE DIHED IMPRP ELECT VDW BOUNDARY MISC KINETIC TOTAL TEMP POTENTIAL TOTALAVG TEMPAVG PRESSURE GPRESSURE VOLUME PRESSAVG GPRESSAVG
ENERGY: 0 4.2307 3.8986 2.9361 0.0000 -10830.6680 1410.5578 0.0000 0.0000 1796.4243 -7612.6206 300.8325 -9409.0448 -7612.6206 300.8325 -452.7782 -370.4406 30825.0392 -452.7782 -370.4406
ENERGY: 300000 6.6152 3.3486 4.3981 0.0000 -10895.3218 1413.5260 0.0000 0.0000 1787.0745 -7680.3594 299.2668 -9467.4339 -7625.6312 296.4876 -363.1016 -347.1569 30628.7902 -528.6604 -491.8165
ENERGY: 600000 3.0353 2.2474 4.1930 0.0000 -10939.3439 1533.6998 0.0000 0.0000 1740.9912 -7655.1772 291.5496 -9396.1684 -7630.9494 295.3546 683.2858 746.8163 30676.3049 -161.3448 -108.1611
ENERGY: 900000 7.7577 2.9894 5.9237 0.0000 -10948.1180 1516.2177 0.0000 0.0000 1789.5410 -7625.6885 299.6799 -9415.2296 -7622.9972 297.2250 36.1737 81.6064 31055.0240 -261.8609 -208.7267
ENERGY: 1200000 4.8426 4.2286 1.9029 0.0000 -10762.0428 1417.6009 0.0000 0.0000 1800.1215 -7533.3463 301.4517 -9333.4678 -7611.6982 297.5021 -394.4200 -350.0428 31192.9206 -308.3210 -251.7152
ENERGY: 1500000 2.4009 4.1284 2.1573 0.0000 -10837.9372 1389.1637 0.0000 0.0000 1829.4479 -7610.6390 306.3627 -9440.0869 -7617.3891 297.6369 -463.9411 -509.7260 30978.2221 -240.6122 -188.1234
TCL: Running FEP window  15: Lambda1 0.7000000000000001 Lambda2 0.7500000000000001 [dLambda 0.050000000000000044]
TCL: Setting parameter firsttimestep to 0
TCL: Setting parameter alchLambda to 0.7000000000000001
Info: NONBONDED TABLE R-SQUARED SPACING: 0.0625
Info: NONBONDED TABLE SIZE: 705 POINTS
TCL: Setting parameter alchLambda2 to 0.7500000000000001
Info: NONBONDED TABLE R-SQUARED SPACING: 0.0625
Info: NONBONDED TABLE SIZE: 705 POINTS
TCL: Running for 1500000 steps
ETITLE: TS BOND ANGLE DIHED IMPRP ELECT VDW BOUNDARY MISC KINETIC TOTAL TEMP POTENTIAL TOTALAVG TEMPAVG PRESSURE GPRESSURE VOLUME PRESSAVG GPRESSAVG
ENERGY: 0 2.4009 4.1284 2.1573 0.0000 -10838.8133 1389.3699 0.0000 0.0000 1828.5817 -7612.1751 306.2177 -9440.7569 -7612.1751 306.2177 -592.4116 -499.2118 30978.2221 -592.4116 -499.2118
ENERGY: 300000 3.1204 3.1928 3.0824 0.0000 -10749.1100 1348.2158 0.0000 0.0000 1786.4215 -7605.0770 299.1575 -9391.4985 -7613.1873 300.6766 -1116.8354 -999.6430 31282.4389 -355.2171 -240.5836
ENERGY: 600000 3.0086 4.9359 8.0668 0.0000 -10765.1565 1430.5990 0.0000 0.0000 1782.9789 -7535.5672 298.5810 -9318.5461 -7564.5208 301.4094 50.6534 103.3792 30906.1012 -269.5088 -168.3464
ENERGY: 900000 3.3339 4.3620 3.8034 0.0000 -10834.9245 1412.7595 0.0000 0.0000 1785.4311 -7625.2345 298.9916 -9410.6656 -7582.5201 300.4579 -255.8883 -197.2727 30856.3749 -192.4585 -107.6842
ENERGY: 1200000 5.7961 5.6563 4.6343 0.0000 -10776.3119 1437.3327 0.0000 0.0000 1747.8025 -7575.0901 292.6903 -9322.8926 -7582.8362 300.8831 -181.0812 -145.9507 31263.0391 -121.8606 -37.0560
ENERGY: 1500000 7.4036 2.4099 4.1771 0.0000 -10828.5972 1438.1844 0.0000 0.0000 1848.4190 -7528.0031 309.5397 -9376.4221 -7574.2799 301.6526 -114.5992 -26.5796 30753.0687 -175.5775 -88.3122
TCL: Running FEP window  16: Lambda1 0.7500000000000001 Lambda2 0.8000000000000002 [dLambda 0.050000000000000044]
TCL: Setting parameter firsttimestep to 0
TCL: Setting parameter alchLambda to 0.7500000000000001
Info: NONBONDED TABLE R-SQUARED SPACING: 0.0625
Info: NONBONDED TABLE SIZE: 705 POINTS
TCL: Setting parameter alchLambda2 to 0.8000000000000002
Info: NONBONDED TABLE R-SQUARED SPACING: 0.0625
Info: NONBONDED TABLE SIZE: 705 POINTS
TCL: Running for 1500000 steps
ETITLE: TS BOND ANGLE DIHED IMPRP ELECT VDW BOUNDARY MISC KINETIC TOTAL TEMP POTENTIAL TOTALAVG TEMPAVG PRESSURE GPRESSURE VOLUME PRESSAVG GPRESSAVG
ENERGY: 0 7.4036 2.4099 4.1771 0.0000 -10829.4306 1437.7111 0.0000 0.0000 1847.4977 -7530.2310 309.3854 -9377.7288 -7530.2310 309.3854 -108.0710 -23.2521 30753.0687 -108.0710 -23.2521
ENERGY: 300000 2.2122 1.0832 3.3119 0.0000 -10911.9035 1504.4790 0.0000 0.0000 1787.1994 -7613.6178 299.2877 -9400.8172 -7612.7244 299.2429 290.3881 357.0975 30997.7158 34.4781 108.5183
ENERGY: 600000 8.0941 2.9572 2.4021 0.0000 -10853.9337 1419.4602 0.0000 0.0000 1784.4760 -7636.5441 298.8317 -9421.0201 -7632.3531 297.9252 -159.7307 -150.6190 30450.7431 85.3073 152.0328
ENERGY: 900000 3.5441 1.2348 5.7733 0.0000 -10834.0521 1450.4563 0.0000 0.0000 1809.4438 -7563.6000 303.0128 -9373.0438 -7627.8462 297.7977 87.5977 180.6784 30708.6084 111.1272 185.3396
ENERGY: 1200000 3.3214 5.0768 4.2668 0.0000 -10922.8741 1514.8112 0.0000 0.0000 1798.9670 -7596.4308 301.2584 -9395.3978 -7614.7880 298.7045 313.0773 432.6524 30691.4873 104.2277 175.3355
ENERGY: 1500000 6.0688 2.6729 4.7479 0.0000 -10828.0529 1491.4166 0.0000 0.0000 1775.0560 -7548.0907 297.2542 -9323.1467 -7603.9736 298.9497 233.3505 278.8733 31245.6112 119.3497 194.1979
TCL: Running FEP window  17: Lambda1 0.8000000000000002 Lambda2 0.8500000000000002 [dLambda 0.050000000000000044]
TCL: Setting parameter firsttimestep to 0
TCL: Setting parameter alchLambda to 0.8000000000000002
Info: NONBONDED TABLE R-SQUARED SPACING: 0.0625
Info: NONBONDED TABLE SIZE: 705 POINTS
TCL: Setting parameter alchLambda2 to 0.8500000000000002
Info: NONBONDED TABLE R-SQUARED SPACING: 0.0625
Info: NONBONDED TABLE SIZE: 705 POINTS
TCL: Running for 1500000 steps
ETITLE: TS BOND ANGLE DIHED IMPRP ELECT VDW BOUNDARY MISC KINETIC TOTAL TEMP POTENTIAL TOTALAVG TEMPAVG PRESSURE GPRESSURE VOLUME PRESSAVG GPRESSAVG
ENERGY: 0 6.0688 2.6729 4.7479 0.0000 -10829.3060 1492.6879 0.0000 0.0000 1774.1760 -7548.9525 297.1068 -9323.1285 -7548.9525 297.1068 226.5150 305.2971 31245.6112 226.5150 305.2971
ENERGY: 300000 3.7747 3.2922 6.0145 0.0000 -10896.6784 1478.1815 0.0000 0.0000 1831.9471 -7573.4685 306.7813 -9405.4155 -7594.8923 298.7503 377.9285 426.6264 30530.4526 124.6712 174.5785
ENERGY: 600000 2.9839 2.1545 1.4238 0.0000 -10864.1756 1448.5710 0.0000 0.0000 1765.9338 -7643.1088 295.7266 -9409.0425 -7619.8033 298.2023 -49.3919 5.0158 30828.3079 -35.3824 28.1883
ENERGY: 900000 2.8741 7.2029 3.4781 0.0000 -10959.0203 1589.3451 0.0000 0.0000 1795.9078 -7560.2123 300.7461 -9356.1201 -7613.7400 299.1441 961.1260 978.2666 31387.6418 70.7803 132.4298
ENERGY: 1200000 2.4385 5.0837 3.9876 0.0000 -10900.9426 1506.3559 0.0000 0.0000 1831.8813 -7551.1957 306.7702 -9383.0769 -7602.5407 299.3309 346.2849 403.4568 31353.0406 146.8556 214.1254
ENERGY: 1500000 2.3726 5.0851 5.4470 0.0000 -10914.3879 1475.3219 0.0000 0.0000 1752.7088 -7673.4525 293.5119 -9426.1613 -7615.4550 298.2945 -120.2419 -74.2462 31193.7917 146.4794 206.5227
TCL: Running FEP window  18: Lambda1 0.8500000000000002 Lambda2 0.9000000000000002 [dLambda 0.050000000000000044]
TCL: Setting parameter firsttimestep to 0
TCL: Setting parameter alchLambda to 0.8500000000000002
Info: NONBONDED TABLE R-SQUARED SPACING: 0.0625
Info: NONBONDED TABLE SIZE: 705 POINTS
TCL: Setting parameter alchLambda2 to 0.9000000000000002
Info: NONBONDED TABLE R-SQUARED SPACING: 0.0625
Info: NONBONDED TABLE SIZE: 705 POINTS
TCL: Running for 1500000 steps
ETITLE: TS BOND ANGLE DIHED IMPRP ELECT VDW BOUNDARY MISC KINETIC TOTAL TEMP POTENTIAL TOTALAVG TEMPAVG PRESSURE GPRESSURE VOLUME PRESSAVG GPRESSAVG
ENERGY: 0 2.3726 5.0851 5.4470 0.0000 -10916.1507 1475.7676 0.0000 0.0000 1751.7844 -7675.6940 293.3571 -9427.4784 -7675.6940 293.3571 -135.0848 -60.9310 31193.7917 -135.0848 -60.9310
ENERGY: 300000 1.7430 5.9564 4.9736 0.0000 -10804.9376 1389.7582 0.0000 0.0000 1799.1925 -7603.3138 301.2961 -9402.5063 -7627.5119 298.2437 -470.5960 -423.1718 30915.1861 -591.8076 -495.7530
ENERGY: 600000 1.8636 3.2861 2.1673 0.0000 -10876.1086 1468.4169 0.0000 0.0000 1824.8408 -7575.5340 305.5912 -9400.3749 -7609.2410 301.3311 -15.8564 117.7823 31417.6480 -381.2627 -284.8190
ENERGY: 900000 1.3670 3.1277 6.0857 0.0000 -10919.2560 1525.4207 0.0000 0.0000 1776.4451 -7606.8099 297.4868 -9383.2550 -7613.1470 300.3632 448.4346 554.2833 30977.7455 -221.7252 -125.7557
ENERGY: 1200000 2.9121 2.9306 1.8386 0.0000 -10892.4440 1437.6963 0.0000 0.0000 1766.3050 -7680.7613 295.7887 -9447.0663 -7617.9642 299.7943 -250.8383 -219.5340 30897.8320 -270.6737 -187.0849
ENERGY: 1500000 3.3310 8.4411 3.4804 0.0000 -11029.4540 1581.1693 0.0000 0.0000 1792.9443 -7640.0878 300.2498 -9433.0322 -7613.9330 300.0972 1271.4103 1287.5839 30238.6959 -159.3638 -80.7513
TCL: Running FEP window  19: Lambda1 0.9000000000000002 Lambda2 0.9500000000000003 [dLambda 0.050000000000000044]
TCL: Setting parameter firsttimestep to 0
TCL: Setting parameter alchLambda to 0.9000000000000002
Info: NONBONDED TABLE R-SQUARED SPACING: 0.0625
Info: NONBONDED TABLE SIZE: 705 POINTS
TCL: Setting parameter alchLambda2 to 0.9500000000000003
Info: NONBONDED TABLE R-SQUARED SPACING: 0.0625
Info: NONBONDED TABLE SIZE: 705 POINTS
TCL: Running for 1500000 steps
ETITLE: TS BOND ANGLE DIHED IMPRP ELECT VDW BOUNDARY MISC KINETIC TOTAL TEMP POTENTIAL TOTALAVG TEMPAVG PRESSURE GPRESSURE VOLUME PRESSAVG GPRESSAVG
ENERGY: 0 3.3310 8.4411 3.4804 0.0000 -11031.1304 1582.7023 0.0000 0.0000 1792.0723 -7641.1033 300.1038 -9433.1757 -7641.1033 300.1038 1229.0977 1316.7892 30238.6959 1229.0977 1316.7892
ENERGY: 300000 2.9457 2.7600 3.5280 0.0000 -10873.2732 1443.2869 0.0000 0.0000 1782.2241 -7638.5285 298.4546 -9420.7526 -7558.1808 302.8195 -308.1269 -193.7485 31083.5370 165.0942 271.4857
ENERGY: 600000 2.5346 3.8774 5.6668 0.0000 -10888.6756 1447.0412 0.0000 0.0000 1815.9491 -7613.6066 304.1022 -9429.5557 -7580.7742 303.6026 17.3539 49.4672 30869.4030 187.4638 267.9144
ENERGY: 900000 4.7854 7.5984 5.0767 0.0000 -10943.2164 1491.1931 0.0000 0.0000 1798.0845 -7636.4783 301.1106 -9434.5629 -7592.3360 303.4418 246.1752 273.8763 30902.0522 69.0201 143.5858
ENERGY: 1200000 2.8522 4.5767 0.5161 0.0000 -10708.0878 1366.4284 0.0000 0.0000 1840.5495 -7493.1649 308.2218 -9333.7144 -7581.8003 302.6974 -386.0518 -284.6258 30844.0368 -34.0715 39.7487
ENERGY: 1500000 5.3501 4.6354 3.7018 0.0000 -10779.4877 1414.8799 0.0000 0.0000 1708.4666 -7642.4539 286.1030 -9350.9205 -7596.8889 300.7541 -447.8806 -399.6848 30997.3446 -129.8086 -59.9834
TCL: Running FEP window  20: Lambda1 0.9500000000000003 Lambda2 1.0    [dLambda 0.04999999999999971]
TCL: Setting parameter firsttimestep to 0
TCL: Setting parameter alchLambda to 0.9500000000000003
Info: NONBONDED TABLE R-SQUARED SPACING: 0.0625
Info: NONBONDED TABLE SIZE: 705 POINTS
TCL: Setting parameter alchLambda2 to 1.0
Info: NONBONDED TABLE R-SQUARED SPACING: 0.0625
Info: NONBONDED TABLE SIZE: 705 POINTS
TCL: Running for 1500000 steps
ETITLE: TS BOND ANGLE DIHED IMPRP ELECT VDW BOUNDARY MISC KINETIC TOTAL TEMP POTENTIAL TOTALAVG TEMPAVG PRESSURE GPRESSURE VOLUME PRESSAVG GPRESSAVG
ENERGY: 0 5.3501 4.6354 3.7018 0.0000 -10780.1071 1414.0493 0.0000 0.0000 1707.5900 -7644.7806 285.9562 -9352.3706 -7644.7806 285.9562 -475.5540 -396.1811 30997.3446 -475.5540 -396.1811
ENERGY: 300000 2.0489 2.2239 4.6883 0.0000 -10948.5272 1505.4601 0.0000 0.0000 1766.5425 -7667.5635 295.8285 -9434.1060 -7644.3039 294.2644 128.6378 196.1076 31032.9270 -133.0172 -67.8079
ENERGY: 600000 2.0007 3.7902 1.2039 0.0000 -10892.8234 1447.9958 0.0000 0.0000 1819.0938 -7618.7390 304.6288 -9437.8328 -7640.7113 296.7898 -254.1937 -134.3691 31028.5644 -65.0754 1.2569
ENERGY: 900000 2.3630 4.9767 4.6617 0.0000 -10929.0749 1426.5952 0.0000 0.0000 1825.4962 -7664.9821 305.7010 -9490.4783 -7633.2355 299.7506 -519.4563 -446.4441 31059.8286 -72.8968 -3.1342
ENERGY: 1200000 2.7742 3.2574 4.5641 0.0000 -10776.4580 1390.6334 0.0000 0.0000 1745.9742 -7629.2548 292.3841 -9375.2290 -7631.3713 299.4142 -426.2181 -439.3069 31166.7542 -61.1048 -1.7589
ENERGY: 1500000 5.9905 8.8108 8.1542 0.0000 -10751.1666 1382.5245 0.0000 0.0000 1814.5174 -7531.1692 303.8625 -9345.6867 -7623.9041 299.6020 -515.9348 -404.4093 31127.0071 -118.1888 -54.9570
TCL: Exiting due to exit command.
