Info: SIMULATION PARAMETERS:
Info: TIMESTEP               2
Info: NUMBER OF STEPS        0
Info: STEPS PER CYCLE        10
Info: PERIODIC CELL BASIS 1  30.9676 0 0
Info: PERIODIC CELL BASIS 2  0 31.3437 0
Info: PERIODIC CELL BASIS 3  0 0 31.6199
Info: PERIODIC CELL CENTER   0 0 0
Info: WRAPPING WATERS AROUND PERIODIC BOUNDARIES ON OUTPUT.
Info: WRAPPING ALL CLUSTERS AROUND PERIODIC BOUNDARIES ON OUTPUT.
Info: FIRST LDB TIMESTEP     50
Info: LAST LDB TIMESTEP     -1
Info: HOM BACKGROUND SCALING 1
Info: PME BACKGROUND SCALING 1
Info: MIN ATOMS PER PATCH    40
Info: EMPTY PATCH LOAD       40 ATOMS
Info: VELOCITY FILE          mobley_2178600_equil.vel
Info: CENTER OF MASS MOVING INITIALLY? NO
Info: DIELECTRIC             1
Info: EXCLUDE                SCALED ONE-FOUR
Info: 1-4 ELECTROSTATICS SCALED BY 0.833333
Info: MODIFIED 1-4 VDW PARAMETERS WILL BE USED
Info: DCD FILENAME           mobley_2178600_prod.dcd
Info: DCD FREQUENCY          100000
Info: DCD FIRST STEP         100000
Info: DCD FILE WILL CONTAIN UNIT CELL DATA
Info: XST FILENAME           mobley_2178600_prod.xst
Info: XST FREQUENCY          100000
Info: NO VELOCITY DCD OUTPUT
Info: NO FORCE DCD OUTPUT
Info: OUTPUT FILENAME        mobley_2178600_prod
Info: BINARY OUTPUT FILES WILL BE USED
Info: RESTART FILENAME       mobley_2178600_prod.restart
Info: RESTART FREQUENCY      100000
Info: BINARY RESTART FILES WILL BE USED
Info: CUTOFF                 9
Info: PAIRLIST DISTANCE      11
Info: PAIRLIST SHRINK RATE   0.01
Info: PAIRLIST GROW RATE     0.01
Info: PAIRLIST TRIGGER       0.3
Info: PAIRLISTS PER CYCLE    2
Info: PAIRLISTS ENABLED
Info: MARGIN                 2
Info: HYDROGEN GROUP CUTOFF  2.5
Info: PATCH DIMENSION        15.5
Info: ENERGY OUTPUT STEPS    100000
Info: ENERGY EVALUATION STEPS    100000
Info: OUTPUT ENERGY PRECISION 4
Info: CROSSTERM ENERGY INCLUDED IN DIHEDRAL
Info: TIMING OUTPUT STEPS    1000000
Info: PRESSURE OUTPUT STEPS  100000
Info: ALCHEMICAL FEP ON
Info: FEP CURRENT LAMBDA VALUE     1
Info: FEP COMPARISON LAMBDA VALUE  0.95
Info: FEP INTRA-ALCHEMICAL NON-BONDED INTERACTIONS WILL BE RETAINED
Info: FEP INTRA-ALCHEMICAL BONDED INTERACTIONS WILL BE RETAINED
Info: FEP VDW SHIFTING COEFFICIENT 5
Info: FEP ELEC. ACTIVE FOR ANNIHILATED PARTICLES BETWEEN LAMBDA = 0 AND LAMBDA = 0.5
Info: FEP ELEC. ACTIVE FOR EXNIHILATED PARTICLES BETWEEN LAMBDA = 0.5 AND LAMBDA = 1
Info: FEP VDW ACTIVE FOR ANNIHILATED PARTICLES BETWEEN LAMBDA = 0 AND LAMBDA = 1
Info: FEP VDW ACTIVE FOR EXNIHILATED PARTICLES BETWEEN LAMBDA = 0 AND LAMBDA = 1
Info: FEP BOND ACTIVE FOR ANNIHILATED PARTICLES BETWEEN LAMBDA = 1 AND LAMBDA = 1
Info: FEP BOND ACTIVE FOR EXNIHILATED PARTICLES BETWEEN LAMBDA = 0 AND LAMBDA = 0
Info: LANGEVIN DYNAMICS ACTIVE
Info: LANGEVIN TEMPERATURE   300
Info: LANGEVIN USING BBK INTEGRATOR
Info: LANGEVIN DAMPING COEFFICIENT IS 1 INVERSE PS
Info: LANGEVIN DYNAMICS APPLIED TO HYDROGENS
Info: LANGEVIN PISTON PRESSURE CONTROL ACTIVE
Info:        TARGET PRESSURE IS 1.01325 BAR
Info:     OSCILLATION PERIOD IS 50 FS
Info:             DECAY TIME IS 25 FS
Info:     PISTON TEMPERATURE IS 300 K
Info:       PRESSURE CONTROL IS GROUP-BASED
Info:    INITIAL STRAIN RATE IS 0.000200318 0.000200318 0.000200318
Info:       CELL FLUCTUATION IS ISOTROPIC
Info: PARTICLE MESH EWALD (PME) ACTIVE
Info: PME TOLERANCE               1e-06
Info: PME EWALD COEFFICIENT       0.348832
Info: PME INTERPOLATION ORDER     4
Info: PME GRID DIMENSIONS         32 32 32
Info: PME MAXIMUM GRID SPACING    1
Info: PME CALCULATION WILL BE PERFORMED ON GPU
Info: FULL ELECTROSTATIC EVALUATION FREQUENCY      2
Info: USING VERLET I (r-RESPA) MTS SCHEME.
Info: C1 SPLITTING OF LONG RANGE ELECTROSTATICS
Info: PLACING ATOMS IN PATCHES BY HYDROGEN GROUPS
Info: RIGID BONDS TO HYDROGEN : ALL
Info:         ERROR TOLERANCE : 1e-08
Info:          MAX ITERATIONS : 100
Info: RIGID WATER USING SETTLE ALGORITHM
Info: RANDOM NUMBER SEED     1743912351
Info: USE HYDROGEN BONDS?    NO
Info: Using AMBER format force field!
Info: AMBER PARM FILE        mobley_2178600.prmtop
Info: COORDINATE PDB         mobley_2178600.pdb
Info: Exclusions will be read from PARM file!
Info: SCNB (VDW SCALING)     2
Info: USING ARITHMETIC MEAN TO COMBINE L-J SIGMA PARAMETERS
Info: BINARY COORDINATES     mobley_2178600_equil.coor
Info: SUMMARY OF PARAMETERS:
Info: 6 BONDS
Info: 7 ANGLES
Info:   7 HARMONIC
Info:   0 COSINE-BASED
Info: 8 DIHEDRAL
Info: 0 IMPROPER
Info: 0 CROSSTERM
Info: 0 VDW
Info: 21 VDW_PAIRS
Info: 0 NBTHOLE_PAIRS
Info: To read alchdata from file: mobley_2178600.pdb
Info: To read alchflag data from column: 5
Info: STRUCTURE SUMMARY:
Info: 2960 ATOMS
Info: 2959 BONDS
Info: 30 ANGLES
Info: 42 DIHEDRALS
Info: 0 IMPROPERS
Info: 0 CROSSTERMS
Info: 3025 EXCLUSIONS
Info: 2954 RIGID BONDS
Info: ALCH: 0 ATOMS TO DISAPPEAR IN FINAL STATE
Info: ALCH: 17 ATOMS TO APPEAR IN FINAL STATE
Info: 5926 DEGREES OF FREEDOM
Info: 987 HYDROGEN GROUPS
Info: 4 ATOMS IN LARGEST HYDROGEN GROUP
Info: 987 MIGRATION GROUPS
Info: 4 ATOMS IN LARGEST MIGRATION GROUP
Info: TOTAL MASS = 17780.3 amu
Info: TOTAL CHARGE = -9.99868e-05 e
Info: MASS DENSITY = 0.96201 g/cm^3
Info: ATOM DENSITY = 0.0964436 atoms/A^3
Info: ADDED 0 IMPLICIT EXCLUSIONS
Info: NONBONDED TABLE R-SQUARED SPACING: 0.0625
Info: NONBONDED TABLE SIZE: 705 POINTS
Info: REMOVING COM VELOCITY -0.100797 0.207921 -0.259309
Info: Use 3D box decompostion in PME FFT.
Info: Updated CUDA force table with 4096 elements.
Info: Updated CUDA LJ table with 6 x 6 elements.
Info: Found 20 unique exclusion lists needing 52 bytes
TCL: Running for 1500000 steps
ETITLE: TS BOND ANGLE DIHED IMPRP ELECT VDW BOUNDARY MISC KINETIC TOTAL TEMP POTENTIAL TOTALAVG TEMPAVG PRESSURE GPRESSURE VOLUME PRESSAVG GPRESSAVG
ENERGY: 0 0.7080 9.7891 2.7648 0.0000 -10882.5527 1534.2527 0.0000 0.0000 1811.6950 -7523.3431 307.6903 -9335.0381 -7523.3431 307.6903 459.2056 550.6856 30691.5088 459.2056 550.6856
ENERGY: 300000 1.4299 9.2941 1.6366 0.0000 -10746.5991 1421.2425 0.0000 0.0000 1781.6025 -7531.3934 302.5795 -9312.9959 -7496.4782 303.6841 102.1376 174.6212 29920.6638 117.9702 202.6585
ENERGY: 600000 1.6418 8.0160 2.0256 0.0000 -10664.3738 1392.0395 0.0000 0.0000 1773.7113 -7486.9396 301.2393 -9260.6509 -7490.3177 302.3493 -237.3727 -189.3889 30609.3483 79.3420 148.4962
ENERGY: 900000 3.5414 11.0940 2.1263 0.0000 -10540.1634 1327.8878 0.0000 0.0000 1794.2960 -7401.2180 304.7353 -9195.5140 -7494.4854 301.3622 -533.3552 -515.2531 30107.2442 19.7278 84.1174
ENERGY: 1200000 1.6375 6.9747 2.0979 0.0000 -10610.2983 1398.4006 0.0000 0.0000 1816.8635 -7384.3240 308.5681 -9201.1876 -7489.1901 301.0116 -191.2893 -130.6362 30800.7718 2.9758 70.8378
ENERGY: 1500000 5.2025 10.2159 2.4437 0.0000 -10567.1891 1342.8532 0.0000 0.0000 1794.0298 -7412.4441 304.6901 -9206.4739 -7484.7796 301.2442 -748.0885 -732.7804 30591.3597 -34.9775 25.9784
TCL: Running FEP window   2: Lambda1 0.95   Lambda2 0.8999999999999999 [dLambda -0.050000000000000044]
TCL: Setting parameter firsttimestep to 0
TCL: Setting parameter alchLambda to 0.95
Info: NONBONDED TABLE R-SQUARED SPACING: 0.0625
Info: NONBONDED TABLE SIZE: 705 POINTS
TCL: Setting parameter alchLambda2 to 0.8999999999999999
Info: NONBONDED TABLE R-SQUARED SPACING: 0.0625
Info: NONBONDED TABLE SIZE: 705 POINTS
TCL: Running for 1500000 steps
ETITLE: TS BOND ANGLE DIHED IMPRP ELECT VDW BOUNDARY MISC KINETIC TOTAL TEMP POTENTIAL TOTALAVG TEMPAVG PRESSURE GPRESSURE VOLUME PRESSAVG GPRESSAVG
ENERGY: 0 5.2025 10.2159 2.4437 0.0000 -10567.0074 1343.3711 0.0000 0.0000 1793.1708 -7412.6034 304.5442 -9205.7743 -7412.6034 304.5442 -826.7292 -738.3299 30591.3597 -826.7292 -738.3299
ENERGY: 300000 1.5139 5.7725 2.4397 0.0000 -10643.7739 1413.9036 0.0000 0.0000 1815.3720 -7404.7722 308.3148 -9220.1442 -7430.4769 303.1077 -156.1349 -131.5842 30774.3392 -181.6462 -149.3936
ENERGY: 600000 2.0211 6.3006 4.2168 0.0000 -10734.8930 1464.4302 0.0000 0.0000 1778.5085 -7479.4157 302.0541 -9257.9242 -7451.6725 303.1412 440.7424 419.1695 30225.2975 -16.7124 29.4989
ENERGY: 900000 2.4432 8.5353 2.2354 0.0000 -10778.8867 1439.4195 0.0000 0.0000 1798.9719 -7527.2814 305.5295 -9326.2533 -7479.0984 303.1068 -198.6610 -121.3020 30593.9100 12.5318 69.5277
ENERGY: 1200000 2.2832 12.0414 1.6165 0.0000 -10546.8669 1342.2689 0.0000 0.0000 1731.3975 -7457.2593 294.0529 -9188.6568 -7479.3235 302.4028 -815.5700 -737.6722 30957.0094 -132.2481 -63.5120
ENERGY: 1500000 0.5061 6.4723 2.4769 0.0000 -10558.6169 1320.2610 0.0000 0.0000 1754.8001 -7474.1005 298.0275 -9228.9006 -7480.2157 301.9574 -780.2807 -709.4784 30524.6555 -214.1342 -142.2300
TCL: Running FEP window   3: Lambda1 0.8999999999999999 Lambda2 0.8499999999999999 [dLambda -0.050000000000000044]
TCL: Setting parameter firsttimestep to 0
TCL: Setting parameter alchLambda to 0.8999999999999999
Info: NONBONDED TABLE R-SQUARED SPACING: 0.0625
Info: NONBONDED TABLE SIZE: 705 POINTS
TCL: Setting parameter alchLambda2 to 0.8499999999999999
Info: NONBONDED TABLE R-SQUARED SPACING: 0.0625
Info: NONBONDED TABLE SIZE: 705 POINTS
TCL: Running for 1500000 steps
ETITLE: TS BOND ANGLE DIHED IMPRP ELECT VDW BOUNDARY MISC KINETIC TOTAL TEMP POTENTIAL TOTALAVG TEMPAVG PRESSURE GPRESSURE VOLUME PRESSAVG GPRESSAVG
ENERGY: 0 0.5061 6.4723 2.4769 0.0000 -10558.3417 1320.2375 0.0000 0.0000 1753.9492 -7474.6997 297.8830 -9228.6489 -7474.6997 297.8830 -821.0340 -722.5582 30524.6555 -821.0340 -722.5582
ENERGY: 300000 0.7683 11.4201 2.7202 0.0000 -10704.4789 1401.9349 0.0000 0.0000 1728.6989 -7558.9365 293.5946 -9287.6354 -7510.8141 297.2775 -190.5009 -219.0939 30340.0058 -347.2853 -289.8417
ENERGY: 600000 1.1837 8.4228 3.3677 0.0000 -10610.5534 1468.4696 0.0000 0.0000 1804.8771 -7324.2326 306.5324 -9129.1096 -7484.4386 298.9070 546.2476 599.0008 30673.2880 -111.2382 -49.7940
ENERGY: 900000 3.8709 6.9058 2.2872 0.0000 -10650.7376 1429.1050 0.0000 0.0000 1782.7141 -7425.8548 302.7683 -9208.5689 -7500.2708 298.5209 235.1295 295.8303 30377.2900 -80.0549 -19.6855
ENERGY: 1200000 0.3255 6.8453 3.4452 0.0000 -10623.9460 1338.2535 0.0000 0.0000 1723.2761 -7551.8003 292.6736 -9275.0764 -7500.6998 297.9572 -652.3115 -591.7581 30166.2977 -234.1402 -175.8337
ENERGY: 1500000 2.5333 4.3719 2.3255 0.0000 -10753.8886 1507.0759 0.0000 0.0000 1745.0618 -7492.5202 296.3736 -9237.5820 -7492.0356 298.4409 938.1960 999.6910 29790.9013 -127.9657 -70.2655
TCL: Running FEP window   4: Lambda1 0.8499999999999999 Lambda2 0.7999999999999998 [dLambda -0.050000000000000044]
TCL: Setting parameter firsttimestep to 0
TCL: Setting parameter alchLambda to 0.8499999999999999
Info: NONBONDED TABLE R-SQUARED SPACING: 0.0625
Info: NONBONDED TABLE SIZE: 705 POINTS
TCL: Setting parameter alchLambda2 to 0.7999999999999998
Info: NONBONDED TABLE R-SQUARED SPACING: 0.0625
Info: NONBONDED TABLE SIZE: 705 POINTS
TCL: Running for 1500000 steps
ETITLE: TS BOND ANGLE DIHED IMPRP ELECT VDW BOUNDARY MISC KINETIC TOTAL TEMP POTENTIAL TOTALAVG TEMPAVG PRESSURE GPRESSURE VOLUME PRESSAVG GPRESSAVG
ENERGY: 0 2.5333 4.3719 2.3255 0.0000 -10753.7706 1507.7139 0.0000 0.0000 1744.2133 -7492.6127 296.2295 -9236.8260 -7492.6127 296.2295 917.4795 996.5337 29790.9013 917.4795 996.5337
ENERGY: 300000 2.1955 9.7102 2.1468 0.0000 -10615.2099 1378.6576 0.0000 0.0000 1817.8371 -7404.6626 308.7335 -9222.4997 -7468.0915 302.7207 -294.8600 -236.6187 30247.0640 36.0048 80.9784
ENERGY: 600000 0.8508 8.7919 2.7585 0.0000 -10687.8891 1397.3916 0.0000 0.0000 1715.2038 -7562.8925 291.3027 -9278.0963 -7479.9128 301.4830 -75.1445 -46.9569 30083.0905 -13.5839 28.5567
ENERGY: 900000 2.1684 4.2744 1.9223 0.0000 -10708.5845 1407.4712 0.0000 0.0000 1774.3824 -7518.3657 301.3533 -9292.7481 -7477.6907 302.3646 -266.7104 -227.3335 30323.6275 -45.1037 -7.4566
ENERGY: 1200000 1.0781 5.0670 1.6748 0.0000 -10780.1968 1454.2082 0.0000 0.0000 1745.9839 -7572.1848 296.5302 -9318.1687 -7479.3065 301.5899 -70.0036 -77.6982 30485.0296 -88.3398 -51.9428
ENERGY: 1500000 2.3617 8.0626 2.9823 0.0000 -10607.7387 1391.5901 0.0000 0.0000 1781.9602 -7420.7818 302.6403 -9202.7421 -7485.7272 301.3206 55.4227 111.7891 30389.4533 -68.8184 -32.4432
TCL: Running FEP window   5: Lambda1 0.7999999999999998 Lambda2 0.7499999999999998 [dLambda -0.050000000000000044]
TCL: Setting parameter firsttimestep to 0
TCL: Setting parameter alchLambda to 0.7999999999999998
Info: NONBONDED TABLE R-SQUARED SPACING: 0.0625
Info: NONBONDED TABLE SIZE: 705 POINTS
TCL: Setting parameter alchLambda2 to 0.7499999999999998
Info: NONBONDED TABLE R-SQUARED SPACING: 0.0625
Info: NONBONDED TABLE SIZE: 705 POINTS
TCL: Running for 1500000 steps
ETITLE: TS BOND ANGLE DIHED IMPRP ELECT VDW BOUNDARY MISC KINETIC TOTAL TEMP POTENTIAL TOTALAVG TEMPAVG PRESSURE GPRESSURE VOLUME PRESSAVG GPRESSAVG
ENERGY: 0 2.3617 8.0626 2.9823 0.0000 -10607.6212 1391.1798 0.0000 0.0000 1781.0808 -7421.9540 302.4909 -9203.0348 -7421.9540 302.4909 30.8847 93.7069 30389.4533 30.8847 93.7069
ENERGY: 300000 4.8421 10.0068 1.8458 0.0000 -10795.2509 1449.8493 0.0000 0.0000 1749.6211 -7579.0858 297.1480 -9328.7069 -7508.0232 302.7672 18.3331 105.5254 30221.0751 -324.3258 -238.2437
ENERGY: 600000 1.0807 4.3792 1.8417 0.0000 -10526.9840 1283.7251 0.0000 0.0000 1729.5404 -7506.4169 293.7375 -9235.9573 -7514.0750 300.0353 -1197.2193 -1202.6922 30851.1663 -467.2594 -397.6819
ENERGY: 900000 1.6043 8.1889 1.6455 0.0000 -10729.7067 1457.2869 0.0000 0.0000 1790.0823 -7470.8989 304.0197 -9260.9811 -7504.8597 299.9793 80.0577 124.5865 30781.7809 -264.4766 -189.9964
ENERGY: 1200000 1.8314 4.8705 2.4313 0.0000 -10775.4167 1436.9774 0.0000 0.0000 1730.9967 -7598.3095 293.9849 -9329.3061 -7511.5111 299.6245 -434.0411 -310.5721 30759.3496 -173.4809 -96.7784
ENERGY: 1500000 0.7496 10.4017 2.1491 0.0000 -10818.5313 1489.7616 0.0000 0.0000 1762.1055 -7553.3638 299.2683 -9315.4693 -7514.3106 299.4078 700.6214 689.8407 29556.2789 -124.3157 -56.3209
TCL: Running FEP window   6: Lambda1 0.7499999999999998 Lambda2 0.6999999999999997 [dLambda -0.050000000000000044]
TCL: Setting parameter firsttimestep to 0
TCL: Setting parameter alchLambda to 0.7499999999999998
Info: NONBONDED TABLE R-SQUARED SPACING: 0.0625
Info: NONBONDED TABLE SIZE: 705 POINTS
TCL: Setting parameter alchLambda2 to 0.6999999999999997
Info: NONBONDED TABLE R-SQUARED SPACING: 0.0625
Info: NONBONDED TABLE SIZE: 705 POINTS
TCL: Running for 1500000 steps
ETITLE: TS BOND ANGLE DIHED IMPRP ELECT VDW BOUNDARY MISC KINETIC TOTAL TEMP POTENTIAL TOTALAVG TEMPAVG PRESSURE GPRESSURE VOLUME PRESSAVG GPRESSAVG
ENERGY: 0 0.7496 10.4017 2.1491 0.0000 -10818.4035 1490.0697 0.0000 0.0000 1761.2517 -7553.7818 299.1232 -9315.0335 -7553.7818 299.1232 603.3503 684.1827 29556.2789 603.3503 684.1827
ENERGY: 300000 2.1467 7.4980 2.7218 0.0000 -10749.6003 1456.3502 0.0000 0.0000 1755.0459 -7525.8377 298.0693 -9280.8836 -7520.2629 299.3762 237.2885 327.4061 30011.6445 270.8144 345.0985
ENERGY: 600000 1.4207 6.0554 2.4300 0.0000 -10760.7258 1423.1402 0.0000 0.0000 1817.9400 -7509.7394 308.7509 -9327.6794 -7500.1287 300.8317 -462.0140 -315.4881 30441.6498 43.9295 133.9950
ENERGY: 900000 0.5905 5.1777 1.5291 0.0000 -10768.1139 1485.7673 0.0000 0.0000 1750.3820 -7524.6672 297.2772 -9275.0492 -7500.2587 300.2049 395.5428 481.6827 30110.0503 71.4580 147.8972
ENERGY: 1200000 0.2654 7.1130 2.0509 0.0000 -10650.9992 1407.3607 0.0000 0.0000 1728.6826 -7505.5266 293.5919 -9234.2092 -7496.0911 299.7413 -325.2136 -216.7964 30226.1175 -24.0056 58.6166
ENERGY: 1500000 1.0418 7.4808 1.7325 0.0000 -10655.9198 1430.4140 0.0000 0.0000 1796.3797 -7418.8710 305.0892 -9215.2507 -7494.8892 299.9272 33.9954 147.9014 30442.5711 16.6790 96.2183
TCL: Running FEP window   7: Lambda1 0.6999999999999997 Lambda2 0.6499999999999997 [dLambda -0.050000000000000044]
TCL: Setting parameter firsttimestep to 0
TCL: Setting parameter alchLambda to 0.6999999999999997
Info: NONBONDED TABLE R-SQUARED SPACING: 0.0625
Info: NONBONDED TABLE SIZE: 705 POINTS
TCL: Setting parameter alchLambda2 to 0.6499999999999997
Info: NONBONDED TABLE R-SQUARED SPACING: 0.0625
Info: NONBONDED TABLE SIZE: 705 POINTS
TCL: Running for 1500000 steps
ETITLE: TS BOND ANGLE DIHED IMPRP ELECT VDW BOUNDARY MISC KINETIC TOTAL TEMP POTENTIAL TOTALAVG TEMPAVG PRESSURE GPRESSURE VOLUME PRESSAVG GPRESSAVG
ENERGY: 0 1.0418 7.4808 1.7325 0.0000 -10655.7243 1430.9562 0.0000 0.0000 1795.4778 -7419.0353 304.9360 -9214.5131 -7419.0353 304.9360 76.5220 146.3783 30442.5711 76.5220 146.3783
ENERGY: 300000 0.4529 8.6260 2.9090 0.0000 -10700.6596 1425.0727 0.0000 0.0000 1797.7881 -7465.8109 305.3284 -9263.5990 -7469.2977 303.0563 -98.7888 -41.7331 30557.0200 80.2988 148.9344
ENERGY: 600000 1.6829 6.2793 2.0737 0.0000 -10666.8336 1355.9565 0.0000 0.0000 1725.9775 -7574.8637 293.1324 -9300.8412 -7494.7887 300.9435 -726.5157 -690.4630 30490.1286 -84.9156 -34.5255
ENERGY: 900000 1.9039 10.3718 1.6816 0.0000 -10704.7092 1407.4311 0.0000 0.0000 1793.3192 -7490.0014 304.5695 -9283.3207 -7494.8700 301.0858 -151.1822 -77.4634 30156.2645 -111.4336 -61.6246
ENERGY: 1200000 1.6560 6.1379 2.5212 0.0000 -10682.4108 1445.7111 0.0000 0.0000 1733.8733 -7492.5111 294.4734 -9226.3845 -7493.3460 300.5732 73.7152 109.3208 30648.8218 -111.8770 -59.2627
ENERGY: 1500000 0.6098 6.7935 2.1068 0.0000 -10799.3386 1512.9214 0.0000 0.0000 1760.8716 -7516.0355 299.0587 -9276.9071 -7497.4864 300.4907 351.9487 409.9749 30706.3598 -90.9122 -36.3677
TCL: Running FEP window   8: Lambda1 0.6499999999999997 Lambda2 0.5999999999999996 [dLambda -0.050000000000000044]
TCL: Setting parameter firsttimestep to 0
TCL: Setting parameter alchLambda to 0.6499999999999997
Info: NONBONDED TABLE R-SQUARED SPACING: 0.0625
Info: NONBONDED TABLE SIZE: 705 POINTS
TCL: Setting parameter alchLambda2 to 0.5999999999999996
Info: NONBONDED TABLE R-SQUARED SPACING: 0.0625
Info: NONBONDED TABLE SIZE: 705 POINTS
TCL: Running for 1500000 steps
ETITLE: TS BOND ANGLE DIHED IMPRP ELECT VDW BOUNDARY MISC KINETIC TOTAL TEMP POTENTIAL TOTALAVG TEMPAVG PRESSURE GPRESSURE VOLUME PRESSAVG GPRESSAVG
ENERGY: 0 0.6098 6.7935 2.1068 0.0000 -10799.1180 1512.8657 0.0000 0.0000 1760.0155 -7516.7269 298.9133 -9276.7423 -7516.7269 298.9133 321.6897 398.9588 30706.3598 321.6897 398.9588
ENERGY: 300000 1.1837 9.7070 1.7943 0.0000 -10768.2225 1472.7889 0.0000 0.0000 1759.7864 -7522.9621 298.8744 -9282.7485 -7552.1908 297.0793 200.4362 320.3916 30134.1383 -182.2232 -84.8227
ENERGY: 600000 1.5657 7.6352 3.9947 0.0000 -10676.6666 1477.4366 0.0000 0.0000 1795.6182 -7390.4162 304.9599 -9186.0344 -7512.4319 298.3142 517.3104 529.5364 30345.9605 -52.1052 24.8257
ENERGY: 900000 0.4770 7.6256 2.2640 0.0000 -10653.8794 1399.0667 0.0000 0.0000 1751.4522 -7492.9939 297.4589 -9244.4460 -7517.9387 298.0985 -414.1875 -409.9555 30787.1318 -138.4966 -75.6719
ENERGY: 1200000 0.6547 4.8532 4.6718 0.0000 -10762.6608 1520.0694 0.0000 0.0000 1823.0212 -7409.3906 309.6139 -9232.4118 -7505.5427 299.5376 623.5927 750.8692 30480.1484 -73.8036 -1.3390
ENERGY: 1500000 3.8768 6.2511 3.2773 0.0000 -10746.4169 1475.8682 0.0000 0.0000 1763.4796 -7493.6638 299.5016 -9257.1434 -7506.4343 299.9010 452.5621 518.9822 30203.6227 13.6703 81.0144
TCL: Running FEP window   9: Lambda1 0.5999999999999996 Lambda2 0.5499999999999996 [dLambda -0.050000000000000044]
TCL: Setting parameter firsttimestep to 0
TCL: Setting parameter alchLambda to 0.5999999999999996
Info: NONBONDED TABLE R-SQUARED SPACING: 0.0625
Info: NONBONDED TABLE SIZE: 705 POINTS
TCL: Setting parameter alchLambda2 to 0.5499999999999996
Info: NONBONDED TABLE R-SQUARED SPACING: 0.0625
Info: NONBONDED TABLE SIZE: 705 POINTS
TCL: Running for 1500000 steps
ETITLE: TS BOND ANGLE DIHED IMPRP ELECT VDW BOUNDARY MISC KINETIC TOTAL TEMP POTENTIAL TOTALAVG TEMPAVG PRESSURE GPRESSURE VOLUME PRESSAVG GPRESSAVG
ENERGY: 0 3.8768 6.2511 3.2773 0.0000 -10746.0458 1476.2669 0.0000 0.0000 1762.5934 -7493.7803 299.3511 -9256.3736 -7493.7803 299.3511 435.6574 516.2248 30203.6227 435.6574 516.2248
ENERGY: 300000 1.9625 11.8482 2.3812 0.0000 -10673.2422 1481.0074 0.0000 0.0000 1735.1442 -7440.8986 294.6893 -9176.0429 -7514.7715 295.8388 458.5331 473.1697 30485.6737 473.6111 535.8159
ENERGY: 600000 1.7816 9.9724 1.4599 0.0000 -10687.2090 1455.7049 0.0000 0.0000 1785.0228 -7433.2675 303.1604 -9218.2902 -7476.3995 299.6170 157.2829 181.8594 30607.2722 236.8914 301.7992
ENERGY: 900000 1.5067 7.0080 2.0583 0.0000 -10639.5609 1369.7166 0.0000 0.0000 1745.2629 -7514.0084 296.4078 -9259.2713 -7483.6248 299.4158 -450.5417 -431.4945 30315.2548 74.6169 135.5480
ENERGY: 1200000 0.3260 7.6641 2.6458 0.0000 -10820.1719 1500.9037 0.0000 0.0000 1746.6195 -7562.0127 296.6382 -9308.6322 -7488.6272 299.9197 371.0572 428.9768 30289.4392 172.5673 222.7723
ENERGY: 1500000 0.8539 9.7592 4.5034 0.0000 -10797.0858 1522.6066 0.0000 0.0000 1788.8228 -7470.5398 303.8058 -9259.3626 -7488.2147 300.3076 649.6411 666.9731 30271.9167 202.6911 249.0573
TCL: Running FEP window  10: Lambda1 0.5499999999999996 Lambda2 0.4999999999999996 [dLambda -0.04999999999999999]
TCL: Setting parameter firsttimestep to 0
TCL: Setting parameter alchLambda to 0.5499999999999996
Info: NONBONDED TABLE R-SQUARED SPACING: 0.0625
Info: NONBONDED TABLE SIZE: 705 POINTS
TCL: Setting parameter alchLambda2 to 0.4999999999999996
Info: NONBONDED TABLE R-SQUARED SPACING: 0.0625
Info: NONBONDED TABLE SIZE: 705 POINTS
TCL: Running for 1500000 steps
ETITLE: TS BOND ANGLE DIHED IMPRP ELECT VDW BOUNDARY MISC KINETIC TOTAL TEMP POTENTIAL TOTALAVG TEMPAVG PRESSURE GPRESSURE VOLUME PRESSAVG GPRESSAVG
ENERGY: 0 0.8539 9.7592 4.5034 0.0000 -10797.0676 1522.5460 0.0000 0.0000 1787.9537 -7471.4514 303.6582 -9259.4051 -7471.4514 303.6582 576.2160 655.9462 30271.9167 576.2160 655.9462
ENERGY: 300000 1.1731 7.8761 2.4505 0.0000 -10700.5537 1399.7123 0.0000 0.0000 1784.5041 -7504.8377 303.0723 -9289.3417 -7506.0558 301.1948 -543.3079 -493.2560 30805.0408 -396.2376 -315.0853
ENERGY: 600000 3.6721 10.0219 3.5045 0.0000 -10706.2843 1414.3916 0.0000 0.0000 1739.6992 -7534.9949 295.4629 -9274.6942 -7506.7627 301.2053 -352.4407 -268.0758 30372.5255 -450.1448 -372.9555
ENERGY: 900000 2.2604 8.5563 3.7824 0.0000 -10614.8087 1361.6551 0.0000 0.0000 1742.7377 -7495.8168 295.9789 -9238.5545 -7496.1805 302.0318 -564.1202 -496.4664 30227.2420 -320.0957 -244.8517
ENERGY: 1200000 0.8388 7.1219 1.8918 0.0000 -10695.3547 1420.3120 0.0000 0.0000 1699.0692 -7566.1211 288.5624 -9265.1902 -7507.7126 300.4193 -236.1425 -165.2841 30420.4546 -312.9639 -243.4601
ENERGY: 1500000 0.8640 7.1470 3.0406 0.0000 -10762.0810 1577.4255 0.0000 0.0000 1762.6986 -7410.9053 299.3690 -9173.6039 -7485.1728 301.3009 1183.8605 1299.8861 30269.8178 -182.0621 -113.7955
TCL: Running FEP window  11: Lambda1 0.4999999999999996 Lambda2 0.4499999999999996 [dLambda -0.04999999999999999]
TCL: Setting parameter firsttimestep to 0
TCL: Setting parameter alchLambda to 0.4999999999999996
Info: NONBONDED TABLE R-SQUARED SPACING: 0.0625
Info: NONBONDED TABLE SIZE: 705 POINTS
TCL: Setting parameter alchLambda2 to 0.4499999999999996
Info: NONBONDED TABLE R-SQUARED SPACING: 0.0625
Info: NONBONDED TABLE SIZE: 705 POINTS
TCL: Running for 1500000 steps
ETITLE: TS BOND ANGLE DIHED IMPRP ELECT VDW BOUNDARY MISC KINETIC TOTAL TEMP POTENTIAL TOTALAVG TEMPAVG PRESSURE GPRESSURE VOLUME PRESSAVG GPRESSAVG
ENERGY: 0 0.8640 7.1470 3.0406 0.0000 -10761.8967 1577.5440 0.0000 0.0000 1761.8468 -7411.4544 299.2243 -9173.3011 -7411.4544 299.2243 1212.1952 1292.4148 30269.8178 1212.1952 1292.4148
ENERGY: 300000 0.3840 5.9966 4.6599 0.0000 -10694.1793 1456.6542 0.0000 0.0000 1708.1906 -7518.2940 290.1116 -9226.4846 -7464.2788 298.1883 290.0638 332.5931 30492.0093 683.5570 757.4870
ENERGY: 600000 1.9587 6.1520 2.2386 0.0000 -10834.1606 1483.2315 0.0000 0.0000 1812.3840 -7528.1958 307.8073 -9340.5798 -7450.9746 302.5039 47.3209 103.6108 30454.1324 332.5904 415.2984
ENERGY: 900000 0.5857 6.9347 3.5329 0.0000 -10573.6609 1376.3070 0.0000 0.0000 1756.5443 -7429.7562 298.3238 -9186.3005 -7451.2522 301.8482 -476.5298 -384.5627 30846.4322 259.5311 344.9722
ENERGY: 1200000 1.1705 11.6249 4.0862 0.0000 -10588.2629 1302.2958 0.0000 0.0000 1759.7806 -7509.3049 298.8734 -9269.0855 -7479.0237 300.3642 -1126.4617 -1073.9797 30364.5418 39.1246 112.8839
ENERGY: 1500000 4.7652 6.6184 2.8645 0.0000 -10816.1328 1492.6451 0.0000 0.0000 1759.9444 -7549.2954 298.9012 -9309.2397 -7496.3317 299.8928 84.3458 140.1251 30599.4471 24.0680 96.1982
TCL: Running FEP window  12: Lambda1 0.4499999999999996 Lambda2 0.39999999999999963 [dLambda -0.04999999999999999]
TCL: Setting parameter firsttimestep to 0
TCL: Setting parameter alchLambda to 0.4499999999999996
Info: NONBONDED TABLE R-SQUARED SPACING: 0.0625
Info: NONBONDED TABLE SIZE: 705 POINTS
TCL: Setting parameter alchLambda2 to 0.39999999999999963
Info: NONBONDED TABLE R-SQUARED SPACING: 0.0625
Info: NONBONDED TABLE SIZE: 705 POINTS
TCL: Running for 1500000 steps
ETITLE: TS BOND ANGLE DIHED IMPRP ELECT VDW BOUNDARY MISC KINETIC TOTAL TEMP POTENTIAL TOTALAVG TEMPAVG PRESSURE GPRESSURE VOLUME PRESSAVG GPRESSAVG
ENERGY: 0 4.7652 6.6184 2.8645 0.0000 -10816.1320 1492.3975 0.0000 0.0000 1759.0468 -7550.4396 298.7488 -9309.4864 -7550.4396 298.7488 50.0534 128.6675 30599.4471 50.0534 128.6675
ENERGY: 300000 1.3523 5.3152 2.1438 0.0000 -10775.7750 1484.1929 0.0000 0.0000 1784.0506 -7498.7201 302.9953 -9282.7707 -7506.3625 300.5293 439.2812 471.8535 30298.9985 332.4004 400.7613
ENERGY: 600000 3.5735 12.3140 2.6918 0.0000 -10778.4471 1479.5245 0.0000 0.0000 1803.9766 -7476.3666 306.3795 -9280.3432 -7514.2871 300.1485 216.2947 280.3517 30650.1276 323.7311 388.7953
ENERGY: 900000 0.6434 7.9186 3.4169 0.0000 -10755.1445 1431.7474 0.0000 0.0000 1730.8516 -7580.5666 293.9602 -9311.4182 -7532.0407 299.1369 -105.3823 -92.1109 30260.1039 138.3735 202.1262
ENERGY: 1200000 2.3093 4.9322 3.0611 0.0000 -10661.9934 1445.8261 0.0000 0.0000 1807.7915 -7398.0732 307.0274 -9205.8647 -7504.8180 300.4534 182.7753 254.3000 30593.4244 127.4797 194.3254
ENERGY: 1500000 0.6929 9.2984 3.4348 0.0000 -10652.7290 1401.9075 0.0000 0.0000 1801.9543 -7435.4411 306.0360 -9237.3954 -7494.7707 301.0156 -105.9739 -58.1861 30367.3856 108.4400 171.2744
TCL: Running FEP window  13: Lambda1 0.39999999999999963 Lambda2 0.34999999999999964 [dLambda -0.04999999999999999]
TCL: Setting parameter firsttimestep to 0
TCL: Setting parameter alchLambda to 0.39999999999999963
Info: NONBONDED TABLE R-SQUARED SPACING: 0.0625
Info: NONBONDED TABLE SIZE: 705 POINTS
TCL: Setting parameter alchLambda2 to 0.34999999999999964
Info: NONBONDED TABLE R-SQUARED SPACING: 0.0625
Info: NONBONDED TABLE SIZE: 705 POINTS
TCL: Running for 1500000 steps
ETITLE: TS BOND ANGLE DIHED IMPRP ELECT VDW BOUNDARY MISC KINETIC TOTAL TEMP POTENTIAL TOTALAVG TEMPAVG PRESSURE GPRESSURE VOLUME PRESSAVG GPRESSAVG
ENERGY: 0 0.6929 9.2984 3.4348 0.0000 -10652.7287 1401.9124 0.0000 0.0000 1801.0854 -7436.3048 305.8884 -9237.3902 -7436.3048 305.8884 -146.0309 -64.7039 30367.3856 -146.0309 -64.7039
ENERGY: 300000 0.7121 9.1019 1.7476 0.0000 -10647.2920 1426.7070 0.0000 0.0000 1806.4022 -7402.6213 306.7914 -9209.0234 -7433.0685 307.8363 122.3659 177.4003 30408.0316 78.4718 150.7049
ENERGY: 600000 0.8721 8.8354 3.5640 0.0000 -10727.4575 1411.2863 0.0000 0.0000 1777.8459 -7525.0538 301.9415 -9302.8997 -7467.2594 303.2562 -206.9585 -176.5303 30197.7991 12.9267 68.2528
ENERGY: 900000 0.7409 8.1110 1.8328 0.0000 -10786.8615 1537.9861 0.0000 0.0000 1664.4036 -7573.7871 282.6750 -9238.1907 -7484.7085 300.9620 769.9991 852.8156 30262.6954 60.4122 125.0044
ENERGY: 1200000 0.8505 8.5034 3.6358 0.0000 -10812.8493 1448.8754 0.0000 0.0000 1754.8681 -7596.1161 298.0391 -9350.9841 -7493.2519 300.0795 -41.9329 36.0248 29781.2191 47.9291 108.3108
ENERGY: 1500000 2.2481 11.3352 1.8550 0.0000 -10612.3677 1360.4261 0.0000 0.0000 1697.0715 -7539.4318 288.2232 -9236.5033 -7505.1342 299.6275 -717.4003 -654.4250 30479.4368 -35.4434 27.1987
TCL: Running FEP window  14: Lambda1 0.34999999999999964 Lambda2 0.29999999999999966 [dLambda -0.04999999999999999]
TCL: Setting parameter firsttimestep to 0
TCL: Setting parameter alchLambda to 0.34999999999999964
Info: NONBONDED TABLE R-SQUARED SPACING: 0.0625
Info: NONBONDED TABLE SIZE: 705 POINTS
TCL: Setting parameter alchLambda2 to 0.29999999999999966
Info: NONBONDED TABLE R-SQUARED SPACING: 0.0625
Info: NONBONDED TABLE SIZE: 705 POINTS
TCL: Running for 1500000 steps
ETITLE: TS BOND ANGLE DIHED IMPRP ELECT VDW BOUNDARY MISC KINETIC TOTAL TEMP POTENTIAL TOTALAVG TEMPAVG PRESSURE GPRESSURE VOLUME PRESSAVG GPRESSAVG
ENERGY: 0 2.2481 11.3352 1.8550 0.0000 -10612.3670 1360.9042 0.0000 0.0000 1696.1693 -7539.8551 288.0699 -9236.0245 -7539.8551 288.0699 -741.1495 -655.9590 30479.4368 -741.1495 -655.9590
ENERGY: 300000 3.1674 9.4372 3.0773 0.0000 -10652.8195 1366.8294 0.0000 0.0000 1787.1653 -7483.1429 303.5243 -9270.3082 -7499.9023 297.9943 -631.6379 -568.8381 30328.0231 -575.9860 -506.6470
ENERGY: 600000 1.2014 6.0427 3.9101 0.0000 -10651.0810 1383.5003 0.0000 0.0000 1799.4904 -7456.9361 305.6175 -9256.4266 -7508.8016 297.9234 -308.3856 -248.8786 30087.8669 -244.8422 -178.5911
ENERGY: 900000 1.1087 7.0815 3.5178 0.0000 -10716.5674 1523.3665 0.0000 0.0000 1776.7402 -7404.7526 301.7538 -9181.4929 -7488.2155 299.7133 707.7715 842.3586 30272.7318 -54.5839 24.2810
ENERGY: 1200000 0.9856 10.0697 2.2316 0.0000 -10669.7078 1401.7603 0.0000 0.0000 1764.2580 -7490.4027 299.6338 -9254.6607 -7494.1606 300.0682 43.3875 97.0105 29713.2989 29.7527 103.0545
ENERGY: 1500000 1.1936 6.9935 1.9498 0.0000 -10646.4904 1412.1436 0.0000 0.0000 1789.3262 -7434.8837 303.8913 -9224.2098 -7493.6647 300.0906 -259.1165 -157.2135 30358.8767 -17.0670 50.5130
TCL: Running FEP window  15: Lambda1 0.29999999999999966 Lambda2 0.24999999999999967 [dLambda -0.04999999999999999]
TCL: Setting parameter firsttimestep to 0
TCL: Setting parameter alchLambda to 0.29999999999999966
Info: NONBONDED TABLE R-SQUARED SPACING: 0.0625
Info: NONBONDED TABLE SIZE: 705 POINTS
TCL: Setting parameter alchLambda2 to 0.24999999999999967
Info: NONBONDED TABLE R-SQUARED SPACING: 0.0625
Info: NONBONDED TABLE SIZE: 705 POINTS
TCL: Running for 1500000 steps
ETITLE: TS BOND ANGLE DIHED IMPRP ELECT VDW BOUNDARY MISC KINETIC TOTAL TEMP POTENTIAL TOTALAVG TEMPAVG PRESSURE GPRESSURE VOLUME PRESSAVG GPRESSAVG
ENERGY: 0 1.1936 6.9935 1.9498 0.0000 -10646.4904 1412.3350 0.0000 0.0000 1788.4299 -7435.5886 303.7391 -9224.0185 -7435.5886 303.7391 -255.4530 -159.8270 30358.8767 -255.4530 -159.8270
ENERGY: 300000 1.4370 6.1859 1.8626 0.0000 -10781.8902 1504.2473 0.0000 0.0000 1774.7326 -7493.4248 301.4128 -9268.1574 -7498.1668 299.6534 332.9728 411.8677 30294.2633 -47.9296 32.0901
ENERGY: 600000 2.4485 11.2213 2.6866 0.0000 -10638.2215 1390.8856 0.0000 0.0000 1726.9764 -7504.0031 293.3021 -9230.9795 -7496.1155 297.4380 -489.9308 -388.8310 30769.5604 -68.4713 9.1353
ENERGY: 900000 2.8567 10.5402 3.3427 0.0000 -10719.8796 1454.9123 0.0000 0.0000 1790.3112 -7457.9165 304.0586 -9248.2277 -7485.3869 298.8040 -130.8857 -25.7166 30781.4108 -80.9828 -4.5671
ENERGY: 1200000 0.7833 7.6524 3.2333 0.0000 -10644.4255 1412.4568 0.0000 0.0000 1810.1574 -7410.1422 307.4292 -9220.2996 -7476.7893 298.9783 -248.7728 -187.5901 30644.1834 -134.1043 -57.7604
ENERGY: 1500000 1.3067 8.0281 2.0459 0.0000 -10546.1750 1358.3340 0.0000 0.0000 1771.5837 -7404.8767 300.8780 -9176.4603 -7480.7148 298.6731 -391.0437 -337.2576 30304.2809 -226.5059 -151.4935
TCL: Running FEP window  16: Lambda1 0.24999999999999967 Lambda2 0.19999999999999968 [dLambda -0.04999999999999999]
TCL: Setting parameter firsttimestep to 0
TCL: Setting parameter alchLambda to 0.24999999999999967
Info: NONBONDED TABLE R-SQUARED SPACING: 0.0625
Info: NONBONDED TABLE SIZE: 705 POINTS
TCL: Setting parameter alchLambda2 to 0.19999999999999968
Info: NONBONDED TABLE R-SQUARED SPACING: 0.0625
Info: NONBONDED TABLE SIZE: 705 POINTS
TCL: Running for 1500000 steps
ETITLE: TS BOND ANGLE DIHED IMPRP ELECT VDW BOUNDARY MISC KINETIC TOTAL TEMP POTENTIAL TOTALAVG TEMPAVG PRESSURE GPRESSURE VOLUME PRESSAVG GPRESSAVG
ENERGY: 0 1.3067 8.0281 2.0459 0.0000 -10546.1751 1357.2176 0.0000 0.0000 1770.6822 -7406.8945 300.7249 -9177.5768 -7406.8945 300.7249 -442.6911 -347.7083 30304.2809 -442.6911 -347.7083
ENERGY: 300000 1.3002 6.0436 2.5295 0.0000 -10754.4946 1463.7392 0.0000 0.0000 1735.4781 -7545.4040 294.7460 -9280.8821 -7472.2571 298.6486 270.1528 344.9516 30190.6905 -40.4859 28.9001
ENERGY: 600000 1.4975 7.2298 3.4884 0.0000 -10759.0345 1453.6706 0.0000 0.0000 1758.2739 -7534.8743 298.6175 -9293.1482 -7485.6646 298.8897 -14.6174 117.3171 30032.6736 -130.4910 -52.6619
ENERGY: 900000 0.5688 8.1870 2.2177 0.0000 -10687.6085 1420.8914 0.0000 0.0000 1799.6931 -7456.0506 305.6520 -9255.7437 -7477.2898 300.3103 -216.4556 -128.1873 30608.2410 -199.5476 -119.0539
ENERGY: 1200000 0.9398 5.4078 3.0267 0.0000 -10867.2463 1525.7730 0.0000 0.0000 1812.0164 -7520.0828 307.7449 -9332.0991 -7482.9774 300.3155 379.4774 445.3668 30149.4066 -185.2616 -102.1987
ENERGY: 1500000 2.7378 7.3994 1.7356 0.0000 -10745.0117 1501.8011 0.0000 0.0000 1757.5588 -7473.7791 298.4961 -9231.3378 -7486.6061 300.0791 461.6120 592.7907 30055.2114 -117.5803 -34.4519
TCL: Running FEP window  17: Lambda1 0.19999999999999968 Lambda2 0.1499999999999997 [dLambda -0.04999999999999999]
TCL: Setting parameter firsttimestep to 0
TCL: Setting parameter alchLambda to 0.19999999999999968
Info: NONBONDED TABLE R-SQUARED SPACING: 0.0625
Info: NONBONDED TABLE SIZE: 705 POINTS
TCL: Setting parameter alchLambda2 to 0.1499999999999997
Info: NONBONDED TABLE R-SQUARED SPACING: 0.0625
Info: NONBONDED TABLE SIZE: 705 POINTS
TCL: Running for 1500000 steps
ETITLE: TS BOND ANGLE DIHED IMPRP ELECT VDW BOUNDARY MISC KINETIC TOTAL TEMP POTENTIAL TOTALAVG TEMPAVG PRESSURE GPRESSURE VOLUME PRESSAVG GPRESSAVG
ENERGY: 0 2.7378 7.3994 1.7356 0.0000 -10745.0123 1501.4021 0.0000 0.0000 1756.6876 -7475.0498 298.3481 -9231.7373 -7475.0498 298.3481 507.3080 584.9173 30055.2114 507.3080 584.9173
ENERGY: 300000 1.5743 14.0465 2.0559 0.0000 -10658.0459 1407.6419 0.0000 0.0000 1738.9321 -7493.7954 295.3326 -9232.7275 -7479.6141 299.1293 -28.1072 44.0819 30104.4018 -221.7158 -147.0394
ENERGY: 600000 1.5140 9.4844 2.0827 0.0000 -10652.6521 1399.5784 0.0000 0.0000 1772.9253 -7467.0674 301.1058 -9239.9926 -7482.4597 299.6873 -462.3743 -388.8928 30730.7693 -212.4694 -152.4226
ENERGY: 900000 1.2608 6.1211 2.6520 0.0000 -10736.4593 1488.9210 0.0000 0.0000 1758.7392 -7478.7652 298.6965 -9237.5044 -7474.1764 299.6576 402.1082 509.0128 30158.8464 -160.3714 -100.9686
ENERGY: 1200000 2.4324 7.2027 3.2956 0.0000 -10822.9931 1503.0181 0.0000 0.0000 1787.5170 -7519.5273 303.5840 -9307.0444 -7480.4285 299.8966 345.2696 360.1932 30135.7515 -90.0870 -28.8950
ENERGY: 1500000 2.5643 7.7837 2.3488 0.0000 -10651.4311 1373.8848 0.0000 0.0000 1773.7025 -7491.1470 301.2378 -9264.8495 -7485.3018 300.0549 -714.6335 -621.9397 30455.9352 -101.7351 -36.5731
TCL: Running FEP window  18: Lambda1 0.1499999999999997 Lambda2 0.09999999999999969 [dLambda -0.05 ]
TCL: Setting parameter firsttimestep to 0
TCL: Setting parameter alchLambda to 0.1499999999999997
Info: NONBONDED TABLE R-SQUARED SPACING: 0.0625
Info: NONBONDED TABLE SIZE: 705 POINTS
TCL: Setting parameter alchLambda2 to 0.09999999999999969
Info: NONBONDED TABLE R-SQUARED SPACING: 0.0625
Info: NONBONDED TABLE SIZE: 705 POINTS
TCL: Running for 1500000 steps
ETITLE: TS BOND ANGLE DIHED IMPRP ELECT VDW BOUNDARY MISC KINETIC TOTAL TEMP POTENTIAL TOTALAVG TEMPAVG PRESSURE GPRESSURE VOLUME PRESSAVG GPRESSAVG
ENERGY: 0 2.5643 7.7837 2.3488 0.0000 -10651.4315 1373.2525 0.0000 0.0000 1772.8080 -7492.6741 301.0859 -9265.4821 -7492.6741 301.0859 -711.2390 -624.2980 30455.9352 -711.2390 -624.2980
ENERGY: 300000 1.0698 8.3568 4.3079 0.0000 -10640.5019 1438.1372 0.0000 0.0000 1745.5784 -7443.0519 296.4614 -9188.6302 -7511.1860 296.9949 103.9068 193.6653 30548.3048 15.4179 95.5000
ENERGY: 600000 0.6812 9.4717 3.1813 0.0000 -10812.2974 1500.6415 0.0000 0.0000 1770.9946 -7527.3272 300.7779 -9298.3218 -7492.1599 299.1411 233.4638 259.4096 30712.9915 63.8333 124.1205
ENERGY: 900000 1.3502 5.3970 2.0084 0.0000 -10757.5619 1451.9665 0.0000 0.0000 1760.3307 -7536.5090 298.9668 -9296.8398 -7495.2851 297.9157 -117.5074 -54.2779 30497.8399 -99.6223 -40.2164
ENERGY: 1200000 2.2277 8.0415 1.6576 0.0000 -10782.6775 1493.6844 0.0000 0.0000 1816.4001 -7460.6662 308.4894 -9277.0663 -7499.2838 297.8820 407.0210 467.8023 29973.7034 -117.7373 -54.2721
ENERGY: 1500000 1.7133 9.2600 2.4343 0.0000 -10582.8052 1402.0518 0.0000 0.0000 1805.8910 -7361.4548 306.7046 -9167.3457 -7484.8480 299.1022 24.8581 70.4103 30232.0197 -136.1159 -72.8111
TCL: Running FEP window  19: Lambda1 0.09999999999999969 Lambda2 0.049999999999999684 [dLambda -0.05 ]
TCL: Setting parameter firsttimestep to 0
TCL: Setting parameter alchLambda to 0.09999999999999969
Info: NONBONDED TABLE R-SQUARED SPACING: 0.0625
Info: NONBONDED TABLE SIZE: 705 POINTS
TCL: Setting parameter alchLambda2 to 0.049999999999999684
Info: NONBONDED TABLE R-SQUARED SPACING: 0.0625
Info: NONBONDED TABLE SIZE: 705 POINTS
TCL: Running for 1500000 steps
ETITLE: TS BOND ANGLE DIHED IMPRP ELECT VDW BOUNDARY MISC KINETIC TOTAL TEMP POTENTIAL TOTALAVG TEMPAVG PRESSURE GPRESSURE VOLUME PRESSAVG GPRESSAVG
ENERGY: 0 1.7133 9.2600 2.4343 0.0000 -10582.8057 1401.3734 0.0000 0.0000 1805.0094 -7363.0153 306.5549 -9168.0247 -7363.0153 306.5549 -34.3615 63.8581 30232.0197 -34.3615 63.8581
ENERGY: 300000 0.9939 6.1102 1.9841 0.0000 -10698.8797 1470.4577 0.0000 0.0000 1775.0377 -7444.2960 301.4646 -9219.3338 -7474.7933 303.3207 235.4241 283.2947 30455.3972 135.3659 186.5036
ENERGY: 600000 0.7610 8.0272 2.8925 0.0000 -10707.6377 1513.0799 0.0000 0.0000 1752.4677 -7430.4094 297.6314 -9182.8771 -7460.5580 302.3923 535.1007 599.4844 30582.7831 249.9218 293.7372
ENERGY: 900000 0.7509 5.7460 2.4322 0.0000 -10631.5999 1395.8154 0.0000 0.0000 1767.2672 -7459.5882 300.1449 -9226.8554 -7476.1559 301.9648 -501.7055 -463.4747 30750.0131 175.6734 217.2187
ENERGY: 1200000 1.9196 8.1345 1.7934 0.0000 -10663.8713 1366.6060 0.0000 0.0000 1769.8437 -7515.5742 300.5825 -9285.4178 -7486.7419 300.7706 -576.7623 -562.6952 30117.1213 87.3653 135.7758
ENERGY: 1500000 0.6542 11.2805 1.6965 0.0000 -10758.8323 1468.3874 0.0000 0.0000 1732.1544 -7544.6593 294.1815 -9276.8137 -7486.9191 300.3570 96.1495 130.7937 30332.6778 78.4220 129.1842
TCL: Running FEP window  20: Lambda1 0.049999999999999684 Lambda2 0.0    [dLambda -0.049999999999999684]
TCL: Setting parameter firsttimestep to 0
TCL: Setting parameter alchLambda to 0.049999999999999684
Info: NONBONDED TABLE R-SQUARED SPACING: 0.0625
Info: NONBONDED TABLE SIZE: 705 POINTS
TCL: Setting parameter alchLambda2 to 0.0
Info: NONBONDED TABLE R-SQUARED SPACING: 0.0625
Info: NONBONDED TABLE SIZE: 705 POINTS
TCL: Running for 1500000 steps
ETITLE: TS BOND ANGLE DIHED IMPRP ELECT VDW BOUNDARY MISC KINETIC TOTAL TEMP POTENTIAL TOTALAVG TEMPAVG PRESSURE GPRESSURE VOLUME PRESSAVG GPRESSAVG
ENERGY: 0 0.6542 11.2805 1.6965 0.0000 -10758.8312 1468.6972 0.0000 0.0000 1731.2773 -7545.2255 294.0325 -9276.5028 -7545.2255 294.0325 45.7617 127.8668 30332.6778 45.7617 127.8668
ENERGY: 300000 0.2490 8.2999 2.6428 0.0000 -10663.2040 1456.2216 0.0000 0.0000 1768.2815 -7427.5092 300.3172 -9195.7908 -7523.6090 295.8379 139.3442 199.0744 30514.3030 130.1891 202.0526
ENERGY: 600000 2.8057 10.2380 1.9966 0.0000 -10699.1318 1449.2425 0.0000 0.0000 1760.8086 -7474.0404 299.0480 -9234.8490 -7523.6813 298.0181 257.5584 277.6388 30070.6131 54.8543 115.3384
ENERGY: 900000 0.4206 6.4664 2.3659 0.0000 -10640.0495 1455.1862 0.0000 0.0000 1760.8045 -7414.8059 299.0473 -9175.6103 -7510.6838 298.1272 489.8690 476.1091 30119.6420 -32.5776 25.2224
ENERGY: 1200000 1.2450 8.4488 2.6611 0.0000 -10813.8834 1523.1907 0.0000 0.0000 1745.3672 -7532.9707 296.4255 -9278.3378 -7504.0756 299.5994 356.6511 428.2419 30561.6917 41.1961 101.9033
ENERGY: 1500000 0.9733 6.8087 2.2837 0.0000 -10705.2141 1439.9115 0.0000 0.0000 1774.6561 -7480.5807 301.3998 -9255.2368 -7508.2987 299.0783 24.9094 116.7819 30103.9293 41.4422 104.3876
TCL: Exiting due to exit command.
