Info: SIMULATION PARAMETERS:
Info: TIMESTEP               2
Info: NUMBER OF STEPS        0
Info: STEPS PER CYCLE        10
Info: PERIODIC CELL BASIS 1  31.5999 0 0
Info: PERIODIC CELL BASIS 2  0 30.0239 0
Info: PERIODIC CELL BASIS 3  0 0 31.872
Info: PERIODIC CELL CENTER   0 0 0
Info: WRAPPING WATERS AROUND PERIODIC BOUNDARIES ON OUTPUT.
Info: WRAPPING ALL CLUSTERS AROUND PERIODIC BOUNDARIES ON OUTPUT.
Info: FIRST LDB TIMESTEP     50
Info: LAST LDB TIMESTEP     -1
Info: HOM BACKGROUND SCALING 1
Info: PME BACKGROUND SCALING 1
Info: MIN ATOMS PER PATCH    40
Info: EMPTY PATCH LOAD       40 ATOMS
Info: VELOCITY FILE          mobley_5759258_equil.vel
Info: CENTER OF MASS MOVING INITIALLY? NO
Info: DIELECTRIC             1
Info: EXCLUDE                SCALED ONE-FOUR
Info: 1-4 ELECTROSTATICS SCALED BY 0.833333
Info: MODIFIED 1-4 VDW PARAMETERS WILL BE USED
Info: DCD FILENAME           mobley_5759258_prod.dcd
Info: DCD FREQUENCY          100000
Info: DCD FIRST STEP         100000
Info: DCD FILE WILL CONTAIN UNIT CELL DATA
Info: XST FILENAME           mobley_5759258_prod.xst
Info: XST FREQUENCY          100000
Info: NO VELOCITY DCD OUTPUT
Info: NO FORCE DCD OUTPUT
Info: OUTPUT FILENAME        mobley_5759258_prod
Info: BINARY OUTPUT FILES WILL BE USED
Info: RESTART FILENAME       mobley_5759258_prod.restart
Info: RESTART FREQUENCY      100000
Info: BINARY RESTART FILES WILL BE USED
Info: CUTOFF                 9
Info: PAIRLIST DISTANCE      11
Info: PAIRLIST SHRINK RATE   0.01
Info: PAIRLIST GROW RATE     0.01
Info: PAIRLIST TRIGGER       0.3
Info: PAIRLISTS PER CYCLE    2
Info: PAIRLISTS ENABLED
Info: MARGIN                 2
Info: HYDROGEN GROUP CUTOFF  2.5
Info: PATCH DIMENSION        15.5
Info: ENERGY OUTPUT STEPS    100000
Info: ENERGY EVALUATION STEPS    100000
Info: OUTPUT ENERGY PRECISION 4
Info: CROSSTERM ENERGY INCLUDED IN DIHEDRAL
Info: TIMING OUTPUT STEPS    1000000
Info: PRESSURE OUTPUT STEPS  100000
Info: ALCHEMICAL FEP ON
Info: FEP CURRENT LAMBDA VALUE     1
Info: FEP COMPARISON LAMBDA VALUE  0.95
Info: FEP INTRA-ALCHEMICAL NON-BONDED INTERACTIONS WILL BE RETAINED
Info: FEP INTRA-ALCHEMICAL BONDED INTERACTIONS WILL BE RETAINED
Info: FEP VDW SHIFTING COEFFICIENT 5
Info: FEP ELEC. ACTIVE FOR ANNIHILATED PARTICLES BETWEEN LAMBDA = 0 AND LAMBDA = 0.5
Info: FEP ELEC. ACTIVE FOR EXNIHILATED PARTICLES BETWEEN LAMBDA = 0.5 AND LAMBDA = 1
Info: FEP VDW ACTIVE FOR ANNIHILATED PARTICLES BETWEEN LAMBDA = 0 AND LAMBDA = 1
Info: FEP VDW ACTIVE FOR EXNIHILATED PARTICLES BETWEEN LAMBDA = 0 AND LAMBDA = 1
Info: FEP BOND ACTIVE FOR ANNIHILATED PARTICLES BETWEEN LAMBDA = 1 AND LAMBDA = 1
Info: FEP BOND ACTIVE FOR EXNIHILATED PARTICLES BETWEEN LAMBDA = 0 AND LAMBDA = 0
Info: LANGEVIN DYNAMICS ACTIVE
Info: LANGEVIN TEMPERATURE   300
Info: LANGEVIN USING BBK INTEGRATOR
Info: LANGEVIN DAMPING COEFFICIENT IS 1 INVERSE PS
Info: LANGEVIN DYNAMICS APPLIED TO HYDROGENS
Info: LANGEVIN PISTON PRESSURE CONTROL ACTIVE
Info:        TARGET PRESSURE IS 1.01325 BAR
Info:     OSCILLATION PERIOD IS 50 FS
Info:             DECAY TIME IS 25 FS
Info:     PISTON TEMPERATURE IS 300 K
Info:       PRESSURE CONTROL IS GROUP-BASED
Info:    INITIAL STRAIN RATE IS -0.000352978 -0.000352978 -0.000352978
Info:       CELL FLUCTUATION IS ISOTROPIC
Info: PARTICLE MESH EWALD (PME) ACTIVE
Info: PME TOLERANCE               1e-06
Info: PME EWALD COEFFICIENT       0.348832
Info: PME INTERPOLATION ORDER     4
Info: PME GRID DIMENSIONS         32 32 32
Info: PME MAXIMUM GRID SPACING    1
Info: PME CALCULATION WILL BE PERFORMED ON GPU
Info: FULL ELECTROSTATIC EVALUATION FREQUENCY      2
Info: USING VERLET I (r-RESPA) MTS SCHEME.
Info: C1 SPLITTING OF LONG RANGE ELECTROSTATICS
Info: PLACING ATOMS IN PATCHES BY HYDROGEN GROUPS
Info: RIGID BONDS TO HYDROGEN : ALL
Info:         ERROR TOLERANCE : 1e-08
Info:          MAX ITERATIONS : 100
Info: RIGID WATER USING SETTLE ALGORITHM
Info: RANDOM NUMBER SEED     1743915038
Info: USE HYDROGEN BONDS?    NO
Info: Using AMBER format force field!
Info: AMBER PARM FILE        mobley_5759258.prmtop
Info: COORDINATE PDB         mobley_5759258.pdb
Info: Exclusions will be read from PARM file!
Info: SCNB (VDW SCALING)     2
Info: USING ARITHMETIC MEAN TO COMBINE L-J SIGMA PARAMETERS
Info: BINARY COORDINATES     mobley_5759258_equil.coor
Info: SUMMARY OF PARAMETERS:
Info: 7 BONDS
Info: 8 ANGLES
Info:   8 HARMONIC
Info:   0 COSINE-BASED
Info: 9 DIHEDRAL
Info: 0 IMPROPER
Info: 0 CROSSTERM
Info: 0 VDW
Info: 21 VDW_PAIRS
Info: 0 NBTHOLE_PAIRS
Info: To read alchdata from file: mobley_5759258.pdb
Info: To read alchflag data from column: 5
Info: STRUCTURE SUMMARY:
Info: 2958 ATOMS
Info: 2957 BONDS
Info: 31 ANGLES
Info: 46 DIHEDRALS
Info: 0 IMPROPERS
Info: 0 CROSSTERMS
Info: 3027 EXCLUSIONS
Info: 2952 RIGID BONDS
Info: ALCH: 0 ATOMS TO DISAPPEAR IN FINAL STATE
Info: ALCH: 18 ATOMS TO APPEAR IN FINAL STATE
Info: 5922 DEGREES OF FREEDOM
Info: 986 HYDROGEN GROUPS
Info: 4 ATOMS IN LARGEST HYDROGEN GROUP
Info: 986 MIGRATION GROUPS
Info: 4 ATOMS IN LARGEST MIGRATION GROUP
Info: TOTAL MASS = 17743.8 amu
Info: TOTAL CHARGE = -0.00010002 e
Info: MASS DENSITY = 0.974415 g/cm^3
Info: ATOM DENSITY = 0.0978218 atoms/A^3
Info: ADDED 0 IMPLICIT EXCLUSIONS
Info: NONBONDED TABLE R-SQUARED SPACING: 0.0625
Info: NONBONDED TABLE SIZE: 705 POINTS
Info: REMOVING COM VELOCITY 0.0145977 -0.00194731 0.155821
Info: Use 3D box decompostion in PME FFT.
Info: Updated CUDA force table with 4096 elements.
Info: Updated CUDA LJ table with 6 x 6 elements.
Info: Found 21 unique exclusion lists needing 56 bytes
TCL: Running for 1500000 steps
ETITLE: TS BOND ANGLE DIHED IMPRP ELECT VDW BOUNDARY MISC KINETIC TOTAL TEMP POTENTIAL TOTALAVG TEMPAVG PRESSURE GPRESSURE VOLUME PRESSAVG GPRESSAVG
ENERGY: 0 1.5028 4.8966 2.9303 0.0000 -10707.3882 1413.8339 0.0000 0.0000 1728.2580 -7555.9667 293.7180 -9284.2247 -7555.9667 293.7180 -169.0079 -65.4917 30238.6738 -169.0079 -65.4917
ENERGY: 300000 0.6881 6.2360 2.9105 0.0000 -10769.9385 1468.4881 0.0000 0.0000 1785.0907 -7506.5251 303.3767 -9291.6158 -7509.9833 299.1934 529.8523 501.3980 29939.1194 -25.8912 27.6534
ENERGY: 600000 3.6929 10.1480 3.0414 0.0000 -10689.4490 1384.2323 0.0000 0.0000 1766.8908 -7521.4436 300.2837 -9288.3344 -7501.3010 299.7677 -579.4026 -565.1737 30627.2179 -4.3951 55.4024
ENERGY: 900000 1.8643 7.8801 2.5281 0.0000 -10587.8091 1383.6243 0.0000 0.0000 1733.9062 -7458.0062 294.6779 -9191.9124 -7479.6565 300.9379 -437.4278 -389.2543 30936.9032 20.7151 77.5806
ENERGY: 1200000 1.8319 7.0846 2.8361 0.0000 -10750.3952 1492.6282 0.0000 0.0000 1838.5846 -7407.4299 312.4680 -9246.0145 -7470.0773 301.3915 370.5772 425.2737 30938.7097 32.1321 87.7690
ENERGY: 1500000 3.7381 7.0330 2.9388 0.0000 -10783.5538 1367.3014 0.0000 0.0000 1745.6396 -7656.9029 296.6720 -9402.5425 -7484.1998 301.1805 -847.3301 -780.2995 30014.7125 -33.1491 17.4305
TCL: Running FEP window   2: Lambda1 0.95   Lambda2 0.8999999999999999 [dLambda -0.050000000000000044]
TCL: Setting parameter firsttimestep to 0
TCL: Setting parameter alchLambda to 0.95
Info: NONBONDED TABLE R-SQUARED SPACING: 0.0625
Info: NONBONDED TABLE SIZE: 705 POINTS
TCL: Setting parameter alchLambda2 to 0.8999999999999999
Info: NONBONDED TABLE R-SQUARED SPACING: 0.0625
Info: NONBONDED TABLE SIZE: 705 POINTS
TCL: Running for 1500000 steps
ETITLE: TS BOND ANGLE DIHED IMPRP ELECT VDW BOUNDARY MISC KINETIC TOTAL TEMP POTENTIAL TOTALAVG TEMPAVG PRESSURE GPRESSURE VOLUME PRESSAVG GPRESSAVG
ENERGY: 0 3.7381 7.0330 2.9388 0.0000 -10781.9865 1365.9688 0.0000 0.0000 1744.7476 -7657.5602 296.5204 -9402.3078 -7657.5602 296.5204 -900.2176 -802.4220 30014.7125 -900.2176 -802.4220
ENERGY: 300000 1.0720 9.3091 2.7509 0.0000 -10549.4808 1338.2072 0.0000 0.0000 1780.5701 -7417.5715 302.6085 -9198.1416 -7497.4437 304.1752 -804.6857 -737.9165 30763.2189 -406.3156 -322.0857
ENERGY: 600000 1.8880 5.0765 2.4202 0.0000 -10705.2066 1479.1123 0.0000 0.0000 1721.6386 -7495.0710 292.5930 -9216.7095 -7511.9294 301.6151 231.3590 268.5904 30763.2617 -243.1181 -180.0902
ENERGY: 900000 0.6213 4.9738 4.4662 0.0000 -10652.9861 1383.6099 0.0000 0.0000 1729.5001 -7529.8148 293.9291 -9259.3149 -7509.4317 300.5571 -637.6301 -548.0198 30782.2542 -386.5088 -327.7537
ENERGY: 1200000 1.1759 11.5080 3.0421 0.0000 -10726.5910 1462.1741 0.0000 0.0000 1760.9730 -7487.7180 299.2779 -9248.6909 -7512.6910 300.6893 448.2923 468.0277 29942.9644 -313.4325 -258.1605
ENERGY: 1500000 1.1683 5.0738 4.2734 0.0000 -10782.3937 1464.0280 0.0000 0.0000 1763.3645 -7544.4857 299.6844 -9307.8502 -7507.5427 300.8415 272.1689 368.2840 30115.9337 -153.9640 -100.9740
TCL: Running FEP window   3: Lambda1 0.8999999999999999 Lambda2 0.8499999999999999 [dLambda -0.050000000000000044]
TCL: Setting parameter firsttimestep to 0
TCL: Setting parameter alchLambda to 0.8999999999999999
Info: NONBONDED TABLE R-SQUARED SPACING: 0.0625
Info: NONBONDED TABLE SIZE: 705 POINTS
TCL: Setting parameter alchLambda2 to 0.8499999999999999
Info: NONBONDED TABLE R-SQUARED SPACING: 0.0625
Info: NONBONDED TABLE SIZE: 705 POINTS
TCL: Running for 1500000 steps
ETITLE: TS BOND ANGLE DIHED IMPRP ELECT VDW BOUNDARY MISC KINETIC TOTAL TEMP POTENTIAL TOTALAVG TEMPAVG PRESSURE GPRESSURE VOLUME PRESSAVG GPRESSAVG
ENERGY: 0 1.1683 5.0738 4.2734 0.0000 -10780.7658 1463.5874 0.0000 0.0000 1762.4960 -7544.1668 299.5368 -9306.6628 -7544.1668 299.5368 260.1357 356.4036 30115.9337 260.1357 356.4036
ENERGY: 300000 1.4886 6.2644 2.2660 0.0000 -10671.5659 1384.2840 0.0000 0.0000 1814.7125 -7462.5504 308.4110 -9277.2630 -7502.6407 302.1533 -520.8757 -474.7590 30385.0440 -167.0146 -81.2081
ENERGY: 600000 0.9135 10.2304 2.3137 0.0000 -10792.8672 1519.5370 0.0000 0.0000 1752.3482 -7507.5244 297.8121 -9259.8726 -7509.5305 298.1644 377.2704 452.4769 30547.1085 8.2230 87.2123
ENERGY: 900000 2.1562 6.3461 2.2266 0.0000 -10752.4430 1435.8487 0.0000 0.0000 1785.7907 -7520.0747 303.4957 -9305.8653 -7498.7381 300.8932 -92.6277 -41.2313 30370.7893 44.8824 126.8284
ENERGY: 1200000 0.1483 8.0574 2.6637 0.0000 -10686.3330 1418.8975 0.0000 0.0000 1762.2394 -7494.3268 299.4931 -9256.5662 -7489.4014 301.1812 -146.5878 -99.3684 30483.3011 18.8642 92.4790
ENERGY: 1500000 1.4936 10.2897 3.5982 0.0000 -10553.2251 1291.6453 0.0000 0.0000 1784.1971 -7462.0011 303.2249 -9246.1982 -7496.2072 300.9316 -1169.1654 -1143.9994 30513.6443 -54.9211 13.1632
TCL: Running FEP window   4: Lambda1 0.8499999999999999 Lambda2 0.7999999999999998 [dLambda -0.050000000000000044]
TCL: Setting parameter firsttimestep to 0
TCL: Setting parameter alchLambda to 0.8499999999999999
Info: NONBONDED TABLE R-SQUARED SPACING: 0.0625
Info: NONBONDED TABLE SIZE: 705 POINTS
TCL: Setting parameter alchLambda2 to 0.7999999999999998
Info: NONBONDED TABLE R-SQUARED SPACING: 0.0625
Info: NONBONDED TABLE SIZE: 705 POINTS
TCL: Running for 1500000 steps
ETITLE: TS BOND ANGLE DIHED IMPRP ELECT VDW BOUNDARY MISC KINETIC TOTAL TEMP POTENTIAL TOTALAVG TEMPAVG PRESSURE GPRESSURE VOLUME PRESSAVG GPRESSAVG
ENERGY: 0 1.4936 10.2897 3.5982 0.0000 -10551.8686 1291.5516 0.0000 0.0000 1783.3122 -7461.6233 303.0745 -9244.9354 -7461.6233 303.0745 -1234.5485 -1152.4808 30513.6443 -1234.5485 -1152.4808
ENERGY: 300000 2.2952 9.1905 3.2713 0.0000 -10599.1696 1393.4175 0.0000 0.0000 1754.7410 -7436.2541 298.2188 -9190.9951 -7449.9491 298.0793 -355.0718 -366.9540 30695.1228 -103.0495 -74.8103
ENERGY: 600000 2.0600 8.1407 2.1285 0.0000 -10640.0052 1400.8048 0.0000 0.0000 1715.6829 -7511.1884 291.5808 -9226.8713 -7436.7867 299.9533 -252.8510 -191.6859 30430.0165 -74.9873 -25.5095
ENERGY: 900000 1.9004 7.0734 3.6419 0.0000 -10629.4711 1345.7250 0.0000 0.0000 1728.1014 -7543.0290 293.6914 -9271.1304 -7448.2872 299.0561 -909.4161 -829.8026 30389.6630 -223.9686 -177.5907
ENERGY: 1200000 0.4521 8.1915 1.7517 0.0000 -10655.6205 1378.7461 0.0000 0.0000 1794.9469 -7471.5322 305.0518 -9266.4791 -7457.9851 300.1056 -336.2256 -252.4515 30254.8405 -258.5710 -208.3170
ENERGY: 1500000 0.3192 5.3597 3.4057 0.0000 -10726.5466 1351.1961 0.0000 0.0000 1764.0940 -7602.1719 299.8083 -9366.2659 -7464.4340 301.0206 -740.4287 -681.0091 30112.8585 -251.4026 -199.3703
TCL: Running FEP window   5: Lambda1 0.7999999999999998 Lambda2 0.7499999999999998 [dLambda -0.050000000000000044]
TCL: Setting parameter firsttimestep to 0
TCL: Setting parameter alchLambda to 0.7999999999999998
Info: NONBONDED TABLE R-SQUARED SPACING: 0.0625
Info: NONBONDED TABLE SIZE: 705 POINTS
TCL: Setting parameter alchLambda2 to 0.7499999999999998
Info: NONBONDED TABLE R-SQUARED SPACING: 0.0625
Info: NONBONDED TABLE SIZE: 705 POINTS
TCL: Running for 1500000 steps
ETITLE: TS BOND ANGLE DIHED IMPRP ELECT VDW BOUNDARY MISC KINETIC TOTAL TEMP POTENTIAL TOTALAVG TEMPAVG PRESSURE GPRESSURE VOLUME PRESSAVG GPRESSAVG
ENERGY: 0 0.3192 5.3597 3.4057 0.0000 -10724.7349 1350.5222 0.0000 0.0000 1763.2228 -7601.9053 299.6603 -9365.1281 -7601.9053 299.6603 -783.7176 -694.1498 30112.8585 -783.7176 -694.1498
ENERGY: 300000 2.0607 6.2312 2.4558 0.0000 -10698.5573 1404.5288 0.0000 0.0000 1814.0858 -7469.1951 308.3045 -9283.2809 -7503.8329 304.6348 -455.6114 -387.1637 30421.6895 -369.9991 -306.7905
ENERGY: 600000 0.6414 11.4029 3.2139 0.0000 -10657.2172 1431.7670 0.0000 0.0000 1774.9028 -7435.2891 301.6453 -9210.1920 -7485.4519 302.3003 -49.4088 27.2476 30673.4627 -266.2441 -200.5437
ENERGY: 900000 0.9711 4.2165 3.9647 0.0000 -10840.9851 1514.3134 0.0000 0.0000 1744.3273 -7573.1921 296.4490 -9317.5194 -7505.3335 300.6715 323.8291 378.0549 30276.5125 -203.7854 -139.3754
ENERGY: 1200000 3.6814 7.9531 2.1860 0.0000 -10612.5038 1414.4318 0.0000 0.0000 1857.6799 -7326.5716 315.7133 -9184.2515 -7482.3212 301.9855 107.9998 187.0641 30551.2414 -117.8563 -51.1834
ENERGY: 1500000 2.2122 4.7634 2.7057 0.0000 -10715.3638 1400.2441 0.0000 0.0000 1770.4886 -7534.9498 300.8951 -9305.4384 -7482.7774 301.8579 -442.9475 -392.2881 30532.9330 -153.5878 -86.9248
TCL: Running FEP window   6: Lambda1 0.7499999999999998 Lambda2 0.6999999999999997 [dLambda -0.050000000000000044]
TCL: Setting parameter firsttimestep to 0
TCL: Setting parameter alchLambda to 0.7499999999999998
Info: NONBONDED TABLE R-SQUARED SPACING: 0.0625
Info: NONBONDED TABLE SIZE: 705 POINTS
TCL: Setting parameter alchLambda2 to 0.6999999999999997
Info: NONBONDED TABLE R-SQUARED SPACING: 0.0625
Info: NONBONDED TABLE SIZE: 705 POINTS
TCL: Running for 1500000 steps
ETITLE: TS BOND ANGLE DIHED IMPRP ELECT VDW BOUNDARY MISC KINETIC TOTAL TEMP POTENTIAL TOTALAVG TEMPAVG PRESSURE GPRESSURE VOLUME PRESSAVG GPRESSAVG
ENERGY: 0 2.2122 4.7634 2.7057 0.0000 -10713.5094 1399.2401 0.0000 0.0000 1769.6173 -7534.9707 300.7470 -9304.5880 -7534.9707 300.7470 -499.1795 -408.5672 30532.9330 -499.1795 -408.5672
ENERGY: 300000 1.1750 5.5521 3.7571 0.0000 -10723.1146 1462.6528 0.0000 0.0000 1750.7556 -7499.2221 297.5415 -9249.9777 -7514.0306 298.8853 -9.0268 17.2684 30687.1481 10.4293 87.3049
ENERGY: 600000 3.2219 7.7646 2.7571 0.0000 -10580.2686 1353.8021 0.0000 0.0000 1760.3944 -7452.3284 299.1796 -9212.7228 -7500.7823 299.7839 -652.7616 -547.2217 30464.1740 71.1823 144.5480
ENERGY: 900000 1.1118 7.0772 4.0173 0.0000 -10807.6034 1561.7438 0.0000 0.0000 1806.6722 -7426.9810 307.0445 -9233.6532 -7493.8776 300.8676 1086.1467 1206.3137 30297.6623 118.6343 195.6479
ENERGY: 1200000 2.8921 7.4973 3.0434 0.0000 -10676.7597 1440.9857 0.0000 0.0000 1781.6347 -7440.7065 302.7894 -9222.3412 -7487.4425 301.3365 -98.2066 -10.5322 30585.4582 110.3530 181.9606
ENERGY: 1500000 1.2738 8.1195 4.8046 0.0000 -10831.2667 1448.5880 0.0000 0.0000 1841.0101 -7527.4707 312.8802 -9368.4808 -7490.5842 302.0975 -65.7912 -28.2456 30145.1444 26.9505 92.7183
TCL: Running FEP window   7: Lambda1 0.6999999999999997 Lambda2 0.6499999999999997 [dLambda -0.050000000000000044]
TCL: Setting parameter firsttimestep to 0
TCL: Setting parameter alchLambda to 0.6999999999999997
Info: NONBONDED TABLE R-SQUARED SPACING: 0.0625
Info: NONBONDED TABLE SIZE: 705 POINTS
TCL: Setting parameter alchLambda2 to 0.6499999999999997
Info: NONBONDED TABLE R-SQUARED SPACING: 0.0625
Info: NONBONDED TABLE SIZE: 705 POINTS
TCL: Running for 1500000 steps
ETITLE: TS BOND ANGLE DIHED IMPRP ELECT VDW BOUNDARY MISC KINETIC TOTAL TEMP POTENTIAL TOTALAVG TEMPAVG PRESSURE GPRESSURE VOLUME PRESSAVG GPRESSAVG
ENERGY: 0 1.2738 8.1195 4.8046 0.0000 -10830.1433 1448.9709 0.0000 0.0000 1840.1285 -7526.8460 312.7304 -9366.9745 -7526.8460 312.7304 -114.2085 -28.1034 30145.1444 -114.2085 -28.1034
ENERGY: 300000 1.0670 5.6694 4.1130 0.0000 -10567.8437 1350.2599 0.0000 0.0000 1765.5644 -7441.1700 300.0582 -9206.7344 -7452.5458 307.1891 -654.0713 -561.2821 30727.6822 -180.5962 -84.8760
ENERGY: 600000 3.0810 6.3709 2.7174 0.0000 -10853.3941 1490.9395 0.0000 0.0000 1792.3456 -7557.9396 304.6097 -9350.2852 -7467.2747 305.3909 168.7640 231.6265 30249.4592 -58.7999 29.0794
ENERGY: 900000 0.8116 8.9097 2.4611 0.0000 -10718.9850 1451.0761 0.0000 0.0000 1839.6290 -7416.0976 312.6455 -9255.7266 -7481.3173 302.4439 270.7155 285.6325 30005.2201 -25.7805 48.5881
ENERGY: 1200000 2.1557 11.8715 4.7617 0.0000 -10691.5169 1388.0044 0.0000 0.0000 1753.7128 -7531.0109 298.0441 -9284.7237 -7480.4965 302.4673 -519.4861 -406.0919 30500.9803 -44.0496 29.5240
ENERGY: 1500000 0.9583 11.7417 3.6321 0.0000 -10677.2019 1433.6564 0.0000 0.0000 1789.4011 -7437.8123 304.1093 -9227.2133 -7484.2532 301.8583 53.2451 72.1531 30470.5508 -57.6149 13.8224
TCL: Running FEP window   8: Lambda1 0.6499999999999997 Lambda2 0.5999999999999996 [dLambda -0.050000000000000044]
TCL: Setting parameter firsttimestep to 0
TCL: Setting parameter alchLambda to 0.6499999999999997
Info: NONBONDED TABLE R-SQUARED SPACING: 0.0625
Info: NONBONDED TABLE SIZE: 705 POINTS
TCL: Setting parameter alchLambda2 to 0.5999999999999996
Info: NONBONDED TABLE R-SQUARED SPACING: 0.0625
Info: NONBONDED TABLE SIZE: 705 POINTS
TCL: Running for 1500000 steps
ETITLE: TS BOND ANGLE DIHED IMPRP ELECT VDW BOUNDARY MISC KINETIC TOTAL TEMP POTENTIAL TOTALAVG TEMPAVG PRESSURE GPRESSURE VOLUME PRESSAVG GPRESSAVG
ENERGY: 0 0.9583 11.7417 3.6321 0.0000 -10676.5381 1433.8548 0.0000 0.0000 1788.5251 -7437.8260 303.9604 -9226.3511 -7437.8260 303.9604 -8.0676 66.4060 30470.5508 -8.0676 66.4060
ENERGY: 300000 0.7571 5.0844 4.5584 0.0000 -10710.2176 1470.5394 0.0000 0.0000 1735.3429 -7493.9353 294.9221 -9229.2782 -7491.3566 296.8833 254.9500 261.4383 30538.3150 142.0211 196.7623
ENERGY: 600000 1.2668 10.4895 3.4672 0.0000 -10715.6231 1432.8683 0.0000 0.0000 1753.5247 -7514.0067 298.0121 -9267.5313 -7497.2819 297.2805 -118.1759 -143.9355 30644.6815 -31.4027 30.7626
ENERGY: 900000 0.8221 5.9817 4.5476 0.0000 -10843.7900 1537.2644 0.0000 0.0000 1807.7923 -7487.3818 307.2349 -9295.1742 -7494.8918 298.7860 779.3056 805.5789 30104.2135 79.4923 135.3942
ENERGY: 1200000 0.1580 6.6473 2.0424 0.0000 -10676.4995 1400.6314 0.0000 0.0000 1737.7222 -7529.2983 295.3264 -9267.0204 -7504.9302 298.1276 -606.8903 -520.4871 30793.8295 -4.6885 49.0715
ENERGY: 1500000 2.0695 4.2758 2.0681 0.0000 -10698.7901 1446.6822 0.0000 0.0000 1776.5514 -7467.1430 301.9255 -9243.6945 -7501.3050 298.7414 324.0148 385.7264 30170.6172 47.4789 101.3952
TCL: Running FEP window   9: Lambda1 0.5999999999999996 Lambda2 0.5499999999999996 [dLambda -0.050000000000000044]
TCL: Setting parameter firsttimestep to 0
TCL: Setting parameter alchLambda to 0.5999999999999996
Info: NONBONDED TABLE R-SQUARED SPACING: 0.0625
Info: NONBONDED TABLE SIZE: 705 POINTS
TCL: Setting parameter alchLambda2 to 0.5499999999999996
Info: NONBONDED TABLE R-SQUARED SPACING: 0.0625
Info: NONBONDED TABLE SIZE: 705 POINTS
TCL: Running for 1500000 steps
ETITLE: TS BOND ANGLE DIHED IMPRP ELECT VDW BOUNDARY MISC KINETIC TOTAL TEMP POTENTIAL TOTALAVG TEMPAVG PRESSURE GPRESSURE VOLUME PRESSAVG GPRESSAVG
ENERGY: 0 2.0695 4.2758 2.0681 0.0000 -10698.2948 1446.4891 0.0000 0.0000 1775.6390 -7467.7533 301.7704 -9243.3923 -7467.7533 301.7704 289.9995 374.7584 30170.6172 289.9995 374.7584
ENERGY: 300000 0.9613 7.5793 2.4154 0.0000 -10660.9222 1435.6939 0.0000 0.0000 1798.6215 -7415.6507 305.6763 -9214.2722 -7456.5418 303.4199 221.0865 295.7746 30255.6450 -26.6625 73.9701
ENERGY: 600000 1.1365 6.1424 3.3691 0.0000 -10844.8155 1561.3380 0.0000 0.0000 1746.2297 -7526.5998 296.7723 -9272.8295 -7467.7102 302.0447 1010.5637 1052.0258 29981.2277 -0.1264 82.1049
ENERGY: 900000 0.9743 7.7518 4.5622 0.0000 -10714.5063 1480.8382 0.0000 0.0000 1762.1630 -7458.2167 299.4802 -9220.3797 -7470.7165 301.3186 186.8061 307.5029 30812.9079 83.4154 173.3491
ENERGY: 1200000 1.7323 6.6071 2.9274 0.0000 -10669.4553 1384.0357 0.0000 0.0000 1769.5542 -7504.5986 300.7363 -9274.1528 -7472.7448 300.9982 -563.7700 -493.7280 30437.8693 -5.5624 84.3442
ENERGY: 1500000 0.5903 8.8709 2.0519 0.0000 -10654.8343 1425.6921 0.0000 0.0000 1753.3554 -7464.2737 297.9833 -9217.6291 -7488.3856 299.6552 -48.6322 -5.0412 30520.4334 -54.1509 28.2735
TCL: Running FEP window  10: Lambda1 0.5499999999999996 Lambda2 0.4999999999999996 [dLambda -0.04999999999999999]
TCL: Setting parameter firsttimestep to 0
TCL: Setting parameter alchLambda to 0.5499999999999996
Info: NONBONDED TABLE R-SQUARED SPACING: 0.0625
Info: NONBONDED TABLE SIZE: 705 POINTS
TCL: Setting parameter alchLambda2 to 0.4999999999999996
Info: NONBONDED TABLE R-SQUARED SPACING: 0.0625
Info: NONBONDED TABLE SIZE: 705 POINTS
TCL: Running for 1500000 steps
ETITLE: TS BOND ANGLE DIHED IMPRP ELECT VDW BOUNDARY MISC KINETIC TOTAL TEMP POTENTIAL TOTALAVG TEMPAVG PRESSURE GPRESSURE VOLUME PRESSAVG GPRESSAVG
ENERGY: 0 0.5903 8.8709 2.0519 0.0000 -10654.0768 1425.0654 0.0000 0.0000 1752.4867 -7465.0115 297.8357 -9217.4983 -7465.0115 297.8357 -99.0463 -18.1460 30520.4334 -99.0463 -18.1460
ENERGY: 300000 2.3898 9.0511 3.4397 0.0000 -10515.0464 1323.4539 0.0000 0.0000 1805.1143 -7371.5975 306.7797 -9176.7118 -7457.8477 303.1487 -817.0884 -802.9873 30623.7738 -197.5170 -149.1564
ENERGY: 600000 1.4903 7.5245 2.9414 0.0000 -10627.2725 1354.2943 0.0000 0.0000 1739.0923 -7521.9298 295.5593 -9261.0220 -7480.3443 303.1538 -946.4113 -854.6163 30787.9448 -292.5873 -235.8371
ENERGY: 900000 2.2379 6.9560 2.1488 0.0000 -10632.9910 1402.5811 0.0000 0.0000 1716.0835 -7502.9837 291.6489 -9219.0672 -7487.1399 301.6000 -329.9176 -314.6679 30513.6492 -296.9185 -233.0555
ENERGY: 1200000 2.5220 10.7240 2.7403 0.0000 -10616.0638 1371.5040 0.0000 0.0000 1827.4749 -7401.0987 310.5799 -9228.5736 -7484.4096 302.3122 -698.3882 -636.4589 31196.7373 -352.1909 -290.4455
ENERGY: 1500000 1.7233 4.5020 3.2883 0.0000 -10728.1409 1459.7961 0.0000 0.0000 1746.9369 -7511.8944 296.8925 -9258.8313 -7489.4961 302.0270 -70.7745 -11.9295 30477.6886 -276.9202 -217.0210
TCL: Running FEP window  11: Lambda1 0.4999999999999996 Lambda2 0.4499999999999996 [dLambda -0.04999999999999999]
TCL: Setting parameter firsttimestep to 0
TCL: Setting parameter alchLambda to 0.4999999999999996
Info: NONBONDED TABLE R-SQUARED SPACING: 0.0625
Info: NONBONDED TABLE SIZE: 705 POINTS
TCL: Setting parameter alchLambda2 to 0.4499999999999996
Info: NONBONDED TABLE R-SQUARED SPACING: 0.0625
Info: NONBONDED TABLE SIZE: 705 POINTS
TCL: Running for 1500000 steps
ETITLE: TS BOND ANGLE DIHED IMPRP ELECT VDW BOUNDARY MISC KINETIC TOTAL TEMP POTENTIAL TOTALAVG TEMPAVG PRESSURE GPRESSURE VOLUME PRESSAVG GPRESSAVG
ENERGY: 0 1.7233 4.5020 3.2883 0.0000 -10727.9497 1459.2990 0.0000 0.0000 1746.0364 -7513.1007 296.7394 -9259.1372 -7513.1007 296.7394 -114.9154 -20.7641 30477.6886 -114.9154 -20.7641
ENERGY: 300000 0.8503 10.0219 2.9730 0.0000 -10769.6515 1526.4008 0.0000 0.0000 1717.8356 -7511.5699 291.9467 -9229.4054 -7488.4987 296.0442 935.6733 989.5591 30119.7533 -43.3767 16.1571
ENERGY: 600000 2.3981 6.5627 2.5592 0.0000 -10600.4592 1409.8667 0.0000 0.0000 1783.4980 -7395.5746 303.1060 -9179.0726 -7476.5763 298.4595 -102.3929 -55.0316 30685.5124 41.1016 108.3572
ENERGY: 900000 0.3509 6.0318 3.4238 0.0000 -10728.0981 1466.3617 0.0000 0.0000 1763.8814 -7488.0484 299.7722 -9251.9298 -7489.7403 298.0448 91.1085 203.5046 30539.9407 6.6298 75.1720
ENERGY: 1200000 2.3532 5.2570 3.6612 0.0000 -10636.4642 1391.5165 0.0000 0.0000 1778.6531 -7455.0232 302.2827 -9233.6763 -7490.4950 298.3713 -409.9750 -338.9518 30599.1828 -44.3498 24.6307
ENERGY: 1500000 1.9640 5.4155 3.4396 0.0000 -10706.8166 1349.2051 0.0000 0.0000 1789.7767 -7557.0157 304.1731 -9346.7924 -7503.1991 298.4248 -755.9580 -597.8654 30003.0852 -191.7068 -119.9593
TCL: Running FEP window  12: Lambda1 0.4499999999999996 Lambda2 0.39999999999999963 [dLambda -0.04999999999999999]
TCL: Setting parameter firsttimestep to 0
TCL: Setting parameter alchLambda to 0.4499999999999996
Info: NONBONDED TABLE R-SQUARED SPACING: 0.0625
Info: NONBONDED TABLE SIZE: 705 POINTS
TCL: Setting parameter alchLambda2 to 0.39999999999999963
Info: NONBONDED TABLE R-SQUARED SPACING: 0.0625
Info: NONBONDED TABLE SIZE: 705 POINTS
TCL: Running for 1500000 steps
ETITLE: TS BOND ANGLE DIHED IMPRP ELECT VDW BOUNDARY MISC KINETIC TOTAL TEMP POTENTIAL TOTALAVG TEMPAVG PRESSURE GPRESSURE VOLUME PRESSAVG GPRESSAVG
ENERGY: 0 1.9640 5.4155 3.4396 0.0000 -10706.8151 1348.9802 0.0000 0.0000 1788.9580 -7558.0578 304.0340 -9347.0157 -7558.0578 304.0340 -702.8597 -609.0093 30003.0852 -702.8597 -609.0093
ENERGY: 300000 1.3783 8.4608 2.8273 0.0000 -10826.6414 1523.5687 0.0000 0.0000 1814.3936 -7476.0127 308.3568 -9290.4063 -7491.0025 303.8099 710.2587 833.7896 29773.9698 129.2892 214.0959
ENERGY: 600000 1.1477 7.2514 2.2641 0.0000 -10674.2255 1418.8614 0.0000 0.0000 1766.0356 -7478.6653 300.1383 -9244.7009 -7483.5276 302.4933 -275.0234 -246.0213 30791.5233 103.4294 172.4052
ENERGY: 900000 0.6982 9.0893 2.7569 0.0000 -10598.5857 1386.9162 0.0000 0.0000 1833.7657 -7365.3596 311.6491 -9199.1253 -7480.3507 301.9505 -267.3802 -186.4179 30367.6233 58.0014 124.8657
ENERGY: 1200000 2.0369 9.4945 4.4998 0.0000 -10724.8145 1404.3311 0.0000 0.0000 1787.2276 -7517.2245 303.7399 -9304.4522 -7488.2889 301.5266 -521.4459 -456.6863 30506.1348 -39.9304 24.6169
ENERGY: 1500000 0.5842 8.7514 4.1855 0.0000 -10688.0760 1427.3772 0.0000 0.0000 1810.6342 -7436.5434 307.7179 -9247.1776 -7482.8066 301.9736 -119.8851 -37.4079 30289.5587 -123.2357 -58.0538
TCL: Running FEP window  13: Lambda1 0.39999999999999963 Lambda2 0.34999999999999964 [dLambda -0.04999999999999999]
TCL: Setting parameter firsttimestep to 0
TCL: Setting parameter alchLambda to 0.39999999999999963
Info: NONBONDED TABLE R-SQUARED SPACING: 0.0625
Info: NONBONDED TABLE SIZE: 705 POINTS
TCL: Setting parameter alchLambda2 to 0.34999999999999964
Info: NONBONDED TABLE R-SQUARED SPACING: 0.0625
Info: NONBONDED TABLE SIZE: 705 POINTS
TCL: Running for 1500000 steps
ETITLE: TS BOND ANGLE DIHED IMPRP ELECT VDW BOUNDARY MISC KINETIC TOTAL TEMP POTENTIAL TOTALAVG TEMPAVG PRESSURE GPRESSURE VOLUME PRESSAVG GPRESSAVG
ENERGY: 0 0.5842 8.7514 4.1855 0.0000 -10688.0748 1426.3890 0.0000 0.0000 1809.7616 -7438.4030 307.5696 -9248.1646 -7438.4030 307.5696 -138.1255 -50.5201 30289.5587 -138.1255 -50.5201
ENERGY: 300000 1.2742 9.0483 3.3631 0.0000 -10537.2284 1311.7358 0.0000 0.0000 1831.1797 -7380.6273 311.2096 -9211.8070 -7468.6590 304.6634 -750.6242 -695.9208 30243.2199 -454.9367 -364.4392
ENERGY: 600000 0.9243 7.5585 3.8893 0.0000 -10612.0045 1369.4544 0.0000 0.0000 1775.5207 -7454.6572 301.7503 -9230.1779 -7466.4664 302.2541 -601.2122 -543.6582 30556.6545 -306.4964 -219.8766
ENERGY: 900000 2.3312 9.0491 3.5622 0.0000 -10720.8818 1443.1630 0.0000 0.0000 1757.2263 -7505.5499 298.6412 -9262.7763 -7462.0712 301.4399 33.0644 128.5290 30438.3160 -165.1987 -78.6759
ENERGY: 1200000 1.6504 5.0340 2.5192 0.0000 -10710.3046 1488.0704 0.0000 0.0000 1731.2096 -7481.8211 294.2196 -9213.0307 -7466.5654 300.5435 356.3342 464.4670 30355.7869 -69.4656 15.8821
ENERGY: 1500000 3.3424 5.8360 2.7139 0.0000 -10680.2178 1414.6065 0.0000 0.0000 1734.1594 -7519.5596 294.7209 -9253.7190 -7463.2339 300.1321 -284.5495 -245.0673 30389.7751 -67.5899 14.1657
TCL: Running FEP window  14: Lambda1 0.34999999999999964 Lambda2 0.29999999999999966 [dLambda -0.04999999999999999]
TCL: Setting parameter firsttimestep to 0
TCL: Setting parameter alchLambda to 0.34999999999999964
Info: NONBONDED TABLE R-SQUARED SPACING: 0.0625
Info: NONBONDED TABLE SIZE: 705 POINTS
TCL: Setting parameter alchLambda2 to 0.29999999999999966
Info: NONBONDED TABLE R-SQUARED SPACING: 0.0625
Info: NONBONDED TABLE SIZE: 705 POINTS
TCL: Running for 1500000 steps
ETITLE: TS BOND ANGLE DIHED IMPRP ELECT VDW BOUNDARY MISC KINETIC TOTAL TEMP POTENTIAL TOTALAVG TEMPAVG PRESSURE GPRESSURE VOLUME PRESSAVG GPRESSAVG
ENERGY: 0 3.3424 5.8360 2.7139 0.0000 -10680.2178 1414.4947 0.0000 0.0000 1733.2208 -7520.6099 294.5614 -9253.8307 -7520.6099 294.5614 -328.5901 -250.3934 30389.7751 -328.5901 -250.3934
ENERGY: 300000 1.2832 7.6529 2.5894 0.0000 -10674.4383 1418.0878 0.0000 0.0000 1809.3054 -7435.5196 307.4920 -9244.8250 -7493.2555 301.3378 -436.4909 -330.6164 30859.7406 -361.4395 -266.2801
ENERGY: 600000 1.2453 12.5439 1.8531 0.0000 -10540.7722 1334.0240 0.0000 0.0000 1763.6386 -7427.4674 299.7309 -9191.1060 -7491.5985 299.0187 -774.5920 -719.5394 30293.7084 -412.2492 -333.3421
ENERGY: 900000 0.9383 6.7510 3.5698 0.0000 -10742.3197 1484.9822 0.0000 0.0000 1836.3431 -7409.7354 312.0871 -9246.0785 -7475.7320 301.1447 618.9157 738.3112 29983.3557 -245.2972 -171.8093
ENERGY: 1200000 0.8146 11.4987 4.2061 0.0000 -10627.3595 1431.3186 0.0000 0.0000 1713.9153 -7465.6062 291.2805 -9179.5216 -7465.2239 300.8781 94.8746 178.1874 30088.9401 -152.6182 -77.7885
ENERGY: 1500000 0.6241 5.1601 2.5292 0.0000 -10719.8338 1432.0796 0.0000 0.0000 1786.1883 -7493.2523 303.5633 -9279.4406 -7472.5657 301.2603 -154.4453 -56.6343 30256.7594 -51.3844 18.8290
TCL: Running FEP window  15: Lambda1 0.29999999999999966 Lambda2 0.24999999999999967 [dLambda -0.04999999999999999]
TCL: Setting parameter firsttimestep to 0
TCL: Setting parameter alchLambda to 0.29999999999999966
Info: NONBONDED TABLE R-SQUARED SPACING: 0.0625
Info: NONBONDED TABLE SIZE: 705 POINTS
TCL: Setting parameter alchLambda2 to 0.24999999999999967
Info: NONBONDED TABLE R-SQUARED SPACING: 0.0625
Info: NONBONDED TABLE SIZE: 705 POINTS
TCL: Running for 1500000 steps
ETITLE: TS BOND ANGLE DIHED IMPRP ELECT VDW BOUNDARY MISC KINETIC TOTAL TEMP POTENTIAL TOTALAVG TEMPAVG PRESSURE GPRESSURE VOLUME PRESSAVG GPRESSAVG
ENERGY: 0 0.6241 5.1601 2.5292 0.0000 -10719.8336 1432.1661 0.0000 0.0000 1785.3086 -7494.0454 303.4138 -9279.3540 -7494.0454 303.4138 -148.4154 -61.1832 30256.7594 -148.4154 -61.1832
ENERGY: 300000 1.6786 8.6787 3.0559 0.0000 -10657.5660 1428.0187 0.0000 0.0000 1764.2551 -7451.8790 299.8357 -9216.1341 -7459.3794 300.1590 -156.3873 -156.0165 30647.9963 -46.3259 11.2697
ENERGY: 600000 1.5960 4.6953 2.2236 0.0000 -10667.4192 1381.5406 0.0000 0.0000 1740.8584 -7536.5053 295.8594 -9277.3637 -7464.9748 299.5258 -653.7731 -602.2726 30470.1714 -78.1673 -18.4142
ENERGY: 900000 1.1037 9.8556 2.9212 0.0000 -10735.9208 1524.2800 0.0000 0.0000 1798.1467 -7399.6136 305.5956 -9197.7603 -7452.4701 299.6122 993.7057 1087.7642 30185.8893 116.3882 169.0804
ENERGY: 1200000 2.1478 7.8367 2.7703 0.0000 -10747.5304 1472.9397 0.0000 0.0000 1847.9499 -7413.8860 314.0597 -9261.8359 -7457.9357 301.1651 23.2616 125.7696 30512.9099 -41.9784 14.5948
ENERGY: 1500000 1.6717 7.7520 3.4697 0.0000 -10638.0118 1408.3671 0.0000 0.0000 1736.8207 -7479.9306 295.1732 -9216.7513 -7461.5045 301.0180 25.1434 2.2935 30136.2591 25.5790 77.9203
TCL: Running FEP window  16: Lambda1 0.24999999999999967 Lambda2 0.19999999999999968 [dLambda -0.04999999999999999]
TCL: Setting parameter firsttimestep to 0
TCL: Setting parameter alchLambda to 0.24999999999999967
Info: NONBONDED TABLE R-SQUARED SPACING: 0.0625
Info: NONBONDED TABLE SIZE: 705 POINTS
TCL: Setting parameter alchLambda2 to 0.19999999999999968
Info: NONBONDED TABLE R-SQUARED SPACING: 0.0625
Info: NONBONDED TABLE SIZE: 705 POINTS
TCL: Running for 1500000 steps
ETITLE: TS BOND ANGLE DIHED IMPRP ELECT VDW BOUNDARY MISC KINETIC TOTAL TEMP POTENTIAL TOTALAVG TEMPAVG PRESSURE GPRESSURE VOLUME PRESSAVG GPRESSAVG
ENERGY: 0 1.6717 7.7520 3.4697 0.0000 -10638.0112 1408.5857 0.0000 0.0000 1735.9371 -7480.5951 295.0231 -9216.5322 -7480.5951 295.0231 -75.6071 -0.6753 30136.2591 -75.6071 -0.6753
ENERGY: 300000 3.6319 10.3581 2.5559 0.0000 -10596.6577 1395.5659 0.0000 0.0000 1742.6690 -7441.8769 296.1672 -9184.5459 -7491.9658 299.9256 -471.7642 -369.5937 30710.3533 153.2318 223.3904
ENERGY: 600000 2.8286 10.7966 4.1759 0.0000 -10720.6431 1444.4696 0.0000 0.0000 1790.1044 -7468.2681 304.2288 -9258.3725 -7499.8564 300.3002 -160.1884 -126.3795 30326.7984 31.9925 97.0295
ENERGY: 900000 0.6729 8.5857 2.5055 0.0000 -10781.6971 1491.2978 0.0000 0.0000 1744.5376 -7534.0976 296.4847 -9278.6352 -7508.8560 299.0905 260.7314 330.5481 30194.2609 -61.6369 9.0284
ENERGY: 1200000 0.2419 4.1212 3.4504 0.0000 -10701.6090 1465.3688 0.0000 0.0000 1826.6655 -7401.7610 310.4424 -9228.4266 -7499.2975 300.0107 342.2318 372.5972 30359.4534 -40.2604 26.4432
ENERGY: 1500000 2.0263 5.0771 4.0527 0.0000 -10653.1447 1408.2748 0.0000 0.0000 1729.4058 -7504.3080 293.9131 -9233.7138 -7493.8065 300.2943 -474.0386 -360.6417 30998.7715 -59.4063 4.5157
TCL: Running FEP window  17: Lambda1 0.19999999999999968 Lambda2 0.1499999999999997 [dLambda -0.04999999999999999]
TCL: Setting parameter firsttimestep to 0
TCL: Setting parameter alchLambda to 0.19999999999999968
Info: NONBONDED TABLE R-SQUARED SPACING: 0.0625
Info: NONBONDED TABLE SIZE: 705 POINTS
TCL: Setting parameter alchLambda2 to 0.1499999999999997
Info: NONBONDED TABLE R-SQUARED SPACING: 0.0625
Info: NONBONDED TABLE SIZE: 705 POINTS
TCL: Running for 1500000 steps
ETITLE: TS BOND ANGLE DIHED IMPRP ELECT VDW BOUNDARY MISC KINETIC TOTAL TEMP POTENTIAL TOTALAVG TEMPAVG PRESSURE GPRESSURE VOLUME PRESSAVG GPRESSAVG
ENERGY: 0 2.0263 5.0771 4.0527 0.0000 -10653.1446 1408.4786 0.0000 0.0000 1728.5616 -7504.9483 293.7696 -9233.5099 -7504.9483 293.7696 -448.9626 -361.6719 30998.7715 -448.9626 -361.6719
ENERGY: 300000 3.0596 7.5341 3.1139 0.0000 -10857.6663 1514.0090 0.0000 0.0000 1759.6203 -7570.3294 299.0480 -9329.9497 -7501.9945 299.1598 145.7776 226.3422 30454.9763 -82.1781 -21.2845
ENERGY: 600000 2.8522 9.4824 1.7300 0.0000 -10697.0684 1451.4601 0.0000 0.0000 1737.3907 -7494.1530 295.2701 -9231.5437 -7495.3963 298.7595 -60.1860 -14.2750 30596.6356 -31.4667 27.9267
ENERGY: 900000 2.7109 7.3585 2.4858 0.0000 -10664.0185 1456.3940 0.0000 0.0000 1856.3025 -7338.7668 315.4792 -9195.0693 -7472.6853 300.4200 206.8249 339.9324 30269.3211 -37.3579 31.9163
ENERGY: 1200000 1.0827 7.0880 2.9785 0.0000 -10712.5976 1428.8184 0.0000 0.0000 1715.7154 -7556.9146 291.5864 -9272.6299 -7479.8103 299.7895 -136.6272 -111.9811 30284.2714 -26.5732 39.3168
ENERGY: 1500000 1.9572 6.4795 3.3619 0.0000 -10713.3402 1464.3171 0.0000 0.0000 1814.8557 -7422.3688 308.4353 -9237.2245 -7473.2901 300.6770 350.2115 415.7382 29938.0576 8.3240 74.5953
TCL: Running FEP window  18: Lambda1 0.1499999999999997 Lambda2 0.09999999999999969 [dLambda -0.05 ]
TCL: Setting parameter firsttimestep to 0
TCL: Setting parameter alchLambda to 0.1499999999999997
Info: NONBONDED TABLE R-SQUARED SPACING: 0.0625
Info: NONBONDED TABLE SIZE: 705 POINTS
TCL: Setting parameter alchLambda2 to 0.09999999999999969
Info: NONBONDED TABLE R-SQUARED SPACING: 0.0625
Info: NONBONDED TABLE SIZE: 705 POINTS
TCL: Running for 1500000 steps
ETITLE: TS BOND ANGLE DIHED IMPRP ELECT VDW BOUNDARY MISC KINETIC TOTAL TEMP POTENTIAL TOTALAVG TEMPAVG PRESSURE GPRESSURE VOLUME PRESSAVG GPRESSAVG
ENERGY: 0 1.9572 6.4795 3.3619 0.0000 -10713.3392 1464.3198 0.0000 0.0000 1813.9775 -7423.2432 308.2861 -9237.2207 -7423.2432 308.2861 323.3508 411.1889 29938.0576 323.3508 411.1889
ENERGY: 300000 1.1963 5.7534 1.9612 0.0000 -10742.7855 1497.2976 0.0000 0.0000 1785.0421 -7451.5348 303.3685 -9236.5769 -7472.6852 302.2171 539.1538 597.2377 30448.0281 14.6897 72.5540
ENERGY: 600000 1.0328 9.4599 3.4456 0.0000 -10704.9583 1431.6536 0.0000 0.0000 1768.6841 -7490.6823 300.5884 -9259.3664 -7470.8891 302.2936 119.2013 227.8735 29792.5258 199.6619 269.4857
ENERGY: 900000 0.9116 5.9102 2.9816 0.0000 -10591.8718 1360.5558 0.0000 0.0000 1806.7490 -7414.7635 307.0576 -9221.5125 -7463.6508 301.6936 -649.1010 -504.7239 30504.8848 80.7083 149.5452
ENERGY: 1200000 0.3364 6.5957 3.0205 0.0000 -10732.2964 1410.2728 0.0000 0.0000 1777.6071 -7534.4638 302.1049 -9312.0710 -7472.0658 301.8033 -513.5965 -414.5731 30641.9280 79.5621 146.9390
ENERGY: 1500000 1.9167 9.5763 2.8375 0.0000 -10692.0328 1411.4479 0.0000 0.0000 1743.3748 -7522.8795 296.2871 -9266.2543 -7470.2820 301.7725 -368.6281 -355.1715 30300.5765 16.6324 81.0776
TCL: Running FEP window  19: Lambda1 0.09999999999999969 Lambda2 0.049999999999999684 [dLambda -0.05 ]
TCL: Setting parameter firsttimestep to 0
TCL: Setting parameter alchLambda to 0.09999999999999969
Info: NONBONDED TABLE R-SQUARED SPACING: 0.0625
Info: NONBONDED TABLE SIZE: 705 POINTS
TCL: Setting parameter alchLambda2 to 0.049999999999999684
Info: NONBONDED TABLE R-SQUARED SPACING: 0.0625
Info: NONBONDED TABLE SIZE: 705 POINTS
TCL: Running for 1500000 steps
ETITLE: TS BOND ANGLE DIHED IMPRP ELECT VDW BOUNDARY MISC KINETIC TOTAL TEMP POTENTIAL TOTALAVG TEMPAVG PRESSURE GPRESSURE VOLUME PRESSAVG GPRESSAVG
ENERGY: 0 1.9167 9.5763 2.8375 0.0000 -10692.0331 1411.9238 0.0000 0.0000 1742.5244 -7523.2544 296.1426 -9265.7788 -7523.2544 296.1426 -424.6876 -354.4723 30300.5765 -424.6876 -354.4723
ENERGY: 300000 2.1647 5.5866 2.9294 0.0000 -10651.0687 1464.7890 0.0000 0.0000 1761.5405 -7414.0585 299.3744 -9175.5990 -7468.4950 301.2597 246.5528 218.7188 30497.2651 -103.8886 -44.1163
ENERGY: 600000 2.0321 6.2269 3.2483 0.0000 -10792.7669 1461.1407 0.0000 0.0000 1756.8621 -7563.2567 298.5793 -9320.1188 -7487.2380 300.4864 -128.7734 -113.1715 30281.9070 -125.2042 -81.0593
ENERGY: 900000 0.8205 3.6000 2.0618 0.0000 -10682.2098 1410.7839 0.0000 0.0000 1751.5706 -7513.3731 297.6800 -9264.9437 -7484.1659 301.9646 -384.7452 -345.1607 30602.1381 -208.5765 -158.4160
ENERGY: 1200000 1.3278 4.9662 4.5267 0.0000 -10669.7939 1429.7216 0.0000 0.0000 1712.8014 -7516.4501 291.0911 -9229.2515 -7484.9466 301.6246 104.5889 131.5594 30229.3891 -139.5091 -91.7852
ENERGY: 1500000 1.2552 9.4406 3.7798 0.0000 -10775.5964 1524.9895 0.0000 0.0000 1760.6059 -7475.5256 299.2155 -9236.1315 -7480.0329 301.9206 682.1497 701.6614 30329.0010 -64.0208 -14.1221
TCL: Running FEP window  20: Lambda1 0.049999999999999684 Lambda2 0.0    [dLambda -0.049999999999999684]
TCL: Setting parameter firsttimestep to 0
TCL: Setting parameter alchLambda to 0.049999999999999684
Info: NONBONDED TABLE R-SQUARED SPACING: 0.0625
Info: NONBONDED TABLE SIZE: 705 POINTS
TCL: Setting parameter alchLambda2 to 0.0
Info: NONBONDED TABLE R-SQUARED SPACING: 0.0625
Info: NONBONDED TABLE SIZE: 705 POINTS
TCL: Running for 1500000 steps
ETITLE: TS BOND ANGLE DIHED IMPRP ELECT VDW BOUNDARY MISC KINETIC TOTAL TEMP POTENTIAL TOTALAVG TEMPAVG PRESSURE GPRESSURE VOLUME PRESSAVG GPRESSAVG
ENERGY: 0 1.2552 9.4406 3.7798 0.0000 -10775.5961 1525.3768 0.0000 0.0000 1759.6988 -7476.0450 299.0614 -9235.7438 -7476.0450 299.0614 622.7627 702.1571 30329.0010 622.7627 702.1571
ENERGY: 300000 0.9564 5.7962 3.6565 0.0000 -10793.1483 1557.6465 0.0000 0.0000 1801.1633 -7423.9295 306.1083 -9225.0927 -7464.1179 299.9934 899.0732 960.3125 30417.6582 501.6720 563.7897
ENERGY: 600000 1.2586 7.0686 2.2331 0.0000 -10847.0881 1567.8905 0.0000 0.0000 1787.4230 -7481.2143 303.7731 -9268.6373 -7473.0394 300.4265 785.3270 891.4397 30292.8129 505.3081 568.7562
ENERGY: 900000 0.2255 7.1714 2.7433 0.0000 -10666.7473 1413.2652 0.0000 0.0000 1751.9220 -7491.4198 297.7397 -9243.3418 -7482.5306 299.5572 -218.3164 -154.8792 30471.7000 344.0267 402.2103
ENERGY: 1200000 0.9838 7.0619 3.4385 0.0000 -10701.5122 1457.1308 0.0000 0.0000 1702.8611 -7530.0362 289.4018 -9232.8973 -7485.4700 298.7906 325.6411 340.0268 29921.6280 285.6175 339.1049
ENERGY: 1500000 2.2565 7.9246 3.5430 0.0000 -10722.8024 1444.3594 0.0000 0.0000 1731.1028 -7533.6161 294.2015 -9264.7189 -7485.6007 299.1821 -189.6557 -145.2778 30590.8247 221.3240 270.4663
TCL: Exiting due to exit command.
