Info: SIMULATION PARAMETERS:
Info: TIMESTEP               2
Info: NUMBER OF STEPS        0
Info: STEPS PER CYCLE        10
Info: PERIODIC CELL BASIS 1  30.8605 0 0
Info: PERIODIC CELL BASIS 2  0 31.1083 0
Info: PERIODIC CELL BASIS 3  0 0 31.5106
Info: PERIODIC CELL CENTER   0 0 0
Info: WRAPPING WATERS AROUND PERIODIC BOUNDARIES ON OUTPUT.
Info: WRAPPING ALL CLUSTERS AROUND PERIODIC BOUNDARIES ON OUTPUT.
Info: FIRST LDB TIMESTEP     50
Info: LAST LDB TIMESTEP     -1
Info: HOM BACKGROUND SCALING 1
Info: PME BACKGROUND SCALING 1
Info: MIN ATOMS PER PATCH    40
Info: EMPTY PATCH LOAD       40 ATOMS
Info: VELOCITY FILE          mobley_4177472_equil.vel
Info: CENTER OF MASS MOVING INITIALLY? NO
Info: DIELECTRIC             1
Info: EXCLUDE                SCALED ONE-FOUR
Info: 1-4 ELECTROSTATICS SCALED BY 0.833333
Info: MODIFIED 1-4 VDW PARAMETERS WILL BE USED
Info: DCD FILENAME           mobley_4177472_prod.dcd
Info: DCD FREQUENCY          100000
Info: DCD FIRST STEP         100000
Info: DCD FILE WILL CONTAIN UNIT CELL DATA
Info: XST FILENAME           mobley_4177472_prod.xst
Info: XST FREQUENCY          100000
Info: NO VELOCITY DCD OUTPUT
Info: NO FORCE DCD OUTPUT
Info: OUTPUT FILENAME        mobley_4177472_prod
Info: BINARY OUTPUT FILES WILL BE USED
Info: RESTART FILENAME       mobley_4177472_prod.restart
Info: RESTART FREQUENCY      100000
Info: BINARY RESTART FILES WILL BE USED
Info: CUTOFF                 9
Info: PAIRLIST DISTANCE      11
Info: PAIRLIST SHRINK RATE   0.01
Info: PAIRLIST GROW RATE     0.01
Info: PAIRLIST TRIGGER       0.3
Info: PAIRLISTS PER CYCLE    2
Info: PAIRLISTS ENABLED
Info: MARGIN                 2
Info: HYDROGEN GROUP CUTOFF  2.5
Info: PATCH DIMENSION        15.5
Info: ENERGY OUTPUT STEPS    100000
Info: ENERGY EVALUATION STEPS    100000
Info: OUTPUT ENERGY PRECISION 4
Info: CROSSTERM ENERGY INCLUDED IN DIHEDRAL
Info: TIMING OUTPUT STEPS    1000000
Info: PRESSURE OUTPUT STEPS  100000
Info: ALCHEMICAL FEP ON
Info: FEP CURRENT LAMBDA VALUE     1
Info: FEP COMPARISON LAMBDA VALUE  0.95
Info: FEP INTRA-ALCHEMICAL NON-BONDED INTERACTIONS WILL BE RETAINED
Info: FEP INTRA-ALCHEMICAL BONDED INTERACTIONS WILL BE RETAINED
Info: FEP VDW SHIFTING COEFFICIENT 5
Info: FEP ELEC. ACTIVE FOR ANNIHILATED PARTICLES BETWEEN LAMBDA = 0 AND LAMBDA = 0.5
Info: FEP ELEC. ACTIVE FOR EXNIHILATED PARTICLES BETWEEN LAMBDA = 0.5 AND LAMBDA = 1
Info: FEP VDW ACTIVE FOR ANNIHILATED PARTICLES BETWEEN LAMBDA = 0 AND LAMBDA = 1
Info: FEP VDW ACTIVE FOR EXNIHILATED PARTICLES BETWEEN LAMBDA = 0 AND LAMBDA = 1
Info: FEP BOND ACTIVE FOR ANNIHILATED PARTICLES BETWEEN LAMBDA = 1 AND LAMBDA = 1
Info: FEP BOND ACTIVE FOR EXNIHILATED PARTICLES BETWEEN LAMBDA = 0 AND LAMBDA = 0
Info: LANGEVIN DYNAMICS ACTIVE
Info: LANGEVIN TEMPERATURE   300
Info: LANGEVIN USING BBK INTEGRATOR
Info: LANGEVIN DAMPING COEFFICIENT IS 1 INVERSE PS
Info: LANGEVIN DYNAMICS APPLIED TO HYDROGENS
Info: LANGEVIN PISTON PRESSURE CONTROL ACTIVE
Info:        TARGET PRESSURE IS 1.01325 BAR
Info:     OSCILLATION PERIOD IS 50 FS
Info:             DECAY TIME IS 25 FS
Info:     PISTON TEMPERATURE IS 300 K
Info:       PRESSURE CONTROL IS GROUP-BASED
Info:    INITIAL STRAIN RATE IS 8.69929e-05 8.69929e-05 8.69929e-05
Info:       CELL FLUCTUATION IS ISOTROPIC
Info: PARTICLE MESH EWALD (PME) ACTIVE
Info: PME TOLERANCE               1e-06
Info: PME EWALD COEFFICIENT       0.348832
Info: PME INTERPOLATION ORDER     4
Info: PME GRID DIMENSIONS         32 32 32
Info: PME MAXIMUM GRID SPACING    1
Info: PME CALCULATION WILL BE PERFORMED ON GPU
Info: FULL ELECTROSTATIC EVALUATION FREQUENCY      2
Info: USING VERLET I (r-RESPA) MTS SCHEME.
Info: C1 SPLITTING OF LONG RANGE ELECTROSTATICS
Info: PLACING ATOMS IN PATCHES BY HYDROGEN GROUPS
Info: RIGID BONDS TO HYDROGEN : ALL
Info:         ERROR TOLERANCE : 1e-08
Info:          MAX ITERATIONS : 100
Info: RIGID WATER USING SETTLE ALGORITHM
Info: RANDOM NUMBER SEED     1743888212
Info: USE HYDROGEN BONDS?    NO
Info: Using AMBER format force field!
Info: AMBER PARM FILE        mobley_4177472.prmtop
Info: COORDINATE PDB         mobley_4177472.pdb
Info: Exclusions will be read from PARM file!
Info: SCNB (VDW SCALING)     2
Info: USING ARITHMETIC MEAN TO COMBINE L-J SIGMA PARAMETERS
Info: BINARY COORDINATES     mobley_4177472_equil.coor
Info: SUMMARY OF PARAMETERS:
Info: 4 BONDS
Info: 3 ANGLES
Info:   3 HARMONIC
Info:   0 COSINE-BASED
Info: 5 DIHEDRAL
Info: 0 IMPROPER
Info: 0 CROSSTERM
Info: 0 VDW
Info: 10 VDW_PAIRS
Info: 0 NBTHOLE_PAIRS
Info: To read alchdata from file: mobley_4177472.pdb
Info: To read alchflag data from column: 5
Info: STRUCTURE SUMMARY:
Info: 2909 ATOMS
Info: 2908 BONDS
Info: 48 ANGLES
Info: 79 DIHEDRALS
Info: 0 IMPROPERS
Info: 0 CROSSTERMS
Info: 3019 EXCLUSIONS
Info: 2901 RIGID BONDS
Info: ALCH: 0 ATOMS TO DISAPPEAR IN FINAL STATE
Info: ALCH: 26 ATOMS TO APPEAR IN FINAL STATE
Info: 5826 DEGREES OF FREEDOM
Info: 969 HYDROGEN GROUPS
Info: 4 ATOMS IN LARGEST HYDROGEN GROUP
Info: 969 MIGRATION GROUPS
Info: 4 ATOMS IN LARGEST MIGRATION GROUP
Info: TOTAL MASS = 17427.6 amu
Info: TOTAL CHARGE = -0.000300046 e
Info: MASS DENSITY = 0.956669 g/cm^3
Info: ATOM DENSITY = 0.0961632 atoms/A^3
Info: ADDED 0 IMPLICIT EXCLUSIONS
Info: NONBONDED TABLE R-SQUARED SPACING: 0.0625
Info: NONBONDED TABLE SIZE: 705 POINTS
Info: REMOVING COM VELOCITY 0.0802084 0.0646618 0.00517616
Info: Use 3D box decompostion in PME FFT.
Info: Updated CUDA force table with 4096 elements.
Info: Updated CUDA LJ table with 4 x 4 elements.
Info: Found 29 unique exclusion lists needing 100 bytes
TCL: Running for 1500000 steps
ETITLE: TS BOND ANGLE DIHED IMPRP ELECT VDW BOUNDARY MISC KINETIC TOTAL TEMP POTENTIAL TOTALAVG TEMPAVG PRESSURE GPRESSURE VOLUME PRESSAVG GPRESSAVG
ENERGY: 0 4.1903 11.6944 5.2863 0.0000 -10470.8634 1366.6304 0.0000 0.0000 1766.8356 -7316.2265 305.2221 -9083.0620 -7316.2265 305.2221 -535.8054 -450.2725 30250.6675 -535.8054 -450.2725
ENERGY: 300000 5.7318 13.4801 6.0412 0.0000 -10281.3633 1317.7274 0.0000 0.0000 1712.4687 -7225.9141 295.8302 -8938.3828 -7252.7000 307.2372 -644.7961 -559.0014 30287.3927 -105.8520 -40.6456
ENERGY: 600000 3.5776 12.6556 5.1923 0.0000 -10638.2935 1508.2614 0.0000 0.0000 1792.3833 -7316.2233 309.6355 -9108.6066 -7276.1155 306.5856 553.6797 655.9179 29956.8751 134.1917 202.7529
ENERGY: 900000 4.2353 12.7051 6.7868 0.0000 -10503.9384 1424.5929 0.0000 0.0000 1769.1546 -7286.4637 305.6228 -9055.6183 -7286.9568 304.6392 46.0903 134.8133 29990.0764 155.9481 220.1572
ENERGY: 1200000 1.1956 15.5408 6.5183 0.0000 -10494.1801 1408.5034 0.0000 0.0000 1745.0852 -7317.3369 301.4647 -9062.4221 -7290.0518 304.7636 -79.1912 -61.0646 30151.1915 155.9177 214.7589
ENERGY: 1500000 3.3500 20.5795 7.4389 0.0000 -10431.6981 1369.7939 0.0000 0.0000 1745.2063 -7285.3295 301.4857 -9030.5358 -7288.5956 304.2636 -191.2112 -136.2761 29764.0372 129.0475 182.2631
TCL: Running FEP window   2: Lambda1 0.95   Lambda2 0.8999999999999999 [dLambda -0.050000000000000044]
TCL: Setting parameter firsttimestep to 0
TCL: Setting parameter alchLambda to 0.95
Info: NONBONDED TABLE R-SQUARED SPACING: 0.0625
Info: NONBONDED TABLE SIZE: 705 POINTS
TCL: Setting parameter alchLambda2 to 0.8999999999999999
Info: NONBONDED TABLE R-SQUARED SPACING: 0.0625
Info: NONBONDED TABLE SIZE: 705 POINTS
TCL: Running for 1500000 steps
ETITLE: TS BOND ANGLE DIHED IMPRP ELECT VDW BOUNDARY MISC KINETIC TOTAL TEMP POTENTIAL TOTALAVG TEMPAVG PRESSURE GPRESSURE VOLUME PRESSAVG GPRESSAVG
ENERGY: 0 3.3500 20.5795 7.4389 0.0000 -10431.6708 1370.4054 0.0000 0.0000 1744.3671 -7285.5298 301.3407 -9029.8969 -7285.5298 301.3407 -218.2301 -143.6215 29764.0372 -218.2301 -143.6215
ENERGY: 300000 0.8850 14.1410 5.9670 0.0000 -10586.6205 1510.0007 0.0000 0.0000 1783.3172 -7272.3096 308.0694 -9055.6268 -7260.2172 305.7368 1237.6735 1242.4737 29554.0041 9.8718 80.7958
ENERGY: 600000 1.5623 10.6056 6.0791 0.0000 -10551.1807 1498.0609 0.0000 0.0000 1735.8031 -7299.0699 299.8613 -9034.8729 -7282.8393 303.3698 623.8237 778.3837 30027.6981 -122.1007 -48.0459
ENERGY: 900000 2.9495 12.1711 5.9097 0.0000 -10629.2482 1485.1529 0.0000 0.0000 1761.9425 -7361.1226 304.3769 -9123.0651 -7285.4949 303.9286 802.5565 785.7291 29491.3364 -45.7903 13.6365
ENERGY: 1200000 3.6186 14.1381 4.7405 0.0000 -10452.2669 1381.2993 0.0000 0.0000 1736.6532 -7311.8172 300.0081 -9048.4704 -7298.5509 302.1648 -252.3302 -158.4916 30201.2311 -12.7094 51.7981
ENERGY: 1500000 3.6518 10.5093 5.2024 0.0000 -10566.5307 1474.0885 0.0000 0.0000 1802.3489 -7270.7299 311.3571 -9073.0788 -7306.9666 301.4324 563.2841 563.6103 29923.7220 10.9618 64.3762
TCL: Running FEP window   3: Lambda1 0.8999999999999999 Lambda2 0.8499999999999999 [dLambda -0.050000000000000044]
TCL: Setting parameter firsttimestep to 0
TCL: Setting parameter alchLambda to 0.8999999999999999
Info: NONBONDED TABLE R-SQUARED SPACING: 0.0625
Info: NONBONDED TABLE SIZE: 705 POINTS
TCL: Setting parameter alchLambda2 to 0.8499999999999999
Info: NONBONDED TABLE R-SQUARED SPACING: 0.0625
Info: NONBONDED TABLE SIZE: 705 POINTS
TCL: Running for 1500000 steps
ETITLE: TS BOND ANGLE DIHED IMPRP ELECT VDW BOUNDARY MISC KINETIC TOTAL TEMP POTENTIAL TOTALAVG TEMPAVG PRESSURE GPRESSURE VOLUME PRESSAVG GPRESSAVG
ENERGY: 0 3.6518 10.5093 5.2024 0.0000 -10566.5202 1474.1048 0.0000 0.0000 1801.4986 -7271.5535 311.2102 -9073.0521 -7271.5535 311.2102 463.7040 549.8017 29923.7220 463.7040 549.8017
ENERGY: 300000 4.1892 18.6814 7.4948 0.0000 -10519.8472 1389.3419 0.0000 0.0000 1744.8161 -7355.3238 301.4183 -9100.1399 -7271.6732 306.1786 -280.9139 -241.9138 29868.5582 143.4057 209.5401
ENERGY: 600000 2.9551 12.6162 5.1992 0.0000 -10387.8193 1392.6406 0.0000 0.0000 1717.3332 -7257.0750 296.6706 -8974.4082 -7279.0591 302.3385 89.1896 78.4180 30094.0371 111.9522 165.2180
ENERGY: 900000 1.7364 16.9273 6.2809 0.0000 -10558.3791 1509.6548 0.0000 0.0000 1781.2383 -7242.5414 307.7102 -9023.7797 -7292.1251 301.3919 876.3376 969.4490 29757.5772 122.4562 177.9831
ENERGY: 1200000 1.0730 11.3466 6.1413 0.0000 -10612.1579 1457.5601 0.0000 0.0000 1670.5757 -7465.4613 288.5932 -9136.0370 -7317.6790 300.0626 211.5877 223.7342 29934.6587 123.9396 186.8528
ENERGY: 1500000 3.0065 13.8265 5.3905 0.0000 -10399.8838 1334.6197 0.0000 0.0000 1729.8571 -7313.1836 298.8341 -9043.0407 -7315.2981 300.1618 -562.2549 -454.1476 30099.6871 75.1050 135.4673
TCL: Running FEP window   4: Lambda1 0.8499999999999999 Lambda2 0.7999999999999998 [dLambda -0.050000000000000044]
TCL: Setting parameter firsttimestep to 0
TCL: Setting parameter alchLambda to 0.8499999999999999
Info: NONBONDED TABLE R-SQUARED SPACING: 0.0625
Info: NONBONDED TABLE SIZE: 705 POINTS
TCL: Setting parameter alchLambda2 to 0.7999999999999998
Info: NONBONDED TABLE R-SQUARED SPACING: 0.0625
Info: NONBONDED TABLE SIZE: 705 POINTS
TCL: Running for 1500000 steps
ETITLE: TS BOND ANGLE DIHED IMPRP ELECT VDW BOUNDARY MISC KINETIC TOTAL TEMP POTENTIAL TOTALAVG TEMPAVG PRESSURE GPRESSURE VOLUME PRESSAVG GPRESSAVG
ENERGY: 0 3.0065 13.8265 5.3905 0.0000 -10399.8579 1335.0324 0.0000 0.0000 1729.0218 -7313.5802 298.6898 -9042.6021 -7313.5802 298.6898 -547.9678 -465.2865 30099.6871 -547.9678 -465.2865
ENERGY: 300000 1.4546 14.4411 5.5192 0.0000 -10334.8914 1325.9548 0.0000 0.0000 1750.5666 -7236.9550 302.4117 -8987.5216 -7334.7415 299.0067 -622.3666 -613.8278 30434.4089 -551.8971 -509.7501
ENERGY: 600000 2.7727 14.7015 6.9743 0.0000 -10449.8350 1404.1539 0.0000 0.0000 1766.4631 -7254.7696 305.1578 -9021.2327 -7319.7409 299.9189 -202.5470 -99.9218 30354.3425 -427.1354 -373.3566
ENERGY: 900000 4.3257 14.0911 5.4552 0.0000 -10518.9482 1438.2275 0.0000 0.0000 1730.5479 -7326.3007 298.9534 -9056.8486 -7332.0647 299.3110 643.3074 633.2119 29707.5958 -369.3700 -322.2516
ENERGY: 1200000 3.6258 17.5885 5.6525 0.0000 -10394.6885 1346.8368 0.0000 0.0000 1715.6478 -7305.3372 296.3794 -9020.9850 -7336.5140 297.9561 -616.2246 -567.5084 30388.1737 -367.1803 -315.2361
ENERGY: 1500000 2.7420 13.2578 5.5563 0.0000 -10428.0772 1386.1504 0.0000 0.0000 1678.3245 -7342.0462 289.9318 -9020.3707 -7334.2093 297.3390 -41.3503 -25.7461 30096.5465 -322.7751 -268.0751
TCL: Running FEP window   5: Lambda1 0.7999999999999998 Lambda2 0.7499999999999998 [dLambda -0.050000000000000044]
TCL: Setting parameter firsttimestep to 0
TCL: Setting parameter alchLambda to 0.7999999999999998
Info: NONBONDED TABLE R-SQUARED SPACING: 0.0625
Info: NONBONDED TABLE SIZE: 705 POINTS
TCL: Setting parameter alchLambda2 to 0.7499999999999998
Info: NONBONDED TABLE R-SQUARED SPACING: 0.0625
Info: NONBONDED TABLE SIZE: 705 POINTS
TCL: Running for 1500000 steps
ETITLE: TS BOND ANGLE DIHED IMPRP ELECT VDW BOUNDARY MISC KINETIC TOTAL TEMP POTENTIAL TOTALAVG TEMPAVG PRESSURE GPRESSURE VOLUME PRESSAVG GPRESSAVG
ENERGY: 0 2.7420 13.2578 5.5563 0.0000 -10428.1158 1386.7581 0.0000 0.0000 1677.4524 -7342.3492 289.7811 -9019.8017 -7342.3492 289.7811 -110.7248 -33.9997 30096.5465 -110.7248 -33.9997
ENERGY: 300000 4.8485 14.0239 5.1160 0.0000 -10495.8031 1377.8602 0.0000 0.0000 1671.6823 -7422.2722 288.7843 -9093.9545 -7394.1435 294.2444 -240.6830 -222.7525 29754.2350 -143.4587 -52.9400
ENERGY: 600000 2.5295 15.5133 8.2858 0.0000 -10525.0645 1456.7999 0.0000 0.0000 1737.9344 -7304.0016 300.2294 -9041.9360 -7359.2346 296.0110 234.5778 282.8660 30387.8137 -114.5803 -36.9607
ENERGY: 900000 2.4340 15.8804 5.6939 0.0000 -10453.2653 1396.1811 0.0000 0.0000 1669.0381 -7364.0378 288.3276 -9033.0759 -7351.6821 296.4164 -310.0303 -176.6207 30124.9230 -7.4044 66.3808
ENERGY: 1200000 6.1502 16.5822 5.7771 0.0000 -10594.8686 1432.1079 0.0000 0.0000 1785.0972 -7349.1540 308.3768 -9134.2512 -7347.8733 297.8307 -167.5995 -102.4028 29699.2031 -75.5918 -7.5645
ENERGY: 1500000 2.6925 15.6612 9.3076 0.0000 -10491.5119 1428.5996 0.0000 0.0000 1716.0968 -7319.1542 296.4570 -9035.2510 -7341.2463 297.9228 193.8381 254.8786 29894.3609 -37.8364 31.8445
TCL: Running FEP window   6: Lambda1 0.7499999999999998 Lambda2 0.6999999999999997 [dLambda -0.050000000000000044]
TCL: Setting parameter firsttimestep to 0
TCL: Setting parameter alchLambda to 0.7499999999999998
Info: NONBONDED TABLE R-SQUARED SPACING: 0.0625
Info: NONBONDED TABLE SIZE: 705 POINTS
TCL: Setting parameter alchLambda2 to 0.6999999999999997
Info: NONBONDED TABLE R-SQUARED SPACING: 0.0625
Info: NONBONDED TABLE SIZE: 705 POINTS
TCL: Running for 1500000 steps
ETITLE: TS BOND ANGLE DIHED IMPRP ELECT VDW BOUNDARY MISC KINETIC TOTAL TEMP POTENTIAL TOTALAVG TEMPAVG PRESSURE GPRESSURE VOLUME PRESSAVG GPRESSAVG
ENERGY: 0 2.6925 15.6612 9.3076 0.0000 -10491.5319 1428.2375 0.0000 0.0000 1715.2281 -7320.4050 296.3069 -9035.6331 -7320.4050 296.3069 154.5505 235.8301 29894.3609 154.5505 235.8301
ENERGY: 300000 3.7668 13.5436 6.6127 0.0000 -10539.5108 1425.4624 0.0000 0.0000 1799.6703 -7290.4550 310.8944 -9090.1253 -7351.7857 301.9128 -17.4026 73.2563 29952.4253 -134.4318 -44.3067
ENERGY: 600000 3.5311 13.6186 6.0724 0.0000 -10475.4448 1392.3051 0.0000 0.0000 1699.2089 -7360.7087 293.5396 -9059.9176 -7350.6697 299.9181 -207.7849 -197.7105 30068.6355 -221.9871 -147.0972
ENERGY: 900000 3.2923 14.4131 7.1228 0.0000 -10368.5694 1361.7298 0.0000 0.0000 1749.8978 -7232.1136 302.2961 -8982.0114 -7332.2431 300.2593 -495.9847 -420.6952 30575.4242 -231.0501 -157.5316
ENERGY: 1200000 3.7089 12.1700 4.9786 0.0000 -10469.0549 1359.4557 0.0000 0.0000 1726.6772 -7362.0645 298.2847 -9088.7416 -7327.1597 300.4088 -806.1291 -738.9655 30428.4543 -258.6360 -187.8980
ENERGY: 1500000 3.3586 13.3398 6.3751 0.0000 -10455.0713 1314.1864 0.0000 0.0000 1777.2877 -7340.5237 307.0277 -9117.8114 -7327.2762 301.1106 -880.9174 -851.9775 29934.1960 -277.3093 -205.4862
TCL: Running FEP window   7: Lambda1 0.6999999999999997 Lambda2 0.6499999999999997 [dLambda -0.050000000000000044]
TCL: Setting parameter firsttimestep to 0
TCL: Setting parameter alchLambda to 0.6999999999999997
Info: NONBONDED TABLE R-SQUARED SPACING: 0.0625
Info: NONBONDED TABLE SIZE: 705 POINTS
TCL: Setting parameter alchLambda2 to 0.6499999999999997
Info: NONBONDED TABLE R-SQUARED SPACING: 0.0625
Info: NONBONDED TABLE SIZE: 705 POINTS
TCL: Running for 1500000 steps
ETITLE: TS BOND ANGLE DIHED IMPRP ELECT VDW BOUNDARY MISC KINETIC TOTAL TEMP POTENTIAL TOTALAVG TEMPAVG PRESSURE GPRESSURE VOLUME PRESSAVG GPRESSAVG
ENERGY: 0 3.3586 13.3398 6.3751 0.0000 -10455.0509 1314.8339 0.0000 0.0000 1776.3951 -7340.7484 306.8736 -9117.1435 -7340.7484 306.8736 -941.7333 -851.2912 29934.1960 -941.7333 -851.2912
ENERGY: 300000 3.9790 13.2948 8.9313 0.0000 -10410.6869 1343.4280 0.0000 0.0000 1695.7259 -7345.3279 292.9379 -9041.0538 -7332.8715 300.0272 -691.6474 -648.9673 30231.2230 -491.6911 -426.9452
ENERGY: 600000 3.2728 14.4213 4.3430 0.0000 -10406.8089 1396.6452 0.0000 0.0000 1718.1525 -7269.9741 296.8121 -8988.1266 -7313.1446 299.6837 108.0957 166.4296 29987.5915 -280.3221 -201.0862
ENERGY: 900000 2.2240 18.1884 5.5755 0.0000 -10471.8867 1406.0148 0.0000 0.0000 1761.1711 -7278.7129 304.2436 -9039.8840 -7310.7600 300.4092 125.3857 204.0794 29814.8458 -211.5727 -138.6157
ENERGY: 1200000 5.3196 16.4689 6.5652 0.0000 -10530.5511 1446.1398 0.0000 0.0000 1761.6321 -7294.4255 304.3232 -9056.0576 -7322.9992 299.7337 42.4230 158.7891 29911.8111 -147.7144 -72.2155
ENERGY: 1500000 2.0125 12.6142 4.7869 0.0000 -10581.1924 1504.3885 0.0000 0.0000 1729.4584 -7327.9319 298.7652 -9057.3903 -7321.1301 300.1258 847.6378 901.2433 29617.7365 -63.1421 -2.8455
TCL: Running FEP window   8: Lambda1 0.6499999999999997 Lambda2 0.5999999999999996 [dLambda -0.050000000000000044]
TCL: Setting parameter firsttimestep to 0
TCL: Setting parameter alchLambda to 0.6499999999999997
Info: NONBONDED TABLE R-SQUARED SPACING: 0.0625
Info: NONBONDED TABLE SIZE: 705 POINTS
TCL: Setting parameter alchLambda2 to 0.5999999999999996
Info: NONBONDED TABLE R-SQUARED SPACING: 0.0625
Info: NONBONDED TABLE SIZE: 705 POINTS
TCL: Running for 1500000 steps
ETITLE: TS BOND ANGLE DIHED IMPRP ELECT VDW BOUNDARY MISC KINETIC TOTAL TEMP POTENTIAL TOTALAVG TEMPAVG PRESSURE GPRESSURE VOLUME PRESSAVG GPRESSAVG
ENERGY: 0 2.0125 12.6142 4.7869 0.0000 -10581.1877 1504.8106 0.0000 0.0000 1728.5837 -7328.3798 298.6141 -9056.9635 -7328.3798 298.6141 811.4140 894.3167 29617.7365 811.4140 894.3167
ENERGY: 300000 2.0539 15.0270 4.7938 0.0000 -10461.4852 1378.2409 0.0000 0.0000 1725.4576 -7335.9121 298.0741 -9061.3697 -7307.8995 301.0718 -186.9722 -148.4560 29672.9863 204.3952 249.2754
ENERGY: 600000 2.3942 16.4303 7.1331 0.0000 -10521.3641 1515.3656 0.0000 0.0000 1735.3990 -7244.6421 299.7914 -8980.0410 -7318.0784 298.9143 1007.2694 1074.5478 30040.4911 231.7195 281.9997
ENERGY: 900000 1.8196 11.2772 7.1684 0.0000 -10475.1839 1445.7796 0.0000 0.0000 1763.6146 -7245.5245 304.6657 -9009.1391 -7297.1489 300.5573 342.1273 371.3873 29985.9543 178.6514 225.2604
ENERGY: 1200000 1.9629 8.7578 4.8008 0.0000 -10607.4741 1477.6653 0.0000 0.0000 1737.1136 -7377.1737 300.0877 -9114.2874 -7314.1974 300.1265 537.0985 587.9182 29587.3440 229.0293 286.6084
ENERGY: 1500000 2.9592 14.5312 5.9594 0.0000 -10496.5757 1399.8591 0.0000 0.0000 1738.5938 -7334.6731 300.3434 -9073.2669 -7321.8770 299.8591 -334.5934 -283.5959 30146.0834 154.8791 211.9064
TCL: Running FEP window   9: Lambda1 0.5999999999999996 Lambda2 0.5499999999999996 [dLambda -0.050000000000000044]
TCL: Setting parameter firsttimestep to 0
TCL: Setting parameter alchLambda to 0.5999999999999996
Info: NONBONDED TABLE R-SQUARED SPACING: 0.0625
Info: NONBONDED TABLE SIZE: 705 POINTS
TCL: Setting parameter alchLambda2 to 0.5499999999999996
Info: NONBONDED TABLE R-SQUARED SPACING: 0.0625
Info: NONBONDED TABLE SIZE: 705 POINTS
TCL: Running for 1500000 steps
ETITLE: TS BOND ANGLE DIHED IMPRP ELECT VDW BOUNDARY MISC KINETIC TOTAL TEMP POTENTIAL TOTALAVG TEMPAVG PRESSURE GPRESSURE VOLUME PRESSAVG GPRESSAVG
ENERGY: 0 2.9592 14.5312 5.9594 0.0000 -10496.5470 1400.3118 0.0000 0.0000 1737.7559 -7335.0295 300.1986 -9072.7854 -7335.0295 300.1986 -381.1737 -291.7593 30146.0834 -381.1737 -291.7593
ENERGY: 300000 2.9282 13.9789 5.6284 0.0000 -10539.2839 1441.8413 0.0000 0.0000 1778.0661 -7296.8410 307.1622 -9074.9071 -7322.8380 301.6228 316.6102 331.1885 29647.3975 50.5886 100.8530
ENERGY: 600000 2.7314 17.1774 8.1255 0.0000 -10423.3124 1412.8927 0.0000 0.0000 1804.0934 -7178.2919 311.6585 -8982.3854 -7317.7263 302.7256 341.5519 360.2282 29712.1391 -149.5060 -105.9369
ENERGY: 900000 3.7605 8.5124 6.4121 0.0000 -10571.5812 1437.1212 0.0000 0.0000 1741.5156 -7374.2594 300.8481 -9115.7750 -7324.4518 301.9063 -287.4655 -246.3934 30608.4747 -105.6365 -59.4203
ENERGY: 1200000 3.5732 8.0470 4.7336 0.0000 -10552.3551 1503.3267 0.0000 0.0000 1786.4342 -7246.2403 308.6078 -9032.6745 -7325.6050 302.0385 1028.2165 1106.7389 29570.9849 -36.3359 5.2231
ENERGY: 1500000 3.3139 12.4255 5.2527 0.0000 -10477.5956 1382.1509 0.0000 0.0000 1688.3046 -7386.1479 291.6559 -9074.4525 -7331.5879 301.0249 -98.5717 -37.0283 29475.5828 -37.7915 7.0369
TCL: Running FEP window  10: Lambda1 0.5499999999999996 Lambda2 0.4999999999999996 [dLambda -0.04999999999999999]
TCL: Setting parameter firsttimestep to 0
TCL: Setting parameter alchLambda to 0.5499999999999996
Info: NONBONDED TABLE R-SQUARED SPACING: 0.0625
Info: NONBONDED TABLE SIZE: 705 POINTS
TCL: Setting parameter alchLambda2 to 0.4999999999999996
Info: NONBONDED TABLE R-SQUARED SPACING: 0.0625
Info: NONBONDED TABLE SIZE: 705 POINTS
TCL: Running for 1500000 steps
ETITLE: TS BOND ANGLE DIHED IMPRP ELECT VDW BOUNDARY MISC KINETIC TOTAL TEMP POTENTIAL TOTALAVG TEMPAVG PRESSURE GPRESSURE VOLUME PRESSAVG GPRESSAVG
ENERGY: 0 3.3139 12.4255 5.2527 0.0000 -10477.5896 1382.4812 0.0000 0.0000 1687.4444 -7386.6719 291.5073 -9074.1163 -7386.6719 291.5073 -132.8979 -43.9701 29475.5828 -132.8979 -43.9701
ENERGY: 300000 3.9261 14.5120 5.5922 0.0000 -10537.9491 1399.4822 0.0000 0.0000 1621.2595 -7493.1770 280.0738 -9114.4365 -7387.3613 295.4278 -584.9995 -598.4062 30150.5204 -24.8382 18.7984
ENERGY: 600000 0.8837 21.9219 8.7103 0.0000 -10561.8645 1418.2573 0.0000 0.0000 1690.3983 -7421.6931 292.0175 -9112.0913 -7362.8824 297.9408 -195.4837 -73.4924 29764.3513 42.0974 104.0857
ENERGY: 900000 4.3913 12.7194 5.5502 0.0000 -10556.2163 1408.9514 0.0000 0.0000 1748.9638 -7375.6402 302.1348 -9124.6040 -7362.7121 298.6548 -519.5747 -427.5783 30086.1484 5.2424 64.8588
ENERGY: 1200000 2.9299 11.3670 10.7038 0.0000 -10616.6280 1472.5596 0.0000 0.0000 1763.4876 -7355.5800 304.6438 -9119.0676 -7363.3860 299.7773 427.1259 453.0118 29555.3520 -20.6222 41.3435
ENERGY: 1500000 1.4884 12.8930 5.6891 0.0000 -10427.9248 1351.6772 0.0000 0.0000 1679.9251 -7376.2520 290.2083 -9056.1771 -7360.8019 298.9910 -612.5533 -582.9258 30153.8490 -43.0806 16.4087
TCL: Running FEP window  11: Lambda1 0.4999999999999996 Lambda2 0.4499999999999996 [dLambda -0.04999999999999999]
TCL: Setting parameter firsttimestep to 0
TCL: Setting parameter alchLambda to 0.4999999999999996
Info: NONBONDED TABLE R-SQUARED SPACING: 0.0625
Info: NONBONDED TABLE SIZE: 705 POINTS
TCL: Setting parameter alchLambda2 to 0.4499999999999996
Info: NONBONDED TABLE R-SQUARED SPACING: 0.0625
Info: NONBONDED TABLE SIZE: 705 POINTS
TCL: Running for 1500000 steps
ETITLE: TS BOND ANGLE DIHED IMPRP ELECT VDW BOUNDARY MISC KINETIC TOTAL TEMP POTENTIAL TOTALAVG TEMPAVG PRESSURE GPRESSURE VOLUME PRESSAVG GPRESSAVG
ENERGY: 0 1.4884 12.8930 5.6891 0.0000 -10427.9608 1351.9134 0.0000 0.0000 1679.0412 -7376.9356 290.0556 -9055.9768 -7376.9356 290.0556 -669.7164 -587.9888 30153.8490 -669.7164 -587.9888
ENERGY: 300000 1.3430 13.2523 5.9404 0.0000 -10594.3902 1450.0908 0.0000 0.0000 1697.6963 -7426.0674 293.2783 -9123.7637 -7372.0124 293.0729 368.3160 330.9828 29409.1864 -41.1480 -12.3720
ENERGY: 600000 7.5491 11.2180 6.4547 0.0000 -10388.7462 1339.8603 0.0000 0.0000 1732.4045 -7291.2596 299.2742 -9023.6641 -7331.0723 297.4287 -575.9313 -537.3920 29976.0558 -138.7640 -105.0545
ENERGY: 900000 0.8684 13.3144 5.8651 0.0000 -10490.6880 1391.1358 0.0000 0.0000 1728.4618 -7351.0426 298.5930 -9079.5044 -7322.9945 299.2841 -9.1074 124.2818 29633.7383 -162.0252 -104.1957
ENERGY: 1200000 3.0542 14.0897 4.7396 0.0000 -10335.7886 1293.4795 0.0000 0.0000 1744.6253 -7275.8004 301.3853 -9020.4256 -7323.5424 299.6823 -1024.4065 -939.5238 30095.0084 -208.7665 -144.5217
ENERGY: 1500000 2.3708 17.9651 5.1579 0.0000 -10541.5480 1361.7300 0.0000 0.0000 1711.4731 -7442.8511 295.6582 -9154.3242 -7340.6837 299.0924 -598.7250 -493.8706 29594.7235 -267.5731 -196.4740
TCL: Running FEP window  12: Lambda1 0.4499999999999996 Lambda2 0.39999999999999963 [dLambda -0.04999999999999999]
TCL: Setting parameter firsttimestep to 0
TCL: Setting parameter alchLambda to 0.4499999999999996
Info: NONBONDED TABLE R-SQUARED SPACING: 0.0625
Info: NONBONDED TABLE SIZE: 705 POINTS
TCL: Setting parameter alchLambda2 to 0.39999999999999963
Info: NONBONDED TABLE R-SQUARED SPACING: 0.0625
Info: NONBONDED TABLE SIZE: 705 POINTS
TCL: Running for 1500000 steps
ETITLE: TS BOND ANGLE DIHED IMPRP ELECT VDW BOUNDARY MISC KINETIC TOTAL TEMP POTENTIAL TOTALAVG TEMPAVG PRESSURE GPRESSURE VOLUME PRESSAVG GPRESSAVG
ENERGY: 0 2.3708 17.9651 5.1579 0.0000 -10541.5475 1362.1298 0.0000 0.0000 1710.6016 -7443.3223 295.5077 -9153.9238 -7443.3223 295.5077 -592.8728 -500.9485 29594.7235 -592.8728 -500.9485
ENERGY: 300000 1.5254 14.4561 6.3367 0.0000 -10431.4912 1374.1931 0.0000 0.0000 1758.3677 -7276.6122 303.7593 -9034.9799 -7342.8616 302.7041 -80.9999 31.4993 29852.1707 -5.7533 66.4604
ENERGY: 600000 3.1075 16.2919 6.7107 0.0000 -10205.9580 1262.7653 0.0000 0.0000 1679.5678 -7237.5148 290.1466 -8917.0826 -7301.5513 301.9598 -793.1187 -737.3672 29782.3728 -43.6857 22.3647
ENERGY: 900000 2.7188 16.0713 5.0116 0.0000 -10580.2799 1435.4075 0.0000 0.0000 1664.2199 -7456.8507 287.4952 -9121.0706 -7328.5240 300.7823 -201.2992 -187.6022 29855.6298 16.7921 79.0535
ENERGY: 1200000 2.9958 14.1517 5.8363 0.0000 -10480.5048 1458.4686 0.0000 0.0000 1768.1677 -7230.8848 305.4523 -8999.0525 -7320.6865 300.7751 383.0971 436.8053 29927.8624 32.8318 88.3613
ENERGY: 1500000 2.1169 11.5729 5.9052 0.0000 -10508.1195 1431.2189 0.0000 0.0000 1742.6683 -7314.6373 301.0472 -9057.3056 -7319.3659 300.4487 212.4703 299.6648 29875.9187 52.4164 110.0626
TCL: Running FEP window  13: Lambda1 0.39999999999999963 Lambda2 0.34999999999999964 [dLambda -0.04999999999999999]
TCL: Setting parameter firsttimestep to 0
TCL: Setting parameter alchLambda to 0.39999999999999963
Info: NONBONDED TABLE R-SQUARED SPACING: 0.0625
Info: NONBONDED TABLE SIZE: 705 POINTS
TCL: Setting parameter alchLambda2 to 0.34999999999999964
Info: NONBONDED TABLE R-SQUARED SPACING: 0.0625
Info: NONBONDED TABLE SIZE: 705 POINTS
TCL: Running for 1500000 steps
ETITLE: TS BOND ANGLE DIHED IMPRP ELECT VDW BOUNDARY MISC KINETIC TOTAL TEMP POTENTIAL TOTALAVG TEMPAVG PRESSURE GPRESSURE VOLUME PRESSAVG GPRESSAVG
ENERGY: 0 2.1169 11.5729 5.9052 0.0000 -10508.1194 1431.3489 0.0000 0.0000 1741.8017 -7315.3739 300.8975 -9057.1756 -7315.3739 300.8975 213.1868 294.2543 29875.9187 213.1868 294.2543
ENERGY: 300000 3.8627 15.1771 5.0725 0.0000 -10653.7531 1541.4348 0.0000 0.0000 1722.7261 -7365.4799 297.6022 -9088.2059 -7287.3454 302.9996 1031.4790 1082.8491 29568.7165 211.5323 282.0154
ENERGY: 600000 3.0309 17.5785 6.8420 0.0000 -10504.9332 1391.6025 0.0000 0.0000 1727.1113 -7358.7680 298.3597 -9085.8793 -7305.6236 301.1700 -212.5174 -151.1306 29689.4354 -36.9103 32.1842
ENERGY: 900000 2.1695 12.9806 5.7301 0.0000 -10426.2003 1354.3751 0.0000 0.0000 1756.5513 -7294.3936 303.4455 -9050.9449 -7314.8792 301.1455 -614.7182 -559.9758 30113.1077 -115.1362 -38.9460
ENERGY: 1200000 3.3663 13.1103 5.5795 0.0000 -10339.0392 1346.1295 0.0000 0.0000 1703.8334 -7267.0203 294.3385 -8970.8537 -7313.7574 300.1503 -547.2468 -454.4619 30139.1371 -172.7881 -99.5509
ENERGY: 1500000 2.6351 11.1089 5.9478 0.0000 -10470.8948 1467.6602 0.0000 0.0000 1780.7923 -7202.7505 307.6332 -8983.5429 -7297.7950 301.6542 525.5807 623.6086 29793.4805 -180.5353 -105.2520
TCL: Running FEP window  14: Lambda1 0.34999999999999964 Lambda2 0.29999999999999966 [dLambda -0.04999999999999999]
TCL: Setting parameter firsttimestep to 0
TCL: Setting parameter alchLambda to 0.34999999999999964
Info: NONBONDED TABLE R-SQUARED SPACING: 0.0625
Info: NONBONDED TABLE SIZE: 705 POINTS
TCL: Setting parameter alchLambda2 to 0.29999999999999966
Info: NONBONDED TABLE R-SQUARED SPACING: 0.0625
Info: NONBONDED TABLE SIZE: 705 POINTS
TCL: Running for 1500000 steps
ETITLE: TS BOND ANGLE DIHED IMPRP ELECT VDW BOUNDARY MISC KINETIC TOTAL TEMP POTENTIAL TOTALAVG TEMPAVG PRESSURE GPRESSURE VOLUME PRESSAVG GPRESSAVG
ENERGY: 0 2.6351 11.1089 5.9478 0.0000 -10470.8937 1468.3304 0.0000 0.0000 1779.8808 -7202.9907 307.4757 -8982.8715 -7202.9907 307.4757 540.6837 626.3059 29793.4805 540.6837 626.3059
ENERGY: 300000 3.4562 18.6575 5.3951 0.0000 -10538.9382 1460.5679 0.0000 0.0000 1746.3157 -7304.5459 301.6773 -9050.8615 -7290.2811 301.5347 286.5229 340.1751 30079.5436 95.2756 162.5667
ENERGY: 600000 2.9476 15.9829 5.4188 0.0000 -10556.2458 1475.9045 0.0000 0.0000 1740.3383 -7315.6537 300.6447 -9055.9920 -7315.9970 300.2708 574.9504 613.6524 29633.2452 269.4805 333.5027
ENERGY: 900000 5.7562 14.3168 5.3082 0.0000 -10428.6929 1345.2299 0.0000 0.0000 1791.7498 -7266.3319 309.5261 -9058.0817 -7288.2087 302.0596 -579.2223 -498.5714 29610.3123 114.7982 173.1631
ENERGY: 1200000 3.1018 17.5765 5.4308 0.0000 -10255.0748 1250.8655 0.0000 0.0000 1767.7109 -7210.3892 305.3734 -8978.1000 -7285.2801 301.7896 -1241.2933 -1184.5864 30173.0289 30.9693 85.0914
ENERGY: 1500000 4.7697 13.1401 6.3616 0.0000 -10464.3727 1365.5439 0.0000 0.0000 1714.0696 -7360.4877 296.1068 -9074.5573 -7296.1519 300.8316 -424.7049 -370.4200 29717.6753 -103.5693 -43.3320
TCL: Running FEP window  15: Lambda1 0.29999999999999966 Lambda2 0.24999999999999967 [dLambda -0.04999999999999999]
TCL: Setting parameter firsttimestep to 0
TCL: Setting parameter alchLambda to 0.29999999999999966
Info: NONBONDED TABLE R-SQUARED SPACING: 0.0625
Info: NONBONDED TABLE SIZE: 705 POINTS
TCL: Setting parameter alchLambda2 to 0.24999999999999967
Info: NONBONDED TABLE R-SQUARED SPACING: 0.0625
Info: NONBONDED TABLE SIZE: 705 POINTS
TCL: Running for 1500000 steps
ETITLE: TS BOND ANGLE DIHED IMPRP ELECT VDW BOUNDARY MISC KINETIC TOTAL TEMP POTENTIAL TOTALAVG TEMPAVG PRESSURE GPRESSURE VOLUME PRESSAVG GPRESSAVG
ENERGY: 0 4.7697 13.1401 6.3616 0.0000 -10464.3713 1365.3473 0.0000 0.0000 1713.2687 -7361.4838 295.9684 -9074.7525 -7361.4838 295.9684 -462.9016 -373.6090 29717.6753 -462.9016 -373.6090
ENERGY: 300000 1.5628 10.8171 6.4549 0.0000 -10478.4347 1424.9516 0.0000 0.0000 1751.7084 -7282.9399 302.6089 -9034.6483 -7317.6131 298.1630 4.6021 71.5215 30043.6147 32.6905 89.4983
ENERGY: 600000 5.0518 16.0625 5.0280 0.0000 -10603.1821 1471.8477 0.0000 0.0000 1735.4321 -7369.7601 299.7972 -9105.1922 -7322.0127 298.3606 641.7638 686.7208 29077.9457 48.2304 116.5674
ENERGY: 900000 7.1036 17.7479 7.4234 0.0000 -10530.9884 1397.5470 0.0000 0.0000 1757.2174 -7343.9490 303.5606 -9101.1665 -7313.0563 300.1283 -513.3422 -379.1326 29925.7649 -35.3387 39.8697
ENERGY: 1200000 2.1066 16.2692 7.0279 0.0000 -10599.7944 1461.3409 0.0000 0.0000 1788.4998 -7324.5500 308.9647 -9113.0498 -7311.2629 300.6982 571.3118 624.8432 29289.5858 32.1177 98.5929
ENERGY: 1500000 1.3365 12.0052 6.2237 0.0000 -10401.9167 1364.4605 0.0000 0.0000 1835.5004 -7182.3905 317.0840 -9017.8909 -7312.5475 301.4376 -29.9018 52.0204 29670.5290 56.2549 126.7699
TCL: Running FEP window  16: Lambda1 0.24999999999999967 Lambda2 0.19999999999999968 [dLambda -0.04999999999999999]
TCL: Setting parameter firsttimestep to 0
TCL: Setting parameter alchLambda to 0.24999999999999967
Info: NONBONDED TABLE R-SQUARED SPACING: 0.0625
Info: NONBONDED TABLE SIZE: 705 POINTS
TCL: Setting parameter alchLambda2 to 0.19999999999999968
Info: NONBONDED TABLE R-SQUARED SPACING: 0.0625
Info: NONBONDED TABLE SIZE: 705 POINTS
TCL: Running for 1500000 steps
ETITLE: TS BOND ANGLE DIHED IMPRP ELECT VDW BOUNDARY MISC KINETIC TOTAL TEMP POTENTIAL TOTALAVG TEMPAVG PRESSURE GPRESSURE VOLUME PRESSAVG GPRESSAVG
ENERGY: 0 1.3365 12.0052 6.2237 0.0000 -10401.9154 1364.7027 0.0000 0.0000 1834.6118 -7183.0356 316.9305 -9017.6475 -7183.0356 316.9305 -38.6708 49.7238 29670.5290 -38.6708 49.7238
ENERGY: 300000 2.4084 15.7100 6.2029 0.0000 -10408.5844 1405.0685 0.0000 0.0000 1711.7383 -7267.4563 295.7041 -8979.1946 -7286.4375 303.0625 -12.3125 9.9071 30384.2091 136.4656 186.6780
ENERGY: 600000 1.3733 16.6706 8.7919 0.0000 -10550.1592 1477.3209 0.0000 0.0000 1778.4297 -7267.5728 307.2250 -9046.0025 -7274.5214 303.4888 623.4812 620.4057 29929.4937 275.2804 322.0796
ENERGY: 900000 4.0083 10.4492 7.7868 0.0000 -10731.2254 1581.0671 0.0000 0.0000 1769.0646 -7358.8495 305.6072 -9127.9141 -7280.2499 304.6856 1203.2207 1264.5948 29293.3681 276.8664 333.5735
ENERGY: 1200000 2.5445 13.1921 6.0166 0.0000 -10556.7018 1435.2103 0.0000 0.0000 1763.9696 -7335.7687 304.7270 -9099.7383 -7286.0961 304.3925 2.4697 118.4750 29605.8567 205.6931 270.5452
ENERGY: 1500000 1.6301 15.4694 6.6762 0.0000 -10558.0576 1474.0824 0.0000 0.0000 1742.1981 -7318.0013 300.9660 -9060.1994 -7294.7401 302.9060 583.2772 657.6297 29392.3085 201.7417 261.3749
TCL: Running FEP window  17: Lambda1 0.19999999999999968 Lambda2 0.1499999999999997 [dLambda -0.04999999999999999]
TCL: Setting parameter firsttimestep to 0
TCL: Setting parameter alchLambda to 0.19999999999999968
Info: NONBONDED TABLE R-SQUARED SPACING: 0.0625
Info: NONBONDED TABLE SIZE: 705 POINTS
TCL: Setting parameter alchLambda2 to 0.1499999999999997
Info: NONBONDED TABLE R-SQUARED SPACING: 0.0625
Info: NONBONDED TABLE SIZE: 705 POINTS
TCL: Running for 1500000 steps
ETITLE: TS BOND ANGLE DIHED IMPRP ELECT VDW BOUNDARY MISC KINETIC TOTAL TEMP POTENTIAL TOTALAVG TEMPAVG PRESSURE GPRESSURE VOLUME PRESSAVG GPRESSAVG
ENERGY: 0 1.6301 15.4694 6.6762 0.0000 -10558.0562 1474.0781 0.0000 0.0000 1741.3067 -7318.8957 300.8120 -9060.2023 -7318.8957 300.8120 564.7583 651.9192 29392.3085 564.7583 651.9192
ENERGY: 300000 2.0065 11.8705 6.0513 0.0000 -10538.9941 1440.8405 0.0000 0.0000 1775.3129 -7302.9124 306.6866 -9078.2253 -7318.9571 300.3361 307.2082 321.0419 29797.4601 158.6545 225.6736
ENERGY: 600000 2.6836 12.3114 8.9570 0.0000 -10506.8698 1415.8799 0.0000 0.0000 1791.2850 -7275.7529 309.4458 -9067.0379 -7313.3806 301.2181 -69.8427 -58.5118 29981.6588 235.9868 288.8263
ENERGY: 900000 2.8987 10.9309 6.2837 0.0000 -10598.6000 1457.5925 0.0000 0.0000 1697.9792 -7422.9151 293.3272 -9120.8942 -7313.2671 300.4029 79.8085 146.5515 29725.4153 103.7262 149.1028
ENERGY: 1200000 3.7379 14.2037 4.7126 0.0000 -10469.4946 1425.0595 0.0000 0.0000 1737.5594 -7284.2216 300.1647 -9021.7810 -7306.6525 300.5283 89.3922 148.3610 30107.7395 52.2297 89.8292
ENERGY: 1500000 1.5425 16.0102 5.7982 0.0000 -10581.4947 1452.7401 0.0000 0.0000 1712.8344 -7392.5693 295.8934 -9105.4037 -7313.9800 300.0380 210.9821 263.4536 29583.7041 56.1362 96.0884
TCL: Running FEP window  18: Lambda1 0.1499999999999997 Lambda2 0.09999999999999969 [dLambda -0.05 ]
TCL: Setting parameter firsttimestep to 0
TCL: Setting parameter alchLambda to 0.1499999999999997
Info: NONBONDED TABLE R-SQUARED SPACING: 0.0625
Info: NONBONDED TABLE SIZE: 705 POINTS
TCL: Setting parameter alchLambda2 to 0.09999999999999969
Info: NONBONDED TABLE R-SQUARED SPACING: 0.0625
Info: NONBONDED TABLE SIZE: 705 POINTS
TCL: Running for 1500000 steps
ETITLE: TS BOND ANGLE DIHED IMPRP ELECT VDW BOUNDARY MISC KINETIC TOTAL TEMP POTENTIAL TOTALAVG TEMPAVG PRESSURE GPRESSURE VOLUME PRESSAVG GPRESSAVG
ENERGY: 0 1.5425 16.0102 5.7982 0.0000 -10581.4954 1452.5503 0.0000 0.0000 1711.9593 -7393.6349 295.7422 -9105.5942 -7393.6349 295.7422 194.2757 258.4365 29583.7041 194.2757 258.4365
ENERGY: 300000 2.6567 14.7372 5.0882 0.0000 -10509.3131 1458.1352 0.0000 0.0000 1754.7728 -7273.9231 303.1383 -9028.6958 -7346.2765 296.7889 611.2120 631.0506 29688.7459 87.7831 137.3793
ENERGY: 600000 2.6224 11.6651 5.1924 0.0000 -10474.1190 1450.3080 0.0000 0.0000 1758.5995 -7245.7316 303.7994 -9004.3311 -7317.1607 299.3965 361.9601 453.3865 29847.0722 -48.5412 8.7472
ENERGY: 900000 4.5573 12.1092 6.1659 0.0000 -10503.9561 1415.9840 0.0000 0.0000 1694.2856 -7370.8541 292.6891 -9065.1397 -7323.6952 298.5466 14.4273 23.8076 29759.4162 -126.9181 -75.9420
ENERGY: 1200000 4.8616 13.4005 5.1325 0.0000 -10606.0704 1506.4342 0.0000 0.0000 1770.3947 -7305.8469 305.8370 -9076.2416 -7318.7459 299.1651 684.1183 724.1125 29560.2039 -43.4201 7.0838
ENERGY: 1500000 2.5385 9.4866 5.6888 0.0000 -10336.6743 1365.4622 0.0000 0.0000 1770.2351 -7183.2629 305.8094 -8953.4980 -7323.0696 298.9046 -83.6279 -43.3786 29853.4869 -93.6543 -48.1500
TCL: Running FEP window  19: Lambda1 0.09999999999999969 Lambda2 0.049999999999999684 [dLambda -0.05 ]
TCL: Setting parameter firsttimestep to 0
TCL: Setting parameter alchLambda to 0.09999999999999969
Info: NONBONDED TABLE R-SQUARED SPACING: 0.0625
Info: NONBONDED TABLE SIZE: 705 POINTS
TCL: Setting parameter alchLambda2 to 0.049999999999999684
Info: NONBONDED TABLE R-SQUARED SPACING: 0.0625
Info: NONBONDED TABLE SIZE: 705 POINTS
TCL: Running for 1500000 steps
ETITLE: TS BOND ANGLE DIHED IMPRP ELECT VDW BOUNDARY MISC KINETIC TOTAL TEMP POTENTIAL TOTALAVG TEMPAVG PRESSURE GPRESSURE VOLUME PRESSAVG GPRESSAVG
ENERGY: 0 2.5385 9.4866 5.6888 0.0000 -10336.6743 1364.8750 0.0000 0.0000 1769.4119 -7184.6734 305.6672 -8954.0853 -7184.6734 305.6672 -143.7721 -47.2839 29853.4869 -143.7721 -47.2839
ENERGY: 300000 3.0425 13.5905 5.1825 0.0000 -10476.2831 1389.4692 0.0000 0.0000 1707.0405 -7357.9580 294.8925 -9064.9984 -7321.1045 298.7759 -380.2719 -331.4176 29672.2884 -449.2901 -414.7161
ENERGY: 600000 2.2618 15.7403 6.5081 0.0000 -10403.9914 1390.6816 0.0000 0.0000 1776.4607 -7212.3388 306.8849 -8988.7996 -7312.5276 298.6804 219.1188 257.6236 29381.6693 -240.4433 -184.8456
ENERGY: 900000 3.3192 11.4501 6.5983 0.0000 -10493.7936 1421.0396 0.0000 0.0000 1698.3550 -7353.0313 293.3921 -9051.3863 -7330.2368 297.4613 20.9100 121.4755 29647.5145 -157.8169 -100.7464
ENERGY: 1200000 3.1830 12.4360 5.6139 0.0000 -10685.2178 1477.7671 0.0000 0.0000 1739.7730 -7446.4448 300.5471 -9186.2178 -7351.4410 296.8954 207.6398 233.2597 29675.0814 -121.6922 -63.0680
ENERGY: 1500000 6.5322 18.7916 5.7731 0.0000 -10414.7175 1328.3143 0.0000 0.0000 1706.8786 -7348.4278 294.8645 -9055.3063 -7351.1975 297.2975 -694.9707 -621.9187 29420.0857 -231.8656 -173.1658
TCL: Running FEP window  20: Lambda1 0.049999999999999684 Lambda2 0.0    [dLambda -0.049999999999999684]
TCL: Setting parameter firsttimestep to 0
TCL: Setting parameter alchLambda to 0.049999999999999684
Info: NONBONDED TABLE R-SQUARED SPACING: 0.0625
Info: NONBONDED TABLE SIZE: 705 POINTS
TCL: Setting parameter alchLambda2 to 0.0
Info: NONBONDED TABLE R-SQUARED SPACING: 0.0625
Info: NONBONDED TABLE SIZE: 705 POINTS
TCL: Running for 1500000 steps
ETITLE: TS BOND ANGLE DIHED IMPRP ELECT VDW BOUNDARY MISC KINETIC TOTAL TEMP POTENTIAL TOTALAVG TEMPAVG PRESSURE GPRESSURE VOLUME PRESSAVG GPRESSAVG
ENERGY: 0 6.5322 18.7916 5.7731 0.0000 -10414.7173 1327.7966 0.0000 0.0000 1706.0107 -7349.8131 294.7146 -9055.8238 -7349.8131 294.7146 -712.0937 -627.3904 29420.0857 -712.0937 -627.3904
ENERGY: 300000 3.2142 21.9638 6.5170 0.0000 -10588.5967 1496.7376 0.0000 0.0000 1756.2495 -7303.9148 303.3934 -9060.1642 -7286.2836 301.4377 765.2979 839.7556 29409.7810 -155.5932 -80.7010
ENERGY: 600000 5.2444 13.6182 4.1311 0.0000 -10639.7141 1481.0888 0.0000 0.0000 1722.6934 -7412.9382 297.5965 -9135.6316 -7315.5031 302.2114 369.4257 484.7992 29338.0147 -32.4490 24.7113
ENERGY: 900000 2.6353 17.2341 6.3403 0.0000 -10357.0483 1291.3992 0.0000 0.0000 1718.1505 -7321.2889 296.8118 -9039.4394 -7342.2996 298.9062 -1055.3377 -1023.0545 29940.4291 -265.3761 -212.6036
ENERGY: 1200000 2.6385 12.9601 4.8143 0.0000 -10557.3655 1395.7006 0.0000 0.0000 1801.6147 -7339.6373 311.2303 -9141.2520 -7343.7805 299.0971 49.0755 118.0783 29111.2760 -153.6098 -96.0024
ENERGY: 1500000 2.7926 12.5384 4.7560 0.0000 -10463.9540 1415.3568 0.0000 0.0000 1750.7387 -7277.7715 302.4414 -9028.5102 -7332.5074 299.7552 75.0585 163.1658 29396.5016 -147.8510 -93.0461
TCL: Exiting due to exit command.
