Info: SIMULATION PARAMETERS:
Info: TIMESTEP               2
Info: NUMBER OF STEPS        0
Info: STEPS PER CYCLE        10
Info: PERIODIC CELL BASIS 1  30.2827 0 0
Info: PERIODIC CELL BASIS 2  0 29.5674 0
Info: PERIODIC CELL BASIS 3  0 0 33.32
Info: PERIODIC CELL CENTER   0 0 0
Info: WRAPPING WATERS AROUND PERIODIC BOUNDARIES ON OUTPUT.
Info: WRAPPING ALL CLUSTERS AROUND PERIODIC BOUNDARIES ON OUTPUT.
Info: FIRST LDB TIMESTEP     50
Info: LAST LDB TIMESTEP     -1
Info: HOM BACKGROUND SCALING 1
Info: PME BACKGROUND SCALING 1
Info: MIN ATOMS PER PATCH    40
Info: EMPTY PATCH LOAD       40 ATOMS
Info: VELOCITY FILE          mobley_7977115_equil.vel
Info: CENTER OF MASS MOVING INITIALLY? NO
Info: DIELECTRIC             1
Info: EXCLUDE                SCALED ONE-FOUR
Info: 1-4 ELECTROSTATICS SCALED BY 0.833333
Info: MODIFIED 1-4 VDW PARAMETERS WILL BE USED
Info: DCD FILENAME           mobley_7977115_prod.dcd
Info: DCD FREQUENCY          100000
Info: DCD FIRST STEP         100000
Info: DCD FILE WILL CONTAIN UNIT CELL DATA
Info: XST FILENAME           mobley_7977115_prod.xst
Info: XST FREQUENCY          100000
Info: NO VELOCITY DCD OUTPUT
Info: NO FORCE DCD OUTPUT
Info: OUTPUT FILENAME        mobley_7977115_prod
Info: BINARY OUTPUT FILES WILL BE USED
Info: RESTART FILENAME       mobley_7977115_prod.restart
Info: RESTART FREQUENCY      100000
Info: BINARY RESTART FILES WILL BE USED
Info: CUTOFF                 9
Info: PAIRLIST DISTANCE      11
Info: PAIRLIST SHRINK RATE   0.01
Info: PAIRLIST GROW RATE     0.01
Info: PAIRLIST TRIGGER       0.3
Info: PAIRLISTS PER CYCLE    2
Info: PAIRLISTS ENABLED
Info: MARGIN                 2
Info: HYDROGEN GROUP CUTOFF  2.5
Info: PATCH DIMENSION        15.5
Info: ENERGY OUTPUT STEPS    100000
Info: ENERGY EVALUATION STEPS    100000
Info: OUTPUT ENERGY PRECISION 4
Info: CROSSTERM ENERGY INCLUDED IN DIHEDRAL
Info: TIMING OUTPUT STEPS    1000000
Info: PRESSURE OUTPUT STEPS  100000
Info: ALCHEMICAL FEP ON
Info: FEP CURRENT LAMBDA VALUE     0
Info: FEP COMPARISON LAMBDA VALUE  0.05
Info: FEP INTRA-ALCHEMICAL NON-BONDED INTERACTIONS WILL BE RETAINED
Info: FEP INTRA-ALCHEMICAL BONDED INTERACTIONS WILL BE RETAINED
Info: FEP VDW SHIFTING COEFFICIENT 5
Info: FEP ELEC. ACTIVE FOR ANNIHILATED PARTICLES BETWEEN LAMBDA = 0 AND LAMBDA = 0.5
Info: FEP ELEC. ACTIVE FOR EXNIHILATED PARTICLES BETWEEN LAMBDA = 0.5 AND LAMBDA = 1
Info: FEP VDW ACTIVE FOR ANNIHILATED PARTICLES BETWEEN LAMBDA = 0 AND LAMBDA = 1
Info: FEP VDW ACTIVE FOR EXNIHILATED PARTICLES BETWEEN LAMBDA = 0 AND LAMBDA = 1
Info: FEP BOND ACTIVE FOR ANNIHILATED PARTICLES BETWEEN LAMBDA = 1 AND LAMBDA = 1
Info: FEP BOND ACTIVE FOR EXNIHILATED PARTICLES BETWEEN LAMBDA = 0 AND LAMBDA = 0
Info: LANGEVIN DYNAMICS ACTIVE
Info: LANGEVIN TEMPERATURE   300
Info: LANGEVIN USING BBK INTEGRATOR
Info: LANGEVIN DAMPING COEFFICIENT IS 1 INVERSE PS
Info: LANGEVIN DYNAMICS APPLIED TO HYDROGENS
Info: LANGEVIN PISTON PRESSURE CONTROL ACTIVE
Info:        TARGET PRESSURE IS 1.01325 BAR
Info:     OSCILLATION PERIOD IS 50 FS
Info:             DECAY TIME IS 25 FS
Info:     PISTON TEMPERATURE IS 300 K
Info:       PRESSURE CONTROL IS GROUP-BASED
Info:    INITIAL STRAIN RATE IS 0.000338297 0.000338297 0.000338297
Info:       CELL FLUCTUATION IS ISOTROPIC
Info: PARTICLE MESH EWALD (PME) ACTIVE
Info: PME TOLERANCE               1e-06
Info: PME EWALD COEFFICIENT       0.348832
Info: PME INTERPOLATION ORDER     4
Info: PME GRID DIMENSIONS         32 32 36
Info: PME MAXIMUM GRID SPACING    1
Info: PME CALCULATION WILL BE PERFORMED ON GPU
Info: FULL ELECTROSTATIC EVALUATION FREQUENCY      2
Info: USING VERLET I (r-RESPA) MTS SCHEME.
Info: C1 SPLITTING OF LONG RANGE ELECTROSTATICS
Info: PLACING ATOMS IN PATCHES BY HYDROGEN GROUPS
Info: RIGID BONDS TO HYDROGEN : ALL
Info:         ERROR TOLERANCE : 1e-08
Info:          MAX ITERATIONS : 100
Info: RIGID WATER USING SETTLE ALGORITHM
Info: RANDOM NUMBER SEED     1743932750
Info: USE HYDROGEN BONDS?    NO
Info: Using AMBER format force field!
Info: AMBER PARM FILE        mobley_7977115.prmtop
Info: COORDINATE PDB         mobley_7977115.pdb
Info: Exclusions will be read from PARM file!
Info: SCNB (VDW SCALING)     2
Info: USING ARITHMETIC MEAN TO COMBINE L-J SIGMA PARAMETERS
Info: BINARY COORDINATES     mobley_7977115_equil.coor
Info: SUMMARY OF PARAMETERS:
Info: 7 BONDS
Info: 7 ANGLES
Info:   7 HARMONIC
Info:   0 COSINE-BASED
Info: 9 DIHEDRAL
Info: 0 IMPROPER
Info: 0 CROSSTERM
Info: 0 VDW
Info: 21 VDW_PAIRS
Info: 0 NBTHOLE_PAIRS
Info: To read alchdata from file: mobley_7977115.pdb
Info: To read alchflag data from column: 5
Info: STRUCTURE SUMMARY:
Info: 2910 ATOMS
Info: 2909 BONDS
Info: 37 ANGLES
Info: 60 DIHEDRALS
Info: 0 IMPROPERS
Info: 0 CROSSTERMS
Info: 2994 EXCLUSIONS
Info: 2903 RIGID BONDS
Info: ALCH: 0 ATOMS TO DISAPPEAR IN FINAL STATE
Info: ALCH: 21 ATOMS TO APPEAR IN FINAL STATE
Info: 5827 DEGREES OF FREEDOM
Info: 970 HYDROGEN GROUPS
Info: 4 ATOMS IN LARGEST HYDROGEN GROUP
Info: 970 MIGRATION GROUPS
Info: 4 ATOMS IN LARGEST MIGRATION GROUP
Info: TOTAL MASS = 17451.6 amu
Info: TOTAL CHARGE = 0.000200015 e
Info: MASS DENSITY = 0.971364 g/cm^3
Info: ATOM DENSITY = 0.0975396 atoms/A^3
Info: ADDED 0 IMPLICIT EXCLUSIONS
Info: NONBONDED TABLE R-SQUARED SPACING: 0.0625
Info: NONBONDED TABLE SIZE: 705 POINTS
Info: REMOVING COM VELOCITY -0.0055861 0.0104577 0.0006649
Info: Use 3D box decompostion in PME FFT.
Info: Updated CUDA force table with 4096 elements.
Info: Updated CUDA LJ table with 6 x 6 elements.
Info: Found 24 unique exclusion lists needing 68 bytes
TCL: Running for 1500000 steps
ETITLE: TS BOND ANGLE DIHED IMPRP ELECT VDW BOUNDARY MISC KINETIC TOTAL TEMP POTENTIAL TOTALAVG TEMPAVG PRESSURE GPRESSURE VOLUME PRESSAVG GPRESSAVG
ENERGY: 0 6.2559 8.1028 5.2087 0.0000 -10535.4672 1410.7784 0.0000 0.0000 1722.2620 -7382.8594 297.4710 -9105.1214 -7382.8594 297.4710 -282.4997 -194.9927 29834.0319 -282.4997 -194.9927
ENERGY: 300000 3.7758 11.6446 4.9298 0.0000 -10602.9742 1406.0793 0.0000 0.0000 1711.0603 -7465.4845 295.5362 -9176.5448 -7402.5289 296.3765 -200.5605 -189.2294 29576.2596 -177.7803 -116.8320
ENERGY: 600000 1.5063 16.2093 3.7020 0.0000 -10592.0243 1502.8721 0.0000 0.0000 1728.4276 -7339.3070 298.5359 -9067.7346 -7380.4996 297.1141 840.5267 955.8836 29616.0607 -67.2446 -3.2138
ENERGY: 900000 3.4249 8.6406 4.2183 0.0000 -10561.4065 1403.5590 0.0000 0.0000 1738.7726 -7402.7911 300.3227 -9141.5637 -7394.5461 296.7014 -208.8287 -257.9736 29308.4223 -60.1284 -6.0722
ENERGY: 1200000 1.1644 9.4755 3.6260 0.0000 -10591.6205 1459.1725 0.0000 0.0000 1749.9257 -7368.2564 302.2491 -9118.1821 -7396.6887 297.1125 351.3931 409.3095 29580.6295 -27.0448 28.6058
ENERGY: 1500000 2.3287 9.8339 4.9974 0.0000 -10414.5751 1354.4276 0.0000 0.0000 1734.9134 -7308.0741 299.6561 -9042.9875 -7379.8403 298.0733 -553.9394 -508.6686 30139.3963 -9.6812 48.7476
TCL: Running FEP window   2: Lambda1 0.05   Lambda2 0.1    [dLambda 0.05  ]
TCL: Setting parameter firsttimestep to 0
TCL: Setting parameter alchLambda to 0.05
Info: NONBONDED TABLE R-SQUARED SPACING: 0.0625
Info: NONBONDED TABLE SIZE: 705 POINTS
TCL: Setting parameter alchLambda2 to 0.1
Info: NONBONDED TABLE R-SQUARED SPACING: 0.0625
Info: NONBONDED TABLE SIZE: 705 POINTS
TCL: Running for 1500000 steps
ETITLE: TS BOND ANGLE DIHED IMPRP ELECT VDW BOUNDARY MISC KINETIC TOTAL TEMP POTENTIAL TOTALAVG TEMPAVG PRESSURE GPRESSURE VOLUME PRESSAVG GPRESSAVG
ENERGY: 0 2.3287 9.8339 4.9974 0.0000 -10414.5758 1357.7259 0.0000 0.0000 1734.0646 -7305.6254 299.5095 -9039.6900 -7305.6254 299.5095 -580.9672 -502.2626 30139.3963 -580.9672 -502.2626
ENERGY: 300000 1.2344 10.5176 5.4277 0.0000 -10646.4271 1417.2900 0.0000 0.0000 1710.2694 -7501.6881 295.3996 -9211.9574 -7400.9774 300.0458 -518.0152 -452.6550 29890.2027 -344.5822 -299.2523
ENERGY: 600000 1.3591 11.9742 5.8201 0.0000 -10611.3468 1420.8316 0.0000 0.0000 1729.0321 -7442.3297 298.6403 -9171.3619 -7371.8772 300.7574 -267.1401 -247.5198 29764.5981 -232.3344 -189.5693
ENERGY: 900000 0.5666 7.5743 4.9097 0.0000 -10553.2586 1469.3149 0.0000 0.0000 1700.0376 -7370.8554 293.6323 -9070.8930 -7354.0000 301.6652 361.7461 473.6756 29897.9722 -175.6684 -115.7939
ENERGY: 1200000 2.1573 7.0795 6.4199 0.0000 -10598.6401 1432.9599 0.0000 0.0000 1743.0899 -7406.9337 301.0684 -9150.0236 -7349.3667 301.8575 36.7948 18.6056 29525.7209 -152.4449 -97.8867
ENERGY: 1500000 3.6376 7.9029 3.7648 0.0000 -10519.9698 1404.6067 0.0000 0.0000 1716.6563 -7383.4014 296.5027 -9100.0577 -7349.6448 301.4485 -217.6092 -153.4014 29599.8278 -233.3378 -177.3942
TCL: Running FEP window   3: Lambda1 0.1    Lambda2 0.15000000000000002 [dLambda 0.05000000000000002]
TCL: Setting parameter firsttimestep to 0
TCL: Setting parameter alchLambda to 0.1
Info: NONBONDED TABLE R-SQUARED SPACING: 0.0625
Info: NONBONDED TABLE SIZE: 705 POINTS
TCL: Setting parameter alchLambda2 to 0.15000000000000002
Info: NONBONDED TABLE R-SQUARED SPACING: 0.0625
Info: NONBONDED TABLE SIZE: 705 POINTS
TCL: Running for 1500000 steps
ETITLE: TS BOND ANGLE DIHED IMPRP ELECT VDW BOUNDARY MISC KINETIC TOTAL TEMP POTENTIAL TOTALAVG TEMPAVG PRESSURE GPRESSURE VOLUME PRESSAVG GPRESSAVG
ENERGY: 0 3.6376 7.9029 3.7648 0.0000 -10519.9692 1408.6505 0.0000 0.0000 1715.7953 -7380.2181 296.3540 -9096.0134 -7380.2181 296.3540 -214.3262 -136.6600 29599.8278 -214.3262 -136.6600
ENERGY: 300000 0.4573 11.5607 5.1926 0.0000 -10542.6458 1528.9200 0.0000 0.0000 1706.6093 -7289.9060 294.7674 -8996.5153 -7374.6632 296.1517 1037.8489 1113.1182 29984.0902 39.8120 109.0015
ENERGY: 600000 1.3585 10.6027 3.1517 0.0000 -10590.2934 1411.7163 0.0000 0.0000 1723.8743 -7439.5898 297.7494 -9163.4641 -7347.5442 297.8382 -5.4632 -1.4440 29611.8562 68.8372 121.4551
ENERGY: 900000 2.0707 10.5055 3.7605 0.0000 -10501.4053 1464.5092 0.0000 0.0000 1684.5210 -7336.0384 290.9523 -9020.5593 -7357.7110 296.6954 583.0273 579.7279 29759.2825 108.2772 160.9702
ENERGY: 1200000 2.3208 7.1172 6.4383 0.0000 -10564.2024 1505.9261 0.0000 0.0000 1740.8682 -7301.5318 300.6847 -9042.4000 -7359.7758 296.6451 1176.7168 1180.4885 29238.8890 187.2785 235.4497
ENERGY: 1500000 3.2717 6.0890 5.1125 0.0000 -10555.9352 1452.5710 0.0000 0.0000 1760.6375 -7328.2534 304.0992 -9088.8909 -7349.4968 297.6153 7.2306 111.8067 29972.0881 196.8893 243.8733
TCL: Running FEP window   4: Lambda1 0.15000000000000002 Lambda2 0.2    [dLambda 0.04999999999999999]
TCL: Setting parameter firsttimestep to 0
TCL: Setting parameter alchLambda to 0.15000000000000002
Info: NONBONDED TABLE R-SQUARED SPACING: 0.0625
Info: NONBONDED TABLE SIZE: 705 POINTS
TCL: Setting parameter alchLambda2 to 0.2
Info: NONBONDED TABLE R-SQUARED SPACING: 0.0625
Info: NONBONDED TABLE SIZE: 705 POINTS
TCL: Running for 1500000 steps
ETITLE: TS BOND ANGLE DIHED IMPRP ELECT VDW BOUNDARY MISC KINETIC TOTAL TEMP POTENTIAL TOTALAVG TEMPAVG PRESSURE GPRESSURE VOLUME PRESSAVG GPRESSAVG
ENERGY: 0 3.2717 6.0890 5.1125 0.0000 -10555.9349 1453.8039 0.0000 0.0000 1759.7875 -7327.8702 303.9524 -9087.6577 -7327.8702 303.9524 40.0559 117.1304 29972.0881 40.0559 117.1304
ENERGY: 300000 1.0122 11.5285 3.6763 0.0000 -10479.7180 1339.0401 0.0000 0.0000 1711.2725 -7413.1884 295.5728 -9124.4609 -7354.4756 302.2327 -603.5650 -464.3043 29344.1086 -147.3443 -57.9735
ENERGY: 600000 4.0668 6.3905 3.2271 0.0000 -10500.4937 1359.8297 0.0000 0.0000 1652.3789 -7474.6007 285.4007 -9126.9795 -7373.1075 300.0185 -804.6858 -742.3581 29964.3886 -205.5006 -127.5442
ENERGY: 900000 3.2787 7.6927 3.0632 0.0000 -10561.2292 1428.1020 0.0000 0.0000 1759.8032 -7359.2894 303.9551 -9119.0926 -7361.2951 301.3359 6.3526 84.5483 29496.5571 -156.8442 -79.1927
ENERGY: 1200000 2.8497 9.9733 3.7659 0.0000 -10436.6651 1440.0744 0.0000 0.0000 1731.1683 -7248.8334 299.0093 -8980.0018 -7347.1434 301.4004 231.0516 327.6593 30050.1172 -54.1897 18.6830
ENERGY: 1500000 1.8841 10.0057 5.4843 0.0000 -10506.6810 1382.5401 0.0000 0.0000 1755.1952 -7351.5716 303.1592 -9106.7669 -7346.7192 301.7980 -296.8680 -291.3481 29870.2413 -58.5159 8.3935
TCL: Running FEP window   5: Lambda1 0.2    Lambda2 0.25   [dLambda 0.04999999999999999]
TCL: Setting parameter firsttimestep to 0
TCL: Setting parameter alchLambda to 0.2
Info: NONBONDED TABLE R-SQUARED SPACING: 0.0625
Info: NONBONDED TABLE SIZE: 705 POINTS
TCL: Setting parameter alchLambda2 to 0.25
Info: NONBONDED TABLE R-SQUARED SPACING: 0.0625
Info: NONBONDED TABLE SIZE: 705 POINTS
TCL: Running for 1500000 steps
ETITLE: TS BOND ANGLE DIHED IMPRP ELECT VDW BOUNDARY MISC KINETIC TOTAL TEMP POTENTIAL TOTALAVG TEMPAVG PRESSURE GPRESSURE VOLUME PRESSAVG GPRESSAVG
ENERGY: 0 1.8841 10.0057 5.4843 0.0000 -10506.6814 1384.3977 0.0000 0.0000 1754.3067 -7350.6030 303.0058 -9104.9097 -7350.6030 303.0058 -363.5480 -275.1924 29870.2413 -363.5480 -275.1924
ENERGY: 300000 3.2177 8.5011 6.9676 0.0000 -10453.2011 1384.6402 0.0000 0.0000 1697.4315 -7352.4431 293.1822 -9049.8746 -7381.8274 296.1753 -612.4161 -554.1678 30164.1161 -334.3696 -274.2014
ENERGY: 600000 1.4677 8.9667 4.2145 0.0000 -10551.5642 1393.0776 0.0000 0.0000 1758.1514 -7385.6862 303.6698 -9143.8376 -7369.0667 295.8573 -209.7238 -185.1517 29658.6225 -343.4150 -280.6602
ENERGY: 900000 3.4282 12.7341 4.7105 0.0000 -10557.7514 1395.7652 0.0000 0.0000 1776.7719 -7364.3414 306.8860 -9141.1134 -7378.8911 298.4649 -257.1716 -191.2773 29461.2183 -259.9864 -197.1863
ENERGY: 1200000 1.2492 8.9699 5.2841 0.0000 -10552.0438 1411.9954 0.0000 0.0000 1770.4226 -7354.1226 305.7893 -9124.5452 -7368.2943 300.1888 72.4790 84.0512 29374.8956 -260.3123 -197.1648
ENERGY: 1500000 1.1632 10.9544 4.3761 0.0000 -10309.2796 1271.0558 0.0000 0.0000 1711.4607 -7310.2693 295.6054 -9021.7301 -7365.6957 299.9186 -1014.6145 -997.4008 29922.1011 -167.8081 -111.9049
TCL: Running FEP window   6: Lambda1 0.25   Lambda2 0.3    [dLambda 0.04999999999999999]
TCL: Setting parameter firsttimestep to 0
TCL: Setting parameter alchLambda to 0.25
Info: NONBONDED TABLE R-SQUARED SPACING: 0.0625
Info: NONBONDED TABLE SIZE: 705 POINTS
TCL: Setting parameter alchLambda2 to 0.3
Info: NONBONDED TABLE R-SQUARED SPACING: 0.0625
Info: NONBONDED TABLE SIZE: 705 POINTS
TCL: Running for 1500000 steps
ETITLE: TS BOND ANGLE DIHED IMPRP ELECT VDW BOUNDARY MISC KINETIC TOTAL TEMP POTENTIAL TOTALAVG TEMPAVG PRESSURE GPRESSURE VOLUME PRESSAVG GPRESSAVG
ENERGY: 0 1.1632 10.9544 4.3761 0.0000 -10309.2807 1273.1585 0.0000 0.0000 1710.5990 -7309.0294 295.4565 -9019.6284 -7309.0294 295.4565 -1059.8707 -985.2226 29922.1011 -1059.8707 -985.2226
ENERGY: 300000 1.5815 11.7378 5.0280 0.0000 -10404.5591 1309.1509 0.0000 0.0000 1785.1561 -7291.9048 308.3341 -9077.0609 -7282.8904 303.4960 -787.6468 -723.2537 29685.0250 -61.0851 23.9234
ENERGY: 600000 7.5213 9.5958 3.2443 0.0000 -10417.9165 1325.4332 0.0000 0.0000 1732.1963 -7339.9255 299.1868 -9072.1218 -7310.6804 301.9220 -531.1607 -524.8787 29773.6181 -48.5055 20.3852
ENERGY: 900000 1.4946 7.3303 3.5732 0.0000 -10512.5816 1361.5265 0.0000 0.0000 1768.0586 -7370.5983 305.3810 -9138.6569 -7334.0197 302.1112 -507.9687 -497.3614 29850.8028 -71.3886 -9.0404
ENERGY: 1200000 1.1536 8.8326 6.3819 0.0000 -10481.1476 1400.9120 0.0000 0.0000 1753.8025 -7310.0649 302.9187 -9063.8674 -7342.1506 300.6395 -135.2107 -110.0542 29901.2541 -21.5991 40.3713
ENERGY: 1500000 1.4886 10.3773 5.2935 0.0000 -10562.4323 1412.7800 0.0000 0.0000 1761.2343 -7371.2585 304.2023 -9132.4928 -7340.2133 301.2359 -217.5689 -98.9770 29883.4166 -23.4454 43.5275
TCL: Running FEP window   7: Lambda1 0.3    Lambda2 0.35   [dLambda 0.04999999999999999]
TCL: Setting parameter firsttimestep to 0
TCL: Setting parameter alchLambda to 0.3
Info: NONBONDED TABLE R-SQUARED SPACING: 0.0625
Info: NONBONDED TABLE SIZE: 705 POINTS
TCL: Setting parameter alchLambda2 to 0.35
Info: NONBONDED TABLE R-SQUARED SPACING: 0.0625
Info: NONBONDED TABLE SIZE: 705 POINTS
TCL: Running for 1500000 steps
ETITLE: TS BOND ANGLE DIHED IMPRP ELECT VDW BOUNDARY MISC KINETIC TOTAL TEMP POTENTIAL TOTALAVG TEMPAVG PRESSURE GPRESSURE VOLUME PRESSAVG GPRESSAVG
ENERGY: 0 1.4886 10.3773 5.2935 0.0000 -10562.4317 1413.1036 0.0000 0.0000 1760.3634 -7371.8052 304.0519 -9132.1686 -7371.8052 304.0519 -180.9439 -93.8304 29883.4166 -180.9439 -93.8304
ENERGY: 300000 0.9504 10.4975 3.8988 0.0000 -10552.5766 1451.4574 0.0000 0.0000 1701.6750 -7384.0974 293.9152 -9085.7724 -7350.1166 301.7845 275.0660 345.2734 29741.1990 126.7213 191.9328
ENERGY: 600000 2.5772 8.7785 3.1165 0.0000 -10526.5728 1378.1120 0.0000 0.0000 1784.1115 -7349.8770 308.1537 -9133.9885 -7349.5515 302.0197 -720.4649 -636.4261 30084.7048 5.6691 83.3528
ENERGY: 900000 1.1270 13.9051 4.7175 0.0000 -10446.3613 1341.2190 0.0000 0.0000 1725.8565 -7359.5363 298.0918 -9085.3928 -7349.7165 302.3400 -658.2143 -661.4281 30376.5418 -92.4556 -26.2122
ENERGY: 1200000 0.3516 8.0874 5.3254 0.0000 -10549.4395 1401.5687 0.0000 0.0000 1743.7015 -7390.4048 301.1740 -9134.1063 -7361.9366 301.0911 -1.4074 35.1476 29385.3322 -67.0518 2.1384
ENERGY: 1500000 1.4436 8.0861 4.0862 0.0000 -10476.1928 1352.3031 0.0000 0.0000 1764.7652 -7345.5086 304.8122 -9110.2738 -7351.7728 301.6863 -637.8518 -542.8262 30113.0425 -75.6876 -6.8646
TCL: Running FEP window   8: Lambda1 0.35   Lambda2 0.39999999999999997 [dLambda 0.04999999999999999]
TCL: Setting parameter firsttimestep to 0
TCL: Setting parameter alchLambda to 0.35
Info: NONBONDED TABLE R-SQUARED SPACING: 0.0625
Info: NONBONDED TABLE SIZE: 705 POINTS
TCL: Setting parameter alchLambda2 to 0.39999999999999997
Info: NONBONDED TABLE R-SQUARED SPACING: 0.0625
Info: NONBONDED TABLE SIZE: 705 POINTS
TCL: Running for 1500000 steps
ETITLE: TS BOND ANGLE DIHED IMPRP ELECT VDW BOUNDARY MISC KINETIC TOTAL TEMP POTENTIAL TOTALAVG TEMPAVG PRESSURE GPRESSURE VOLUME PRESSAVG GPRESSAVG
ENERGY: 0 1.4436 8.0861 4.0862 0.0000 -10476.1929 1352.6408 0.0000 0.0000 1763.9025 -7346.0336 304.6632 -9109.9362 -7346.0336 304.6632 -616.7897 -536.9783 30113.0425 -616.7897 -536.9783
ENERGY: 300000 2.0266 9.6826 3.8904 0.0000 -10575.6762 1411.6894 0.0000 0.0000 1703.7308 -7444.6564 294.2702 -9148.3872 -7380.7888 300.3814 -286.0387 -234.8860 29764.5545 -218.9454 -144.9700
ENERGY: 600000 4.4360 10.3348 3.2213 0.0000 -10517.4221 1385.1510 0.0000 0.0000 1753.6711 -7360.6078 302.8960 -9114.2789 -7369.1042 302.6163 -597.2642 -537.7152 30280.8315 -199.6694 -113.5892
ENERGY: 900000 2.8180 10.4768 4.1453 0.0000 -10506.9390 1420.3935 0.0000 0.0000 1734.1063 -7334.9990 299.5167 -9069.1053 -7355.3105 301.6665 -114.4328 -33.6844 30209.2575 -143.0383 -54.4096
ENERGY: 1200000 2.8325 12.6624 4.8605 0.0000 -10272.7045 1242.3970 0.0000 0.0000 1718.9725 -7290.9796 296.9028 -9009.9521 -7349.8275 301.2081 -1299.9099 -1264.7043 30540.0254 -314.6150 -234.0774
ENERGY: 1500000 1.6664 5.8826 4.5768 0.0000 -10512.3502 1336.2775 0.0000 0.0000 1765.0928 -7398.8542 304.8687 -9163.9469 -7352.5994 301.6748 -773.8133 -727.2466 29859.3389 -342.4648 -260.3075
TCL: Running FEP window   9: Lambda1 0.39999999999999997 Lambda2 0.44999999999999996 [dLambda 0.04999999999999999]
TCL: Setting parameter firsttimestep to 0
TCL: Setting parameter alchLambda to 0.39999999999999997
Info: NONBONDED TABLE R-SQUARED SPACING: 0.0625
Info: NONBONDED TABLE SIZE: 705 POINTS
TCL: Setting parameter alchLambda2 to 0.44999999999999996
Info: NONBONDED TABLE R-SQUARED SPACING: 0.0625
Info: NONBONDED TABLE SIZE: 705 POINTS
TCL: Running for 1500000 steps
ETITLE: TS BOND ANGLE DIHED IMPRP ELECT VDW BOUNDARY MISC KINETIC TOTAL TEMP POTENTIAL TOTALAVG TEMPAVG PRESSURE GPRESSURE VOLUME PRESSAVG GPRESSAVG
ENERGY: 0 1.6664 5.8826 4.5768 0.0000 -10512.3511 1336.2492 0.0000 0.0000 1764.2144 -7399.7616 304.7170 -9163.9760 -7399.7616 304.7170 -801.3219 -722.0421 29859.3389 -801.3219 -722.0421
ENERGY: 300000 1.3660 12.5124 5.5259 0.0000 -10576.1763 1417.8829 0.0000 0.0000 1711.2458 -7427.6433 295.5682 -9138.8891 -7376.6965 298.9514 -208.4865 -142.4200 29963.9604 -260.9058 -200.0379
ENERGY: 600000 3.2179 6.9602 4.5122 0.0000 -10496.6191 1386.4774 0.0000 0.0000 1684.3187 -7411.1326 290.9174 -9095.4514 -7380.4024 297.3691 -207.2441 -204.6278 29901.0558 -177.2435 -126.9964
ENERGY: 900000 1.2761 5.5803 4.4263 0.0000 -10581.6140 1436.1507 0.0000 0.0000 1700.1592 -7434.0215 293.6533 -9134.1807 -7372.1334 297.2744 158.6192 177.5151 29591.0599 -168.8486 -114.9374
ENERGY: 1200000 1.5026 13.7409 4.5536 0.0000 -10496.6296 1437.9236 0.0000 0.0000 1711.3760 -7327.5329 295.5907 -9038.9088 -7358.5481 297.1856 -131.7833 39.6327 30707.7879 -193.9053 -133.0024
ENERGY: 1500000 2.4882 11.4969 4.8359 0.0000 -10486.4085 1425.8201 0.0000 0.0000 1751.4381 -7290.3293 302.5103 -9041.7674 -7353.0889 297.8917 268.8620 319.2941 29536.6443 -154.5796 -88.0936
TCL: Running FEP window  10: Lambda1 0.44999999999999996 Lambda2 0.49999999999999994 [dLambda 0.04999999999999999]
TCL: Setting parameter firsttimestep to 0
TCL: Setting parameter alchLambda to 0.44999999999999996
Info: NONBONDED TABLE R-SQUARED SPACING: 0.0625
Info: NONBONDED TABLE SIZE: 705 POINTS
TCL: Setting parameter alchLambda2 to 0.49999999999999994
Info: NONBONDED TABLE R-SQUARED SPACING: 0.0625
Info: NONBONDED TABLE SIZE: 705 POINTS
TCL: Running for 1500000 steps
ETITLE: TS BOND ANGLE DIHED IMPRP ELECT VDW BOUNDARY MISC KINETIC TOTAL TEMP POTENTIAL TOTALAVG TEMPAVG PRESSURE GPRESSURE VOLUME PRESSAVG GPRESSAVG
ENERGY: 0 2.4882 11.4969 4.8359 0.0000 -10486.4077 1426.6350 0.0000 0.0000 1750.5981 -7290.3536 302.3652 -9040.9517 -7290.3536 302.3652 253.2764 331.1857 29536.6443 253.2764 331.1857
ENERGY: 300000 1.2727 10.3874 4.1037 0.0000 -10558.9641 1429.9560 0.0000 0.0000 1750.9659 -7362.2785 302.4287 -9113.2443 -7346.4381 302.9470 -151.9797 -104.5473 29933.4694 144.7997 169.2990
ENERGY: 600000 0.3801 8.0390 4.8508 0.0000 -10582.7874 1469.5581 0.0000 0.0000 1737.8893 -7362.0700 300.1701 -9099.9593 -7362.7180 300.5656 391.1358 377.1629 30092.6943 376.9131 414.3852
ENERGY: 900000 3.1527 13.3021 2.9243 0.0000 -10443.8466 1345.5376 0.0000 0.0000 1715.0101 -7363.9198 296.2184 -9078.9299 -7353.6974 299.8057 -501.1683 -429.1186 29650.1154 178.9588 224.1383
ENERGY: 1200000 2.5005 7.0902 5.7272 0.0000 -10432.8649 1330.4051 0.0000 0.0000 1732.4758 -7354.6662 299.2351 -9087.1420 -7364.3505 298.6441 -878.1866 -796.8542 30122.4274 122.5960 172.1323
ENERGY: 1500000 1.8930 11.7513 5.3861 0.0000 -10512.1457 1384.3392 0.0000 0.0000 1717.7553 -7391.0208 296.6926 -9108.7761 -7369.6491 298.1566 -434.5559 -317.8512 29881.1693 100.8861 152.9043
TCL: Running FEP window  11: Lambda1 0.49999999999999994 Lambda2 0.5499999999999999 [dLambda 0.04999999999999999]
TCL: Setting parameter firsttimestep to 0
TCL: Setting parameter alchLambda to 0.49999999999999994
Info: NONBONDED TABLE R-SQUARED SPACING: 0.0625
Info: NONBONDED TABLE SIZE: 705 POINTS
TCL: Setting parameter alchLambda2 to 0.5499999999999999
Info: NONBONDED TABLE R-SQUARED SPACING: 0.0625
Info: NONBONDED TABLE SIZE: 705 POINTS
TCL: Running for 1500000 steps
ETITLE: TS BOND ANGLE DIHED IMPRP ELECT VDW BOUNDARY MISC KINETIC TOTAL TEMP POTENTIAL TOTALAVG TEMPAVG PRESSURE GPRESSURE VOLUME PRESSAVG GPRESSAVG
ENERGY: 0 1.8930 11.7513 5.3861 0.0000 -10512.1463 1384.2140 0.0000 0.0000 1716.9105 -7391.9914 296.5467 -9108.9019 -7391.9914 296.5467 -394.2439 -311.8781 29881.1693 -394.2439 -311.8781
ENERGY: 300000 1.1001 9.5213 5.3568 0.0000 -10549.5846 1447.5404 0.0000 0.0000 1743.6579 -7342.4082 301.1665 -9086.0661 -7362.4056 296.9116 338.3638 406.4897 29832.0201 -283.8705 -201.6203
ENERGY: 600000 0.3307 13.1660 5.2891 0.0000 -10416.3236 1323.4211 0.0000 0.0000 1753.0601 -7321.0566 302.7904 -9074.1167 -7356.1172 297.4150 -481.4172 -401.3135 29525.2613 -157.4544 -82.0594
ENERGY: 900000 2.1202 10.1714 4.8623 0.0000 -10520.2070 1448.6312 0.0000 0.0000 1749.6260 -7304.7957 302.1973 -9054.4217 -7349.1683 299.2955 478.0576 507.4839 29851.9907 -111.1482 -53.8962
ENERGY: 1200000 1.8456 9.8819 3.9183 0.0000 -10603.0768 1454.2465 0.0000 0.0000 1785.7995 -7347.3850 308.4452 -9133.1845 -7350.4300 300.4662 99.6594 197.7261 29900.7757 -92.9297 -30.2306
ENERGY: 1500000 2.7815 7.8403 5.1231 0.0000 -10635.3672 1472.6417 0.0000 0.0000 1724.2314 -7422.7491 297.8111 -9146.9805 -7354.6708 300.6702 139.6608 205.2730 30045.4762 -123.3520 -55.3682
TCL: Running FEP window  12: Lambda1 0.5499999999999999 Lambda2 0.6    [dLambda 0.050000000000000044]
TCL: Setting parameter firsttimestep to 0
TCL: Setting parameter alchLambda to 0.5499999999999999
Info: NONBONDED TABLE R-SQUARED SPACING: 0.0625
Info: NONBONDED TABLE SIZE: 705 POINTS
TCL: Setting parameter alchLambda2 to 0.6
Info: NONBONDED TABLE R-SQUARED SPACING: 0.0625
Info: NONBONDED TABLE SIZE: 705 POINTS
TCL: Running for 1500000 steps
ETITLE: TS BOND ANGLE DIHED IMPRP ELECT VDW BOUNDARY MISC KINETIC TOTAL TEMP POTENTIAL TOTALAVG TEMPAVG PRESSURE GPRESSURE VOLUME PRESSAVG GPRESSAVG
ENERGY: 0 2.7815 7.8403 5.1231 0.0000 -10635.3273 1472.1899 0.0000 0.0000 1723.3555 -7424.0370 297.6598 -9147.3925 -7424.0370 297.6598 122.0768 209.1388 30045.4762 122.0768 209.1388
ENERGY: 300000 1.0332 9.9020 3.1969 0.0000 -10521.0748 1343.9319 0.0000 0.0000 1724.5677 -7438.4430 297.8692 -9163.0107 -7422.1062 296.2022 -751.4071 -661.0345 29802.6402 -233.3691 -159.4569
ENERGY: 600000 1.9458 9.6119 4.4224 0.0000 -10462.6354 1363.6698 0.0000 0.0000 1758.2345 -7324.7510 303.6842 -9082.9855 -7400.6046 297.6495 -244.1870 -179.1334 29838.5620 -216.5836 -152.5939
ENERGY: 900000 2.8015 11.5051 4.7058 0.0000 -10515.3330 1411.3360 0.0000 0.0000 1704.4081 -7380.5764 294.3872 -9084.9846 -7383.3605 297.6441 -117.6117 -48.3963 29777.7845 -175.9375 -114.8327
ENERGY: 1200000 2.0547 11.0363 4.5112 0.0000 -10544.8358 1384.3278 0.0000 0.0000 1724.3272 -7418.5786 297.8277 -9142.9058 -7389.6057 297.7166 -535.8432 -472.5401 29925.5570 -307.4004 -241.7926
ENERGY: 1500000 1.7534 7.8414 3.1414 0.0000 -10403.6705 1369.2599 0.0000 0.0000 1776.9358 -7244.7386 306.9143 -9021.6744 -7370.8048 298.8554 -91.4448 -32.7865 29919.4004 -273.0818 -212.6408
TCL: Running FEP window  13: Lambda1 0.6    Lambda2 0.65   [dLambda 0.050000000000000044]
TCL: Setting parameter firsttimestep to 0
TCL: Setting parameter alchLambda to 0.6
Info: NONBONDED TABLE R-SQUARED SPACING: 0.0625
Info: NONBONDED TABLE SIZE: 705 POINTS
TCL: Setting parameter alchLambda2 to 0.65
Info: NONBONDED TABLE R-SQUARED SPACING: 0.0625
Info: NONBONDED TABLE SIZE: 705 POINTS
TCL: Running for 1500000 steps
ETITLE: TS BOND ANGLE DIHED IMPRP ELECT VDW BOUNDARY MISC KINETIC TOTAL TEMP POTENTIAL TOTALAVG TEMPAVG PRESSURE GPRESSURE VOLUME PRESSAVG GPRESSAVG
ENERGY: 0 1.7534 7.8414 3.1414 0.0000 -10403.6575 1368.9186 0.0000 0.0000 1776.0718 -7245.9310 306.7651 -9022.0028 -7245.9310 306.7651 -124.7024 -28.6256 29919.4004 -124.7024 -28.6256
ENERGY: 300000 3.4240 12.4107 3.0249 0.0000 -10603.8823 1444.9107 0.0000 0.0000 1762.0775 -7378.0344 304.3480 -9140.1120 -7324.7855 304.5191 253.4685 321.7222 29630.4433 182.5467 256.6505
ENERGY: 600000 3.2619 8.7867 5.1163 0.0000 -10434.2680 1362.0916 0.0000 0.0000 1748.5408 -7306.4708 302.0099 -9055.0115 -7324.5195 302.6526 -259.4029 -221.6573 29954.4891 40.9022 114.0715
ENERGY: 900000 0.7479 7.7436 4.3689 0.0000 -10587.5233 1432.1534 0.0000 0.0000 1738.3686 -7404.1410 300.2529 -9142.5095 -7350.7541 301.9262 250.6477 320.1342 29581.0385 8.5076 74.9876
ENERGY: 1200000 0.8986 8.5576 4.7429 0.0000 -10576.6493 1464.9062 0.0000 0.0000 1711.3085 -7386.2354 295.5791 -9097.5439 -7359.1647 301.0448 587.4279 587.8571 29657.2470 33.2002 88.7901
ENERGY: 1500000 1.5546 10.5250 4.6783 0.0000 -10306.9743 1266.8130 0.0000 0.0000 1725.9586 -7297.4448 298.1094 -9023.4034 -7357.8798 300.2056 -1305.0188 -1171.1479 30375.1377 -89.7144 -31.4571
TCL: Running FEP window  14: Lambda1 0.65   Lambda2 0.7000000000000001 [dLambda 0.050000000000000044]
TCL: Setting parameter firsttimestep to 0
TCL: Setting parameter alchLambda to 0.65
Info: NONBONDED TABLE R-SQUARED SPACING: 0.0625
Info: NONBONDED TABLE SIZE: 705 POINTS
TCL: Setting parameter alchLambda2 to 0.7000000000000001
Info: NONBONDED TABLE R-SQUARED SPACING: 0.0625
Info: NONBONDED TABLE SIZE: 705 POINTS
TCL: Running for 1500000 steps
ETITLE: TS BOND ANGLE DIHED IMPRP ELECT VDW BOUNDARY MISC KINETIC TOTAL TEMP POTENTIAL TOTALAVG TEMPAVG PRESSURE GPRESSURE VOLUME PRESSAVG GPRESSAVG
ENERGY: 0 1.5546 10.5250 4.6783 0.0000 -10307.1286 1266.4528 0.0000 0.0000 1725.0626 -7298.8554 297.9547 -9023.9180 -7298.8554 297.9547 -1247.6729 -1165.9290 30375.1377 -1247.6729 -1165.9290
ENERGY: 300000 1.7054 6.5024 4.6130 0.0000 -10435.3308 1330.6849 0.0000 0.0000 1716.8335 -7374.9916 296.5334 -9091.8251 -7344.2730 300.4768 -624.6954 -575.0084 29932.4148 -319.4587 -250.3950
ENERGY: 600000 2.4039 8.7679 4.4295 0.0000 -10430.9223 1384.8540 0.0000 0.0000 1757.8203 -7272.6467 303.6126 -9030.4669 -7333.0807 300.6951 43.2915 111.1502 29768.4870 -346.1125 -283.7631
ENERGY: 900000 2.3697 6.1826 4.5472 0.0000 -10234.5369 1218.2854 0.0000 0.0000 1733.2645 -7269.8873 299.3713 -9003.1519 -7323.3336 302.0156 -1455.3814 -1434.5721 30133.5779 -347.9385 -298.8756
ENERGY: 1200000 2.7069 9.9094 4.0692 0.0000 -10550.5096 1329.0608 0.0000 0.0000 1735.5997 -7469.1637 299.7747 -9204.7634 -7342.1163 301.4109 -899.7828 -878.3363 29684.7348 -267.0626 -225.7628
ENERGY: 1500000 0.3616 8.7902 4.0278 0.0000 -10508.0298 1410.6816 0.0000 0.0000 1751.4425 -7332.7260 302.5111 -9084.1685 -7350.0902 300.5585 22.3185 78.1965 30037.6599 -218.2980 -177.7308
TCL: Running FEP window  15: Lambda1 0.7000000000000001 Lambda2 0.7500000000000001 [dLambda 0.050000000000000044]
TCL: Setting parameter firsttimestep to 0
TCL: Setting parameter alchLambda to 0.7000000000000001
Info: NONBONDED TABLE R-SQUARED SPACING: 0.0625
Info: NONBONDED TABLE SIZE: 705 POINTS
TCL: Setting parameter alchLambda2 to 0.7500000000000001
Info: NONBONDED TABLE R-SQUARED SPACING: 0.0625
Info: NONBONDED TABLE SIZE: 705 POINTS
TCL: Running for 1500000 steps
ETITLE: TS BOND ANGLE DIHED IMPRP ELECT VDW BOUNDARY MISC KINETIC TOTAL TEMP POTENTIAL TOTALAVG TEMPAVG PRESSURE GPRESSURE VOLUME PRESSAVG GPRESSAVG
ENERGY: 0 0.3616 8.7902 4.0278 0.0000 -10509.0818 1410.8125 0.0000 0.0000 1750.5810 -7334.5087 302.3622 -9085.0897 -7334.5087 302.3622 4.9398 87.2012 30037.6599 4.9398 87.2012
ENERGY: 300000 2.0446 8.5555 4.1241 0.0000 -10548.3546 1434.1205 0.0000 0.0000 1731.2941 -7368.2158 299.0310 -9099.5099 -7343.0911 300.9645 184.4815 265.0868 29743.9988 124.4293 183.1035
ENERGY: 600000 2.5129 7.2762 4.2348 0.0000 -10484.5868 1397.6831 0.0000 0.0000 1717.2716 -7355.6081 296.6090 -9072.8797 -7343.9495 300.6770 -148.0973 -143.8312 30067.9146 2.5037 56.7065
ENERGY: 900000 3.2027 8.0419 3.7433 0.0000 -10517.8745 1478.0957 0.0000 0.0000 1773.3886 -7251.4024 306.3016 -9024.7910 -7344.5001 300.4745 609.6979 656.4944 30279.5813 122.3497 181.3348
ENERGY: 1200000 0.9284 7.4634 3.5266 0.0000 -10553.4821 1408.7903 0.0000 0.0000 1795.0221 -7337.7513 310.0382 -9132.7734 -7343.6861 301.3578 -148.5519 -34.1607 29955.7162 74.0848 137.2620
ENERGY: 1500000 4.4599 11.1265 3.8878 0.0000 -10498.8763 1397.0361 0.0000 0.0000 1668.9345 -7413.4315 288.2602 -9082.3660 -7347.0562 300.8272 -524.2958 -414.5174 30036.1800 -35.2986 29.8359
TCL: Running FEP window  16: Lambda1 0.7500000000000001 Lambda2 0.8000000000000002 [dLambda 0.050000000000000044]
TCL: Setting parameter firsttimestep to 0
TCL: Setting parameter alchLambda to 0.7500000000000001
Info: NONBONDED TABLE R-SQUARED SPACING: 0.0625
Info: NONBONDED TABLE SIZE: 705 POINTS
TCL: Setting parameter alchLambda2 to 0.8000000000000002
Info: NONBONDED TABLE R-SQUARED SPACING: 0.0625
Info: NONBONDED TABLE SIZE: 705 POINTS
TCL: Running for 1500000 steps
ETITLE: TS BOND ANGLE DIHED IMPRP ELECT VDW BOUNDARY MISC KINETIC TOTAL TEMP POTENTIAL TOTALAVG TEMPAVG PRESSURE GPRESSURE VOLUME PRESSAVG GPRESSAVG
ENERGY: 0 4.4599 11.1265 3.8878 0.0000 -10499.0878 1397.0671 0.0000 0.0000 1668.0847 -7414.4618 288.1134 -9082.5465 -7414.4618 288.1134 -465.8884 -404.6052 30036.1800 -465.8884 -404.6052
ENERGY: 300000 1.0960 9.4415 3.9371 0.0000 -10447.4630 1337.6367 0.0000 0.0000 1732.2564 -7363.0954 299.1972 -9095.3518 -7361.4390 296.7630 -686.5992 -608.6300 30097.7092 -239.6718 -185.2176
ENERGY: 600000 4.2893 11.3932 5.0720 0.0000 -10380.1673 1316.4222 0.0000 0.0000 1745.4381 -7297.5525 301.4740 -9042.9906 -7342.9839 299.0723 -715.3645 -673.8502 30160.5568 -238.0119 -174.4676
ENERGY: 900000 1.9095 10.1532 4.1492 0.0000 -10667.2350 1536.0364 0.0000 0.0000 1690.5639 -7424.4228 291.9960 -9114.9867 -7354.7444 298.1713 920.5096 1005.6345 29690.6430 -102.2448 -32.4176
ENERGY: 1200000 1.9011 12.7347 5.8264 0.0000 -10523.1271 1457.7583 0.0000 0.0000 1751.2225 -7293.6841 302.4731 -9044.9065 -7367.2015 297.7923 628.6363 713.7489 29785.6521 -88.9232 -23.6417
ENERGY: 1500000 2.2419 7.0560 6.3973 0.0000 -10594.4524 1447.0488 0.0000 0.0000 1754.0460 -7377.6624 302.9607 -9131.7084 -7366.5848 298.4225 246.7251 299.8891 29825.1034 -14.1786 50.9727
TCL: Running FEP window  17: Lambda1 0.8000000000000002 Lambda2 0.8500000000000002 [dLambda 0.050000000000000044]
TCL: Setting parameter firsttimestep to 0
TCL: Setting parameter alchLambda to 0.8000000000000002
Info: NONBONDED TABLE R-SQUARED SPACING: 0.0625
Info: NONBONDED TABLE SIZE: 705 POINTS
TCL: Setting parameter alchLambda2 to 0.8500000000000002
Info: NONBONDED TABLE R-SQUARED SPACING: 0.0625
Info: NONBONDED TABLE SIZE: 705 POINTS
TCL: Running for 1500000 steps
ETITLE: TS BOND ANGLE DIHED IMPRP ELECT VDW BOUNDARY MISC KINETIC TOTAL TEMP POTENTIAL TOTALAVG TEMPAVG PRESSURE GPRESSURE VOLUME PRESSAVG GPRESSAVG
ENERGY: 0 2.2419 7.0560 6.3973 0.0000 -10594.6299 1446.8833 0.0000 0.0000 1753.1836 -7378.8678 302.8118 -9132.0514 -7378.8678 302.8118 228.2580 309.6876 29825.1034 228.2580 309.6876
ENERGY: 300000 0.7466 12.2700 6.1079 0.0000 -10281.1063 1252.5542 0.0000 0.0000 1745.6929 -7263.7346 301.5180 -9009.4276 -7336.0614 302.1978 -1224.1783 -1140.2868 30461.9456 -411.8272 -338.5529
ENERGY: 600000 2.1599 14.8004 4.0320 0.0000 -10527.3954 1354.2720 0.0000 0.0000 1747.8423 -7404.2888 301.8892 -9152.1310 -7333.3197 302.6152 -662.6770 -589.5512 29747.1865 -196.4656 -121.1770
ENERGY: 900000 2.9453 15.0026 4.2916 0.0000 -10497.7565 1380.6725 0.0000 0.0000 1783.4616 -7311.3829 308.0414 -9094.8444 -7341.6834 302.4429 -157.7022 -113.5785 29833.2476 -123.5349 -51.6329
ENERGY: 1200000 4.6235 12.0428 5.5844 0.0000 -10448.8756 1409.0220 0.0000 0.0000 1738.0566 -7279.5463 300.1990 -9017.6029 -7333.0231 302.2415 -230.0963 -167.2381 30426.1557 -297.7870 -221.9542
ENERGY: 1500000 0.7347 9.9888 4.0326 0.0000 -10407.7969 1351.9226 0.0000 0.0000 1736.7108 -7304.4074 299.9666 -9041.1182 -7340.8669 302.2797 -500.5442 -455.3115 30480.6565 -195.1957 -121.2514
TCL: Running FEP window  18: Lambda1 0.8500000000000002 Lambda2 0.9000000000000002 [dLambda 0.050000000000000044]
TCL: Setting parameter firsttimestep to 0
TCL: Setting parameter alchLambda to 0.8500000000000002
Info: NONBONDED TABLE R-SQUARED SPACING: 0.0625
Info: NONBONDED TABLE SIZE: 705 POINTS
TCL: Setting parameter alchLambda2 to 0.9000000000000002
Info: NONBONDED TABLE R-SQUARED SPACING: 0.0625
Info: NONBONDED TABLE SIZE: 705 POINTS
TCL: Running for 1500000 steps
ETITLE: TS BOND ANGLE DIHED IMPRP ELECT VDW BOUNDARY MISC KINETIC TOTAL TEMP POTENTIAL TOTALAVG TEMPAVG PRESSURE GPRESSURE VOLUME PRESSAVG GPRESSAVG
ENERGY: 0 0.7347 9.9888 4.0326 0.0000 -10409.1755 1352.7341 0.0000 0.0000 1735.8149 -7305.8705 299.8118 -9041.6854 -7305.8705 299.8118 -530.5471 -437.9818 30480.6565 -530.5471 -437.9818
ENERGY: 300000 1.7560 10.8064 4.1016 0.0000 -10560.5445 1464.9996 0.0000 0.0000 1704.2616 -7374.6194 294.3619 -9078.8810 -7329.3548 297.7172 369.9183 480.2613 30149.3734 -116.5537 -29.2898
ENERGY: 600000 0.2205 8.8354 3.6742 0.0000 -10541.9110 1480.1162 0.0000 0.0000 1717.7510 -7331.3137 296.6918 -9049.0647 -7333.5169 299.3201 619.2955 678.4740 30035.8403 -14.2050 54.1717
ENERGY: 900000 3.3858 11.1277 4.1622 0.0000 -10411.5386 1346.4287 0.0000 0.0000 1767.9296 -7278.5046 305.3587 -9046.4342 -7334.0184 299.5821 -200.9227 -144.0602 29576.6379 -145.6076 -72.1632
ENERGY: 1200000 0.8489 9.5078 4.9811 0.0000 -10533.5137 1423.4669 0.0000 0.0000 1785.9797 -7308.7292 308.4764 -9094.7089 -7336.9795 300.1290 366.8583 429.9668 29678.6929 -34.1743 41.9337
ENERGY: 1500000 4.3151 10.5092 4.9135 0.0000 -10422.5853 1359.3986 0.0000 0.0000 1757.7625 -7285.6864 303.6027 -9043.4489 -7340.5745 300.7721 -443.7171 -413.5542 30250.0212 -22.2006 43.3156
TCL: Running FEP window  19: Lambda1 0.9000000000000002 Lambda2 0.9500000000000003 [dLambda 0.050000000000000044]
TCL: Setting parameter firsttimestep to 0
TCL: Setting parameter alchLambda to 0.9000000000000002
Info: NONBONDED TABLE R-SQUARED SPACING: 0.0625
Info: NONBONDED TABLE SIZE: 705 POINTS
TCL: Setting parameter alchLambda2 to 0.9500000000000003
Info: NONBONDED TABLE R-SQUARED SPACING: 0.0625
Info: NONBONDED TABLE SIZE: 705 POINTS
TCL: Running for 1500000 steps
ETITLE: TS BOND ANGLE DIHED IMPRP ELECT VDW BOUNDARY MISC KINETIC TOTAL TEMP POTENTIAL TOTALAVG TEMPAVG PRESSURE GPRESSURE VOLUME PRESSAVG GPRESSAVG
ENERGY: 0 4.3151 10.5092 4.9135 0.0000 -10423.8003 1359.6596 0.0000 0.0000 1756.9117 -7287.4912 303.4557 -9044.4029 -7287.4912 303.4557 -497.7970 -403.2471 30250.0212 -497.7970 -403.2471
ENERGY: 300000 1.6178 14.8464 5.5059 0.0000 -10423.2234 1329.6348 0.0000 0.0000 1738.9139 -7332.7046 300.3471 -9071.6186 -7345.9145 301.2208 -583.2724 -552.5326 30240.6278 -419.8433 -359.2705
ENERGY: 600000 1.9775 8.1053 4.9503 0.0000 -10608.1442 1507.2321 0.0000 0.0000 1717.8891 -7367.9899 296.7157 -9085.8790 -7353.2388 298.9739 702.3311 798.8759 29763.2166 -122.6156 -55.6956
ENERGY: 900000 1.4235 11.7818 4.3172 0.0000 -10422.5632 1306.5721 0.0000 0.0000 1684.4104 -7414.0582 290.9332 -9098.4686 -7358.8259 298.9093 -1015.3507 -914.7982 30259.0094 -192.4113 -127.0664
ENERGY: 1200000 1.8195 11.1943 5.8130 0.0000 -10425.4296 1335.8969 0.0000 0.0000 1726.7402 -7343.9657 298.2445 -9070.7059 -7350.5492 298.5662 -381.6802 -311.8169 29675.9371 -85.4043 -20.6216
ENERGY: 1500000 1.2597 11.7309 4.0322 0.0000 -10570.0627 1446.6134 0.0000 0.0000 1765.0819 -7341.3444 304.8669 -9106.4263 -7354.4437 299.0419 329.8808 394.8543 29598.2719 -47.3697 18.2914
TCL: Running FEP window  20: Lambda1 0.9500000000000003 Lambda2 1.0    [dLambda 0.04999999999999971]
TCL: Setting parameter firsttimestep to 0
TCL: Setting parameter alchLambda to 0.9500000000000003
Info: NONBONDED TABLE R-SQUARED SPACING: 0.0625
Info: NONBONDED TABLE SIZE: 705 POINTS
TCL: Setting parameter alchLambda2 to 1.0
Info: NONBONDED TABLE R-SQUARED SPACING: 0.0625
Info: NONBONDED TABLE SIZE: 705 POINTS
TCL: Running for 1500000 steps
ETITLE: TS BOND ANGLE DIHED IMPRP ELECT VDW BOUNDARY MISC KINETIC TOTAL TEMP POTENTIAL TOTALAVG TEMPAVG PRESSURE GPRESSURE VOLUME PRESSAVG GPRESSAVG
ENERGY: 0 1.2597 11.7309 4.0322 0.0000 -10571.5063 1448.4567 0.0000 0.0000 1764.1760 -7341.8506 304.7104 -9106.0266 -7341.8506 304.7104 347.3047 429.2097 29598.2719 347.3047 429.2097
ENERGY: 300000 4.1366 11.3148 3.4231 0.0000 -10554.1360 1399.8593 0.0000 0.0000 1756.3788 -7379.0235 303.3637 -9135.4022 -7384.0206 302.8114 -328.8459 -301.9329 30124.8918 48.5291 138.5754
ENERGY: 600000 2.0784 7.0754 3.6125 0.0000 -10439.3008 1371.9610 0.0000 0.0000 1801.0787 -7253.4948 311.0843 -9054.5735 -7355.7943 304.3612 -414.1897 -329.1361 30591.6968 -208.0644 -116.1770
ENERGY: 900000 1.3508 11.6176 4.7505 0.0000 -10358.9465 1305.0663 0.0000 0.0000 1722.4105 -7313.7507 297.4966 -9036.1612 -7346.4090 303.1988 -937.5171 -841.8014 30376.8995 -235.7142 -155.1916
ENERGY: 1200000 0.5919 13.9709 4.4113 0.0000 -10456.5600 1321.3546 0.0000 0.0000 1738.1981 -7378.0332 300.2235 -9116.2313 -7347.0649 303.8096 -686.3529 -608.7003 29925.6673 -228.2643 -144.8210
ENERGY: 1500000 0.4022 7.9839 4.3712 0.0000 -10425.5495 1337.5190 0.0000 0.0000 1740.2012 -7335.0721 300.5694 -9075.2733 -7342.8647 302.6056 -404.3626 -315.3825 29830.0496 -193.5785 -110.4416
TCL: Exiting due to exit command.
