Info: SIMULATION PARAMETERS:
Info: TIMESTEP               2
Info: NUMBER OF STEPS        0
Info: STEPS PER CYCLE        10
Info: PERIODIC CELL BASIS 1  30.971 0 0
Info: PERIODIC CELL BASIS 2  0 30.3283 0
Info: PERIODIC CELL BASIS 3  0 0 32.0448
Info: PERIODIC CELL CENTER   0 0 0
Info: WRAPPING WATERS AROUND PERIODIC BOUNDARIES ON OUTPUT.
Info: WRAPPING ALL CLUSTERS AROUND PERIODIC BOUNDARIES ON OUTPUT.
Info: FIRST LDB TIMESTEP     50
Info: LAST LDB TIMESTEP     -1
Info: HOM BACKGROUND SCALING 1
Info: PME BACKGROUND SCALING 1
Info: MIN ATOMS PER PATCH    40
Info: EMPTY PATCH LOAD       40 ATOMS
Info: VELOCITY FILE          mobley_1977493_equil.vel
Info: CENTER OF MASS MOVING INITIALLY? NO
Info: DIELECTRIC             1
Info: EXCLUDE                SCALED ONE-FOUR
Info: 1-4 ELECTROSTATICS SCALED BY 0.833333
Info: MODIFIED 1-4 VDW PARAMETERS WILL BE USED
Info: DCD FILENAME           mobley_1977493_prod.dcd
Info: DCD FREQUENCY          100000
Info: DCD FIRST STEP         100000
Info: DCD FILE WILL CONTAIN UNIT CELL DATA
Info: XST FILENAME           mobley_1977493_prod.xst
Info: XST FREQUENCY          100000
Info: NO VELOCITY DCD OUTPUT
Info: NO FORCE DCD OUTPUT
Info: OUTPUT FILENAME        mobley_1977493_prod
Info: BINARY OUTPUT FILES WILL BE USED
Info: RESTART FILENAME       mobley_1977493_prod.restart
Info: RESTART FREQUENCY      100000
Info: BINARY RESTART FILES WILL BE USED
Info: CUTOFF                 9
Info: PAIRLIST DISTANCE      11
Info: PAIRLIST SHRINK RATE   0.01
Info: PAIRLIST GROW RATE     0.01
Info: PAIRLIST TRIGGER       0.3
Info: PAIRLISTS PER CYCLE    2
Info: PAIRLISTS ENABLED
Info: MARGIN                 2
Info: HYDROGEN GROUP CUTOFF  2.5
Info: PATCH DIMENSION        15.5
Info: ENERGY OUTPUT STEPS    100000
Info: ENERGY EVALUATION STEPS    100000
Info: OUTPUT ENERGY PRECISION 4
Info: CROSSTERM ENERGY INCLUDED IN DIHEDRAL
Info: TIMING OUTPUT STEPS    1000000
Info: PRESSURE OUTPUT STEPS  100000
Info: ALCHEMICAL FEP ON
Info: FEP CURRENT LAMBDA VALUE     1
Info: FEP COMPARISON LAMBDA VALUE  0.95
Info: FEP INTRA-ALCHEMICAL NON-BONDED INTERACTIONS WILL BE RETAINED
Info: FEP INTRA-ALCHEMICAL BONDED INTERACTIONS WILL BE RETAINED
Info: FEP VDW SHIFTING COEFFICIENT 5
Info: FEP ELEC. ACTIVE FOR ANNIHILATED PARTICLES BETWEEN LAMBDA = 0 AND LAMBDA = 0.5
Info: FEP ELEC. ACTIVE FOR EXNIHILATED PARTICLES BETWEEN LAMBDA = 0.5 AND LAMBDA = 1
Info: FEP VDW ACTIVE FOR ANNIHILATED PARTICLES BETWEEN LAMBDA = 0 AND LAMBDA = 1
Info: FEP VDW ACTIVE FOR EXNIHILATED PARTICLES BETWEEN LAMBDA = 0 AND LAMBDA = 1
Info: FEP BOND ACTIVE FOR ANNIHILATED PARTICLES BETWEEN LAMBDA = 1 AND LAMBDA = 1
Info: FEP BOND ACTIVE FOR EXNIHILATED PARTICLES BETWEEN LAMBDA = 0 AND LAMBDA = 0
Info: LANGEVIN DYNAMICS ACTIVE
Info: LANGEVIN TEMPERATURE   300
Info: LANGEVIN USING BBK INTEGRATOR
Info: LANGEVIN DAMPING COEFFICIENT IS 1 INVERSE PS
Info: LANGEVIN DYNAMICS APPLIED TO HYDROGENS
Info: LANGEVIN PISTON PRESSURE CONTROL ACTIVE
Info:        TARGET PRESSURE IS 1.01325 BAR
Info:     OSCILLATION PERIOD IS 50 FS
Info:             DECAY TIME IS 25 FS
Info:     PISTON TEMPERATURE IS 300 K
Info:       PRESSURE CONTROL IS GROUP-BASED
Info:    INITIAL STRAIN RATE IS -2.53103e-05 -2.53103e-05 -2.53103e-05
Info:       CELL FLUCTUATION IS ISOTROPIC
Info: PARTICLE MESH EWALD (PME) ACTIVE
Info: PME TOLERANCE               1e-06
Info: PME EWALD COEFFICIENT       0.348832
Info: PME INTERPOLATION ORDER     4
Info: PME GRID DIMENSIONS         32 32 36
Info: PME MAXIMUM GRID SPACING    1
Info: PME CALCULATION WILL BE PERFORMED ON GPU
Info: FULL ELECTROSTATIC EVALUATION FREQUENCY      2
Info: USING VERLET I (r-RESPA) MTS SCHEME.
Info: C1 SPLITTING OF LONG RANGE ELECTROSTATICS
Info: PLACING ATOMS IN PATCHES BY HYDROGEN GROUPS
Info: RIGID BONDS TO HYDROGEN : ALL
Info:         ERROR TOLERANCE : 1e-08
Info:          MAX ITERATIONS : 100
Info: RIGID WATER USING SETTLE ALGORITHM
Info: RANDOM NUMBER SEED     1743681004
Info: USE HYDROGEN BONDS?    NO
Info: Using AMBER format force field!
Info: AMBER PARM FILE        mobley_1977493.prmtop
Info: COORDINATE PDB         mobley_1977493.pdb
Info: Exclusions will be read from PARM file!
Info: SCNB (VDW SCALING)     2
Info: USING ARITHMETIC MEAN TO COMBINE L-J SIGMA PARAMETERS
Info: BINARY COORDINATES     mobley_1977493_equil.coor
Info: SUMMARY OF PARAMETERS:
Info: 6 BONDS
Info: 7 ANGLES
Info:   7 HARMONIC
Info:   0 COSINE-BASED
Info: 5 DIHEDRAL
Info: 0 IMPROPER
Info: 0 CROSSTERM
Info: 0 VDW
Info: 21 VDW_PAIRS
Info: 0 NBTHOLE_PAIRS
Info: To read alchdata from file: mobley_1977493.pdb
Info: To read alchflag data from column: 5
Info: STRUCTURE SUMMARY:
Info: 2918 ATOMS
Info: 2917 BONDS
Info: 18 ANGLES
Info: 20 DIHEDRALS
Info: 0 IMPROPERS
Info: 0 CROSSTERMS
Info: 2953 EXCLUSIONS
Info: 2914 RIGID BONDS
Info: ALCH: 0 ATOMS TO DISAPPEAR IN FINAL STATE
Info: ALCH: 11 ATOMS TO APPEAR IN FINAL STATE
Info: 5840 DEGREES OF FREEDOM
Info: 973 HYDROGEN GROUPS
Info: 4 ATOMS IN LARGEST HYDROGEN GROUP
Info: 973 MIGRATION GROUPS
Info: 4 ATOMS IN LARGEST MIGRATION GROUP
Info: TOTAL MASS = 17536 amu
Info: TOTAL CHARGE = -0.000100009 e
Info: MASS DENSITY = 0.967454 g/cm^3
Info: ATOM DENSITY = 0.0969448 atoms/A^3
Info: ADDED 0 IMPLICIT EXCLUSIONS
Info: NONBONDED TABLE R-SQUARED SPACING: 0.0625
Info: NONBONDED TABLE SIZE: 705 POINTS
Info: REMOVING COM VELOCITY -0.185917 0.0585055 0.155706
Info: Use 3D box decompostion in PME FFT.
Info: Updated CUDA force table with 4096 elements.
Info: Updated CUDA LJ table with 6 x 6 elements.
Info: Found 14 unique exclusion lists needing 24 bytes
TCL: Running for 1500000 steps
ETITLE: TS BOND ANGLE DIHED IMPRP ELECT VDW BOUNDARY MISC KINETIC TOTAL TEMP POTENTIAL TOTALAVG TEMPAVG PRESSURE GPRESSURE VOLUME PRESSAVG GPRESSAVG
ENERGY: 0 1.5201 4.5826 1.8608 0.0000 -10551.8899 1416.3835 0.0000 0.0000 1691.5068 -7436.0361 291.5085 -9127.5429 -7436.0361 291.5085 -106.8998 -19.5626 30099.5931 -106.8998 -19.5626
ENERGY: 300000 0.1376 6.2231 0.7801 0.0000 -10574.2489 1376.7053 0.0000 0.0000 1755.4202 -7434.9824 302.5232 -9190.4026 -7474.8622 298.4125 -402.3851 -368.0356 29862.0373 233.2636 293.6695
ENERGY: 600000 0.5405 2.8596 1.6884 0.0000 -10469.4009 1327.9001 0.0000 0.0000 1739.9913 -7396.4210 299.8642 -9136.4123 -7458.7457 298.3423 -783.8710 -729.6420 30204.9909 -43.7441 39.3438
ENERGY: 900000 0.7432 3.9657 1.6643 0.0000 -10716.4380 1446.7292 0.0000 0.0000 1717.3656 -7545.9699 295.9650 -9263.3355 -7470.0167 297.6704 -15.1637 -0.1293 29852.5135 -83.4122 -14.9959
ENERGY: 1200000 1.4825 3.2691 1.2608 0.0000 -10507.0875 1414.2795 0.0000 0.0000 1753.4193 -7333.3763 302.1783 -9086.7957 -7445.9032 299.0804 142.6630 159.3217 30354.5427 -102.0088 -34.3224
ENERGY: 1500000 0.7775 4.0136 0.5209 0.0000 -10530.2326 1398.4096 0.0000 0.0000 1772.7532 -7353.7578 305.5103 -9126.5110 -7437.7819 299.7820 159.4545 190.7901 29893.4835 -99.9946 -37.0080
TCL: Running FEP window   2: Lambda1 0.95   Lambda2 0.8999999999999999 [dLambda -0.050000000000000044]
TCL: Setting parameter firsttimestep to 0
TCL: Setting parameter alchLambda to 0.95
Info: NONBONDED TABLE R-SQUARED SPACING: 0.0625
Info: NONBONDED TABLE SIZE: 705 POINTS
TCL: Setting parameter alchLambda2 to 0.8999999999999999
Info: NONBONDED TABLE R-SQUARED SPACING: 0.0625
Info: NONBONDED TABLE SIZE: 705 POINTS
TCL: Running for 1500000 steps
ETITLE: TS BOND ANGLE DIHED IMPRP ELECT VDW BOUNDARY MISC KINETIC TOTAL TEMP POTENTIAL TOTALAVG TEMPAVG PRESSURE GPRESSURE VOLUME PRESSAVG GPRESSAVG
ENERGY: 0 0.7775 4.0136 0.5209 0.0000 -10530.1366 1398.4314 0.0000 0.0000 1771.8669 -7354.5263 305.3575 -9126.3932 -7354.5263 305.3575 108.2180 180.4390 29893.4835 108.2180 180.4390
ENERGY: 300000 0.5146 1.0853 1.1945 0.0000 -10583.3317 1401.8114 0.0000 0.0000 1782.4477 -7396.2782 307.1810 -9178.7259 -7348.4673 306.0256 68.5427 110.4386 29663.3147 -130.1421 -71.4599
ENERGY: 600000 0.2960 4.2741 1.8304 0.0000 -10593.3703 1444.5294 0.0000 0.0000 1769.4387 -7373.0017 304.9391 -9142.4404 -7357.1670 303.0213 146.1932 227.2094 30146.7955 -237.0119 -167.0124
ENERGY: 900000 3.3518 6.6379 1.0132 0.0000 -10648.4047 1507.7392 0.0000 0.0000 1704.7263 -7424.9363 293.7867 -9129.6626 -7365.6266 302.9560 847.1280 909.4549 29961.5866 -60.9062 7.3161
ENERGY: 1200000 0.7568 3.8022 2.9591 0.0000 -10630.4783 1472.7170 0.0000 0.0000 1718.0907 -7432.1524 296.0899 -9150.2432 -7377.7357 302.3296 294.3696 427.8885 30045.4969 -104.8687 -35.2290
ENERGY: 1500000 1.3342 6.4360 0.8388 0.0000 -10536.7145 1402.3127 0.0000 0.0000 1773.8287 -7351.9640 305.6956 -9125.7928 -7391.8661 302.2424 180.4675 213.1519 29869.0559 -134.3648 -68.9425
TCL: Running FEP window   3: Lambda1 0.8999999999999999 Lambda2 0.8499999999999999 [dLambda -0.050000000000000044]
TCL: Setting parameter firsttimestep to 0
TCL: Setting parameter alchLambda to 0.8999999999999999
Info: NONBONDED TABLE R-SQUARED SPACING: 0.0625
Info: NONBONDED TABLE SIZE: 705 POINTS
TCL: Setting parameter alchLambda2 to 0.8499999999999999
Info: NONBONDED TABLE R-SQUARED SPACING: 0.0625
Info: NONBONDED TABLE SIZE: 705 POINTS
TCL: Running for 1500000 steps
ETITLE: TS BOND ANGLE DIHED IMPRP ELECT VDW BOUNDARY MISC KINETIC TOTAL TEMP POTENTIAL TOTALAVG TEMPAVG PRESSURE GPRESSURE VOLUME PRESSAVG GPRESSAVG
ENERGY: 0 1.3342 6.4360 0.8388 0.0000 -10536.4434 1402.7174 0.0000 0.0000 1772.9716 -7352.1453 305.5479 -9125.1169 -7352.1453 305.5479 125.2927 210.2066 29869.0559 125.2927 210.2066
ENERGY: 300000 0.0829 7.5166 0.6797 0.0000 -10522.3691 1346.2440 0.0000 0.0000 1756.5240 -7411.3218 302.7134 -9167.8458 -7388.3643 301.8244 -647.7157 -652.1861 30270.0422 -357.8836 -315.4000
ENERGY: 600000 0.7999 5.3916 0.6065 0.0000 -10631.4323 1468.9058 0.0000 0.0000 1707.3932 -7448.3353 294.2463 -9155.7285 -7399.8006 299.2436 345.4179 462.6717 30204.5901 -222.5954 -170.7668
ENERGY: 900000 1.1351 6.4131 1.1525 0.0000 -10512.1101 1344.9323 0.0000 0.0000 1721.3470 -7437.1300 296.6511 -9158.4770 -7391.3724 299.3082 -659.3969 -621.9793 30182.1610 -190.5075 -146.1925
ENERGY: 1200000 1.0803 4.5907 0.4255 0.0000 -10454.6882 1318.2169 0.0000 0.0000 1810.2020 -7320.1728 311.9641 -9130.3748 -7375.9346 300.9542 -694.9939 -677.7693 30147.5320 -211.5160 -175.1198
ENERGY: 1500000 1.8316 3.6348 0.5309 0.0000 -10596.1466 1408.4144 0.0000 0.0000 1794.8594 -7386.8755 309.3200 -9181.7349 -7379.2277 301.3976 -164.3201 -127.3777 29945.8930 -222.7026 -181.2637
TCL: Running FEP window   4: Lambda1 0.8499999999999999 Lambda2 0.7999999999999998 [dLambda -0.050000000000000044]
TCL: Setting parameter firsttimestep to 0
TCL: Setting parameter alchLambda to 0.8499999999999999
Info: NONBONDED TABLE R-SQUARED SPACING: 0.0625
Info: NONBONDED TABLE SIZE: 705 POINTS
TCL: Setting parameter alchLambda2 to 0.7999999999999998
Info: NONBONDED TABLE R-SQUARED SPACING: 0.0625
Info: NONBONDED TABLE SIZE: 705 POINTS
TCL: Running for 1500000 steps
ETITLE: TS BOND ANGLE DIHED IMPRP ELECT VDW BOUNDARY MISC KINETIC TOTAL TEMP POTENTIAL TOTALAVG TEMPAVG PRESSURE GPRESSURE VOLUME PRESSAVG GPRESSAVG
ENERGY: 0 1.8316 3.6348 0.5309 0.0000 -10595.8733 1408.7754 0.0000 0.0000 1794.0423 -7387.0582 309.1792 -9181.1005 -7387.0582 309.1792 -192.3412 -128.5812 29945.8930 -192.3412 -128.5812
ENERGY: 300000 2.5219 5.5979 2.0138 0.0000 -10510.7662 1385.3854 0.0000 0.0000 1757.9091 -7357.3382 302.9521 -9115.2472 -7369.8410 302.4344 -15.7135 89.0964 29901.3596 -59.3051 37.2986
ENERGY: 600000 0.4659 2.1411 1.0787 0.0000 -10511.1503 1378.8880 0.0000 0.0000 1776.8231 -7351.7534 306.2117 -9128.5765 -7371.0766 303.1417 -374.1625 -301.4257 30054.4332 -59.1567 30.7442
ENERGY: 900000 0.2439 2.7926 1.3402 0.0000 -10525.3090 1411.5937 0.0000 0.0000 1691.9376 -7417.4010 291.5828 -9109.3387 -7388.9598 301.2389 -12.9845 33.8584 30215.7682 -87.7988 -3.0235
ENERGY: 1200000 0.4576 3.8654 0.4088 0.0000 -10662.3562 1494.0604 0.0000 0.0000 1694.8401 -7468.7240 292.0830 -9163.5641 -7400.4958 300.6639 391.8115 496.0211 29963.4390 24.1055 107.8290
ENERGY: 1500000 0.6505 4.4808 0.9701 0.0000 -10478.6472 1353.8190 0.0000 0.0000 1753.9311 -7364.7957 302.2665 -9118.7268 -7403.0301 300.9887 -354.5422 -340.3718 30301.7152 38.7861 115.0736
TCL: Running FEP window   5: Lambda1 0.7999999999999998 Lambda2 0.7499999999999998 [dLambda -0.050000000000000044]
TCL: Setting parameter firsttimestep to 0
TCL: Setting parameter alchLambda to 0.7999999999999998
Info: NONBONDED TABLE R-SQUARED SPACING: 0.0625
Info: NONBONDED TABLE SIZE: 705 POINTS
TCL: Setting parameter alchLambda2 to 0.7499999999999998
Info: NONBONDED TABLE R-SQUARED SPACING: 0.0625
Info: NONBONDED TABLE SIZE: 705 POINTS
TCL: Running for 1500000 steps
ETITLE: TS BOND ANGLE DIHED IMPRP ELECT VDW BOUNDARY MISC KINETIC TOTAL TEMP POTENTIAL TOTALAVG TEMPAVG PRESSURE GPRESSURE VOLUME PRESSAVG GPRESSAVG
ENERGY: 0 0.6505 4.4808 0.9701 0.0000 -10478.4851 1353.4467 0.0000 0.0000 1753.0511 -7365.8859 302.1149 -9118.9371 -7365.8859 302.1149 -430.9995 -350.7561 30301.7152 -430.9995 -350.7561
ENERGY: 300000 0.4050 5.1035 2.0615 0.0000 -10663.1041 1452.1173 0.0000 0.0000 1766.2441 -7437.1726 304.3885 -9203.4167 -7409.4304 299.9010 4.4446 51.8210 30136.5726 -39.0475 8.7449
ENERGY: 600000 1.1175 3.1132 1.6509 0.0000 -10528.4429 1406.4513 0.0000 0.0000 1749.8501 -7366.2600 301.5632 -9116.1100 -7405.8753 300.1867 -347.5100 -165.4535 30628.6212 -91.8429 -21.4186
ENERGY: 900000 1.1118 5.1679 1.5638 0.0000 -10505.8724 1331.7331 0.0000 0.0000 1705.1609 -7461.1349 293.8616 -9166.2958 -7402.7047 300.6055 -859.5706 -803.3588 30460.4625 -147.0030 -78.5871
ENERGY: 1200000 1.2056 6.0832 0.9513 0.0000 -10669.2269 1471.6089 0.0000 0.0000 1703.5086 -7485.8694 293.5769 -9189.3780 -7402.7510 301.6026 179.3633 146.8544 30171.0653 -28.7072 28.1627
ENERGY: 1500000 1.0462 1.5676 1.3298 0.0000 -10600.1950 1419.0116 0.0000 0.0000 1715.3313 -7461.9085 295.6144 -9177.2398 -7411.0845 300.4085 -165.9809 -55.8214 30050.9035 -33.6566 27.8147
TCL: Running FEP window   6: Lambda1 0.7499999999999998 Lambda2 0.6999999999999997 [dLambda -0.050000000000000044]
TCL: Setting parameter firsttimestep to 0
TCL: Setting parameter alchLambda to 0.7499999999999998
Info: NONBONDED TABLE R-SQUARED SPACING: 0.0625
Info: NONBONDED TABLE SIZE: 705 POINTS
TCL: Setting parameter alchLambda2 to 0.6999999999999997
Info: NONBONDED TABLE R-SQUARED SPACING: 0.0625
Info: NONBONDED TABLE SIZE: 705 POINTS
TCL: Running for 1500000 steps
ETITLE: TS BOND ANGLE DIHED IMPRP ELECT VDW BOUNDARY MISC KINETIC TOTAL TEMP POTENTIAL TOTALAVG TEMPAVG PRESSURE GPRESSURE VOLUME PRESSAVG GPRESSAVG
ENERGY: 0 1.0462 1.5676 1.3298 0.0000 -10599.9860 1419.1521 0.0000 0.0000 1714.4040 -7462.4862 295.4546 -9176.8902 -7462.4862 295.4546 -138.5759 -62.0395 30050.9035 -138.5759 -62.0395
ENERGY: 300000 0.7473 4.0736 0.7070 0.0000 -10546.5534 1457.9725 0.0000 0.0000 1766.9359 -7316.1171 304.5077 -9083.0530 -7426.2233 299.5316 426.9512 476.8205 30503.8414 -147.4395 -101.3122
ENERGY: 600000 0.5028 2.0491 1.3749 0.0000 -10546.1058 1403.5076 0.0000 0.0000 1751.9572 -7386.7142 301.9264 -9138.6714 -7424.8718 298.5576 -106.1971 22.5792 30073.7096 105.6334 170.8515
ENERGY: 900000 0.4205 2.4010 1.1752 0.0000 -10575.5842 1413.5615 0.0000 0.0000 1736.2357 -7421.7902 299.2170 -9158.0259 -7405.3530 299.6006 -219.9419 -116.2868 30276.9430 76.1172 145.6514
ENERGY: 1200000 0.8220 5.9372 1.0950 0.0000 -10518.2819 1376.3561 0.0000 0.0000 1836.1065 -7297.9651 316.4284 -9134.0716 -7400.6259 300.3169 -156.4593 -143.3776 30187.9780 -16.6890 53.2729
ENERGY: 1500000 0.8668 6.0840 2.7094 0.0000 -10488.6122 1315.5357 0.0000 0.0000 1697.9709 -7465.4455 292.6226 -9163.4164 -7411.6508 299.1535 -809.3353 -807.7560 30013.0254 -112.3127 -46.0127
TCL: Running FEP window   7: Lambda1 0.6999999999999997 Lambda2 0.6499999999999997 [dLambda -0.050000000000000044]
TCL: Setting parameter firsttimestep to 0
TCL: Setting parameter alchLambda to 0.6999999999999997
Info: NONBONDED TABLE R-SQUARED SPACING: 0.0625
Info: NONBONDED TABLE SIZE: 705 POINTS
TCL: Setting parameter alchLambda2 to 0.6499999999999997
Info: NONBONDED TABLE R-SQUARED SPACING: 0.0625
Info: NONBONDED TABLE SIZE: 705 POINTS
TCL: Running for 1500000 steps
ETITLE: TS BOND ANGLE DIHED IMPRP ELECT VDW BOUNDARY MISC KINETIC TOTAL TEMP POTENTIAL TOTALAVG TEMPAVG PRESSURE GPRESSURE VOLUME PRESSAVG GPRESSAVG
ENERGY: 0 0.8668 6.0840 2.7094 0.0000 -10488.3421 1315.2591 0.0000 0.0000 1697.0651 -7466.3576 292.4664 -9163.4228 -7466.3576 292.4664 -876.4642 -818.0129 30013.0254 -876.4642 -818.0129
ENERGY: 300000 0.2301 2.2416 1.3851 0.0000 -10448.0998 1348.6736 0.0000 0.0000 1780.6467 -7314.9228 306.8706 -9095.5695 -7431.0078 297.5772 -486.7566 -444.6564 30282.3376 -482.4828 -425.2889
ENERGY: 600000 2.0172 2.7541 1.3450 0.0000 -10653.8368 1440.2959 0.0000 0.0000 1764.4514 -7442.9732 304.0796 -9207.4246 -7416.6357 299.4199 -184.5759 -1.1505 29803.9371 -287.7719 -208.9375
ENERGY: 900000 0.1264 5.0993 0.5083 0.0000 -10485.6230 1361.0302 0.0000 0.0000 1735.0933 -7383.7655 299.0201 -9118.8588 -7390.1671 300.1632 -623.0937 -555.3313 30734.7239 -156.6494 -85.6559
ENERGY: 1200000 0.8779 6.8023 1.0713 0.0000 -10604.0898 1410.6656 0.0000 0.0000 1732.7335 -7451.9393 298.6134 -9184.6728 -7393.7036 301.1574 -251.9307 -233.6740 30247.4812 -153.1483 -79.1433
ENERGY: 1500000 0.9060 7.4482 1.0126 0.0000 -10574.2115 1366.2481 0.0000 0.0000 1742.3848 -7456.2118 300.2767 -9198.5966 -7395.1910 301.8497 -567.5896 -478.4921 29693.8453 -171.1902 -102.8167
TCL: Running FEP window   8: Lambda1 0.6499999999999997 Lambda2 0.5999999999999996 [dLambda -0.050000000000000044]
TCL: Setting parameter firsttimestep to 0
TCL: Setting parameter alchLambda to 0.6499999999999997
Info: NONBONDED TABLE R-SQUARED SPACING: 0.0625
Info: NONBONDED TABLE SIZE: 705 POINTS
TCL: Setting parameter alchLambda2 to 0.5999999999999996
Info: NONBONDED TABLE R-SQUARED SPACING: 0.0625
Info: NONBONDED TABLE SIZE: 705 POINTS
TCL: Running for 1500000 steps
ETITLE: TS BOND ANGLE DIHED IMPRP ELECT VDW BOUNDARY MISC KINETIC TOTAL TEMP POTENTIAL TOTALAVG TEMPAVG PRESSURE GPRESSURE VOLUME PRESSAVG GPRESSAVG
ENERGY: 0 0.9060 7.4482 1.0126 0.0000 -10574.2482 1366.6570 0.0000 0.0000 1741.5013 -7456.7231 300.1244 -9198.2244 -7456.7231 300.1244 -567.6478 -479.2833 29693.8453 -567.6478 -479.2833
ENERGY: 300000 2.6516 5.1418 0.8085 0.0000 -10529.7281 1387.3685 0.0000 0.0000 1738.6319 -7395.1260 299.6299 -9133.7578 -7430.5425 298.5127 -400.7735 -308.4738 30149.6854 -38.7063 33.2201
ENERGY: 600000 0.7540 5.6137 0.7469 0.0000 -10531.6749 1462.4917 0.0000 0.0000 1750.8429 -7311.2258 301.7343 -9062.0687 -7403.5758 298.0850 412.0664 476.5017 30254.8617 16.2077 90.1873
ENERGY: 900000 1.4797 6.6172 2.6490 0.0000 -10590.6362 1421.3990 0.0000 0.0000 1729.3404 -7429.1509 298.0287 -9158.4913 -7410.4454 299.2620 60.9973 53.5289 29903.6157 -46.4264 6.7140
ENERGY: 1200000 0.4007 5.1684 0.7051 0.0000 -10526.7293 1369.4829 0.0000 0.0000 1735.1749 -7415.7973 299.0342 -9150.9722 -7412.7357 298.1256 -354.7717 -285.9346 29893.6330 -41.8878 20.7912
ENERGY: 1500000 1.2398 2.5032 1.3480 0.0000 -10626.2392 1387.6388 0.0000 0.0000 1681.8539 -7551.6555 289.8450 -9233.5095 -7425.5992 296.8371 -392.5280 -320.5293 29649.5685 -81.7368 -19.6282
TCL: Running FEP window   9: Lambda1 0.5999999999999996 Lambda2 0.5499999999999996 [dLambda -0.050000000000000044]
TCL: Setting parameter firsttimestep to 0
TCL: Setting parameter alchLambda to 0.5999999999999996
Info: NONBONDED TABLE R-SQUARED SPACING: 0.0625
Info: NONBONDED TABLE SIZE: 705 POINTS
TCL: Setting parameter alchLambda2 to 0.5499999999999996
Info: NONBONDED TABLE R-SQUARED SPACING: 0.0625
Info: NONBONDED TABLE SIZE: 705 POINTS
TCL: Running for 1500000 steps
ETITLE: TS BOND ANGLE DIHED IMPRP ELECT VDW BOUNDARY MISC KINETIC TOTAL TEMP POTENTIAL TOTALAVG TEMPAVG PRESSURE GPRESSURE VOLUME PRESSAVG GPRESSAVG
ENERGY: 0 1.2398 2.5032 1.3480 0.0000 -10626.3064 1387.9521 0.0000 0.0000 1681.0030 -7552.2603 289.6984 -9233.2633 -7552.2603 289.6984 -423.7963 -321.9417 29649.5685 -423.7963 -321.9417
ENERGY: 300000 1.0436 3.0929 0.9706 0.0000 -10539.3874 1392.4603 0.0000 0.0000 1737.4510 -7404.3690 299.4264 -9141.8201 -7434.3237 298.8947 -142.7929 -104.0281 30156.0629 -368.0758 -302.8074
ENERGY: 600000 0.4294 6.5574 0.7107 0.0000 -10671.3182 1449.8672 0.0000 0.0000 1770.7228 -7443.0306 305.1604 -9213.7534 -7428.4784 300.5539 -239.3093 -130.8400 30114.3567 -339.0619 -258.2165
ENERGY: 900000 1.7060 3.6038 1.1092 0.0000 -10615.4320 1453.8519 0.0000 0.0000 1755.3963 -7399.7648 302.5190 -9155.1611 -7415.5593 300.9306 458.2309 545.9708 29543.1041 -178.1940 -97.8286
ENERGY: 1200000 0.0919 6.5851 1.3350 0.0000 -10500.5430 1371.6910 0.0000 0.0000 1735.9321 -7384.9079 299.1646 -9120.8399 -7408.3625 300.1973 -440.3909 -423.8925 30352.3504 -116.4333 -44.5195
ENERGY: 1500000 0.4843 3.8886 1.0828 0.0000 -10673.8935 1448.7295 0.0000 0.0000 1741.3195 -7478.3888 300.0931 -9219.7083 -7404.5286 300.2891 -0.4225 -47.8125 30301.2143 -44.8046 19.1456
TCL: Running FEP window  10: Lambda1 0.5499999999999996 Lambda2 0.4999999999999996 [dLambda -0.04999999999999999]
TCL: Setting parameter firsttimestep to 0
TCL: Setting parameter alchLambda to 0.5499999999999996
Info: NONBONDED TABLE R-SQUARED SPACING: 0.0625
Info: NONBONDED TABLE SIZE: 705 POINTS
TCL: Setting parameter alchLambda2 to 0.4999999999999996
Info: NONBONDED TABLE R-SQUARED SPACING: 0.0625
Info: NONBONDED TABLE SIZE: 705 POINTS
TCL: Running for 1500000 steps
ETITLE: TS BOND ANGLE DIHED IMPRP ELECT VDW BOUNDARY MISC KINETIC TOTAL TEMP POTENTIAL TOTALAVG TEMPAVG PRESSURE GPRESSURE VOLUME PRESSAVG GPRESSAVG
ENERGY: 0 0.4843 3.8886 1.0828 0.0000 -10673.6998 1449.2890 0.0000 0.0000 1740.4480 -7478.5072 299.9429 -9218.9551 -7478.5072 299.9429 -137.7617 -47.5751 30301.2143 -137.7617 -47.5751
ENERGY: 300000 0.5363 5.2633 1.4929 0.0000 -10494.6138 1413.7912 0.0000 0.0000 1711.3981 -7362.1320 294.9365 -9073.5301 -7399.5211 301.4704 -65.5999 -0.3592 30453.6218 19.0542 94.9987
ENERGY: 600000 2.7159 1.9178 1.6138 0.0000 -10697.6132 1514.7774 0.0000 0.0000 1709.6852 -7466.9031 294.6413 -9176.5882 -7417.3288 301.5156 724.4674 748.6007 29786.0469 130.1489 194.1914
ENERGY: 900000 1.8465 3.0157 0.9795 0.0000 -10616.2341 1410.7692 0.0000 0.0000 1720.0159 -7479.6073 296.4217 -9199.6232 -7425.4000 300.2119 -182.3207 -79.4658 29708.8265 78.0080 148.0486
ENERGY: 1200000 0.3366 3.7801 0.6668 0.0000 -10498.8181 1423.9363 0.0000 0.0000 1744.9986 -7325.0998 300.7271 -9070.0984 -7427.1056 299.1487 195.2334 211.5093 30389.9694 83.7580 140.8633
ENERGY: 1500000 0.5839 5.1807 0.4127 0.0000 -10556.7406 1442.2706 0.0000 0.0000 1765.3057 -7342.9872 304.2268 -9108.2928 -7413.9993 300.0965 305.8745 339.4875 30006.4533 44.7463 101.5387
TCL: Running FEP window  11: Lambda1 0.4999999999999996 Lambda2 0.4499999999999996 [dLambda -0.04999999999999999]
TCL: Setting parameter firsttimestep to 0
TCL: Setting parameter alchLambda to 0.4999999999999996
Info: NONBONDED TABLE R-SQUARED SPACING: 0.0625
Info: NONBONDED TABLE SIZE: 705 POINTS
TCL: Setting parameter alchLambda2 to 0.4499999999999996
Info: NONBONDED TABLE R-SQUARED SPACING: 0.0625
Info: NONBONDED TABLE SIZE: 705 POINTS
TCL: Running for 1500000 steps
ETITLE: TS BOND ANGLE DIHED IMPRP ELECT VDW BOUNDARY MISC KINETIC TOTAL TEMP POTENTIAL TOTALAVG TEMPAVG PRESSURE GPRESSURE VOLUME PRESSAVG GPRESSAVG
ENERGY: 0 0.5838 5.1807 0.4127 0.0000 -10556.7599 1442.6230 0.0000 0.0000 1764.4607 -7343.4990 304.0812 -9107.9597 -7343.4990 304.0812 244.6273 337.1855 30006.4533 244.6273 337.1855
ENERGY: 300000 0.1486 8.1580 0.9227 0.0000 -10535.2501 1331.6870 0.0000 0.0000 1759.5083 -7434.8254 303.2277 -9194.3338 -7396.4000 300.6644 -903.5609 -784.7955 29877.4474 -498.2746 -430.6254
ENERGY: 600000 0.1501 6.1349 0.8807 0.0000 -10534.6605 1399.2296 0.0000 0.0000 1763.4018 -7364.8633 303.8987 -9128.2651 -7385.2071 300.6206 -108.4209 -45.6997 29988.6505 -316.8915 -242.5474
ENERGY: 900000 1.1643 6.1456 0.9051 0.0000 -10610.1761 1419.8901 0.0000 0.0000 1762.5470 -7419.5241 303.7514 -9182.0711 -7385.9249 301.6136 -112.7555 -17.7623 29882.4782 -278.6725 -200.3158
ENERGY: 1200000 0.6963 2.8888 0.6804 0.0000 -10614.7565 1483.8789 0.0000 0.0000 1695.9746 -7430.6376 292.2785 -9126.6122 -7400.6821 300.5622 436.7641 451.9419 30101.1243 -105.7231 -37.8089
ENERGY: 1500000 1.6456 5.9377 0.8150 0.0000 -10505.4397 1392.9154 0.0000 0.0000 1788.1604 -7315.9657 308.1655 -9104.1260 -7403.6132 299.6921 -131.0387 -138.2349 30368.4488 -94.1869 -29.6144
TCL: Running FEP window  12: Lambda1 0.4499999999999996 Lambda2 0.39999999999999963 [dLambda -0.04999999999999999]
TCL: Setting parameter firsttimestep to 0
TCL: Setting parameter alchLambda to 0.4499999999999996
Info: NONBONDED TABLE R-SQUARED SPACING: 0.0625
Info: NONBONDED TABLE SIZE: 705 POINTS
TCL: Setting parameter alchLambda2 to 0.39999999999999963
Info: NONBONDED TABLE R-SQUARED SPACING: 0.0625
Info: NONBONDED TABLE SIZE: 705 POINTS
TCL: Running for 1500000 steps
ETITLE: TS BOND ANGLE DIHED IMPRP ELECT VDW BOUNDARY MISC KINETIC TOTAL TEMP POTENTIAL TOTALAVG TEMPAVG PRESSURE GPRESSURE VOLUME PRESSAVG GPRESSAVG
ENERGY: 0 1.6456 5.9377 0.8150 0.0000 -10505.4404 1392.8199 0.0000 0.0000 1787.2517 -7316.9704 308.0089 -9104.2221 -7316.9704 308.0089 -202.4701 -143.5758 30368.4488 -202.4701 -143.5758
ENERGY: 300000 2.8753 5.5712 0.8045 0.0000 -10591.8970 1450.1023 0.0000 0.0000 1713.3304 -7419.2133 295.2696 -9132.5437 -7400.9339 302.4394 206.6837 257.0375 29716.3301 -128.6124 -60.5202
ENERGY: 600000 0.0593 10.2179 0.8273 0.0000 -10518.7496 1406.5309 0.0000 0.0000 1729.4620 -7371.6522 298.0496 -9101.1141 -7395.9770 301.1002 2.2120 57.6363 29967.3790 -262.7643 -198.5782
ENERGY: 900000 0.1600 4.2715 1.6399 0.0000 -10468.4242 1296.8707 0.0000 0.0000 1786.3563 -7379.1259 307.8546 -9165.4822 -7399.9406 301.6565 -1162.7361 -1101.3852 30234.7684 -459.6931 -397.7593
ENERGY: 1200000 3.5025 5.1277 0.5279 0.0000 -10626.7328 1406.4584 0.0000 0.0000 1700.4570 -7510.6593 293.0510 -9211.1162 -7417.7552 300.6019 -120.2321 16.4113 29646.2690 -380.4815 -322.3472
ENERGY: 1500000 1.0293 2.8543 1.7558 0.0000 -10502.5365 1389.4037 0.0000 0.0000 1736.4210 -7371.0724 299.2489 -9107.4933 -7418.1284 299.8642 -90.0385 -38.0882 30196.1391 -343.0737 -282.4845
TCL: Running FEP window  13: Lambda1 0.39999999999999963 Lambda2 0.34999999999999964 [dLambda -0.04999999999999999]
TCL: Setting parameter firsttimestep to 0
TCL: Setting parameter alchLambda to 0.39999999999999963
Info: NONBONDED TABLE R-SQUARED SPACING: 0.0625
Info: NONBONDED TABLE SIZE: 705 POINTS
TCL: Setting parameter alchLambda2 to 0.34999999999999964
Info: NONBONDED TABLE R-SQUARED SPACING: 0.0625
Info: NONBONDED TABLE SIZE: 705 POINTS
TCL: Running for 1500000 steps
ETITLE: TS BOND ANGLE DIHED IMPRP ELECT VDW BOUNDARY MISC KINETIC TOTAL TEMP POTENTIAL TOTALAVG TEMPAVG PRESSURE GPRESSURE VOLUME PRESSAVG GPRESSAVG
ENERGY: 0 1.0293 2.8543 1.7558 0.0000 -10502.5373 1389.5157 0.0000 0.0000 1735.5808 -7371.8013 299.1041 -9107.3821 -7371.8013 299.1041 -125.3088 -42.4076 30196.1391 -125.3088 -42.4076
ENERGY: 300000 0.7524 6.6724 0.6976 0.0000 -10395.2884 1322.6225 0.0000 0.0000 1744.2529 -7320.2905 300.5986 -9064.5434 -7393.5885 298.9984 -837.4675 -779.4054 30421.4877 -124.6247 -75.2265
ENERGY: 600000 0.2411 5.9366 1.5236 0.0000 -10516.3461 1378.3458 0.0000 0.0000 1766.2644 -7364.0347 304.3920 -9130.2991 -7376.1128 300.4159 -282.6359 -228.3353 29844.6497 -41.3105 5.3827
ENERGY: 900000 0.4619 6.0709 2.0825 0.0000 -10541.4908 1382.2191 0.0000 0.0000 1690.5140 -7460.1423 291.3374 -9150.6563 -7386.5774 299.3755 -341.3413 -251.8647 29928.3353 -175.0952 -116.2095
ENERGY: 1200000 1.1978 2.8615 3.2285 0.0000 -10566.5927 1412.5306 0.0000 0.0000 1737.8038 -7408.9704 299.4872 -9146.7742 -7393.2077 299.0137 114.1448 155.5742 29685.8954 -232.4833 -175.3678
ENERGY: 1500000 0.3494 2.1975 1.5776 0.0000 -10648.9400 1486.6227 0.0000 0.0000 1770.6977 -7387.4951 305.1560 -9158.1929 -7399.6904 298.8450 335.9517 438.8853 30164.1096 -193.5188 -132.0027
TCL: Running FEP window  14: Lambda1 0.34999999999999964 Lambda2 0.29999999999999966 [dLambda -0.04999999999999999]
TCL: Setting parameter firsttimestep to 0
TCL: Setting parameter alchLambda to 0.34999999999999964
Info: NONBONDED TABLE R-SQUARED SPACING: 0.0625
Info: NONBONDED TABLE SIZE: 705 POINTS
TCL: Setting parameter alchLambda2 to 0.29999999999999966
Info: NONBONDED TABLE R-SQUARED SPACING: 0.0625
Info: NONBONDED TABLE SIZE: 705 POINTS
TCL: Running for 1500000 steps
ETITLE: TS BOND ANGLE DIHED IMPRP ELECT VDW BOUNDARY MISC KINETIC TOTAL TEMP POTENTIAL TOTALAVG TEMPAVG PRESSURE GPRESSURE VOLUME PRESSAVG GPRESSAVG
ENERGY: 0 0.3494 2.1975 1.5776 0.0000 -10648.9401 1486.9491 0.0000 0.0000 1769.8699 -7387.9968 305.0134 -9157.8666 -7387.9968 305.0134 352.5292 439.1178 30164.1096 352.5292 439.1178
ENERGY: 300000 0.6100 4.6416 1.7426 0.0000 -10705.1439 1503.0315 0.0000 0.0000 1704.8852 -7490.2330 293.8141 -9195.1182 -7470.5985 299.9702 649.4377 708.0660 29367.4695 433.4771 483.5284
ENERGY: 600000 0.9611 5.4694 0.7922 0.0000 -10613.3107 1498.9723 0.0000 0.0000 1808.5664 -7298.5493 311.6822 -9107.1156 -7437.1549 301.0020 548.1550 607.3864 30138.0090 330.6513 390.6448
ENERGY: 900000 0.5736 2.3044 0.5270 0.0000 -10476.8510 1349.5574 0.0000 0.0000 1713.6962 -7410.1924 295.3326 -9123.8886 -7425.9592 300.5144 -1029.8697 -947.1821 30808.4511 23.6627 93.5830
ENERGY: 1200000 2.9559 5.8548 0.7139 0.0000 -10605.8982 1505.7160 0.0000 0.0000 1735.6936 -7354.9639 299.1235 -9090.6575 -7421.3024 299.6423 1169.9167 1190.5466 29625.7650 176.5269 250.6342
ENERGY: 1500000 1.4148 8.6899 1.2548 0.0000 -10624.4768 1522.0479 0.0000 0.0000 1737.2274 -7353.8421 299.3879 -9091.0695 -7413.1119 299.5582 689.0906 849.3179 29977.2173 165.8677 237.7087
TCL: Running FEP window  15: Lambda1 0.29999999999999966 Lambda2 0.24999999999999967 [dLambda -0.04999999999999999]
TCL: Setting parameter firsttimestep to 0
TCL: Setting parameter alchLambda to 0.29999999999999966
Info: NONBONDED TABLE R-SQUARED SPACING: 0.0625
Info: NONBONDED TABLE SIZE: 705 POINTS
TCL: Setting parameter alchLambda2 to 0.24999999999999967
Info: NONBONDED TABLE R-SQUARED SPACING: 0.0625
Info: NONBONDED TABLE SIZE: 705 POINTS
TCL: Running for 1500000 steps
ETITLE: TS BOND ANGLE DIHED IMPRP ELECT VDW BOUNDARY MISC KINETIC TOTAL TEMP POTENTIAL TOTALAVG TEMPAVG PRESSURE GPRESSURE VOLUME PRESSAVG GPRESSAVG
ENERGY: 0 1.4148 8.6899 1.2548 0.0000 -10624.4773 1521.7890 0.0000 0.0000 1736.3588 -7354.9701 299.2382 -9091.3290 -7354.9701 299.2382 756.6719 843.7055 29977.2173 756.6719 843.7055
ENERGY: 300000 0.2532 8.4101 0.9358 0.0000 -10480.5477 1330.8815 0.0000 0.0000 1717.3366 -7422.7305 295.9600 -9140.0671 -7421.3916 296.5800 -1073.4786 -940.0877 30705.7075 -44.9279 44.9493
ENERGY: 600000 0.0591 2.8340 1.0137 0.0000 -10669.9278 1450.0965 0.0000 0.0000 1759.6490 -7456.2754 303.2519 -9215.9244 -7419.9867 297.8144 -225.2094 -178.7170 30507.6748 -68.5551 7.9036
ENERGY: 900000 0.8944 2.9943 1.2719 0.0000 -10765.5784 1536.4271 0.0000 0.0000 1737.5690 -7486.4216 299.4467 -9223.9906 -7435.1693 297.4164 904.2536 900.5147 29371.2877 -54.6591 12.9635
ENERGY: 1200000 2.4404 1.8600 0.8776 0.0000 -10789.7266 1514.7097 0.0000 0.0000 1775.6688 -7494.1701 306.0127 -9269.8390 -7434.1476 298.9036 256.9872 349.0385 30117.8996 120.2344 185.6501
ENERGY: 1500000 0.5222 3.2784 0.8476 0.0000 -10560.1704 1426.5472 0.0000 0.0000 1793.2839 -7335.6910 309.0485 -9128.9749 -7425.2023 300.5150 181.2976 206.0350 29926.7875 78.2682 138.7568
TCL: Running FEP window  16: Lambda1 0.24999999999999967 Lambda2 0.19999999999999968 [dLambda -0.04999999999999999]
TCL: Setting parameter firsttimestep to 0
TCL: Setting parameter alchLambda to 0.24999999999999967
Info: NONBONDED TABLE R-SQUARED SPACING: 0.0625
Info: NONBONDED TABLE SIZE: 705 POINTS
TCL: Setting parameter alchLambda2 to 0.19999999999999968
Info: NONBONDED TABLE R-SQUARED SPACING: 0.0625
Info: NONBONDED TABLE SIZE: 705 POINTS
TCL: Running for 1500000 steps
ETITLE: TS BOND ANGLE DIHED IMPRP ELECT VDW BOUNDARY MISC KINETIC TOTAL TEMP POTENTIAL TOTALAVG TEMPAVG PRESSURE GPRESSURE VOLUME PRESSAVG GPRESSAVG
ENERGY: 0 0.5222 3.2784 0.8476 0.0000 -10560.1696 1426.7093 0.0000 0.0000 1792.4217 -7336.3904 308.8999 -9128.8121 -7336.3904 308.8999 127.5762 202.5744 29926.7875 127.5762 202.5744
ENERGY: 300000 0.5370 6.2901 0.5613 0.0000 -10660.2934 1465.4450 0.0000 0.0000 1719.6896 -7467.7705 296.3655 -9187.4601 -7434.3816 299.3007 241.9839 273.9215 29852.3277 -59.5816 18.5396
ENERGY: 600000 0.5078 2.8989 0.5191 0.0000 -10826.1642 1564.4922 0.0000 0.0000 1691.1570 -7566.5891 291.4483 -9257.7461 -7449.8345 297.5422 885.6923 945.3145 29460.6835 39.6731 106.0328
ENERGY: 900000 0.1898 1.2881 0.5690 0.0000 -10447.7671 1328.3001 0.0000 0.0000 1743.7907 -7373.6293 300.5190 -9117.4200 -7436.9720 299.2445 -571.0897 -584.8001 29863.7340 -169.2967 -113.6614
ENERGY: 1200000 1.0404 3.3579 2.0622 0.0000 -10418.3579 1287.0255 0.0000 0.0000 1757.0744 -7367.7975 302.8082 -9124.8719 -7436.3804 299.1765 -1085.5529 -1041.0428 30162.8307 -288.6589 -228.0647
ENERGY: 1500000 0.3372 7.8340 0.8573 0.0000 -10482.1942 1392.1176 0.0000 0.0000 1759.7150 -7321.3331 303.2633 -9081.0481 -7427.7962 299.9650 -235.2102 -170.0679 30318.1894 -328.3393 -262.6995
TCL: Running FEP window  17: Lambda1 0.19999999999999968 Lambda2 0.1499999999999997 [dLambda -0.04999999999999999]
TCL: Setting parameter firsttimestep to 0
TCL: Setting parameter alchLambda to 0.19999999999999968
Info: NONBONDED TABLE R-SQUARED SPACING: 0.0625
Info: NONBONDED TABLE SIZE: 705 POINTS
TCL: Setting parameter alchLambda2 to 0.1499999999999997
Info: NONBONDED TABLE R-SQUARED SPACING: 0.0625
Info: NONBONDED TABLE SIZE: 705 POINTS
TCL: Running for 1500000 steps
ETITLE: TS BOND ANGLE DIHED IMPRP ELECT VDW BOUNDARY MISC KINETIC TOTAL TEMP POTENTIAL TOTALAVG TEMPAVG PRESSURE GPRESSURE VOLUME PRESSAVG GPRESSAVG
ENERGY: 0 0.3372 7.8340 0.8573 0.0000 -10482.1936 1392.2933 0.0000 0.0000 1758.8571 -7322.0147 303.1155 -9080.8718 -7322.0147 303.1155 -261.8323 -173.5583 30318.1894 -261.8323 -173.5583
ENERGY: 300000 0.3098 5.7937 1.5378 0.0000 -10685.0030 1484.9314 0.0000 0.0000 1720.5985 -7471.8319 296.5221 -9192.4304 -7431.3125 297.8429 615.3061 675.5763 29461.2225 33.4536 94.1816
ENERGY: 600000 0.3177 5.4791 1.7202 0.0000 -10561.2168 1393.4680 0.0000 0.0000 1808.9873 -7351.2446 311.7547 -9160.2319 -7420.3948 299.9742 -299.3898 -272.6674 30257.0666 -48.1833 4.5921
ENERGY: 900000 0.2552 4.9927 0.8447 0.0000 -10460.3782 1336.3226 0.0000 0.0000 1717.7248 -7400.2383 296.0269 -9117.9631 -7425.0611 299.2544 -657.2585 -619.0348 30134.0562 -152.0555 -99.6281
ENERGY: 1200000 2.1795 4.9095 2.1495 0.0000 -10574.1111 1370.6977 0.0000 0.0000 1769.9803 -7424.1946 305.0324 -9194.1750 -7422.7422 299.7238 -555.3314 -491.6997 29956.9633 -178.3810 -122.3625
ENERGY: 1500000 0.4093 5.8194 1.6184 0.0000 -10536.9216 1351.5448 0.0000 0.0000 1775.0716 -7402.4581 305.9098 -9177.5297 -7419.7833 300.4626 -306.0253 -235.2814 29628.6374 -197.3484 -131.5219
TCL: Running FEP window  18: Lambda1 0.1499999999999997 Lambda2 0.09999999999999969 [dLambda -0.05 ]
TCL: Setting parameter firsttimestep to 0
TCL: Setting parameter alchLambda to 0.1499999999999997
Info: NONBONDED TABLE R-SQUARED SPACING: 0.0625
Info: NONBONDED TABLE SIZE: 705 POINTS
TCL: Setting parameter alchLambda2 to 0.09999999999999969
Info: NONBONDED TABLE R-SQUARED SPACING: 0.0625
Info: NONBONDED TABLE SIZE: 705 POINTS
TCL: Running for 1500000 steps
ETITLE: TS BOND ANGLE DIHED IMPRP ELECT VDW BOUNDARY MISC KINETIC TOTAL TEMP POTENTIAL TOTALAVG TEMPAVG PRESSURE GPRESSURE VOLUME PRESSAVG GPRESSAVG
ENERGY: 0 0.4093 5.8194 1.6184 0.0000 -10536.9216 1351.3867 0.0000 0.0000 1774.2187 -7403.4690 305.7628 -9177.6877 -7403.4690 305.7628 -336.5617 -240.1614 29628.6374 -336.5617 -240.1614
ENERGY: 300000 3.3098 4.5830 0.9691 0.0000 -10656.4531 1452.8436 0.0000 0.0000 1663.5302 -7531.2173 286.6872 -9194.7476 -7442.7540 294.7487 -28.1322 66.4686 29704.8093 6.7855 82.4708
ENERGY: 600000 0.8850 4.0930 0.7138 0.0000 -10513.0361 1394.2039 0.0000 0.0000 1765.1698 -7347.9705 304.2034 -9113.1403 -7422.5889 297.8322 -310.7143 -214.7735 30142.3472 -47.2571 39.4231
ENERGY: 900000 1.3902 5.0359 1.0226 0.0000 -10504.8001 1388.4996 0.0000 0.0000 1707.1957 -7401.6562 294.2123 -9108.8519 -7426.5789 298.2318 -4.5406 -8.4496 29945.3367 -201.2829 -128.9485
ENERGY: 1200000 1.1297 5.5129 1.6404 0.0000 -10673.2414 1467.5158 0.0000 0.0000 1709.1190 -7488.3236 294.5438 -9197.4426 -7426.0184 297.4960 178.5520 231.2593 29777.9058 -180.9080 -113.0633
ENERGY: 1500000 0.1278 3.2723 0.8962 0.0000 -10738.5259 1526.5169 0.0000 0.0000 1736.1028 -7471.6100 299.1941 -9207.7128 -7426.2356 297.9228 653.5687 734.7897 29847.6877 -134.4096 -67.1976
TCL: Running FEP window  19: Lambda1 0.09999999999999969 Lambda2 0.049999999999999684 [dLambda -0.05 ]
TCL: Setting parameter firsttimestep to 0
TCL: Setting parameter alchLambda to 0.09999999999999969
Info: NONBONDED TABLE R-SQUARED SPACING: 0.0625
Info: NONBONDED TABLE SIZE: 705 POINTS
TCL: Setting parameter alchLambda2 to 0.049999999999999684
Info: NONBONDED TABLE R-SQUARED SPACING: 0.0625
Info: NONBONDED TABLE SIZE: 705 POINTS
TCL: Running for 1500000 steps
ETITLE: TS BOND ANGLE DIHED IMPRP ELECT VDW BOUNDARY MISC KINETIC TOTAL TEMP POTENTIAL TOTALAVG TEMPAVG PRESSURE GPRESSURE VOLUME PRESSAVG GPRESSAVG
ENERGY: 0 0.1278 3.2723 0.8962 0.0000 -10738.5268 1526.1585 0.0000 0.0000 1735.2593 -7472.8128 299.0487 -9208.0721 -7472.8128 299.0487 650.1056 730.7410 29847.6877 650.1056 730.7410
ENERGY: 300000 0.8266 3.4124 0.4559 0.0000 -10625.3839 1510.8507 0.0000 0.0000 1732.1294 -7377.7089 298.5093 -9109.8383 -7414.1773 298.0763 746.0141 759.5737 29868.3914 110.8612 168.9000
ENERGY: 600000 1.6033 3.5147 0.5363 0.0000 -10451.5989 1326.7764 0.0000 0.0000 1781.8423 -7337.3259 307.0767 -9119.1681 -7401.1353 300.8715 -810.2171 -742.3778 30083.4490 -268.7753 -215.2524
ENERGY: 900000 0.6036 6.9785 0.7769 0.0000 -10632.8159 1438.3384 0.0000 0.0000 1803.0575 -7383.0610 310.7328 -9186.1185 -7413.1562 301.7719 41.2151 103.9355 30166.7969 -117.3941 -59.6524
ENERGY: 1200000 1.0604 5.2152 0.7279 0.0000 -10500.3668 1402.8304 0.0000 0.0000 1745.0736 -7345.4593 300.7401 -9090.5328 -7409.4072 301.3583 -76.6576 31.3721 29825.8187 -57.6879 6.2433
ENERGY: 1500000 0.6653 7.1469 0.9211 0.0000 -10434.9387 1321.4911 0.0000 0.0000 1675.0365 -7429.6778 288.6701 -9104.7143 -7412.5492 300.3920 -817.0043 -764.2799 30003.8681 -98.4515 -29.2512
TCL: Running FEP window  20: Lambda1 0.049999999999999684 Lambda2 0.0    [dLambda -0.049999999999999684]
TCL: Setting parameter firsttimestep to 0
TCL: Setting parameter alchLambda to 0.049999999999999684
Info: NONBONDED TABLE R-SQUARED SPACING: 0.0625
Info: NONBONDED TABLE SIZE: 705 POINTS
TCL: Setting parameter alchLambda2 to 0.0
Info: NONBONDED TABLE R-SQUARED SPACING: 0.0625
Info: NONBONDED TABLE SIZE: 705 POINTS
TCL: Running for 1500000 steps
ETITLE: TS BOND ANGLE DIHED IMPRP ELECT VDW BOUNDARY MISC KINETIC TOTAL TEMP POTENTIAL TOTALAVG TEMPAVG PRESSURE GPRESSURE VOLUME PRESSAVG GPRESSAVG
ENERGY: 0 0.6653 7.1469 0.9211 0.0000 -10434.9376 1321.5485 0.0000 0.0000 1674.1702 -7430.4856 288.5208 -9104.6558 -7430.4856 288.5208 -846.8639 -765.9915 30003.8681 -846.8639 -765.9915
ENERGY: 300000 0.1973 3.8818 0.4295 0.0000 -10496.8089 1388.7232 0.0000 0.0000 1775.9587 -7327.6184 306.0627 -9103.5771 -7369.6381 300.9125 -238.6381 -238.4665 30053.8671 -296.6454 -246.8641
ENERGY: 600000 0.8479 2.4872 0.8733 0.0000 -10605.4337 1441.7661 0.0000 0.0000 1799.9438 -7359.5154 310.1962 -9159.4592 -7380.6314 304.4094 202.4842 301.9927 29580.3883 -89.8882 -24.9624
ENERGY: 900000 1.6668 2.7810 0.7000 0.0000 -10642.2302 1438.1375 0.0000 0.0000 1813.8598 -7385.0851 312.5944 -9198.9449 -7388.6841 303.7151 -146.6613 -100.0359 30026.9225 -104.1187 -42.9363
ENERGY: 1200000 0.2578 4.5510 0.7409 0.0000 -10562.2134 1437.8596 0.0000 0.0000 1775.2936 -7343.5105 305.9481 -9118.8041 -7383.2857 302.7017 391.3809 472.4688 29508.6105 -16.4047 43.2647
ENERGY: 1500000 0.3808 4.3741 1.1042 0.0000 -10413.0833 1298.6885 0.0000 0.0000 1778.5409 -7329.9949 306.5077 -9108.5358 -7376.5347 302.5178 -926.4978 -875.6565 30292.2092 -98.8859 -33.6207
TCL: Exiting due to exit command.
