Info: SIMULATION PARAMETERS:
Info: TIMESTEP               2
Info: NUMBER OF STEPS        0
Info: STEPS PER CYCLE        10
Info: PERIODIC CELL BASIS 1  32.4044 0 0
Info: PERIODIC CELL BASIS 2  0 31.231 0
Info: PERIODIC CELL BASIS 3  0 0 30.3118
Info: PERIODIC CELL CENTER   0 0 0
Info: WRAPPING WATERS AROUND PERIODIC BOUNDARIES ON OUTPUT.
Info: WRAPPING ALL CLUSTERS AROUND PERIODIC BOUNDARIES ON OUTPUT.
Info: FIRST LDB TIMESTEP     50
Info: LAST LDB TIMESTEP     -1
Info: HOM BACKGROUND SCALING 1
Info: PME BACKGROUND SCALING 1
Info: MIN ATOMS PER PATCH    40
Info: EMPTY PATCH LOAD       40 ATOMS
Info: VELOCITY FILE          mobley_1019269_equil.vel
Info: CENTER OF MASS MOVING INITIALLY? NO
Info: DIELECTRIC             1
Info: EXCLUDE                SCALED ONE-FOUR
Info: 1-4 ELECTROSTATICS SCALED BY 0.833333
Info: MODIFIED 1-4 VDW PARAMETERS WILL BE USED
Info: DCD FILENAME           mobley_1019269_prod.dcd
Info: DCD FREQUENCY          100000
Info: DCD FIRST STEP         100000
Info: DCD FILE WILL CONTAIN UNIT CELL DATA
Info: XST FILENAME           mobley_1019269_prod.xst
Info: XST FREQUENCY          100000
Info: NO VELOCITY DCD OUTPUT
Info: NO FORCE DCD OUTPUT
Info: OUTPUT FILENAME        mobley_1019269_prod
Info: BINARY OUTPUT FILES WILL BE USED
Info: RESTART FILENAME       mobley_1019269_prod.restart
Info: RESTART FREQUENCY      100000
Info: BINARY RESTART FILES WILL BE USED
Info: CUTOFF                 9
Info: PAIRLIST DISTANCE      11
Info: PAIRLIST SHRINK RATE   0.01
Info: PAIRLIST GROW RATE     0.01
Info: PAIRLIST TRIGGER       0.3
Info: PAIRLISTS PER CYCLE    2
Info: PAIRLISTS ENABLED
Info: MARGIN                 2
Info: HYDROGEN GROUP CUTOFF  2.5
Info: PATCH DIMENSION        15.5
Info: ENERGY OUTPUT STEPS    100000
Info: ENERGY EVALUATION STEPS    100000
Info: OUTPUT ENERGY PRECISION 4
Info: CROSSTERM ENERGY INCLUDED IN DIHEDRAL
Info: TIMING OUTPUT STEPS    1000000
Info: PRESSURE OUTPUT STEPS  100000
Info: ALCHEMICAL FEP ON
Info: FEP CURRENT LAMBDA VALUE     0
Info: FEP COMPARISON LAMBDA VALUE  0.05
Info: FEP INTRA-ALCHEMICAL NON-BONDED INTERACTIONS WILL BE RETAINED
Info: FEP INTRA-ALCHEMICAL BONDED INTERACTIONS WILL BE RETAINED
Info: FEP VDW SHIFTING COEFFICIENT 5
Info: FEP ELEC. ACTIVE FOR ANNIHILATED PARTICLES BETWEEN LAMBDA = 0 AND LAMBDA = 0.5
Info: FEP ELEC. ACTIVE FOR EXNIHILATED PARTICLES BETWEEN LAMBDA = 0.5 AND LAMBDA = 1
Info: FEP VDW ACTIVE FOR ANNIHILATED PARTICLES BETWEEN LAMBDA = 0 AND LAMBDA = 1
Info: FEP VDW ACTIVE FOR EXNIHILATED PARTICLES BETWEEN LAMBDA = 0 AND LAMBDA = 1
Info: FEP BOND ACTIVE FOR ANNIHILATED PARTICLES BETWEEN LAMBDA = 1 AND LAMBDA = 1
Info: FEP BOND ACTIVE FOR EXNIHILATED PARTICLES BETWEEN LAMBDA = 0 AND LAMBDA = 0
Info: LANGEVIN DYNAMICS ACTIVE
Info: LANGEVIN TEMPERATURE   300
Info: LANGEVIN USING BBK INTEGRATOR
Info: LANGEVIN DAMPING COEFFICIENT IS 1 INVERSE PS
Info: LANGEVIN DYNAMICS APPLIED TO HYDROGENS
Info: LANGEVIN PISTON PRESSURE CONTROL ACTIVE
Info:        TARGET PRESSURE IS 1.01325 BAR
Info:     OSCILLATION PERIOD IS 50 FS
Info:             DECAY TIME IS 25 FS
Info:     PISTON TEMPERATURE IS 300 K
Info:       PRESSURE CONTROL IS GROUP-BASED
Info:    INITIAL STRAIN RATE IS 0.000113356 0.000113356 0.000113356
Info:       CELL FLUCTUATION IS ISOTROPIC
Info: PARTICLE MESH EWALD (PME) ACTIVE
Info: PME TOLERANCE               1e-06
Info: PME EWALD COEFFICIENT       0.348832
Info: PME INTERPOLATION ORDER     4
Info: PME GRID DIMENSIONS         36 32 32
Info: PME MAXIMUM GRID SPACING    1
Info: PME CALCULATION WILL BE PERFORMED ON GPU
Info: FULL ELECTROSTATIC EVALUATION FREQUENCY      2
Info: USING VERLET I (r-RESPA) MTS SCHEME.
Info: C1 SPLITTING OF LONG RANGE ELECTROSTATICS
Info: PLACING ATOMS IN PATCHES BY HYDROGEN GROUPS
Info: RIGID BONDS TO HYDROGEN : ALL
Info:         ERROR TOLERANCE : 1e-08
Info:          MAX ITERATIONS : 100
Info: RIGID WATER USING SETTLE ALGORITHM
Info: RANDOM NUMBER SEED     1743831315
Info: USE HYDROGEN BONDS?    NO
Info: Using AMBER format force field!
Info: AMBER PARM FILE        mobley_1019269.prmtop
Info: COORDINATE PDB         mobley_1019269.pdb
Info: Exclusions will be read from PARM file!
Info: SCNB (VDW SCALING)     2
Info: USING ARITHMETIC MEAN TO COMBINE L-J SIGMA PARAMETERS
Info: BINARY COORDINATES     mobley_1019269_equil.coor
Info: SUMMARY OF PARAMETERS:
Info: 7 BONDS
Info: 8 ANGLES
Info:   8 HARMONIC
Info:   0 COSINE-BASED
Info: 9 DIHEDRAL
Info: 0 IMPROPER
Info: 0 CROSSTERM
Info: 0 VDW
Info: 21 VDW_PAIRS
Info: 0 NBTHOLE_PAIRS
Info: To read alchdata from file: mobley_1019269.pdb
Info: To read alchflag data from column: 5
Info: STRUCTURE SUMMARY:
Info: 2952 ATOMS
Info: 2951 BONDS
Info: 25 ANGLES
Info: 35 DIHEDRALS
Info: 0 IMPROPERS
Info: 0 CROSSTERMS
Info: 3006 EXCLUSIONS
Info: 2947 RIGID BONDS
Info: ALCH: 0 ATOMS TO DISAPPEAR IN FINAL STATE
Info: ALCH: 15 ATOMS TO APPEAR IN FINAL STATE
Info: 5909 DEGREES OF FREEDOM
Info: 984 HYDROGEN GROUPS
Info: 4 ATOMS IN LARGEST HYDROGEN GROUP
Info: 984 MIGRATION GROUPS
Info: 4 ATOMS IN LARGEST MIGRATION GROUP
Info: TOTAL MASS = 17711.8 amu
Info: TOTAL CHARGE = 0.000199992 e
Info: MASS DENSITY = 0.958784 g/cm^3
Info: ATOM DENSITY = 0.0962311 atoms/A^3
Info: ADDED 0 IMPLICIT EXCLUSIONS
Info: NONBONDED TABLE R-SQUARED SPACING: 0.0625
Info: NONBONDED TABLE SIZE: 705 POINTS
Info: REDUCING NUMBER OF PATCHES TO IMPROVE LOAD BALANCE
Info: REMOVING COM VELOCITY 0.000902345 0.0870548 0.203142
Info: Use 3D box decompostion in PME FFT.
Info: Updated CUDA force table with 4096 elements.
Info: Updated CUDA LJ table with 6 x 6 elements.
Info: Found 18 unique exclusion lists needing 40 bytes
TCL: Running for 1500000 steps
ETITLE: TS BOND ANGLE DIHED IMPRP ELECT VDW BOUNDARY MISC KINETIC TOTAL TEMP POTENTIAL TOTALAVG TEMPAVG PRESSURE GPRESSURE VOLUME PRESSAVG GPRESSAVG
ENERGY: 0 0.6209 5.7929 2.9616 0.0000 -10615.1760 1380.8953 0.0000 0.0000 1762.8998 -7462.0056 300.2645 -9224.9053 -7462.0056 300.2645 -614.7349 -541.1394 30676.1428 -614.7349 -541.1394
ENERGY: 300000 2.1139 12.6828 3.5227 0.0000 -10761.3043 1451.1196 0.0000 0.0000 1798.0770 -7493.7882 306.2561 -9291.8653 -7523.6931 298.9033 83.0798 102.5879 29975.4762 -339.6252 -308.6355
ENERGY: 600000 0.8046 9.3865 1.6281 0.0000 -10590.6656 1309.2158 0.0000 0.0000 1746.5361 -7523.0945 297.4774 -9269.6305 -7504.5299 300.7045 -1050.8490 -1032.2335 29859.0466 -331.0306 -298.0453
ENERGY: 900000 1.3205 10.6937 1.6863 0.0000 -10654.4136 1432.7323 0.0000 0.0000 1714.3640 -7493.6167 291.9977 -9207.9808 -7492.9333 299.8796 11.9196 -26.8178 30247.8334 -252.5136 -219.2361
ENERGY: 1200000 1.6467 5.3277 2.9028 0.0000 -10798.2256 1511.1371 0.0000 0.0000 1751.5222 -7525.6891 298.3266 -9277.2113 -7493.0032 299.4433 549.3056 559.1726 30086.0259 -135.8825 -96.2175
ENERGY: 1500000 0.6073 7.4294 1.4773 0.0000 -10753.6489 1499.6019 0.0000 0.0000 1786.0862 -7458.4468 304.2137 -9244.5330 -7478.8926 301.4922 526.4866 575.8130 29946.2398 -74.0708 -33.1056
TCL: Running FEP window   2: Lambda1 0.05   Lambda2 0.1    [dLambda 0.05  ]
TCL: Setting parameter firsttimestep to 0
TCL: Setting parameter alchLambda to 0.05
Info: NONBONDED TABLE R-SQUARED SPACING: 0.0625
Info: NONBONDED TABLE SIZE: 705 POINTS
TCL: Setting parameter alchLambda2 to 0.1
Info: NONBONDED TABLE R-SQUARED SPACING: 0.0625
Info: NONBONDED TABLE SIZE: 705 POINTS
TCL: Running for 1500000 steps
ETITLE: TS BOND ANGLE DIHED IMPRP ELECT VDW BOUNDARY MISC KINETIC TOTAL TEMP POTENTIAL TOTALAVG TEMPAVG PRESSURE GPRESSURE VOLUME PRESSAVG GPRESSAVG
ENERGY: 0 0.6073 7.4294 1.4773 0.0000 -10753.6488 1500.6305 0.0000 0.0000 1785.2265 -7458.2778 304.0673 -9243.5043 -7458.2778 304.0673 498.6670 580.4279 29946.2398 498.6670 580.4279
ENERGY: 300000 0.6357 5.6360 2.0723 0.0000 -10666.0475 1375.9390 0.0000 0.0000 1747.9915 -7533.7731 297.7253 -9281.7646 -7488.4484 298.9183 -713.6476 -632.2522 30191.7127 -316.7598 -240.1810
ENERGY: 600000 2.1590 4.7747 3.5006 0.0000 -10776.2471 1478.5113 0.0000 0.0000 1755.7130 -7531.5886 299.0404 -9287.3016 -7490.0473 300.2228 113.9049 198.4304 30196.5829 -190.8350 -111.3398
ENERGY: 900000 0.4643 4.8946 3.7676 0.0000 -10734.3814 1440.8457 0.0000 0.0000 1771.8819 -7512.5272 301.7944 -9284.4091 -7497.7678 300.4636 -163.0530 -83.9582 30468.9408 -50.5201 22.3672
ENERGY: 1200000 2.9900 5.3676 1.6492 0.0000 -10645.8058 1390.9112 0.0000 0.0000 1752.8279 -7492.0598 298.5490 -9244.8878 -7493.5105 300.0231 -321.6524 -257.2121 29892.1903 27.7180 98.6272
ENERGY: 1500000 1.7331 5.2879 3.0284 0.0000 -10727.3453 1514.1025 0.0000 0.0000 1812.7885 -7390.4048 308.7618 -9203.1933 -7481.6345 300.9814 607.9676 659.9685 30311.1728 64.4058 132.0902
TCL: Running FEP window   3: Lambda1 0.1    Lambda2 0.15000000000000002 [dLambda 0.05000000000000002]
TCL: Setting parameter firsttimestep to 0
TCL: Setting parameter alchLambda to 0.1
Info: NONBONDED TABLE R-SQUARED SPACING: 0.0625
Info: NONBONDED TABLE SIZE: 705 POINTS
TCL: Setting parameter alchLambda2 to 0.15000000000000002
Info: NONBONDED TABLE R-SQUARED SPACING: 0.0625
Info: NONBONDED TABLE SIZE: 705 POINTS
TCL: Running for 1500000 steps
ETITLE: TS BOND ANGLE DIHED IMPRP ELECT VDW BOUNDARY MISC KINETIC TOTAL TEMP POTENTIAL TOTALAVG TEMPAVG PRESSURE GPRESSURE VOLUME PRESSAVG GPRESSAVG
ENERGY: 0 1.7331 5.2879 3.0284 0.0000 -10727.3452 1514.1459 0.0000 0.0000 1811.9148 -7391.2349 308.6130 -9203.1497 -7391.2349 308.6130 570.3080 661.6341 30311.1728 570.3080 661.6341
ENERGY: 300000 0.5227 5.5112 2.8275 0.0000 -10696.2789 1436.8010 0.0000 0.0000 1724.0509 -7526.5656 293.6476 -9250.6165 -7453.2242 301.6817 -130.0527 -18.2807 30181.8379 -244.8346 -153.5151
ENERGY: 600000 1.4530 7.1247 1.4273 0.0000 -10847.7066 1554.6938 0.0000 0.0000 1717.7089 -7565.2989 292.5674 -9283.0078 -7479.4565 300.3620 644.7326 745.1495 29976.0749 -127.2317 -40.5240
ENERGY: 900000 1.3052 8.0904 4.3658 0.0000 -10625.0211 1428.2002 0.0000 0.0000 1750.7799 -7432.2796 298.2002 -9183.0595 -7455.7899 301.3178 -15.9448 5.3986 30399.8017 -83.6985 -4.8697
ENERGY: 1200000 0.4106 6.5703 2.2754 0.0000 -10710.1492 1441.1681 0.0000 0.0000 1768.5294 -7491.1953 301.2234 -9259.7247 -7464.7514 300.7686 -15.8106 79.6000 30178.2568 -24.4167 54.4757
ENERGY: 1500000 1.1662 6.8512 3.6859 0.0000 -10713.1803 1429.8362 0.0000 0.0000 1788.1653 -7483.4755 304.5679 -9271.6408 -7465.6121 300.6727 -135.5462 -27.1076 30313.8310 -54.9173 19.2261
TCL: Running FEP window   4: Lambda1 0.15000000000000002 Lambda2 0.2    [dLambda 0.04999999999999999]
TCL: Setting parameter firsttimestep to 0
TCL: Setting parameter alchLambda to 0.15000000000000002
Info: NONBONDED TABLE R-SQUARED SPACING: 0.0625
Info: NONBONDED TABLE SIZE: 705 POINTS
TCL: Setting parameter alchLambda2 to 0.2
Info: NONBONDED TABLE R-SQUARED SPACING: 0.0625
Info: NONBONDED TABLE SIZE: 705 POINTS
TCL: Running for 1500000 steps
ETITLE: TS BOND ANGLE DIHED IMPRP ELECT VDW BOUNDARY MISC KINETIC TOTAL TEMP POTENTIAL TOTALAVG TEMPAVG PRESSURE GPRESSURE VOLUME PRESSAVG GPRESSAVG
ENERGY: 0 1.1662 6.8512 3.6859 0.0000 -10713.1797 1431.3444 0.0000 0.0000 1787.2682 -7482.8638 304.4150 -9270.1320 -7482.8638 304.4150 -112.9123 -20.0666 30313.8310 -112.9123 -20.0666
ENERGY: 300000 0.3629 10.2708 2.8324 0.0000 -10757.2565 1447.1941 0.0000 0.0000 1715.0514 -7581.5449 292.1148 -9296.5963 -7491.9005 299.5469 -26.3307 68.0375 30061.6862 82.0974 156.0208
ENERGY: 600000 0.9250 7.4692 3.2620 0.0000 -10621.0680 1446.6790 0.0000 0.0000 1763.7837 -7398.9491 300.4151 -9162.7328 -7489.1184 299.5022 336.5590 391.9407 30110.9842 135.2776 185.1137
ENERGY: 900000 0.7908 4.4214 3.0804 0.0000 -10680.9043 1442.7798 0.0000 0.0000 1814.3204 -7415.5114 309.0227 -9229.8318 -7492.0352 298.7599 315.1703 327.9764 30095.4271 105.7064 154.3076
ENERGY: 1200000 3.6630 5.5228 2.7980 0.0000 -10541.7270 1364.5912 0.0000 0.0000 1758.7482 -7406.4038 299.5574 -9165.1521 -7480.1208 299.1680 -462.4194 -397.1945 30471.7925 21.8801 73.4731
ENERGY: 1500000 2.5781 4.6949 2.3927 0.0000 -10613.1441 1404.4879 0.0000 0.0000 1764.7748 -7434.2157 300.5839 -9198.9905 -7472.8050 299.8437 -235.9731 -155.2649 30468.6185 -42.8552 9.9078
TCL: Running FEP window   5: Lambda1 0.2    Lambda2 0.25   [dLambda 0.04999999999999999]
TCL: Setting parameter firsttimestep to 0
TCL: Setting parameter alchLambda to 0.2
Info: NONBONDED TABLE R-SQUARED SPACING: 0.0625
Info: NONBONDED TABLE SIZE: 705 POINTS
TCL: Setting parameter alchLambda2 to 0.25
Info: NONBONDED TABLE R-SQUARED SPACING: 0.0625
Info: NONBONDED TABLE SIZE: 705 POINTS
TCL: Running for 1500000 steps
ETITLE: TS BOND ANGLE DIHED IMPRP ELECT VDW BOUNDARY MISC KINETIC TOTAL TEMP POTENTIAL TOTALAVG TEMPAVG PRESSURE GPRESSURE VOLUME PRESSAVG GPRESSAVG
ENERGY: 0 2.5781 4.6949 2.3927 0.0000 -10613.1447 1404.6991 0.0000 0.0000 1763.9348 -7434.8452 300.4408 -9198.7800 -7434.8452 300.4408 -253.9982 -154.2274 30468.6185 -253.9982 -154.2274
ENERGY: 300000 1.3297 6.1405 1.8560 0.0000 -10746.5397 1499.9885 0.0000 0.0000 1763.0078 -7474.2172 300.2829 -9237.2250 -7466.2512 301.7425 588.6445 680.5717 29885.4485 50.0285 130.2915
ENERGY: 600000 2.7355 10.2600 1.7073 0.0000 -10639.1242 1397.2717 0.0000 0.0000 1734.2710 -7492.8787 295.3884 -9227.1497 -7489.3355 299.6378 -300.5827 -207.5790 30125.6475 -79.3978 1.2582
ENERGY: 900000 1.2982 4.3312 1.5300 0.0000 -10722.2973 1497.3520 0.0000 0.0000 1723.6562 -7494.1297 293.5804 -9217.7859 -7487.1175 299.2990 544.5472 629.7221 30031.0862 -198.8889 -120.0625
ENERGY: 1200000 1.5229 6.6079 1.2770 0.0000 -10703.7093 1481.4234 0.0000 0.0000 1734.3651 -7478.5130 295.4044 -9212.8781 -7493.3021 299.1370 304.1108 433.2870 30511.7147 -163.7639 -83.4770
ENERGY: 1500000 1.0016 6.3203 2.3365 0.0000 -10539.1130 1347.3682 0.0000 0.0000 1754.5624 -7427.5242 298.8445 -9182.0865 -7484.9274 299.4363 -735.5633 -673.4471 30717.9507 -137.0671 -58.0029
TCL: Running FEP window   6: Lambda1 0.25   Lambda2 0.3    [dLambda 0.04999999999999999]
TCL: Setting parameter firsttimestep to 0
TCL: Setting parameter alchLambda to 0.25
Info: NONBONDED TABLE R-SQUARED SPACING: 0.0625
Info: NONBONDED TABLE SIZE: 705 POINTS
TCL: Setting parameter alchLambda2 to 0.3
Info: NONBONDED TABLE R-SQUARED SPACING: 0.0625
Info: NONBONDED TABLE SIZE: 705 POINTS
TCL: Running for 1500000 steps
ETITLE: TS BOND ANGLE DIHED IMPRP ELECT VDW BOUNDARY MISC KINETIC TOTAL TEMP POTENTIAL TOTALAVG TEMPAVG PRESSURE GPRESSURE VOLUME PRESSAVG GPRESSAVG
ENERGY: 0 1.0016 6.3203 2.3365 0.0000 -10539.1143 1347.4433 0.0000 0.0000 1753.7038 -7428.3089 298.6982 -9182.0126 -7428.3089 298.6982 -756.1280 -672.0406 30717.9507 -756.1280 -672.0406
ENERGY: 300000 0.6358 3.2849 2.6749 0.0000 -10666.8592 1463.9293 0.0000 0.0000 1790.3219 -7406.0124 304.9352 -9196.3343 -7450.7971 298.7972 260.0480 336.7410 30497.2457 82.6320 137.9824
ENERGY: 600000 1.8497 8.6507 1.8608 0.0000 -10704.0555 1408.1888 0.0000 0.0000 1711.9318 -7571.5738 291.5834 -9283.5056 -7478.9746 296.4450 -360.2252 -252.7796 29930.8290 -84.9573 -22.5058
ENERGY: 900000 1.7266 8.7226 1.5475 0.0000 -10609.7884 1397.1924 0.0000 0.0000 1744.5200 -7456.0794 297.1340 -9200.5994 -7460.9249 297.5647 -524.8889 -441.6968 30617.9421 -241.3236 -173.9589
ENERGY: 1200000 3.0466 5.6284 2.7144 0.0000 -10830.4158 1552.8809 0.0000 0.0000 1755.0923 -7511.0533 298.9347 -9266.1455 -7469.4977 298.1338 833.5563 891.0264 30168.7833 -95.4741 -31.0360
ENERGY: 1500000 0.8245 8.3458 2.4493 0.0000 -10573.9571 1330.8130 0.0000 0.0000 1750.9882 -7480.5362 298.2357 -9231.5244 -7470.5281 298.3804 -797.7620 -804.1939 30275.1137 -104.2384 -43.1950
TCL: Running FEP window   7: Lambda1 0.3    Lambda2 0.35   [dLambda 0.04999999999999999]
TCL: Setting parameter firsttimestep to 0
TCL: Setting parameter alchLambda to 0.3
Info: NONBONDED TABLE R-SQUARED SPACING: 0.0625
Info: NONBONDED TABLE SIZE: 705 POINTS
TCL: Setting parameter alchLambda2 to 0.35
Info: NONBONDED TABLE R-SQUARED SPACING: 0.0625
Info: NONBONDED TABLE SIZE: 705 POINTS
TCL: Running for 1500000 steps
ETITLE: TS BOND ANGLE DIHED IMPRP ELECT VDW BOUNDARY MISC KINETIC TOTAL TEMP POTENTIAL TOTALAVG TEMPAVG PRESSURE GPRESSURE VOLUME PRESSAVG GPRESSAVG
ENERGY: 0 0.8245 8.3458 2.4493 0.0000 -10573.9563 1331.7003 0.0000 0.0000 1750.0501 -7480.5863 298.0759 -9230.6364 -7480.5863 298.0759 -877.6150 -797.4152 30275.1137 -877.6150 -797.4152
ENERGY: 300000 0.4095 4.3043 2.0530 0.0000 -10737.9926 1500.2237 0.0000 0.0000 1768.8462 -7462.1559 301.2773 -9231.0020 -7484.7393 300.5763 528.0069 658.5371 30060.9513 288.2026 377.1996
ENERGY: 600000 0.4675 3.3185 2.0295 0.0000 -10680.3906 1451.6232 0.0000 0.0000 1736.8119 -7486.1401 295.8211 -9222.9519 -7483.8267 300.9594 147.6144 173.0922 30345.4227 153.4587 220.6778
ENERGY: 900000 2.6990 5.8151 1.8770 0.0000 -10622.9593 1442.2053 0.0000 0.0000 1758.9673 -7411.3958 299.5947 -9170.3631 -7485.0234 299.5824 -132.2378 -8.8468 30822.4494 91.7065 168.0079
ENERGY: 1200000 1.8412 7.1581 2.6520 0.0000 -10810.0067 1510.2482 0.0000 0.0000 1783.0420 -7505.0652 303.6952 -9288.1071 -7474.0268 299.6415 607.0157 691.0793 29821.4253 139.8417 210.2588
ENERGY: 1500000 2.0526 8.8138 1.9533 0.0000 -10773.6287 1459.2935 0.0000 0.0000 1729.0405 -7572.4749 294.4975 -9301.5155 -7479.7400 299.2803 52.7085 123.2528 29758.3136 172.5526 236.3800
TCL: Running FEP window   8: Lambda1 0.35   Lambda2 0.39999999999999997 [dLambda 0.04999999999999999]
TCL: Setting parameter firsttimestep to 0
TCL: Setting parameter alchLambda to 0.35
Info: NONBONDED TABLE R-SQUARED SPACING: 0.0625
Info: NONBONDED TABLE SIZE: 705 POINTS
TCL: Setting parameter alchLambda2 to 0.39999999999999997
Info: NONBONDED TABLE R-SQUARED SPACING: 0.0625
Info: NONBONDED TABLE SIZE: 705 POINTS
TCL: Running for 1500000 steps
ETITLE: TS BOND ANGLE DIHED IMPRP ELECT VDW BOUNDARY MISC KINETIC TOTAL TEMP POTENTIAL TOTALAVG TEMPAVG PRESSURE GPRESSURE VOLUME PRESSAVG GPRESSAVG
ENERGY: 0 2.0526 8.8137 1.9533 0.0000 -10773.6273 1459.1677 0.0000 0.0000 1728.1581 -7573.4818 294.3472 -9301.6399 -7573.4818 294.3472 35.2816 128.2395 29758.3136 35.2816 128.2395
ENERGY: 300000 0.0345 15.0785 3.4382 0.0000 -10692.7974 1456.6773 0.0000 0.0000 1788.5110 -7429.0578 304.6267 -9217.5688 -7503.7318 303.1701 389.6630 441.7199 29938.2312 247.4903 299.0080
ENERGY: 600000 2.0239 8.5132 1.5880 0.0000 -10650.4824 1402.5613 0.0000 0.0000 1733.9660 -7501.8301 295.3364 -9235.7960 -7510.9612 299.8098 -275.4277 -202.1895 30112.7771 -32.9866 18.8974
ENERGY: 900000 1.2005 4.7283 3.5050 0.0000 -10843.8235 1577.1573 0.0000 0.0000 1752.5589 -7504.6735 298.5032 -9257.2324 -7500.8324 300.1469 1123.4565 1108.7517 30165.3512 -2.5611 48.3796
ENERGY: 1200000 0.1661 4.5924 1.1288 0.0000 -10604.3809 1383.2308 0.0000 0.0000 1741.4207 -7473.8421 296.6061 -9215.2628 -7488.3720 299.8376 -433.8685 -326.2020 30632.8061 -15.6715 47.0309
ENERGY: 1500000 2.7890 5.8332 3.0668 0.0000 -10635.0585 1477.5704 0.0000 0.0000 1749.8028 -7395.9964 298.0338 -9145.7991 -7484.3688 299.6662 492.7550 532.9286 30915.9049 68.4355 129.7512
TCL: Running FEP window   9: Lambda1 0.39999999999999997 Lambda2 0.44999999999999996 [dLambda 0.04999999999999999]
TCL: Setting parameter firsttimestep to 0
TCL: Setting parameter alchLambda to 0.39999999999999997
Info: NONBONDED TABLE R-SQUARED SPACING: 0.0625
Info: NONBONDED TABLE SIZE: 705 POINTS
TCL: Setting parameter alchLambda2 to 0.44999999999999996
Info: NONBONDED TABLE R-SQUARED SPACING: 0.0625
Info: NONBONDED TABLE SIZE: 705 POINTS
TCL: Running for 1500000 steps
ETITLE: TS BOND ANGLE DIHED IMPRP ELECT VDW BOUNDARY MISC KINETIC TOTAL TEMP POTENTIAL TOTALAVG TEMPAVG PRESSURE GPRESSURE VOLUME PRESSAVG GPRESSAVG
ENERGY: 0 2.7890 5.8332 3.0668 0.0000 -10635.0578 1478.4487 0.0000 0.0000 1748.9269 -7395.9932 297.8846 -9144.9201 -7395.9932 297.8846 474.7446 541.9146 30915.9049 474.7446 541.9146
ENERGY: 300000 1.4496 10.4927 2.4345 0.0000 -10790.7109 1554.8481 0.0000 0.0000 1754.6376 -7466.8484 298.8573 -9221.4860 -7472.3516 298.2454 784.3131 886.8391 30543.5602 406.5037 470.6438
ENERGY: 600000 0.7788 6.1789 1.4924 0.0000 -10620.8873 1407.8798 0.0000 0.0000 1674.8034 -7529.7540 285.2596 -9204.5574 -7479.2016 297.5274 -186.7686 -153.7093 30348.7488 -12.0234 53.4972
ENERGY: 900000 1.4407 4.6306 4.0104 0.0000 -10735.1186 1463.9946 0.0000 0.0000 1768.7266 -7492.3157 301.2570 -9261.0424 -7479.9686 298.2969 48.8668 93.4655 30713.3289 -66.6751 3.7503
ENERGY: 1200000 0.3741 5.4539 1.7685 0.0000 -10722.5975 1485.6427 0.0000 0.0000 1817.3414 -7412.0169 309.5373 -9229.3583 -7474.5726 299.4753 312.8721 386.7825 30289.2344 -19.2879 54.7484
ENERGY: 1500000 4.3694 8.0798 3.6815 0.0000 -10548.2782 1321.8615 0.0000 0.0000 1747.2682 -7463.0179 297.6021 -9210.2861 -7479.5040 299.5377 -1235.8747 -1142.7387 31069.8523 -78.5679 -7.0493
TCL: Running FEP window  10: Lambda1 0.44999999999999996 Lambda2 0.49999999999999994 [dLambda 0.04999999999999999]
TCL: Setting parameter firsttimestep to 0
TCL: Setting parameter alchLambda to 0.44999999999999996
Info: NONBONDED TABLE R-SQUARED SPACING: 0.0625
Info: NONBONDED TABLE SIZE: 705 POINTS
TCL: Setting parameter alchLambda2 to 0.49999999999999994
Info: NONBONDED TABLE R-SQUARED SPACING: 0.0625
Info: NONBONDED TABLE SIZE: 705 POINTS
TCL: Running for 1500000 steps
ETITLE: TS BOND ANGLE DIHED IMPRP ELECT VDW BOUNDARY MISC KINETIC TOTAL TEMP POTENTIAL TOTALAVG TEMPAVG PRESSURE GPRESSURE VOLUME PRESSAVG GPRESSAVG
ENERGY: 0 4.3694 8.0798 3.6815 0.0000 -10548.2801 1321.6572 0.0000 0.0000 1746.3785 -7464.1136 297.4506 -9210.4922 -7464.1136 297.4506 -1236.4765 -1139.9840 31069.8523 -1236.4765 -1139.9840
ENERGY: 300000 0.0471 4.8532 1.2384 0.0000 -10740.0428 1431.4866 0.0000 0.0000 1763.5031 -7538.9144 300.3673 -9302.4175 -7466.0155 300.6993 -47.8101 86.9885 29830.1673 -329.2124 -245.9600
ENERGY: 600000 1.1713 10.5952 2.1100 0.0000 -10665.3733 1430.8211 0.0000 0.0000 1801.7622 -7418.9136 306.8837 -9220.6758 -7463.4770 301.8003 -64.6676 -12.8353 30382.6057 -280.7982 -220.4353
ENERGY: 900000 1.8683 5.3294 3.1151 0.0000 -10763.5972 1455.1471 0.0000 0.0000 1816.9065 -7481.2309 309.4632 -9298.1374 -7468.1446 301.6238 -17.2947 22.4583 30604.0499 -251.9125 -197.5968
ENERGY: 1200000 0.8160 4.0670 3.2710 0.0000 -10768.4055 1534.7660 0.0000 0.0000 1738.4200 -7487.0655 296.0950 -9225.4855 -7468.6165 301.4382 642.6574 701.6259 30297.4689 -142.2046 -78.7332
ENERGY: 1500000 1.3814 7.2053 3.9183 0.0000 -10739.6304 1485.6870 0.0000 0.0000 1765.0221 -7476.4161 300.6260 -9241.4383 -7470.6321 301.8498 467.4432 534.0597 29816.6927 -100.2842 -37.4049
TCL: Running FEP window  11: Lambda1 0.49999999999999994 Lambda2 0.5499999999999999 [dLambda 0.04999999999999999]
TCL: Setting parameter firsttimestep to 0
TCL: Setting parameter alchLambda to 0.49999999999999994
Info: NONBONDED TABLE R-SQUARED SPACING: 0.0625
Info: NONBONDED TABLE SIZE: 705 POINTS
TCL: Setting parameter alchLambda2 to 0.5499999999999999
Info: NONBONDED TABLE R-SQUARED SPACING: 0.0625
Info: NONBONDED TABLE SIZE: 705 POINTS
TCL: Running for 1500000 steps
ETITLE: TS BOND ANGLE DIHED IMPRP ELECT VDW BOUNDARY MISC KINETIC TOTAL TEMP POTENTIAL TOTALAVG TEMPAVG PRESSURE GPRESSURE VOLUME PRESSAVG GPRESSAVG
ENERGY: 0 1.3814 7.2053 3.9183 0.0000 -10739.6295 1486.0766 0.0000 0.0000 1764.1007 -7476.9471 300.4691 -9241.0478 -7476.9471 300.4691 463.9680 542.8808 29816.6927 463.9680 542.8808
ENERGY: 300000 1.0069 5.9350 2.6119 0.0000 -10749.2688 1547.6149 0.0000 0.0000 1787.7909 -7404.3092 304.5041 -9192.1001 -7455.2858 301.2332 891.3832 951.3648 30351.9055 378.2309 426.4745
ENERGY: 600000 5.1845 3.4696 4.4552 0.0000 -10649.9609 1458.6258 0.0000 0.0000 1815.0009 -7363.2248 309.1386 -9178.2257 -7463.5260 300.9084 442.3224 570.1226 30314.1234 252.8439 327.4491
ENERGY: 900000 1.2711 6.4174 2.4530 0.0000 -10662.9381 1414.0722 0.0000 0.0000 1775.4737 -7463.2507 302.4062 -9238.7244 -7475.3048 299.4516 -101.9825 -100.2813 30213.6429 216.6282 283.9499
ENERGY: 1200000 0.6950 4.1272 6.5546 0.0000 -10825.7656 1533.2179 0.0000 0.0000 1727.7431 -7553.4278 294.2765 -9281.1708 -7490.4511 299.2261 544.6901 635.8387 30254.3924 263.1375 331.5281
ENERGY: 1500000 1.7416 7.7906 2.4957 0.0000 -10735.9249 1464.4466 0.0000 0.0000 1740.7551 -7518.6953 296.4927 -9259.4504 -7497.0921 298.6639 110.1114 157.9000 30334.7513 204.6689 274.0170
TCL: Running FEP window  12: Lambda1 0.5499999999999999 Lambda2 0.6    [dLambda 0.050000000000000044]
TCL: Setting parameter firsttimestep to 0
TCL: Setting parameter alchLambda to 0.5499999999999999
Info: NONBONDED TABLE R-SQUARED SPACING: 0.0625
Info: NONBONDED TABLE SIZE: 705 POINTS
TCL: Setting parameter alchLambda2 to 0.6
Info: NONBONDED TABLE R-SQUARED SPACING: 0.0625
Info: NONBONDED TABLE SIZE: 705 POINTS
TCL: Running for 1500000 steps
ETITLE: TS BOND ANGLE DIHED IMPRP ELECT VDW BOUNDARY MISC KINETIC TOTAL TEMP POTENTIAL TOTALAVG TEMPAVG PRESSURE GPRESSURE VOLUME PRESSAVG GPRESSAVG
ENERGY: 0 1.7416 7.7906 2.4957 0.0000 -10736.0002 1464.7225 0.0000 0.0000 1739.8391 -7519.4105 296.3367 -9259.2497 -7519.4105 296.3367 79.5205 164.1297 30334.7513 79.5205 164.1297
ENERGY: 300000 2.2860 3.7170 1.9960 0.0000 -10769.6905 1458.8518 0.0000 0.0000 1785.7401 -7517.0994 304.1548 -9302.8395 -7472.2202 298.5135 146.6456 243.9617 29954.7136 -146.2912 -48.4714
ENERGY: 600000 0.2768 4.7925 2.6217 0.0000 -10840.3672 1473.9848 0.0000 0.0000 1739.9426 -7618.7487 296.3544 -9358.6913 -7515.5485 295.9985 144.0377 115.4895 30007.1412 35.1399 92.6198
ENERGY: 900000 0.5853 6.9605 2.4621 0.0000 -10662.0831 1455.1060 0.0000 0.0000 1782.1388 -7414.8304 303.5414 -9196.9693 -7502.7180 297.6897 78.6828 59.4300 30857.2923 15.2844 59.5517
ENERGY: 1200000 0.7140 7.0529 2.6211 0.0000 -10661.3828 1408.2821 0.0000 0.0000 1767.1671 -7475.5456 300.9914 -9242.7128 -7504.7646 298.3247 -368.1852 -284.7932 30450.5276 -41.0368 5.4457
ENERGY: 1500000 1.3134 3.8789 2.6881 0.0000 -10547.2963 1313.6334 0.0000 0.0000 1737.9377 -7487.8448 296.0129 -9225.7825 -7498.2591 298.7635 -735.6947 -625.6167 30072.0059 -105.9765 -52.5419
TCL: Running FEP window  13: Lambda1 0.6    Lambda2 0.65   [dLambda 0.050000000000000044]
TCL: Setting parameter firsttimestep to 0
TCL: Setting parameter alchLambda to 0.6
Info: NONBONDED TABLE R-SQUARED SPACING: 0.0625
Info: NONBONDED TABLE SIZE: 705 POINTS
TCL: Setting parameter alchLambda2 to 0.65
Info: NONBONDED TABLE R-SQUARED SPACING: 0.0625
Info: NONBONDED TABLE SIZE: 705 POINTS
TCL: Running for 1500000 steps
ETITLE: TS BOND ANGLE DIHED IMPRP ELECT VDW BOUNDARY MISC KINETIC TOTAL TEMP POTENTIAL TOTALAVG TEMPAVG PRESSURE GPRESSURE VOLUME PRESSAVG GPRESSAVG
ENERGY: 0 1.3134 3.8789 2.6881 0.0000 -10547.4887 1313.1406 0.0000 0.0000 1737.0378 -7489.4299 295.8596 -9226.4677 -7489.4299 295.8596 -707.5053 -627.2896 30072.0059 -707.5053 -627.2896
ENERGY: 300000 1.8670 5.4080 2.2840 0.0000 -10667.7011 1407.2588 0.0000 0.0000 1768.2264 -7482.6570 301.1718 -9250.8834 -7517.6119 298.9507 -306.2751 -243.3901 30318.8106 -268.0872 -206.2011
ENERGY: 600000 1.0250 11.9052 3.1209 0.0000 -10534.3438 1323.0856 0.0000 0.0000 1790.4231 -7404.7839 304.9524 -9195.2069 -7507.2852 299.4144 -618.0755 -576.5131 30178.1019 -218.9871 -154.9501
ENERGY: 900000 0.7165 4.9609 2.8678 0.0000 -10669.4584 1442.1469 0.0000 0.0000 1728.3330 -7490.4333 294.3770 -9218.7662 -7506.3504 298.8144 151.1031 202.8974 30294.3913 -84.3429 -5.2069
ENERGY: 1200000 0.9061 5.0994 1.0139 0.0000 -10607.8122 1330.4953 0.0000 0.0000 1750.4368 -7519.8607 298.1418 -9270.2975 -7513.8570 298.5740 -945.1197 -918.8769 30182.9738 -205.9055 -127.1406
ENERGY: 1500000 0.6657 5.4733 3.4365 0.0000 -10594.9963 1307.4695 0.0000 0.0000 1781.6012 -7496.3501 303.4498 -9277.9513 -7502.3909 299.1975 -1317.3980 -1291.2492 30929.7978 -310.0109 -235.5072
TCL: Running FEP window  14: Lambda1 0.65   Lambda2 0.7000000000000001 [dLambda 0.050000000000000044]
TCL: Setting parameter firsttimestep to 0
TCL: Setting parameter alchLambda to 0.65
Info: NONBONDED TABLE R-SQUARED SPACING: 0.0625
Info: NONBONDED TABLE SIZE: 705 POINTS
TCL: Setting parameter alchLambda2 to 0.7000000000000001
Info: NONBONDED TABLE R-SQUARED SPACING: 0.0625
Info: NONBONDED TABLE SIZE: 705 POINTS
TCL: Running for 1500000 steps
ETITLE: TS BOND ANGLE DIHED IMPRP ELECT VDW BOUNDARY MISC KINETIC TOTAL TEMP POTENTIAL TOTALAVG TEMPAVG PRESSURE GPRESSURE VOLUME PRESSAVG GPRESSAVG
ENERGY: 0 0.6657 5.4733 3.4365 0.0000 -10594.7718 1306.9838 0.0000 0.0000 1780.7051 -7497.5074 303.2972 -9278.2125 -7497.5074 303.2972 -1381.6345 -1288.8641 30929.7978 -1381.6345 -1288.8641
ENERGY: 300000 0.2183 5.0607 2.6178 0.0000 -10667.2797 1390.7887 0.0000 0.0000 1768.3235 -7500.2707 301.1883 -9268.5942 -7483.4811 304.3121 -348.2535 -228.4443 30022.1232 -324.7856 -259.6644
ENERGY: 600000 0.9980 4.5158 2.7413 0.0000 -10769.3423 1454.4410 0.0000 0.0000 1729.3030 -7577.3432 294.5422 -9306.6462 -7491.3564 300.9813 -39.1291 -45.9735 30229.7775 -276.0525 -225.5190
ENERGY: 900000 2.3199 11.4637 3.3239 0.0000 -10574.6876 1351.2346 0.0000 0.0000 1741.2427 -7465.1027 296.5758 -9206.3454 -7489.9543 299.8298 -1023.3280 -906.1749 31071.8614 -257.9859 -187.8999
ENERGY: 1200000 0.2911 5.6155 2.4342 0.0000 -10664.4002 1346.8136 0.0000 0.0000 1747.2369 -7562.0089 297.5967 -9309.2458 -7500.8180 298.5804 -774.0405 -690.1662 30291.2555 -261.1638 -191.8739
ENERGY: 1500000 1.2750 6.3583 2.0907 0.0000 -10767.2864 1453.7881 0.0000 0.0000 1767.1372 -7536.6371 300.9863 -9303.7743 -7497.5840 299.3274 242.5648 281.1335 29913.0247 -190.8641 -121.2042
TCL: Running FEP window  15: Lambda1 0.7000000000000001 Lambda2 0.7500000000000001 [dLambda 0.050000000000000044]
TCL: Setting parameter firsttimestep to 0
TCL: Setting parameter alchLambda to 0.7000000000000001
Info: NONBONDED TABLE R-SQUARED SPACING: 0.0625
Info: NONBONDED TABLE SIZE: 705 POINTS
TCL: Setting parameter alchLambda2 to 0.7500000000000001
Info: NONBONDED TABLE R-SQUARED SPACING: 0.0625
Info: NONBONDED TABLE SIZE: 705 POINTS
TCL: Running for 1500000 steps
ETITLE: TS BOND ANGLE DIHED IMPRP ELECT VDW BOUNDARY MISC KINETIC TOTAL TEMP POTENTIAL TOTALAVG TEMPAVG PRESSURE GPRESSURE VOLUME PRESSAVG GPRESSAVG
ENERGY: 0 1.2750 6.3583 2.0907 0.0000 -10767.1591 1453.3442 0.0000 0.0000 1766.2825 -7537.8085 300.8407 -9304.0910 -7537.8085 300.8407 196.3191 280.8865 29913.0247 196.3191 280.8865
ENERGY: 300000 2.5476 6.1057 1.9710 0.0000 -10618.7503 1434.5805 0.0000 0.0000 1796.1472 -7377.3983 305.9274 -9173.5455 -7424.5793 306.8926 51.2098 115.3923 30620.2493 58.7047 119.7924
ENERGY: 600000 0.6235 10.0422 1.6184 0.0000 -10661.2831 1374.8662 0.0000 0.0000 1804.0475 -7470.0854 307.2730 -9274.1329 -7465.1051 303.5046 -532.3311 -482.4743 30389.1538 -88.4382 -26.5407
ENERGY: 900000 1.2996 5.9817 1.6784 0.0000 -10708.0632 1414.0162 0.0000 0.0000 1728.5789 -7556.5083 294.4188 -9285.0872 -7488.3597 300.7153 -280.4549 -190.3546 30228.0704 -75.2230 -1.0843
ENERGY: 1200000 0.6377 4.8209 2.0168 0.0000 -10773.3264 1495.2031 0.0000 0.0000 1710.8873 -7559.7607 291.4055 -9270.6480 -7485.4043 300.1769 426.6006 411.8014 30528.7004 -15.8787 56.3528
ENERGY: 1500000 1.2635 7.8666 4.3312 0.0000 -10791.3385 1489.9502 0.0000 0.0000 1693.0104 -7594.9166 288.3607 -9287.9270 -7489.1842 299.5072 109.4647 166.1959 30588.1815 12.7467 79.7910
TCL: Running FEP window  16: Lambda1 0.7500000000000001 Lambda2 0.8000000000000002 [dLambda 0.050000000000000044]
TCL: Setting parameter firsttimestep to 0
TCL: Setting parameter alchLambda to 0.7500000000000001
Info: NONBONDED TABLE R-SQUARED SPACING: 0.0625
Info: NONBONDED TABLE SIZE: 705 POINTS
TCL: Setting parameter alchLambda2 to 0.8000000000000002
Info: NONBONDED TABLE R-SQUARED SPACING: 0.0625
Info: NONBONDED TABLE SIZE: 705 POINTS
TCL: Running for 1500000 steps
ETITLE: TS BOND ANGLE DIHED IMPRP ELECT VDW BOUNDARY MISC KINETIC TOTAL TEMP POTENTIAL TOTALAVG TEMPAVG PRESSURE GPRESSURE VOLUME PRESSAVG GPRESSAVG
ENERGY: 0 1.2635 7.8666 4.3312 0.0000 -10792.3275 1490.0638 0.0000 0.0000 1692.1088 -7596.6936 288.2071 -9288.8024 -7596.6936 288.2071 90.4533 168.9926 30588.1815 90.4533 168.9926
ENERGY: 300000 0.3787 5.4397 3.7733 0.0000 -10734.5051 1446.0818 0.0000 0.0000 1751.2878 -7527.5438 298.2867 -9278.8316 -7515.6946 298.2623 -145.3710 -75.3301 30652.2618 26.1178 122.1002
ENERGY: 600000 2.1210 3.8869 2.0222 0.0000 -10573.6762 1389.5720 0.0000 0.0000 1740.1545 -7435.9196 296.3904 -9176.0741 -7503.9833 297.7662 -325.5505 -316.4041 30593.6135 -3.8765 70.6275
ENERGY: 900000 1.3116 4.8078 1.9882 0.0000 -10771.5531 1507.0865 0.0000 0.0000 1739.8786 -7516.4805 296.3435 -9256.3591 -7498.4602 297.1873 354.2525 416.7358 30641.3037 -51.9936 22.4110
ENERGY: 1200000 0.0532 9.7529 2.1705 0.0000 -10826.9082 1491.0016 0.0000 0.0000 1793.5948 -7530.3351 305.4926 -9323.9299 -7492.4292 297.9333 221.4928 302.3110 30208.9611 -40.1162 30.8970
ENERGY: 1500000 0.6582 6.0735 2.0370 0.0000 -10592.6054 1388.7421 0.0000 0.0000 1713.1661 -7481.9286 291.7937 -9195.0947 -7489.5638 298.1232 -414.1541 -333.1413 30735.4627 -184.1119 -112.2893
TCL: Running FEP window  17: Lambda1 0.8000000000000002 Lambda2 0.8500000000000002 [dLambda 0.050000000000000044]
TCL: Setting parameter firsttimestep to 0
TCL: Setting parameter alchLambda to 0.8000000000000002
Info: NONBONDED TABLE R-SQUARED SPACING: 0.0625
Info: NONBONDED TABLE SIZE: 705 POINTS
TCL: Setting parameter alchLambda2 to 0.8500000000000002
Info: NONBONDED TABLE R-SQUARED SPACING: 0.0625
Info: NONBONDED TABLE SIZE: 705 POINTS
TCL: Running for 1500000 steps
ETITLE: TS BOND ANGLE DIHED IMPRP ELECT VDW BOUNDARY MISC KINETIC TOTAL TEMP POTENTIAL TOTALAVG TEMPAVG PRESSURE GPRESSURE VOLUME PRESSAVG GPRESSAVG
ENERGY: 0 0.6582 6.0735 2.0370 0.0000 -10593.8545 1389.2370 0.0000 0.0000 1712.2784 -7483.5704 291.6425 -9195.8488 -7483.5704 291.6425 -386.4796 -324.1471 30735.4627 -386.4796 -324.1471
ENERGY: 300000 2.9724 4.3631 2.4012 0.0000 -10708.9572 1454.9921 0.0000 0.0000 1798.7432 -7445.4852 306.3695 -9244.2285 -7439.1434 301.7661 -28.4336 115.2332 30418.5716 -44.3366 20.1292
ENERGY: 600000 1.4032 4.2843 3.4485 0.0000 -10704.4955 1450.8631 0.0000 0.0000 1768.9151 -7475.5812 301.2891 -9244.4963 -7441.4534 301.3261 185.2234 205.3037 30183.8960 7.1950 58.3428
ENERGY: 900000 1.1099 8.1101 2.7419 0.0000 -10547.6880 1411.4692 0.0000 0.0000 1801.8407 -7322.4163 306.8971 -9124.2569 -7447.7302 301.8908 122.8082 205.0722 30666.4407 13.2034 72.0405
ENERGY: 1200000 1.4587 5.7230 3.2477 0.0000 -10653.4119 1396.3325 0.0000 0.0000 1799.9626 -7446.6874 306.5772 -9246.6500 -7446.3768 302.9106 -473.5267 -443.2978 30693.4707 -69.7839 -7.9339
ENERGY: 1500000 1.7901 4.9592 1.5757 0.0000 -10729.6428 1460.7267 0.0000 0.0000 1767.6990 -7492.8920 301.0819 -9260.5910 -7464.0187 302.4315 168.3755 177.6615 30581.8473 -35.6161 25.0033
TCL: Running FEP window  18: Lambda1 0.8500000000000002 Lambda2 0.9000000000000002 [dLambda 0.050000000000000044]
TCL: Setting parameter firsttimestep to 0
TCL: Setting parameter alchLambda to 0.8500000000000002
Info: NONBONDED TABLE R-SQUARED SPACING: 0.0625
Info: NONBONDED TABLE SIZE: 705 POINTS
TCL: Setting parameter alchLambda2 to 0.9000000000000002
Info: NONBONDED TABLE R-SQUARED SPACING: 0.0625
Info: NONBONDED TABLE SIZE: 705 POINTS
TCL: Running for 1500000 steps
ETITLE: TS BOND ANGLE DIHED IMPRP ELECT VDW BOUNDARY MISC KINETIC TOTAL TEMP POTENTIAL TOTALAVG TEMPAVG PRESSURE GPRESSURE VOLUME PRESSAVG GPRESSAVG
ENERGY: 0 1.7901 4.9592 1.5757 0.0000 -10731.6822 1462.7093 0.0000 0.0000 1766.7991 -7493.8487 300.9287 -9260.6478 -7493.8487 300.9287 113.2205 202.8045 30581.8473 113.2205 202.8045
ENERGY: 300000 0.8739 4.3193 3.1073 0.0000 -10669.8769 1441.4174 0.0000 0.0000 1740.1125 -7480.0465 296.3833 -9220.1590 -7487.5531 299.9389 228.7365 275.6140 29918.9617 191.4285 254.9607
ENERGY: 600000 0.1199 7.6417 1.8948 0.0000 -10615.8765 1410.9035 0.0000 0.0000 1711.5637 -7483.7528 291.5207 -9195.3165 -7480.9385 298.2637 -289.7354 -199.5202 30840.8524 109.9642 182.6056
ENERGY: 900000 0.0599 3.7558 2.6406 0.0000 -10728.3671 1473.9201 0.0000 0.0000 1759.9187 -7488.0721 299.7568 -9247.9908 -7484.8285 297.6918 184.1911 189.9032 30727.0761 -5.1417 51.9189
ENERGY: 1200000 1.3175 7.1057 3.7366 0.0000 -10772.9921 1494.2940 0.0000 0.0000 1816.3922 -7450.1462 309.3756 -9266.5384 -7474.4240 299.5759 771.6138 759.2456 29866.6910 -82.5442 -29.0724
ENERGY: 1500000 1.9077 7.8036 3.3196 0.0000 -10589.7256 1364.2670 0.0000 0.0000 1787.3438 -7425.0839 304.4279 -9212.4276 -7475.0475 299.8900 -620.2598 -609.7017 30703.8846 -16.1538 35.4570
TCL: Running FEP window  19: Lambda1 0.9000000000000002 Lambda2 0.9500000000000003 [dLambda 0.050000000000000044]
TCL: Setting parameter firsttimestep to 0
TCL: Setting parameter alchLambda to 0.9000000000000002
Info: NONBONDED TABLE R-SQUARED SPACING: 0.0625
Info: NONBONDED TABLE SIZE: 705 POINTS
TCL: Setting parameter alchLambda2 to 0.9500000000000003
Info: NONBONDED TABLE R-SQUARED SPACING: 0.0625
Info: NONBONDED TABLE SIZE: 705 POINTS
TCL: Running for 1500000 steps
ETITLE: TS BOND ANGLE DIHED IMPRP ELECT VDW BOUNDARY MISC KINETIC TOTAL TEMP POTENTIAL TOTALAVG TEMPAVG PRESSURE GPRESSURE VOLUME PRESSAVG GPRESSAVG
ENERGY: 0 1.9077 7.8036 3.3196 0.0000 -10591.2702 1365.6987 0.0000 0.0000 1786.4667 -7426.0739 304.2785 -9212.5406 -7426.0739 304.2785 -679.6882 -594.2419 30703.8846 -679.6882 -594.2419
ENERGY: 300000 0.6067 7.3783 2.4211 0.0000 -10598.1547 1392.5758 0.0000 0.0000 1724.7249 -7470.4480 293.7624 -9195.1729 -7450.2783 300.4115 -286.4675 -89.6157 30421.4585 -448.8092 -359.2927
ENERGY: 600000 1.6469 5.4641 1.7664 0.0000 -10800.3796 1481.6757 0.0000 0.0000 1766.8944 -7542.9322 300.9449 -9309.8266 -7487.6776 300.7624 319.0442 371.3232 30064.9830 -155.8772 -83.9927
ENERGY: 900000 0.5103 4.3412 2.4602 0.0000 -10520.2284 1411.5581 0.0000 0.0000 1822.3099 -7279.0487 310.3835 -9101.3586 -7466.3046 302.6698 183.9151 209.8447 30874.7992 -107.5275 -40.1184
ENERGY: 1200000 1.3037 5.1181 1.8466 0.0000 -10637.3399 1384.3845 0.0000 0.0000 1767.0802 -7477.6068 300.9765 -9244.6870 -7471.2868 300.5417 -596.3452 -538.7405 30456.4486 -107.0580 -40.5581
ENERGY: 1500000 2.0340 9.5262 1.2537 0.0000 -10741.3923 1458.8152 0.0000 0.0000 1814.3370 -7455.4262 309.0255 -9269.7632 -7467.7085 300.7689 141.6717 154.2824 30703.0573 -90.2637 -25.8271
TCL: Running FEP window  20: Lambda1 0.9500000000000003 Lambda2 1.0    [dLambda 0.04999999999999971]
TCL: Setting parameter firsttimestep to 0
TCL: Setting parameter alchLambda to 0.9500000000000003
Info: NONBONDED TABLE R-SQUARED SPACING: 0.0625
Info: NONBONDED TABLE SIZE: 705 POINTS
TCL: Setting parameter alchLambda2 to 1.0
Info: NONBONDED TABLE R-SQUARED SPACING: 0.0625
Info: NONBONDED TABLE SIZE: 705 POINTS
TCL: Running for 1500000 steps
ETITLE: TS BOND ANGLE DIHED IMPRP ELECT VDW BOUNDARY MISC KINETIC TOTAL TEMP POTENTIAL TOTALAVG TEMPAVG PRESSURE GPRESSURE VOLUME PRESSAVG GPRESSAVG
ENERGY: 0 2.0340 9.5262 1.2537 0.0000 -10742.8720 1460.5072 0.0000 0.0000 1813.4538 -7456.0972 308.8751 -9269.5510 -7456.0972 308.8751 98.9428 180.3281 30703.0573 98.9428 180.3281
ENERGY: 300000 2.6250 7.8727 1.7697 0.0000 -10778.6438 1503.7359 0.0000 0.0000 1742.0567 -7520.5838 296.7144 -9262.6405 -7462.5395 301.7961 404.8250 443.7984 30488.1083 234.6070 276.8511
ENERGY: 600000 2.4997 5.0385 1.2137 0.0000 -10728.5637 1396.0677 0.0000 0.0000 1739.9322 -7583.8120 296.3526 -9323.7442 -7494.5553 299.2066 -571.1108 -478.1310 30364.7413 -83.1060 -24.7272
ENERGY: 900000 1.7618 7.7089 2.7620 0.0000 -10646.4198 1403.9911 0.0000 0.0000 1764.5612 -7465.6349 300.5475 -9230.1960 -7503.5743 299.5872 -539.8564 -457.3043 30855.5002 -65.3228 -6.1354
ENERGY: 1200000 0.8902 8.7778 1.4702 0.0000 -10730.0343 1444.0551 0.0000 0.0000 1738.5037 -7536.3373 296.1093 -9274.8409 -7504.1196 299.5213 93.9945 159.0743 30172.4779 35.3853 92.7145
ENERGY: 1500000 1.3976 6.2308 2.1641 0.0000 -10755.8960 1500.6148 0.0000 0.0000 1754.9130 -7490.5756 298.9042 -9245.4886 -7501.2686 299.2814 591.8141 603.9226 30060.5992 58.1196 112.6227
TCL: Exiting due to exit command.
