Info: SIMULATION PARAMETERS:
Info: TIMESTEP               2
Info: NUMBER OF STEPS        0
Info: STEPS PER CYCLE        10
Info: PERIODIC CELL BASIS 1  30.0103 0 0
Info: PERIODIC CELL BASIS 2  0 29.5337 0
Info: PERIODIC CELL BASIS 3  0 0 34.4407
Info: PERIODIC CELL CENTER   0 0 0
Info: WRAPPING WATERS AROUND PERIODIC BOUNDARIES ON OUTPUT.
Info: WRAPPING ALL CLUSTERS AROUND PERIODIC BOUNDARIES ON OUTPUT.
Info: FIRST LDB TIMESTEP     50
Info: LAST LDB TIMESTEP     -1
Info: HOM BACKGROUND SCALING 1
Info: PME BACKGROUND SCALING 1
Info: MIN ATOMS PER PATCH    40
Info: EMPTY PATCH LOAD       40 ATOMS
Info: VELOCITY FILE          mobley_632905_equil.vel
Info: CENTER OF MASS MOVING INITIALLY? NO
Info: DIELECTRIC             1
Info: EXCLUDE                SCALED ONE-FOUR
Info: 1-4 ELECTROSTATICS SCALED BY 0.833333
Info: MODIFIED 1-4 VDW PARAMETERS WILL BE USED
Info: DCD FILENAME           mobley_632905_prod.dcd
Info: DCD FREQUENCY          100000
Info: DCD FIRST STEP         100000
Info: DCD FILE WILL CONTAIN UNIT CELL DATA
Info: XST FILENAME           mobley_632905_prod.xst
Info: XST FREQUENCY          100000
Info: NO VELOCITY DCD OUTPUT
Info: NO FORCE DCD OUTPUT
Info: OUTPUT FILENAME        mobley_632905_prod
Info: BINARY OUTPUT FILES WILL BE USED
Info: RESTART FILENAME       mobley_632905_prod.restart
Info: RESTART FREQUENCY      100000
Info: BINARY RESTART FILES WILL BE USED
Info: CUTOFF                 9
Info: PAIRLIST DISTANCE      11
Info: PAIRLIST SHRINK RATE   0.01
Info: PAIRLIST GROW RATE     0.01
Info: PAIRLIST TRIGGER       0.3
Info: PAIRLISTS PER CYCLE    2
Info: PAIRLISTS ENABLED
Info: MARGIN                 2
Info: HYDROGEN GROUP CUTOFF  2.5
Info: PATCH DIMENSION        15.5
Info: ENERGY OUTPUT STEPS    100000
Info: ENERGY EVALUATION STEPS    100000
Info: OUTPUT ENERGY PRECISION 4
Info: CROSSTERM ENERGY INCLUDED IN DIHEDRAL
Info: TIMING OUTPUT STEPS    1000000
Info: PRESSURE OUTPUT STEPS  100000
Info: ALCHEMICAL FEP ON
Info: FEP CURRENT LAMBDA VALUE     0
Info: FEP COMPARISON LAMBDA VALUE  0.05
Info: FEP INTRA-ALCHEMICAL NON-BONDED INTERACTIONS WILL BE RETAINED
Info: FEP INTRA-ALCHEMICAL BONDED INTERACTIONS WILL BE RETAINED
Info: FEP VDW SHIFTING COEFFICIENT 5
Info: FEP ELEC. ACTIVE FOR ANNIHILATED PARTICLES BETWEEN LAMBDA = 0 AND LAMBDA = 0.5
Info: FEP ELEC. ACTIVE FOR EXNIHILATED PARTICLES BETWEEN LAMBDA = 0.5 AND LAMBDA = 1
Info: FEP VDW ACTIVE FOR ANNIHILATED PARTICLES BETWEEN LAMBDA = 0 AND LAMBDA = 1
Info: FEP VDW ACTIVE FOR EXNIHILATED PARTICLES BETWEEN LAMBDA = 0 AND LAMBDA = 1
Info: FEP BOND ACTIVE FOR ANNIHILATED PARTICLES BETWEEN LAMBDA = 1 AND LAMBDA = 1
Info: FEP BOND ACTIVE FOR EXNIHILATED PARTICLES BETWEEN LAMBDA = 0 AND LAMBDA = 0
Info: LANGEVIN DYNAMICS ACTIVE
Info: LANGEVIN TEMPERATURE   300
Info: LANGEVIN USING BBK INTEGRATOR
Info: LANGEVIN DAMPING COEFFICIENT IS 1 INVERSE PS
Info: LANGEVIN DYNAMICS APPLIED TO HYDROGENS
Info: LANGEVIN PISTON PRESSURE CONTROL ACTIVE
Info:        TARGET PRESSURE IS 1.01325 BAR
Info:     OSCILLATION PERIOD IS 50 FS
Info:             DECAY TIME IS 25 FS
Info:     PISTON TEMPERATURE IS 300 K
Info:       PRESSURE CONTROL IS GROUP-BASED
Info:    INITIAL STRAIN RATE IS -4.29677e-05 -4.29677e-05 -4.29677e-05
Info:       CELL FLUCTUATION IS ISOTROPIC
Info: PARTICLE MESH EWALD (PME) ACTIVE
Info: PME TOLERANCE               1e-06
Info: PME EWALD COEFFICIENT       0.348832
Info: PME INTERPOLATION ORDER     4
Info: PME GRID DIMENSIONS         32 32 36
Info: PME MAXIMUM GRID SPACING    1
Info: PME CALCULATION WILL BE PERFORMED ON GPU
Info: FULL ELECTROSTATIC EVALUATION FREQUENCY      2
Info: USING VERLET I (r-RESPA) MTS SCHEME.
Info: C1 SPLITTING OF LONG RANGE ELECTROSTATICS
Info: PLACING ATOMS IN PATCHES BY HYDROGEN GROUPS
Info: RIGID BONDS TO HYDROGEN : ALL
Info:         ERROR TOLERANCE : 1e-08
Info:          MAX ITERATIONS : 100
Info: RIGID WATER USING SETTLE ALGORITHM
Info: RANDOM NUMBER SEED     1743867779
Info: USE HYDROGEN BONDS?    NO
Info: Using AMBER format force field!
Info: AMBER PARM FILE        mobley_632905.prmtop
Info: COORDINATE PDB         mobley_632905.pdb
Info: Exclusions will be read from PARM file!
Info: SCNB (VDW SCALING)     2
Info: USING ARITHMETIC MEAN TO COMBINE L-J SIGMA PARAMETERS
Info: BINARY COORDINATES     mobley_632905_equil.coor
Info: SUMMARY OF PARAMETERS:
Info: 11 BONDS
Info: 12 ANGLES
Info:   12 HARMONIC
Info:   0 COSINE-BASED
Info: 10 DIHEDRAL
Info: 0 IMPROPER
Info: 0 CROSSTERM
Info: 0 VDW
Info: 45 VDW_PAIRS
Info: 0 NBTHOLE_PAIRS
Info: To read alchdata from file: mobley_632905.pdb
Info: To read alchflag data from column: 5
Info: STRUCTURE SUMMARY:
Info: 2985 ATOMS
Info: 2985 BONDS
Info: 34 ANGLES
Info: 52 DIHEDRALS
Info: 0 IMPROPERS
Info: 0 CROSSTERMS
Info: 3055 EXCLUSIONS
Info: 2974 RIGID BONDS
Info: ALCH: 0 ATOMS TO DISAPPEAR IN FINAL STATE
Info: ALCH: 21 ATOMS TO APPEAR IN FINAL STATE
Info: 5981 DEGREES OF FREEDOM
Info: 999 HYDROGEN GROUPS
Info: 4 ATOMS IN LARGEST HYDROGEN GROUP
Info: 999 MIGRATION GROUPS
Info: 4 ATOMS IN LARGEST MIGRATION GROUP
Info: TOTAL MASS = 17950 amu
Info: TOTAL CHARGE = -0.000200022 e
Info: MASS DENSITY = 0.976482 g/cm^3
Info: ATOM DENSITY = 0.0977879 atoms/A^3
Info: ADDED 0 IMPLICIT EXCLUSIONS
Info: NONBONDED TABLE R-SQUARED SPACING: 0.0625
Info: NONBONDED TABLE SIZE: 705 POINTS
Info: REMOVING COM VELOCITY 0.123584 -0.0431669 -0.127702
Info: Use 3D box decompostion in PME FFT.
Info: Updated CUDA force table with 4096 elements.
Info: Updated CUDA LJ table with 9 x 9 elements.
Info: Found 23 unique exclusion lists needing 60 bytes
TCL: Running for 1500000 steps
ETITLE: TS BOND ANGLE DIHED IMPRP ELECT VDW BOUNDARY MISC KINETIC TOTAL TEMP POTENTIAL TOTALAVG TEMPAVG PRESSURE GPRESSURE VOLUME PRESSAVG GPRESSAVG
ENERGY: 0 2.6724 10.8925 14.8051 0.0000 -10820.6339 1443.2371 0.0000 0.0000 1796.0579 -7552.9690 302.2295 -9349.0269 -7552.9690 302.2295 -221.2710 -126.8293 30525.2370 -221.2710 -126.8293
ENERGY: 300000 6.1024 5.1288 8.2740 0.0000 -10688.1370 1392.7588 0.0000 0.0000 1835.6513 -7440.2216 308.8921 -9275.8729 -7523.1526 305.2305 -452.9415 -355.5725 30537.1676 -5.9335 94.2875
ENERGY: 600000 7.9296 6.1582 9.3933 0.0000 -10820.7233 1466.0697 0.0000 0.0000 1833.6411 -7497.5313 308.5538 -9331.1724 -7528.8654 303.6886 -134.7904 -109.2729 30491.3998 -86.2539 -6.0009
ENERGY: 900000 3.9608 7.2274 6.2006 0.0000 -10741.3345 1366.3843 0.0000 0.0000 1821.5316 -7536.0298 306.5161 -9357.5614 -7534.3104 302.9229 -780.8455 -657.6884 30575.7484 -278.5153 -193.7613
ENERGY: 1200000 3.6463 8.2241 6.9944 0.0000 -10761.1160 1371.0322 0.0000 0.0000 1806.8413 -7564.3776 304.0441 -9371.2189 -7536.3424 301.9980 -712.5893 -685.6027 30226.8926 -208.0099 -135.1205
ENERGY: 1500000 1.2690 11.5078 6.3449 0.0000 -10730.6833 1383.6181 0.0000 0.0000 1726.7770 -7601.1665 290.5714 -9327.9435 -7538.6465 301.0684 -903.5829 -805.2875 31022.0340 -186.5790 -112.1745
TCL: Running FEP window   2: Lambda1 0.05   Lambda2 0.1    [dLambda 0.05  ]
TCL: Setting parameter firsttimestep to 0
TCL: Setting parameter alchLambda to 0.05
Info: NONBONDED TABLE R-SQUARED SPACING: 0.0625
Info: NONBONDED TABLE SIZE: 705 POINTS
TCL: Setting parameter alchLambda2 to 0.1
Info: NONBONDED TABLE R-SQUARED SPACING: 0.0625
Info: NONBONDED TABLE SIZE: 705 POINTS
TCL: Running for 1500000 steps
ETITLE: TS BOND ANGLE DIHED IMPRP ELECT VDW BOUNDARY MISC KINETIC TOTAL TEMP POTENTIAL TOTALAVG TEMPAVG PRESSURE GPRESSURE VOLUME PRESSAVG GPRESSAVG
ENERGY: 0 1.2690 11.5078 6.3449 0.0000 -10730.6847 1386.3025 0.0000 0.0000 1725.8777 -7599.3828 290.4200 -9325.2605 -7599.3828 290.4200 -856.8332 -794.3763 31022.0340 -856.8332 -794.3763
ENERGY: 300000 1.7266 8.5259 6.7721 0.0000 -10814.0733 1479.1061 0.0000 0.0000 1795.2824 -7522.6602 302.0990 -9317.9426 -7542.7531 300.9508 213.7017 298.0888 30228.1800 -57.3728 27.7232
ENERGY: 600000 2.1865 6.2408 4.8786 0.0000 -10946.3104 1560.0764 0.0000 0.0000 1729.0488 -7643.8793 290.9537 -9372.9281 -7536.7006 301.0726 691.6814 712.3619 30674.2630 -36.5163 31.5848
ENERGY: 900000 2.7294 7.0363 8.2919 0.0000 -10931.5799 1527.8234 0.0000 0.0000 1805.8448 -7579.8541 303.8764 -9385.6989 -7535.4511 300.6971 225.8536 308.8060 30637.3448 -98.0432 -29.9334
ENERGY: 1200000 6.7798 7.0484 10.1416 0.0000 -10816.2768 1404.7142 0.0000 0.0000 1704.6511 -7682.9417 286.8482 -9387.5927 -7564.0700 298.1020 -652.5972 -607.4164 30530.3626 -141.1784 -70.9662
ENERGY: 1500000 4.3620 8.8801 6.6758 0.0000 -10780.9427 1383.4277 0.0000 0.0000 1743.3666 -7634.2306 293.3630 -9377.5971 -7560.2203 298.7265 -910.5913 -887.6785 30580.9866 -82.9274 -17.6166
TCL: Running FEP window   3: Lambda1 0.1    Lambda2 0.15000000000000002 [dLambda 0.05000000000000002]
TCL: Setting parameter firsttimestep to 0
TCL: Setting parameter alchLambda to 0.1
Info: NONBONDED TABLE R-SQUARED SPACING: 0.0625
Info: NONBONDED TABLE SIZE: 705 POINTS
TCL: Setting parameter alchLambda2 to 0.15000000000000002
Info: NONBONDED TABLE R-SQUARED SPACING: 0.0625
Info: NONBONDED TABLE SIZE: 705 POINTS
TCL: Running for 1500000 steps
ETITLE: TS BOND ANGLE DIHED IMPRP ELECT VDW BOUNDARY MISC KINETIC TOTAL TEMP POTENTIAL TOTALAVG TEMPAVG PRESSURE GPRESSURE VOLUME PRESSAVG GPRESSAVG
ENERGY: 0 4.3620 8.8801 6.6758 0.0000 -10780.9416 1384.0231 0.0000 0.0000 1742.4979 -7634.5027 293.2168 -9377.0006 -7634.5027 293.2168 -972.4498 -882.0853 30580.9866 -972.4498 -882.0853
ENERGY: 300000 3.1972 9.9111 4.9558 0.0000 -10936.6941 1546.3197 0.0000 0.0000 1692.7548 -7679.5556 284.8463 -9372.3104 -7602.8863 297.1194 494.3194 516.0245 30694.0031 179.8556 225.5757
ENERGY: 600000 2.8422 7.9882 8.9834 0.0000 -10886.2162 1551.7888 0.0000 0.0000 1819.8034 -7494.8102 306.2253 -9314.6136 -7560.3582 299.2913 565.7075 587.3636 30908.7068 161.4635 209.8666
ENERGY: 900000 3.7294 6.7106 7.5774 0.0000 -10917.6417 1520.6791 0.0000 0.0000 1786.1900 -7592.7553 300.5690 -9378.9452 -7573.6019 298.4593 464.7608 513.7296 30138.2646 94.5998 146.7441
ENERGY: 1200000 6.6349 8.8835 9.6997 0.0000 -10737.9623 1425.8628 0.0000 0.0000 1827.0413 -7459.8401 307.4432 -9286.8814 -7565.6056 298.9418 -118.8539 -88.1501 30704.1907 22.3741 71.9064
ENERGY: 1500000 5.2102 7.5679 5.4556 0.0000 -10938.6267 1580.7152 0.0000 0.0000 1698.6738 -7641.0040 285.8423 -9339.6778 -7561.5362 298.0332 976.0809 979.3826 30394.7605 69.4566 111.7852
TCL: Running FEP window   4: Lambda1 0.15000000000000002 Lambda2 0.2    [dLambda 0.04999999999999999]
TCL: Setting parameter firsttimestep to 0
TCL: Setting parameter alchLambda to 0.15000000000000002
Info: NONBONDED TABLE R-SQUARED SPACING: 0.0625
Info: NONBONDED TABLE SIZE: 705 POINTS
TCL: Setting parameter alchLambda2 to 0.2
Info: NONBONDED TABLE R-SQUARED SPACING: 0.0625
Info: NONBONDED TABLE SIZE: 705 POINTS
TCL: Running for 1500000 steps
ETITLE: TS BOND ANGLE DIHED IMPRP ELECT VDW BOUNDARY MISC KINETIC TOTAL TEMP POTENTIAL TOTALAVG TEMPAVG PRESSURE GPRESSURE VOLUME PRESSAVG GPRESSAVG
ENERGY: 0 5.2102 7.5679 5.4556 0.0000 -10938.6269 1581.0866 0.0000 0.0000 1697.7867 -7641.5199 285.6931 -9339.3066 -7641.5199 285.6931 897.8649 983.6680 30394.7605 897.8649 983.6680
ENERGY: 300000 2.1329 6.6015 4.3494 0.0000 -10980.1192 1569.1106 0.0000 0.0000 1808.7849 -7589.1399 304.3712 -9397.9248 -7590.1733 297.6036 1075.9217 1180.2680 30143.6974 451.4550 500.3231
ENERGY: 600000 4.9039 7.2555 7.2683 0.0000 -10752.5068 1400.0184 0.0000 0.0000 1793.0840 -7539.9767 301.7291 -9333.0607 -7572.6984 299.3122 -456.3129 -419.3809 30366.7212 235.4340 297.8692
ENERGY: 900000 4.6232 7.7233 6.6665 0.0000 -10853.2593 1501.3452 0.0000 0.0000 1780.2084 -7552.6927 299.5625 -9332.9011 -7556.5090 300.1441 295.0496 337.2546 30507.1555 94.2851 151.2429
ENERGY: 1200000 3.3948 5.5495 9.4546 0.0000 -10837.1651 1418.1467 0.0000 0.0000 1807.0164 -7593.6031 304.0736 -9400.6195 -7558.6198 299.6180 -650.0166 -554.3753 30637.0831 -53.2235 5.4501
ENERGY: 1500000 1.7719 4.6238 13.1317 0.0000 -11098.8634 1653.7951 0.0000 0.0000 1792.0888 -7633.4522 301.5616 -9425.5409 -7556.6902 300.3486 1517.1277 1581.8335 30175.2818 -31.2156 30.0717
TCL: Running FEP window   5: Lambda1 0.2    Lambda2 0.25   [dLambda 0.04999999999999999]
TCL: Setting parameter firsttimestep to 0
TCL: Setting parameter alchLambda to 0.2
Info: NONBONDED TABLE R-SQUARED SPACING: 0.0625
Info: NONBONDED TABLE SIZE: 705 POINTS
TCL: Setting parameter alchLambda2 to 0.25
Info: NONBONDED TABLE R-SQUARED SPACING: 0.0625
Info: NONBONDED TABLE SIZE: 705 POINTS
TCL: Running for 1500000 steps
ETITLE: TS BOND ANGLE DIHED IMPRP ELECT VDW BOUNDARY MISC KINETIC TOTAL TEMP POTENTIAL TOTALAVG TEMPAVG PRESSURE GPRESSURE VOLUME PRESSAVG GPRESSAVG
ENERGY: 0 1.7719 4.6238 13.1317 0.0000 -11098.8633 1653.3415 0.0000 0.0000 1791.2191 -7634.7753 301.4153 -9425.9944 -7634.7753 301.4153 1504.1659 1581.6908 30175.2818 1504.1659 1581.6908
ENERGY: 300000 3.8161 5.7475 6.0535 0.0000 -10928.5861 1572.3395 0.0000 0.0000 1800.0420 -7540.5875 302.9000 -9340.6295 -7583.2514 301.1617 937.6780 1027.6869 30318.6181 301.9961 364.6860
ENERGY: 600000 6.1706 6.5533 5.9369 0.0000 -10797.5955 1528.9372 0.0000 0.0000 1800.4335 -7449.5641 302.9658 -9249.9976 -7540.2523 302.3038 543.3294 548.8968 30926.4870 162.4706 224.6165
ENERGY: 900000 4.7223 6.5547 8.6792 0.0000 -10942.4199 1558.7300 0.0000 0.0000 1829.0892 -7534.6446 307.7878 -9363.7337 -7538.6218 302.5425 758.6632 852.8719 30506.7285 227.7451 297.8882
ENERGY: 1200000 4.6068 8.4332 7.5586 0.0000 -10933.4652 1612.7907 0.0000 0.0000 1764.7919 -7535.2840 296.9683 -9300.0760 -7542.8833 301.3384 1533.4353 1549.5334 30420.8651 235.1241 296.5444
ENERGY: 1500000 2.5917 6.1560 5.9629 0.0000 -10964.2624 1495.9707 0.0000 0.0000 1733.3721 -7720.2090 291.6812 -9453.5811 -7557.6203 301.0437 62.2682 103.7495 30125.3866 127.5661 188.0544
TCL: Running FEP window   6: Lambda1 0.25   Lambda2 0.3    [dLambda 0.04999999999999999]
TCL: Setting parameter firsttimestep to 0
TCL: Setting parameter alchLambda to 0.25
Info: NONBONDED TABLE R-SQUARED SPACING: 0.0625
Info: NONBONDED TABLE SIZE: 705 POINTS
TCL: Setting parameter alchLambda2 to 0.3
Info: NONBONDED TABLE R-SQUARED SPACING: 0.0625
Info: NONBONDED TABLE SIZE: 705 POINTS
TCL: Running for 1500000 steps
ETITLE: TS BOND ANGLE DIHED IMPRP ELECT VDW BOUNDARY MISC KINETIC TOTAL TEMP POTENTIAL TOTALAVG TEMPAVG PRESSURE GPRESSURE VOLUME PRESSAVG GPRESSAVG
ENERGY: 0 2.5917 6.1560 5.9629 0.0000 -10964.2639 1497.5854 0.0000 0.0000 1732.4969 -7719.4710 291.5339 -9451.9679 -7719.4710 291.5339 21.9061 117.4677 30125.3866 21.9061 117.4677
ENERGY: 300000 3.5180 8.8074 5.8751 0.0000 -10786.8417 1392.2699 0.0000 0.0000 1797.9354 -7578.4358 302.5455 -9376.3713 -7606.2734 296.8261 -843.7715 -727.9161 30801.2393 -183.3486 -105.4991
ENERGY: 600000 4.3079 9.0325 8.8223 0.0000 -10801.7755 1474.1565 0.0000 0.0000 1795.2212 -7510.2350 302.0887 -9305.4562 -7591.8515 298.2753 34.4390 105.1726 30779.9684 -268.5069 -186.4850
ENERGY: 900000 2.9634 7.2849 7.8515 0.0000 -10836.4318 1489.6293 0.0000 0.0000 1747.4244 -7581.2782 294.0458 -9328.7026 -7593.3357 296.7502 215.4154 254.9927 30593.7309 -239.2600 -164.7749
ENERGY: 1200000 2.6207 6.9280 8.8919 0.0000 -10980.5956 1552.7675 0.0000 0.0000 1780.7732 -7628.6143 299.6575 -9409.3876 -7591.8656 297.2939 400.9287 480.6241 30625.0346 -139.9688 -67.2536
ENERGY: 1500000 6.0382 6.8526 11.2235 0.0000 -10818.8640 1374.9089 0.0000 0.0000 1747.8273 -7672.0135 294.1136 -9419.8408 -7589.6145 297.3492 -1148.9975 -1076.0280 31004.3025 -217.0098 -140.5460
TCL: Running FEP window   7: Lambda1 0.3    Lambda2 0.35   [dLambda 0.04999999999999999]
TCL: Setting parameter firsttimestep to 0
TCL: Setting parameter alchLambda to 0.3
Info: NONBONDED TABLE R-SQUARED SPACING: 0.0625
Info: NONBONDED TABLE SIZE: 705 POINTS
TCL: Setting parameter alchLambda2 to 0.35
Info: NONBONDED TABLE R-SQUARED SPACING: 0.0625
Info: NONBONDED TABLE SIZE: 705 POINTS
TCL: Running for 1500000 steps
ETITLE: TS BOND ANGLE DIHED IMPRP ELECT VDW BOUNDARY MISC KINETIC TOTAL TEMP POTENTIAL TOTALAVG TEMPAVG PRESSURE GPRESSURE VOLUME PRESSAVG GPRESSAVG
ENERGY: 0 6.0381 6.8526 11.2235 0.0000 -10818.8653 1374.9249 0.0000 0.0000 1746.9723 -7672.8539 293.9697 -9419.8262 -7672.8539 293.9697 -1149.5420 -1069.2537 31004.3025 -1149.5420 -1069.2537
ENERGY: 300000 1.1676 3.2426 5.4239 0.0000 -10898.7508 1483.9526 0.0000 0.0000 1846.7537 -7558.2105 310.7603 -9404.9642 -7554.0043 301.9702 -48.5882 47.0248 30677.9748 -367.4779 -308.8622
ENERGY: 600000 3.4085 6.7747 5.3782 0.0000 -10806.8223 1463.2439 0.0000 0.0000 1783.7059 -7544.3111 300.1510 -9328.0170 -7562.0711 301.4802 -60.9061 -25.0167 30792.9222 -275.0893 -226.1772
ENERGY: 900000 6.3505 5.3291 4.8408 0.0000 -10798.4017 1469.2519 0.0000 0.0000 1793.7242 -7518.9052 301.8368 -9312.6294 -7551.1325 301.3469 156.4974 255.6475 30242.6134 -169.1817 -120.8032
ENERGY: 1200000 3.7553 6.9668 5.6944 0.0000 -10801.7466 1420.2862 0.0000 0.0000 1730.3082 -7634.7357 291.1656 -9365.0439 -7557.1282 300.2336 -383.3840 -311.2106 30330.0690 -180.5040 -128.9804
ENERGY: 1500000 3.1639 12.4538 6.7724 0.0000 -10694.1147 1373.7446 0.0000 0.0000 1793.0939 -7504.8860 301.7308 -9297.9799 -7549.3986 300.4330 -690.7978 -696.9076 31024.4887 -189.5529 -139.0369
TCL: Running FEP window   8: Lambda1 0.35   Lambda2 0.39999999999999997 [dLambda 0.04999999999999999]
TCL: Setting parameter firsttimestep to 0
TCL: Setting parameter alchLambda to 0.35
Info: NONBONDED TABLE R-SQUARED SPACING: 0.0625
Info: NONBONDED TABLE SIZE: 705 POINTS
TCL: Setting parameter alchLambda2 to 0.39999999999999997
Info: NONBONDED TABLE R-SQUARED SPACING: 0.0625
Info: NONBONDED TABLE SIZE: 705 POINTS
TCL: Running for 1500000 steps
ETITLE: TS BOND ANGLE DIHED IMPRP ELECT VDW BOUNDARY MISC KINETIC TOTAL TEMP POTENTIAL TOTALAVG TEMPAVG PRESSURE GPRESSURE VOLUME PRESSAVG GPRESSAVG
ENERGY: 0 3.1639 12.4539 6.7724 0.0000 -10694.1150 1373.2640 0.0000 0.0000 1792.1924 -7506.2684 301.5791 -9298.4608 -7506.2684 301.5791 -772.1616 -694.1089 31024.4887 -772.1616 -694.1089
ENERGY: 300000 6.2914 6.5125 10.3833 0.0000 -10927.8482 1568.9011 0.0000 0.0000 1838.3632 -7497.3968 309.3484 -9335.7600 -7524.3033 302.9326 993.1861 1041.6381 30732.3155 -19.5278 33.5202
ENERGY: 600000 2.9612 5.4173 6.0252 0.0000 -10745.4788 1392.0031 0.0000 0.0000 1784.8044 -7554.2676 300.3359 -9339.0720 -7545.4918 301.1717 -601.9544 -563.7918 30726.3227 -73.4440 -10.3506
ENERGY: 900000 4.2778 8.2482 7.0539 0.0000 -10854.5233 1434.2490 0.0000 0.0000 1774.3264 -7626.3680 298.5727 -9400.6944 -7553.5284 300.5930 -457.6431 -377.7489 30929.5258 -254.9404 -175.4558
ENERGY: 1200000 4.5455 7.2330 6.0625 0.0000 -10717.9089 1489.5166 0.0000 0.0000 1756.1801 -7454.3712 295.5192 -9210.5513 -7543.5662 300.6781 236.3623 312.3492 31021.5526 -179.7726 -111.0576
ENERGY: 1500000 5.6526 7.3601 8.0748 0.0000 -10800.7111 1439.4802 0.0000 0.0000 1755.9318 -7584.2116 295.4774 -9340.1434 -7535.2229 301.0232 -50.9228 -27.4395 30639.6024 -139.2072 -78.3608
TCL: Running FEP window   9: Lambda1 0.39999999999999997 Lambda2 0.44999999999999996 [dLambda 0.04999999999999999]
TCL: Setting parameter firsttimestep to 0
TCL: Setting parameter alchLambda to 0.39999999999999997
Info: NONBONDED TABLE R-SQUARED SPACING: 0.0625
Info: NONBONDED TABLE SIZE: 705 POINTS
TCL: Setting parameter alchLambda2 to 0.44999999999999996
Info: NONBONDED TABLE R-SQUARED SPACING: 0.0625
Info: NONBONDED TABLE SIZE: 705 POINTS
TCL: Running for 1500000 steps
ETITLE: TS BOND ANGLE DIHED IMPRP ELECT VDW BOUNDARY MISC KINETIC TOTAL TEMP POTENTIAL TOTALAVG TEMPAVG PRESSURE GPRESSURE VOLUME PRESSAVG GPRESSAVG
ENERGY: 0 5.6526 7.3601 8.0748 0.0000 -10800.7119 1439.7956 0.0000 0.0000 1755.0294 -7584.7992 295.3255 -9339.8287 -7584.7992 295.3255 -97.0460 -17.0774 30639.6024 -97.0460 -17.0774
ENERGY: 300000 3.7546 14.1449 6.3494 0.0000 -10897.1617 1497.0590 0.0000 0.0000 1808.4247 -7567.4291 304.3105 -9375.8537 -7554.4543 302.9432 541.9455 578.7410 30108.4604 339.1065 378.6469
ENERGY: 600000 4.4824 5.5269 3.4615 0.0000 -10714.3677 1387.0256 0.0000 0.0000 1776.5099 -7537.3614 298.9401 -9313.8712 -7543.0419 300.9195 -552.2251 -502.5019 30501.5668 -55.7826 -11.4636
ENERGY: 900000 9.0496 7.1036 7.2938 0.0000 -10689.0288 1402.7699 0.0000 0.0000 1758.1486 -7504.6633 295.8504 -9262.8119 -7537.0294 299.7488 -501.9538 -402.8345 30836.4805 -186.7879 -131.0712
ENERGY: 1200000 2.8889 4.6076 8.2455 0.0000 -10868.4623 1495.8285 0.0000 0.0000 1823.5003 -7533.3915 306.8474 -9356.8917 -7533.5019 299.8712 304.5318 347.1397 30519.9426 -202.5576 -152.2516
ENERGY: 1500000 3.2262 7.1900 6.7329 0.0000 -10783.2405 1400.2502 0.0000 0.0000 1728.4535 -7637.3876 290.8535 -9365.8411 -7548.7450 299.5988 -694.1673 -653.5535 30711.3370 -218.2345 -173.5117
TCL: Running FEP window  10: Lambda1 0.44999999999999996 Lambda2 0.49999999999999994 [dLambda 0.04999999999999999]
TCL: Setting parameter firsttimestep to 0
TCL: Setting parameter alchLambda to 0.44999999999999996
Info: NONBONDED TABLE R-SQUARED SPACING: 0.0625
Info: NONBONDED TABLE SIZE: 705 POINTS
TCL: Setting parameter alchLambda2 to 0.49999999999999994
Info: NONBONDED TABLE R-SQUARED SPACING: 0.0625
Info: NONBONDED TABLE SIZE: 705 POINTS
TCL: Running for 1500000 steps
ETITLE: TS BOND ANGLE DIHED IMPRP ELECT VDW BOUNDARY MISC KINETIC TOTAL TEMP POTENTIAL TOTALAVG TEMPAVG PRESSURE GPRESSURE VOLUME PRESSAVG GPRESSAVG
ENERGY: 0 3.2262 7.1900 6.7329 0.0000 -10783.2395 1400.2126 0.0000 0.0000 1727.5633 -7638.3144 290.7037 -9365.8777 -7638.3144 290.7037 -728.1290 -647.3417 30711.3370 -728.1290 -647.3417
ENERGY: 300000 2.6279 9.5752 6.9889 0.0000 -10698.7865 1368.8917 0.0000 0.0000 1764.3055 -7546.3972 296.8864 -9310.7027 -7588.1418 295.7214 -508.6109 -389.3165 30451.0607 -170.3956 -115.8465
ENERGY: 600000 2.0538 11.1446 5.4663 0.0000 -10809.6974 1467.3212 0.0000 0.0000 1783.1980 -7540.5136 300.0656 -9323.7116 -7553.3477 300.3605 -14.1564 19.7314 30835.7101 -36.4416 20.5526
ENERGY: 900000 3.4162 5.1434 9.7820 0.0000 -10750.1061 1450.7339 0.0000 0.0000 1784.1051 -7496.9255 300.2182 -9281.0306 -7545.9239 300.9250 28.7280 29.4438 30806.2142 -2.0615 47.7701
ENERGY: 1200000 1.7834 2.9772 8.8724 0.0000 -10855.1500 1427.4602 0.0000 0.0000 1791.7238 -7622.3330 301.5002 -9414.0568 -7555.9343 300.6914 -480.6204 -366.8179 30998.6895 -74.6093 -15.9672
ENERGY: 1500000 6.2651 6.6384 7.4912 0.0000 -10778.7415 1375.4905 0.0000 0.0000 1766.1175 -7616.7389 297.1914 -9382.8564 -7558.5622 300.2378 -968.6845 -977.5642 30792.7833 -121.1715 -65.7925
TCL: Running FEP window  11: Lambda1 0.49999999999999994 Lambda2 0.5499999999999999 [dLambda 0.04999999999999999]
TCL: Setting parameter firsttimestep to 0
TCL: Setting parameter alchLambda to 0.49999999999999994
Info: NONBONDED TABLE R-SQUARED SPACING: 0.0625
Info: NONBONDED TABLE SIZE: 705 POINTS
TCL: Setting parameter alchLambda2 to 0.5499999999999999
Info: NONBONDED TABLE R-SQUARED SPACING: 0.0625
Info: NONBONDED TABLE SIZE: 705 POINTS
TCL: Running for 1500000 steps
ETITLE: TS BOND ANGLE DIHED IMPRP ELECT VDW BOUNDARY MISC KINETIC TOTAL TEMP POTENTIAL TOTALAVG TEMPAVG PRESSURE GPRESSURE VOLUME PRESSAVG GPRESSAVG
ENERGY: 0 6.2651 6.6384 7.4912 0.0000 -10778.7398 1377.4918 0.0000 0.0000 1765.2509 -7615.6025 297.0455 -9380.8534 -7615.6025 297.0455 -1044.1107 -962.3506 30792.7833 -1044.1107 -962.3506
ENERGY: 300000 9.3035 8.7315 8.5409 0.0000 -10694.9216 1410.1468 0.0000 0.0000 1783.4141 -7474.7848 300.1019 -9258.1989 -7556.8402 299.0115 -158.7540 -74.7436 30666.8430 -144.5223 -98.3604
ENERGY: 600000 2.3144 8.2250 6.4068 0.0000 -11011.6926 1593.0174 0.0000 0.0000 1792.6074 -7609.1216 301.6489 -9401.7290 -7547.0280 300.4685 1192.5446 1308.0089 30009.6206 117.0643 178.0358
ENERGY: 900000 1.8713 9.3753 6.2125 0.0000 -10773.3149 1432.3509 0.0000 0.0000 1792.5513 -7530.9537 301.6395 -9323.5050 -7547.7323 301.3560 -157.6773 -153.7115 30917.3250 -42.2325 10.8028
ENERGY: 1200000 1.6942 6.5775 6.3602 0.0000 -10897.5592 1563.0948 0.0000 0.0000 1759.9390 -7559.8935 296.1517 -9319.8325 -7548.1176 300.3205 937.2093 997.9819 30651.8775 2.5238 63.1679
ENERGY: 1500000 3.9933 8.2254 8.4542 0.0000 -10855.9810 1490.0484 0.0000 0.0000 1848.3817 -7496.8778 311.0343 -9345.2595 -7542.3519 300.9679 142.5643 176.6012 30772.4634 -57.1037 0.7187
TCL: Running FEP window  12: Lambda1 0.5499999999999999 Lambda2 0.6    [dLambda 0.050000000000000044]
TCL: Setting parameter firsttimestep to 0
TCL: Setting parameter alchLambda to 0.5499999999999999
Info: NONBONDED TABLE R-SQUARED SPACING: 0.0625
Info: NONBONDED TABLE SIZE: 705 POINTS
TCL: Setting parameter alchLambda2 to 0.6
Info: NONBONDED TABLE R-SQUARED SPACING: 0.0625
Info: NONBONDED TABLE SIZE: 705 POINTS
TCL: Running for 1500000 steps
ETITLE: TS BOND ANGLE DIHED IMPRP ELECT VDW BOUNDARY MISC KINETIC TOTAL TEMP POTENTIAL TOTALAVG TEMPAVG PRESSURE GPRESSURE VOLUME PRESSAVG GPRESSAVG
ENERGY: 0 3.9933 8.2254 8.4542 0.0000 -10855.9539 1490.0695 0.0000 0.0000 1847.5000 -7497.7114 310.8859 -9345.2114 -7497.7114 310.8859 93.1687 183.4878 30772.4634 93.1687 183.4878
ENERGY: 300000 3.4346 6.7359 6.7466 0.0000 -10758.3482 1467.8086 0.0000 0.0000 1762.0795 -7511.5430 296.5119 -9273.6225 -7514.4680 306.0246 330.3657 372.2323 30707.6579 -9.8253 57.4943
ENERGY: 600000 9.4804 11.0925 4.7912 0.0000 -10746.7523 1404.4410 0.0000 0.0000 1836.8243 -7480.1230 309.0895 -9316.9473 -7518.2076 305.3544 -627.1943 -531.5888 31060.7608 -47.9726 18.2426
ENERGY: 900000 6.0725 9.2117 5.9770 0.0000 -10855.6990 1463.7601 0.0000 0.0000 1804.9272 -7565.7505 303.7220 -9370.6777 -7546.0054 303.1351 -54.4632 5.6782 30836.5360 -33.0654 27.4586
ENERGY: 1200000 2.5191 8.9908 6.0062 0.0000 -10705.0288 1414.9328 0.0000 0.0000 1766.5089 -7506.0710 297.2572 -9272.5799 -7551.0629 302.4007 -72.6339 -39.3376 30748.3583 -149.7317 -96.0296
ENERGY: 1500000 1.1758 8.2158 5.5175 0.0000 -10878.8224 1497.9046 0.0000 0.0000 1761.3786 -7604.6301 296.3939 -9366.0087 -7557.7112 301.2639 475.3171 529.5516 30365.2297 -76.8029 -22.6457
TCL: Running FEP window  13: Lambda1 0.6    Lambda2 0.65   [dLambda 0.050000000000000044]
TCL: Setting parameter firsttimestep to 0
TCL: Setting parameter alchLambda to 0.6
Info: NONBONDED TABLE R-SQUARED SPACING: 0.0625
Info: NONBONDED TABLE SIZE: 705 POINTS
TCL: Setting parameter alchLambda2 to 0.65
Info: NONBONDED TABLE R-SQUARED SPACING: 0.0625
Info: NONBONDED TABLE SIZE: 705 POINTS
TCL: Running for 1500000 steps
ETITLE: TS BOND ANGLE DIHED IMPRP ELECT VDW BOUNDARY MISC KINETIC TOTAL TEMP POTENTIAL TOTALAVG TEMPAVG PRESSURE GPRESSURE VOLUME PRESSAVG GPRESSAVG
ENERGY: 0 1.1758 8.2159 5.5175 0.0000 -10878.9509 1498.3835 0.0000 0.0000 1760.4607 -7605.1976 296.2395 -9365.6583 -7605.1976 296.2395 461.8737 543.1851 30365.2297 461.8737 543.1851
ENERGY: 300000 5.8704 5.4402 9.5566 0.0000 -10839.2232 1466.6263 0.0000 0.0000 1766.2856 -7585.4440 297.2196 -9351.7296 -7581.0277 295.1835 3.0157 67.1862 30294.3892 -170.1197 -88.9576
ENERGY: 600000 9.1513 9.2152 9.9757 0.0000 -10718.6323 1380.0948 0.0000 0.0000 1824.7282 -7485.4669 307.0540 -9310.1952 -7543.5702 299.5872 -874.9404 -817.1517 31102.2977 -182.1734 -120.3751
ENERGY: 900000 5.8320 9.7763 4.2349 0.0000 -10805.9715 1439.8847 0.0000 0.0000 1763.8913 -7582.3523 296.8167 -9346.2436 -7531.4187 299.8627 -301.0831 -251.6951 30769.1333 -239.9073 -189.2601
ENERGY: 1200000 3.5521 12.9287 11.0294 0.0000 -10840.9784 1423.8343 0.0000 0.0000 1748.6122 -7641.0218 294.2457 -9389.6340 -7549.3890 299.1202 -379.5733 -357.1147 30591.3481 -197.0291 -149.8901
ENERGY: 1500000 3.6685 6.7422 7.4602 0.0000 -10827.9153 1495.2911 0.0000 0.0000 1777.3845 -7537.3689 299.0873 -9314.7534 -7548.6190 299.4791 514.9738 607.9362 30919.2597 -161.9473 -115.1489
TCL: Running FEP window  14: Lambda1 0.65   Lambda2 0.7000000000000001 [dLambda 0.050000000000000044]
TCL: Setting parameter firsttimestep to 0
TCL: Setting parameter alchLambda to 0.65
Info: NONBONDED TABLE R-SQUARED SPACING: 0.0625
Info: NONBONDED TABLE SIZE: 705 POINTS
TCL: Setting parameter alchLambda2 to 0.7000000000000001
Info: NONBONDED TABLE R-SQUARED SPACING: 0.0625
Info: NONBONDED TABLE SIZE: 705 POINTS
TCL: Running for 1500000 steps
ETITLE: TS BOND ANGLE DIHED IMPRP ELECT VDW BOUNDARY MISC KINETIC TOTAL TEMP POTENTIAL TOTALAVG TEMPAVG PRESSURE GPRESSURE VOLUME PRESSAVG GPRESSAVG
ENERGY: 0 3.6685 6.7422 7.4602 0.0000 -10828.9040 1494.9827 0.0000 0.0000 1776.4934 -7539.5570 298.9373 -9316.0504 -7539.5570 298.9373 533.1875 613.7231 30919.2597 533.1875 613.7231
ENERGY: 300000 3.9324 4.9783 11.6514 0.0000 -10636.9407 1363.9258 0.0000 0.0000 1771.7961 -7480.6566 298.1469 -9252.4527 -7581.8845 295.6529 -564.6672 -494.4957 30903.7303 -297.6124 -225.1712
ENERGY: 600000 3.3383 7.7804 14.3548 0.0000 -10885.2508 1447.9301 0.0000 0.0000 1814.3167 -7597.5305 305.3020 -9411.8472 -7567.7702 297.4287 -357.0085 -330.1734 30677.4232 -154.5321 -95.3248
ENERGY: 900000 4.2329 7.7941 8.4204 0.0000 -10824.2587 1442.5438 0.0000 0.0000 1754.6862 -7606.5812 295.2678 -9361.2674 -7543.7640 299.0360 -432.9003 -377.1136 30881.1741 -306.5432 -247.4431
ENERGY: 1200000 1.1114 5.7045 5.5660 0.0000 -10780.4666 1416.7095 0.0000 0.0000 1770.8712 -7580.5040 297.9913 -9351.3751 -7555.7186 298.3727 -356.5803 -317.7381 30897.1645 -230.0904 -173.8198
ENERGY: 1500000 6.5037 7.9297 8.7339 0.0000 -10776.8540 1513.9446 0.0000 0.0000 1779.4708 -7460.2713 299.4384 -9239.7421 -7548.1033 298.2552 553.1171 602.1141 30761.6858 -212.9088 -157.8805
TCL: Running FEP window  15: Lambda1 0.7000000000000001 Lambda2 0.7500000000000001 [dLambda 0.050000000000000044]
TCL: Setting parameter firsttimestep to 0
TCL: Setting parameter alchLambda to 0.7000000000000001
Info: NONBONDED TABLE R-SQUARED SPACING: 0.0625
Info: NONBONDED TABLE SIZE: 705 POINTS
TCL: Setting parameter alchLambda2 to 0.7500000000000001
Info: NONBONDED TABLE R-SQUARED SPACING: 0.0625
Info: NONBONDED TABLE SIZE: 705 POINTS
TCL: Running for 1500000 steps
ETITLE: TS BOND ANGLE DIHED IMPRP ELECT VDW BOUNDARY MISC KINETIC TOTAL TEMP POTENTIAL TOTALAVG TEMPAVG PRESSURE GPRESSURE VOLUME PRESSAVG GPRESSAVG
ENERGY: 0 6.5037 7.9297 8.7339 0.0000 -10777.5108 1514.4975 0.0000 0.0000 1778.5999 -7461.2461 299.2918 -9239.8460 -7461.2461 299.2918 530.1984 619.8322 30761.6858 530.1984 619.8322
ENERGY: 300000 4.3133 5.8780 7.0356 0.0000 -10818.7969 1451.9411 0.0000 0.0000 1797.3794 -7552.2496 302.4519 -9349.6289 -7560.6578 298.4785 -217.2789 -100.1264 30740.4976 -78.7172 -4.0289
ENERGY: 600000 6.1102 6.3624 4.4886 0.0000 -10794.1526 1398.3056 0.0000 0.0000 1744.4042 -7634.4815 293.5376 -9378.8857 -7582.7204 297.4943 -656.3623 -588.0259 30658.1544 -216.5409 -149.9945
ENERGY: 900000 1.2809 9.8417 4.2555 0.0000 -10957.4047 1495.2784 0.0000 0.0000 1812.8471 -7633.9011 305.0547 -9446.7482 -7579.7340 298.5760 111.4139 209.6043 30467.6964 -45.4067 11.2282
ENERGY: 1200000 3.4763 9.4565 6.7969 0.0000 -10852.8006 1531.6075 0.0000 0.0000 1809.8580 -7491.6054 304.5517 -9301.4634 -7559.5842 300.8646 880.5220 941.1607 30831.4741 -4.1939 51.6461
ENERGY: 1500000 5.5671 6.3772 5.7875 0.0000 -10829.8269 1481.7157 0.0000 0.0000 1755.2966 -7575.0828 295.3705 -9330.3794 -7558.7160 300.3584 473.0150 478.9966 30144.2550 73.3006 125.2883
TCL: Running FEP window  16: Lambda1 0.7500000000000001 Lambda2 0.8000000000000002 [dLambda 0.050000000000000044]
TCL: Setting parameter firsttimestep to 0
TCL: Setting parameter alchLambda to 0.7500000000000001
Info: NONBONDED TABLE R-SQUARED SPACING: 0.0625
Info: NONBONDED TABLE SIZE: 705 POINTS
TCL: Setting parameter alchLambda2 to 0.8000000000000002
Info: NONBONDED TABLE R-SQUARED SPACING: 0.0625
Info: NONBONDED TABLE SIZE: 705 POINTS
TCL: Running for 1500000 steps
ETITLE: TS BOND ANGLE DIHED IMPRP ELECT VDW BOUNDARY MISC KINETIC TOTAL TEMP POTENTIAL TOTALAVG TEMPAVG PRESSURE GPRESSURE VOLUME PRESSAVG GPRESSAVG
ENERGY: 0 5.5671 6.3772 5.7875 0.0000 -10831.4579 1481.7175 0.0000 0.0000 1754.4434 -7577.5653 295.2269 -9332.0086 -7577.5653 295.2269 405.8270 486.6865 30144.2550 405.8270 486.6865
ENERGY: 300000 4.4141 14.2051 6.0848 0.0000 -10874.2944 1499.7244 0.0000 0.0000 1798.1718 -7551.6942 302.5853 -9349.8660 -7556.8848 298.8384 555.5230 608.1848 30432.4162 333.3886 371.1345
ENERGY: 600000 2.2979 14.8416 9.9220 0.0000 -10883.1035 1544.7435 0.0000 0.0000 1743.7668 -7567.5317 293.4303 -9311.2985 -7578.3145 296.8049 700.6022 771.1564 30779.1865 261.1467 301.8482
ENERGY: 900000 4.3240 6.2402 9.4773 0.0000 -10666.5070 1391.9400 0.0000 0.0000 1785.8299 -7468.6957 300.5084 -9254.5256 -7563.0596 297.6525 -340.6567 -281.7612 31243.7439 151.0299 201.2014
ENERGY: 1200000 3.8300 7.5992 10.3703 0.0000 -10714.8468 1427.1751 0.0000 0.0000 1806.6604 -7459.2119 304.0137 -9265.8723 -7542.0210 299.7425 7.2261 68.5770 30784.2719 156.5872 210.4453
ENERGY: 1500000 3.2415 7.8972 6.1826 0.0000 -10582.6241 1368.4482 0.0000 0.0000 1730.9934 -7465.8611 291.2809 -9196.8545 -7531.1124 298.9145 -291.6986 -299.6843 31333.2339 62.7740 112.0457
TCL: Running FEP window  17: Lambda1 0.8000000000000002 Lambda2 0.8500000000000002 [dLambda 0.050000000000000044]
TCL: Setting parameter firsttimestep to 0
TCL: Setting parameter alchLambda to 0.8000000000000002
Info: NONBONDED TABLE R-SQUARED SPACING: 0.0625
Info: NONBONDED TABLE SIZE: 705 POINTS
TCL: Setting parameter alchLambda2 to 0.8500000000000002
Info: NONBONDED TABLE R-SQUARED SPACING: 0.0625
Info: NONBONDED TABLE SIZE: 705 POINTS
TCL: Running for 1500000 steps
ETITLE: TS BOND ANGLE DIHED IMPRP ELECT VDW BOUNDARY MISC KINETIC TOTAL TEMP POTENTIAL TOTALAVG TEMPAVG PRESSURE GPRESSURE VOLUME PRESSAVG GPRESSAVG
ENERGY: 0 3.2415 7.8972 6.1826 0.0000 -10584.0081 1368.4937 0.0000 0.0000 1730.1016 -7468.0916 291.1308 -9198.1931 -7468.0916 291.1308 -364.6133 -292.7619 31333.2339 -364.6133 -292.7619
ENERGY: 300000 3.6957 7.8724 5.3282 0.0000 -10791.0306 1413.8306 0.0000 0.0000 1747.6215 -7612.6821 294.0790 -9360.3037 -7552.9834 295.8967 -479.6628 -473.9031 30828.4708 122.2365 167.9005
ENERGY: 600000 2.6698 6.2422 10.2768 0.0000 -10779.7164 1438.0663 0.0000 0.0000 1776.4693 -7545.9920 298.9333 -9322.4613 -7563.2024 297.2551 155.5114 173.6394 30345.7378 -56.7481 -8.4732
ENERGY: 900000 4.5039 4.4795 9.6165 0.0000 -10948.6336 1521.2723 0.0000 0.0000 1786.5707 -7622.1908 300.6331 -9408.7615 -7567.6318 297.4259 238.5857 285.6219 30682.1053 -55.4940 -5.2632
ENERGY: 1200000 3.5419 7.3495 10.5700 0.0000 -10722.7874 1394.1565 0.0000 0.0000 1833.3003 -7473.8691 308.4965 -9307.1695 -7558.5770 298.6285 -360.5709 -269.0109 31047.0327 -55.3492 -3.5951
ENERGY: 1500000 5.3952 8.3061 6.4056 0.0000 -10785.4078 1400.6456 0.0000 0.0000 1713.8955 -7650.7597 288.4038 -9364.6552 -7561.4991 298.3117 -417.4039 -368.2666 30258.8514 -28.9443 29.2354
TCL: Running FEP window  18: Lambda1 0.8500000000000002 Lambda2 0.9000000000000002 [dLambda 0.050000000000000044]
TCL: Setting parameter firsttimestep to 0
TCL: Setting parameter alchLambda to 0.8500000000000002
Info: NONBONDED TABLE R-SQUARED SPACING: 0.0625
Info: NONBONDED TABLE SIZE: 705 POINTS
TCL: Setting parameter alchLambda2 to 0.9000000000000002
Info: NONBONDED TABLE R-SQUARED SPACING: 0.0625
Info: NONBONDED TABLE SIZE: 705 POINTS
TCL: Running for 1500000 steps
ETITLE: TS BOND ANGLE DIHED IMPRP ELECT VDW BOUNDARY MISC KINETIC TOTAL TEMP POTENTIAL TOTALAVG TEMPAVG PRESSURE GPRESSURE VOLUME PRESSAVG GPRESSAVG
ENERGY: 0 5.3952 8.3061 6.4056 0.0000 -10786.6110 1400.2943 0.0000 0.0000 1713.0003 -7653.2094 288.2531 -9366.2098 -7653.2094 288.2531 -451.8209 -359.0901 30258.8514 -451.8209 -359.0901
ENERGY: 300000 1.1453 6.7468 8.6362 0.0000 -11027.9216 1582.6093 0.0000 0.0000 1814.7149 -7614.0691 305.3690 -9428.7840 -7621.4364 296.1534 1080.0258 1160.4681 30461.1729 538.1810 606.9006
ENERGY: 600000 4.2182 9.4996 7.5609 0.0000 -10856.8169 1458.7086 0.0000 0.0000 1746.3420 -7630.4876 293.8637 -9376.8297 -7605.0917 297.8445 -20.1380 -1.8598 30717.3493 120.6585 190.0719
ENERGY: 900000 6.0475 11.9400 5.7187 0.0000 -10597.3494 1330.3577 0.0000 0.0000 1829.6344 -7413.6511 307.8796 -9243.2855 -7574.6466 299.2452 -731.1029 -741.4882 31280.4980 15.1347 72.5930
ENERGY: 1200000 6.9675 10.2931 8.7653 0.0000 -10755.4389 1446.9456 0.0000 0.0000 1767.5100 -7514.9575 297.4257 -9282.4674 -7560.4711 298.7600 -45.9149 29.8098 30815.8633 80.2295 135.9595
ENERGY: 1500000 5.5339 6.0470 7.6388 0.0000 -10757.0020 1447.5032 0.0000 0.0000 1813.4319 -7476.8471 305.1531 -9290.2790 -7557.0245 298.5095 181.2312 251.2107 30884.3648 115.3858 168.5607
TCL: Running FEP window  19: Lambda1 0.9000000000000002 Lambda2 0.9500000000000003 [dLambda 0.050000000000000044]
TCL: Setting parameter firsttimestep to 0
TCL: Setting parameter alchLambda to 0.9000000000000002
Info: NONBONDED TABLE R-SQUARED SPACING: 0.0625
Info: NONBONDED TABLE SIZE: 705 POINTS
TCL: Setting parameter alchLambda2 to 0.9500000000000003
Info: NONBONDED TABLE R-SQUARED SPACING: 0.0625
Info: NONBONDED TABLE SIZE: 705 POINTS
TCL: Running for 1500000 steps
ETITLE: TS BOND ANGLE DIHED IMPRP ELECT VDW BOUNDARY MISC KINETIC TOTAL TEMP POTENTIAL TOTALAVG TEMPAVG PRESSURE GPRESSURE VOLUME PRESSAVG GPRESSAVG
ENERGY: 0 5.5339 6.0470 7.6388 0.0000 -10759.5450 1448.8888 0.0000 0.0000 1812.5177 -7478.9188 304.9993 -9291.4365 -7478.9188 304.9993 187.4548 277.5636 30884.3648 187.4548 277.5636
ENERGY: 300000 1.1750 5.1279 4.0046 0.0000 -10883.2501 1535.8437 0.0000 0.0000 1763.4622 -7573.6368 296.7445 -9337.0989 -7588.3344 296.9491 903.1432 991.8120 30642.7618 517.4652 579.4346
ENERGY: 600000 5.2138 11.3371 6.6107 0.0000 -10926.3528 1506.0507 0.0000 0.0000 1794.6120 -7602.5285 301.9862 -9397.1405 -7569.2176 299.4105 41.2973 167.8352 30822.4220 169.4813 238.4634
ENERGY: 900000 4.2650 10.8456 8.8049 0.0000 -10892.3638 1479.8620 0.0000 0.0000 1777.4227 -7611.1636 299.0937 -9388.5863 -7569.0368 301.4257 61.1821 98.0317 30866.4020 128.2988 204.6371
ENERGY: 1200000 5.2568 7.0300 7.0423 0.0000 -10920.1192 1473.5501 0.0000 0.0000 1768.0673 -7659.1728 297.5195 -9427.2401 -7577.1962 301.4201 -72.2392 -9.0508 30613.7751 149.5818 218.5514
ENERGY: 1500000 3.4994 6.7719 4.8638 0.0000 -10784.7111 1423.6879 0.0000 0.0000 1780.9273 -7564.9608 299.6835 -9345.8881 -7577.7871 300.9024 -362.8949 -395.7651 31205.1417 118.6896 181.7927
TCL: Running FEP window  20: Lambda1 0.9500000000000003 Lambda2 1.0    [dLambda 0.04999999999999971]
TCL: Setting parameter firsttimestep to 0
TCL: Setting parameter alchLambda to 0.9500000000000003
Info: NONBONDED TABLE R-SQUARED SPACING: 0.0625
Info: NONBONDED TABLE SIZE: 705 POINTS
TCL: Setting parameter alchLambda2 to 1.0
Info: NONBONDED TABLE R-SQUARED SPACING: 0.0625
Info: NONBONDED TABLE SIZE: 705 POINTS
TCL: Running for 1500000 steps
ETITLE: TS BOND ANGLE DIHED IMPRP ELECT VDW BOUNDARY MISC KINETIC TOTAL TEMP POTENTIAL TOTALAVG TEMPAVG PRESSURE GPRESSURE VOLUME PRESSAVG GPRESSAVG
ENERGY: 0 3.4994 6.7719 4.8638 0.0000 -10785.7677 1423.3064 0.0000 0.0000 1780.0351 -7567.2911 299.5333 -9347.3262 -7567.2911 299.5333 -460.5164 -385.3524 31205.1417 -460.5164 -385.3524
ENERGY: 300000 5.0271 8.7134 5.3960 0.0000 -10787.6538 1451.6683 0.0000 0.0000 1779.4234 -7537.4256 299.4304 -9316.8490 -7527.0090 303.4427 -129.7956 -50.7758 31119.8054 70.7311 126.0642
ENERGY: 600000 6.7847 13.1785 7.7887 0.0000 -10862.8442 1437.3765 0.0000 0.0000 1786.3905 -7611.3253 300.6028 -9397.7158 -7545.4603 302.2799 -652.6582 -584.3650 30948.4021 64.8986 112.3623
ENERGY: 900000 6.2379 11.2969 6.4933 0.0000 -10652.0478 1347.9369 0.0000 0.0000 1789.7340 -7490.3488 301.1654 -9280.0828 -7541.8348 302.3823 -605.5277 -520.6340 30786.6527 -81.6354 -26.1449
ENERGY: 1200000 3.4064 8.8259 6.6074 0.0000 -10842.2529 1431.6266 0.0000 0.0000 1805.4721 -7586.3145 303.8137 -9391.7867 -7532.0337 303.7234 -217.4121 -192.4933 30756.3914 -76.6378 -19.4202
ENERGY: 1500000 2.0209 5.3640 11.3071 0.0000 -10724.1458 1348.0588 0.0000 0.0000 1785.5975 -7571.7976 300.4693 -9357.3951 -7530.6531 303.8276 -506.2939 -494.6513 30499.8604 -109.2495 -55.9235
TCL: Exiting due to exit command.
