Info: SIMULATION PARAMETERS:
Info: TIMESTEP               2
Info: NUMBER OF STEPS        0
Info: STEPS PER CYCLE        10
Info: PERIODIC CELL BASIS 1  30.9937 0 0
Info: PERIODIC CELL BASIS 2  0 29.7145 0
Info: PERIODIC CELL BASIS 3  0 0 33.1775
Info: PERIODIC CELL CENTER   0 0 0
Info: WRAPPING WATERS AROUND PERIODIC BOUNDARIES ON OUTPUT.
Info: WRAPPING ALL CLUSTERS AROUND PERIODIC BOUNDARIES ON OUTPUT.
Info: FIRST LDB TIMESTEP     50
Info: LAST LDB TIMESTEP     -1
Info: HOM BACKGROUND SCALING 1
Info: PME BACKGROUND SCALING 1
Info: MIN ATOMS PER PATCH    40
Info: EMPTY PATCH LOAD       40 ATOMS
Info: VELOCITY FILE          mobley_3359593_equil.vel
Info: CENTER OF MASS MOVING INITIALLY? NO
Info: DIELECTRIC             1
Info: EXCLUDE                SCALED ONE-FOUR
Info: 1-4 ELECTROSTATICS SCALED BY 0.833333
Info: MODIFIED 1-4 VDW PARAMETERS WILL BE USED
Info: DCD FILENAME           mobley_3359593_prod.dcd
Info: DCD FREQUENCY          100000
Info: DCD FIRST STEP         100000
Info: DCD FILE WILL CONTAIN UNIT CELL DATA
Info: XST FILENAME           mobley_3359593_prod.xst
Info: XST FREQUENCY          100000
Info: NO VELOCITY DCD OUTPUT
Info: NO FORCE DCD OUTPUT
Info: OUTPUT FILENAME        mobley_3359593_prod
Info: BINARY OUTPUT FILES WILL BE USED
Info: RESTART FILENAME       mobley_3359593_prod.restart
Info: RESTART FREQUENCY      100000
Info: BINARY RESTART FILES WILL BE USED
Info: CUTOFF                 9
Info: PAIRLIST DISTANCE      11
Info: PAIRLIST SHRINK RATE   0.01
Info: PAIRLIST GROW RATE     0.01
Info: PAIRLIST TRIGGER       0.3
Info: PAIRLISTS PER CYCLE    2
Info: PAIRLISTS ENABLED
Info: MARGIN                 2
Info: HYDROGEN GROUP CUTOFF  2.5
Info: PATCH DIMENSION        15.5
Info: ENERGY OUTPUT STEPS    100000
Info: ENERGY EVALUATION STEPS    100000
Info: OUTPUT ENERGY PRECISION 4
Info: CROSSTERM ENERGY INCLUDED IN DIHEDRAL
Info: TIMING OUTPUT STEPS    1000000
Info: PRESSURE OUTPUT STEPS  100000
Info: ALCHEMICAL FEP ON
Info: FEP CURRENT LAMBDA VALUE     0
Info: FEP COMPARISON LAMBDA VALUE  0.05
Info: FEP INTRA-ALCHEMICAL NON-BONDED INTERACTIONS WILL BE RETAINED
Info: FEP INTRA-ALCHEMICAL BONDED INTERACTIONS WILL BE RETAINED
Info: FEP VDW SHIFTING COEFFICIENT 5
Info: FEP ELEC. ACTIVE FOR ANNIHILATED PARTICLES BETWEEN LAMBDA = 0 AND LAMBDA = 0.5
Info: FEP ELEC. ACTIVE FOR EXNIHILATED PARTICLES BETWEEN LAMBDA = 0.5 AND LAMBDA = 1
Info: FEP VDW ACTIVE FOR ANNIHILATED PARTICLES BETWEEN LAMBDA = 0 AND LAMBDA = 1
Info: FEP VDW ACTIVE FOR EXNIHILATED PARTICLES BETWEEN LAMBDA = 0 AND LAMBDA = 1
Info: FEP BOND ACTIVE FOR ANNIHILATED PARTICLES BETWEEN LAMBDA = 1 AND LAMBDA = 1
Info: FEP BOND ACTIVE FOR EXNIHILATED PARTICLES BETWEEN LAMBDA = 0 AND LAMBDA = 0
Info: LANGEVIN DYNAMICS ACTIVE
Info: LANGEVIN TEMPERATURE   300
Info: LANGEVIN USING BBK INTEGRATOR
Info: LANGEVIN DAMPING COEFFICIENT IS 1 INVERSE PS
Info: LANGEVIN DYNAMICS APPLIED TO HYDROGENS
Info: LANGEVIN PISTON PRESSURE CONTROL ACTIVE
Info:        TARGET PRESSURE IS 1.01325 BAR
Info:     OSCILLATION PERIOD IS 50 FS
Info:             DECAY TIME IS 25 FS
Info:     PISTON TEMPERATURE IS 300 K
Info:       PRESSURE CONTROL IS GROUP-BASED
Info:    INITIAL STRAIN RATE IS -0.000223199 -0.000223199 -0.000223199
Info:       CELL FLUCTUATION IS ISOTROPIC
Info: PARTICLE MESH EWALD (PME) ACTIVE
Info: PME TOLERANCE               1e-06
Info: PME EWALD COEFFICIENT       0.348832
Info: PME INTERPOLATION ORDER     4
Info: PME GRID DIMENSIONS         32 32 36
Info: PME MAXIMUM GRID SPACING    1
Info: PME CALCULATION WILL BE PERFORMED ON GPU
Info: FULL ELECTROSTATIC EVALUATION FREQUENCY      2
Info: USING VERLET I (r-RESPA) MTS SCHEME.
Info: C1 SPLITTING OF LONG RANGE ELECTROSTATICS
Info: PLACING ATOMS IN PATCHES BY HYDROGEN GROUPS
Info: RIGID BONDS TO HYDROGEN : ALL
Info:         ERROR TOLERANCE : 1e-08
Info:          MAX ITERATIONS : 100
Info: RIGID WATER USING SETTLE ALGORITHM
Info: RANDOM NUMBER SEED     1743944065
Info: USE HYDROGEN BONDS?    NO
Info: Using AMBER format force field!
Info: AMBER PARM FILE        mobley_3359593.prmtop
Info: COORDINATE PDB         mobley_3359593.pdb
Info: Exclusions will be read from PARM file!
Info: SCNB (VDW SCALING)     2
Info: USING ARITHMETIC MEAN TO COMBINE L-J SIGMA PARAMETERS
Info: BINARY COORDINATES     mobley_3359593_equil.coor
Info: SUMMARY OF PARAMETERS:
Info: 12 BONDS
Info: 14 ANGLES
Info:   14 HARMONIC
Info:   0 COSINE-BASED
Info: 8 DIHEDRAL
Info: 0 IMPROPER
Info: 0 CROSSTERM
Info: 0 VDW
Info: 45 VDW_PAIRS
Info: 0 NBTHOLE_PAIRS
Info: To read alchdata from file: mobley_3359593.pdb
Info: To read alchflag data from column: 5
Info: STRUCTURE SUMMARY:
Info: 2987 ATOMS
Info: 2987 BONDS
Info: 44 ANGLES
Info: 61 DIHEDRALS
Info: 0 IMPROPERS
Info: 0 CROSSTERMS
Info: 3083 EXCLUSIONS
Info: 2975 RIGID BONDS
Info: ALCH: 0 ATOMS TO DISAPPEAR IN FINAL STATE
Info: ALCH: 26 ATOMS TO APPEAR IN FINAL STATE
Info: 5986 DEGREES OF FREEDOM
Info: 999 HYDROGEN GROUPS
Info: 4 ATOMS IN LARGEST HYDROGEN GROUP
Info: 999 MIGRATION GROUPS
Info: 4 ATOMS IN LARGEST MIGRATION GROUP
Info: TOTAL MASS = 17948 amu
Info: TOTAL CHARGE = 0.000199992 e
Info: MASS DENSITY = 0.975416 g/cm^3
Info: ATOM DENSITY = 0.0977574 atoms/A^3
Info: ADDED 0 IMPLICIT EXCLUSIONS
Info: NONBONDED TABLE R-SQUARED SPACING: 0.0625
Info: NONBONDED TABLE SIZE: 705 POINTS
Info: REMOVING COM VELOCITY 0.0954046 0.0215385 0.0973376
Info: Use 3D box decompostion in PME FFT.
Info: Updated CUDA force table with 4096 elements.
Info: Updated CUDA LJ table with 9 x 9 elements.
Info: Found 28 unique exclusion lists needing 104 bytes
TCL: Running for 1500000 steps
ETITLE: TS BOND ANGLE DIHED IMPRP ELECT VDW BOUNDARY MISC KINETIC TOTAL TEMP POTENTIAL TOTALAVG TEMPAVG PRESSURE GPRESSURE VOLUME PRESSAVG GPRESSAVG
ENERGY: 0 2.2364 8.8244 4.7352 0.0000 -10868.0278 1563.3409 0.0000 0.0000 1801.7500 -7487.1409 302.9341 -9288.8909 -7487.1409 302.9341 835.7592 928.1316 30555.2391 835.7592 928.1316
ENERGY: 300000 5.0381 7.6967 5.1116 0.0000 -10785.9902 1436.4339 0.0000 0.0000 1814.2138 -7517.4961 305.0297 -9331.7099 -7508.5714 303.7008 -226.6319 -149.5741 30354.9307 4.5393 73.5698
ENERGY: 600000 6.2452 8.1466 6.1562 0.0000 -10673.5741 1287.9494 0.0000 0.0000 1760.7118 -7604.3649 296.0342 -9365.0767 -7505.1445 302.1310 -1616.4677 -1559.4540 30763.3976 -323.7172 -258.6452
ENERGY: 900000 4.2131 13.1676 3.3897 0.0000 -10928.4085 1510.5935 0.0000 0.0000 1813.6815 -7583.3631 304.9402 -9397.0446 -7523.9641 301.7404 118.1600 285.5500 30097.9134 -128.5158 -57.5708
ENERGY: 1200000 5.4650 9.2489 3.1455 0.0000 -10912.7159 1506.5446 0.0000 0.0000 1792.7131 -7595.5988 301.4147 -9388.3119 -7531.6821 300.8659 383.4049 440.9763 30101.4809 -62.6474 7.7203
ENERGY: 1500000 4.3677 11.3256 4.9730 0.0000 -10711.1303 1395.3561 0.0000 0.0000 1752.2035 -7542.9043 294.6037 -9295.1078 -7531.8182 300.6402 -553.7626 -491.9590 30862.7736 -28.2965 37.9892
TCL: Running FEP window   2: Lambda1 0.05   Lambda2 0.1    [dLambda 0.05  ]
TCL: Setting parameter firsttimestep to 0
TCL: Setting parameter alchLambda to 0.05
Info: NONBONDED TABLE R-SQUARED SPACING: 0.0625
Info: NONBONDED TABLE SIZE: 705 POINTS
TCL: Setting parameter alchLambda2 to 0.1
Info: NONBONDED TABLE R-SQUARED SPACING: 0.0625
Info: NONBONDED TABLE SIZE: 705 POINTS
TCL: Running for 1500000 steps
ETITLE: TS BOND ANGLE DIHED IMPRP ELECT VDW BOUNDARY MISC KINETIC TOTAL TEMP POTENTIAL TOTALAVG TEMPAVG PRESSURE GPRESSURE VOLUME PRESSAVG GPRESSAVG
ENERGY: 0 4.3677 11.3256 4.9730 0.0000 -10711.1316 1399.5417 0.0000 0.0000 1751.3477 -7539.5758 294.4598 -9290.9235 -7539.5758 294.4598 -567.9714 -480.7813 30862.7736 -567.9714 -480.7813
ENERGY: 300000 5.5964 10.8582 3.6056 0.0000 -10829.0492 1450.6424 0.0000 0.0000 1726.6896 -7631.6571 290.3140 -9358.3467 -7537.9178 298.6893 -154.5509 -79.0238 30483.4355 -22.0725 38.5183
ENERGY: 600000 2.6314 10.4563 5.5801 0.0000 -10875.8028 1503.4110 0.0000 0.0000 1753.4998 -7600.2243 294.8217 -9353.7241 -7540.5111 298.3587 38.4428 93.1886 30726.2903 195.1145 262.0885
ENERGY: 900000 5.0425 9.5558 5.1860 0.0000 -10827.2804 1520.9783 0.0000 0.0000 1770.7123 -7515.8057 297.7157 -9286.5180 -7549.5559 298.1015 476.6496 593.0268 30828.9547 208.9676 283.2407
ENERGY: 1200000 3.8627 12.4346 2.9374 0.0000 -10896.7730 1511.2008 0.0000 0.0000 1798.8268 -7567.5106 302.4426 -9366.3374 -7546.5667 298.8456 162.8424 239.9528 30842.2438 123.2739 196.9373
ENERGY: 1500000 5.2211 10.0966 3.2461 0.0000 -10767.3997 1421.4121 0.0000 0.0000 1749.0289 -7578.3949 294.0700 -9327.4238 -7551.6528 298.5991 -249.1156 -215.8178 30470.4318 -12.7715 55.8743
TCL: Running FEP window   3: Lambda1 0.1    Lambda2 0.15000000000000002 [dLambda 0.05000000000000002]
TCL: Setting parameter firsttimestep to 0
TCL: Setting parameter alchLambda to 0.1
Info: NONBONDED TABLE R-SQUARED SPACING: 0.0625
Info: NONBONDED TABLE SIZE: 705 POINTS
TCL: Setting parameter alchLambda2 to 0.15000000000000002
Info: NONBONDED TABLE R-SQUARED SPACING: 0.0625
Info: NONBONDED TABLE SIZE: 705 POINTS
TCL: Running for 1500000 steps
ETITLE: TS BOND ANGLE DIHED IMPRP ELECT VDW BOUNDARY MISC KINETIC TOTAL TEMP POTENTIAL TOTALAVG TEMPAVG PRESSURE GPRESSURE VOLUME PRESSAVG GPRESSAVG
ENERGY: 0 5.2212 10.0966 3.2461 0.0000 -10767.3995 1424.5922 0.0000 0.0000 1748.1614 -7576.0821 293.9241 -9324.2435 -7576.0821 293.9241 -281.1949 -205.2688 30470.4318 -281.1949 -205.2688
ENERGY: 300000 6.5346 9.6698 7.9936 0.0000 -10930.7925 1581.5933 0.0000 0.0000 1843.1002 -7481.9009 309.8865 -9325.0012 -7510.8258 304.6159 742.5387 915.4982 30220.9803 43.5073 116.1019
ENERGY: 600000 6.1549 6.0838 7.4932 0.0000 -10727.1039 1375.3904 0.0000 0.0000 1828.1244 -7503.8572 307.3685 -9331.9817 -7515.2274 305.1744 -796.7917 -799.0979 30744.7783 -9.7340 47.7257
ENERGY: 900000 2.6969 8.0651 7.6640 0.0000 -10886.8025 1538.0767 0.0000 0.0000 1823.4927 -7506.8072 306.5898 -9330.2999 -7517.3479 304.8939 605.9834 674.6366 30381.0066 99.5139 151.7163
ENERGY: 1200000 5.3335 14.2678 4.3040 0.0000 -10919.6956 1480.6193 0.0000 0.0000 1835.9020 -7579.2690 308.6762 -9415.1710 -7518.8718 305.8581 8.1531 26.8717 30460.3506 59.6138 115.6384
ENERGY: 1500000 2.9254 9.6683 4.3898 0.0000 -10769.1857 1419.2906 0.0000 0.0000 1811.7381 -7521.1734 304.6135 -9332.9115 -7525.0163 304.1750 -292.6308 -178.2243 30571.8065 -23.4432 35.5302
TCL: Running FEP window   4: Lambda1 0.15000000000000002 Lambda2 0.2    [dLambda 0.04999999999999999]
TCL: Setting parameter firsttimestep to 0
TCL: Setting parameter alchLambda to 0.15000000000000002
Info: NONBONDED TABLE R-SQUARED SPACING: 0.0625
Info: NONBONDED TABLE SIZE: 705 POINTS
TCL: Setting parameter alchLambda2 to 0.2
Info: NONBONDED TABLE R-SQUARED SPACING: 0.0625
Info: NONBONDED TABLE SIZE: 705 POINTS
TCL: Running for 1500000 steps
ETITLE: TS BOND ANGLE DIHED IMPRP ELECT VDW BOUNDARY MISC KINETIC TOTAL TEMP POTENTIAL TOTALAVG TEMPAVG PRESSURE GPRESSURE VOLUME PRESSAVG GPRESSAVG
ENERGY: 0 2.9254 9.6683 4.3898 0.0000 -10769.1848 1420.0103 0.0000 0.0000 1810.8605 -7521.3304 304.4659 -9332.1909 -7521.3304 304.4659 -265.5954 -172.6886 30571.8065 -265.5954 -172.6886
ENERGY: 300000 2.3423 10.0969 6.1597 0.0000 -10954.5136 1580.9272 0.0000 0.0000 1808.0690 -7546.9185 303.9966 -9354.9875 -7552.1321 300.2396 854.7590 881.2567 30328.0608 82.1806 130.9165
ENERGY: 600000 5.6967 12.4707 5.0884 0.0000 -10903.6676 1486.1678 0.0000 0.0000 1794.0324 -7600.2116 301.6365 -9394.2440 -7551.1011 301.4148 47.1653 90.3838 30146.4224 62.9655 117.2498
ENERGY: 900000 4.7926 6.2463 5.5047 0.0000 -10528.4496 1327.8426 0.0000 0.0000 1803.0366 -7381.0268 303.1504 -9184.0633 -7525.8908 301.3473 -865.8701 -766.3940 31048.3627 -104.5955 -39.7455
ENERGY: 1200000 4.8091 10.9579 5.1682 0.0000 -10727.4472 1390.2015 0.0000 0.0000 1798.3368 -7517.9738 302.3603 -9316.3106 -7529.5461 300.4553 -650.1462 -555.9240 30590.4951 -150.9200 -81.0321
ENERGY: 1500000 5.1180 10.4253 6.1524 0.0000 -10767.8587 1411.7258 0.0000 0.0000 1790.5317 -7543.9055 301.0480 -9334.4372 -7529.3665 300.3903 -539.6948 -521.1813 30932.7765 -186.9682 -122.4739
TCL: Running FEP window   5: Lambda1 0.2    Lambda2 0.25   [dLambda 0.04999999999999999]
TCL: Setting parameter firsttimestep to 0
TCL: Setting parameter alchLambda to 0.2
Info: NONBONDED TABLE R-SQUARED SPACING: 0.0625
Info: NONBONDED TABLE SIZE: 705 POINTS
TCL: Setting parameter alchLambda2 to 0.25
Info: NONBONDED TABLE R-SQUARED SPACING: 0.0625
Info: NONBONDED TABLE SIZE: 705 POINTS
TCL: Running for 1500000 steps
ETITLE: TS BOND ANGLE DIHED IMPRP ELECT VDW BOUNDARY MISC KINETIC TOTAL TEMP POTENTIAL TOTALAVG TEMPAVG PRESSURE GPRESSURE VOLUME PRESSAVG GPRESSAVG
ENERGY: 0 5.1180 10.4253 6.1524 0.0000 -10767.8590 1413.3603 0.0000 0.0000 1789.6528 -7543.1503 300.9002 -9332.8030 -7543.1503 300.9002 -580.2969 -509.1548 30932.7765 -580.2969 -509.1548
ENERGY: 300000 2.6694 13.3760 4.4442 0.0000 -10760.3171 1475.1712 0.0000 0.0000 1849.4471 -7415.2091 310.9536 -9264.6562 -7503.7430 303.1430 232.2139 316.4232 30896.6878 -164.1017 -97.9475
ENERGY: 600000 2.5971 10.0547 8.0250 0.0000 -10758.2465 1421.2800 0.0000 0.0000 1793.3910 -7522.8988 301.5287 -9316.2897 -7537.8095 301.9291 -163.2696 -133.6097 30596.9001 -183.6734 -113.8113
ENERGY: 900000 2.9496 7.5168 5.6036 0.0000 -10752.3264 1436.1677 0.0000 0.0000 1818.7575 -7481.3311 305.7937 -9300.0887 -7535.7422 301.1617 -40.8119 109.7956 30515.6119 -87.1858 -8.8499
ENERGY: 1200000 6.4449 11.3168 1.7991 0.0000 -10771.0971 1439.5421 0.0000 0.0000 1788.6569 -7523.3372 300.7327 -9311.9942 -7535.8597 301.1728 7.0552 68.6015 30115.4280 -23.9686 54.4397
ENERGY: 1500000 3.3520 12.4184 7.2430 0.0000 -10734.8781 1466.7742 0.0000 0.0000 1769.1214 -7475.9690 297.4482 -9245.0904 -7522.6295 301.1041 221.8613 335.8493 30441.1770 -76.1696 3.8543
TCL: Running FEP window   6: Lambda1 0.25   Lambda2 0.3    [dLambda 0.04999999999999999]
TCL: Setting parameter firsttimestep to 0
TCL: Setting parameter alchLambda to 0.25
Info: NONBONDED TABLE R-SQUARED SPACING: 0.0625
Info: NONBONDED TABLE SIZE: 705 POINTS
TCL: Setting parameter alchLambda2 to 0.3
Info: NONBONDED TABLE R-SQUARED SPACING: 0.0625
Info: NONBONDED TABLE SIZE: 705 POINTS
TCL: Running for 1500000 steps
ETITLE: TS BOND ANGLE DIHED IMPRP ELECT VDW BOUNDARY MISC KINETIC TOTAL TEMP POTENTIAL TOTALAVG TEMPAVG PRESSURE GPRESSURE VOLUME PRESSAVG GPRESSAVG
ENERGY: 0 3.3520 12.4184 7.2430 0.0000 -10734.8790 1467.3653 0.0000 0.0000 1768.2779 -7476.2224 297.3063 -9244.5003 -7476.2224 297.3063 250.2187 345.8225 30441.1770 250.2187 345.8225
ENERGY: 300000 1.4378 15.5163 7.5372 0.0000 -10657.8381 1343.2677 0.0000 0.0000 1787.7767 -7502.3025 300.5847 -9290.0792 -7489.9549 305.3054 -1097.5038 -993.8210 31035.0447 -192.3711 -97.9481
ENERGY: 600000 3.9375 9.5120 2.9018 0.0000 -10707.1211 1392.3041 0.0000 0.0000 1737.7625 -7560.7032 292.1757 -9298.4657 -7526.7354 300.9539 -636.9383 -534.8556 30608.6971 -97.5277 6.6547
ENERGY: 900000 3.5833 10.0269 5.9083 0.0000 -10740.1145 1409.2267 0.0000 0.0000 1778.5882 -7532.7810 299.0399 -9311.3692 -7525.8574 299.5119 -276.9686 -184.7302 30261.1518 -67.5561 27.1564
ENERGY: 1200000 2.7524 10.1070 4.5102 0.0000 -10751.6217 1457.1163 0.0000 0.0000 1727.3643 -7549.7714 290.4274 -9277.1357 -7516.1191 299.6934 -121.0791 -74.6869 31182.4383 -158.8301 -78.3870
ENERGY: 1500000 5.5635 10.2976 7.4950 0.0000 -10854.6797 1514.7037 0.0000 0.0000 1758.0613 -7558.5587 295.5886 -9316.6200 -7517.6795 299.2492 316.8103 442.1303 30398.6313 -85.6479 -7.3457
TCL: Running FEP window   7: Lambda1 0.3    Lambda2 0.35   [dLambda 0.04999999999999999]
TCL: Setting parameter firsttimestep to 0
TCL: Setting parameter alchLambda to 0.3
Info: NONBONDED TABLE R-SQUARED SPACING: 0.0625
Info: NONBONDED TABLE SIZE: 705 POINTS
TCL: Setting parameter alchLambda2 to 0.35
Info: NONBONDED TABLE R-SQUARED SPACING: 0.0625
Info: NONBONDED TABLE SIZE: 705 POINTS
TCL: Running for 1500000 steps
ETITLE: TS BOND ANGLE DIHED IMPRP ELECT VDW BOUNDARY MISC KINETIC TOTAL TEMP POTENTIAL TOTALAVG TEMPAVG PRESSURE GPRESSURE VOLUME PRESSAVG GPRESSAVG
ENERGY: 0 5.5635 10.2976 7.4950 0.0000 -10854.6806 1516.0779 0.0000 0.0000 1757.1996 -7558.0470 295.4437 -9315.2467 -7558.0470 295.4437 351.4024 457.3329 30398.6313 351.4024 457.3329
ENERGY: 300000 3.1076 12.6079 7.6390 0.0000 -10704.0195 1477.4162 0.0000 0.0000 1765.4686 -7437.7802 296.8340 -9203.2488 -7539.5201 297.0469 395.5240 471.1428 30853.9234 99.9650 194.4218
ENERGY: 600000 3.7799 7.3904 4.5364 0.0000 -10726.0528 1428.5633 0.0000 0.0000 1752.3324 -7529.4504 294.6254 -9281.7829 -7547.3906 296.5859 -38.6010 -7.5160 30622.6486 13.4204 103.3700
ENERGY: 900000 1.6684 11.6078 3.9199 0.0000 -10725.2515 1389.8684 0.0000 0.0000 1761.8395 -7556.3475 296.2238 -9318.1869 -7533.4673 298.6048 -649.2182 -583.7987 30741.1836 -66.2308 15.1402
ENERGY: 1200000 4.8118 8.0588 1.6967 0.0000 -10627.7238 1402.4759 0.0000 0.0000 1833.2358 -7377.4448 308.2279 -9210.6806 -7531.7571 299.5875 166.8707 290.7716 30370.6982 -107.7447 -22.3871
ENERGY: 1500000 7.4199 13.0243 6.0340 0.0000 -10753.6923 1417.5425 0.0000 0.0000 1752.9195 -7556.7522 294.7241 -9309.6716 -7535.3400 298.8201 -648.0338 -602.0087 30926.5777 -144.9474 -66.0386
TCL: Running FEP window   8: Lambda1 0.35   Lambda2 0.39999999999999997 [dLambda 0.04999999999999999]
TCL: Setting parameter firsttimestep to 0
TCL: Setting parameter alchLambda to 0.35
Info: NONBONDED TABLE R-SQUARED SPACING: 0.0625
Info: NONBONDED TABLE SIZE: 705 POINTS
TCL: Setting parameter alchLambda2 to 0.39999999999999997
Info: NONBONDED TABLE R-SQUARED SPACING: 0.0625
Info: NONBONDED TABLE SIZE: 705 POINTS
TCL: Running for 1500000 steps
ETITLE: TS BOND ANGLE DIHED IMPRP ELECT VDW BOUNDARY MISC KINETIC TOTAL TEMP POTENTIAL TOTALAVG TEMPAVG PRESSURE GPRESSURE VOLUME PRESSAVG GPRESSAVG
ENERGY: 0 7.4199 13.0243 6.0340 0.0000 -10753.6923 1417.6073 0.0000 0.0000 1752.0044 -7557.6024 294.5702 -9309.6068 -7557.6024 294.5702 -685.5229 -597.7176 30926.5777 -685.5229 -597.7176
ENERGY: 300000 3.5461 12.1748 4.5789 0.0000 -10796.8729 1459.6978 0.0000 0.0000 1819.2629 -7497.6124 305.8786 -9316.8753 -7544.8165 298.8026 84.4618 152.4540 30301.4151 -187.9214 -102.7378
ENERGY: 600000 3.8985 7.3344 7.2263 0.0000 -10773.5206 1464.7983 0.0000 0.0000 1807.4546 -7482.8086 303.8933 -9290.2631 -7527.4478 299.5393 97.7035 162.5205 30762.5801 -108.6597 -42.6970
ENERGY: 900000 5.9587 8.4687 4.1160 0.0000 -10688.7695 1376.4323 0.0000 0.0000 1789.4260 -7504.3679 300.8621 -9293.7939 -7524.5744 299.6129 -345.4131 -301.8975 30650.2529 -99.4512 -40.9531
ENERGY: 1200000 4.1599 9.8441 8.2257 0.0000 -10797.2211 1491.5289 0.0000 0.0000 1812.1346 -7471.3279 304.6801 -9283.4625 -7528.4531 300.0008 505.0091 566.0269 30455.5309 -72.0316 -11.6214
ENERGY: 1500000 3.7605 9.5547 3.3480 0.0000 -10864.9023 1508.3631 0.0000 0.0000 1743.3320 -7596.5440 293.1121 -9339.8760 -7527.3554 299.5732 274.6478 285.0902 30552.6869 -81.0381 -24.9718
TCL: Running FEP window   9: Lambda1 0.39999999999999997 Lambda2 0.44999999999999996 [dLambda 0.04999999999999999]
TCL: Setting parameter firsttimestep to 0
TCL: Setting parameter alchLambda to 0.39999999999999997
Info: NONBONDED TABLE R-SQUARED SPACING: 0.0625
Info: NONBONDED TABLE SIZE: 705 POINTS
TCL: Setting parameter alchLambda2 to 0.44999999999999996
Info: NONBONDED TABLE R-SQUARED SPACING: 0.0625
Info: NONBONDED TABLE SIZE: 705 POINTS
TCL: Running for 1500000 steps
ETITLE: TS BOND ANGLE DIHED IMPRP ELECT VDW BOUNDARY MISC KINETIC TOTAL TEMP POTENTIAL TOTALAVG TEMPAVG PRESSURE GPRESSURE VOLUME PRESSAVG GPRESSAVG
ENERGY: 0 3.7605 9.5547 3.3480 0.0000 -10864.9013 1509.1074 0.0000 0.0000 1742.4235 -7596.7073 292.9594 -9339.1308 -7596.7073 292.9594 215.7505 295.5158 30552.6869 215.7505 295.5158
ENERGY: 300000 2.5582 8.1336 7.1594 0.0000 -10732.0205 1410.3327 0.0000 0.0000 1859.7381 -7444.0985 312.6839 -9303.8365 -7542.3906 302.1446 201.3912 328.4679 30008.0939 237.4071 327.5695
ENERGY: 600000 4.1383 8.8801 6.4666 0.0000 -10721.3606 1407.4171 0.0000 0.0000 1846.4247 -7448.0337 310.4454 -9294.4585 -7523.1007 302.5511 -500.5110 -379.2317 30744.9244 -82.0677 2.6503
ENERGY: 900000 3.3676 12.3263 4.2669 0.0000 -10627.4066 1320.2147 0.0000 0.0000 1839.7994 -7447.4318 309.3315 -9287.2312 -7512.0465 302.6730 -880.3992 -848.4752 30651.2197 -200.7787 -124.0035
ENERGY: 1200000 3.1295 11.4489 2.5523 0.0000 -10841.7891 1482.9627 0.0000 0.0000 1831.0437 -7510.6520 307.8594 -9341.6956 -7513.7034 302.7620 3.9158 66.4410 30926.5098 -209.9731 -134.2909
ENERGY: 1500000 5.9492 9.3089 2.3374 0.0000 -10657.0986 1396.2372 0.0000 0.0000 1754.2713 -7488.9947 294.9514 -9243.2659 -7516.8045 301.6958 -332.9899 -320.3618 30943.9706 -116.1810 -40.7237
TCL: Running FEP window  10: Lambda1 0.44999999999999996 Lambda2 0.49999999999999994 [dLambda 0.04999999999999999]
TCL: Setting parameter firsttimestep to 0
TCL: Setting parameter alchLambda to 0.44999999999999996
Info: NONBONDED TABLE R-SQUARED SPACING: 0.0625
Info: NONBONDED TABLE SIZE: 705 POINTS
TCL: Setting parameter alchLambda2 to 0.49999999999999994
Info: NONBONDED TABLE R-SQUARED SPACING: 0.0625
Info: NONBONDED TABLE SIZE: 705 POINTS
TCL: Running for 1500000 steps
ETITLE: TS BOND ANGLE DIHED IMPRP ELECT VDW BOUNDARY MISC KINETIC TOTAL TEMP POTENTIAL TOTALAVG TEMPAVG PRESSURE GPRESSURE VOLUME PRESSAVG GPRESSAVG
ENERGY: 0 5.9492 9.3089 2.3374 0.0000 -10657.0985 1397.0638 0.0000 0.0000 1753.3947 -7489.0445 294.8040 -9242.4392 -7489.0445 294.8040 -382.3275 -302.9408 30943.9706 -382.3275 -302.9408
ENERGY: 300000 1.2524 9.1535 5.5537 0.0000 -10857.7450 1494.5839 0.0000 0.0000 1862.5934 -7484.6080 313.1639 -9347.2014 -7545.6012 301.0981 275.0760 363.4149 30730.0796 -186.4181 -105.2461
ENERGY: 600000 2.2659 15.6366 3.1711 0.0000 -10823.5194 1426.4263 0.0000 0.0000 1768.8361 -7607.1833 297.4002 -9376.0194 -7551.8079 298.8393 -383.0009 -320.2730 30674.3873 -254.2550 -175.7885
ENERGY: 900000 5.6505 7.7519 5.6654 0.0000 -10894.0290 1517.9413 0.0000 0.0000 1775.7255 -7581.2945 298.5585 -9357.0199 -7551.7527 299.6222 660.4990 696.8805 30399.3347 -176.4924 -109.3743
ENERGY: 1200000 6.3499 10.8737 3.6282 0.0000 -10745.7864 1397.8147 0.0000 0.0000 1767.3411 -7559.7787 297.1488 -9327.1198 -7542.5957 299.6191 -817.0939 -799.5413 31268.8299 -264.7567 -196.4174
ENERGY: 1500000 6.3497 9.3822 8.7867 0.0000 -10721.4462 1438.9980 0.0000 0.0000 1786.6833 -7471.2463 300.4009 -9257.9296 -7532.1121 300.2855 -76.0292 -34.1410 31106.6344 -216.0958 -143.1386
TCL: Running FEP window  11: Lambda1 0.49999999999999994 Lambda2 0.5499999999999999 [dLambda 0.04999999999999999]
TCL: Setting parameter firsttimestep to 0
TCL: Setting parameter alchLambda to 0.49999999999999994
Info: NONBONDED TABLE R-SQUARED SPACING: 0.0625
Info: NONBONDED TABLE SIZE: 705 POINTS
TCL: Setting parameter alchLambda2 to 0.5499999999999999
Info: NONBONDED TABLE R-SQUARED SPACING: 0.0625
Info: NONBONDED TABLE SIZE: 705 POINTS
TCL: Running for 1500000 steps
ETITLE: TS BOND ANGLE DIHED IMPRP ELECT VDW BOUNDARY MISC KINETIC TOTAL TEMP POTENTIAL TOTALAVG TEMPAVG PRESSURE GPRESSURE VOLUME PRESSAVG GPRESSAVG
ENERGY: 0 6.3497 9.3822 8.7867 0.0000 -10721.4464 1438.4431 0.0000 0.0000 1785.8029 -7472.6819 300.2529 -9258.4847 -7472.6819 300.2529 -97.8327 -32.9195 31106.6344 -97.8327 -32.9195
ENERGY: 300000 6.5561 15.1233 6.6989 0.0000 -10698.3072 1426.4616 0.0000 0.0000 1782.2844 -7461.1830 299.6613 -9243.4674 -7502.0458 301.5684 -58.6541 -0.5038 30605.3153 62.6999 113.8256
ENERGY: 600000 0.7338 7.5008 6.8211 0.0000 -10736.3548 1413.1082 0.0000 0.0000 1773.5542 -7534.6368 298.1935 -9308.1910 -7532.7951 300.0122 -496.1002 -460.3549 31345.5246 -132.4782 -82.5887
ENERGY: 900000 3.7688 7.0924 7.8082 0.0000 -10825.0205 1467.7730 0.0000 0.0000 1816.5402 -7522.0378 305.4208 -9338.5780 -7531.3377 301.2843 -62.8336 -15.5001 31052.5924 -118.1155 -64.1143
ENERGY: 1200000 2.2364 9.0875 2.8750 0.0000 -10648.6153 1351.0264 0.0000 0.0000 1766.6936 -7516.6963 297.0400 -9283.3900 -7533.0883 300.2783 -718.3094 -633.0553 30688.8688 -63.3415 -5.9900
ENERGY: 1500000 3.6418 13.1915 7.6845 0.0000 -10874.6881 1478.0026 0.0000 0.0000 1800.1634 -7572.0042 302.6674 -9372.1676 -7536.0323 300.1231 134.2622 180.3487 30374.4582 -97.3557 -44.8911
TCL: Running FEP window  12: Lambda1 0.5499999999999999 Lambda2 0.6    [dLambda 0.050000000000000044]
TCL: Setting parameter firsttimestep to 0
TCL: Setting parameter alchLambda to 0.5499999999999999
Info: NONBONDED TABLE R-SQUARED SPACING: 0.0625
Info: NONBONDED TABLE SIZE: 705 POINTS
TCL: Setting parameter alchLambda2 to 0.6
Info: NONBONDED TABLE R-SQUARED SPACING: 0.0625
Info: NONBONDED TABLE SIZE: 705 POINTS
TCL: Running for 1500000 steps
ETITLE: TS BOND ANGLE DIHED IMPRP ELECT VDW BOUNDARY MISC KINETIC TOTAL TEMP POTENTIAL TOTALAVG TEMPAVG PRESSURE GPRESSURE VOLUME PRESSAVG GPRESSAVG
ENERGY: 0 3.6418 13.1915 7.6845 0.0000 -10873.9921 1477.8320 0.0000 0.0000 1799.2521 -7572.3903 302.5141 -9371.6423 -7572.3903 302.5141 112.7283 191.6930 30374.4582 112.7283 191.6930
ENERGY: 300000 2.1404 11.4827 1.5327 0.0000 -11055.3234 1608.3320 0.0000 0.0000 1787.9557 -7643.8797 300.6149 -9431.8354 -7535.0775 304.1316 1035.0868 1100.7732 30122.9916 52.3992 120.6140
ENERGY: 600000 5.8172 13.9885 6.1162 0.0000 -10829.9988 1493.8110 0.0000 0.0000 1856.3641 -7453.9018 312.1166 -9310.2659 -7526.5890 302.8000 322.7966 370.7989 30956.9063 148.9431 207.0276
ENERGY: 900000 1.5317 11.4507 5.7918 0.0000 -10757.4010 1534.4853 0.0000 0.0000 1776.1316 -7428.0099 298.6268 -9204.1415 -7524.1298 301.7400 929.6697 963.9766 30509.4891 90.9959 146.0735
ENERGY: 1200000 1.2555 7.6861 1.3834 0.0000 -10930.4700 1502.4587 0.0000 0.0000 1777.6798 -7640.0066 298.8871 -9417.6864 -7532.6189 301.1405 154.2154 230.3645 30771.1222 18.8865 71.4495
ENERGY: 1500000 4.2949 14.8654 1.5905 0.0000 -10639.7613 1319.2830 0.0000 0.0000 1811.7281 -7487.9994 304.6118 -9299.7275 -7517.7502 301.6270 -751.5478 -698.0897 30631.7642 -80.6351 -25.1574
TCL: Running FEP window  13: Lambda1 0.6    Lambda2 0.65   [dLambda 0.050000000000000044]
TCL: Setting parameter firsttimestep to 0
TCL: Setting parameter alchLambda to 0.6
Info: NONBONDED TABLE R-SQUARED SPACING: 0.0625
Info: NONBONDED TABLE SIZE: 705 POINTS
TCL: Setting parameter alchLambda2 to 0.65
Info: NONBONDED TABLE R-SQUARED SPACING: 0.0625
Info: NONBONDED TABLE SIZE: 705 POINTS
TCL: Running for 1500000 steps
ETITLE: TS BOND ANGLE DIHED IMPRP ELECT VDW BOUNDARY MISC KINETIC TOTAL TEMP POTENTIAL TOTALAVG TEMPAVG PRESSURE GPRESSURE VOLUME PRESSAVG GPRESSAVG
ENERGY: 0 4.2948 14.8654 1.5905 0.0000 -10639.8768 1319.0155 0.0000 0.0000 1810.8337 -7489.2769 304.4614 -9300.1106 -7489.2769 304.4614 -769.3094 -691.5525 30631.7642 -769.3094 -691.5525
ENERGY: 300000 4.2311 12.5440 6.7240 0.0000 -10828.6869 1478.7665 0.0000 0.0000 1780.7130 -7545.7082 299.3971 -9326.4212 -7515.7224 302.4305 37.6192 142.6705 30569.1234 -176.6330 -110.6796
ENERGY: 600000 4.3282 8.2700 2.0016 0.0000 -10746.4841 1459.1708 0.0000 0.0000 1739.5378 -7533.1757 292.4742 -9272.7135 -7519.7359 299.5166 199.0937 245.7321 30694.2538 -163.1313 -97.4593
ENERGY: 900000 4.1727 5.1489 6.4812 0.0000 -10711.7024 1427.7962 0.0000 0.0000 1784.9445 -7483.1590 300.1086 -9268.1035 -7514.7551 300.0779 -185.5451 -155.8762 30730.0348 -55.7056 2.0194
ENERGY: 1200000 1.7306 7.8776 9.9743 0.0000 -10920.7975 1529.7471 0.0000 0.0000 1763.1585 -7608.3094 296.4456 -9371.4679 -7521.2253 300.9226 375.1878 442.6153 30917.5744 9.8084 70.6579
ENERGY: 1500000 3.0557 13.9185 3.4831 0.0000 -10704.6198 1410.4641 0.0000 0.0000 1784.3448 -7489.3537 300.0077 -9273.6985 -7514.7169 301.5091 -264.4487 -222.7658 30735.5263 -65.2617 -1.5955
TCL: Running FEP window  14: Lambda1 0.65   Lambda2 0.7000000000000001 [dLambda 0.050000000000000044]
TCL: Setting parameter firsttimestep to 0
TCL: Setting parameter alchLambda to 0.65
Info: NONBONDED TABLE R-SQUARED SPACING: 0.0625
Info: NONBONDED TABLE SIZE: 705 POINTS
TCL: Setting parameter alchLambda2 to 0.7000000000000001
Info: NONBONDED TABLE R-SQUARED SPACING: 0.0625
Info: NONBONDED TABLE SIZE: 705 POINTS
TCL: Running for 1500000 steps
ETITLE: TS BOND ANGLE DIHED IMPRP ELECT VDW BOUNDARY MISC KINETIC TOTAL TEMP POTENTIAL TOTALAVG TEMPAVG PRESSURE GPRESSURE VOLUME PRESSAVG GPRESSAVG
ENERGY: 0 3.0557 13.9185 3.4831 0.0000 -10704.3489 1409.9089 0.0000 0.0000 1783.4716 -7490.5112 299.8609 -9273.9828 -7490.5112 299.8609 -305.8938 -217.6819 30735.5263 -305.8938 -217.6819
ENERGY: 300000 8.6131 14.4924 2.8857 0.0000 -10768.5384 1459.4804 0.0000 0.0000 1785.6074 -7497.4594 300.2200 -9283.0668 -7497.9456 303.0433 59.8267 146.0189 30731.7799 207.8341 280.8751
ENERGY: 600000 4.8754 13.3157 3.8043 0.0000 -10860.6645 1496.3194 0.0000 0.0000 1766.9320 -7575.4177 297.0801 -9342.3497 -7512.8814 302.8171 353.2338 359.9184 30566.8881 103.0044 157.2641
ENERGY: 900000 3.0230 10.2488 7.1552 0.0000 -10602.8947 1323.3775 0.0000 0.0000 1770.0528 -7489.0375 297.6048 -9259.0903 -7518.3830 301.7188 -922.5732 -905.5056 31201.9666 -58.7992 -14.2785
ENERGY: 1200000 4.0780 8.8046 2.2682 0.0000 -10760.8072 1483.0861 0.0000 0.0000 1755.3697 -7507.2004 295.1361 -9262.5702 -7517.8377 301.3306 292.3791 353.0431 30621.3100 -19.1790 32.6236
ENERGY: 1500000 6.5475 4.7373 8.1934 0.0000 -10858.0842 1510.5392 0.0000 0.0000 1793.7197 -7534.3470 301.5840 -9328.0668 -7514.3733 301.6015 203.4737 230.6014 30882.5366 -60.0945 -16.9153
TCL: Running FEP window  15: Lambda1 0.7000000000000001 Lambda2 0.7500000000000001 [dLambda 0.050000000000000044]
TCL: Setting parameter firsttimestep to 0
TCL: Setting parameter alchLambda to 0.7000000000000001
Info: NONBONDED TABLE R-SQUARED SPACING: 0.0625
Info: NONBONDED TABLE SIZE: 705 POINTS
TCL: Setting parameter alchLambda2 to 0.7500000000000001
Info: NONBONDED TABLE R-SQUARED SPACING: 0.0625
Info: NONBONDED TABLE SIZE: 705 POINTS
TCL: Running for 1500000 steps
ETITLE: TS BOND ANGLE DIHED IMPRP ELECT VDW BOUNDARY MISC KINETIC TOTAL TEMP POTENTIAL TOTALAVG TEMPAVG PRESSURE GPRESSURE VOLUME PRESSAVG GPRESSAVG
ENERGY: 0 6.5475 4.7373 8.1934 0.0000 -10858.1006 1510.3267 0.0000 0.0000 1792.8435 -7535.4522 301.4367 -9328.2957 -7535.4522 301.4367 167.5356 239.5485 30882.5366 167.5356 239.5485
ENERGY: 300000 3.0601 10.9792 4.4065 0.0000 -10646.9719 1370.3130 0.0000 0.0000 1784.5975 -7473.6157 300.0502 -9258.2132 -7491.7798 298.4417 -115.0973 -102.7985 30478.0277 -52.5020 12.2403
ENERGY: 600000 1.9243 11.2547 3.8685 0.0000 -10748.5913 1447.7688 0.0000 0.0000 1800.4978 -7483.2772 302.7236 -9283.7750 -7475.4566 300.0621 213.1444 234.3404 30723.5045 -227.6052 -159.7752
ENERGY: 900000 3.4919 11.0145 6.6149 0.0000 -10850.1371 1409.5623 0.0000 0.0000 1770.1590 -7649.2945 297.6226 -9419.4535 -7526.1465 298.3785 -686.3462 -648.0241 30634.0220 -253.4647 -197.2417
ENERGY: 1200000 3.0212 13.0235 5.6128 0.0000 -10733.7563 1457.0557 0.0000 0.0000 1764.5913 -7490.4519 296.6865 -9255.0432 -7522.0050 299.2028 218.0598 285.2404 30628.0881 -249.5823 -190.5820
ENERGY: 1500000 2.0044 11.2760 2.9265 0.0000 -10796.4278 1415.2978 0.0000 0.0000 1765.3200 -7599.6032 296.8090 -9364.9232 -7526.8473 298.9927 -191.2811 -142.5480 30853.6397 -225.1925 -163.8107
TCL: Running FEP window  16: Lambda1 0.7500000000000001 Lambda2 0.8000000000000002 [dLambda 0.050000000000000044]
TCL: Setting parameter firsttimestep to 0
TCL: Setting parameter alchLambda to 0.7500000000000001
Info: NONBONDED TABLE R-SQUARED SPACING: 0.0625
Info: NONBONDED TABLE SIZE: 705 POINTS
TCL: Setting parameter alchLambda2 to 0.8000000000000002
Info: NONBONDED TABLE R-SQUARED SPACING: 0.0625
Info: NONBONDED TABLE SIZE: 705 POINTS
TCL: Running for 1500000 steps
ETITLE: TS BOND ANGLE DIHED IMPRP ELECT VDW BOUNDARY MISC KINETIC TOTAL TEMP POTENTIAL TOTALAVG TEMPAVG PRESSURE GPRESSURE VOLUME PRESSAVG GPRESSAVG
ENERGY: 0 2.0044 11.2760 2.9265 0.0000 -10796.8241 1415.4038 0.0000 0.0000 1764.4450 -7600.7684 296.6619 -9365.2135 -7600.7684 296.6619 -207.1558 -128.3718 30853.6397 -207.1558 -128.3718
ENERGY: 300000 4.6686 12.6472 7.2276 0.0000 -10908.1139 1505.5936 0.0000 0.0000 1765.7967 -7612.1801 296.8892 -9377.9768 -7559.7579 298.1452 399.3149 459.2587 30652.8070 197.8937 263.5832
ENERGY: 600000 2.3867 14.3885 6.0715 0.0000 -10856.0370 1547.4447 0.0000 0.0000 1767.4506 -7518.2951 297.1673 -9285.7457 -7558.4326 297.7618 738.3896 768.6636 30549.6305 70.5100 131.2864
ENERGY: 900000 2.2174 7.3542 3.1464 0.0000 -10824.7409 1462.8260 0.0000 0.0000 1791.6764 -7557.5205 301.2404 -9349.1969 -7551.8272 298.1019 133.0641 109.5447 30763.2891 85.6830 136.8195
ENERGY: 1200000 3.6779 9.6287 4.4002 0.0000 -10805.7827 1454.4712 0.0000 0.0000 1809.0734 -7524.5312 304.1654 -9333.6047 -7549.7556 298.4075 -117.5422 -26.1466 30631.6003 76.0808 126.6068
ENERGY: 1500000 5.3477 11.5759 7.5796 0.0000 -10740.0198 1419.9657 0.0000 0.0000 1788.2928 -7507.2581 300.6715 -9295.5509 -7540.7070 299.0358 -186.2111 -73.3033 30544.0548 91.8381 144.5047
TCL: Running FEP window  17: Lambda1 0.8000000000000002 Lambda2 0.8500000000000002 [dLambda 0.050000000000000044]
TCL: Setting parameter firsttimestep to 0
TCL: Setting parameter alchLambda to 0.8000000000000002
Info: NONBONDED TABLE R-SQUARED SPACING: 0.0625
Info: NONBONDED TABLE SIZE: 705 POINTS
TCL: Setting parameter alchLambda2 to 0.8500000000000002
Info: NONBONDED TABLE R-SQUARED SPACING: 0.0625
Info: NONBONDED TABLE SIZE: 705 POINTS
TCL: Running for 1500000 steps
ETITLE: TS BOND ANGLE DIHED IMPRP ELECT VDW BOUNDARY MISC KINETIC TOTAL TEMP POTENTIAL TOTALAVG TEMPAVG PRESSURE GPRESSURE VOLUME PRESSAVG GPRESSAVG
ENERGY: 0 5.3477 11.5759 7.5796 0.0000 -10740.8625 1419.3619 0.0000 0.0000 1787.4163 -7509.5811 300.5242 -9296.9974 -7509.5811 300.5242 -144.9402 -69.9919 30544.0548 -144.9402 -69.9919
ENERGY: 300000 2.4831 11.5897 7.1962 0.0000 -10926.6200 1499.3080 0.0000 0.0000 1787.9916 -7618.0513 300.6209 -9406.0429 -7525.0218 300.4749 -9.7173 40.6547 30739.6793 -257.6396 -194.4859
ENERGY: 600000 4.8589 11.1642 5.6928 0.0000 -10975.2058 1548.9794 0.0000 0.0000 1827.9534 -7576.5571 307.3398 -9404.5105 -7526.2491 300.7033 954.8604 1039.5520 29972.8691 -81.9771 -21.0980
ENERGY: 900000 3.4948 7.3469 4.3615 0.0000 -10641.5668 1362.8097 0.0000 0.0000 1733.5191 -7530.0348 291.4622 -9263.5538 -7519.1099 300.2499 -740.8569 -705.8211 31016.1777 -217.1810 -166.6989
ENERGY: 1200000 2.2809 10.0124 1.8290 0.0000 -10839.0756 1481.1286 0.0000 0.0000 1784.4388 -7559.3859 300.0235 -9343.8247 -7530.2084 299.7540 217.5677 234.5037 30791.0321 -171.5956 -112.0194
ENERGY: 1500000 3.8215 11.4918 2.1107 0.0000 -10747.0694 1384.4523 0.0000 0.0000 1799.4986 -7545.6946 302.5556 -9345.1932 -7519.0745 300.5400 -477.6954 -432.6338 30763.1405 -221.3593 -161.6561
TCL: Running FEP window  18: Lambda1 0.8500000000000002 Lambda2 0.9000000000000002 [dLambda 0.050000000000000044]
TCL: Setting parameter firsttimestep to 0
TCL: Setting parameter alchLambda to 0.8500000000000002
Info: NONBONDED TABLE R-SQUARED SPACING: 0.0625
Info: NONBONDED TABLE SIZE: 705 POINTS
TCL: Setting parameter alchLambda2 to 0.9000000000000002
Info: NONBONDED TABLE R-SQUARED SPACING: 0.0625
Info: NONBONDED TABLE SIZE: 705 POINTS
TCL: Running for 1500000 steps
ETITLE: TS BOND ANGLE DIHED IMPRP ELECT VDW BOUNDARY MISC KINETIC TOTAL TEMP POTENTIAL TOTALAVG TEMPAVG PRESSURE GPRESSURE VOLUME PRESSAVG GPRESSAVG
ENERGY: 0 3.8215 11.4917 2.1107 0.0000 -10748.4604 1384.4974 0.0000 0.0000 1798.6350 -7547.9041 302.4104 -9346.5391 -7547.9041 302.4104 -505.5449 -421.1850 30763.1405 -505.5449 -421.1850
ENERGY: 300000 1.8548 11.1712 7.5098 0.0000 -10813.1675 1535.6106 0.0000 0.0000 1766.0416 -7490.9795 296.9303 -9257.0211 -7542.9723 301.3595 879.8242 957.0267 30766.9150 268.0391 356.6014
ENERGY: 600000 5.4906 11.8780 2.5122 0.0000 -10851.3028 1516.5607 0.0000 0.0000 1773.5613 -7541.3001 298.1947 -9314.8614 -7545.1521 300.7572 335.1573 400.8854 31073.0028 32.6832 105.3805
ENERGY: 900000 1.7478 13.8348 3.6517 0.0000 -10849.2436 1418.4541 0.0000 0.0000 1752.7993 -7658.7559 294.7039 -9411.5552 -7553.4093 300.8742 -601.9408 -521.7400 30887.2677 -97.2354 -24.7306
ENERGY: 1200000 1.5781 10.1456 2.5787 0.0000 -10746.4433 1451.4216 0.0000 0.0000 1769.0701 -7511.6493 297.4395 -9280.7194 -7544.6661 299.3834 -286.5573 -221.2068 31249.2816 -111.4006 -37.8638
ENERGY: 1500000 5.9303 10.4089 4.4282 0.0000 -10847.1409 1498.7525 0.0000 0.0000 1766.0919 -7561.5292 296.9388 -9327.6211 -7550.2044 298.8274 319.1877 362.2506 30712.6271 -83.3259 -14.0737
TCL: Running FEP window  19: Lambda1 0.9000000000000002 Lambda2 0.9500000000000003 [dLambda 0.050000000000000044]
TCL: Setting parameter firsttimestep to 0
TCL: Setting parameter alchLambda to 0.9000000000000002
Info: NONBONDED TABLE R-SQUARED SPACING: 0.0625
Info: NONBONDED TABLE SIZE: 705 POINTS
TCL: Setting parameter alchLambda2 to 0.9500000000000003
Info: NONBONDED TABLE R-SQUARED SPACING: 0.0625
Info: NONBONDED TABLE SIZE: 705 POINTS
TCL: Running for 1500000 steps
ETITLE: TS BOND ANGLE DIHED IMPRP ELECT VDW BOUNDARY MISC KINETIC TOTAL TEMP POTENTIAL TOTALAVG TEMPAVG PRESSURE GPRESSURE VOLUME PRESSAVG GPRESSAVG
ENERGY: 0 5.9303 10.4089 4.4282 0.0000 -10847.7904 1498.7790 0.0000 0.0000 1765.2220 -7563.0220 296.7926 -9328.2441 -7563.0220 296.7926 297.9197 379.3384 30712.6271 297.9197 379.3384
ENERGY: 300000 2.1152 8.8113 5.7722 0.0000 -10831.3143 1486.4701 0.0000 0.0000 1797.9505 -7530.1950 302.2953 -9328.1455 -7519.7989 303.4086 567.2093 613.2658 30509.4040 146.1625 213.9887
ENERGY: 600000 2.4599 13.1506 6.0735 0.0000 -10832.5836 1446.3569 0.0000 0.0000 1726.7631 -7637.7796 290.3263 -9364.5427 -7532.8844 302.4612 -213.2214 -208.5142 30780.3745 20.8142 77.1260
ENERGY: 900000 2.4193 11.5564 4.6527 0.0000 -10593.8484 1352.7078 0.0000 0.0000 1812.5789 -7409.9333 304.7548 -9222.5122 -7515.1013 302.1072 -280.4008 -290.5494 30973.5250 93.9564 150.8559
ENERGY: 1200000 2.6905 8.4519 3.5934 0.0000 -10709.4803 1424.7230 0.0000 0.0000 1768.1388 -7501.8826 297.2830 -9270.0214 -7506.1228 302.2227 -113.6633 -36.6551 30974.8290 29.2704 93.2914
ENERGY: 1500000 2.7691 8.1705 2.9292 0.0000 -10778.9592 1460.6161 0.0000 0.0000 1747.6914 -7556.7830 293.8451 -9304.4743 -7514.8425 301.0048 195.8471 239.0416 30543.2485 -47.0105 17.6251
TCL: Running FEP window  20: Lambda1 0.9500000000000003 Lambda2 1.0    [dLambda 0.04999999999999971]
TCL: Setting parameter firsttimestep to 0
TCL: Setting parameter alchLambda to 0.9500000000000003
Info: NONBONDED TABLE R-SQUARED SPACING: 0.0625
Info: NONBONDED TABLE SIZE: 705 POINTS
TCL: Setting parameter alchLambda2 to 1.0
Info: NONBONDED TABLE R-SQUARED SPACING: 0.0625
Info: NONBONDED TABLE SIZE: 705 POINTS
TCL: Running for 1500000 steps
ETITLE: TS BOND ANGLE DIHED IMPRP ELECT VDW BOUNDARY MISC KINETIC TOTAL TEMP POTENTIAL TOTALAVG TEMPAVG PRESSURE GPRESSURE VOLUME PRESSAVG GPRESSAVG
ENERGY: 0 2.7691 8.1705 2.9292 0.0000 -10780.3182 1460.5485 0.0000 0.0000 1746.8360 -7559.0649 293.7013 -9305.9009 -7559.0649 293.7013 165.5506 253.3626 30543.2485 165.5506 253.3626
ENERGY: 300000 3.5380 12.6219 5.3833 0.0000 -10847.5751 1508.4353 0.0000 0.0000 1820.5051 -7497.0916 306.0875 -9317.5966 -7542.1356 297.4758 586.3842 663.0346 30678.6170 -74.4521 -8.7450
ENERGY: 600000 2.5004 8.0808 9.6205 0.0000 -10851.3238 1512.6240 0.0000 0.0000 1726.2001 -7592.2980 290.2317 -9318.4981 -7526.7550 299.5726 815.8469 870.8812 30167.9249 127.7571 188.1275
ENERGY: 900000 3.1171 10.1806 4.8041 0.0000 -10703.8471 1388.2095 0.0000 0.0000 1785.9511 -7511.5847 300.2778 -9297.5358 -7522.1426 300.1193 -295.0414 -207.7495 30813.3965 83.5074 137.9020
ENERGY: 1200000 3.9639 8.0015 3.6349 0.0000 -10589.5238 1316.9256 0.0000 0.0000 1803.6008 -7453.3971 303.2453 -9256.9978 -7524.8007 300.8983 -867.3872 -824.9544 31042.3330 -1.9981 56.1918
ENERGY: 1500000 3.6113 7.2295 6.7647 0.0000 -10781.6236 1466.9612 0.0000 0.0000 1792.5858 -7504.4710 301.3933 -9297.0568 -7521.8385 300.6184 116.5963 227.1129 30652.6954 -19.3825 41.0236
TCL: Exiting due to exit command.
