Info: SIMULATION PARAMETERS:
Info: TIMESTEP               2
Info: NUMBER OF STEPS        0
Info: STEPS PER CYCLE        10
Info: PERIODIC CELL BASIS 1  33.3108 0 0
Info: PERIODIC CELL BASIS 2  0 29.2416 0
Info: PERIODIC CELL BASIS 3  0 0 31.7874
Info: PERIODIC CELL CENTER   0 0 0
Info: WRAPPING WATERS AROUND PERIODIC BOUNDARIES ON OUTPUT.
Info: WRAPPING ALL CLUSTERS AROUND PERIODIC BOUNDARIES ON OUTPUT.
Info: FIRST LDB TIMESTEP     50
Info: LAST LDB TIMESTEP     -1
Info: HOM BACKGROUND SCALING 1
Info: PME BACKGROUND SCALING 1
Info: MIN ATOMS PER PATCH    40
Info: EMPTY PATCH LOAD       40 ATOMS
Info: VELOCITY FILE          mobley_5390332_equil.vel
Info: CENTER OF MASS MOVING INITIALLY? NO
Info: DIELECTRIC             1
Info: EXCLUDE                SCALED ONE-FOUR
Info: 1-4 ELECTROSTATICS SCALED BY 0.833333
Info: MODIFIED 1-4 VDW PARAMETERS WILL BE USED
Info: DCD FILENAME           mobley_5390332_prod.dcd
Info: DCD FREQUENCY          100000
Info: DCD FIRST STEP         100000
Info: DCD FILE WILL CONTAIN UNIT CELL DATA
Info: XST FILENAME           mobley_5390332_prod.xst
Info: XST FREQUENCY          100000
Info: NO VELOCITY DCD OUTPUT
Info: NO FORCE DCD OUTPUT
Info: OUTPUT FILENAME        mobley_5390332_prod
Info: BINARY OUTPUT FILES WILL BE USED
Info: RESTART FILENAME       mobley_5390332_prod.restart
Info: RESTART FREQUENCY      100000
Info: BINARY RESTART FILES WILL BE USED
Info: CUTOFF                 9
Info: PAIRLIST DISTANCE      11
Info: PAIRLIST SHRINK RATE   0.01
Info: PAIRLIST GROW RATE     0.01
Info: PAIRLIST TRIGGER       0.3
Info: PAIRLISTS PER CYCLE    2
Info: PAIRLISTS ENABLED
Info: MARGIN                 2
Info: HYDROGEN GROUP CUTOFF  2.5
Info: PATCH DIMENSION        15.5
Info: ENERGY OUTPUT STEPS    100000
Info: ENERGY EVALUATION STEPS    100000
Info: OUTPUT ENERGY PRECISION 4
Info: CROSSTERM ENERGY INCLUDED IN DIHEDRAL
Info: TIMING OUTPUT STEPS    1000000
Info: PRESSURE OUTPUT STEPS  100000
Info: ALCHEMICAL FEP ON
Info: FEP CURRENT LAMBDA VALUE     1
Info: FEP COMPARISON LAMBDA VALUE  0.95
Info: FEP INTRA-ALCHEMICAL NON-BONDED INTERACTIONS WILL BE RETAINED
Info: FEP INTRA-ALCHEMICAL BONDED INTERACTIONS WILL BE RETAINED
Info: FEP VDW SHIFTING COEFFICIENT 5
Info: FEP ELEC. ACTIVE FOR ANNIHILATED PARTICLES BETWEEN LAMBDA = 0 AND LAMBDA = 0.5
Info: FEP ELEC. ACTIVE FOR EXNIHILATED PARTICLES BETWEEN LAMBDA = 0.5 AND LAMBDA = 1
Info: FEP VDW ACTIVE FOR ANNIHILATED PARTICLES BETWEEN LAMBDA = 0 AND LAMBDA = 1
Info: FEP VDW ACTIVE FOR EXNIHILATED PARTICLES BETWEEN LAMBDA = 0 AND LAMBDA = 1
Info: FEP BOND ACTIVE FOR ANNIHILATED PARTICLES BETWEEN LAMBDA = 1 AND LAMBDA = 1
Info: FEP BOND ACTIVE FOR EXNIHILATED PARTICLES BETWEEN LAMBDA = 0 AND LAMBDA = 0
Info: LANGEVIN DYNAMICS ACTIVE
Info: LANGEVIN TEMPERATURE   300
Info: LANGEVIN USING BBK INTEGRATOR
Info: LANGEVIN DAMPING COEFFICIENT IS 1 INVERSE PS
Info: LANGEVIN DYNAMICS APPLIED TO HYDROGENS
Info: LANGEVIN PISTON PRESSURE CONTROL ACTIVE
Info:        TARGET PRESSURE IS 1.01325 BAR
Info:     OSCILLATION PERIOD IS 50 FS
Info:             DECAY TIME IS 25 FS
Info:     PISTON TEMPERATURE IS 300 K
Info:       PRESSURE CONTROL IS GROUP-BASED
Info:    INITIAL STRAIN RATE IS 0.000543069 0.000543069 0.000543069
Info:       CELL FLUCTUATION IS ISOTROPIC
Info: PARTICLE MESH EWALD (PME) ACTIVE
Info: PME TOLERANCE               1e-06
Info: PME EWALD COEFFICIENT       0.348832
Info: PME INTERPOLATION ORDER     4
Info: PME GRID DIMENSIONS         36 32 32
Info: PME MAXIMUM GRID SPACING    1
Info: PME CALCULATION WILL BE PERFORMED ON GPU
Info: FULL ELECTROSTATIC EVALUATION FREQUENCY      2
Info: USING VERLET I (r-RESPA) MTS SCHEME.
Info: C1 SPLITTING OF LONG RANGE ELECTROSTATICS
Info: PLACING ATOMS IN PATCHES BY HYDROGEN GROUPS
Info: RIGID BONDS TO HYDROGEN : ALL
Info:         ERROR TOLERANCE : 1e-08
Info:          MAX ITERATIONS : 100
Info: RIGID WATER USING SETTLE ALGORITHM
Info: RANDOM NUMBER SEED     1743854582
Info: USE HYDROGEN BONDS?    NO
Info: Using AMBER format force field!
Info: AMBER PARM FILE        mobley_5390332.prmtop
Info: COORDINATE PDB         mobley_5390332.pdb
Info: Exclusions will be read from PARM file!
Info: SCNB (VDW SCALING)     2
Info: USING ARITHMETIC MEAN TO COMBINE L-J SIGMA PARAMETERS
Info: BINARY COORDINATES     mobley_5390332_equil.coor
Info: SUMMARY OF PARAMETERS:
Info: 9 BONDS
Info: 11 ANGLES
Info:   11 HARMONIC
Info:   0 COSINE-BASED
Info: 13 DIHEDRAL
Info: 0 IMPROPER
Info: 0 CROSSTERM
Info: 0 VDW
Info: 36 VDW_PAIRS
Info: 0 NBTHOLE_PAIRS
Info: To read alchdata from file: mobley_5390332.pdb
Info: To read alchflag data from column: 5
Info: STRUCTURE SUMMARY:
Info: 2987 ATOMS
Info: 2986 BONDS
Info: 28 ANGLES
Info: 37 DIHEDRALS
Info: 0 IMPROPERS
Info: 0 CROSSTERMS
Info: 3043 EXCLUSIONS
Info: 2980 RIGID BONDS
Info: ALCH: 0 ATOMS TO DISAPPEAR IN FINAL STATE
Info: ALCH: 17 ATOMS TO APPEAR IN FINAL STATE
Info: 5981 DEGREES OF FREEDOM
Info: 997 HYDROGEN GROUPS
Info: 4 ATOMS IN LARGEST HYDROGEN GROUP
Info: 997 MIGRATION GROUPS
Info: 4 ATOMS IN LARGEST MIGRATION GROUP
Info: TOTAL MASS = 17938 amu
Info: TOTAL CHARGE = -9.99719e-05 e
Info: MASS DENSITY = 0.962038 g/cm^3
Info: ATOM DENSITY = 0.0964706 atoms/A^3
Info: ADDED 0 IMPLICIT EXCLUSIONS
Info: NONBONDED TABLE R-SQUARED SPACING: 0.0625
Info: NONBONDED TABLE SIZE: 705 POINTS
Info: REMOVING COM VELOCITY -0.0478356 0.0425318 0.12689
Info: Use 3D box decompostion in PME FFT.
Info: Updated CUDA force table with 4096 elements.
Info: Updated CUDA LJ table with 8 x 8 elements.
Info: Found 20 unique exclusion lists needing 48 bytes
TCL: Running for 1500000 steps
ETITLE: TS BOND ANGLE DIHED IMPRP ELECT VDW BOUNDARY MISC KINETIC TOTAL TEMP POTENTIAL TOTALAVG TEMPAVG PRESSURE GPRESSURE VOLUME PRESSAVG GPRESSAVG
ENERGY: 0 2.0927 5.9220 3.7392 0.0000 -10926.0434 1453.4337 0.0000 0.0000 1790.9805 -7669.8751 301.3752 -9460.8556 -7669.8751 301.3752 -292.4855 -197.9541 30962.7951 -292.4855 -197.9541
ENERGY: 300000 3.6706 8.8495 1.5252 0.0000 -10715.1999 1381.8324 0.0000 0.0000 1769.8322 -7549.4901 297.8164 -9319.3222 -7592.5497 299.1977 -544.0195 -448.2494 30840.4283 -532.6164 -457.2852
ENERGY: 600000 1.9607 8.3273 3.7236 0.0000 -10797.6880 1448.6751 0.0000 0.0000 1814.4981 -7520.5032 305.3325 -9335.0013 -7574.3801 301.7345 265.0827 322.2968 30553.3780 -130.3881 -70.6320
ENERGY: 900000 1.8084 7.4259 2.5159 0.0000 -10882.5400 1424.8827 0.0000 0.0000 1837.7085 -7608.1986 309.2383 -9445.9071 -7585.1384 301.4184 -483.9054 -384.5055 31028.1589 -79.7701 -24.2762
ENERGY: 1200000 1.7611 6.1272 2.6623 0.0000 -10796.6804 1421.6737 0.0000 0.0000 1772.6266 -7591.8294 298.2867 -9364.4560 -7584.1425 300.5983 -306.5887 -284.6314 30929.5671 -12.4275 38.6408
ENERGY: 1500000 1.1448 6.8606 3.2565 0.0000 -10730.3920 1395.3152 0.0000 0.0000 1797.7331 -7526.0819 302.5114 -9323.8150 -7580.2230 300.2518 -555.2188 -492.5995 31267.8767 -99.0604 -42.9835
TCL: Running FEP window   2: Lambda1 0.95   Lambda2 0.8999999999999999 [dLambda -0.050000000000000044]
TCL: Setting parameter firsttimestep to 0
TCL: Setting parameter alchLambda to 0.95
Info: NONBONDED TABLE R-SQUARED SPACING: 0.0625
Info: NONBONDED TABLE SIZE: 705 POINTS
TCL: Setting parameter alchLambda2 to 0.8999999999999999
Info: NONBONDED TABLE R-SQUARED SPACING: 0.0625
Info: NONBONDED TABLE SIZE: 705 POINTS
TCL: Running for 1500000 steps
ETITLE: TS BOND ANGLE DIHED IMPRP ELECT VDW BOUNDARY MISC KINETIC TOTAL TEMP POTENTIAL TOTALAVG TEMPAVG PRESSURE GPRESSURE VOLUME PRESSAVG GPRESSAVG
ENERGY: 0 1.1448 6.8606 3.2565 0.0000 -10729.1110 1394.2597 0.0000 0.0000 1796.8125 -7526.7770 302.3565 -9323.5895 -7526.7770 302.3565 -602.3433 -519.5188 31267.8767 -602.3433 -519.5188
ENERGY: 300000 2.0023 4.4542 2.8151 0.0000 -10924.5901 1447.9513 0.0000 0.0000 1744.4773 -7722.8899 293.5499 -9467.3672 -7616.7222 297.3858 97.8352 169.6286 30074.1571 -92.1475 -27.1914
ENERGY: 600000 0.8414 11.2781 4.3291 0.0000 -10862.7978 1424.8770 0.0000 0.0000 1815.7908 -7605.6813 305.5501 -9421.4721 -7591.8596 299.8603 -181.5380 -110.4547 30392.8055 84.1265 147.6716
ENERGY: 900000 2.0055 6.7813 1.6140 0.0000 -10869.3337 1470.6480 0.0000 0.0000 1794.1668 -7594.1182 301.9113 -9388.2850 -7584.4557 299.6691 91.8400 182.0263 30686.8761 -7.4855 65.1019
ENERGY: 1200000 1.7105 11.3457 2.4575 0.0000 -10874.5096 1476.0308 0.0000 0.0000 1765.9627 -7617.0023 297.1653 -9382.9651 -7597.6805 298.6762 31.4573 130.9833 30676.5407 -17.4059 52.4829
ENERGY: 1500000 1.0618 5.6200 3.1811 0.0000 -10812.7004 1425.3887 0.0000 0.0000 1824.6328 -7552.8160 307.0380 -9377.4489 -7602.5567 298.7420 -373.4639 -277.2509 30979.8091 -133.8176 -63.2138
TCL: Running FEP window   3: Lambda1 0.8999999999999999 Lambda2 0.8499999999999999 [dLambda -0.050000000000000044]
TCL: Setting parameter firsttimestep to 0
TCL: Setting parameter alchLambda to 0.8999999999999999
Info: NONBONDED TABLE R-SQUARED SPACING: 0.0625
Info: NONBONDED TABLE SIZE: 705 POINTS
TCL: Setting parameter alchLambda2 to 0.8499999999999999
Info: NONBONDED TABLE R-SQUARED SPACING: 0.0625
Info: NONBONDED TABLE SIZE: 705 POINTS
TCL: Running for 1500000 steps
ETITLE: TS BOND ANGLE DIHED IMPRP ELECT VDW BOUNDARY MISC KINETIC TOTAL TEMP POTENTIAL TOTALAVG TEMPAVG PRESSURE GPRESSURE VOLUME PRESSAVG GPRESSAVG
ENERGY: 0 1.0618 5.6200 3.1811 0.0000 -10811.3425 1425.7268 0.0000 0.0000 1823.7141 -7552.0387 306.8834 -9375.7528 -7552.0387 306.8834 -363.8770 -280.1745 30979.8091 -363.8770 -280.1745
ENERGY: 300000 1.1368 6.0962 1.7923 0.0000 -10956.5438 1495.8564 0.0000 0.0000 1761.3216 -7690.3405 296.3843 -9451.6622 -7600.1299 302.1945 62.8017 225.6464 30278.8900 -217.6197 -125.6080
ENERGY: 600000 2.0394 6.1169 2.2747 0.0000 -10906.0880 1525.9040 0.0000 0.0000 1749.5652 -7620.1877 294.4060 -9369.7529 -7599.9085 301.2420 459.6066 506.9129 30749.3449 -27.0440 42.8553
ENERGY: 900000 0.9498 8.1028 1.3853 0.0000 -10707.6506 1410.5823 0.0000 0.0000 1741.1134 -7545.5170 292.9838 -9286.6304 -7592.0571 300.1259 -142.8516 -70.9080 30940.0225 -6.5787 66.0117
ENERGY: 1200000 1.7978 10.2417 3.0142 0.0000 -10731.2968 1382.6647 0.0000 0.0000 1764.0965 -7569.4821 296.8513 -9333.5786 -7594.6094 299.5415 -595.1117 -541.8751 31109.9872 -79.3788 -9.3354
ENERGY: 1500000 0.8107 9.3455 1.9383 0.0000 -10775.1897 1464.9465 0.0000 0.0000 1839.3684 -7458.7802 309.5176 -9298.1486 -7575.7219 299.7656 458.5947 503.0250 30599.3866 -72.6329 -7.2247
TCL: Running FEP window   4: Lambda1 0.8499999999999999 Lambda2 0.7999999999999998 [dLambda -0.050000000000000044]
TCL: Setting parameter firsttimestep to 0
TCL: Setting parameter alchLambda to 0.8499999999999999
Info: NONBONDED TABLE R-SQUARED SPACING: 0.0625
Info: NONBONDED TABLE SIZE: 705 POINTS
TCL: Setting parameter alchLambda2 to 0.7999999999999998
Info: NONBONDED TABLE R-SQUARED SPACING: 0.0625
Info: NONBONDED TABLE SIZE: 705 POINTS
TCL: Running for 1500000 steps
ETITLE: TS BOND ANGLE DIHED IMPRP ELECT VDW BOUNDARY MISC KINETIC TOTAL TEMP POTENTIAL TOTALAVG TEMPAVG PRESSURE GPRESSURE VOLUME PRESSAVG GPRESSAVG
ENERGY: 0 0.8107 9.3456 1.9383 0.0000 -10774.1406 1464.3112 0.0000 0.0000 1838.4783 -7459.2565 309.3678 -9297.7348 -7459.2565 309.3678 398.2412 485.7383 30599.3866 398.2412 485.7383
ENERGY: 300000 0.6698 5.5290 2.5455 0.0000 -10658.9134 1369.5477 0.0000 0.0000 1786.8832 -7493.7381 300.6857 -9280.6213 -7548.1174 303.5273 -232.4562 -211.0478 30492.5806 129.1453 180.3778
ENERGY: 600000 1.6083 7.9131 3.2745 0.0000 -10746.4183 1430.9099 0.0000 0.0000 1736.7393 -7565.9732 292.2478 -9302.7125 -7564.7557 300.5563 -45.3755 44.2003 30612.2875 17.9131 85.9925
ENERGY: 900000 0.7826 5.9345 3.6984 0.0000 -10842.9809 1498.2893 0.0000 0.0000 1748.2917 -7585.9845 294.1917 -9334.2762 -7561.7878 300.9565 338.4783 373.1707 31005.7587 26.2464 93.8212
ENERGY: 1200000 0.9130 6.0947 2.3919 0.0000 -10840.6040 1468.7755 0.0000 0.0000 1786.5784 -7575.8504 300.6344 -9362.4289 -7566.7942 300.6668 -110.2879 15.4016 31018.7571 -12.2021 58.2982
ENERGY: 1500000 1.3557 7.1549 4.3446 0.0000 -10786.8057 1376.4988 0.0000 0.0000 1786.6729 -7610.7788 300.6503 -9397.4517 -7579.2453 300.6558 -608.1632 -557.6462 30502.2160 -56.0903 10.1348
TCL: Running FEP window   5: Lambda1 0.7999999999999998 Lambda2 0.7499999999999998 [dLambda -0.050000000000000044]
TCL: Setting parameter firsttimestep to 0
TCL: Setting parameter alchLambda to 0.7999999999999998
Info: NONBONDED TABLE R-SQUARED SPACING: 0.0625
Info: NONBONDED TABLE SIZE: 705 POINTS
TCL: Setting parameter alchLambda2 to 0.7499999999999998
Info: NONBONDED TABLE R-SQUARED SPACING: 0.0625
Info: NONBONDED TABLE SIZE: 705 POINTS
TCL: Running for 1500000 steps
ETITLE: TS BOND ANGLE DIHED IMPRP ELECT VDW BOUNDARY MISC KINETIC TOTAL TEMP POTENTIAL TOTALAVG TEMPAVG PRESSURE GPRESSURE VOLUME PRESSAVG GPRESSAVG
ENERGY: 0 1.3557 7.1549 4.3446 0.0000 -10785.1351 1375.8546 0.0000 0.0000 1785.8124 -7610.6130 300.5055 -9396.4254 -7610.6130 300.5055 -653.4551 -571.5112 30502.2160 -653.4551 -571.5112
ENERGY: 300000 0.7080 8.5956 3.5626 0.0000 -10727.6820 1367.3658 0.0000 0.0000 1800.6630 -7546.7870 303.0045 -9347.4500 -7545.2676 301.6820 -790.4095 -714.6204 31034.8075 -266.9394 -191.3574
ENERGY: 600000 2.4019 10.6393 2.5234 0.0000 -10882.9673 1464.2497 0.0000 0.0000 1748.9437 -7654.2093 294.3015 -9403.1529 -7559.8411 300.0317 25.2534 136.7177 30422.8666 -120.1139 -26.9309
ENERGY: 900000 1.0481 5.6949 2.5203 0.0000 -10796.0560 1459.6397 0.0000 0.0000 1798.4825 -7528.6704 302.6375 -9327.1529 -7563.1198 299.7682 -87.5416 -54.9364 31246.3478 -133.7295 -50.9058
ENERGY: 1200000 2.4574 5.8168 2.2534 0.0000 -10815.0882 1418.9301 0.0000 0.0000 1778.8503 -7606.7803 299.3340 -9385.6306 -7560.6168 299.4955 -272.1577 -219.6143 30621.9693 -167.8500 -95.3590
ENERGY: 1500000 0.2652 9.3870 2.2482 0.0000 -10845.0842 1436.5233 0.0000 0.0000 1714.6507 -7682.0098 288.5308 -9396.6606 -7558.4786 299.6326 -276.6133 -201.9382 30603.6422 -219.5567 -147.0262
TCL: Running FEP window   6: Lambda1 0.7499999999999998 Lambda2 0.6999999999999997 [dLambda -0.050000000000000044]
TCL: Setting parameter firsttimestep to 0
TCL: Setting parameter alchLambda to 0.7499999999999998
Info: NONBONDED TABLE R-SQUARED SPACING: 0.0625
Info: NONBONDED TABLE SIZE: 705 POINTS
TCL: Setting parameter alchLambda2 to 0.6999999999999997
Info: NONBONDED TABLE R-SQUARED SPACING: 0.0625
Info: NONBONDED TABLE SIZE: 705 POINTS
TCL: Running for 1500000 steps
ETITLE: TS BOND ANGLE DIHED IMPRP ELECT VDW BOUNDARY MISC KINETIC TOTAL TEMP POTENTIAL TOTALAVG TEMPAVG PRESSURE GPRESSURE VOLUME PRESSAVG GPRESSAVG
ENERGY: 0 0.2651 9.3870 2.2482 0.0000 -10844.3219 1436.8532 0.0000 0.0000 1713.7915 -7681.7768 288.3863 -9395.5683 -7681.7768 288.3863 -298.5754 -209.4149 30603.6422 -298.5754 -209.4149
ENERGY: 300000 2.3696 11.8333 2.5775 0.0000 -10878.4162 1444.8730 0.0000 0.0000 1789.4216 -7627.3411 301.1128 -9416.7628 -7608.4849 294.7948 -438.0461 -374.9609 30956.6053 -155.9268 -82.1141
ENERGY: 600000 2.9806 4.1805 1.7348 0.0000 -10978.3109 1500.7158 0.0000 0.0000 1786.5480 -7682.1512 300.6293 -9468.6992 -7602.3652 295.6741 66.4543 122.8403 30601.8284 -185.9128 -125.0113
ENERGY: 900000 2.2817 4.6264 1.7542 0.0000 -10853.9288 1506.1528 0.0000 0.0000 1824.8760 -7514.2378 307.0789 -9339.1137 -7591.2614 297.2239 234.6235 358.7495 30995.2084 -47.8761 26.4238
ENERGY: 1200000 2.3789 7.6468 2.1664 0.0000 -11006.6853 1578.0968 0.0000 0.0000 1838.3824 -7578.0140 309.3517 -9416.3964 -7597.2645 298.0774 623.2491 719.0192 30678.7593 50.2329 122.4306
ENERGY: 1500000 0.6358 13.5500 2.1145 0.0000 -10867.5728 1493.3528 0.0000 0.0000 1808.1407 -7549.7790 304.2628 -9357.9196 -7587.1562 299.1086 367.3220 422.3442 30700.6664 162.7160 237.1767
TCL: Running FEP window   7: Lambda1 0.6999999999999997 Lambda2 0.6499999999999997 [dLambda -0.050000000000000044]
TCL: Setting parameter firsttimestep to 0
TCL: Setting parameter alchLambda to 0.6999999999999997
Info: NONBONDED TABLE R-SQUARED SPACING: 0.0625
Info: NONBONDED TABLE SIZE: 705 POINTS
TCL: Setting parameter alchLambda2 to 0.6499999999999997
Info: NONBONDED TABLE R-SQUARED SPACING: 0.0625
Info: NONBONDED TABLE SIZE: 705 POINTS
TCL: Running for 1500000 steps
ETITLE: TS BOND ANGLE DIHED IMPRP ELECT VDW BOUNDARY MISC KINETIC TOTAL TEMP POTENTIAL TOTALAVG TEMPAVG PRESSURE GPRESSURE VOLUME PRESSAVG GPRESSAVG
ENERGY: 0 0.6358 13.5500 2.1145 0.0000 -10866.7365 1493.4257 0.0000 0.0000 1807.3292 -7549.6813 304.1262 -9357.0105 -7549.6813 304.1262 334.6520 416.1962 30700.6664 334.6520 416.1962
ENERGY: 300000 0.6620 5.3599 4.2891 0.0000 -10844.8051 1423.6415 0.0000 0.0000 1808.9961 -7601.8564 304.4067 -9410.8525 -7558.9339 302.8470 -435.0629 -367.3820 30964.0570 -40.9587 27.5690
ENERGY: 600000 1.9401 4.2693 2.6389 0.0000 -10821.1432 1484.9440 0.0000 0.0000 1770.1513 -7557.1995 297.8701 -9327.3508 -7562.1879 301.8973 426.1798 447.6463 30823.1418 186.6282 249.3622
ENERGY: 900000 0.8471 6.5899 1.9026 0.0000 -10810.9041 1453.4529 0.0000 0.0000 1742.4228 -7605.6889 293.2042 -9348.1117 -7558.5320 301.5476 -186.9912 -164.8794 30991.6532 3.6231 55.4721
ENERGY: 1200000 1.5644 6.4221 3.1651 0.0000 -10777.5795 1431.5018 0.0000 0.0000 1807.3441 -7527.5821 304.1287 -9334.9262 -7561.1986 300.5199 -77.0989 8.6037 30554.2900 -45.8781 8.4475
ENERGY: 1500000 2.2999 2.0929 2.0067 0.0000 -10896.3029 1532.4695 0.0000 0.0000 1717.3331 -7640.1008 288.9822 -9357.4339 -7559.2116 299.8471 948.2892 1006.5161 30482.9442 40.6054 93.6742
TCL: Running FEP window   8: Lambda1 0.6499999999999997 Lambda2 0.5999999999999996 [dLambda -0.050000000000000044]
TCL: Setting parameter firsttimestep to 0
TCL: Setting parameter alchLambda to 0.6499999999999997
Info: NONBONDED TABLE R-SQUARED SPACING: 0.0625
Info: NONBONDED TABLE SIZE: 705 POINTS
TCL: Setting parameter alchLambda2 to 0.5999999999999996
Info: NONBONDED TABLE R-SQUARED SPACING: 0.0625
Info: NONBONDED TABLE SIZE: 705 POINTS
TCL: Running for 1500000 steps
ETITLE: TS BOND ANGLE DIHED IMPRP ELECT VDW BOUNDARY MISC KINETIC TOTAL TEMP POTENTIAL TOTALAVG TEMPAVG PRESSURE GPRESSURE VOLUME PRESSAVG GPRESSAVG
ENERGY: 0 2.2999 2.0929 2.0067 0.0000 -10896.0963 1532.7039 0.0000 0.0000 1716.4333 -7640.5597 288.8308 -9356.9930 -7640.5597 288.8308 917.3679 1001.3067 30482.9442 917.3679 1001.3067
ENERGY: 300000 1.8813 8.1972 3.8660 0.0000 -10871.6306 1509.2889 0.0000 0.0000 1777.9437 -7570.4535 299.1814 -9348.3972 -7611.6020 295.1807 264.9807 328.4728 31151.5751 312.5204 380.4087
ENERGY: 600000 3.2951 5.9464 2.5991 0.0000 -10681.1853 1306.0601 0.0000 0.0000 1753.3630 -7609.9217 295.0451 -9363.2847 -7600.5853 294.8353 -1309.4843 -1252.8505 30811.2195 40.7207 95.2371
ENERGY: 900000 2.1238 7.4415 2.5998 0.0000 -10816.1232 1446.3148 0.0000 0.0000 1780.9042 -7576.7392 299.6796 -9357.6434 -7600.0339 296.0745 -129.7687 -90.9591 30892.2396 -0.3229 54.2110
ENERGY: 1200000 1.4239 7.8286 1.6506 0.0000 -10932.4567 1478.7217 0.0000 0.0000 1763.4450 -7679.3869 296.7417 -9442.8319 -7597.1100 296.2357 -365.6985 -342.2996 31178.5523 -166.6417 -115.5892
ENERGY: 1500000 2.6478 9.2398 3.4911 0.0000 -10833.3988 1435.7477 0.0000 0.0000 1754.1676 -7628.1048 295.1805 -9382.2724 -7598.3971 297.3122 -280.7996 -253.4245 30833.1458 -95.4091 -46.0319
TCL: Running FEP window   9: Lambda1 0.5999999999999996 Lambda2 0.5499999999999996 [dLambda -0.050000000000000044]
TCL: Setting parameter firsttimestep to 0
TCL: Setting parameter alchLambda to 0.5999999999999996
Info: NONBONDED TABLE R-SQUARED SPACING: 0.0625
Info: NONBONDED TABLE SIZE: 705 POINTS
TCL: Setting parameter alchLambda2 to 0.5499999999999996
Info: NONBONDED TABLE R-SQUARED SPACING: 0.0625
Info: NONBONDED TABLE SIZE: 705 POINTS
TCL: Running for 1500000 steps
ETITLE: TS BOND ANGLE DIHED IMPRP ELECT VDW BOUNDARY MISC KINETIC TOTAL TEMP POTENTIAL TOTALAVG TEMPAVG PRESSURE GPRESSURE VOLUME PRESSAVG GPRESSAVG
ENERGY: 0 2.6478 9.2398 3.4911 0.0000 -10832.3969 1435.0806 0.0000 0.0000 1753.2938 -7628.6439 295.0335 -9381.9377 -7628.6439 295.0335 -334.8363 -266.8145 30833.1458 -334.8363 -266.8145
ENERGY: 300000 1.5929 3.6608 2.2173 0.0000 -10815.1898 1398.1929 0.0000 0.0000 1794.1141 -7615.4119 301.9025 -9409.5260 -7598.1276 299.6316 -729.8039 -654.3604 31062.8498 -374.6986 -323.8753
ENERGY: 600000 1.0211 10.4436 1.7831 0.0000 -10948.1383 1515.2494 0.0000 0.0000 1834.4037 -7585.2374 308.6821 -9419.6411 -7608.9968 299.7484 614.8126 628.2071 30263.7819 -228.1533 -192.4469
ENERGY: 900000 2.7531 5.4826 2.4634 0.0000 -10832.1908 1535.4753 0.0000 0.0000 1818.5818 -7467.4345 306.0197 -9286.0163 -7580.6047 300.7586 702.2690 872.3001 30729.4122 -95.4653 -43.3017
ENERGY: 1200000 1.4300 7.0817 3.1966 0.0000 -10823.1840 1523.7031 0.0000 0.0000 1823.7689 -7464.0036 306.8926 -9287.7725 -7575.4974 300.8130 544.3750 644.4904 31093.0060 0.7503 57.0092
ENERGY: 1500000 2.3257 8.0571 5.9011 0.0000 -10789.3317 1453.3388 0.0000 0.0000 1777.4064 -7542.3026 299.0910 -9319.7090 -7578.4297 300.0648 38.5613 118.3021 30542.8117 -62.7607 -2.9618
TCL: Running FEP window  10: Lambda1 0.5499999999999996 Lambda2 0.4999999999999996 [dLambda -0.04999999999999999]
TCL: Setting parameter firsttimestep to 0
TCL: Setting parameter alchLambda to 0.5499999999999996
Info: NONBONDED TABLE R-SQUARED SPACING: 0.0625
Info: NONBONDED TABLE SIZE: 705 POINTS
TCL: Setting parameter alchLambda2 to 0.4999999999999996
Info: NONBONDED TABLE R-SQUARED SPACING: 0.0625
Info: NONBONDED TABLE SIZE: 705 POINTS
TCL: Running for 1500000 steps
ETITLE: TS BOND ANGLE DIHED IMPRP ELECT VDW BOUNDARY MISC KINETIC TOTAL TEMP POTENTIAL TOTALAVG TEMPAVG PRESSURE GPRESSURE VOLUME PRESSAVG GPRESSAVG
ENERGY: 0 2.3257 8.0571 5.9011 0.0000 -10789.1713 1453.2927 0.0000 0.0000 1776.4797 -7543.1148 298.9351 -9319.5946 -7543.1148 298.9351 38.2326 109.5135 30542.8117 38.2326 109.5135
ENERGY: 300000 2.0743 8.0309 4.1641 0.0000 -10807.4400 1523.9132 0.0000 0.0000 1797.3773 -7471.8803 302.4516 -9269.2576 -7560.3660 301.2917 917.1998 1031.6620 30380.9189 318.9496 401.9654
ENERGY: 600000 0.8735 8.5022 2.0046 0.0000 -10835.9365 1459.1531 0.0000 0.0000 1744.5172 -7620.8860 293.5566 -9365.4032 -7561.1254 301.5300 -70.6756 -20.7881 30770.8427 44.4438 116.7101
ENERGY: 900000 1.8448 7.7891 2.5795 0.0000 -10780.8577 1408.5561 0.0000 0.0000 1842.8030 -7517.2853 310.0955 -9360.0883 -7546.1451 302.1509 -366.1309 -260.5038 30788.2434 -126.6158 -55.9196
ENERGY: 1200000 1.4947 8.5340 2.7795 0.0000 -10776.2284 1436.3484 0.0000 0.0000 1804.8428 -7522.2289 303.7078 -9327.0717 -7551.5706 302.0147 -62.2058 -5.2493 30681.7106 -149.3482 -83.7512
ENERGY: 1500000 0.6094 5.0409 1.6262 0.0000 -10744.6385 1452.8066 0.0000 0.0000 1776.4673 -7508.0881 298.9330 -9284.5553 -7542.4525 302.0601 75.5326 214.4320 30758.9075 -143.0250 -73.8316
TCL: Running FEP window  11: Lambda1 0.4999999999999996 Lambda2 0.4499999999999996 [dLambda -0.04999999999999999]
TCL: Setting parameter firsttimestep to 0
TCL: Setting parameter alchLambda to 0.4999999999999996
Info: NONBONDED TABLE R-SQUARED SPACING: 0.0625
Info: NONBONDED TABLE SIZE: 705 POINTS
TCL: Setting parameter alchLambda2 to 0.4499999999999996
Info: NONBONDED TABLE R-SQUARED SPACING: 0.0625
Info: NONBONDED TABLE SIZE: 705 POINTS
TCL: Running for 1500000 steps
ETITLE: TS BOND ANGLE DIHED IMPRP ELECT VDW BOUNDARY MISC KINETIC TOTAL TEMP POTENTIAL TOTALAVG TEMPAVG PRESSURE GPRESSURE VOLUME PRESSAVG GPRESSAVG
ENERGY: 0 0.6094 5.0409 1.6262 0.0000 -10744.6105 1452.6040 0.0000 0.0000 1775.5740 -7509.1559 298.7826 -9284.7299 -7509.1559 298.7826 116.6612 203.1966 30758.9075 116.6612 203.1966
ENERGY: 300000 0.3187 6.2175 1.1886 0.0000 -10844.5625 1401.4220 0.0000 0.0000 1708.0989 -7727.3168 287.4283 -9435.4157 -7588.4839 296.1580 -538.9168 -469.7457 30505.8679 -456.1664 -375.1022
ENERGY: 600000 0.6288 5.1163 2.5972 0.0000 -10963.8860 1548.6913 0.0000 0.0000 1815.2694 -7591.5831 305.4623 -9406.8525 -7583.1449 298.3611 795.5480 885.5162 30179.7496 -91.2452 -5.8311
ENERGY: 900000 3.6183 10.9259 1.8412 0.0000 -10851.4537 1446.4902 0.0000 0.0000 1802.5255 -7586.0526 303.3179 -9388.5781 -7590.5888 297.9641 -13.4423 75.5138 30224.2823 -55.1103 29.4833
ENERGY: 1200000 1.0833 5.1972 2.1963 0.0000 -10811.4920 1447.9026 0.0000 0.0000 1836.8604 -7518.2522 309.0955 -9355.1126 -7585.2748 299.1905 212.9410 263.7076 30542.2091 5.7824 87.9811
ENERGY: 1500000 1.2499 12.4227 1.7741 0.0000 -10800.1096 1406.8189 0.0000 0.0000 1725.8743 -7651.9698 290.4195 -9377.8441 -7586.9079 297.9975 -351.0386 -339.9182 30518.6161 -62.2852 14.4277
TCL: Running FEP window  12: Lambda1 0.4499999999999996 Lambda2 0.39999999999999963 [dLambda -0.04999999999999999]
TCL: Setting parameter firsttimestep to 0
TCL: Setting parameter alchLambda to 0.4499999999999996
Info: NONBONDED TABLE R-SQUARED SPACING: 0.0625
Info: NONBONDED TABLE SIZE: 705 POINTS
TCL: Setting parameter alchLambda2 to 0.39999999999999963
Info: NONBONDED TABLE R-SQUARED SPACING: 0.0625
Info: NONBONDED TABLE SIZE: 705 POINTS
TCL: Running for 1500000 steps
ETITLE: TS BOND ANGLE DIHED IMPRP ELECT VDW BOUNDARY MISC KINETIC TOTAL TEMP POTENTIAL TOTALAVG TEMPAVG PRESSURE GPRESSURE VOLUME PRESSAVG GPRESSAVG
ENERGY: 0 1.2499 12.4227 1.7741 0.0000 -10800.1096 1407.0153 0.0000 0.0000 1724.9770 -7652.6706 290.2685 -9377.6476 -7652.6706 290.2685 -428.5346 -343.2820 30518.6161 -428.5346 -343.2820
ENERGY: 300000 1.2131 5.3241 2.3240 0.0000 -10819.1907 1483.1983 0.0000 0.0000 1776.3834 -7550.7479 298.9188 -9327.1312 -7598.2693 293.9969 64.8846 192.2525 30839.9706 -197.8241 -109.4241
ENERGY: 600000 1.4755 6.4811 2.6369 0.0000 -10785.2506 1418.5798 0.0000 0.0000 1784.8013 -7571.2760 300.3354 -9356.0773 -7585.0338 296.3563 -229.1535 -187.0517 30485.5965 -107.6482 -21.6573
ENERGY: 900000 2.6743 3.5317 1.9984 0.0000 -10839.1307 1431.9935 0.0000 0.0000 1848.6276 -7550.3053 311.0756 -9398.9328 -7570.5163 299.1993 -289.9173 -271.9359 30691.3024 -145.1553 -76.0475
ENERGY: 1200000 0.9083 6.4528 1.7685 0.0000 -10851.8153 1525.6594 0.0000 0.0000 1791.2058 -7525.8206 301.4131 -9317.0263 -7571.4227 298.9498 554.1440 622.3317 31192.7494 -58.1903 3.7781
ENERGY: 1500000 1.3760 5.9645 1.2477 0.0000 -10880.2607 1459.7900 0.0000 0.0000 1795.6847 -7616.1977 302.1667 -9411.8825 -7568.7051 299.5680 -78.3011 -21.7136 30454.3551 -50.6471 7.1876
TCL: Running FEP window  13: Lambda1 0.39999999999999963 Lambda2 0.34999999999999964 [dLambda -0.04999999999999999]
TCL: Setting parameter firsttimestep to 0
TCL: Setting parameter alchLambda to 0.39999999999999963
Info: NONBONDED TABLE R-SQUARED SPACING: 0.0625
Info: NONBONDED TABLE SIZE: 705 POINTS
TCL: Setting parameter alchLambda2 to 0.34999999999999964
Info: NONBONDED TABLE R-SQUARED SPACING: 0.0625
Info: NONBONDED TABLE SIZE: 705 POINTS
TCL: Running for 1500000 steps
ETITLE: TS BOND ANGLE DIHED IMPRP ELECT VDW BOUNDARY MISC KINETIC TOTAL TEMP POTENTIAL TOTALAVG TEMPAVG PRESSURE GPRESSURE VOLUME PRESSAVG GPRESSAVG
ENERGY: 0 1.3760 5.9645 1.2477 0.0000 -10880.2615 1460.2456 0.0000 0.0000 1794.7718 -7616.6559 302.0131 -9411.4277 -7616.6559 302.0131 -106.3721 -26.0200 30454.3551 -106.3721 -26.0200
ENERGY: 300000 2.2034 4.9818 3.4993 0.0000 -10771.4385 1439.0347 0.0000 0.0000 1759.3981 -7562.3211 296.0607 -9321.7193 -7601.6445 295.4140 -170.9727 -131.6161 30704.4767 -143.3904 -68.0404
ENERGY: 600000 2.1930 8.0565 2.5920 0.0000 -10957.8568 1520.4308 0.0000 0.0000 1726.9906 -7697.5939 290.6073 -9424.5845 -7608.8173 297.2556 177.6491 270.8835 30807.2867 16.3084 87.4300
ENERGY: 900000 0.4956 7.3375 3.3335 0.0000 -10881.2508 1478.2944 0.0000 0.0000 1790.2911 -7601.4986 301.2591 -9391.7897 -7601.3948 299.9974 217.3592 190.6792 30677.0468 -51.7342 9.6884
ENERGY: 1200000 2.4419 7.7605 2.4023 0.0000 -10810.8304 1503.2317 0.0000 0.0000 1777.2828 -7517.7113 299.0702 -9294.9940 -7589.7961 300.9788 412.8189 515.3681 30961.9218 -84.6718 -11.5473
ENERGY: 1500000 1.5876 5.6906 1.9184 0.0000 -10760.3620 1405.6207 0.0000 0.0000 1736.5566 -7608.9881 292.2170 -9345.5447 -7590.9938 300.0566 -351.3813 -301.3003 30611.7788 -103.9164 -29.2470
TCL: Running FEP window  14: Lambda1 0.34999999999999964 Lambda2 0.29999999999999966 [dLambda -0.04999999999999999]
TCL: Setting parameter firsttimestep to 0
TCL: Setting parameter alchLambda to 0.34999999999999964
Info: NONBONDED TABLE R-SQUARED SPACING: 0.0625
Info: NONBONDED TABLE SIZE: 705 POINTS
TCL: Setting parameter alchLambda2 to 0.29999999999999966
Info: NONBONDED TABLE R-SQUARED SPACING: 0.0625
Info: NONBONDED TABLE SIZE: 705 POINTS
TCL: Running for 1500000 steps
ETITLE: TS BOND ANGLE DIHED IMPRP ELECT VDW BOUNDARY MISC KINETIC TOTAL TEMP POTENTIAL TOTALAVG TEMPAVG PRESSURE GPRESSURE VOLUME PRESSAVG GPRESSAVG
ENERGY: 0 1.5876 5.6906 1.9184 0.0000 -10760.3625 1406.2656 0.0000 0.0000 1735.6463 -7609.2539 292.0639 -9344.9002 -7609.2539 292.0639 -383.0754 -301.3473 30611.7788 -383.0754 -301.3473
ENERGY: 300000 2.6036 7.5012 2.4290 0.0000 -10745.5426 1466.0317 0.0000 0.0000 1786.8060 -7480.1710 300.6727 -9266.9770 -7561.3470 299.7981 108.8337 98.3975 31248.9179 121.2993 214.6138
ENERGY: 600000 1.4459 5.6973 2.9645 0.0000 -10882.8726 1465.3928 0.0000 0.0000 1819.3641 -7588.0081 306.1514 -9407.3721 -7585.7398 298.3902 -41.9817 22.2475 30559.0613 37.2404 112.5978
ENERGY: 900000 0.1810 5.5085 2.2594 0.0000 -10871.4139 1459.1286 0.0000 0.0000 1802.0749 -7602.2615 303.2420 -9404.3364 -7593.8126 298.7067 75.2215 82.5354 30447.9589 18.8555 84.0429
ENERGY: 1200000 0.8814 6.4824 1.2676 0.0000 -11020.6053 1596.7827 0.0000 0.0000 1787.9374 -7627.2538 300.8631 -9415.1912 -7602.4312 298.4399 926.6722 921.6101 30596.1996 57.8726 114.2361
ENERGY: 1500000 0.4141 7.5868 2.3213 0.0000 -10801.7440 1449.2795 0.0000 0.0000 1735.4948 -7606.6475 292.0384 -9342.1423 -7601.7214 297.6748 -284.8172 -239.0269 31345.0282 12.5887 64.8606
TCL: Running FEP window  15: Lambda1 0.29999999999999966 Lambda2 0.24999999999999967 [dLambda -0.04999999999999999]
TCL: Setting parameter firsttimestep to 0
TCL: Setting parameter alchLambda to 0.29999999999999966
Info: NONBONDED TABLE R-SQUARED SPACING: 0.0625
Info: NONBONDED TABLE SIZE: 705 POINTS
TCL: Setting parameter alchLambda2 to 0.24999999999999967
Info: NONBONDED TABLE R-SQUARED SPACING: 0.0625
Info: NONBONDED TABLE SIZE: 705 POINTS
TCL: Running for 1500000 steps
ETITLE: TS BOND ANGLE DIHED IMPRP ELECT VDW BOUNDARY MISC KINETIC TOTAL TEMP POTENTIAL TOTALAVG TEMPAVG PRESSURE GPRESSURE VOLUME PRESSAVG GPRESSAVG
ENERGY: 0 0.4141 7.5868 2.3213 0.0000 -10801.7444 1449.4420 0.0000 0.0000 1734.6210 -7607.3592 291.8913 -9341.9802 -7607.3592 291.8913 -315.4478 -243.4589 31345.0282 -315.4478 -243.4589
ENERGY: 300000 1.4653 4.5333 3.2045 0.0000 -10814.3327 1428.0696 0.0000 0.0000 1782.5140 -7594.5459 299.9505 -9377.0599 -7600.3840 298.9281 -296.1232 -173.2267 30657.1245 -23.5825 47.5714
ENERGY: 600000 1.5479 8.0480 2.0096 0.0000 -10849.5111 1524.3853 0.0000 0.0000 1833.7873 -7479.7330 308.5784 -9313.5203 -7563.9081 301.0960 242.9448 361.7500 31166.9013 -59.6172 14.0888
ENERGY: 900000 1.8284 4.2113 1.2796 0.0000 -10851.7255 1529.1345 0.0000 0.0000 1762.7035 -7552.5682 296.6169 -9315.2717 -7561.5779 301.2626 612.8281 718.3539 30731.2388 -17.9526 60.6307
ENERGY: 1200000 1.9421 9.6732 3.7033 0.0000 -10726.0187 1381.8554 0.0000 0.0000 1760.0326 -7568.8122 296.1674 -9328.8448 -7575.7073 299.9755 -434.0047 -437.8046 30797.7653 10.9146 77.7506
ENERGY: 1500000 1.0643 6.6562 2.8230 0.0000 -10923.6599 1523.3890 0.0000 0.0000 1790.9375 -7598.7900 301.3679 -9389.7274 -7573.0484 300.2403 311.8133 343.6038 30739.8614 -16.2199 43.1039
TCL: Running FEP window  16: Lambda1 0.24999999999999967 Lambda2 0.19999999999999968 [dLambda -0.04999999999999999]
TCL: Setting parameter firsttimestep to 0
TCL: Setting parameter alchLambda to 0.24999999999999967
Info: NONBONDED TABLE R-SQUARED SPACING: 0.0625
Info: NONBONDED TABLE SIZE: 705 POINTS
TCL: Setting parameter alchLambda2 to 0.19999999999999968
Info: NONBONDED TABLE R-SQUARED SPACING: 0.0625
Info: NONBONDED TABLE SIZE: 705 POINTS
TCL: Running for 1500000 steps
ETITLE: TS BOND ANGLE DIHED IMPRP ELECT VDW BOUNDARY MISC KINETIC TOTAL TEMP POTENTIAL TOTALAVG TEMPAVG PRESSURE GPRESSURE VOLUME PRESSAVG GPRESSAVG
ENERGY: 0 1.0643 6.6562 2.8230 0.0000 -10923.6582 1523.6986 0.0000 0.0000 1790.0029 -7599.4133 301.2106 -9389.4162 -7599.4133 301.2106 254.5165 339.7260 30739.8614 254.5165 339.7260
ENERGY: 300000 0.8559 7.0815 3.5482 0.0000 -10733.8264 1435.6106 0.0000 0.0000 1755.7184 -7531.0118 295.4415 -9286.7302 -7567.9482 301.1230 -8.9348 -36.2329 31007.6193 -126.6407 -93.5949
ENERGY: 600000 0.3808 5.5430 2.8344 0.0000 -10848.2244 1452.4533 0.0000 0.0000 1749.4901 -7637.5228 294.3934 -9387.0129 -7575.6417 301.5292 78.8740 128.1715 30258.2539 -73.6681 -22.7020
ENERGY: 900000 1.6667 10.6258 1.8036 0.0000 -10778.7239 1402.8167 0.0000 0.0000 1779.8083 -7582.0028 299.4952 -9361.8111 -7581.6181 299.4105 -340.4789 -323.3873 30392.8729 -51.1445 -10.5871
ENERGY: 1200000 3.7235 5.6748 4.5371 0.0000 -10918.1146 1574.8425 0.0000 0.0000 1819.2934 -7510.0433 306.1395 -9329.3366 -7568.2851 301.2464 1154.9816 1226.9038 30426.2126 45.3058 94.2895
ENERGY: 1500000 1.8298 9.7974 2.4975 0.0000 -10761.3281 1393.7015 0.0000 0.0000 1820.0369 -7533.4649 306.2646 -9353.5018 -7572.9350 301.3452 -597.4482 -493.4987 30810.3760 -52.4436 7.6214
TCL: Running FEP window  17: Lambda1 0.19999999999999968 Lambda2 0.1499999999999997 [dLambda -0.04999999999999999]
TCL: Setting parameter firsttimestep to 0
TCL: Setting parameter alchLambda to 0.19999999999999968
Info: NONBONDED TABLE R-SQUARED SPACING: 0.0625
Info: NONBONDED TABLE SIZE: 705 POINTS
TCL: Setting parameter alchLambda2 to 0.1499999999999997
Info: NONBONDED TABLE R-SQUARED SPACING: 0.0625
Info: NONBONDED TABLE SIZE: 705 POINTS
TCL: Running for 1500000 steps
ETITLE: TS BOND ANGLE DIHED IMPRP ELECT VDW BOUNDARY MISC KINETIC TOTAL TEMP POTENTIAL TOTALAVG TEMPAVG PRESSURE GPRESSURE VOLUME PRESSAVG GPRESSAVG
ENERGY: 0 1.8298 9.7974 2.4975 0.0000 -10761.3278 1393.8496 0.0000 0.0000 1819.1127 -7534.2408 306.1091 -9353.3535 -7534.2408 306.1091 -589.9889 -494.5361 30810.3760 -589.9889 -494.5361
ENERGY: 300000 0.9673 11.6597 2.4834 0.0000 -10846.8714 1456.1706 0.0000 0.0000 1813.1681 -7562.4224 305.1087 -9375.5905 -7564.2250 301.2394 -241.1180 -115.8681 30735.0267 -384.8866 -316.6715
ENERGY: 600000 1.2132 6.6221 3.5092 0.0000 -10911.5275 1518.3281 0.0000 0.0000 1794.3325 -7587.5224 301.9392 -9381.8548 -7589.7238 299.6079 472.8092 524.4580 30488.3475 -194.5894 -132.6889
ENERGY: 900000 1.5762 9.4428 1.8018 0.0000 -10785.3943 1375.2635 0.0000 0.0000 1739.7038 -7657.6062 292.7466 -9397.3100 -7588.0165 300.0866 -787.3363 -731.5206 30861.7589 -252.4931 -193.0572
ENERGY: 1200000 0.9799 7.5610 1.8414 0.0000 -10817.6482 1416.0273 0.0000 0.0000 1791.3015 -7599.9370 301.4292 -9391.2385 -7582.0633 300.2582 -281.8155 -216.7771 30347.2435 -282.0849 -222.1999
ENERGY: 1500000 3.4271 7.9075 6.6776 0.0000 -10808.7724 1407.0184 0.0000 0.0000 1767.3830 -7616.3588 297.4043 -9383.7418 -7585.7847 300.3747 -199.6034 -117.5806 30214.6712 -267.2551 -205.9309
TCL: Running FEP window  18: Lambda1 0.1499999999999997 Lambda2 0.09999999999999969 [dLambda -0.05 ]
TCL: Setting parameter firsttimestep to 0
TCL: Setting parameter alchLambda to 0.1499999999999997
Info: NONBONDED TABLE R-SQUARED SPACING: 0.0625
Info: NONBONDED TABLE SIZE: 705 POINTS
TCL: Setting parameter alchLambda2 to 0.09999999999999969
Info: NONBONDED TABLE R-SQUARED SPACING: 0.0625
Info: NONBONDED TABLE SIZE: 705 POINTS
TCL: Running for 1500000 steps
ETITLE: TS BOND ANGLE DIHED IMPRP ELECT VDW BOUNDARY MISC KINETIC TOTAL TEMP POTENTIAL TOTALAVG TEMPAVG PRESSURE GPRESSURE VOLUME PRESSAVG GPRESSAVG
ENERGY: 0 3.4271 7.9075 6.6776 0.0000 -10808.7704 1405.7146 0.0000 0.0000 1766.5338 -7618.5097 297.2614 -9385.0435 -7618.5097 297.2614 -213.0917 -127.8211 30214.6712 -213.0917 -127.8211
ENERGY: 300000 1.1908 5.3508 3.7302 0.0000 -10924.8635 1566.7591 0.0000 0.0000 1771.3233 -7576.5094 298.0674 -9347.8327 -7576.9256 299.6707 934.8681 990.4822 30277.2542 126.8036 193.3864
ENERGY: 600000 1.4194 4.4700 2.7305 0.0000 -10811.1754 1440.8774 0.0000 0.0000 1792.6826 -7568.9956 301.6616 -9361.6782 -7583.0719 299.5145 -45.3409 -2.1519 30579.8683 -29.3239 38.1871
ENERGY: 900000 2.2020 6.2910 2.6901 0.0000 -10955.4379 1484.1908 0.0000 0.0000 1785.3910 -7674.6731 300.4346 -9460.0641 -7586.2506 299.8885 -65.6130 20.0911 30526.5316 -82.2692 -19.0797
ENERGY: 1200000 2.4808 2.9128 3.1209 0.0000 -10764.6630 1451.4652 0.0000 0.0000 1760.9860 -7543.6972 296.3279 -9304.6832 -7586.8206 299.4819 -268.6812 -220.3400 31009.2994 -14.3825 51.8534
ENERGY: 1500000 2.4323 6.1797 2.4766 0.0000 -10922.2803 1518.4957 0.0000 0.0000 1799.4543 -7593.2417 302.8011 -9392.6960 -7584.4566 300.0964 483.9368 517.5672 30634.8622 70.2549 130.7021
TCL: Running FEP window  19: Lambda1 0.09999999999999969 Lambda2 0.049999999999999684 [dLambda -0.05 ]
TCL: Setting parameter firsttimestep to 0
TCL: Setting parameter alchLambda to 0.09999999999999969
Info: NONBONDED TABLE R-SQUARED SPACING: 0.0625
Info: NONBONDED TABLE SIZE: 705 POINTS
TCL: Setting parameter alchLambda2 to 0.049999999999999684
Info: NONBONDED TABLE R-SQUARED SPACING: 0.0625
Info: NONBONDED TABLE SIZE: 705 POINTS
TCL: Running for 1500000 steps
ETITLE: TS BOND ANGLE DIHED IMPRP ELECT VDW BOUNDARY MISC KINETIC TOTAL TEMP POTENTIAL TOTALAVG TEMPAVG PRESSURE GPRESSURE VOLUME PRESSAVG GPRESSAVG
ENERGY: 0 2.4323 6.1797 2.4766 0.0000 -10922.2812 1518.6474 0.0000 0.0000 1798.5602 -7593.9849 302.6506 -9392.5451 -7593.9849 302.6506 429.6848 515.9817 30634.8622 429.6848 515.9817
ENERGY: 300000 3.9492 5.5499 2.0294 0.0000 -10869.3510 1483.3011 0.0000 0.0000 1846.8385 -7527.6830 310.7746 -9374.5215 -7584.8101 304.6486 157.8617 240.1213 30315.2857 -140.7268 -62.1684
ENERGY: 600000 0.8355 3.0059 2.9949 0.0000 -10803.6198 1439.5432 0.0000 0.0000 1822.0472 -7535.1932 306.6029 -9357.2403 -7586.3289 302.2309 -65.1215 9.6547 30459.0038 -152.2581 -76.9116
ENERGY: 900000 2.9583 6.5553 1.9507 0.0000 -10866.1959 1508.7920 0.0000 0.0000 1812.2108 -7533.7288 304.9477 -9345.9397 -7565.8846 303.1886 248.6086 277.5365 30882.0174 -273.0092 -206.3880
ENERGY: 1200000 1.2093 9.0535 1.1604 0.0000 -10990.9803 1583.5477 0.0000 0.0000 1755.8594 -7640.1500 295.4652 -9396.0094 -7578.6546 301.8558 939.8616 1054.1386 30288.0619 -133.6163 -58.9953
ENERGY: 1500000 0.6066 4.9663 2.6973 0.0000 -10887.8048 1469.4539 0.0000 0.0000 1768.4251 -7641.6556 297.5797 -9410.0807 -7584.7531 301.3282 -6.1317 42.5510 30303.2041 -137.8703 -68.6111
TCL: Running FEP window  20: Lambda1 0.049999999999999684 Lambda2 0.0    [dLambda -0.049999999999999684]
TCL: Setting parameter firsttimestep to 0
TCL: Setting parameter alchLambda to 0.049999999999999684
Info: NONBONDED TABLE R-SQUARED SPACING: 0.0625
Info: NONBONDED TABLE SIZE: 705 POINTS
TCL: Setting parameter alchLambda2 to 0.0
Info: NONBONDED TABLE R-SQUARED SPACING: 0.0625
Info: NONBONDED TABLE SIZE: 705 POINTS
TCL: Running for 1500000 steps
ETITLE: TS BOND ANGLE DIHED IMPRP ELECT VDW BOUNDARY MISC KINETIC TOTAL TEMP POTENTIAL TOTALAVG TEMPAVG PRESSURE GPRESSURE VOLUME PRESSAVG GPRESSAVG
ENERGY: 0 0.6066 4.9663 2.6973 0.0000 -10887.8059 1469.1227 0.0000 0.0000 1767.5322 -7642.8809 297.4294 -9410.4130 -7642.8809 297.4294 -34.9820 39.1979 30303.2041 -34.9820 39.1979
ENERGY: 300000 2.4562 8.9655 1.2840 0.0000 -10785.4213 1451.1689 0.0000 0.0000 1774.7402 -7546.8065 298.6423 -9321.5467 -7595.8186 300.2333 -262.8893 -189.6450 31106.4716 -14.9508 30.2438
ENERGY: 600000 1.8929 9.5343 2.9802 0.0000 -10718.2934 1382.5307 0.0000 0.0000 1801.0037 -7520.3514 303.0618 -9321.3552 -7586.2649 299.2382 -716.9336 -677.6756 30903.3609 -180.3965 -133.8880
ENERGY: 900000 2.3688 5.3347 2.0055 0.0000 -10927.1010 1513.2066 0.0000 0.0000 1781.8524 -7622.3330 299.8391 -9404.1854 -7578.3011 299.5017 386.7881 479.8551 30201.9653 -26.9858 15.7495
ENERGY: 1200000 1.7438 7.9266 2.7837 0.0000 -10815.2271 1445.7102 0.0000 0.0000 1807.5108 -7549.5521 304.1568 -9357.0629 -7579.3477 299.8363 -178.1443 -125.7408 30697.8397 -12.3420 25.6980
ENERGY: 1500000 3.1623 5.9432 2.4201 0.0000 -10678.3214 1373.1509 0.0000 0.0000 1773.3242 -7520.3207 298.4041 -9293.6449 -7567.9782 300.8590 -347.6464 -363.2405 30275.6124 -67.1778 -32.5311
TCL: Exiting due to exit command.
