Info: SIMULATION PARAMETERS:
Info: TIMESTEP               2
Info: NUMBER OF STEPS        0
Info: STEPS PER CYCLE        10
Info: PERIODIC CELL BASIS 1  30.6655 0 0
Info: PERIODIC CELL BASIS 2  0 30.0694 0
Info: PERIODIC CELL BASIS 3  0 0 33.5737
Info: PERIODIC CELL CENTER   0 0 0
Info: WRAPPING WATERS AROUND PERIODIC BOUNDARIES ON OUTPUT.
Info: WRAPPING ALL CLUSTERS AROUND PERIODIC BOUNDARIES ON OUTPUT.
Info: FIRST LDB TIMESTEP     50
Info: LAST LDB TIMESTEP     -1
Info: HOM BACKGROUND SCALING 1
Info: PME BACKGROUND SCALING 1
Info: MIN ATOMS PER PATCH    40
Info: EMPTY PATCH LOAD       40 ATOMS
Info: VELOCITY FILE          mobley_5445548_equil.vel
Info: CENTER OF MASS MOVING INITIALLY? NO
Info: DIELECTRIC             1
Info: EXCLUDE                SCALED ONE-FOUR
Info: 1-4 ELECTROSTATICS SCALED BY 0.833333
Info: MODIFIED 1-4 VDW PARAMETERS WILL BE USED
Info: DCD FILENAME           mobley_5445548_prod.dcd
Info: DCD FREQUENCY          100000
Info: DCD FIRST STEP         100000
Info: DCD FILE WILL CONTAIN UNIT CELL DATA
Info: XST FILENAME           mobley_5445548_prod.xst
Info: XST FREQUENCY          100000
Info: NO VELOCITY DCD OUTPUT
Info: NO FORCE DCD OUTPUT
Info: OUTPUT FILENAME        mobley_5445548_prod
Info: BINARY OUTPUT FILES WILL BE USED
Info: RESTART FILENAME       mobley_5445548_prod.restart
Info: RESTART FREQUENCY      100000
Info: BINARY RESTART FILES WILL BE USED
Info: CUTOFF                 9
Info: PAIRLIST DISTANCE      11
Info: PAIRLIST SHRINK RATE   0.01
Info: PAIRLIST GROW RATE     0.01
Info: PAIRLIST TRIGGER       0.3
Info: PAIRLISTS PER CYCLE    2
Info: PAIRLISTS ENABLED
Info: MARGIN                 2
Info: HYDROGEN GROUP CUTOFF  2.5
Info: PATCH DIMENSION        15.5
Info: ENERGY OUTPUT STEPS    100000
Info: ENERGY EVALUATION STEPS    100000
Info: OUTPUT ENERGY PRECISION 4
Info: CROSSTERM ENERGY INCLUDED IN DIHEDRAL
Info: TIMING OUTPUT STEPS    1000000
Info: PRESSURE OUTPUT STEPS  100000
Info: ALCHEMICAL FEP ON
Info: FEP CURRENT LAMBDA VALUE     0
Info: FEP COMPARISON LAMBDA VALUE  0.05
Info: FEP INTRA-ALCHEMICAL NON-BONDED INTERACTIONS WILL BE RETAINED
Info: FEP INTRA-ALCHEMICAL BONDED INTERACTIONS WILL BE RETAINED
Info: FEP VDW SHIFTING COEFFICIENT 5
Info: FEP ELEC. ACTIVE FOR ANNIHILATED PARTICLES BETWEEN LAMBDA = 0 AND LAMBDA = 0.5
Info: FEP ELEC. ACTIVE FOR EXNIHILATED PARTICLES BETWEEN LAMBDA = 0.5 AND LAMBDA = 1
Info: FEP VDW ACTIVE FOR ANNIHILATED PARTICLES BETWEEN LAMBDA = 0 AND LAMBDA = 1
Info: FEP VDW ACTIVE FOR EXNIHILATED PARTICLES BETWEEN LAMBDA = 0 AND LAMBDA = 1
Info: FEP BOND ACTIVE FOR ANNIHILATED PARTICLES BETWEEN LAMBDA = 1 AND LAMBDA = 1
Info: FEP BOND ACTIVE FOR EXNIHILATED PARTICLES BETWEEN LAMBDA = 0 AND LAMBDA = 0
Info: LANGEVIN DYNAMICS ACTIVE
Info: LANGEVIN TEMPERATURE   300
Info: LANGEVIN USING BBK INTEGRATOR
Info: LANGEVIN DAMPING COEFFICIENT IS 1 INVERSE PS
Info: LANGEVIN DYNAMICS APPLIED TO HYDROGENS
Info: LANGEVIN PISTON PRESSURE CONTROL ACTIVE
Info:        TARGET PRESSURE IS 1.01325 BAR
Info:     OSCILLATION PERIOD IS 50 FS
Info:             DECAY TIME IS 25 FS
Info:     PISTON TEMPERATURE IS 300 K
Info:       PRESSURE CONTROL IS GROUP-BASED
Info:    INITIAL STRAIN RATE IS 0.000166587 0.000166587 0.000166587
Info:       CELL FLUCTUATION IS ISOTROPIC
Info: PARTICLE MESH EWALD (PME) ACTIVE
Info: PME TOLERANCE               1e-06
Info: PME EWALD COEFFICIENT       0.348832
Info: PME INTERPOLATION ORDER     4
Info: PME GRID DIMENSIONS         32 32 36
Info: PME MAXIMUM GRID SPACING    1
Info: PME CALCULATION WILL BE PERFORMED ON GPU
Info: FULL ELECTROSTATIC EVALUATION FREQUENCY      2
Info: USING VERLET I (r-RESPA) MTS SCHEME.
Info: C1 SPLITTING OF LONG RANGE ELECTROSTATICS
Info: PLACING ATOMS IN PATCHES BY HYDROGEN GROUPS
Info: RIGID BONDS TO HYDROGEN : ALL
Info:         ERROR TOLERANCE : 1e-08
Info:          MAX ITERATIONS : 100
Info: RIGID WATER USING SETTLE ALGORITHM
Info: RANDOM NUMBER SEED     1743787197
Info: USE HYDROGEN BONDS?    NO
Info: Using AMBER format force field!
Info: AMBER PARM FILE        mobley_5445548.prmtop
Info: COORDINATE PDB         mobley_5445548.pdb
Info: Exclusions will be read from PARM file!
Info: SCNB (VDW SCALING)     2
Info: USING ARITHMETIC MEAN TO COMBINE L-J SIGMA PARAMETERS
Info: BINARY COORDINATES     mobley_5445548_equil.coor
Info: SUMMARY OF PARAMETERS:
Info: 7 BONDS
Info: 8 ANGLES
Info:   8 HARMONIC
Info:   0 COSINE-BASED
Info: 6 DIHEDRAL
Info: 0 IMPROPER
Info: 0 CROSSTERM
Info: 0 VDW
Info: 21 VDW_PAIRS
Info: 0 NBTHOLE_PAIRS
Info: To read alchdata from file: mobley_5445548.pdb
Info: To read alchflag data from column: 5
Info: STRUCTURE SUMMARY:
Info: 2967 ATOMS
Info: 2967 BONDS
Info: 36 ANGLES
Info: 54 DIHEDRALS
Info: 0 IMPROPERS
Info: 0 CROSSTERMS
Info: 3048 EXCLUSIONS
Info: 2958 RIGID BONDS
Info: ALCH: 0 ATOMS TO DISAPPEAR IN FINAL STATE
Info: ALCH: 21 ATOMS TO APPEAR IN FINAL STATE
Info: 5943 DEGREES OF FREEDOM
Info: 991 HYDROGEN GROUPS
Info: 4 ATOMS IN LARGEST HYDROGEN GROUP
Info: 991 MIGRATION GROUPS
Info: 4 ATOMS IN LARGEST MIGRATION GROUP
Info: TOTAL MASS = 17811.9 amu
Info: TOTAL CHARGE = -0.000100028 e
Info: MASS DENSITY = 0.955423 g/cm^3
Info: ATOM DENSITY = 0.0958393 atoms/A^3
Info: ADDED 0 IMPLICIT EXCLUSIONS
Info: NONBONDED TABLE R-SQUARED SPACING: 0.0625
Info: NONBONDED TABLE SIZE: 705 POINTS
Info: REMOVING COM VELOCITY -0.0240099 0.157796 0.0172236
Info: Use 3D box decompostion in PME FFT.
Info: Updated CUDA force table with 4096 elements.
Info: Updated CUDA LJ table with 6 x 6 elements.
Info: Found 20 unique exclusion lists needing 60 bytes
TCL: Running for 1500000 steps
ETITLE: TS BOND ANGLE DIHED IMPRP ELECT VDW BOUNDARY MISC KINETIC TOTAL TEMP POTENTIAL TOTALAVG TEMPAVG PRESSURE GPRESSURE VOLUME PRESSAVG GPRESSAVG
ENERGY: 0 1.7758 6.3664 4.0963 0.0000 -10762.5158 1495.7952 0.0000 0.0000 1783.2099 -7471.2722 301.9862 -9254.4821 -7471.2722 301.9862 96.2478 179.1878 30958.0721 96.2478 179.1878
ENERGY: 300000 1.3682 6.5354 1.5925 0.0000 -10654.2829 1392.6346 0.0000 0.0000 1850.9321 -7401.2202 313.4550 -9252.1523 -7436.5023 306.3280 -468.5283 -354.1446 30753.0287 -50.1378 18.8431
ENERGY: 600000 2.3766 8.2267 2.8214 0.0000 -10776.6731 1504.0324 0.0000 0.0000 1783.3265 -7475.8895 302.0060 -9259.2160 -7466.5942 303.4377 605.8967 630.4432 30010.8113 -164.5292 -113.4872
ENERGY: 900000 1.8076 6.3169 2.4877 0.0000 -10853.2170 1475.6964 0.0000 0.0000 1838.8461 -7528.0623 311.4082 -9366.9084 -7469.4120 303.9288 -50.3958 -21.9756 30342.8885 31.3187 80.0702
ENERGY: 1200000 1.4289 5.1508 2.1140 0.0000 -10795.3147 1460.3125 0.0000 0.0000 1792.4705 -7533.8380 303.5545 -9326.3085 -7471.2112 303.5741 162.0060 233.4346 30151.4788 100.3029 149.0222
ENERGY: 1500000 3.3012 6.7534 7.5111 0.0000 -10831.1645 1460.9407 0.0000 0.0000 1795.4207 -7557.2374 304.0541 -9352.6581 -7480.0155 303.0876 146.9081 175.8847 29756.7027 65.7656 111.7171
TCL: Running FEP window   2: Lambda1 0.05   Lambda2 0.1    [dLambda 0.05  ]
TCL: Setting parameter firsttimestep to 0
TCL: Setting parameter alchLambda to 0.05
Info: NONBONDED TABLE R-SQUARED SPACING: 0.0625
Info: NONBONDED TABLE SIZE: 705 POINTS
TCL: Setting parameter alchLambda2 to 0.1
Info: NONBONDED TABLE R-SQUARED SPACING: 0.0625
Info: NONBONDED TABLE SIZE: 705 POINTS
TCL: Running for 1500000 steps
ETITLE: TS BOND ANGLE DIHED IMPRP ELECT VDW BOUNDARY MISC KINETIC TOTAL TEMP POTENTIAL TOTALAVG TEMPAVG PRESSURE GPRESSURE VOLUME PRESSAVG GPRESSAVG
ENERGY: 0 3.3012 6.7534 7.5111 0.0000 -10831.1662 1462.2278 0.0000 0.0000 1794.5712 -7556.8015 303.9102 -9351.3727 -7556.8015 303.9102 81.8779 180.7304 29756.7027 81.8779 180.7304
ENERGY: 300000 1.8458 6.7362 5.0038 0.0000 -10741.9431 1413.0364 0.0000 0.0000 1763.3087 -7552.0121 298.6160 -9315.3209 -7525.1375 300.2441 -326.6625 -330.0082 30048.0079 147.5827 193.9725
ENERGY: 600000 2.1823 7.0228 2.9420 0.0000 -10718.6156 1463.8740 0.0000 0.0000 1688.8694 -7553.7251 286.0097 -9242.5945 -7514.9267 299.2288 -282.2168 -188.1098 31002.3121 -33.0008 23.9778
ENERGY: 900000 3.2971 7.4311 3.1718 0.0000 -10781.1742 1457.6763 0.0000 0.0000 1666.7981 -7642.7998 282.2719 -9309.5979 -7515.2918 298.8726 -47.3487 48.1961 30219.4563 -80.4961 -23.5003
ENERGY: 1200000 3.6955 8.2269 2.0192 0.0000 -10744.3813 1441.3389 0.0000 0.0000 1781.0455 -7508.0553 301.6197 -9289.1008 -7513.2041 298.5834 -298.2271 -258.9405 30535.2225 -150.5469 -101.5839
ENERGY: 1500000 3.4775 5.1106 3.7338 0.0000 -10806.7401 1475.7473 0.0000 0.0000 1782.8657 -7535.8052 301.9279 -9318.6709 -7515.5528 298.5989 68.1583 122.3049 30043.3078 -145.7191 -94.3000
TCL: Running FEP window   3: Lambda1 0.1    Lambda2 0.15000000000000002 [dLambda 0.05000000000000002]
TCL: Setting parameter firsttimestep to 0
TCL: Setting parameter alchLambda to 0.1
Info: NONBONDED TABLE R-SQUARED SPACING: 0.0625
Info: NONBONDED TABLE SIZE: 705 POINTS
TCL: Setting parameter alchLambda2 to 0.15000000000000002
Info: NONBONDED TABLE R-SQUARED SPACING: 0.0625
Info: NONBONDED TABLE SIZE: 705 POINTS
TCL: Running for 1500000 steps
ETITLE: TS BOND ANGLE DIHED IMPRP ELECT VDW BOUNDARY MISC KINETIC TOTAL TEMP POTENTIAL TOTALAVG TEMPAVG PRESSURE GPRESSURE VOLUME PRESSAVG GPRESSAVG
ENERGY: 0 3.4775 5.1106 3.7338 0.0000 -10806.7377 1475.7161 0.0000 0.0000 1781.9612 -7536.7386 301.7747 -9318.6998 -7536.7386 301.7747 34.8570 127.2129 30043.3078 34.8570 127.2129
ENERGY: 300000 2.5783 8.8805 2.5152 0.0000 -10666.0251 1376.2975 0.0000 0.0000 1779.9514 -7495.8023 301.4344 -9275.7537 -7487.6644 302.1358 -562.2735 -486.4267 30558.5011 -100.1925 3.7321
ENERGY: 600000 1.2144 4.4003 3.8692 0.0000 -10647.3883 1394.4567 0.0000 0.0000 1836.4671 -7406.9805 311.0053 -9243.4476 -7475.2395 303.8234 -121.1491 -82.0844 30207.5405 -250.6754 -162.0570
ENERGY: 900000 2.1504 3.4562 3.5512 0.0000 -10773.5472 1484.2428 0.0000 0.0000 1799.4877 -7480.6589 304.7429 -9280.1466 -7473.0179 303.7611 441.8115 536.0136 30247.7392 -126.4812 -42.6584
ENERGY: 1200000 2.3450 9.5103 3.4494 0.0000 -10720.5482 1451.2976 0.0000 0.0000 1741.1988 -7512.7469 294.8717 -9253.9458 -7475.0996 302.5147 149.3494 206.7223 30176.1242 -76.5033 1.0964
ENERGY: 1500000 8.3399 11.4397 0.6931 0.0000 -10724.6034 1399.9348 0.0000 0.0000 1768.3774 -7535.8185 299.4743 -9304.1959 -7482.6231 302.4729 -551.5984 -519.7053 30188.6841 -79.0341 -6.8397
TCL: Running FEP window   4: Lambda1 0.15000000000000002 Lambda2 0.2    [dLambda 0.04999999999999999]
TCL: Setting parameter firsttimestep to 0
TCL: Setting parameter alchLambda to 0.15000000000000002
Info: NONBONDED TABLE R-SQUARED SPACING: 0.0625
Info: NONBONDED TABLE SIZE: 705 POINTS
TCL: Setting parameter alchLambda2 to 0.2
Info: NONBONDED TABLE R-SQUARED SPACING: 0.0625
Info: NONBONDED TABLE SIZE: 705 POINTS
TCL: Running for 1500000 steps
ETITLE: TS BOND ANGLE DIHED IMPRP ELECT VDW BOUNDARY MISC KINETIC TOTAL TEMP POTENTIAL TOTALAVG TEMPAVG PRESSURE GPRESSURE VOLUME PRESSAVG GPRESSAVG
ENERGY: 0 8.3399 11.4397 0.6931 0.0000 -10724.6037 1399.9871 0.0000 0.0000 1767.4947 -7536.6492 299.3249 -9304.1439 -7536.6492 299.3249 -585.5512 -513.7222 30188.6841 -585.5512 -513.7222
ENERGY: 300000 2.8121 9.8269 3.6506 0.0000 -10734.5198 1431.2726 0.0000 0.0000 1735.0682 -7551.8895 293.8334 -9286.9577 -7526.8632 299.3474 -149.1672 -28.7057 30265.6998 -231.9984 -140.6545
ENERGY: 600000 6.0070 7.8996 3.4015 0.0000 -10657.3058 1453.4451 0.0000 0.0000 1782.3764 -7404.1762 301.8451 -9186.5525 -7505.0987 298.6808 263.0957 254.5238 30547.7935 -95.7861 -29.8821
ENERGY: 900000 4.7737 5.4145 1.8547 0.0000 -10772.2898 1446.4502 0.0000 0.0000 1766.4761 -7547.3207 299.1523 -9313.7968 -7491.7656 300.2357 -445.7679 -288.6054 30550.0976 -123.1786 -56.8230
ENERGY: 1200000 3.6572 6.5400 3.8008 0.0000 -10718.8326 1463.5325 0.0000 0.0000 1851.4337 -7389.8682 313.5399 -9241.3019 -7485.3096 300.5779 88.4041 141.5204 30436.2602 -13.9789 55.5099
ENERGY: 1500000 5.5254 11.2049 3.8235 0.0000 -10566.0412 1337.1761 0.0000 0.0000 1747.5474 -7460.7639 295.9468 -9208.3113 -7483.6359 300.2807 -823.5878 -795.9762 30491.5747 -63.2852 -2.0231
TCL: Running FEP window   5: Lambda1 0.2    Lambda2 0.25   [dLambda 0.04999999999999999]
TCL: Setting parameter firsttimestep to 0
TCL: Setting parameter alchLambda to 0.2
Info: NONBONDED TABLE R-SQUARED SPACING: 0.0625
Info: NONBONDED TABLE SIZE: 705 POINTS
TCL: Setting parameter alchLambda2 to 0.25
Info: NONBONDED TABLE R-SQUARED SPACING: 0.0625
Info: NONBONDED TABLE SIZE: 705 POINTS
TCL: Running for 1500000 steps
ETITLE: TS BOND ANGLE DIHED IMPRP ELECT VDW BOUNDARY MISC KINETIC TOTAL TEMP POTENTIAL TOTALAVG TEMPAVG PRESSURE GPRESSURE VOLUME PRESSAVG GPRESSAVG
ENERGY: 0 5.5254 11.2049 3.8235 0.0000 -10566.0415 1337.2742 0.0000 0.0000 1746.6430 -7461.5704 295.7936 -9208.2135 -7461.5704 295.7936 -870.8510 -793.2962 30491.5747 -870.8510 -793.2962
ENERGY: 300000 3.9832 7.1663 2.3220 0.0000 -10802.7097 1491.8416 0.0000 0.0000 1801.9415 -7495.4551 305.1584 -9297.3965 -7493.4584 301.4488 143.0784 149.8134 30375.7945 -39.6202 1.4460
ENERGY: 600000 1.1990 7.6503 2.9591 0.0000 -10657.5356 1426.3889 0.0000 0.0000 1805.5444 -7413.7939 305.7686 -9219.3383 -7493.0072 300.5990 -23.6657 98.9882 30493.3357 -149.8747 -99.7291
ENERGY: 900000 4.4729 5.3814 4.1709 0.0000 -10739.2428 1444.0134 0.0000 0.0000 1726.4324 -7554.7718 292.3710 -9281.2042 -7489.1684 300.2076 -484.7529 -408.1460 30784.0613 -161.9782 -99.6098
ENERGY: 1200000 3.4764 7.3825 1.4249 0.0000 -10616.6387 1376.7499 0.0000 0.0000 1796.4441 -7431.1609 304.2274 -9227.6051 -7488.5125 300.2915 -830.0131 -786.5899 31075.0723 -215.5524 -161.5940
ENERGY: 1500000 4.5733 8.4860 1.2863 0.0000 -10630.6278 1399.1156 0.0000 0.0000 1780.6712 -7436.4953 301.5563 -9217.1665 -7480.2624 300.2393 -558.4584 -434.2195 30779.1128 -201.0838 -142.4584
TCL: Running FEP window   6: Lambda1 0.25   Lambda2 0.3    [dLambda 0.04999999999999999]
TCL: Setting parameter firsttimestep to 0
TCL: Setting parameter alchLambda to 0.25
Info: NONBONDED TABLE R-SQUARED SPACING: 0.0625
Info: NONBONDED TABLE SIZE: 705 POINTS
TCL: Setting parameter alchLambda2 to 0.3
Info: NONBONDED TABLE R-SQUARED SPACING: 0.0625
Info: NONBONDED TABLE SIZE: 705 POINTS
TCL: Running for 1500000 steps
ETITLE: TS BOND ANGLE DIHED IMPRP ELECT VDW BOUNDARY MISC KINETIC TOTAL TEMP POTENTIAL TOTALAVG TEMPAVG PRESSURE GPRESSURE VOLUME PRESSAVG GPRESSAVG
ENERGY: 0 4.5733 8.4860 1.2863 0.0000 -10630.6290 1399.1012 0.0000 0.0000 1779.7778 -7437.4044 301.4050 -9217.1822 -7437.4044 301.4050 -511.8134 -431.4811 30779.1128 -511.8134 -431.4811
ENERGY: 300000 2.7450 11.2658 4.0877 0.0000 -10854.1389 1480.0466 0.0000 0.0000 1802.4383 -7553.5555 305.2425 -9355.9939 -7499.4579 299.3935 234.3282 311.5035 30075.4961 51.2372 117.3208
ENERGY: 600000 2.7492 5.4029 3.7530 0.0000 -10763.5759 1513.7255 0.0000 0.0000 1800.4093 -7437.5361 304.8989 -9237.9454 -7470.7101 302.5937 641.5536 773.2124 30073.2075 84.9011 174.0468
ENERGY: 900000 2.1130 13.5828 3.2732 0.0000 -10825.6141 1507.7783 0.0000 0.0000 1800.5659 -7498.3008 304.9255 -9298.8667 -7479.1671 302.8638 478.4649 576.3531 29992.9901 138.0857 215.3338
ENERGY: 1200000 1.8243 7.1182 4.7687 0.0000 -10870.4060 1502.5707 0.0000 0.0000 1742.3789 -7611.7451 295.0715 -9354.1240 -7487.3352 302.1511 206.0585 301.4097 30241.6723 136.3842 211.3767
ENERGY: 1500000 1.6793 6.6121 3.9756 0.0000 -10724.9442 1462.9268 0.0000 0.0000 1820.1024 -7429.6481 308.2339 -9249.7505 -7486.9910 301.0415 103.6056 92.6415 30697.9251 95.3965 164.6871
TCL: Running FEP window   7: Lambda1 0.3    Lambda2 0.35   [dLambda 0.04999999999999999]
TCL: Setting parameter firsttimestep to 0
TCL: Setting parameter alchLambda to 0.3
Info: NONBONDED TABLE R-SQUARED SPACING: 0.0625
Info: NONBONDED TABLE SIZE: 705 POINTS
TCL: Setting parameter alchLambda2 to 0.35
Info: NONBONDED TABLE R-SQUARED SPACING: 0.0625
Info: NONBONDED TABLE SIZE: 705 POINTS
TCL: Running for 1500000 steps
ETITLE: TS BOND ANGLE DIHED IMPRP ELECT VDW BOUNDARY MISC KINETIC TOTAL TEMP POTENTIAL TOTALAVG TEMPAVG PRESSURE GPRESSURE VOLUME PRESSAVG GPRESSAVG
ENERGY: 0 1.6793 6.6121 3.9756 0.0000 -10724.9445 1463.1434 0.0000 0.0000 1819.1810 -7430.3531 308.0779 -9249.5341 -7430.3531 308.0779 21.9013 99.1253 30697.9251 21.9013 99.1253
ENERGY: 300000 4.6534 8.1049 3.5916 0.0000 -10685.0884 1441.8625 0.0000 0.0000 1778.9185 -7447.9576 301.2595 -9226.8761 -7451.6966 303.2246 -249.6652 -180.0855 30958.1029 -231.6930 -172.5550
ENERGY: 600000 2.3344 7.7334 4.0472 0.0000 -10633.0152 1418.6002 0.0000 0.0000 1758.2915 -7442.0085 297.7663 -9200.3000 -7462.6778 301.5845 -19.3362 37.4914 30428.3259 -143.9046 -80.2872
ENERGY: 900000 1.3297 7.2731 1.8185 0.0000 -10738.8392 1453.4139 0.0000 0.0000 1726.2658 -7548.7382 292.3427 -9275.0040 -7486.5806 298.1400 84.7285 120.0676 30374.1566 -146.4757 -78.6869
ENERGY: 1200000 2.2729 7.8577 2.0338 0.0000 -10691.9166 1383.8407 0.0000 0.0000 1838.9004 -7457.0110 311.4174 -9295.9114 -7490.1862 298.4358 -827.9956 -736.4840 31148.2405 -244.5034 -174.7189
ENERGY: 1500000 1.4687 7.5397 4.3861 0.0000 -10720.2383 1440.7100 0.0000 0.0000 1796.4710 -7469.6629 304.2320 -9266.1338 -7485.7432 298.5699 -69.4307 -4.1007 30540.9130 -228.0686 -154.0981
TCL: Running FEP window   8: Lambda1 0.35   Lambda2 0.39999999999999997 [dLambda 0.04999999999999999]
TCL: Setting parameter firsttimestep to 0
TCL: Setting parameter alchLambda to 0.35
Info: NONBONDED TABLE R-SQUARED SPACING: 0.0625
Info: NONBONDED TABLE SIZE: 705 POINTS
TCL: Setting parameter alchLambda2 to 0.39999999999999997
Info: NONBONDED TABLE R-SQUARED SPACING: 0.0625
Info: NONBONDED TABLE SIZE: 705 POINTS
TCL: Running for 1500000 steps
ETITLE: TS BOND ANGLE DIHED IMPRP ELECT VDW BOUNDARY MISC KINETIC TOTAL TEMP POTENTIAL TOTALAVG TEMPAVG PRESSURE GPRESSURE VOLUME PRESSAVG GPRESSAVG
ENERGY: 0 1.4687 7.5397 4.3861 0.0000 -10720.2374 1440.8444 0.0000 0.0000 1795.5935 -7470.4049 304.0834 -9265.9984 -7470.4049 304.0834 -86.1613 2.0099 30540.9130 -86.1613 2.0099
ENERGY: 300000 1.2210 8.6825 5.3279 0.0000 -10844.4835 1472.4397 0.0000 0.0000 1794.3401 -7562.4722 303.8711 -9356.8123 -7521.4567 299.0050 90.1588 154.4997 30215.9552 82.3096 132.5287
ENERGY: 600000 5.1440 8.2957 3.2823 0.0000 -10742.7704 1467.8432 0.0000 0.0000 1769.2996 -7488.9057 299.6305 -9258.2053 -7510.5967 296.9961 -7.3839 77.8618 30462.6467 -56.1816 7.5961
ENERGY: 900000 0.6768 10.6522 2.4321 0.0000 -10628.1960 1390.8832 0.0000 0.0000 1751.6236 -7471.9281 296.6371 -9223.5517 -7502.4518 297.2674 -342.0541 -317.0749 30504.2752 -102.4137 -43.5328
ENERGY: 1200000 1.9390 8.9093 6.2259 0.0000 -10592.1562 1374.7568 0.0000 0.0000 1787.4479 -7412.8774 302.7039 -9200.3252 -7505.6467 297.1733 -481.0285 -465.6487 30945.7961 -150.4820 -95.9860
ENERGY: 1500000 2.1873 5.7639 3.4618 0.0000 -10746.1232 1446.5895 0.0000 0.0000 1720.2306 -7567.8901 291.3207 -9288.1208 -7499.2218 297.7833 -63.4780 74.7618 30384.8128 -40.6818 20.5927
TCL: Running FEP window   9: Lambda1 0.39999999999999997 Lambda2 0.44999999999999996 [dLambda 0.04999999999999999]
TCL: Setting parameter firsttimestep to 0
TCL: Setting parameter alchLambda to 0.39999999999999997
Info: NONBONDED TABLE R-SQUARED SPACING: 0.0625
Info: NONBONDED TABLE SIZE: 705 POINTS
TCL: Setting parameter alchLambda2 to 0.44999999999999996
Info: NONBONDED TABLE R-SQUARED SPACING: 0.0625
Info: NONBONDED TABLE SIZE: 705 POINTS
TCL: Running for 1500000 steps
ETITLE: TS BOND ANGLE DIHED IMPRP ELECT VDW BOUNDARY MISC KINETIC TOTAL TEMP POTENTIAL TOTALAVG TEMPAVG PRESSURE GPRESSURE VOLUME PRESSAVG GPRESSAVG
ENERGY: 0 2.1873 5.7639 3.4618 0.0000 -10746.1231 1446.8677 0.0000 0.0000 1719.4068 -7568.4358 291.1812 -9287.8425 -7568.4358 291.1812 -9.1763 80.9711 30384.8128 -9.1763 80.9711
ENERGY: 300000 3.1230 7.7510 2.4156 0.0000 -10665.0719 1398.6489 0.0000 0.0000 1739.7808 -7513.3526 294.6315 -9253.1334 -7507.9488 297.9351 -652.8623 -569.1385 31084.6499 -405.7390 -335.6704
ENERGY: 600000 4.2537 12.0068 2.1255 0.0000 -10681.3254 1419.2511 0.0000 0.0000 1747.1042 -7496.5841 295.8717 -9243.6883 -7513.5891 298.8351 -118.9818 9.2477 30536.6041 -66.7493 14.5446
ENERGY: 900000 0.5018 10.7971 3.5319 0.0000 -10723.0455 1476.6455 0.0000 0.0000 1762.9582 -7468.6111 298.5566 -9231.5692 -7494.7669 299.9659 83.1559 161.9699 30942.2020 -212.2040 -131.1282
ENERGY: 1200000 1.1103 6.9736 3.7203 0.0000 -10670.8013 1435.0373 0.0000 0.0000 1762.5546 -7461.4052 298.4882 -9223.9598 -7489.3801 300.6737 224.0452 265.1693 30424.9330 -11.9858 59.4121
ENERGY: 1500000 2.5702 7.4144 3.3545 0.0000 -10700.9717 1427.9210 0.0000 0.0000 1786.9040 -7472.8077 302.6118 -9259.7117 -7489.8433 299.9592 -244.9947 -190.7309 30715.5382 34.0450 99.8869
TCL: Running FEP window  10: Lambda1 0.44999999999999996 Lambda2 0.49999999999999994 [dLambda 0.04999999999999999]
TCL: Setting parameter firsttimestep to 0
TCL: Setting parameter alchLambda to 0.44999999999999996
Info: NONBONDED TABLE R-SQUARED SPACING: 0.0625
Info: NONBONDED TABLE SIZE: 705 POINTS
TCL: Setting parameter alchLambda2 to 0.49999999999999994
Info: NONBONDED TABLE R-SQUARED SPACING: 0.0625
Info: NONBONDED TABLE SIZE: 705 POINTS
TCL: Running for 1500000 steps
ETITLE: TS BOND ANGLE DIHED IMPRP ELECT VDW BOUNDARY MISC KINETIC TOTAL TEMP POTENTIAL TOTALAVG TEMPAVG PRESSURE GPRESSURE VOLUME PRESSAVG GPRESSAVG
ENERGY: 0 2.5702 7.4144 3.3545 0.0000 -10700.9712 1428.6921 0.0000 0.0000 1786.0434 -7472.8966 302.4661 -9258.9400 -7472.8966 302.4661 -257.5201 -173.8961 30715.5382 -257.5201 -173.8961
ENERGY: 300000 2.6094 5.5078 2.4221 0.0000 -10819.9875 1444.7803 0.0000 0.0000 1784.9244 -7579.7435 302.2766 -9364.6679 -7493.3186 300.4623 -521.7669 -473.6165 30669.7279 -210.0968 -158.6880
ENERGY: 600000 2.4331 7.0323 3.6291 0.0000 -10721.1195 1411.5515 0.0000 0.0000 1793.9856 -7502.4881 303.8111 -9296.4736 -7501.2265 300.6479 -313.3555 -224.8904 30282.3955 -191.3472 -141.0270
ENERGY: 900000 1.3872 7.7733 2.2577 0.0000 -10601.5190 1415.0962 0.0000 0.0000 1763.2355 -7411.7691 298.6036 -9175.0046 -7487.0962 299.9443 -84.4282 -50.4622 30783.0538 -235.8645 -183.1001
ENERGY: 1200000 1.2444 4.8572 5.5877 0.0000 -10827.5753 1462.0849 0.0000 0.0000 1801.5832 -7552.2179 305.0977 -9353.8010 -7497.9857 300.3484 -112.0311 -1.3584 30182.5722 -219.1404 -167.9636
ENERGY: 1500000 3.4576 6.6601 2.7381 0.0000 -10713.3335 1443.2594 0.0000 0.0000 1784.0927 -7473.1256 302.1357 -9257.2183 -7493.2152 300.5412 -131.5150 -51.2378 30475.2430 -183.4456 -124.8932
TCL: Running FEP window  11: Lambda1 0.49999999999999994 Lambda2 0.5499999999999999 [dLambda 0.04999999999999999]
TCL: Setting parameter firsttimestep to 0
TCL: Setting parameter alchLambda to 0.49999999999999994
Info: NONBONDED TABLE R-SQUARED SPACING: 0.0625
Info: NONBONDED TABLE SIZE: 705 POINTS
TCL: Setting parameter alchLambda2 to 0.5499999999999999
Info: NONBONDED TABLE R-SQUARED SPACING: 0.0625
Info: NONBONDED TABLE SIZE: 705 POINTS
TCL: Running for 1500000 steps
ETITLE: TS BOND ANGLE DIHED IMPRP ELECT VDW BOUNDARY MISC KINETIC TOTAL TEMP POTENTIAL TOTALAVG TEMPAVG PRESSURE GPRESSURE VOLUME PRESSAVG GPRESSAVG
ENERGY: 0 3.4576 6.6601 2.7381 0.0000 -10713.3321 1444.2013 0.0000 0.0000 1783.2148 -7473.0603 301.9870 -9256.2751 -7473.0603 301.9870 -120.0601 -33.6481 30475.2430 -120.0601 -33.6481
ENERGY: 300000 2.6602 12.7397 1.4920 0.0000 -10639.7446 1380.3409 0.0000 0.0000 1791.2783 -7451.2336 303.3526 -9242.5119 -7486.9397 301.1519 -427.3105 -414.4820 30645.0125 -185.2391 -141.6923
ENERGY: 600000 3.9663 6.7930 2.9272 0.0000 -10532.4474 1350.6998 0.0000 0.0000 1738.2465 -7429.8145 294.3717 -9168.0610 -7489.7191 299.7197 -643.3308 -548.8264 30864.3880 -425.7797 -375.5680
ENERGY: 900000 2.3229 6.7584 6.4724 0.0000 -10768.0825 1476.9040 0.0000 0.0000 1752.9255 -7522.6993 296.8576 -9275.6248 -7495.1356 299.0487 284.7693 355.0546 30289.3061 -249.0560 -190.5337
ENERGY: 1200000 2.9365 7.4169 3.3844 0.0000 -10599.2238 1410.6573 0.0000 0.0000 1693.5190 -7481.3097 286.7971 -9174.8287 -7488.8860 299.5186 -138.2044 -107.5875 30381.2839 -231.0929 -171.9253
ENERGY: 1500000 2.6211 9.4294 2.6357 0.0000 -10873.4648 1496.9599 0.0000 0.0000 1748.3287 -7613.4899 296.0791 -9361.8186 -7498.7360 299.3693 62.3296 205.7610 30534.0965 -294.9516 -228.6873
TCL: Running FEP window  12: Lambda1 0.5499999999999999 Lambda2 0.6    [dLambda 0.050000000000000044]
TCL: Setting parameter firsttimestep to 0
TCL: Setting parameter alchLambda to 0.5499999999999999
Info: NONBONDED TABLE R-SQUARED SPACING: 0.0625
Info: NONBONDED TABLE SIZE: 705 POINTS
TCL: Setting parameter alchLambda2 to 0.6
Info: NONBONDED TABLE R-SQUARED SPACING: 0.0625
Info: NONBONDED TABLE SIZE: 705 POINTS
TCL: Running for 1500000 steps
ETITLE: TS BOND ANGLE DIHED IMPRP ELECT VDW BOUNDARY MISC KINETIC TOTAL TEMP POTENTIAL TOTALAVG TEMPAVG PRESSURE GPRESSURE VOLUME PRESSAVG GPRESSAVG
ENERGY: 0 2.6211 9.4294 2.6357 0.0000 -10872.9223 1497.7350 0.0000 0.0000 1747.4641 -7613.0369 295.9327 -9360.5010 -7613.0369 295.9327 124.6298 222.6721 30534.0965 124.6298 222.6721
ENERGY: 300000 4.1676 7.2334 2.2991 0.0000 -10725.6270 1416.9342 0.0000 0.0000 1810.1434 -7484.8492 306.5474 -9294.9926 -7503.5710 300.2132 -306.8566 -242.6500 30483.9884 223.8515 298.1403
ENERGY: 600000 1.5417 10.4673 2.1926 0.0000 -10722.1980 1476.0464 0.0000 0.0000 1752.5378 -7479.4122 296.7919 -9231.9499 -7502.0550 298.7395 245.3382 301.1476 30829.6649 -0.8370 73.1746
ENERGY: 900000 3.0134 7.0956 4.0350 0.0000 -10744.5407 1486.4795 0.0000 0.0000 1776.9669 -7466.9503 300.9290 -9243.9172 -7495.7825 298.1920 337.4071 534.1800 30354.3982 61.7647 147.4842
ENERGY: 1200000 3.9374 9.9751 4.6162 0.0000 -10860.3190 1526.4103 0.0000 0.0000 1781.9670 -7533.4130 301.7757 -9315.3799 -7494.6462 299.1621 193.8451 303.7958 30581.4791 73.1926 157.5000
ENERGY: 1500000 2.1252 8.2481 2.0531 0.0000 -10670.7913 1359.0768 0.0000 0.0000 1736.4468 -7562.8412 294.0669 -9299.2880 -7499.6179 299.1268 -747.6695 -705.3441 30469.0122 6.2058 86.6081
TCL: Running FEP window  13: Lambda1 0.6    Lambda2 0.65   [dLambda 0.050000000000000044]
TCL: Setting parameter firsttimestep to 0
TCL: Setting parameter alchLambda to 0.6
Info: NONBONDED TABLE R-SQUARED SPACING: 0.0625
Info: NONBONDED TABLE SIZE: 705 POINTS
TCL: Setting parameter alchLambda2 to 0.65
Info: NONBONDED TABLE R-SQUARED SPACING: 0.0625
Info: NONBONDED TABLE SIZE: 705 POINTS
TCL: Running for 1500000 steps
ETITLE: TS BOND ANGLE DIHED IMPRP ELECT VDW BOUNDARY MISC KINETIC TOTAL TEMP POTENTIAL TOTALAVG TEMPAVG PRESSURE GPRESSURE VOLUME PRESSAVG GPRESSAVG
ENERGY: 0 2.1252 8.2481 2.0531 0.0000 -10670.7263 1360.4012 0.0000 0.0000 1735.5514 -7562.3473 293.9153 -9297.8987 -7562.3473 293.9153 -766.3472 -685.6001 30469.0122 -766.3472 -685.6001
ENERGY: 300000 1.4666 8.2627 3.7702 0.0000 -10709.4268 1450.2005 0.0000 0.0000 1787.3552 -7458.3716 302.6882 -9245.7268 -7519.1840 297.2802 -113.6996 -82.6519 30717.2539 -263.9453 -204.1859
ENERGY: 600000 2.9730 9.1949 2.2034 0.0000 -10785.0344 1536.7185 0.0000 0.0000 1733.8374 -7500.1070 293.6250 -9233.9444 -7492.6888 299.0494 663.0936 814.7116 30436.8682 -113.6098 -45.2425
ENERGY: 900000 4.2179 6.8928 2.6947 0.0000 -10562.6844 1379.6777 0.0000 0.0000 1781.1808 -7388.0205 301.6426 -9169.2013 -7480.8965 299.6469 -373.4421 -356.1872 30931.9744 -206.6694 -138.4197
ENERGY: 1200000 3.7683 7.0092 2.6804 0.0000 -10826.2467 1501.4060 0.0000 0.0000 1776.4230 -7534.9598 300.8368 -9311.3828 -7494.1686 299.1868 41.7792 85.9504 30891.4808 -119.9099 -52.0953
ENERGY: 1500000 1.5221 10.6272 1.2614 0.0000 -10618.4793 1350.9308 0.0000 0.0000 1811.2204 -7442.9174 306.7298 -9254.1379 -7480.9017 300.6345 -836.3939 -806.4550 30874.5836 -137.5799 -72.1517
TCL: Running FEP window  14: Lambda1 0.65   Lambda2 0.7000000000000001 [dLambda 0.050000000000000044]
TCL: Setting parameter firsttimestep to 0
TCL: Setting parameter alchLambda to 0.65
Info: NONBONDED TABLE R-SQUARED SPACING: 0.0625
Info: NONBONDED TABLE SIZE: 705 POINTS
TCL: Setting parameter alchLambda2 to 0.7000000000000001
Info: NONBONDED TABLE R-SQUARED SPACING: 0.0625
Info: NONBONDED TABLE SIZE: 705 POINTS
TCL: Running for 1500000 steps
ETITLE: TS BOND ANGLE DIHED IMPRP ELECT VDW BOUNDARY MISC KINETIC TOTAL TEMP POTENTIAL TOTALAVG TEMPAVG PRESSURE GPRESSURE VOLUME PRESSAVG GPRESSAVG
ENERGY: 0 1.5221 10.6272 1.2614 0.0000 -10619.0433 1350.9587 0.0000 0.0000 1810.2663 -7444.4077 306.5682 -9254.6740 -7444.4077 306.5682 -886.8402 -799.7630 30874.5836 -886.8402 -799.7630
ENERGY: 300000 1.9441 5.0190 5.1044 0.0000 -10766.2365 1466.9650 0.0000 0.0000 1768.6595 -7518.5445 299.5221 -9287.2041 -7501.7515 299.5361 303.2297 340.4819 30431.2531 -86.7251 -11.9068
ENERGY: 600000 3.5987 5.8823 2.6245 0.0000 -10719.5612 1459.9798 0.0000 0.0000 1749.0646 -7498.4114 296.2037 -9247.4760 -7493.2905 299.1190 208.1909 264.7606 30563.2868 14.2003 77.0539
ENERGY: 900000 5.2708 7.7911 3.2865 0.0000 -10835.8765 1503.4756 0.0000 0.0000 1746.1098 -7569.9427 295.7033 -9316.0525 -7503.4408 300.1119 291.5575 327.0247 30249.8544 -63.5019 -0.0028
ENERGY: 1200000 1.6499 5.7334 2.6505 0.0000 -10740.9228 1381.6541 0.0000 0.0000 1730.5205 -7618.7144 293.0633 -9349.2349 -7512.0785 299.5763 -534.6580 -416.0915 29974.1188 -68.8510 -9.7052
ENERGY: 1500000 0.9785 7.6292 4.0658 0.0000 -10597.8122 1352.3170 0.0000 0.0000 1752.7645 -7480.0572 296.8303 -9232.8217 -7503.0520 299.5623 -538.3532 -488.5108 30343.1330 -81.4247 -23.1270
TCL: Running FEP window  15: Lambda1 0.7000000000000001 Lambda2 0.7500000000000001 [dLambda 0.050000000000000044]
TCL: Setting parameter firsttimestep to 0
TCL: Setting parameter alchLambda to 0.7000000000000001
Info: NONBONDED TABLE R-SQUARED SPACING: 0.0625
Info: NONBONDED TABLE SIZE: 705 POINTS
TCL: Setting parameter alchLambda2 to 0.7500000000000001
Info: NONBONDED TABLE R-SQUARED SPACING: 0.0625
Info: NONBONDED TABLE SIZE: 705 POINTS
TCL: Running for 1500000 steps
ETITLE: TS BOND ANGLE DIHED IMPRP ELECT VDW BOUNDARY MISC KINETIC TOTAL TEMP POTENTIAL TOTALAVG TEMPAVG PRESSURE GPRESSURE VOLUME PRESSAVG GPRESSAVG
ENERGY: 0 0.9785 7.6292 4.0658 0.0000 -10597.3949 1353.0399 0.0000 0.0000 1751.8997 -7479.7819 296.6838 -9231.6815 -7479.7819 296.6838 -545.6598 -468.4888 30343.1330 -545.6598 -468.4888
ENERGY: 300000 2.0525 8.8044 4.1927 0.0000 -10648.2614 1348.3382 0.0000 0.0000 1779.5816 -7505.2919 301.3718 -9284.8736 -7479.0662 299.4954 -805.8812 -760.3727 30526.6432 -404.8076 -337.4650
ENERGY: 600000 1.8779 4.6597 3.8270 0.0000 -10687.9144 1419.9304 0.0000 0.0000 1790.0509 -7467.5684 303.1447 -9257.6194 -7507.0073 298.4508 -271.0250 -232.1500 30780.6911 -311.3977 -260.0456
ENERGY: 900000 6.2829 7.7723 1.1567 0.0000 -10722.6350 1424.1178 0.0000 0.0000 1774.7014 -7508.6039 300.5453 -9283.3052 -7516.3068 298.3802 -86.4979 -15.2168 30199.7075 -180.3690 -124.8135
ENERGY: 1200000 0.3531 6.5330 4.4827 0.0000 -10860.8886 1557.2234 0.0000 0.0000 1793.0813 -7499.2152 303.6579 -9292.2964 -7525.3235 298.3130 1184.5454 1269.2350 29903.5389 -86.5663 -22.3768
ENERGY: 1500000 1.1083 9.8618 0.9179 0.0000 -10777.0239 1504.5766 0.0000 0.0000 1731.2305 -7529.3287 293.1835 -9260.5592 -7521.5214 298.5908 362.2266 419.6545 30848.8843 -88.2534 -28.4601
TCL: Running FEP window  16: Lambda1 0.7500000000000001 Lambda2 0.8000000000000002 [dLambda 0.050000000000000044]
TCL: Setting parameter firsttimestep to 0
TCL: Setting parameter alchLambda to 0.7500000000000001
Info: NONBONDED TABLE R-SQUARED SPACING: 0.0625
Info: NONBONDED TABLE SIZE: 705 POINTS
TCL: Setting parameter alchLambda2 to 0.8000000000000002
Info: NONBONDED TABLE R-SQUARED SPACING: 0.0625
Info: NONBONDED TABLE SIZE: 705 POINTS
TCL: Running for 1500000 steps
ETITLE: TS BOND ANGLE DIHED IMPRP ELECT VDW BOUNDARY MISC KINETIC TOTAL TEMP POTENTIAL TOTALAVG TEMPAVG PRESSURE GPRESSURE VOLUME PRESSAVG GPRESSAVG
ENERGY: 0 1.1083 9.8618 0.9179 0.0000 -10777.5330 1505.6516 0.0000 0.0000 1730.3456 -7529.6477 293.0337 -9259.9933 -7529.6477 293.0337 370.8746 442.1536 30848.8843 370.8746 442.1536
ENERGY: 300000 3.2223 7.4820 2.0016 0.0000 -10835.4356 1473.4311 0.0000 0.0000 1806.1355 -7543.1631 305.8687 -9349.2986 -7534.9842 297.8456 -141.8498 -6.3100 30488.8414 -340.7258 -258.0429
ENERGY: 600000 5.2267 10.5136 3.8133 0.0000 -10615.0702 1382.9829 0.0000 0.0000 1812.1790 -7400.3546 306.8921 -9212.5337 -7493.8323 301.7990 -437.6259 -327.7770 30773.6357 -406.4384 -310.5126
ENERGY: 900000 5.6246 7.5107 3.9437 0.0000 -10850.7795 1495.6399 0.0000 0.0000 1824.5053 -7513.5554 308.9796 -9338.0607 -7491.3634 301.7826 195.9326 207.0446 30491.5803 -235.9640 -155.3075
ENERGY: 1200000 3.5253 8.3558 3.3754 0.0000 -10684.7708 1422.2867 0.0000 0.0000 1739.1577 -7508.0699 294.5260 -9247.2276 -7485.6463 301.6369 33.1296 -0.4165 30473.2152 -153.5961 -80.3508
ENERGY: 1500000 3.2983 6.4874 3.6633 0.0000 -10786.1532 1490.5476 0.0000 0.0000 1748.9498 -7533.2068 296.1843 -9282.1565 -7489.3696 301.3773 268.3153 295.7806 30612.5907 -171.5748 -99.0388
TCL: Running FEP window  17: Lambda1 0.8000000000000002 Lambda2 0.8500000000000002 [dLambda 0.050000000000000044]
TCL: Setting parameter firsttimestep to 0
TCL: Setting parameter alchLambda to 0.8000000000000002
Info: NONBONDED TABLE R-SQUARED SPACING: 0.0625
Info: NONBONDED TABLE SIZE: 705 POINTS
TCL: Setting parameter alchLambda2 to 0.8500000000000002
Info: NONBONDED TABLE R-SQUARED SPACING: 0.0625
Info: NONBONDED TABLE SIZE: 705 POINTS
TCL: Running for 1500000 steps
ETITLE: TS BOND ANGLE DIHED IMPRP ELECT VDW BOUNDARY MISC KINETIC TOTAL TEMP POTENTIAL TOTALAVG TEMPAVG PRESSURE GPRESSURE VOLUME PRESSAVG GPRESSAVG
ENERGY: 0 3.2983 6.4874 3.6633 0.0000 -10786.8541 1490.6859 0.0000 0.0000 1748.0415 -7534.6775 296.0305 -9282.7191 -7534.6775 296.0305 233.6188 309.9974 30612.5907 233.6188 309.9974
ENERGY: 300000 1.5830 8.1836 3.1114 0.0000 -10810.2032 1515.7645 0.0000 0.0000 1812.0249 -7469.5357 306.8660 -9281.5607 -7484.8124 302.3010 512.5791 566.1284 30617.2756 166.3976 201.6263
ENERGY: 600000 4.0648 7.2407 4.3268 0.0000 -10912.6163 1552.0584 0.0000 0.0000 1766.1353 -7578.7904 299.0946 -9344.9256 -7488.6948 302.6034 1028.4034 1055.3677 30043.0045 399.3007 448.9193
ENERGY: 900000 1.3604 6.0328 0.9534 0.0000 -10739.0735 1477.6835 0.0000 0.0000 1812.6379 -7440.4054 306.9698 -9253.0434 -7479.2829 302.8306 580.0097 610.3754 30167.6768 348.5223 399.4007
ENERGY: 1200000 3.5021 7.5832 4.7813 0.0000 -10610.7479 1362.8831 0.0000 0.0000 1724.1682 -7507.8300 291.9875 -9231.9982 -7483.2870 301.1592 -603.4852 -456.6194 30686.5833 171.1393 225.3842
ENERGY: 1500000 2.6558 8.6150 1.5813 0.0000 -10745.0826 1476.9261 0.0000 0.0000 1779.1997 -7476.1046 301.3071 -9255.3043 -7483.5679 300.6342 185.0135 215.7721 30575.1408 156.3989 217.5245
TCL: Running FEP window  18: Lambda1 0.8500000000000002 Lambda2 0.9000000000000002 [dLambda 0.050000000000000044]
TCL: Setting parameter firsttimestep to 0
TCL: Setting parameter alchLambda to 0.8500000000000002
Info: NONBONDED TABLE R-SQUARED SPACING: 0.0625
Info: NONBONDED TABLE SIZE: 705 POINTS
TCL: Setting parameter alchLambda2 to 0.9000000000000002
Info: NONBONDED TABLE R-SQUARED SPACING: 0.0625
Info: NONBONDED TABLE SIZE: 705 POINTS
TCL: Running for 1500000 steps
ETITLE: TS BOND ANGLE DIHED IMPRP ELECT VDW BOUNDARY MISC KINETIC TOTAL TEMP POTENTIAL TOTALAVG TEMPAVG PRESSURE GPRESSURE VOLUME PRESSAVG GPRESSAVG
ENERGY: 0 2.6558 8.6150 1.5813 0.0000 -10745.0503 1476.7566 0.0000 0.0000 1778.3362 -7477.1053 301.1609 -9255.4415 -7477.1053 301.1609 145.2255 226.2002 30575.1408 145.2255 226.2002
ENERGY: 300000 7.0300 4.5880 1.8936 0.0000 -10588.2980 1374.3654 0.0000 0.0000 1792.2219 -7408.1991 303.5124 -9200.4210 -7499.2161 298.1433 -482.1914 -488.0868 30601.8624 -213.2955 -172.2293
ENERGY: 600000 4.9508 5.9285 4.5108 0.0000 -10806.9135 1514.9400 0.0000 0.0000 1784.0564 -7492.5269 302.1296 -9276.5833 -7500.2435 297.8706 664.7946 685.2298 30485.7618 50.3373 96.5164
ENERGY: 900000 4.1606 5.7166 2.7018 0.0000 -10660.0301 1345.2822 0.0000 0.0000 1758.5462 -7543.6226 297.8094 -9302.1688 -7506.4597 298.6046 -867.3838 -845.5126 30212.4686 -18.5151 28.3529
ENERGY: 1200000 5.8367 7.4635 3.6135 0.0000 -10671.5262 1374.0892 0.0000 0.0000 1727.1038 -7553.4195 292.4847 -9280.5233 -7516.5946 297.8771 -642.6381 -592.8433 30786.8576 63.8482 107.0930
ENERGY: 1500000 4.8732 3.9212 4.4373 0.0000 -10667.2215 1424.0208 0.0000 0.0000 1760.7107 -7469.2583 298.1760 -9229.9690 -7507.9310 298.9376 -205.9937 -123.7401 30679.0451 27.4543 77.1400
TCL: Running FEP window  19: Lambda1 0.9000000000000002 Lambda2 0.9500000000000003 [dLambda 0.050000000000000044]
TCL: Setting parameter firsttimestep to 0
TCL: Setting parameter alchLambda to 0.9000000000000002
Info: NONBONDED TABLE R-SQUARED SPACING: 0.0625
Info: NONBONDED TABLE SIZE: 705 POINTS
TCL: Setting parameter alchLambda2 to 0.9500000000000003
Info: NONBONDED TABLE R-SQUARED SPACING: 0.0625
Info: NONBONDED TABLE SIZE: 705 POINTS
TCL: Running for 1500000 steps
ETITLE: TS BOND ANGLE DIHED IMPRP ELECT VDW BOUNDARY MISC KINETIC TOTAL TEMP POTENTIAL TOTALAVG TEMPAVG PRESSURE GPRESSURE VOLUME PRESSAVG GPRESSAVG
ENERGY: 0 4.8732 3.9212 4.4373 0.0000 -10668.1666 1424.4441 0.0000 0.0000 1759.8358 -7470.6550 298.0278 -9230.4908 -7470.6550 298.0278 -186.2222 -105.9050 30679.0451 -186.2222 -105.9050
ENERGY: 300000 3.2450 6.7702 2.8487 0.0000 -10760.1866 1517.8752 0.0000 0.0000 1725.7349 -7503.7125 292.2528 -9229.4474 -7492.0054 297.2392 441.7901 480.8908 30981.8006 -6.2158 64.3368
ENERGY: 600000 1.0171 9.6337 2.8741 0.0000 -10616.7908 1400.9967 0.0000 0.0000 1806.8225 -7395.4467 305.9850 -9202.2692 -7487.9614 299.3939 -120.7086 -37.2563 30833.1639 114.8048 178.9324
ENERGY: 900000 1.7174 5.7113 3.2275 0.0000 -10801.6282 1496.2959 0.0000 0.0000 1748.7256 -7545.9506 296.1463 -9294.6761 -7513.9047 297.9280 509.5294 500.3455 30324.1801 87.7266 142.8468
ENERGY: 1200000 2.1940 7.2021 2.0275 0.0000 -10686.4690 1439.3139 0.0000 0.0000 1749.3967 -7486.3348 296.2600 -9235.7315 -7515.9224 297.1818 126.8478 190.5987 30401.9333 75.6286 126.3366
ENERGY: 1500000 3.9812 6.1596 4.4204 0.0000 -10661.2707 1388.2872 0.0000 0.0000 1777.7589 -7480.6634 301.0631 -9258.4223 -7513.7153 298.0441 -279.1124 -203.6184 30332.1117 47.3055 95.1514
TCL: Running FEP window  20: Lambda1 0.9500000000000003 Lambda2 1.0    [dLambda 0.04999999999999971]
TCL: Setting parameter firsttimestep to 0
TCL: Setting parameter alchLambda to 0.9500000000000003
Info: NONBONDED TABLE R-SQUARED SPACING: 0.0625
Info: NONBONDED TABLE SIZE: 705 POINTS
TCL: Setting parameter alchLambda2 to 1.0
Info: NONBONDED TABLE R-SQUARED SPACING: 0.0625
Info: NONBONDED TABLE SIZE: 705 POINTS
TCL: Running for 1500000 steps
ETITLE: TS BOND ANGLE DIHED IMPRP ELECT VDW BOUNDARY MISC KINETIC TOTAL TEMP POTENTIAL TOTALAVG TEMPAVG PRESSURE GPRESSURE VOLUME PRESSAVG GPRESSAVG
ENERGY: 0 3.9812 6.1596 4.4204 0.0000 -10661.4038 1388.5648 0.0000 0.0000 1776.8614 -7481.4162 300.9111 -9258.2776 -7481.4162 300.9111 -282.0572 -182.4941 30332.1117 -282.0572 -182.4941
ENERGY: 300000 2.3287 7.6667 2.6306 0.0000 -10810.4052 1508.2281 0.0000 0.0000 1705.6799 -7583.8712 288.8565 -9289.5511 -7542.1660 296.4524 539.4470 631.7980 30445.6672 232.7448 307.9353
ENERGY: 600000 3.9800 8.3620 1.0720 0.0000 -10699.4033 1439.4904 0.0000 0.0000 1780.8009 -7465.6980 301.5783 -9246.4989 -7510.8548 299.0040 -76.8604 -57.9035 30511.5033 122.3919 180.2528
ENERGY: 900000 2.3729 6.8749 1.7707 0.0000 -10698.2396 1333.4705 0.0000 0.0000 1754.9353 -7598.8154 297.1979 -9353.7507 -7523.4055 297.9532 -837.4797 -801.3268 30091.5575 73.5665 126.7688
ENERGY: 1200000 1.0449 6.4196 2.3803 0.0000 -10892.1953 1538.4305 0.0000 0.0000 1800.8562 -7543.0638 304.9746 -9343.9201 -7520.9214 299.7042 564.6252 591.4147 30630.8442 113.7349 162.1187
ENERGY: 1500000 0.9774 6.2993 5.2674 0.0000 -10764.5803 1463.5020 0.0000 0.0000 1790.0045 -7498.5297 303.1369 -9288.5342 -7518.1963 298.7277 25.0113 71.2037 30931.8123 89.1715 138.1022
TCL: Exiting due to exit command.
